
  InDraw 03262309292D 1   1.00000     0.00000     0 5.4.5

  9 10  0     0  0            999 V2000
   15.9197   -9.6786    0.0000 C   0  0  0  0  0  0  0  0  0  0  0  0    
   16.7857   -9.1786    0.0000 C   0  0  0  0  0  0  0  0  0  0  0  0    
   17.6517   -9.6786    0.0000 N   0  0  0  0  0  0  0  0  0  0  0  0    
   17.6517  -10.6786    0.0000 C   0  0  0  0  0  0  0  0  0  0  0  0    
   16.7857  -11.1786    0.0000 N   0  0  0  0  0  0  0  0  0  0  0  0    
   15.9197  -10.6786    0.0000 C   0  0  0  0  0  0  0  0  0  0  0  0    
   14.9686  -10.9876    0.0000 N   0  0  0  0  0  0  0  0  0  0  0  0    
   14.3808  -10.1786    0.0000 C   0  0  0  0  0  0  0  0  0  0  0  0    
   14.9686   -9.3696    0.0000 C   0  0  0  0  0  0  0  0  0  0  0  0    
  1  2  1  0     0  0
  2  3  2  0     0  0
  3  4  1  0     0  0
  4  5  2  0     0  0
  5  6  1  0     0  0
  6  1  2  0     0  0
  6  7  1  0     0  0
  7  8  1  0     0  0
  8  9  2  0     0  0
  9  1  1  0     0  0
M  END
