
  InDraw 02262320392D 1   1.00000     0.00000     0 5.4.5

 36 40  0     0  0            999 V2000
   17.0641   -5.4029    0.0000 N   0  0  0  0  0  0  0  0  0  0  0  0    
    6.4195   -8.7233    0.0000 N   0  0  0  0  0  0  0  0  0  0  0  0    
   18.4312   -7.8442    0.0000 N   0  0  0  0  0  0  0  0  0  0  0  0    
   14.1344   -9.9928    0.0000 N   0  0  0  0  0  0  0  0  0  0  0  0    
   17.0641  -10.2856    0.0000 N   0  0  0  0  0  0  0  0  0  0  0  0    
    4.2711  -12.1411    0.0000 N   0  0  0  0  0  0  0  0  0  0  0  0    
    5.6383   -9.8950    0.0000 C   0  0  0  0  0  0  0  0  0  0  0  0    
    3.5875  -10.9693    0.0000 C   0  0  0  0  0  0  0  0  0  0  0  0    
   13.1579   -8.6255    0.0000 C   0  0  0  0  0  0  0  0  0  0  0  0    
   17.0641   -7.1608    0.0000 C   0  0  0  0  0  0  0  0  0  0  0  0    
   15.6969   -9.4068    0.0000 C   0  0  0  0  0  0  0  0  0  0  0  0    
    6.3219  -11.0669    0.0000 C   0  0  0  0  0  0  0  0  0  0  0  0    
    8.1774   -8.6255    0.0000 C   0  0  0  0  0  0  0  0  0  0  0  0    
    4.2711   -9.8950    0.0000 C   0  0  0  0  0  0  0  0  0  0  0  0    
   10.6188   -9.9928    0.0000 C   0  0  0  0  0  0  0  0  0  0  0  0    
   11.4000   -8.6255    0.0000 C   0  0  0  0  0  0  0  0  0  0  0  0    
   15.6969   -7.9420    0.0000 C   0  0  0  0  0  0  0  0  0  0  0  0    
   14.1344   -7.3560    0.0000 C   0  0  0  0  0  0  0  0  0  0  0  0    
    9.0563   -7.2584    0.0000 C   0  0  0  0  0  0  0  0  0  0  0  0    
   10.6188   -7.2584    0.0000 C   0  0  0  0  0  0  0  0  0  0  0  0    
    8.9586  -10.0904    0.0000 C   0  0  0  0  0  0  0  0  0  0  0  0    
    5.6383  -12.1411    0.0000 C   0  0  0  0  0  0  0  0  0  0  0  0    
   18.3336   -9.4068    0.0000 C   0  0  0  0  0  0  0  0  0  0  0  0    
   18.6266   -4.6216    0.0000 C   0  0  0  0  0  0  0  0  0  0  0  0    
   11.8882  -11.7505    0.0000 C   0  0  0  0  0  0  0  0  0  0  0  0    
   20.1627   -5.4535    0.0000 C   0  0  0  0  0  0  0  0  0  0  0  0    
   21.6512   -4.5390    0.0000 C   0  0  0  0  0  0  0  0  0  0  0  0    
   23.1874   -5.3709    0.0000 C   0  0  0  0  0  0  0  0  0  0  0  0    
   24.6758   -4.4562    0.0000 N   0  0  0  0  0  0  0  0  0  0  0  0    
   26.2120   -5.2883    0.0000 C   0  0  0  0  0  0  0  0  0  0  0  0    
   27.7005   -4.3736    0.0000 C   0  0  0  0  0  0  0  0  0  0  0  0    
   29.2368   -5.2055    0.0000 C   0  0  0  0  0  0  0  0  0  0  0  0    
   29.2844   -6.9517    0.0000 C   0  0  0  0  0  0  0  0  0  0  0  0    
   27.7960   -7.8662    0.0000 C   0  0  0  0  0  0  0  0  0  0  0  0    
   26.2596   -7.0344    0.0000 C   0  0  0  0  0  0  0  0  0  0  0  0    
   30.8205   -7.7836    0.0000 Cl  0  0  0  0  0  0  0  0  0  0  0  0    
  7  2  1  0     0  0
  8  6  1  0     0  0
  6 22  1  0     0  0
  3 23  2  0     0  0
  9  4  1  0     0  0
  1 10  1  0     0  0
 11  5  2  0     0  0
 10  3  1  0     0  0
  5 23  1  0     0  0
  4 11  1  0     0  0
  1 24  1  0     0  0
 22 12  1  0     0  0
  2 13  1  0     0  0
  7 12  1  0     0  0
  8 14  1  0     0  0
 14  7  1  0     0  0
 15 16  2  0     0  0
 17 11  1  0     0  0
 17 10  2  0     0  0
 16  9  1  0     0  0
 18 17  1  0     0  0
 19 20  2  0     0  0
 21 15  1  0     0  0
 13 19  1  0     0  0
 20 16  1  0     0  0
 13 21  2  0     0  0
 15 25  1  0     0  0
 18  9  2  0     0  0
 24 26  1  0     0  0
 26 27  1  0     0  0
 27 28  1  0     0  0
 28 29  1  0     0  0
 29 30  1  0     0  0
 30 31  1  0     0  0
 31 32  2  0     0  0
 32 33  1  0     0  0
 33 34  2  0     0  0
 34 35  1  0     0  0
 35 30  2  0     0  0
 33 36  1  0     0  0
M  END
