
  InDraw 02262320282D 1   1.00000     0.00000     0 5.4.5

 39 45  0     0  0            999 V2000
   16.6875   -7.6875    0.0000 O   0  0  0  0  0  0  0  0  0  0  0  0    
    9.8750   -9.8125    0.0000 N   0  0  0  0  0  0  0  0  0  0  0  0    
   17.5625   -9.2500    0.0000 N   0  0  0  0  0  0  0  0  0  0  0  0    
   14.8125  -10.6250    0.0000 N   0  0  0  0  0  0  0  0  0  0  0  0    
   16.6875  -10.8125    0.0000 N   0  0  0  0  0  0  0  0  0  0  0  0    
    8.5000  -12.0000    0.0000 N   0  0  0  0  0  0  0  0  0  0  0  0    
    9.3750  -10.5625    0.0000 C   0  0  0  0  0  0  0  0  0  0  0  0    
    8.0625  -11.2500    0.0000 C   0  0  0  0  0  0  0  0  0  0  0  0    
   14.1875   -9.7500    0.0000 C   0  0  0  0  0  0  0  0  0  0  0  0    
   16.6875   -8.8125    0.0000 C   0  0  0  0  0  0  0  0  0  0  0  0    
   19.5000   -6.1250    0.0000 C   0  0  0  0  0  0  0  0  0  0  0  0    
   19.5000   -7.1875    0.0000 C   0  0  0  0  0  0  0  0  0  0  0  0    
   15.8125  -10.2500    0.0000 C   0  0  0  0  0  0  0  0  0  0  0  0    
    9.8125  -11.3125    0.0000 C   0  0  0  0  0  0  0  0  0  0  0  0    
   11.0000   -9.7500    0.0000 C   0  0  0  0  0  0  0  0  0  0  0  0    
    8.5000  -10.5625    0.0000 C   0  0  0  0  0  0  0  0  0  0  0  0    
   12.5625  -10.6250    0.0000 C   0  0  0  0  0  0  0  0  0  0  0  0    
   13.0625   -9.7500    0.0000 C   0  0  0  0  0  0  0  0  0  0  0  0    
   15.8125   -9.3125    0.0000 C   0  0  0  0  0  0  0  0  0  0  0  0    
   18.5625   -5.6250    0.0000 C   0  0  0  0  0  0  0  0  0  0  0  0    
   14.8125   -8.9375    0.0000 C   0  0  0  0  0  0  0  0  0  0  0  0    
   11.5625   -8.8750    0.0000 C   0  0  0  0  0  0  0  0  0  0  0  0    
   12.5625   -8.8750    0.0000 C   0  0  0  0  0  0  0  0  0  0  0  0    
   11.5000  -10.6875    0.0000 C   0  0  0  0  0  0  0  0  0  0  0  0    
    9.3750  -12.0000    0.0000 C   0  0  0  0  0  0  0  0  0  0  0  0    
   17.5000  -10.2500    0.0000 C   0  0  0  0  0  0  0  0  0  0  0  0    
   17.6875   -7.1875    0.0000 C   0  0  0  0  0  0  0  0  0  0  0  0    
   17.7500   -6.1250    0.0000 C   0  0  0  0  0  0  0  0  0  0  0  0    
   18.6250   -7.6875    0.0000 C   0  0  0  0  0  0  0  0  0  0  0  0    
   13.3750  -11.7500    0.0000 C   0  0  0  0  0  0  0  0  0  0  0  0    
   20.5105   -5.7967    0.0000 O   0  0  0  0  0  0  0  0  0  0  0  0    
   21.1350   -6.6563    0.0000 C   0  0  0  0  0  0  0  0  0  0  0  0    
   20.5105   -7.5158    0.0000 N   0  0  0  0  0  0  0  0  0  0  0  0    
   22.1975   -6.6562    0.0000 N   0  0  0  0  0  0  0  0  0  0  0  0    
   22.7288   -7.5764    0.0000 C   0  0  0  0  0  0  0  0  0  0  0  0    
   23.7854   -7.6875    0.0000 C   0  0  0  0  0  0  0  0  0  0  0  0    
   24.0064   -8.7267    0.0000 C   0  0  0  0  0  0  0  0  0  0  0  0    
   23.0862   -9.2580    0.0000 C   0  0  0  0  0  0  0  0  0  0  0  0    
   22.2966   -8.5470    0.0000 C   0  0  0  0  0  0  0  0  0  0  0  0    
  7  2  1  0     0  0
  8  6  1  0     0  0
  6 25  1  0     0  0
  3 26  2  0     0  0
  9  4  1  0     0  0
  1 10  1  0     0  0
 13  5  2  0     0  0
 10  3  1  0     0  0
  5 26  1  0     0  0
  4 13  1  0     0  0
  1 27  1  0     0  0
 25 14  1  0     0  0
  2 15  1  0     0  0
  7 14  1  0     0  0
  8 16  1  0     0  0
 16  7  1  0     0  0
 17 18  2  0     0  0
 19 13  1  0     0  0
 19 10  2  0     0  0
 11 12  1  0     0  0
 28 27  2  0     0  0
 29 12  2  0     0  0
 18  9  1  0     0  0
 20 11  2  0     0  0
 27 29  1  0     0  0
 21 19  1  0     0  0
 28 20  1  0     0  0
 22 23  2  0     0  0
 24 17  1  0     0  0
 15 22  1  0     0  0
 23 18  1  0     0  0
 15 24  2  0     0  0
 17 30  1  0     0  0
 21  9  2  0     0  0
 11 31  1  0     0  0
 31 32  1  0     0  0
 32 33  2  0     0  0
 33 12  1  0     0  0
 32 34  1  0     0  0
 34 35  1  0     0  0
 35 36  1  0     0  0
 36 37  1  0     0  0
 37 38  1  0     0  0
 38 39  1  0     0  0
 39 35  1  0     0  0
M  END
