
  InDraw 02262320332D 1   1.00000     0.00000     0 5.4.5

 40 45  0     0  0            999 V2000
   16.6875   -7.6875    0.0000 N   0  0  0  0  0  0  0  0  0  0  0  0    
    9.8750   -9.8125    0.0000 N   0  0  0  0  0  0  0  0  0  0  0  0    
   17.5625   -9.2500    0.0000 N   0  0  0  0  0  0  0  0  0  0  0  0    
   14.8125  -10.6250    0.0000 N   0  0  0  0  0  0  0  0  0  0  0  0    
   16.6875  -10.8125    0.0000 N   0  0  0  0  0  0  0  0  0  0  0  0    
    8.5000  -12.0000    0.0000 N   0  0  0  0  0  0  0  0  0  0  0  0    
    9.3750  -10.5625    0.0000 C   0  0  0  0  0  0  0  0  0  0  0  0    
    8.0625  -11.2500    0.0000 C   0  0  0  0  0  0  0  0  0  0  0  0    
   14.1875   -9.7500    0.0000 C   0  0  0  0  0  0  0  0  0  0  0  0    
   16.6875   -8.8125    0.0000 C   0  0  0  0  0  0  0  0  0  0  0  0    
   15.8125  -10.2500    0.0000 C   0  0  0  0  0  0  0  0  0  0  0  0    
    9.8125  -11.3125    0.0000 C   0  0  0  0  0  0  0  0  0  0  0  0    
   11.0000   -9.7500    0.0000 C   0  0  0  0  0  0  0  0  0  0  0  0    
    8.5000  -10.5625    0.0000 C   0  0  0  0  0  0  0  0  0  0  0  0    
   12.5625  -10.6250    0.0000 C   0  0  0  0  0  0  0  0  0  0  0  0    
   13.0625   -9.7500    0.0000 C   0  0  0  0  0  0  0  0  0  0  0  0    
   15.8125   -9.3125    0.0000 C   0  0  0  0  0  0  0  0  0  0  0  0    
   14.8125   -8.9375    0.0000 C   0  0  0  0  0  0  0  0  0  0  0  0    
   11.5625   -8.8750    0.0000 C   0  0  0  0  0  0  0  0  0  0  0  0    
   12.5625   -8.8750    0.0000 C   0  0  0  0  0  0  0  0  0  0  0  0    
   11.5000  -10.6875    0.0000 C   0  0  0  0  0  0  0  0  0  0  0  0    
    9.3750  -12.0000    0.0000 C   0  0  0  0  0  0  0  0  0  0  0  0    
   17.5000  -10.2500    0.0000 C   0  0  0  0  0  0  0  0  0  0  0  0    
   13.3750  -11.7500    0.0000 C   0  0  0  0  0  0  0  0  0  0  0  0    
   15.7132   -7.1250    0.0000 C   0  0  0  0  0  0  0  0  0  0  0  0    
   15.7132   -6.0000    0.0000 C   0  0  0  0  0  0  0  0  0  0  0  0    
   16.6875   -5.4375    0.0000 C   0  0  0  0  0  0  0  0  0  0  0  0    
   17.6618   -6.0000    0.0000 C   0  0  0  0  0  0  0  0  0  0  0  0    
   17.6618   -7.1250    0.0000 C   0  0  0  0  0  0  0  0  0  0  0  0    
   18.6361   -5.4375    0.0000 N   0  0  0  0  0  0  0  0  0  0  0  0    
   19.6103   -6.0000    0.0000 C   0  0  0  0  0  0  0  0  0  0  0  0    
   20.5846   -5.4375    0.0000 N   0  0  0  0  0  0  0  0  0  0  0  0    
   21.5589   -6.0000    0.0000 C   0  0  0  0  0  0  0  0  0  0  0  0    
   22.5332   -5.4375    0.0000 C   0  0  0  0  0  0  0  0  0  0  0  0    
   23.5075   -6.0000    0.0000 C   0  0  0  0  0  0  0  0  0  0  0  0    
   23.5075   -7.1250    0.0000 C   0  0  0  0  0  0  0  0  0  0  0  0    
   22.5332   -7.6875    0.0000 C   0  0  0  0  0  0  0  0  0  0  0  0    
   21.5589   -7.1250    0.0000 C   0  0  0  0  0  0  0  0  0  0  0  0    
   24.4817   -7.6875    0.0000 Cl  0  0  0  0  0  0  0  0  0  0  0  0    
   19.6103   -7.1250    0.0000 O   0  0  0  0  0  0  0  0  0  0  0  0    
  7  2  1  0     0  0
  8  6  1  0     0  0
  6 22  1  0     0  0
  3 23  2  0     0  0
  9  4  1  0     0  0
  1 10  1  0     0  0
 11  5  2  0     0  0
 10  3  1  0     0  0
  5 23  1  0     0  0
  4 11  1  0     0  0
 22 12  1  0     0  0
  2 13  1  0     0  0
  7 12  1  0     0  0
  8 14  1  0     0  0
 14  7  1  0     0  0
 15 16  2  0     0  0
 17 11  1  0     0  0
 17 10  2  0     0  0
 16  9  1  0     0  0
 18 17  1  0     0  0
 19 20  2  0     0  0
 21 15  1  0     0  0
 13 19  1  0     0  0
 20 16  1  0     0  0
 13 21  2  0     0  0
 15 24  1  0     0  0
 18  9  2  0     0  0
  1 25  1  0     0  0
 25 26  1  0     0  0
 26 27  1  0     0  0
 27 28  1  0     0  0
 28 29  1  0     0  0
 29  1  1  0     0  0
 28 30  1  0     0  0
 30 31  1  0     0  0
 31 32  1  0     0  0
 32 33  1  0     0  0
 33 34  1  0     0  0
 34 35  2  0     0  0
 35 36  1  0     0  0
 36 37  2  0     0  0
 37 38  1  0     0  0
 38 33  2  0     0  0
 36 39  1  0     0  0
 31 40  2  0     0  0
M  END
