
  InDraw 02262320142D 1   1.00000     0.00000     0 5.4.5

 45 51  0     0  0            999 V2000
   20.4375   -5.9375    0.0000 O   0  0  0  0  0  0  0  0  0  0  0  0    
   21.9375   -6.6875    0.0000 N   0  0  0  0  0  0  0  0  0  0  0  0    
   16.6875   -7.6875    0.0000 O   0  0  0  0  0  0  0  0  0  0  0  0    
   20.4375   -7.4375    0.0000 N   0  0  0  0  0  0  0  0  0  0  0  0    
    9.8750   -9.8125    0.0000 N   0  0  0  0  0  0  0  0  0  0  0  0    
   17.5625   -9.2500    0.0000 N   0  0  0  0  0  0  0  0  0  0  0  0    
   14.8125  -10.6250    0.0000 N   0  0  0  0  0  0  0  0  0  0  0  0    
   23.6875  -10.1875    0.0000 C   0  0  0  0  0  0  0  0  0  0  0  0    
   16.6875  -10.8125    0.0000 N   0  0  0  0  0  0  0  0  0  0  0  0    
    8.5000  -12.0000    0.0000 N   0  0  0  0  0  0  0  0  0  0  0  0    
    9.3750  -10.5625    0.0000 C   0  0  0  0  0  0  0  0  0  0  0  0    
    8.0625  -11.2500    0.0000 C   0  0  0  0  0  0  0  0  0  0  0  0    
   22.2500   -7.5625    0.0000 C   0  0  0  0  0  0  0  0  0  0  0  0    
   21.0000   -6.6875    0.0000 C   0  0  0  0  0  0  0  0  0  0  0  0    
   14.1875   -9.7500    0.0000 C   0  0  0  0  0  0  0  0  0  0  0  0    
   16.6875   -8.8125    0.0000 C   0  0  0  0  0  0  0  0  0  0  0  0    
   19.5000   -6.1250    0.0000 C   0  0  0  0  0  0  0  0  0  0  0  0    
   19.5000   -7.1875    0.0000 C   0  0  0  0  0  0  0  0  0  0  0  0    
   15.8125  -10.2500    0.0000 C   0  0  0  0  0  0  0  0  0  0  0  0    
   23.1875   -9.2500    0.0000 C   0  0  0  0  0  0  0  0  0  0  0  0    
    9.8125  -11.3125    0.0000 C   0  0  0  0  0  0  0  0  0  0  0  0    
   11.0000   -9.7500    0.0000 C   0  0  0  0  0  0  0  0  0  0  0  0    
    8.5000  -10.5625    0.0000 C   0  0  0  0  0  0  0  0  0  0  0  0    
   12.5625  -10.6250    0.0000 C   0  0  0  0  0  0  0  0  0  0  0  0    
   13.0625   -9.7500    0.0000 C   0  0  0  0  0  0  0  0  0  0  0  0    
   22.2500   -9.2500    0.0000 C   0  0  0  0  0  0  0  0  0  0  0  0    
   15.8125   -9.3125    0.0000 C   0  0  0  0  0  0  0  0  0  0  0  0    
   18.5625   -5.6250    0.0000 C   0  0  0  0  0  0  0  0  0  0  0  0    
   14.8125   -8.9375    0.0000 C   0  0  0  0  0  0  0  0  0  0  0  0    
   11.5625   -8.8750    0.0000 C   0  0  0  0  0  0  0  0  0  0  0  0    
   12.5625   -8.8750    0.0000 C   0  0  0  0  0  0  0  0  0  0  0  0    
   11.5000  -10.6875    0.0000 C   0  0  0  0  0  0  0  0  0  0  0  0    
    9.3750  -12.0000    0.0000 C   0  0  0  0  0  0  0  0  0  0  0  0    
   17.5000  -10.2500    0.0000 C   0  0  0  0  0  0  0  0  0  0  0  0    
    8.0625  -12.9375    0.0000 C   0  0  0  0  0  0  0  0  0  0  0  0    
   17.6875   -7.1875    0.0000 C   0  0  0  0  0  0  0  0  0  0  0  0    
   17.7500   -6.1250    0.0000 C   0  0  0  0  0  0  0  0  0  0  0  0    
   23.1875   -7.5625    0.0000 C   0  0  0  0  0  0  0  0  0  0  0  0    
   23.6875   -8.3125    0.0000 C   0  0  0  0  0  0  0  0  0  0  0  0    
   21.7500   -8.3750    0.0000 C   0  0  0  0  0  0  0  0  0  0  0  0    
   18.6250   -7.6875    0.0000 C   0  0  0  0  0  0  0  0  0  0  0  0    
   13.3750  -11.7500    0.0000 C   0  0  0  0  0  0  0  0  0  0  0  0    
   24.7494  -10.2232    0.0000 F   0  0  0  0  0  0  0  0  0  0  0  0    
   23.1256  -11.0893    0.0000 F   0  0  0  0  0  0  0  0  0  0  0  0    
   24.1875  -11.1250    0.0000 F   0  0  0  0  0  0  0  0  0  0  0  0    
 11  5  1  0     0  0
  4 14  2  0     0  0
 12 10  1  0     0  0
  2 13  1  0     0  0
  1 14  1  0     0  0
 10 33  1  0     0  0
 14  2  1  0     0  0
  6 34  2  0     0  0
 15  7  1  0     0  0
  3 16  1  0     0  0
 17  1  1  0     0  0
  4 18  1  0     0  0
 19  9  2  0     0  0
 16  6  1  0     0  0
 35 10  1  0     0  0
  9 34  1  0     0  0
  7 19  1  0     0  0
 20  8  1  0     0  0
  3 36  1  0     0  0
 33 21  1  0     0  0
  5 22  1  0     0  0
 11 21  1  0     0  0
 12 23  1  0     0  0
 23 11  1  0     0  0
 24 25  2  0     0  0
 26 20  2  0     0  0
 27 19  1  0     0  0
 13 38  1  0     0  0
 38 39  2  0     0  0
 27 16  2  0     0  0
 17 18  1  0     0  0
 37 36  2  0     0  0
 41 18  2  0     0  0
 25 15  1  0     0  0
 28 17  2  0     0  0
 36 41  1  0     0  0
 20 39  1  0     0  0
 29 27  1  0     0  0
 37 28  1  0     0  0
 30 31  2  0     0  0
 32 24  1  0     0  0
 22 30  1  0     0  0
 31 25  1  0     0  0
 22 32  2  0     0  0
 24 42  1  0     0  0
 40 13  2  0     0  0
 40 26  1  0     0  0
 29 15  2  0     0  0
  8 43  1  0     0  0
  8 44  1  0     0  0
  8 45  1  0     0  0
M  END
