__1djy_A_rec_1djz_ip2_lig_min.pdb
     RDKit          3D

 20 20  0  0  1  0  0  0  0  0999 V2000
   31.8520   17.8570   37.1540 C   0  0  2  0  0  0  0  0  0  0  0  0
   32.2330   18.7170   35.9480 C   0  0  1  0  0  0  0  0  0  0  0  0
   33.4990   19.5160   36.3920 C   0  0  1  0  0  0  0  0  0  0  0  0
   34.7700   18.6240   36.3790 C   0  0  2  0  0  0  0  0  0  0  0  0
   34.4910   17.4010   37.3310 C   0  0  1  0  0  0  0  0  0  0  0  0
   33.0160   16.8330   37.3900 C   0  0  1  0  0  0  0  0  0  0  0  0
   30.6560   17.1830   36.7940 O   0  0  0  0  0  0  0  0  0  0  0  0
   32.5020   17.7220   34.9500 O   0  0  0  0  0  0  0  0  0  0  0  0
   33.6740   20.7710   35.7600 O   0  0  0  0  0  0  0  0  0  0  0  0
   32.8360   16.1160   38.6230 O   0  0  0  0  0  0  0  0  0  0  0  0
   36.0060   19.3590   36.6940 O   0  0  0  0  0  0  0  0  0  0  0  0
   37.4770   19.3170   35.9130 P   0  0  2  0  0  0  0  0  0  0  0  0
   38.6240   18.5590   36.7700 O   0  0  0  0  0  0  0  0  0  0  0  0
   38.0330   20.8110   35.6590 O   0  0  0  0  0  0  0  0  0  0  0  0
   37.3430   18.5920   34.4700 O   0  0  0  0  0  0  0  0  0  0  0  0
   35.3920   16.3160   37.0110 O   0  0  0  0  0  0  0  0  0  0  0  0
   36.3880   15.6190   38.1020 P   0  0  1  0  0  0  0  0  0  0  0  0
   35.5450   15.3090   39.4510 O   0  0  0  0  0  0  0  0  0  0  0  0
   36.9780   14.2220   37.5320 O   0  0  0  0  0  0  0  0  0  0  0  0
   37.6490   16.5930   38.4180 O   0  0  0  0  0  0  0  0  0  0  0  0
  1  2  1  0
  1  7  1  6
  1  6  1  0
  2  8  1  6
  2  3  1  0
  3  9  1  6
  3  4  1  0
  4 11  1  1
  4  5  1  0
  5 16  1  6
  5  6  1  0
  6 10  1  1
 11 12  1  0
 12 15  2  0
 12 13  1  1
 12 14  1  0
 16 17  1  0
 17 19  2  0
 17 20  1  1
 17 18  1  0
M  END
>  <COMPND>  (1) 
    UNNAMED

>  <AUTHOR>  (1) 
    GENERATED BY OPEN BABEL 2.4.90

>  <MASTER>  (1) 
        0    0    0    0    0    0    0    0   20    0   20    0

$$$$
