__1m4n_A_rec_1m7y_ppg_lig_min.pdb
     RDKit          3D

 46 46  0  0  0  0  0  0  0  0999 V2000
    1.1586    2.7127   -1.9999 N   0  0  0  0  0  0  0  0  0  0  0  0
   -0.0964    2.5297   -2.5939 C   0  0  0  0  0  0  0  0  0  0  0  0
   -0.2464    3.1197   -3.9579 C   0  0  0  0  0  0  0  0  0  0  0  0
   -1.0824    1.8137   -1.8559 C   0  0  0  0  0  0  0  0  0  0  0  0
   -2.2644    1.6277   -2.3929 O   0  0  0  0  0  0  0  0  0  0  0  0
   -0.7174    1.3167   -0.5119 C   0  0  0  0  0  0  0  0  0  0  0  0
    0.6466    1.5827   -0.0039 C   0  0  0  0  0  0  0  0  0  0  0  0
    1.5466    2.2737   -0.7659 C   0  0  0  0  0  0  0  0  0  0  0  0
   -1.7524    0.5127    0.3661 C   0  0  0  0  0  0  0  0  0  0  0  0
   -3.0814    0.5407   -0.1859 N   0  0  0  0  0  0  0  0  0  0  0  0
   -4.2364    0.4307    0.4981 C   0  0  0  0  0  0  0  0  0  0  0  0
   -5.4004    0.3867   -0.2939 C   0  0  0  0  0  0  0  0  0  0  0  0
   -5.3404    0.8647   -1.4929 O   0  0  0  0  0  0  0  0  0  0  0  0
   -6.5244   -0.1163    0.1631 O   0  0  0  0  0  0  0  0  0  0  0  0
   -4.2414    0.4127    1.9521 C   0  0  0  0  0  0  0  0  0  0  0  0
   -4.0884   -0.6973    2.6761 C   0  0  0  0  0  0  0  0  0  0  0  0
   -4.0634   -0.5043    4.1131 O   0  0  0  0  0  0  0  0  0  0  0  0
   -5.3964   -0.4713    4.6561 C   0  0  0  0  0  0  0  0  0  0  0  0
   -5.5034   -1.3593    5.9021 C   0  0  0  0  0  0  0  0  0  0  0  0
   -6.1474   -2.6213    5.5411 N   0  0  0  0  0  0  0  0  0  0  0  0
    1.0126    1.0577    1.3851 C   0  0  0  0  0  0  0  0  0  0  0  0
    1.5086   -0.2653    1.2561 O   0  0  0  0  0  0  0  0  0  0  0  0
    2.2496   -1.0253    2.4991 P   0  0  0  0  0  5  0  0  0  0  0  0
    3.3536   -1.8023    1.8621 O   0  0  0  0  0  0  0  0  0  0  0  0
    1.2876   -1.9203    3.1231 O   0  0  0  0  0  0  0  0  0  0  0  0
    2.7236   -0.0113    3.4621 O   0  0  0  0  0  0  0  0  0  0  0  0
   -0.5166    4.1824   -3.8700 H   0  0  0  0  0  0  0  0  0  0  0  0
    0.7039    3.0269   -4.5040 H   0  0  0  0  0  0  0  0  0  0  0  0
   -1.0370    2.5843   -4.5040 H   0  0  0  0  0  0  0  0  0  0  0  0
   -2.9621    1.1325   -1.8947 H   0  0  0  0  0  0  0  0  0  0  0  0
    2.5623    2.4722   -0.3932 H   0  0  0  0  0  0  0  0  0  0  0  0
   -1.4202   -0.5338    0.4335 H   0  0  0  0  0  0  0  0  0  0  0  0
   -1.7916    0.9888    1.3570 H   0  0  0  0  0  0  0  0  0  0  0  0
   -7.3288   -0.1355   -0.4137 H   0  0  0  0  0  0  0  0  0  0  0  0
   -4.3788    1.3659    2.4838 H   0  0  0  0  0  0  0  0  0  0  0  0
   -3.9881   -1.6908    2.2147 H   0  0  0  0  0  0  0  0  0  0  0  0
   -5.6482    0.5641    4.9294 H   0  0  0  0  0  0  0  0  0  0  0  0
   -6.0948   -0.8491    3.8949 H   0  0  0  0  0  0  0  0  0  0  0  0
   -4.4970   -1.5602    6.2979 H   0  0  0  0  0  0  0  0  0  0  0  0
   -6.1011   -0.8466    6.6702 H   0  0  0  0  0  0  0  0  0  0  0  0
   -6.4076   -3.1312    6.3974 H   0  0  0  0  0  0  0  0  0  0  0  0
   -6.9933   -2.4286    4.9858 H   0  0  0  0  0  0  0  0  0  0  0  0
    1.7853    1.7006    1.8319 H   0  0  0  0  0  0  0  0  0  0  0  0
    0.1240    1.0629    2.0335 H   0  0  0  0  0  0  0  0  0  0  0  0
    1.3625   -1.8506    4.1078 H   0  0  0  0  0  0  0  0  0  0  0  0
    2.5717   -0.3361    4.3849 H   0  0  0  0  0  0  0  0  0  0  0  0
  1  2  2  0
  1  8  1  0
  2  3  1  0
  2  4  1  0
  4  5  1  0
  4  6  2  0
  6  7  1  0
  6  9  1  0
  7  8  2  0
  7 21  1  0
  9 10  1  0
 10 11  2  0
 11 12  1  0
 11 15  1  0
 12 13  2  0
 12 14  1  0
 15 16  2  0
 16 17  1  0
 17 18  1  0
 18 19  1  0
 19 20  1  0
 21 22  1  0
 22 23  1  0
 23 24  2  0
 23 25  1  0
 23 26  1  0
  3 27  1  0
  3 28  1  0
  3 29  1  0
  5 30  1  0
  8 31  1  0
  9 32  1  0
  9 33  1  0
 14 34  1  0
 15 35  1  0
 16 36  1  0
 18 37  1  0
 18 38  1  0
 19 39  1  0
 19 40  1  0
 20 41  1  0
 20 42  1  0
 21 43  1  0
 21 44  1  0
 25 45  1  0
 26 46  1  0
M  END
$$$$
