POCKET
     RDKit          3D

967967  0  0  0  0  0  0  0  0999 V2000
   -8.2364   -3.0253   -1.1279 N   0  0  0  0  0  0  0  0  0  0  0  0
   -7.2944   -3.4253   -2.1659 C   0  0  2  0  0  0  0  0  0  0  0  0
   -6.2434   -4.4263   -1.6869 C   0  0  0  0  0  0  0  0  0  0  0  0
   -5.0784   -4.0763   -1.5029 O   0  0  0  0  0  0  0  0  0  0  0  0
   -6.6064   -2.1873   -2.7449 C   0  0  0  0  0  0  0  0  0  0  0  0
    7.1566   -1.5303    5.1301 N   0  0  0  0  0  0  0  0  0  0  0  0
    6.0826   -1.2623    4.1871 C   0  0  0  0  0  0  0  0  0  0  0  0
    6.3636   -0.0203    3.3531 C   0  0  0  0  0  0  0  0  0  0  0  0
    7.2656    0.7507    3.6861 O   0  0  0  0  0  0  0  0  0  0  0  0
    5.6076    0.1707    2.2701 N   0  0  0  0  0  0  0  0  0  0  0  0
    5.7706    1.3367    1.3961 C   0  0  2  0  0  0  0  0  0  0  0  0
    5.2836    2.5897    2.1231 C   0  0  0  0  0  0  0  0  0  0  0  0
    5.6936    3.7097    1.8121 O   0  0  0  0  0  0  0  0  0  0  0  0
    4.9886    1.1447    0.0921 C   0  0  0  0  0  0  0  0  0  0  0  0
    4.3896    2.3927    3.0811 N   0  0  0  0  0  0  0  0  0  0  0  0
    3.8796    3.5007    3.8831 C   0  0  2  0  0  0  0  0  0  0  0  0
    5.0686    4.2197    4.5181 C   0  0  0  0  0  0  0  0  0  0  0  0
    5.1696    5.4507    4.4871 O   0  0  0  0  0  0  0  0  0  0  0  0
    2.9886    2.9827    5.0171 C   0  0  2  0  0  0  0  0  0  0  0  0
    1.8886    2.2557    4.4591 O   0  0  0  0  0  0  0  0  0  0  0  0
    2.4696    4.1417    5.8641 C   0  0  0  0  0  0  0  0  0  0  0  0
    8.2906    3.8087    3.6221 N   0  0  0  0  0  0  0  0  0  0  0  0
    9.1776    4.2557    2.5591 C   0  0  2  0  0  0  0  0  0  0  0  0
    8.7626    5.6127    1.9821 C   0  0  0  0  0  0  0  0  0  0  0  0
    9.6036    6.4997    1.8081 O   0  0  0  0  0  0  0  0  0  0  0  0
    9.2346    3.2007    1.4431 C   0  0  0  0  0  0  0  0  0  0  0  0
    7.4796    5.7807    1.6771 N   0  0  0  0  0  0  0  0  0  0  0  0
    7.0166    7.0517    1.1171 C   0  0  2  0  0  0  0  0  0  0  0  0
    7.2696    8.2237    2.0691 C   0  0  0  0  0  0  0  0  0  0  0  0
    7.7976    9.2607    1.6581 O   0  0  0  0  0  0  0  0  0  0  0  0
    5.5286    6.9777    0.7541 C   0  0  0  0  0  0  0  0  0  0  0  0
    5.2806    6.2507   -0.5659 C   0  0  0  0  0  0  0  0  0  0  0  0
    6.0076    6.4487   -1.5389 O   0  0  0  0  0  0  0  0  0  0  0  0
    4.2406    5.4237   -0.6089 N   0  0  0  0  0  0  0  0  0  0  0  0
   -4.2264    7.5947   -4.3419 N   0  0  0  0  0  0  0  0  0  0  0  0
   -4.3984    6.8077   -3.1289 C   0  0  2  0  0  0  0  0  0  0  0  0
   -4.5864    7.7467   -1.9389 C   0  0  0  0  0  0  0  0  0  0  0  0
   -3.6644    8.4537   -1.5409 O   0  0  0  0  0  0  0  0  0  0  0  0
   -3.1654    5.9167   -2.9509 C   0  0  0  0  0  0  0  0  0  0  0  0
   -3.0344    5.2637   -1.5979 C   0  0  0  0  0  0  0  0  0  0  0  0
   -4.0874    4.5217   -1.0489 C   0  0  0  0  0  0  0  0  0  0  0  0
   -1.8424    5.3587   -0.8799 C   0  0  0  0  0  0  0  0  0  0  0  0
   -3.9514    3.8867    0.1851 C   0  0  0  0  0  0  0  0  0  0  0  0
   -1.6934    4.7297    0.3541 C   0  0  0  0  0  0  0  0  0  0  0  0
   -2.7494    3.9957    0.8811 C   0  0  0  0  0  0  0  0  0  0  0  0
   -2.5974    3.3657    2.0951 O   0  0  0  0  0  0  0  0  0  0  0  0
   -5.7934    7.7617   -1.3559 N   0  0  0  0  0  0  0  0  0  0  0  0
   -6.0784    8.6377   -0.2149 C   0  0  2  0  0  0  0  0  0  0  0  0
   -5.1824    8.4697    1.0111 C   0  0  0  0  0  0  0  0  0  0  0  0
   -5.1504    9.3417    1.8661 O   0  0  0  0  0  0  0  0  0  0  0  0
   -7.5594    8.3747    0.0731 C   0  0  0  0  0  0  0  0  0  0  0  0
   -7.7744    6.9687   -0.4279 C   0  0  0  0  0  0  0  0  0  0  0  0
   -6.9684    6.9367   -1.7019 C   0  0  0  0  0  0  0  0  0  0  0  0
   -4.4554    7.3587    1.0911 N   0  0  0  0  0  0  0  0  0  0  0  0
   -3.5624    7.1517    2.2151 C   0  0  0  0  0  0  0  0  0  0  0  0
   -2.4594    8.1957    2.2161 C   0  0  0  0  0  0  0  0  0  0  0  0
   -1.9104    8.5377    3.2721 O   0  0  0  0  0  0  0  0  0  0  0  0
   -2.1404    8.7127    1.0281 N   0  0  0  0  0  0  0  0  0  0  0  0
   -1.0984    9.7297    0.8761 C   0  0  2  0  0  0  0  0  0  0  0  0
   -1.3644   11.0157    1.6701 C   0  0  0  0  0  0  0  0  0  0  0  0
   -0.4294   11.6667    2.1231 O   0  0  0  0  0  0  0  0  0  0  0  0
   -0.9114   10.1127   -0.6019 C   0  0  0  0  0  0  0  0  0  0  0  0
   -0.2064    9.0717   -1.4379 C   0  0  0  0  0  0  0  0  0  0  0  0
    0.7206    8.1967   -0.8719 C   0  0  0  0  0  0  0  0  0  0  0  0
   -0.4314    9.0077   -2.8079 C   0  0  0  0  0  0  0  0  0  0  0  0
    1.4136    7.2737   -1.6649 C   0  0  0  0  0  0  0  0  0  0  0  0
    0.2536    8.0907   -3.6119 C   0  0  0  0  0  0  0  0  0  0  0  0
    1.1796    7.2197   -3.0399 C   0  0  0  0  0  0  0  0  0  0  0  0
   -0.0234    9.8177    5.1481 N   0  0  0  0  0  0  0  0  0  0  0  0
    1.3386    9.3017    5.0251 C   0  0  2  0  0  0  0  0  0  0  0  0
    2.3896   10.3427    4.6561 C   0  0  0  0  0  0  0  0  0  0  0  0
    3.4446   10.4317    5.2911 O   0  0  0  0  0  0  0  0  0  0  0  0
    1.4186    8.1877    3.9701 C   0  0  0  0  0  0  0  0  0  0  0  0
    0.4066    7.0787    4.1871 C   0  0  0  0  0  0  0  0  0  0  0  0
   -0.1904    6.9997    5.2801 O   0  0  0  0  0  0  0  0  0  0  0  0
    0.2146    6.2737    3.2481 O   0  0  0  0  0  0  0  0  0  0  0  0
    5.2796   12.8877   -7.0689 N   0  0  0  0  0  0  0  0  0  0  0  0
    5.1876   11.4977   -6.6509 C   0  0  2  0  0  0  0  0  0  0  0  0
    4.0606   10.8677   -7.4469 C   0  0  0  0  0  0  0  0  0  0  0  0
    2.9296   11.3547   -7.4319 O   0  0  0  0  0  0  0  0  0  0  0  0
    4.9006   11.3837   -5.1459 C   0  0  0  0  0  0  0  0  0  0  0  0
    5.0166    9.9617   -4.5779 C   0  0  0  0  0  0  0  0  0  0  0  0
    5.3646   10.0127   -3.0939 C   0  0  0  0  0  0  0  0  0  0  0  0
    3.7196    9.2077   -4.8059 C   0  0  0  0  0  0  0  0  0  0  0  0
    4.3746    9.7937   -8.1549 N   0  0  0  0  0  0  0  0  0  0  0  0
    3.3726    9.1077   -8.9529 C   0  0  2  0  0  0  0  0  0  0  0  0
    3.2326    7.6537   -8.5309 C   0  0  0  0  0  0  0  0  0  0  0  0
    4.1226    7.0807   -7.8989 O   0  0  0  0  0  0  0  0  0  0  0  0
    3.7316    9.1397  -10.4579 C   0  0  0  0  0  0  0  0  0  0  0  0
    3.8246   10.5737  -10.9419 C   0  0  0  0  0  0  0  0  0  0  0  0
    5.0496    8.4117  -10.6999 C   0  0  0  0  0  0  0  0  0  0  0  0
    2.1006    7.0627   -8.8799 N   0  0  0  0  0  0  0  0  0  0  0  0
    1.8566    5.6667   -8.5769 C   0  0  2  0  0  0  0  0  0  0  0  0
    1.7956    4.9557   -9.9259 C   0  0  0  0  0  0  0  0  0  0  0  0
    0.9396    5.2477  -10.7609 O   0  0  0  0  0  0  0  0  0  0  0  0
    0.5466    5.4937   -7.7809 C   0  0  2  0  0  0  0  0  0  0  0  0
    0.6966    6.1157   -6.4939 O   0  0  0  0  0  0  0  0  0  0  0  0
    0.2376    4.0227   -7.5779 C   0  0  0  0  0  0  0  0  0  0  0  0
    2.1866    0.9417  -11.5019 N   0  0  0  0  0  0  0  0  0  0  0  0
    0.8156    1.2167  -11.9489 C   0  0  2  0  0  0  0  0  0  0  0  0
    0.0026    2.0107  -10.9359 C   0  0  0  0  0  0  0  0  0  0  0  0
    0.3066    2.0337   -9.7459 O   0  0  0  0  0  0  0  0  0  0  0  0
    0.2346   -0.1773  -12.1889 C   0  0  0  0  0  0  0  0  0  0  0  0
    1.4426   -1.0163  -12.4659 C   0  0  0  0  0  0  0  0  0  0  0  0
    2.4216   -0.5093  -11.4459 C   0  0  0  0  0  0  0  0  0  0  0  0
   -1.0584    2.6367  -11.4229 N   0  0  0  0  0  0  0  0  0  0  0  0
   -1.9024    3.4817  -10.6029 C   0  0  2  0  0  0  0  0  0  0  0  0
   -2.9984    2.8937   -9.7329 C   0  0  0  0  0  0  0  0  0  0  0  0
   -3.7394    1.9977  -10.1299 O   0  0  0  0  0  0  0  0  0  0  0  0
   -2.5514    4.5557  -11.4839 C   0  0  0  0  0  0  0  0  0  0  0  0
   -3.6484    5.1557  -10.8129 O   0  0  0  0  0  0  0  0  0  0  0  0
   -3.0704    3.4237   -8.5199 N   0  0  0  0  0  0  0  0  0  0  0  0
   -4.1254    3.1047   -7.5799 C   0  0  2  0  0  0  0  0  0  0  0  0
   -4.6974    4.5207   -7.5359 C   0  0  0  0  0  0  0  0  0  0  0  0
   -3.9684    5.4627   -7.2309 O   0  0  0  0  0  0  0  0  0  0  0  0
   -3.5704    2.7107   -6.2109 C   0  0  0  0  0  0  0  0  0  0  0  0
   -4.6474    2.6737   -5.1399 C   0  0  0  0  0  0  0  0  0  0  0  0
   -5.8394    2.6827   -5.4469 O   0  0  0  0  0  0  0  0  0  0  0  0
   -4.2314    2.6237   -3.8739 N   0  0  0  0  0  0  0  0  0  0  0  0
    8.5076    7.4077   -7.8239 N   0  0  0  0  0  0  0  0  0  0  0  0
    7.5386    6.5017   -8.4269 C   0  0  2  0  0  0  0  0  0  0  0  0
    7.1916    5.3637   -7.4819 C   0  0  0  0  0  0  0  0  0  0  0  0
    8.0276    4.5047   -7.2039 O   0  0  0  0  0  0  0  0  0  0  0  0
    8.0986    5.9277   -9.7349 C   0  0  0  0  0  0  0  0  0  0  0  0
    7.1246    5.1467  -10.4079 O   0  0  0  0  0  0  0  0  0  0  0  0
    5.9616    5.3677   -6.9759 N   0  0  0  0  0  0  0  0  0  0  0  0
    5.5146    4.3057   -6.0799 C   0  0  2  0  0  0  0  0  0  0  0  0
    5.0586    3.1607   -6.9809 C   0  0  0  0  0  0  0  0  0  0  0  0
    3.9526    3.1827   -7.5269 O   0  0  0  0  0  0  0  0  0  0  0  0
    4.3576    4.7947   -5.2029 C   0  0  0  0  0  0  0  0  0  0  0  0
    3.8806    3.7407   -4.2179 C   0  0  0  0  0  0  0  0  0  0  0  0
    4.1616    2.5457   -4.4319 O   0  0  0  0  0  0  0  0  0  0  0  0
    3.2086    4.1077   -3.2299 O   0  0  0  0  0  0  0  0  0  0  0  0
    5.9256    2.1677   -7.1349 N   0  0  0  0  0  0  0  0  0  0  0  0
    5.6446    1.0287   -7.9979 C   0  0  2  0  0  0  0  0  0  0  0  0
    5.2736   -0.2403   -7.2299 C   0  0  0  0  0  0  0  0  0  0  0  0
    5.6896   -1.3423   -7.5819 O   0  0  0  0  0  0  0  0  0  0  0  0
    6.8526    0.7887   -8.9139 C   0  0  0  0  0  0  0  0  0  0  0  0
    7.3346    2.0917   -9.5709 C   0  0  0  0  0  0  0  0  0  0  0  0
    8.3086    1.8957  -10.7269 C   0  0  0  0  0  0  0  0  0  0  0  0
    8.9236    0.8157  -10.8489 O   0  0  0  0  0  0  0  0  0  0  0  0
    8.4706    2.8457  -11.5159 O   0  0  0  0  0  0  0  0  0  0  0  0
    4.4596   -0.0753   -6.1929 N   0  0  0  0  0  0  0  0  0  0  0  0
    4.0246   -1.1993   -5.3739 C   0  0  2  0  0  0  0  0  0  0  0  0
    3.1436   -2.1723   -6.1809 C   0  0  0  0  0  0  0  0  0  0  0  0
    3.0536   -3.3493   -5.8489 O   0  0  0  0  0  0  0  0  0  0  0  0
    3.2536   -0.6933   -4.1169 C   0  0  2  0  0  0  0  0  0  0  0  0
    2.9106   -1.8643   -3.1899 C   0  0  0  0  0  0  0  0  0  0  0  0
    1.9746    0.0227   -4.5389 C   0  0  0  0  0  0  0  0  0  0  0  0
    2.2626   -1.4243   -1.8749 C   0  0  0  0  0  0  0  0  0  0  0  0
    2.5106   -1.6813   -7.2439 N   0  0  0  0  0  0  0  0  0  0  0  0
    1.6576   -2.5363   -8.0769 C   0  0  2  0  0  0  0  0  0  0  0  0
    2.3526   -2.9973   -9.3569 C   0  0  0  0  0  0  0  0  0  0  0  0
    1.7136   -3.5873  -10.2309 O   0  0  0  0  0  0  0  0  0  0  0  0
    0.3596   -1.7963   -8.4469 C   0  0  0  0  0  0  0  0  0  0  0  0
   -0.5644   -1.5473   -7.2799 C   0  0  0  0  0  0  0  0  0  0  0  0
   -1.3464   -2.5773   -6.7509 C   0  0  0  0  0  0  0  0  0  0  0  0
   -0.6164   -0.2993   -6.6609 C   0  0  0  0  0  0  0  0  0  0  0  0
   -2.1504   -2.3663   -5.6269 C   0  0  0  0  0  0  0  0  0  0  0  0
   -1.4134   -0.0793   -5.5379 C   0  0  0  0  0  0  0  0  0  0  0  0
   -2.1724   -1.1123   -5.0269 C   0  0  0  0  0  0  0  0  0  0  0  0
   -2.9434   -0.8963   -3.9099 O   0  0  0  0  0  0  0  0  0  0  0  0
    9.7296    3.3757   -5.0399 N   0  0  0  0  0  0  0  0  0  0  0  0
    9.2416    2.8007   -3.8049 C   0  0  2  0  0  0  0  0  0  0  0  0
    8.5996    1.4707   -4.1909 C   0  0  0  0  0  0  0  0  0  0  0  0
    7.8846    1.3797   -5.1909 O   0  0  0  0  0  0  0  0  0  0  0  0
    8.1976    3.7017   -3.1219 C   0  0  0  0  0  0  0  0  0  0  0  0
    7.4556    2.9167   -2.0359 C   0  0  0  0  0  0  0  0  0  0  0  0
    8.8956    4.9207   -2.5049 C   0  0  0  0  0  0  0  0  0  0  0  0
    8.8696    0.4387   -3.4069 N   0  0  0  0  0  0  0  0  0  0  0  0
    8.3286   -0.8813   -3.6799 C   0  0  2  0  0  0  0  0  0  0  0  0
    7.8786   -1.5313   -2.3829 C   0  0  0  0  0  0  0  0  0  0  0  0
    8.2106   -1.0603   -1.2919 O   0  0  0  0  0  0  0  0  0  0  0  0
    9.3916   -1.7383   -4.3879 C   0  0  0  0  0  0  0  0  0  0  0  0
    8.9586   -3.1593   -4.6819 C   0  0  0  0  0  0  0  0  0  0  0  0
    7.7946   -3.4223   -5.4099 C   0  0  0  0  0  0  0  0  0  0  0  0
    9.6896   -4.2433   -4.1939 C   0  0  0  0  0  0  0  0  0  0  0  0
    7.3636   -4.7323   -5.6409 C   0  0  0  0  0  0  0  0  0  0  0  0
    9.2646   -5.5603   -4.4189 C   0  0  0  0  0  0  0  0  0  0  0  0
    8.1006   -5.7913   -5.1379 C   0  0  0  0  0  0  0  0  0  0  0  0
    7.6496   -7.0753   -5.3089 O   0  0  0  0  0  0  0  0  0  0  0  0
    7.1136   -2.6083   -2.5079 N   0  0  0  0  0  0  0  0  0  0  0  0
    6.5846   -3.3303   -1.3599 C   0  0  2  0  0  0  0  0  0  0  0  0
    6.0866   -4.7033   -1.7909 C   0  0  0  0  0  0  0  0  0  0  0  0
    5.8066   -4.9183   -2.9659 O   0  0  0  0  0  0  0  0  0  0  0  0
    5.4326   -2.5403   -0.7499 C   0  0  0  0  0  0  0  0  0  0  0  0
    4.7006   -3.3363    0.1581 O   0  0  0  0  0  0  0  0  0  0  0  0
    3.4486   -6.0223   -0.2789 N   0  0  0  0  0  0  0  0  0  0  0  0
    2.0766   -6.0363    0.2091 C   0  0  2  0  0  0  0  0  0  0  0  0
    0.9966   -6.4003   -0.8019 C   0  0  0  0  0  0  0  0  0  0  0  0
    0.0326   -7.0843   -0.4549 O   0  0  0  0  0  0  0  0  0  0  0  0
    1.7246   -4.6793    0.8211 C   0  0  0  0  0  0  0  0  0  0  0  0
    2.5226   -4.4133    1.9591 O   0  0  0  0  0  0  0  0  0  0  0  0
    1.1536   -5.9523   -2.0439 N   0  0  0  0  0  0  0  0  0  0  0  0
    0.1306   -6.1903   -3.0609 C   0  0  2  0  0  0  0  0  0  0  0  0
    0.3396   -7.3403   -4.0379 C   0  0  0  0  0  0  0  0  0  0  0  0
   -0.6154   -8.0433   -4.3589 O   0  0  0  0  0  0  0  0  0  0  0  0
   -0.1104   -4.8923   -3.8369 C   0  0  0  0  0  0  0  0  0  0  0  0
   -0.2454   -3.6733   -2.9309 C   0  0  0  0  0  0  0  0  0  0  0  0
   -1.3884   -3.8233   -1.9229 C   0  0  0  0  0  0  0  0  0  0  0  0
   -1.4644   -2.6093   -0.9959 C   0  0  0  0  0  0  0  0  0  0  0  0
   -2.7024   -2.5813   -0.1599 N   0  0  0  0  0  0  0  0  0  0  0  0
   -5.8264    9.9477   -6.6389 N   0  0  0  0  0  0  0  0  0  0  0  0
   -4.7034    9.2437   -6.0259 C   0  0  2  0  0  0  0  0  0  0  0  0
   -5.0744    8.5427   -4.7269 C   0  0  0  0  0  0  0  0  0  0  0  0
   -6.0954    8.8387   -4.1049 O   0  0  0  0  0  0  0  0  0  0  0  0
   -3.5124   10.1947   -5.7949 C   0  0  0  0  0  0  0  0  0  0  0  0
   -3.7384   11.3197   -4.8019 C   0  0  0  0  0  0  0  0  0  0  0  0
   -3.8024   11.0717   -3.4249 C   0  0  0  0  0  0  0  0  0  0  0  0
   -3.8504   12.6407   -5.2359 C   0  0  0  0  0  0  0  0  0  0  0  0
   -3.9694   12.1167   -2.5089 C   0  0  0  0  0  0  0  0  0  0  0  0
   -4.0164   13.6927   -4.3279 C   0  0  0  0  0  0  0  0  0  0  0  0
   -4.0754   13.4247   -2.9699 C   0  0  0  0  0  0  0  0  0  0  0  0
   -4.2484   14.4657   -2.0849 O   0  0  0  0  0  0  0  0  0  0  0  0
   -6.0064    4.6947   -7.7849 N   0  0  0  0  0  0  0  0  0  0  0  0
   -7.0774    3.7507   -8.1009 C   0  0  2  0  0  0  0  0  0  0  0  0
   -7.4434    3.5547   -9.5769 C   0  0  0  0  0  0  0  0  0  0  0  0
   -8.4624    2.9317   -9.8619 O   0  0  0  0  0  0  0  0  0  0  0  0
   -8.2404    4.3547   -7.3529 C   0  0  0  0  0  0  0  0  0  0  0  0
   -8.0744    5.8207   -7.7559 C   0  0  0  0  0  0  0  0  0  0  0  0
   -6.5594    6.0607   -7.6939 C   0  0  0  0  0  0  0  0  0  0  0  0
    2.7296    4.0377  -10.1429 N   0  0  0  0  0  0  0  0  0  0  0  0
    2.8056    3.3217  -11.4099 C   0  0  2  0  0  0  0  0  0  0  0  0
    3.1536    1.8457  -11.2369 C   0  0  0  0  0  0  0  0  0  0  0  0
    4.2846    1.5077  -10.8929 O   0  0  0  0  0  0  0  0  0  0  0  0
    3.8396    4.0227  -12.3019 C   0  0  0  0  0  0  0  0  0  0  0  0
    4.2626    3.1837  -13.4869 C   0  0  0  0  0  0  0  0  0  0  0  0
    3.4286    2.5987  -14.1759 O   0  0  0  0  0  0  0  0  0  0  0  0
    5.5686    3.1317  -13.7409 N   0  0  0  0  0  0  0  0  0  0  0  0
   -8.0104   -3.6943   -8.6959 N   0  0  0  0  0  0  0  0  0  0  0  0
   -9.2744   -2.9783   -8.7479 C   0  0  2  0  0  0  0  0  0  0  0  0
   -9.5104   -2.3673  -10.1159 C   0  0  0  0  0  0  0  0  0  0  0  0
   -8.6014   -2.2983  -10.9369 O   0  0  0  0  0  0  0  0  0  0  0  0
   -9.2084   -1.8573   -7.7119 C   0  0  0  0  0  0  0  0  0  0  0  0
   -7.8384   -1.2373   -7.6119 C   0  0  0  0  0  0  0  0  0  0  0  0
   -7.3124   -0.5063   -8.6729 C   0  0  0  0  0  0  0  0  0  0  0  0
   -7.0334   -1.4763   -6.5069 C   0  0  0  0  0  0  0  0  0  0  0  0
   -6.0014   -0.0313   -8.6369 C   0  0  0  0  0  0  0  0  0  0  0  0
   -5.7214   -1.0053   -6.4599 C   0  0  0  0  0  0  0  0  0  0  0  0
   -5.2034   -0.2823   -7.5299 C   0  0  0  0  0  0  0  0  0  0  0  0
   -6.6514   -5.6733   -1.4819 N   0  0  0  0  0  0  0  0  0  0  0  0
   -5.7124   -6.6963   -1.0469 C   0  0  2  0  0  0  0  0  0  0  0  0
   -5.7954   -7.9163   -1.9669 C   0  0  0  0  0  0  0  0  0  0  0  0
   -6.8524   -8.2183   -2.5339 O   0  0  0  0  0  0  0  0  0  0  0  0
   -5.9814   -7.0933    0.4101 C   0  0  0  0  0  0  0  0  0  0  0  0
   -5.9154   -5.9303    1.4301 C   0  0  0  0  0  0  0  0  0  0  0  0
   -4.6344   -5.0883    1.3601 C   0  0  0  0  0  0  0  0  0  0  0  0
   -3.5574   -5.6113    0.9961 O   0  0  0  0  0  0  0  0  0  0  0  0
   -4.7014   -3.8843    1.6981 O   0  0  0  0  0  0  0  0  0  0  0  0
   -5.4994   -4.2403   -8.3869 N   0  0  0  0  0  0  0  0  0  0  0  0
   -6.3894   -5.2183   -7.7729 C   0  0  2  0  0  0  0  0  0  0  0  0
   -7.7774   -4.6113   -7.7659 C   0  0  0  0  0  0  0  0  0  0  0  0
   -8.6224   -4.9793   -6.9479 O   0  0  0  0  0  0  0  0  0  0  0  0
   -5.9644   -5.4653   -6.3269 C   0  0  0  0  0  0  0  0  0  0  0  0
   -4.4864   -5.7433   -6.0459 C   0  0  0  0  0  0  0  0  0  0  0  0
   -4.2414   -5.6753   -4.5419 C   0  0  0  0  0  0  0  0  0  0  0  0
   -4.1074   -7.1113   -6.6039 C   0  0  0  0  0  0  0  0  0  0  0  0
  -13.8554    3.2257   -7.2429 N   0  0  0  0  0  0  0  0  0  0  0  0
  -12.8294    2.1967   -7.3029 C   0  0  2  0  0  0  0  0  0  0  0  0
  -13.5014    0.9327   -6.7709 C   0  0  0  0  0  0  0  0  0  0  0  0
  -14.1244    0.9527   -5.7109 O   0  0  0  0  0  0  0  0  0  0  0  0
  -11.6184    2.5507   -6.4319 C   0  0  0  0  0  0  0  0  0  0  0  0
  -10.3994    1.6657   -6.7209 C   0  0  0  0  0  0  0  0  0  0  0  0
   -9.3164    1.7687   -5.6459 C   0  0  0  0  0  0  0  0  0  0  0  0
   -9.7594    1.1987   -4.3739 N   0  0  0  0  0  0  0  0  0  0  0  0
   -8.9684    0.9827   -3.3259 C   0  0  0  0  0  0  0  0  0  0  0  0
   -7.6794    1.2887   -3.3909 N   0  0  0  0  0  0  0  0  0  0  0  0
   -9.4654    0.4607   -2.2099 N   0  0  0  0  0  0  0  0  0  0  0  0
    0.8786   -7.8683    3.1971 N   0  0  0  0  0  0  0  0  0  0  0  0
    0.9316   -6.5663    3.8731 C   0  0  2  0  0  0  0  0  0  0  0  0
    1.2606   -6.6433    5.3741 C   0  0  0  0  0  0  0  0  0  0  0  0
    1.9156   -5.7493    5.9191 O   0  0  0  0  0  0  0  0  0  0  0  0
   -0.4554   -5.9903    3.6131 C   0  0  0  0  0  0  0  0  0  0  0  0
   -1.3194   -7.2363    3.5531 C   0  0  0  0  0  0  0  0  0  0  0  0
   -0.4794   -8.1443    2.7001 C   0  0  0  0  0  0  0  0  0  0  0  0
   -2.7134   -6.5403    8.9651 N   0  0  0  0  0  0  0  0  0  0  0  0
   -1.8884   -5.3373    8.9251 C   0  0  2  0  0  0  0  0  0  0  0  0
   -2.4914   -4.1983    9.7511 C   0  0  0  0  0  0  0  0  0  0  0  0
   -2.0764   -3.0463    9.6291 O   0  0  0  0  0  0  0  0  0  0  0  0
   -1.7304   -4.8773    7.4721 C   0  0  0  0  0  0  0  0  0  0  0  0
   -3.0564   -4.5303    6.8061 C   0  0  0  0  0  0  0  0  0  0  0  0
   -2.8814   -3.8983    5.4431 C   0  0  0  0  0  0  0  0  0  0  0  0
   -2.1004   -2.9643    5.2831 O   0  0  0  0  0  0  0  0  0  0  0  0
   -3.6124   -4.4003    4.4511 N   0  0  0  0  0  0  0  0  0  0  0  0
    5.9606    3.4237    5.1041 N   0  0  0  0  0  0  0  0  0  0  0  0
    7.1516    3.9377    5.7601 C   0  0  2  0  0  0  0  0  0  0  0  0
    8.1026    4.5297    4.7251 C   0  0  0  0  0  0  0  0  0  0  0  0
    8.6516    5.6167    4.9151 O   0  0  0  0  0  0  0  0  0  0  0  0
    7.8426    2.8017    6.5241 C   0  0  0  0  0  0  0  0  0  0  0  0
    8.9416    3.2827    7.2701 O   0  0  0  0  0  0  0  0  0  0  0  0
    4.9766   -6.3323    6.5511 N   0  0  0  0  0  0  0  0  0  0  0  0
    5.5956   -5.0113    6.4381 C   0  0  2  0  0  0  0  0  0  0  0  0
    6.9286   -4.9803    5.6911 C   0  0  0  0  0  0  0  0  0  0  0  0
    7.9456   -4.5403    6.2331 O   0  0  0  0  0  0  0  0  0  0  0  0
    5.7856   -4.4063    7.8331 C   0  0  0  0  0  0  0  0  0  0  0  0
    4.5666   -4.5353    8.7471 C   0  0  0  0  0  0  0  0  0  0  0  0
    3.2916   -4.0293    8.0701 C   0  0  0  0  0  0  0  0  0  0  0  0
    3.4146   -2.6453    7.6111 N   0  0  0  0  0  0  0  0  0  0  0  0
    2.9236   -2.1943    6.4551 C   0  0  0  0  0  0  0  0  0  0  0  0
    2.2946   -3.0263    5.6271 N   0  0  0  0  0  0  0  0  0  0  0  0
    3.0716   -0.9153    6.1151 N   0  0  0  0  0  0  0  0  0  0  0  0
    8.8246   -3.2383    2.8711 N   0  0  0  0  0  0  0  0  0  0  0  0
    8.8396   -2.1243    1.9491 C   0  0  0  0  0  0  0  0  0  0  0  0
   10.2576   -1.8593    1.5091 C   0  0  0  0  0  0  0  0  0  0  0  0
   11.2046   -2.3403    2.1291 O   0  0  0  0  0  0  0  0  0  0  0  0
  -11.4524   -2.8903   -0.2579 N   0  0  0  0  0  0  0  0  0  0  0  0
  -10.1624   -3.2323    0.3301 C   0  0  2  0  0  0  0  0  0  0  0  0
   -9.2544   -3.7973   -0.7559 C   0  0  0  0  0  0  0  0  0  0  0  0
   -9.4744   -4.9113   -1.2419 O   0  0  0  0  0  0  0  0  0  0  0  0
  -10.3634   -4.2663    1.4411 C   0  0  0  0  0  0  0  0  0  0  0  0
   -9.1574   -4.8813    2.1551 C   0  0  0  0  0  0  0  0  0  0  0  0
   -8.3924   -3.8183    2.9351 C   0  0  0  0  0  0  0  0  0  0  0  0
   -9.6574   -5.9713    3.1011 C   0  0  0  0  0  0  0  0  0  0  0  0
  -13.8914   -2.7013   -1.2639 N   0  0  0  0  0  0  0  0  0  0  0  0
  -13.1794   -1.4433   -1.1349 C   0  0  0  0  0  0  0  0  0  0  0  0
  -11.8044   -1.6353   -0.5219 C   0  0  0  0  0  0  0  0  0  0  0  0
  -11.0774   -0.6723   -0.2919 O   0  0  0  0  0  0  0  0  0  0  0  0
  -12.6264   -3.0563   -5.9779 N   0  0  0  0  0  0  0  0  0  0  0  0
  -11.6084   -4.1003   -5.8549 C   0  0  2  0  0  0  0  0  0  0  0  0
  -12.1704   -5.4733   -6.2019 C   0  0  0  0  0  0  0  0  0  0  0  0
  -13.3494   -5.7423   -5.9829 O   0  0  0  0  0  0  0  0  0  0  0  0
  -11.0424   -4.1043   -4.4319 C   0  0  0  0  0  0  0  0  0  0  0  0
  -10.3374   -2.5103   -3.9459 S   0  0  0  0  0  0  0  0  0  0  0  0
  -15.3544    2.3447   -3.1979 N   0  0  0  0  0  0  0  0  0  0  0  0
  -14.8204    3.6687   -2.8919 C   0  0  2  0  0  0  0  0  0  0  0  0
  -15.2824    4.7907   -3.8179 C   0  0  0  0  0  0  0  0  0  0  0  0
  -15.0674    4.7397   -5.0259 O   0  0  0  0  0  0  0  0  0  0  0  0
  -13.2894    3.6267   -2.8969 C   0  0  0  0  0  0  0  0  0  0  0  0
  -12.8044    2.6027   -2.0449 O   0  0  0  0  0  0  0  0  0  0  0  0
  -10.7934    9.8597   -3.5299 N   0  0  0  0  0  0  0  0  0  0  0  0
   -9.4844    9.7857   -4.1719 C   0  0  2  0  0  0  0  0  0  0  0  0
   -9.1354   11.1097   -4.8479 C   0  0  0  0  0  0  0  0  0  0  0  0
   -8.1754   11.1967   -5.6189 O   0  0  0  0  0  0  0  0  0  0  0  0
   -9.4544    8.6507   -5.2009 C   0  0  0  0  0  0  0  0  0  0  0  0
   -9.5544    6.9937   -4.4679 S   0  0  0  0  0  0  0  0  0  0  0  0
  -17.1344    1.7077    5.5281 N   0  0  0  0  0  0  0  0  0  0  0  0
  -16.4224    0.7727    6.3971 C   0  0  2  0  0  0  0  0  0  0  0  0
  -17.0944    0.5267    7.7411 C   0  0  0  0  0  0  0  0  0  0  0  0
  -17.2074   -0.6173    8.1831 O   0  0  0  0  0  0  0  0  0  0  0  0
  -14.9904    1.2517    6.6441 C   0  0  0  0  0  0  0  0  0  0  0  0
  -14.0754    1.0167    5.4911 C   0  0  0  0  0  0  0  0  0  0  0  0
  -13.9714    1.7667    4.3531 C   0  0  0  0  0  0  0  0  0  0  0  0
  -13.1604   -0.0743    5.3381 C   0  0  0  0  0  0  0  0  0  0  0  0
  -13.0454    1.2097    3.5031 N   0  0  0  0  0  0  0  0  0  0  0  0
  -12.5324    0.0787    4.0831 C   0  0  0  0  0  0  0  0  0  0  0  0
  -12.8084   -1.1673    6.1431 C   0  0  0  0  0  0  0  0  0  0  0  0
  -11.5714   -0.8223    3.6081 C   0  0  0  0  0  0  0  0  0  0  0  0
  -11.8534   -2.0643    5.6721 C   0  0  0  0  0  0  0  0  0  0  0  0
  -11.2464   -1.8843    4.4151 C   0  0  0  0  0  0  0  0  0  0  0  0
    1.6226    3.1647   12.0231 N   0  0  0  0  0  0  0  0  0  0  0  0
    1.4606    2.7947   10.6281 C   0  0  2  0  0  0  0  0  0  0  0  0
    2.8146    2.8467    9.8961 C   0  0  0  0  0  0  0  0  0  0  0  0
    3.0896    2.0227    9.0181 O   0  0  0  0  0  0  0  0  0  0  0  0
    0.4596    3.7427    9.9611 C   0  0  0  0  0  0  0  0  0  0  0  0
    0.2216    3.3687    8.6211 O   0  0  0  0  0  0  0  0  0  0  0  0
   -3.4684   -4.5323   10.5871 N   0  0  0  0  0  0  0  0  0  0  0  0
   -4.1494   -3.5583   11.4301 C   0  0  2  0  0  0  0  0  0  0  0  0
   -3.1894   -2.8883   12.4151 C   0  0  0  0  0  0  0  0  0  0  0  0
   -2.4744   -3.5713   13.1521 O   0  0  0  0  0  0  0  0  0  0  0  0
   -5.2764   -4.2613   12.1871 C   0  0  0  0  0  0  0  0  0  0  0  0
   -6.1594   -3.3003   12.9451 C   0  0  0  0  0  0  0  0  0  0  0  0
   -5.8624   -2.0953   12.9691 O   0  0  0  0  0  0  0  0  0  0  0  0
   -7.1574   -3.7603   13.5231 O   0  0  0  0  0  0  0  0  0  0  0  0
   -3.1734   -1.5553   12.4411 N   0  0  0  0  0  0  0  0  0  0  0  0
   -2.2684   -0.8683   13.3491 C   0  0  2  0  0  0  0  0  0  0  0  0
   -2.6554   -0.9163   14.8251 C   0  0  0  0  0  0  0  0  0  0  0  0
   -1.9714   -0.3413   15.6681 O   0  0  0  0  0  0  0  0  0  0  0  0
   -1.9924    0.5767   12.8871 C   0  0  0  0  0  0  0  0  0  0  0  0
   -3.1704    1.5107   12.6741 C   0  0  0  0  0  0  0  0  0  0  0  0
   -4.3914    1.3207   13.3191 C   0  0  0  0  0  0  0  0  0  0  0  0
   -3.0334    2.6277   11.8471 C   0  0  0  0  0  0  0  0  0  0  0  0
   -5.4514    2.2267   13.1421 C   0  0  0  0  0  0  0  0  0  0  0  0
   -4.0804    3.5297   11.6621 C   0  0  0  0  0  0  0  0  0  0  0  0
   -5.2794    3.3267   12.3071 C   0  0  0  0  0  0  0  0  0  0  0  0
   -6.3054    4.2207   12.0961 O   0  0  0  0  0  0  0  0  0  0  0  0
    0.8086   -7.7043    6.0341 N   0  0  0  0  0  0  0  0  0  0  0  0
    1.0726   -7.8493    7.4581 C   0  0  0  0  0  0  0  0  0  0  0  0
    2.5406   -7.9803    7.8311 C   0  0  0  0  0  0  0  0  0  0  0  0
    2.9286   -7.6213    8.9431 O   0  0  0  0  0  0  0  0  0  0  0  0
   -2.3004  -11.3773    5.8391 N   0  0  0  0  0  0  0  0  0  0  0  0
   -3.2254  -10.2613    5.6381 C   0  0  2  0  0  0  0  0  0  0  0  0
   -3.3964   -9.3183    6.8291 C   0  0  0  0  0  0  0  0  0  0  0  0
   -3.8974   -8.2043    6.6681 O   0  0  0  0  0  0  0  0  0  0  0  0
   -4.6034  -10.7953    5.2431 C   0  0  0  0  0  0  0  0  0  0  0  0
   -4.7094  -11.5333    3.9061 C   0  0  0  0  0  0  0  0  0  0  0  0
   -6.0394  -12.2743    3.8371 C   0  0  0  0  0  0  0  0  0  0  0  0
   -4.5804  -10.5353    2.7591 C   0  0  0  0  0  0  0  0  0  0  0  0
   -2.9944   -9.7503    8.0191 N   0  0  0  0  0  0  0  0  0  0  0  0
   -3.1634   -8.9093    9.2001 C   0  0  2  0  0  0  0  0  0  0  0  0
   -2.1934   -7.7353    9.2231 C   0  0  0  0  0  0  0  0  0  0  0  0
   -1.0074   -7.9063    9.4851 O   0  0  0  0  0  0  0  0  0  0  0  0
   -3.0104   -9.7383   10.4781 C   0  0  0  0  0  0  0  0  0  0  0  0
   -3.4494   -9.0053   11.7121 C   0  0  0  0  0  0  0  0  0  0  0  0
   -2.5614   -8.1883   12.4101 C   0  0  0  0  0  0  0  0  0  0  0  0
   -4.7684   -9.0813   12.1411 C   0  0  0  0  0  0  0  0  0  0  0  0
   -2.9824   -7.4543   13.5131 C   0  0  0  0  0  0  0  0  0  0  0  0
   -5.2044   -8.3483   13.2481 C   0  0  0  0  0  0  0  0  0  0  0  0
   -4.3094   -7.5323   13.9371 C   0  0  0  0  0  0  0  0  0  0  0  0
    9.5456   -0.6203    6.8151 N   0  0  0  0  0  0  0  0  0  0  0  0
    8.3396   -1.3213    7.2421 C   0  0  2  0  0  0  0  0  0  0  0  0
    7.1606   -0.9733    6.3391 C   0  0  0  0  0  0  0  0  0  0  0  0
    6.2666   -0.2273    6.7361 O   0  0  0  0  0  0  0  0  0  0  0  0
    8.0156   -0.9683    8.6871 C   0  0  0  0  0  0  0  0  0  0  0  0
    6.9306   -5.4453    4.4431 N   0  0  0  0  0  0  0  0  0  0  0  0
    8.1536   -5.4293    3.6511 C   0  0  2  0  0  0  0  0  0  0  0  0
    8.0866   -4.3123    2.6171 C   0  0  0  0  0  0  0  0  0  0  0  0
    7.3766   -4.4123    1.6161 O   0  0  0  0  0  0  0  0  0  0  0  0
    8.3826   -6.7673    2.9291 C   0  0  0  0  0  0  0  0  0  0  0  0
    9.7056   -6.7273    2.1711 C   0  0  0  0  0  0  0  0  0  0  0  0
    8.3956   -7.9043    3.9341 C   0  0  0  0  0  0  0  0  0  0  0  0
    3.6586    3.8057   10.2701 N   0  0  0  0  0  0  0  0  0  0  0  0
    4.9746    3.9547    9.6451 C   0  0  2  0  0  0  0  0  0  0  0  0
    6.0066    2.9397   10.1581 C   0  0  0  0  0  0  0  0  0  0  0  0
    7.1276    2.8837    9.6511 O   0  0  0  0  0  0  0  0  0  0  0  0
    5.5196    5.3657    9.8921 C   0  0  0  0  0  0  0  0  0  0  0  0
    4.5966    6.4707    9.4411 C   0  0  0  0  0  0  0  0  0  0  0  0
    4.4446    6.7617    8.0861 C   0  0  0  0  0  0  0  0  0  0  0  0
    3.8936    7.2277   10.3741 C   0  0  0  0  0  0  0  0  0  0  0  0
    3.5976    7.7997    7.6641 C   0  0  0  0  0  0  0  0  0  0  0  0
    3.0456    8.2657    9.9711 C   0  0  0  0  0  0  0  0  0  0  0  0
    2.8976    8.5537    8.6111 C   0  0  0  0  0  0  0  0  0  0  0  0
    5.9756   -5.6223   -0.8359 N   0  0  0  0  0  0  0  0  0  0  0  0
    5.5146   -6.9823   -1.1049 C   0  0  2  0  0  0  0  0  0  0  0  0
    4.0686   -7.1393   -0.6469 C   0  0  0  0  0  0  0  0  0  0  0  0
    3.5196   -8.2453   -0.6379 O   0  0  0  0  0  0  0  0  0  0  0  0
    6.4046   -7.9833   -0.3559 C   0  0  0  0  0  0  0  0  0  0  0  0
    7.6036   -8.6503   -1.0419 C   0  0  0  0  0  0  0  0  0  0  0  0
    8.2556   -7.7333   -2.0409 C   0  0  0  0  0  0  0  0  0  0  0  0
    8.5946   -9.1253    0.0221 C   0  0  0  0  0  0  0  0  0  0  0  0
   12.2606   -0.9733    4.4511 N   0  0  0  0  0  0  0  0  0  0  0  0
   11.4506   -0.2053    5.3771 C   0  0  2  0  0  0  0  0  0  0  0  0
   10.2086   -1.0043    5.7321 C   0  0  0  0  0  0  0  0  0  0  0  0
    9.8496   -1.9533    5.0311 O   0  0  0  0  0  0  0  0  0  0  0  0
   11.0116    1.1437    4.7471 C   0  0  2  0  0  0  0  0  0  0  0  0
   10.0586    0.8987    3.6981 O   0  0  0  0  0  0  0  0  0  0  0  0
   12.2156    1.8737    4.1661 C   0  0  0  0  0  0  0  0  0  0  0  0
    1.3816   -9.9113    1.1551 N   0  0  0  0  0  0  0  0  0  0  0  0
    1.9076  -10.0123    2.5141 C   0  0  2  0  0  0  0  0  0  0  0  0
    1.9716   -8.6513    3.2271 C   0  0  0  0  0  0  0  0  0  0  0  0
    2.9956   -8.2993    3.8121 O   0  0  0  0  0  0  0  0  0  0  0  0
    3.3136  -10.6203    2.4721 C   0  0  0  0  0  0  0  0  0  0  0  0
    3.5136  -11.8553    1.5831 C   0  0  0  0  0  0  0  0  0  0  0  0
    5.0046  -12.1303    1.4501 C   0  0  0  0  0  0  0  0  0  0  0  0
    2.7826  -13.0603    2.1671 C   0  0  0  0  0  0  0  0  0  0  0  0
   10.4186   -1.0983    0.4371 N   0  0  0  0  0  0  0  0  0  0  0  0
   11.7496   -0.7963   -0.0469 C   0  0  2  0  0  0  0  0  0  0  0  0
   11.8446    0.5607   -0.7179 C   0  0  0  0  0  0  0  0  0  0  0  0
   10.9226    1.0177   -1.3929 O   0  0  0  0  0  0  0  0  0  0  0  0
   12.2216   -1.8823   -1.0139 C   0  0  0  0  0  0  0  0  0  0  0  0
    5.0886   -0.7253   11.7751 N   0  0  0  0  0  0  0  0  0  0  0  0
    4.3476   -1.8053   12.3991 C   0  0  2  0  0  0  0  0  0  0  0  0
    5.2456   -3.0133   12.6421 C   0  0  0  0  0  0  0  0  0  0  0  0
    6.3156   -3.1463   12.0481 O   0  0  0  0  0  0  0  0  0  0  0  0
    3.1576   -2.2013   11.5141 C   0  0  0  0  0  0  0  0  0  0  0  0
    2.0376   -1.1593   11.3581 C   0  0  0  0  0  0  0  0  0  0  0  0
    1.0476   -1.6143   10.2991 C   0  0  0  0  0  0  0  0  0  0  0  0
    1.3246   -0.9623   12.6801 C   0  0  0  0  0  0  0  0  0  0  0  0
    1.5576   -7.5333   -4.5389 N   0  0  0  0  0  0  0  0  0  0  0  0
    1.7596   -8.6373   -5.4649 C   0  0  2  0  0  0  0  0  0  0  0  0
    1.7676   -9.9803   -4.7279 C   0  0  0  0  0  0  0  0  0  0  0  0
    1.0056  -10.8843   -5.0719 O   0  0  0  0  0  0  0  0  0  0  0  0
    3.0366   -8.4643   -6.3169 C   0  0  0  0  0  0  0  0  0  0  0  0
    4.2616   -8.0173   -5.5169 C   0  0  0  0  0  0  0  0  0  0  0  0
    4.3316   -8.2363   -4.2889 O   0  0  0  0  0  0  0  0  0  0  0  0
    5.1866   -7.4613   -6.1509 O   0  0  0  0  0  0  0  0  0  0  0  0
    0.8786  -10.3253   -1.6279 N   0  0  0  0  0  0  0  0  0  0  0  0
   -0.1964  -10.3293   -0.6459 C   0  0  0  0  0  0  0  0  0  0  0  0
    0.2446  -10.5043    0.8011 C   0  0  0  0  0  0  0  0  0  0  0  0
   -0.4464  -11.1483    1.5961 O   0  0  0  0  0  0  0  0  0  0  0  0
    3.3566   -8.4863    6.9061 N   0  0  0  0  0  0  0  0  0  0  0  0
    4.7866   -8.6823    7.1491 C   0  0  2  0  0  0  0  0  0  0  0  0
    5.5986   -7.3833    7.0781 C   0  0  0  0  0  0  0  0  0  0  0  0
    6.7636   -7.3463    7.4881 O   0  0  0  0  0  0  0  0  0  0  0  0
    5.3546   -9.7113    6.1581 C   0  0  0  0  0  0  0  0  0  0  0  0
    4.7886  -11.1063    6.3281 C   0  0  0  0  0  0  0  0  0  0  0  0
    3.8366  -11.3803    7.3091 C   0  0  0  0  0  0  0  0  0  0  0  0
    5.2176  -12.1493    5.5041 C   0  0  0  0  0  0  0  0  0  0  0  0
    3.3196  -12.6693    7.4691 C   0  0  0  0  0  0  0  0  0  0  0  0
    4.7066  -13.4413    5.6561 C   0  0  0  0  0  0  0  0  0  0  0  0
    3.7586  -13.6983    6.6391 C   0  0  0  0  0  0  0  0  0  0  0  0
    5.6366    2.1547   11.1681 N   0  0  0  0  0  0  0  0  0  0  0  0
    6.5666    1.1797   11.7151 C   0  0  0  0  0  0  0  0  0  0  0  0
    5.8516    0.0917   12.4921 C   0  0  0  0  0  0  0  0  0  0  0  0
    5.9716   -0.0043   13.7141 O   0  0  0  0  0  0  0  0  0  0  0  0
   -8.1097   -2.1133   -0.6663 H   0  0  0  0  0  0  0  0  0  0  0  0
   -7.8826   -3.9386   -2.9409 H   0  0  0  0  0  0  0  0  0  0  0  0
   -6.2509   -1.5476   -1.9236 H   0  0  0  0  0  0  0  0  0  0  0  0
   -5.7518   -2.4984   -3.3636 H   0  0  0  0  0  0  0  0  0  0  0  0
   -7.3219   -1.6258   -3.3636 H   0  0  0  0  0  0  0  0  0  0  0  0
    7.9251   -2.1600    4.8587 H   0  0  0  0  0  0  0  0  0  0  0  0
    5.9743   -2.1262    3.5149 H   0  0  0  0  0  0  0  0  0  0  0  0
    5.1588   -1.0900    4.7589 H   0  0  0  0  0  0  0  0  0  0  0  0
    4.8841   -0.5254    2.0401 H   0  0  0  0  0  0  0  0  0  0  0  0
    6.8356    1.4507    1.1459 H   0  0  0  0  0  0  0  0  0  0  0  0
    3.9445    0.8884    0.3251 H   0  0  0  0  0  0  0  0  0  0  0  0
    5.0158    2.0762   -0.4923 H   0  0  0  0  0  0  0  0  0  0  0  0
    5.4441    0.3318   -0.4923 H   0  0  0  0  0  0  0  0  0  0  0  0
    4.0476    1.4385    3.2636 H   0  0  0  0  0  0  0  0  0  0  0  0
    3.2955    4.1705    3.2349 H   0  0  0  0  0  0  0  0  0  0  0  0
    3.5814    2.3193    5.6640 H   0  0  0  0  0  0  0  0  0  0  0  0
    1.3316    1.8876    5.1901 H   0  0  0  0  0  0  0  0  0  0  0  0
    2.5801    3.8949    6.9304 H   0  0  0  0  0  0  0  0  0  0  0  0
    3.0470    5.0498    5.6362 H   0  0  0  0  0  0  0  0  0  0  0  0
    1.4076    4.3157    5.6362 H   0  0  0  0  0  0  0  0  0  0  0  0
    7.7955    2.9115    3.5186 H   0  0  0  0  0  0  0  0  0  0  0  0
   10.1771    4.3836    3.0002 H   0  0  0  0  0  0  0  0  0  0  0  0
    9.2888    2.1970    1.8899 H   0  0  0  0  0  0  0  0  0  0  0  0
    8.3310    3.2766    0.8204 H   0  0  0  0  0  0  0  0  0  0  0  0
   10.1247    3.3735    0.8204 H   0  0  0  0  0  0  0  0  0  0  0  0
    6.8095    5.0146    1.8352 H   0  0  0  0  0  0  0  0  0  0  0  0
    7.5995    7.2316    0.2018 H   0  0  0  0  0  0  0  0  0  0  0  0
    6.9787    8.1409    3.1268 H   0  0  0  0  0  0  0  0  0  0  0  0
    4.9967    6.4439    1.5555 H   0  0  0  0  0  0  0  0  0  0  0  0
    5.1622    8.0086    0.6402 H   0  0  0  0  0  0  0  0  0  0  0  0
    4.0281    4.9081   -1.4748 H   0  0  0  0  0  0  0  0  0  0  0  0
    3.6473    5.2987    0.2238 H   0  0  0  0  0  0  0  0  0  0  0  0
   -3.4040    7.4067   -4.9328 H   0  0  0  0  0  0  0  0  0  0  0  0
   -5.2907    6.1682   -3.1983 H   0  0  0  0  0  0  0  0  0  0  0  0
   -3.2079    5.1215   -3.7097 H   0  0  0  0  0  0  0  0  0  0  0  0
   -2.2931    6.5786   -3.0559 H   0  0  0  0  0  0  0  0  0  0  0  0
   -5.0362    4.4385   -1.5993 H   0  0  0  0  0  0  0  0  0  0  0  0
   -1.0060    5.9401   -1.2950 H   0  0  0  0  0  0  0  0  0  0  0  0
   -4.7854    3.3052    0.6051 H   0  0  0  0  0  0  0  0  0  0  0  0
   -0.7465    4.8134    0.9076 H   0  0  0  0  0  0  0  0  0  0  0  0
   -3.3448    2.8409    2.4775 H   0  0  0  0  0  0  0  0  0  0  0  0
   -5.8566    9.6850   -0.4680 H   0  0  0  0  0  0  0  0  0  0  0  0
   -7.7681    8.4437    1.1510 H   0  0  0  0  0  0  0  0  0  0  0  0
   -8.2248    9.1063   -0.4086 H   0  0  0  0  0  0  0  0  0  0  0  0
   -7.4002    6.2295    0.2956 H   0  0  0  0  0  0  0  0  0  0  0  0
   -8.8351    6.7194   -0.5791 H   0  0  0  0  0  0  0  0  0  0  0  0
   -6.6713    5.9093   -1.9588 H   0  0  0  0  0  0  0  0  0  0  0  0
   -7.5200    7.3044   -2.5797 H   0  0  0  0  0  0  0  0  0  0  0  0
   -4.5268    6.6437    0.3532 H   0  0  0  0  0  0  0  0  0  0  0  0
   -4.1348    7.2286    3.1514 H   0  0  0  0  0  0  0  0  0  0  0  0
   -3.1080    6.1536    2.1299 H   0  0  0  0  0  0  0  0  0  0  0  0
   -2.6436    8.3857    0.1910 H   0  0  0  0  0  0  0  0  0  0  0  0
   -0.1886    9.2623    1.2808 H   0  0  0  0  0  0  0  0  0  0  0  0
   -2.3980   11.3548    1.8335 H   0  0  0  0  0  0  0  0  0  0  0  0
   -1.9055   10.2879   -1.0391 H   0  0  0  0  0  0  0  0  0  0  0  0
   -0.2708   11.0068   -0.6130 H   0  0  0  0  0  0  0  0  0  0  0  0
    0.9097    8.2321    0.2112 H   0  0  0  0  0  0  0  0  0  0  0  0
   -1.1611    9.6903   -3.2680 H   0  0  0  0  0  0  0  0  0  0  0  0
    2.1426    6.5910   -1.2040 H   0  0  0  0  0  0  0  0  0  0  0  0
    0.0618    8.0569   -4.6945 H   0  0  0  0  0  0  0  0  0  0  0  0
    1.7212    6.4961   -3.6667 H   0  0  0  0  0  0  0  0  0  0  0  0
   -0.2669    9.9100    6.1447 H   0  0  0  0  0  0  0  0  0  0  0  0
   -0.0836   10.7398    4.6932 H   0  0  0  0  0  0  0  0  0  0  0  0
    1.5663    8.9301    6.0351 H   0  0  0  0  0  0  0  0  0  0  0  0
    2.2053   11.0240    3.8124 H   0  0  0  0  0  0  0  0  0  0  0  0
    1.2417    8.6322    2.9796 H   0  0  0  0  0  0  0  0  0  0  0  0
    2.4181    7.7355    4.0505 H   0  0  0  0  0  0  0  0  0  0  0  0
   -0.4384    5.5371    3.3534 H   0  0  0  0  0  0  0  0  0  0  0  0
    5.3197   13.4943   -6.2374 H   0  0  0  0  0  0  0  0  0  0  0  0
    6.1312   13.0211   -7.6326 H   0  0  0  0  0  0  0  0  0  0  0  0
    6.1426   10.9840   -6.8353 H   0  0  0  0  0  0  0  0  0  0  0  0
    5.6155   12.0261   -4.6108 H   0  0  0  0  0  0  0  0  0  0  0  0
    3.8539   11.6910   -5.0044 H   0  0  0  0  0  0  0  0  0  0  0  0
    5.8253    9.4289   -5.0996 H   0  0  0  0  0  0  0  0  0  0  0  0
    4.4498    9.8787   -2.4979 H   0  0  0  0  0  0  0  0  0  0  0  0
    6.0777    9.2095   -2.8567 H   0  0  0  0  0  0  0  0  0  0  0  0
    5.8172   10.9868   -2.8567 H   0  0  0  0  0  0  0  0  0  0  0  0
    3.2715    8.9472   -3.8356 H   0  0  0  0  0  0  0  0  0  0  0  0
    3.0221    9.8412   -5.3736 H   0  0  0  0  0  0  0  0  0  0  0  0
    3.9249    8.2882   -5.3736 H   0  0  0  0  0  0  0  0  0  0  0  0
    5.3418    9.4399   -8.1397 H   0  0  0  0  0  0  0  0  0  0  0  0
    2.4234    9.6381   -8.7861 H   0  0  0  0  0  0  0  0  0  0  0  0
    2.9388    8.6280  -11.0232 H   0  0  0  0  0  0  0  0  0  0  0  0
    3.8685   11.2508  -10.0761 H   0  0  0  0  0  0  0  0  0  0  0  0
    4.7326   10.6972  -11.5503 H   0  0  0  0  0  0  0  0  0  0  0  0
    2.9401   10.8134  -11.5503 H   0  0  0  0  0  0  0  0  0  0  0  0
    5.5105    8.1571   -9.7341 H   0  0  0  0  0  0  0  0  0  0  0  0
    4.8602    7.4903  -11.2700 H   0  0  0  0  0  0  0  0  0  0  0  0
    5.7287    9.0627  -11.2700 H   0  0  0  0  0  0  0  0  0  0  0  0
    1.3795    7.6054   -9.3762 H   0  0  0  0  0  0  0  0  0  0  0  0
    2.6491    5.2431   -7.9424 H   0  0  0  0  0  0  0  0  0  0  0  0
   -0.2757    5.9597   -8.3437 H   0  0  0  0  0  0  0  0  0  0  0  0
    0.5351    5.4460   -5.7829 H   0  0  0  0  0  0  0  0  0  0  0  0
    0.1914    3.8030   -6.5010 H   0  0  0  0  0  0  0  0  0  0  0  0
   -0.7304    3.7838   -8.0427 H   0  0  0  0  0  0  0  0  0  0  0  0
    1.0276    3.4146   -8.0427 H   0  0  0  0  0  0  0  0  0  0  0  0
    0.7936    1.8535  -12.8455 H   0  0  0  0  0  0  0  0  0  0  0  0
   -0.2997   -0.5393  -11.2981 H   0  0  0  0  0  0  0  0  0  0  0  0
   -0.4999   -0.2002  -13.0074 H   0  0  0  0  0  0  0  0  0  0  0  0
    1.2287   -2.0849  -12.3167 H   0  0  0  0  0  0  0  0  0  0  0  0
    1.8049   -0.9403  -13.5017 H   0  0  0  0  0  0  0  0  0  0  0  0
    2.2036   -0.9124  -10.4459 H   0  0  0  0  0  0  0  0  0  0  0  0
    3.4636   -0.8007  -11.6439 H   0  0  0  0  0  0  0  0  0  0  0  0
   -1.2914    2.5186  -12.4192 H   0  0  0  0  0  0  0  0  0  0  0  0
   -1.1686    3.8340   -9.8630 H   0  0  0  0  0  0  0  0  0  0  0  0
   -1.8055    5.3288  -11.7202 H   0  0  0  0  0  0  0  0  0  0  0  0
   -2.9160    4.0837  -12.4082 H   0  0  0  0  0  0  0  0  0  0  0  0
   -3.5163    5.0835   -9.8344 H   0  0  0  0  0  0  0  0  0  0  0  0
   -2.3425    4.0934   -8.2325 H   0  0  0  0  0  0  0  0  0  0  0  0
   -4.7966    2.2722   -7.8376 H   0  0  0  0  0  0  0  0  0  0  0  0
   -3.1143    1.7128   -6.2882 H   0  0  0  0  0  0  0  0  0  0  0  0
   -2.8303    3.4696   -5.9172 H   0  0  0  0  0  0  0  0  0  0  0  0
   -4.9183    2.5969   -3.1068 H   0  0  0  0  0  0  0  0  0  0  0  0
   -3.2233    2.6119   -3.6631 H   0  0  0  0  0  0  0  0  0  0  0  0
    8.4423    7.3467   -6.7977 H   0  0  0  0  0  0  0  0  0  0  0  0
    9.4570    7.1441   -8.1238 H   0  0  0  0  0  0  0  0  0  0  0  0
    6.6230    7.0744   -8.6362 H   0  0  0  0  0  0  0  0  0  0  0  0
    8.4079    6.7571  -10.3879 H   0  0  0  0  0  0  0  0  0  0  0  0
    8.9575    5.2840   -9.4945 H   0  0  0  0  0  0  0  0  0  0  0  0
    6.5524    4.6879   -9.7428 H   0  0  0  0  0  0  0  0  0  0  0  0
    5.3150    6.1314   -7.2199 H   0  0  0  0  0  0  0  0  0  0  0  0
    6.3187    3.9865   -5.4006 H   0  0  0  0  0  0  0  0  0  0  0  0
    4.6928    5.6774   -4.6385 H   0  0  0  0  0  0  0  0  0  0  0  0
    3.5145    5.0325   -5.8683 H   0  0  0  0  0  0  0  0  0  0  0  0
    2.8866    3.4394   -2.5743 H   0  0  0  0  0  0  0  0  0  0  0  0
    6.8225    2.2036   -6.6298 H   0  0  0  0  0  0  0  0  0  0  0  0
    4.7562    1.2748   -8.5980 H   0  0  0  0  0  0  0  0  0  0  0  0
    7.6739    0.3651   -8.3173 H   0  0  0  0  0  0  0  0  0  0  0  0
    6.5465    0.0952   -9.7110 H   0  0  0  0  0  0  0  0  0  0  0  0
    6.4542    2.6305   -9.9513 H   0  0  0  0  0  0  0  0  0  0  0  0
    7.8792    2.6497   -8.7950 H   0  0  0  0  0  0  0  0  0  0  0  0
    9.0953    2.7548  -12.2785 H   0  0  0  0  0  0  0  0  0  0  0  0
    4.1273    0.8719   -5.9618 H   0  0  0  0  0  0  0  0  0  0  0  0
    4.9232   -1.7428   -5.0467 H   0  0  0  0  0  0  0  0  0  0  0  0
    3.8997    0.0115   -3.5729 H   0  0  0  0  0  0  0  0  0  0  0  0
    2.2140   -2.5337   -3.7158 H   0  0  0  0  0  0  0  0  0  0  0  0
    3.8555   -2.3669   -2.9358 H   0  0  0  0  0  0  0  0  0  0  0  0
    1.4168    0.3350   -3.6437 H   0  0  0  0  0  0  0  0  0  0  0  0
    2.2310    0.9085   -5.1386 H   0  0  0  0  0  0  0  0  0  0  0  0
    1.3536   -0.6589   -5.1386 H   0  0  0  0  0  0  0  0  0  0  0  0
    2.8445   -1.8194   -1.0291 H   0  0  0  0  0  0  0  0  0  0  0  0
    2.2433   -0.3256   -1.8252 H   0  0  0  0  0  0  0  0  0  0  0  0
    1.2342   -1.8116   -1.8252 H   0  0  0  0  0  0  0  0  0  0  0  0
    2.6213   -0.6861   -7.4853 H   0  0  0  0  0  0  0  0  0  0  0  0
    1.4309   -3.4305   -7.4777 H   0  0  0  0  0  0  0  0  0  0  0  0
    3.4258   -2.8024   -9.4991 H   0  0  0  0  0  0  0  0  0  0  0  0
    0.6296   -0.8248   -8.8865 H   0  0  0  0  0  0  0  0  0  0  0  0
   -0.1851   -2.4449   -9.1487 H   0  0  0  0  0  0  0  0  0  0  0  0
   -1.3292   -3.5692   -7.2260 H   0  0  0  0  0  0  0  0  0  0  0  0
   -0.0166    0.5288   -7.0665 H   0  0  0  0  0  0  0  0  0  0  0  0
   -2.7609   -3.1860   -5.2203 H   0  0  0  0  0  0  0  0  0  0  0  0
   -1.4369    0.9122   -5.0620 H   0  0  0  0  0  0  0  0  0  0  0  0
   -3.4910   -1.6317   -3.5366 H   0  0  0  0  0  0  0  0  0  0  0  0
   10.3816    4.1440   -4.8268 H   0  0  0  0  0  0  0  0  0  0  0  0
   10.2184    2.6520   -5.5859 H   0  0  0  0  0  0  0  0  0  0  0  0
   10.0666    2.6799   -3.0874 H   0  0  0  0  0  0  0  0  0  0  0  0
    7.4685    4.0427   -3.8716 H   0  0  0  0  0  0  0  0  0  0  0  0
    7.7830    3.2632   -1.0445 H   0  0  0  0  0  0  0  0  0  0  0  0
    6.3727    3.0786   -2.1416 H   0  0  0  0  0  0  0  0  0  0  0  0
    7.6781    1.8447   -2.1416 H   0  0  0  0  0  0  0  0  0  0  0  0
    8.8551    4.8501   -1.4079 H   0  0  0  0  0  0  0  0  0  0  0  0
    9.9454    4.9467   -2.8322 H   0  0  0  0  0  0  0  0  0  0  0  0
    8.3866    5.8393   -2.8322 H   0  0  0  0  0  0  0  0  0  0  0  0
    9.4763    0.5748   -2.5857 H   0  0  0  0  0  0  0  0  0  0  0  0
    7.4546   -0.7944   -4.3422 H   0  0  0  0  0  0  0  0  0  0  0  0
    9.6455   -1.2522   -5.3414 H   0  0  0  0  0  0  0  0  0  0  0  0
   10.2467   -1.8078   -3.6995 H   0  0  0  0  0  0  0  0  0  0  0  0
    7.2064   -2.5826   -5.8086 H   0  0  0  0  0  0  0  0  0  0  0  0
   10.6129   -4.0617   -3.6242 H   0  0  0  0  0  0  0  0  0  0  0  0
    6.4460   -4.9202   -6.2178 H   0  0  0  0  0  0  0  0  0  0  0  0
    9.8503   -6.4052   -4.0278 H   0  0  0  0  0  0  0  0  0  0  0  0
    6.8195   -7.2442   -5.8212 H   0  0  0  0  0  0  0  0  0  0  0  0
    6.8853   -2.9464   -3.4536 H   0  0  0  0  0  0  0  0  0  0  0  0
    7.3835   -3.4554   -0.6142 H   0  0  0  0  0  0  0  0  0  0  0  0
    5.8370   -1.6665   -0.2179 H   0  0  0  0  0  0  0  0  0  0  0  0
    4.7591   -2.2200   -1.5585 H   0  0  0  0  0  0  0  0  0  0  0  0
    4.9358   -3.0805    1.0852 H   0  0  0  0  0  0  0  0  0  0  0  0
    3.9509   -5.1252   -0.3404 H   0  0  0  0  0  0  0  0  0  0  0  0
    2.0727   -6.8498    0.9495 H   0  0  0  0  0  0  0  0  0  0  0  0
    1.8933   -3.8921    0.0716 H   0  0  0  0  0  0  0  0  0  0  0  0
    0.6690   -4.6976    1.1301 H   0  0  0  0  0  0  0  0  0  0  0  0
    1.9966   -4.5886    2.7793 H   0  0  0  0  0  0  0  0  0  0  0  0
    2.0065   -5.4311   -2.2926 H   0  0  0  0  0  0  0  0  0  0  0  0
   -0.7432   -6.5188   -2.4791 H   0  0  0  0  0  0  0  0  0  0  0  0
    0.7365   -4.7296   -4.5196 H   0  0  0  0  0  0  0  0  0  0  0  0
   -1.0600   -5.0052   -4.3805 H   0  0  0  0  0  0  0  0  0  0  0  0
    0.6966   -3.5358   -2.3798 H   0  0  0  0  0  0  0  0  0  0  0  0
   -0.4689   -2.8040   -3.5668 H   0  0  0  0  0  0  0  0  0  0  0  0
   -2.3388   -3.9194   -2.4683 H   0  0  0  0  0  0  0  0  0  0  0  0
   -1.2021   -4.7192   -1.3125 H   0  0  0  0  0  0  0  0  0  0  0  0
   -0.5915   -2.6256   -0.3268 H   0  0  0  0  0  0  0  0  0  0  0  0
   -1.4811   -1.7129   -1.6332 H   0  0  0  0  0  0  0  0  0  0  0  0
   -2.4437   -2.5871    0.8371 H   0  0  0  0  0  0  0  0  0  0  0  0
   -3.2395   -1.7279   -0.3702 H   0  0  0  0  0  0  0  0  0  0  0  0
   -6.4358   10.3298   -5.9016 H   0  0  0  0  0  0  0  0  0  0  0  0
   -5.4711   10.7175   -7.2237 H   0  0  0  0  0  0  0  0  0  0  0  0
   -4.4092    8.4614   -6.7410 H   0  0  0  0  0  0  0  0  0  0  0  0
   -2.6665    9.5919   -5.4328 H   0  0  0  0  0  0  0  0  0  0  0  0
   -3.3353   10.6865   -6.7628 H   0  0  0  0  0  0  0  0  0  0  0  0
   -3.7201   10.0383   -3.0571 H   0  0  0  0  0  0  0  0  0  0  0  0
   -3.8074   12.8599   -6.3130 H   0  0  0  0  0  0  0  0  0  0  0  0
   -4.0166   11.9048   -1.4305 H   0  0  0  0  0  0  0  0  0  0  0  0
   -4.0997   14.7278   -4.6908 H   0  0  0  0  0  0  0  0  0  0  0  0
   -4.2921   14.2865   -1.1122 H   0  0  0  0  0  0  0  0  0  0  0  0
   -6.7700    2.7319   -7.8225 H   0  0  0  0  0  0  0  0  0  0  0  0
   -6.8018    3.9667  -10.3697 H   0  0  0  0  0  0  0  0  0  0  0  0
   -9.2028    3.9436   -7.6916 H   0  0  0  0  0  0  0  0  0  0  0  0
   -8.2449    4.1673   -6.2690 H   0  0  0  0  0  0  0  0  0  0  0  0
   -8.4547    5.9906   -8.7740 H   0  0  0  0  0  0  0  0  0  0  0  0
   -8.6357    6.5033   -7.1008 H   0  0  0  0  0  0  0  0  0  0  0  0
   -6.2220    6.6815   -8.5370 H   0  0  0  0  0  0  0  0  0  0  0  0
   -6.2411    6.5995   -6.7892 H   0  0  0  0  0  0  0  0  0  0  0  0
    3.4134    3.8276   -9.4018 H   0  0  0  0  0  0  0  0  0  0  0  0
    1.8113    3.3440  -11.8800 H   0  0  0  0  0  0  0  0  0  0  0  0
    3.4025    4.9608  -12.6746 H   0  0  0  0  0  0  0  0  0  0  0  0
    4.7353    4.2023  -11.6891 H   0  0  0  0  0  0  0  0  0  0  0  0
    5.9170    2.5762  -14.5351 H   0  0  0  0  0  0  0  0  0  0  0  0
    6.2304    3.6470  -13.1431 H   0  0  0  0  0  0  0  0  0  0  0  0
   -7.2823   -3.4858   -9.3939 H   0  0  0  0  0  0  0  0  0  0  0  0
  -10.0977   -3.6785   -8.5433 H   0  0  0  0  0  0  0  0  0  0  0  0
  -10.5076   -1.9818  -10.3747 H   0  0  0  0  0  0  0  0  0  0  0  0
   -9.9289   -1.0752   -7.9933 H   0  0  0  0  0  0  0  0  0  0  0  0
   -9.4466   -2.2963   -6.7318 H   0  0  0  0  0  0  0  0  0  0  0  0
   -7.9397   -0.3001   -9.5527 H   0  0  0  0  0  0  0  0  0  0  0  0
   -7.4359   -2.0453   -5.6559 H   0  0  0  0  0  0  0  0  0  0  0  0
   -5.6004    0.5420   -9.4857 H   0  0  0  0  0  0  0  0  0  0  0  0
   -5.0964   -1.2054   -5.5771 H   0  0  0  0  0  0  0  0  0  0  0  0
   -4.1681    0.0879   -7.4984 H   0  0  0  0  0  0  0  0  0  0  0  0
   -7.6405   -5.9183   -1.6320 H   0  0  0  0  0  0  0  0  0  0  0  0
   -4.6938   -6.2852   -1.1048 H   0  0  0  0  0  0  0  0  0  0  0  0
   -4.9001   -8.5350   -2.1266 H   0  0  0  0  0  0  0  0  0  0  0  0
   -6.9870   -7.5361    0.4627 H   0  0  0  0  0  0  0  0  0  0  0  0
   -5.1799   -7.7926    0.6903 H   0  0  0  0  0  0  0  0  0  0  0  0
   -6.7728   -5.2656    1.2480 H   0  0  0  0  0  0  0  0  0  0  0  0
   -5.9301   -6.3914    2.4287 H   0  0  0  0  0  0  0  0  0  0  0  0
   -3.8923   -3.3148    1.6640 H   0  0  0  0  0  0  0  0  0  0  0  0
   -5.0146   -3.7075   -7.6507 H   0  0  0  0  0  0  0  0  0  0  0  0
   -4.8055   -4.7272   -8.9718 H   0  0  0  0  0  0  0  0  0  0  0  0
   -6.3607   -6.1683   -8.3266 H   0  0  0  0  0  0  0  0  0  0  0  0
   -6.2445   -4.5731   -5.7475 H   0  0  0  0  0  0  0  0  0  0  0  0
   -6.4755   -6.3986   -6.0479 H   0  0  0  0  0  0  0  0  0  0  0  0
   -3.8580   -4.9866   -6.5384 H   0  0  0  0  0  0  0  0  0  0  0  0
   -5.1679   -5.9324   -4.0075 H   0  0  0  0  0  0  0  0  0  0  0  0
   -3.4497   -6.3876   -4.2668 H   0  0  0  0  0  0  0  0  0  0  0  0
   -3.9301   -4.6568   -4.2668 H   0  0  0  0  0  0  0  0  0  0  0  0
   -3.9150   -7.8058   -5.7728 H   0  0  0  0  0  0  0  0  0  0  0  0
   -4.9325   -7.4971   -7.2206 H   0  0  0  0  0  0  0  0  0  0  0  0
   -3.2014   -7.0175   -7.2206 H   0  0  0  0  0  0  0  0  0  0  0  0
  -14.0694    3.4403   -6.2584 H   0  0  0  0  0  0  0  0  0  0  0  0
  -13.5162    4.0766   -7.7138 H   0  0  0  0  0  0  0  0  0  0  0  0
  -12.4488    2.0782   -8.3281 H   0  0  0  0  0  0  0  0  0  0  0  0
  -13.4274   -0.0048   -7.3415 H   0  0  0  0  0  0  0  0  0  0  0  0
  -11.3442    3.5992   -6.6206 H   0  0  0  0  0  0  0  0  0  0  0  0
  -11.9057    2.3865   -5.3828 H   0  0  0  0  0  0  0  0  0  0  0  0
  -10.7330    0.6194   -6.7829 H   0  0  0  0  0  0  0  0  0  0  0  0
   -9.9578    2.0133   -7.6665 H   0  0  0  0  0  0  0  0  0  0  0  0
   -8.4226    1.2261   -5.9874 H   0  0  0  0  0  0  0  0  0  0  0  0
   -9.0940    2.8339   -5.4848 H   0  0  0  0  0  0  0  0  0  0  0  0
  -10.7540    0.9467   -4.2829 H   0  0  0  0  0  0  0  0  0  0  0  0
   -7.0687    1.1208   -2.5787 H   0  0  0  0  0  0  0  0  0  0  0  0
   -7.2892    1.6942   -4.2535 H   0  0  0  0  0  0  0  0  0  0  0  0
   -8.8504    0.2948   -1.4005 H   0  0  0  0  0  0  0  0  0  0  0  0
    1.7505   -5.9410    3.4879 H   0  0  0  0  0  0  0  0  0  0  0  0
   -0.7706   -5.3265    4.4317 H   0  0  0  0  0  0  0  0  0  0  0  0
   -0.5116   -5.3722    2.7049 H   0  0  0  0  0  0  0  0  0  0  0  0
   -1.4807   -7.6617    4.5546 H   0  0  0  0  0  0  0  0  0  0  0  0
   -2.3314   -7.0611    3.1591 H   0  0  0  0  0  0  0  0  0  0  0  0
   -0.7528   -9.1990    2.8510 H   0  0  0  0  0  0  0  0  0  0  0  0
   -0.5984   -7.9712    1.6204 H   0  0  0  0  0  0  0  0  0  0  0  0
   -3.7251   -6.4609    8.7888 H   0  0  0  0  0  0  0  0  0  0  0  0
   -0.9101   -5.5885    9.3608 H   0  0  0  0  0  0  0  0  0  0  0  0
   -1.0867   -3.9855    7.4555 H   0  0  0  0  0  0  0  0  0  0  0  0
   -1.2906   -5.7141    6.9097 H   0  0  0  0  0  0  0  0  0  0  0  0
   -3.6445   -5.4529    6.6926 H   0  0  0  0  0  0  0  0  0  0  0  0
   -3.5667   -3.7968    7.4477 H   0  0  0  0  0  0  0  0  0  0  0  0
   -3.5324   -4.0072    3.5025 H   0  0  0  0  0  0  0  0  0  0  0  0
   -4.2583   -5.1820    4.6319 H   0  0  0  0  0  0  0  0  0  0  0  0
    5.8008    2.4063    5.0922 H   0  0  0  0  0  0  0  0  0  0  0  0
    6.8659    4.7295    6.4683 H   0  0  0  0  0  0  0  0  0  0  0  0
    7.1184    2.3382    7.2102 H   0  0  0  0  0  0  0  0  0  0  0  0
    8.2118    2.0655    5.7950 H   0  0  0  0  0  0  0  0  0  0  0  0
    8.7468    3.1975    8.2370 H   0  0  0  0  0  0  0  0  0  0  0  0
    4.0137   -6.4541    6.2063 H   0  0  0  0  0  0  0  0  0  0  0  0
    4.8973   -4.4171    5.8304 H   0  0  0  0  0  0  0  0  0  0  0  0
    6.6334   -4.9141    8.3161 H   0  0  0  0  0  0  0  0  0  0  0  0
    5.9578   -3.3295    7.6884 H   0  0  0  0  0  0  0  0  0  0  0  0
    4.4319   -5.5940    9.0135 H   0  0  0  0  0  0  0  0  0  0  0  0
    4.7445   -3.9214    9.6424 H   0  0  0  0  0  0  0  0  0  0  0  0
    3.0735   -4.6707    7.2035 H   0  0  0  0  0  0  0  0  0  0  0  0
    2.4809   -4.0653    8.8128 H   0  0  0  0  0  0  0  0  0  0  0  0
    3.9111   -1.9775    8.2182 H   0  0  0  0  0  0  0  0  0  0  0  0
    1.9161   -2.6768    4.7352 H   0  0  0  0  0  0  0  0  0  0  0  0
    2.1866   -4.0192    5.8786 H   0  0  0  0  0  0  0  0  0  0  0  0
    2.6906   -0.5725    5.2217 H   0  0  0  0  0  0  0  0  0  0  0  0
    9.3904   -3.1982    3.7309 H   0  0  0  0  0  0  0  0  0  0  0  0
    8.2217   -2.3655    1.0716 H   0  0  0  0  0  0  0  0  0  0  0  0
    8.4350   -1.2300    2.4457 H   0  0  0  0  0  0  0  0  0  0  0  0
  -12.1148   -3.6481   -0.4766 H   0  0  0  0  0  0  0  0  0  0  0  0
   -9.6973   -2.3338    0.7619 H   0  0  0  0  0  0  0  0  0  0  0  0
  -10.9755   -3.7817    2.2161 H   0  0  0  0  0  0  0  0  0  0  0  0
  -10.7989   -5.1234    0.9066 H   0  0  0  0  0  0  0  0  0  0  0  0
   -8.4711   -5.3127    1.4116 H   0  0  0  0  0  0  0  0  0  0  0  0
   -8.5184   -3.9933    4.0138 H   0  0  0  0  0  0  0  0  0  0  0  0
   -7.3244   -3.8718    2.6772 H   0  0  0  0  0  0  0  0  0  0  0  0
   -8.7824   -2.8226    2.6772 H   0  0  0  0  0  0  0  0  0  0  0  0
   -9.5096   -5.6491    4.1425 H   0  0  0  0  0  0  0  0  0  0  0  0
  -10.7277   -6.1504    2.9211 H   0  0  0  0  0  0  0  0  0  0  0  0
   -9.0950   -6.8993    2.9211 H   0  0  0  0  0  0  0  0  0  0  0  0
  -14.1024   -3.0740   -0.3271 H   0  0  0  0  0  0  0  0  0  0  0  0
  -14.7705   -2.5471   -1.7780 H   0  0  0  0  0  0  0  0  0  0  0  0
  -13.0651   -0.9947   -2.1327 H   0  0  0  0  0  0  0  0  0  0  0  0
  -13.7615   -0.7870   -0.4712 H   0  0  0  0  0  0  0  0  0  0  0  0
  -12.9223   -2.7529   -5.0391 H   0  0  0  0  0  0  0  0  0  0  0  0
  -12.2347   -2.2534   -6.4906 H   0  0  0  0  0  0  0  0  0  0  0  0
  -10.8028   -3.8796   -6.5706 H   0  0  0  0  0  0  0  0  0  0  0  0
  -11.5140   -6.2318   -6.6532 H   0  0  0  0  0  0  0  0  0  0  0  0
  -11.8535   -4.3564   -3.7329 H   0  0  0  0  0  0  0  0  0  0  0  0
  -10.2300   -4.8454   -4.4034 H   0  0  0  0  0  0  0  0  0  0  0  0
  -10.2998   -2.4253   -2.5790 H   0  0  0  0  0  0  0  0  0  0  0  0
  -15.5561    1.8446   -2.3203 H   0  0  0  0  0  0  0  0  0  0  0  0
  -16.2219    2.4423   -3.7446 H   0  0  0  0  0  0  0  0  0  0  0  0
  -15.2225    3.9105   -1.8969 H   0  0  0  0  0  0  0  0  0  0  0  0
  -15.8151    5.6565   -3.3975 H   0  0  0  0  0  0  0  0  0  0  0  0
  -12.9385    3.4374   -3.9221 H   0  0  0  0  0  0  0  0  0  0  0  0
  -12.9121    4.5932   -2.5315 H   0  0  0  0  0  0  0  0  0  0  0  0
  -12.9317    2.8713   -1.1005 H   0  0  0  0  0  0  0  0  0  0  0  0
  -10.6749    9.8530   -2.5067 H   0  0  0  0  0  0  0  0  0  0  0  0
  -11.2670   10.7288   -3.8149 H   0  0  0  0  0  0  0  0  0  0  0  0
   -8.7353    9.5812   -3.3928 H   0  0  0  0  0  0  0  0  0  0  0  0
   -9.7491   11.9998   -4.6446 H   0  0  0  0  0  0  0  0  0  0  0  0
  -10.3068    8.7796   -5.8841 H   0  0  0  0  0  0  0  0  0  0  0  0
   -8.4860    8.7137   -5.7188 H   0  0  0  0  0  0  0  0  0  0  0  0
   -9.5482    7.0975   -3.1018 H   0  0  0  0  0  0  0  0  0  0  0  0
  -17.6515    2.3867    6.1048 H   0  0  0  0  0  0  0  0  0  0  0  0
  -16.4577    2.2072    4.9336 H   0  0  0  0  0  0  0  0  0  0  0  0
  -16.4314   -0.1836    5.8537 H   0  0  0  0  0  0  0  0  0  0  0  0
  -17.4818    1.3770    8.3216 H   0  0  0  0  0  0  0  0  0  0  0  0
  -15.0161    2.3313    6.8533 H   0  0  0  0  0  0  0  0  0  0  0  0
  -14.5975    0.6706    7.4915 H   0  0  0  0  0  0  0  0  0  0  0  0
  -14.5450    2.6825    4.1474 H   0  0  0  0  0  0  0  0  0  0  0  0
  -12.7802    1.5820    2.5801 H   0  0  0  0  0  0  0  0  0  0  0  0
  -13.2776   -1.3131    7.1273 H   0  0  0  0  0  0  0  0  0  0  0  0
  -11.0953   -0.6844    2.6262 H   0  0  0  0  0  0  0  0  0  0  0  0
  -11.5689   -2.9272    6.2922 H   0  0  0  0  0  0  0  0  0  0  0  0
  -10.4950   -2.6106    4.0717 H   0  0  0  0  0  0  0  0  0  0  0  0
    1.2867    2.3977   12.6230 H   0  0  0  0  0  0  0  0  0  0  0  0
    2.6183    3.3421   12.2179 H   0  0  0  0  0  0  0  0  0  0  0  0
    1.0780    1.7649   10.5717 H   0  0  0  0  0  0  0  0  0  0  0  0
   -0.4893    3.7122   10.5167 H   0  0  0  0  0  0  0  0  0  0  0  0
    0.8805    4.7589    9.9710 H   0  0  0  0  0  0  0  0  0  0  0  0
   -0.3098    2.5337    8.6010 H   0  0  0  0  0  0  0  0  0  0  0  0
   -3.7562   -5.5198   10.6416 H   0  0  0  0  0  0  0  0  0  0  0  0
   -4.5600   -2.7659   10.7870 H   0  0  0  0  0  0  0  0  0  0  0  0
   -5.8958   -4.8119   11.4638 H   0  0  0  0  0  0  0  0  0  0  0  0
   -4.8120   -4.9349   12.9223 H   0  0  0  0  0  0  0  0  0  0  0  0
   -7.7579   -3.1576   14.0294 H   0  0  0  0  0  0  0  0  0  0  0  0
   -3.7969   -1.0164   11.8232 H   0  0  0  0  0  0  0  0  0  0  0  0
   -1.3356   -1.4484   13.2917 H   0  0  0  0  0  0  0  0  0  0  0  0
   -3.5536   -1.4700   15.1362 H   0  0  0  0  0  0  0  0  0  0  0  0
   -1.3439    1.0408   13.6448 H   0  0  0  0  0  0  0  0  0  0  0  0
   -1.5598    0.4584   11.8827 H   0  0  0  0  0  0  0  0  0  0  0  0
   -4.5274    0.4491   13.9762 H   0  0  0  0  0  0  0  0  0  0  0  0
   -2.0779    2.7998   11.3300 H   0  0  0  0  0  0  0  0  0  0  0  0
   -6.4091    2.0676   13.6594 H   0  0  0  0  0  0  0  0  0  0  0  0
   -3.9488    4.4005   11.0031 H   0  0  0  0  0  0  0  0  0  0  0  0
   -7.1754    4.0921   12.5508 H   0  0  0  0  0  0  0  0  0  0  0  0
    0.2693   -8.4269    5.5361 H   0  0  0  0  0  0  0  0  0  0  0  0
    0.6680   -6.9646    7.9717 H   0  0  0  0  0  0  0  0  0  0  0  0
    0.5931   -8.7907    7.7646 H   0  0  0  0  0  0  0  0  0  0  0  0
   -2.1685  -11.5364    6.8482 H   0  0  0  0  0  0  0  0  0  0  0  0
   -2.6883  -12.2271    5.4053 H   0  0  0  0  0  0  0  0  0  0  0  0
   -2.7640   -9.6613    4.8400 H   0  0  0  0  0  0  0  0  0  0  0  0
   -4.9278  -11.4903    6.0317 H   0  0  0  0  0  0  0  0  0  0  0  0
   -5.2316   -9.9001    5.1241 H   0  0  0  0  0  0  0  0  0  0  0  0
   -3.8960  -12.2687    3.8197 H   0  0  0  0  0  0  0  0  0  0  0  0
   -6.4004  -12.4754    4.8566 H   0  0  0  0  0  0  0  0  0  0  0  0
   -6.7760  -11.6565    3.3025 H   0  0  0  0  0  0  0  0  0  0  0  0
   -5.9018  -13.2257    3.3025 H   0  0  0  0  0  0  0  0  0  0  0  0
   -4.4495   -9.5223    3.1675 H   0  0  0  0  0  0  0  0  0  0  0  0
   -3.7087  -10.7972    2.1415 H   0  0  0  0  0  0  0  0  0  0  0  0
   -5.4901  -10.5669    2.1415 H   0  0  0  0  0  0  0  0  0  0  0  0
   -2.5624  -10.6810    8.1088 H   0  0  0  0  0  0  0  0  0  0  0  0
   -4.1814   -8.4952    9.1515 H   0  0  0  0  0  0  0  0  0  0  0  0
   -3.6172  -10.6504   10.3784 H   0  0  0  0  0  0  0  0  0  0  0  0
   -1.9406   -9.9657   10.5952 H   0  0  0  0  0  0  0  0  0  0  0  0
   -1.5130   -8.1235   12.0836 H   0  0  0  0  0  0  0  0  0  0  0  0
   -5.4784   -9.7264   11.6029 H   0  0  0  0  0  0  0  0  0  0  0  0
   -2.2697   -6.8122   14.0514 H   0  0  0  0  0  0  0  0  0  0  0  0
   -6.2526   -8.4154   13.5751 H   0  0  0  0  0  0  0  0  0  0  0  0
   -4.6468   -6.9534   14.8095 H   0  0  0  0  0  0  0  0  0  0  0  0
    9.8868    0.1833    7.3617 H   0  0  0  0  0  0  0  0  0  0  0  0
    8.5226   -2.4034    7.1680 H   0  0  0  0  0  0  0  0  0  0  0  0
    8.6032   -1.6085    9.3616 H   0  0  0  0  0  0  0  0  0  0  0  0
    8.2664    0.0867    8.8720 H   0  0  0  0  0  0  0  0  0  0  0  0
    6.9430   -1.1280    8.8720 H   0  0  0  0  0  0  0  0  0  0  0  0
    6.0617   -5.8187    4.0350 H   0  0  0  0  0  0  0  0  0  0  0  0
    8.9926   -5.2601    4.3421 H   0  0  0  0  0  0  0  0  0  0  0  0
    7.5635   -6.9331    2.2139 H   0  0  0  0  0  0  0  0  0  0  0  0
   10.5388   -6.7021    2.8889 H   0  0  0  0  0  0  0  0  0  0  0  0
    9.7932   -7.6232    1.5389 H   0  0  0  0  0  0  0  0  0  0  0  0
    9.7389   -5.8277    1.5389 H   0  0  0  0  0  0  0  0  0  0  0  0
    8.3909   -7.4922    4.9540 H   0  0  0  0  0  0  0  0  0  0  0  0
    7.5046   -8.5326    3.7884 H   0  0  0  0  0  0  0  0  0  0  0  0
    9.3007   -8.5121    3.7884 H   0  0  0  0  0  0  0  0  0  0  0  0
    3.3795    4.4583   11.0166 H   0  0  0  0  0  0  0  0  0  0  0  0
    4.8243    3.7707    8.5711 H   0  0  0  0  0  0  0  0  0  0  0  0
    5.6975    5.4832   10.9713 H   0  0  0  0  0  0  0  0  0  0  0  0
    6.4400    5.4588    9.2970 H   0  0  0  0  0  0  0  0  0  0  0  0
    4.9946    6.1713    7.3385 H   0  0  0  0  0  0  0  0  0  0  0  0
    4.0064    7.0065   11.4457 H   0  0  0  0  0  0  0  0  0  0  0  0
    3.4853    8.0188    6.5920 H   0  0  0  0  0  0  0  0  0  0  0  0
    2.4972    8.8532   10.7223 H   0  0  0  0  0  0  0  0  0  0  0  0
    2.2339    9.3692    8.2877 H   0  0  0  0  0  0  0  0  0  0  0  0
    6.2241   -5.3654    0.1301 H   0  0  0  0  0  0  0  0  0  0  0  0
    5.5732   -7.1775   -2.1858 H   0  0  0  0  0  0  0  0  0  0  0  0
    6.8034   -7.4508    0.5202 H   0  0  0  0  0  0  0  0  0  0  0  0
    5.7232   -8.8304   -0.1882 H   0  0  0  0  0  0  0  0  0  0  0  0
    7.2477   -9.5219   -1.6107 H   0  0  0  0  0  0  0  0  0  0  0  0
    8.8135   -6.9486   -1.5088 H   0  0  0  0  0  0  0  0  0  0  0  0
    8.9469   -8.3108   -2.6721 H   0  0  0  0  0  0  0  0  0  0  0  0
    7.4830   -7.2700   -2.6721 H   0  0  0  0  0  0  0  0  0  0  0  0
    8.1816   -8.9273    1.0223 H   0  0  0  0  0  0  0  0  0  0  0  0
    8.7692  -10.2050   -0.0954 H   0  0  0  0  0  0  0  0  0  0  0  0
    9.5456   -8.5851   -0.0954 H   0  0  0  0  0  0  0  0  0  0  0  0
   12.9023   -1.5817    4.9793 H   0  0  0  0  0  0  0  0  0  0  0  0
   11.6487   -1.5521    3.8582 H   0  0  0  0  0  0  0  0  0  0  0  0
   12.0511    0.0014    6.2753 H   0  0  0  0  0  0  0  0  0  0  0  0
   10.5551    1.7664    5.5307 H   0  0  0  0  0  0  0  0  0  0  0  0
    9.1806    0.6730    4.0960 H   0  0  0  0  0  0  0  0  0  0  0  0
   12.8437    2.2545    4.9850 H   0  0  0  0  0  0  0  0  0  0  0  0
   12.8019    1.1789    3.5469 H   0  0  0  0  0  0  0  0  0  0  0  0
   11.8706    2.7149    3.5469 H   0  0  0  0  0  0  0  0  0  0  0  0
    1.9040   -9.3674    0.4535 H   0  0  0  0  0  0  0  0  0  0  0  0
    1.2182  -10.6537    3.0827 H   0  0  0  0  0  0  0  0  0  0  0  0
    4.0018   -9.8399    2.1153 H   0  0  0  0  0  0  0  0  0  0  0  0
    3.5025  -10.9729    3.4968 H   0  0  0  0  0  0  0  0  0  0  0  0
    3.0912  -11.6660    0.5852 H   0  0  0  0  0  0  0  0  0  0  0  0
    5.4529  -12.2130    2.4512 H   0  0  0  0  0  0  0  0  0  0  0  0
    5.1563  -13.0716    0.9015 H   0  0  0  0  0  0  0  0  0  0  0  0
    5.4821  -11.3051    0.9015 H   0  0  0  0  0  0  0  0  0  0  0  0
    2.8128  -13.0105    3.2656 H   0  0  0  0  0  0  0  0  0  0  0  0
    1.7360  -13.0538    1.8284 H   0  0  0  0  0  0  0  0  0  0  0  0
    3.2718  -13.9854    1.8284 H   0  0  0  0  0  0  0  0  0  0  0  0
    9.5954   -0.7205   -0.0533 H   0  0  0  0  0  0  0  0  0  0  0  0
   12.4034   -0.7673    0.8372 H   0  0  0  0  0  0  0  0  0  0  0  0
   12.7636    1.1531   -0.5977 H   0  0  0  0  0  0  0  0  0  0  0  0
   12.5962   -2.7443   -0.4425 H   0  0  0  0  0  0  0  0  0  0  0  0
   11.3803   -2.1999   -1.6474 H   0  0  0  0  0  0  0  0  0  0  0  0
   13.0277   -1.4839   -1.6474 H   0  0  0  0  0  0  0  0  0  0  0  0
    5.0216   -0.5895   10.7563 H   0  0  0  0  0  0  0  0  0  0  0  0
    3.9748   -1.4539   13.3726 H   0  0  0  0  0  0  0  0  0  0  0  0
    4.9308   -3.7820   13.3633 H   0  0  0  0  0  0  0  0  0  0  0  0
    3.5481   -2.4240   10.5102 H   0  0  0  0  0  0  0  0  0  0  0  0
    2.6891   -3.0559   12.0242 H   0  0  0  0  0  0  0  0  0  0  0  0
    2.4822   -0.2030   11.0453 H   0  0  0  0  0  0  0  0  0  0  0  0
    0.1519   -2.0259   10.7873 H   0  0  0  0  0  0  0  0  0  0  0  0
    0.7620   -0.7571    9.6717 H   0  0  0  0  0  0  0  0  0  0  0  0
    1.5121   -2.3892    9.6717 H   0  0  0  0  0  0  0  0  0  0  0  0
    2.0244   -1.1556   13.5065 H   0  0  0  0  0  0  0  0  0  0  0  0
    0.9550    0.0716   12.7469 H   0  0  0  0  0  0  0  0  0  0  0  0
    0.4766   -1.6598   12.7469 H   0  0  0  0  0  0  0  0  0  0  0  0
    2.3390   -6.9154   -4.2771 H   0  0  0  0  0  0  0  0  0  0  0  0
    0.9076   -8.6300   -6.1607 H   0  0  0  0  0  0  0  0  0  0  0  0
    2.4582  -10.1380   -3.8863 H   0  0  0  0  0  0  0  0  0  0  0  0
    3.2676   -9.4282   -6.7938 H   0  0  0  0  0  0  0  0  0  0  0  0
    2.8264   -7.6699   -7.0482 H   0  0  0  0  0  0  0  0  0  0  0  0
    5.9988   -7.1553   -5.6747 H   0  0  0  0  0  0  0  0  0  0  0  0
    1.7870  -10.3219   -1.1424 H   0  0  0  0  0  0  0  0  0  0  0  0
    0.8077  -11.1665   -2.2179 H   0  0  0  0  0  0  0  0  0  0  0  0
   -0.7320   -9.3717   -0.7244 H   0  0  0  0  0  0  0  0  0  0  0  0
   -0.8204  -11.2040   -0.8816 H   0  0  0  0  0  0  0  0  0  0  0  0
    2.9674   -8.7482    5.9892 H   0  0  0  0  0  0  0  0  0  0  0  0
    4.8804   -9.0569    8.1791 H   0  0  0  0  0  0  0  0  0  0  0  0
    5.1304   -9.3688    5.1371 H   0  0  0  0  0  0  0  0  0  0  0  0
    6.4349   -9.7796    6.3537 H   0  0  0  0  0  0  0  0  0  0  0  0
    3.4872  -10.5706    7.9667 H   0  0  0  0  0  0  0  0  0  0  0  0
    5.9681  -11.9511    4.7247 H   0  0  0  0  0  0  0  0  0  0  0  0
    2.5688  -12.8702    8.2476 H   0  0  0  0  0  0  0  0  0  0  0  0
    5.0539  -14.2525    4.9994 H   0  0  0  0  0  0  0  0  0  0  0  0
    3.3549  -14.7141    6.7618 H   0  0  0  0  0  0  0  0  0  0  0  0
    4.6890    2.2384   11.5631 H   0  0  0  0  0  0  0  0  0  0  0  0
    7.1251    0.7176   10.8878 H   0  0  0  0  0  0  0  0  0  0  0  0
    7.2434    1.7038   12.4059 H   0  0  0  0  0  0  0  0  0  0  0  0
  2  1  1  0
  3  2  1  0
  4  3  2  0
  5  2  1  0
  7  6  1  0
  8  7  1  0
  9  8  2  0
 10  8  1  0
 11 10  1  0
 12 11  1  0
 13 12  2  0
 14 11  1  0
 15 12  1  0
 16 15  1  0
 17 16  1  0
 18 17  2  0
 19 16  1  0
 20 19  1  0
 21 19  1  0
 23 22  1  0
 24 23  1  0
 25 24  2  0
 26 23  1  0
 27 24  1  0
 28 27  1  0
 29 28  1  0
 30 29  2  0
 31 28  1  0
 32 31  1  0
 33 32  2  0
 34 32  1  0
 36 35  1  0
 37 36  1  0
 38 37  2  0
 39 36  1  0
 40 39  1  0
 41 40  2  0
 42 40  1  0
 43 41  1  0
 44 42  2  0
 45 44  1  0
 45 43  2  0
 46 45  1  0
 47 37  1  0
 48 47  1  0
 49 48  1  0
 50 49  2  0
 51 48  1  0
 52 51  1  0
 53 52  1  0
 53 47  1  0
 54 49  1  0
 55 54  1  0
 56 55  1  0
 57 56  2  0
 58 56  1  0
 59 58  1  0
 60 59  1  0
 61 60  2  0
 62 59  1  0
 63 62  1  0
 64 63  2  0
 65 63  1  0
 66 64  1  0
 67 65  2  0
 68 67  1  0
 68 66  2  0
 70 69  1  0
 71 70  1  0
 72 71  2  0
 73 70  1  0
 74 73  1  0
 75 74  2  0
 76 74  1  0
 78 77  1  0
 79 78  1  0
 80 79  2  0
 81 78  1  0
 82 81  1  0
 83 82  1  0
 84 82  1  0
 85 79  1  0
 86 85  1  0
 87 86  1  0
 88 87  2  0
 89 86  1  0
 90 89  1  0
 91 89  1  0
 92 87  1  0
 93 92  1  0
 94 93  1  0
 95 94  2  0
 96 93  1  0
 97 96  1  0
 98 96  1  0
100 99  1  0
101100  1  0
102101  2  0
103100  1  0
104103  1  0
105104  1  0
105 99  1  0
106101  1  0
107106  1  0
108107  1  0
109108  2  0
110107  1  0
111110  1  0
112108  1  0
113112  1  0
114113  1  0
115114  2  0
116113  1  0
117116  1  0
118117  2  0
119117  1  0
121120  1  0
122121  1  0
123122  2  0
124121  1  0
125124  1  0
126122  1  0
127126  1  0
128127  1  0
129128  2  0
130127  1  0
131130  1  0
132131  2  0
133131  1  0
134128  1  0
135134  1  0
136135  1  0
137136  2  0
138135  1  0
139138  1  0
140139  1  0
141140  2  0
142140  1  0
143136  1  0
144143  1  0
145144  1  0
146145  2  0
147144  1  0
148147  1  0
149147  1  0
150148  1  0
151145  1  0
152151  1  0
153152  1  0
154153  2  0
155152  1  0
156155  1  0
157156  2  0
158156  1  0
159157  1  0
160158  2  0
161160  1  0
161159  2  0
162161  1  0
164163  1  0
165164  1  0
166165  2  0
167164  1  0
168167  1  0
169167  1  0
170165  1  0
171170  1  0
172171  1  0
173172  2  0
174171  1  0
175174  1  0
176175  2  0
177175  1  0
178176  1  0
179177  2  0
180179  1  0
180178  2  0
181180  1  0
182172  1  0
183182  1  0
184183  1  0
185184  2  0
186183  1  0
187186  1  0
189188  1  0
190189  1  0
191190  2  0
192189  1  0
193192  1  0
194190  1  0
195194  1  0
196195  1  0
197196  2  0
198195  1  0
199198  1  0
200199  1  0
201200  1  0
202201  1  0
204203  1  0
205204  1  0
205 35  1  0
206205  2  0
207204  1  0
208207  1  0
209208  2  0
210208  1  0
211209  1  0
212210  2  0
213212  1  0
213211  2  0
214213  1  0
215114  1  0
216215  1  0
217216  1  0
218217  2  0
219216  1  0
220219  1  0
221220  1  0
221215  1  0
222 94  1  0
223222  1  0
224223  1  0
224 99  1  0
225224  2  0
226223  1  0
227226  1  0
228227  2  0
229227  1  0
231230  1  0
232231  1  0
233232  2  0
234231  1  0
235234  1  0
236235  2  0
237235  1  0
238236  1  0
239237  2  0
240238  2  0
240239  1  0
241  3  1  0
242241  1  0
243242  1  0
244243  2  0
245242  1  0
246245  1  0
247246  1  0
248247  2  0
249247  1  0
251250  1  0
252251  1  0
252230  1  0
253252  2  0
254251  1  0
255254  1  0
256255  1  0
257255  1  0
259258  1  0
260259  1  0
261260  2  0
262259  1  0
263262  1  0
264263  1  0
265264  1  0
266265  1  0
267266  1  0
268266  2  3
270269  1  0
271270  1  0
272271  2  0
273270  1  0
274273  1  0
275274  1  0
275269  1  0
277276  1  0
278277  1  0
279278  2  0
280277  1  0
281280  1  0
282281  1  0
283282  2  0
284282  1  0
285 17  1  0
286285  1  0
287286  1  0
287 22  1  0
288287  2  0
289286  1  0
290289  1  0
292291  1  0
293292  1  0
294293  2  0
295292  1  0
296295  1  0
297296  1  0
298297  1  0
299298  1  0
300299  1  0
301299  2  3
303302  1  0
304303  1  0
305304  2  0
307306  1  0
308307  1  0
308  1  1  0
309308  2  0
310307  1  0
311310  1  0
312311  1  0
313311  1  0
315314  1  0
316315  1  0
316306  1  0
317316  2  0
319318  1  0
320319  1  0
321320  2  0
322319  1  0
323322  1  0
325324  1  0
326325  1  0
327326  2  0
328325  1  0
329328  1  0
331330  1  0
332331  1  0
333332  2  0
334331  1  0
335334  1  0
337336  1  0
338337  1  0
339338  2  0
340337  1  0
341340  1  0
342341  2  0
343341  1  0
344342  1  0
345344  1  0
345343  2  0
346343  1  0
347345  1  0
348346  2  0
349348  1  0
349347  2  0
351350  1  0
352351  1  0
353352  2  0
354351  1  0
355354  1  0
356278  1  0
357356  1  0
358357  1  0
359358  2  0
360357  1  0
361360  1  0
362361  2  0
363361  1  0
364358  1  0
365364  1  0
366365  1  0
367366  2  0
368365  1  0
369368  1  0
370369  2  0
371369  1  0
372370  1  0
373371  2  0
374373  1  0
374372  2  0
375374  1  0
376271  1  0
377376  1  0
378377  1  0
379378  2  0
381380  1  0
382381  1  0
383382  2  0
384381  1  0
385384  1  0
386385  1  0
387385  1  0
388382  1  0
389388  1  0
390389  1  0
390276  1  0
391390  2  0
392389  1  0
393392  1  0
394393  2  0
395393  1  0
396394  1  0
397395  2  0
398397  1  0
398396  2  0
400399  1  0
401  6  1  0
401400  1  0
402401  2  0
403400  1  0
404293  1  0
405404  1  0
406405  1  0
406302  1  0
407406  2  0
408405  1  0
409408  1  0
410408  1  0
411352  1  0
412411  1  0
413412  1  0
414413  2  0
415412  1  0
416415  1  0
417416  2  0
418416  1  0
419417  1  0
420418  2  0
421420  1  0
421419  2  0
422184  1  0
423422  1  0
424188  1  0
424423  1  0
425424  2  0
426423  1  0
427426  1  0
428427  1  0
429427  1  0
431430  1  0
432399  1  0
432431  1  0
433432  2  0
434431  1  0
435434  1  0
436434  1  0
438437  1  0
439438  1  0
439269  1  0
440439  2  0
441438  1  0
442441  1  0
443442  1  0
444442  1  0
445304  1  0
446445  1  0
447446  1  0
448447  2  0
449446  1  0
451450  1  0
452451  1  0
453452  2  0
454451  1  0
455454  1  0
456455  1  0
457455  1  0
458196  1  0
459458  1  0
460459  1  0
461460  2  0
462459  1  0
463462  1  0
464463  2  0
465463  1  0
467466  1  0
468467  1  0
468437  1  0
469468  2  0
470378  1  0
471470  1  0
472471  1  0
472291  1  0
473472  2  0
474471  1  0
475474  1  0
476475  2  0
477475  1  0
478476  1  0
479477  2  0
480479  1  0
480478  2  0
481413  1  0
482481  1  0
483482  1  0
483450  1  0
484483  2  0
  1485  1  0
  2486  1  6
  5487  1  0
  5488  1  0
  5489  1  0
  6490  1  0
  7491  1  0
  7492  1  0
 10493  1  0
 11494  1  6
 14495  1  0
 14496  1  0
 14497  1  0
 15498  1  0
 16499  1  6
 19500  1  1
 20501  1  0
 21502  1  0
 21503  1  0
 21504  1  0
 22505  1  0
 23506  1  1
 26507  1  0
 26508  1  0
 26509  1  0
 27510  1  0
 28511  1  6
 29512  1  0
 31513  1  0
 31514  1  0
 34515  1  0
 34516  1  0
 35517  1  0
 36518  1  6
 39519  1  0
 39520  1  0
 41521  1  0
 42522  1  0
 43523  1  0
 44524  1  0
 46525  1  0
 48526  1  6
 51527  1  0
 51528  1  0
 52529  1  0
 52530  1  0
 53531  1  0
 53532  1  0
 54533  1  0
 55534  1  0
 55535  1  0
 58536  1  0
 59537  1  1
 60538  1  0
 62539  1  0
 62540  1  0
 64541  1  0
 65542  1  0
 66543  1  0
 67544  1  0
 68545  1  0
 69546  1  0
 69547  1  0
 70548  1  1
 71549  1  0
 73550  1  0
 73551  1  0
 76552  1  0
 77553  1  0
 77554  1  0
 78555  1  1
 81556  1  0
 81557  1  0
 82558  1  0
 83559  1  0
 83560  1  0
 83561  1  0
 84562  1  0
 84563  1  0
 84564  1  0
 85565  1  0
 86566  1  6
 89567  1  0
 90568  1  0
 90569  1  0
 90570  1  0
 91571  1  0
 91572  1  0
 91573  1  0
 92574  1  0
 93575  1  1
 96576  1  6
 97577  1  0
 98578  1  0
 98579  1  0
 98580  1  0
100581  1  6
103582  1  0
103583  1  0
104584  1  0
104585  1  0
105586  1  0
105587  1  0
106588  1  0
107589  1  1
110590  1  0
110591  1  0
111592  1  0
112593  1  0
113594  1  6
116595  1  0
116596  1  0
119597  1  0
119598  1  0
120599  1  0
120600  1  0
121601  1  6
124602  1  0
124603  1  0
125604  1  0
126605  1  0
127606  1  1
130607  1  0
130608  1  0
133609  1  0
134610  1  0
135611  1  6
138612  1  0
138613  1  0
139614  1  0
139615  1  0
142616  1  0
143617  1  0
144618  1  1
147619  1  1
148620  1  0
148621  1  0
149622  1  0
149623  1  0
149624  1  0
150625  1  0
150626  1  0
150627  1  0
151628  1  0
152629  1  1
153630  1  0
155631  1  0
155632  1  0
157633  1  0
158634  1  0
159635  1  0
160636  1  0
162637  1  0
163638  1  0
163639  1  0
164640  1  1
167641  1  0
168642  1  0
168643  1  0
168644  1  0
169645  1  0
169646  1  0
169647  1  0
170648  1  0
171649  1  6
174650  1  0
174651  1  0
176652  1  0
177653  1  0
178654  1  0
179655  1  0
181656  1  0
182657  1  0
183658  1  1
186659  1  0
186660  1  0
187661  1  0
188662  1  0
189663  1  1
192664  1  0
192665  1  0
193666  1  0
194667  1  0
195668  1  1
198669  1  0
198670  1  0
199671  1  0
199672  1  0
200673  1  0
200674  1  0
201675  1  0
201676  1  0
202677  1  0
202678  1  0
203679  1  0
203680  1  0
204681  1  6
207682  1  0
207683  1  0
209684  1  0
210685  1  0
211686  1  0
212687  1  0
214688  1  0
216689  1  1
217690  1  0
219691  1  0
219692  1  0
220693  1  0
220694  1  0
221695  1  0
221696  1  0
222697  1  0
223698  1  6
226699  1  0
226700  1  0
229701  1  0
229702  1  0
230703  1  0
231704  1  1
232705  1  0
234706  1  0
234707  1  0
236708  1  0
237709  1  0
238710  1  0
239711  1  0
240712  1  0
241713  1  0
242714  1  1
243715  1  0
245716  1  0
245717  1  0
246718  1  0
246719  1  0
249720  1  0
250721  1  0
250722  1  0
251723  1  6
254724  1  0
254725  1  0
255726  1  0
256727  1  0
256728  1  0
256729  1  0
257730  1  0
257731  1  0
257732  1  0
258733  1  0
258734  1  0
259735  1  6
260736  1  0
262737  1  0
262738  1  0
263739  1  0
263740  1  0
264741  1  0
264742  1  0
265743  1  0
267744  1  0
267745  1  0
268746  1  0
270747  1  6
273748  1  0
273749  1  0
274750  1  0
274751  1  0
275752  1  0
275753  1  0
276754  1  0
277755  1  1
280756  1  0
280757  1  0
281758  1  0
281759  1  0
284760  1  0
284761  1  0
285762  1  0
286763  1  1
289764  1  0
289765  1  0
290766  1  0
291767  1  0
292768  1  6
295769  1  0
295770  1  0
296771  1  0
296772  1  0
297773  1  0
297774  1  0
298775  1  0
300776  1  0
300777  1  0
301778  1  0
302779  1  0
303780  1  0
303781  1  0
306782  1  0
307783  1  1
310784  1  0
310785  1  0
311786  1  0
312787  1  0
312788  1  0
312789  1  0
313790  1  0
313791  1  0
313792  1  0
314793  1  0
314794  1  0
315795  1  0
315796  1  0
318797  1  0
318798  1  0
319799  1  6
320800  1  0
322801  1  0
322802  1  0
323803  1  0
324804  1  0
324805  1  0
325806  1  1
326807  1  0
328808  1  0
328809  1  0
329810  1  0
330811  1  0
330812  1  0
331813  1  1
332814  1  0
334815  1  0
334816  1  0
335817  1  0
336818  1  0
336819  1  0
337820  1  6
338821  1  0
340822  1  0
340823  1  0
342824  1  0
344825  1  0
346826  1  0
347827  1  0
348828  1  0
349829  1  0
350830  1  0
350831  1  0
351832  1  1
354833  1  0
354834  1  0
355835  1  0
356836  1  0
357837  1  6
360838  1  0
360839  1  0
363840  1  0
364841  1  0
365842  1  1
366843  1  0
368844  1  0
368845  1  0
370846  1  0
371847  1  0
372848  1  0
373849  1  0
375850  1  0
376851  1  0
377852  1  0
377853  1  0
380854  1  0
380855  1  0
381856  1  6
384857  1  0
384858  1  0
385859  1  0
386860  1  0
386861  1  0
386862  1  0
387863  1  0
387864  1  0
387865  1  0
388866  1  0
389867  1  6
392868  1  0
392869  1  0
394870  1  0
395871  1  0
396872  1  0
397873  1  0
398874  1  0
399875  1  0
400876  1  1
403877  1  0
403878  1  0
403879  1  0
404880  1  0
405881  1  1
408882  1  0
409883  1  0
409884  1  0
409885  1  0
410886  1  0
410887  1  0
410888  1  0
411889  1  0
412890  1  6
415891  1  0
415892  1  0
417893  1  0
418894  1  0
419895  1  0
420896  1  0
421897  1  0
422898  1  0
423899  1  6
426900  1  0
426901  1  0
427902  1  0
428903  1  0
428904  1  0
428905  1  0
429906  1  0
429907  1  0
429908  1  0
430909  1  0
430910  1  0
431911  1  1
434912  1  1
435913  1  0
436914  1  0
436915  1  0
436916  1  0
437917  1  0
438918  1  1
441919  1  0
441920  1  0
442921  1  0
443922  1  0
443923  1  0
443924  1  0
444925  1  0
444926  1  0
444927  1  0
445928  1  0
446929  1  1
447930  1  0
449931  1  0
449932  1  0
449933  1  0
450934  1  0
451935  1  1
452936  1  0
454937  1  0
454938  1  0
455939  1  0
456940  1  0
456941  1  0
456942  1  0
457943  1  0
457944  1  0
457945  1  0
458946  1  0
459947  1  6
460948  1  0
462949  1  0
462950  1  0
465951  1  0
466952  1  0
466953  1  0
467954  1  0
467955  1  0
470956  1  0
471957  1  1
474958  1  0
474959  1  0
476960  1  0
477961  1  0
478962  1  0
479963  1  0
480964  1  0
481965  1  0
482966  1  0
482967  1  0
M  END
$$$$
