
  -OEChem-04102411192D

 19 20  0     0  0  0  0  0  0999 V2000
    0.1583    0.2083    0.0000 C   0  0  0  0  0  0  0  0  0  0  0  0
   -0.3417   -0.6583    0.0000 N   0  0  0  0  0  0  0  0  0  0  0  0
   -0.3417    1.0750    0.0000 C   0  0  3  0  0  0  0  0  0  0  0  0
    1.1583    0.2083    0.0000 O   0  0  0  0  0  0  0  0  0  0  0  0
    0.1583    1.9417    0.0000 C   0  0  0  0  0  0  0  0  0  0  0  0
    0.1583   -1.5208    0.0000 C   0  0  3  0  0  0  0  0  0  0  0  0
   -1.3417    1.0750    0.0000 C   0  0  0  0  0  0  0  0  0  0  0  0
   -0.3417    2.8083    0.0000 C   0  0  0  0  0  0  0  0  0  0  0  0
    1.1583    1.9417    0.0000 C   0  0  0  0  0  0  0  0  0  0  0  0
    1.1583   -1.4458    0.0000 C   0  0  0  0  0  0  0  0  0  0  0  0
   -0.4042   -2.3500    0.0000 C   0  0  0  0  0  0  0  0  0  0  0  0
   -1.8417    0.2083    0.0000 C   0  0  0  0  0  0  0  0  0  0  0  0
    0.1583    3.6750    0.0000 C   0  0  0  0  0  0  0  0  0  0  0  0
    1.6583    2.8083    0.0000 C   0  0  0  0  0  0  0  0  0  0  0  0
   -0.1083   -3.3042    0.0000 C   0  0  0  0  0  0  0  0  0  0  0  0
    1.8375   -2.1792    0.0000 C   0  0  0  0  0  0  0  0  0  0  0  0
    0.8208   -3.6708    0.0000 C   0  0  0  0  0  0  0  0  0  0  0  0
    1.1583    3.6750    0.0000 C   0  0  0  0  0  0  0  0  0  0  0  0
    1.6875   -3.1708    0.0000 C   0  0  0  0  0  0  0  0  0  0  0  0
  1  2  1  0  0  0  0
  1  3  1  0  0  0  0
  1  4  2  0  0  0  0
  3  5  1  0  0  0  0
  2  6  1  0  0  0  0
  3  7  1  0  0  0  0
  5  8  1  0  0  0  0
  5  9  2  0  0  0  0
  6 10  1  0  0  0  0
  6 11  1  0  0  0  0
  7 12  1  0  0  0  0
  8 13  2  0  0  0  0
  9 14  1  0  0  0  0
 11 15  1  0  0  0  0
 10 16  1  0  0  0  0
 15 17  1  0  0  0  0
 14 18  2  0  0  0  0
 16 19  1  0  0  0  0
 13 18  1  0  0  0  0
 17 19  1  0  0  0  0
M  END
> <MOLFORMULA>
C17 H25 N O

> <MOLWEIGHT>
2.593905000000000e+002

> <IDNUMBER>
AN-153/I161311

> <PRICE>
EUR 130/10 mg

$$$$

  -OEChem-04102411192D

 14 14  0     0  0  0  0  0  0999 V2000
   -0.0917   -0.6375    0.0000 C   0  0  0  0  0  0  0  0  0  0  0  0
   -0.5917    0.2292    0.0000 N   0  0  0  0  0  0  0  0  0  0  0  0
    0.9083   -0.6375    0.0000 O   0  0  0  0  0  0  0  0  0  0  0  0
   -0.5917   -1.5042    0.0000 C   0  0  3  0  0  0  0  0  0  0  0  0
   -0.0917    1.0917    0.0000 C   0  0  3  0  0  0  0  0  0  0  0  0
   -0.0917   -2.3708    0.0000 C   0  0  0  0  0  0  0  0  0  0  0  0
   -1.5917   -1.5042    0.0000 C   0  0  0  0  0  0  0  0  0  0  0  0
   -0.6542    1.9208    0.0000 C   0  0  0  0  0  0  0  0  0  0  0  0
    0.9042    1.0167    0.0000 C   0  0  0  0  0  0  0  0  0  0  0  0
   -0.5917   -3.2375    0.0000 C   0  0  0  0  0  0  0  0  0  0  0  0
    1.5875    1.7500    0.0000 C   0  0  0  0  0  0  0  0  0  0  0  0
   -0.3583    2.8750    0.0000 C   0  0  0  0  0  0  0  0  0  0  0  0
    1.4375    2.7417    0.0000 C   0  0  0  0  0  0  0  0  0  0  0  0
    0.5708    3.2417    0.0000 C   0  0  0  0  0  0  0  0  0  0  0  0
  1  2  1  0  0  0  0
  1  3  2  0  0  0  0
  1  4  1  0  0  0  0
  2  5  1  0  0  0  0
  4  6  1  0  0  0  0
  4  7  1  0  0  0  0
  5  8  1  0  0  0  0
  5  9  1  0  0  0  0
  6 10  1  0  0  0  0
  9 11  1  0  0  0  0
  8 12  1  0  0  0  0
 11 13  1  0  0  0  0
 12 14  1  0  0  0  0
 13 14  1  0  0  0  0
M  END
> <MOLFORMULA>
C12 H23 N O

> <MOLWEIGHT>
1.973197000000000e+002

> <IDNUMBER>
AN-153/I161313

> <PRICE>
EUR 130/10 mg

$$$$

  -OEChem-04102411192D

 14 14  0     0  0  0  0  0  0999 V2000
   -0.5583   -0.6375    0.0000 C   0  0  0  0  0  0  0  0  0  0  0  0
   -1.0583    0.2292    0.0000 N   0  0  0  0  0  0  0  0  0  0  0  0
    0.4417   -0.6375    0.0000 O   0  0  0  0  0  0  0  0  0  0  0  0
   -1.0583   -1.5042    0.0000 C   0  0  0  0  0  0  0  0  0  0  0  0
   -0.5583    1.0917    0.0000 C   0  0  3  0  0  0  0  0  0  0  0  0
   -0.5583   -2.3708    0.0000 C   0  0  3  0  0  0  0  0  0  0  0  0
   -1.1208    1.9208    0.0000 C   0  0  0  0  0  0  0  0  0  0  0  0
    0.4375    1.0208    0.0000 C   0  0  0  0  0  0  0  0  0  0  0  0
   -1.0583   -3.2375    0.0000 C   0  0  0  0  0  0  0  0  0  0  0  0
    0.4417   -2.3708    0.0000 C   0  0  0  0  0  0  0  0  0  0  0  0
   -0.8292    2.8750    0.0000 C   0  0  0  0  0  0  0  0  0  0  0  0
    1.1167    1.7500    0.0000 C   0  0  0  0  0  0  0  0  0  0  0  0
    0.1042    3.2417    0.0000 C   0  0  0  0  0  0  0  0  0  0  0  0
    0.9708    2.7417    0.0000 C   0  0  0  0  0  0  0  0  0  0  0  0
  1  2  1  0  0  0  0
  1  3  2  0  0  0  0
  1  4  1  0  0  0  0
  2  5  1  0  0  0  0
  4  6  1  0  0  0  0
  5  7  1  0  0  0  0
  5  8  1  0  0  0  0
  6  9  1  0  0  0  0
  6 10  1  0  0  0  0
  7 11  1  0  0  0  0
  8 12  1  0  0  0  0
 11 13  1  0  0  0  0
 12 14  1  0  0  0  0
 13 14  1  0  0  0  0
M  END
> <MOLFORMULA>
C12 H23 N O

> <MOLWEIGHT>
1.973197000000000e+002

> <IDNUMBER>
AN-153/I167135

> <PRICE>
EUR 130/10 mg

$$$$

  -OEChem-04102411192D

 15 15  0     0  0  0  0  0  0999 V2000
   -0.0917   -0.2042    0.0000 C   0  0  0  0  0  0  0  0  0  0  0  0
   -0.5917    0.6625    0.0000 N   0  0  0  0  0  0  0  0  0  0  0  0
    0.9083   -0.2042    0.0000 O   0  0  0  0  0  0  0  0  0  0  0  0
   -0.5917   -1.0708    0.0000 C   0  0  3  0  0  0  0  0  0  0  0  0
   -0.0917    1.5250    0.0000 C   0  0  3  0  0  0  0  0  0  0  0  0
   -0.0917   -1.9375    0.0000 C   0  0  0  0  0  0  0  0  0  0  0  0
   -1.5917   -1.0708    0.0000 C   0  0  0  0  0  0  0  0  0  0  0  0
   -0.6542    2.3542    0.0000 C   0  0  0  0  0  0  0  0  0  0  0  0
    0.9042    1.4500    0.0000 C   0  0  0  0  0  0  0  0  0  0  0  0
   -0.5917   -2.8042    0.0000 C   0  0  0  0  0  0  0  0  0  0  0  0
   -0.0917   -3.6708    0.0000 C   0  0  0  0  0  0  0  0  0  0  0  0
   -0.3583    3.3083    0.0000 C   0  0  0  0  0  0  0  0  0  0  0  0
    1.5875    2.1833    0.0000 C   0  0  0  0  0  0  0  0  0  0  0  0
    1.4375    3.1750    0.0000 C   0  0  0  0  0  0  0  0  0  0  0  0
    0.5708    3.6750    0.0000 C   0  0  0  0  0  0  0  0  0  0  0  0
  1  2  1  0  0  0  0
  1  3  2  0  0  0  0
  1  4  1  0  0  0  0
  2  5  1  0  0  0  0
  4  6  1  0  0  0  0
  4  7  1  0  0  0  0
  5  8  1  0  0  0  0
  5  9  1  0  0  0  0
  6 10  1  0  0  0  0
 10 11  1  0  0  0  0
  8 12  1  0  0  0  0
  9 13  1  0  0  0  0
 13 14  1  0  0  0  0
 12 15  1  0  0  0  0
 14 15  1  0  0  0  0
M  END
> <MOLFORMULA>
C13 H25 N O

> <MOLWEIGHT>
2.113465000000000e+002

> <IDNUMBER>
AN-153/I167137

> <PRICE>
EUR 130/10 mg

$$$$

  -OEChem-04102411192D

 20 21  0     0  0  0  0  0  0999 V2000
   -0.9125   -0.6542    0.0000 C   0  0  0  0  0  0  0  0  0  0  0  0
   -1.9125   -0.6542    0.0000 N   0  0  0  0  0  0  0  0  0  0  0  0
   -0.4125   -1.5208    0.0000 O   0  0  0  0  0  0  0  0  0  0  0  0
   -2.4125   -1.5208    0.0000 C   0  0  3  0  0  0  0  0  0  0  0  0
    2.5875    1.9417    0.0000 C   0  0  0  0  0  0  0  0  0  0  0  0
    2.0875    1.0750    0.0000 O   0  0  0  0  0  0  0  0  0  0  0  0
   -0.4125    0.2083    0.0000 C   0  0  0  0  0  0  0  0  0  0  0  0
    1.0875    1.0750    0.0000 C   0  0  0  0  0  0  0  0  0  0  0  0
    2.0875    2.8083    0.0000 C   0  0  0  0  0  0  0  0  0  0  0  0
    3.5875    1.9417    0.0000 C   0  0  0  0  0  0  0  0  0  0  0  0
   -3.4125   -1.4458    0.0000 C   0  0  0  0  0  0  0  0  0  0  0  0
   -1.8500   -2.3500    0.0000 C   0  0  0  0  0  0  0  0  0  0  0  0
    0.5875    0.2083    0.0000 C   0  0  0  0  0  0  0  0  0  0  0  0
    2.5875    3.6750    0.0000 C   0  0  0  0  0  0  0  0  0  0  0  0
    4.0875    2.8083    0.0000 C   0  0  0  0  0  0  0  0  0  0  0  0
   -4.0917   -2.1792    0.0000 C   0  0  0  0  0  0  0  0  0  0  0  0
   -2.1458   -3.3042    0.0000 C   0  0  0  0  0  0  0  0  0  0  0  0
    3.5875    3.6708    0.0000 C   0  0  0  0  0  0  0  0  0  0  0  0
   -3.9417   -3.1708    0.0000 C   0  0  0  0  0  0  0  0  0  0  0  0
   -3.0750   -3.6708    0.0000 C   0  0  0  0  0  0  0  0  0  0  0  0
  1  2  1  0  0  0  0
  1  3  2  0  0  0  0
  2  4  1  0  0  0  0
  5  6  1  0  0  0  0
  6  8  1  0  0  0  0
  1  7  1  0  0  0  0
  8 13  1  0  0  0  0
  5  9  2  0  0  0  0
  5 10  1  0  0  0  0
  4 11  1  0  0  0  0
  4 12  1  0  0  0  0
  7 13  1  0  0  0  0
  9 14  1  0  0  0  0
 10 15  2  0  0  0  0
 11 16  1  0  0  0  0
 12 17  1  0  0  0  0
 15 18  1  0  0  0  0
 16 19  1  0  0  0  0
 17 20  1  0  0  0  0
 19 20  1  0  0  0  0
 14 18  2  0  0  0  0
M  END
> <MOLFORMULA>
C17 H25 N O2

> <MOLWEIGHT>
2.753895000000000e+002

> <IDNUMBER>
AN-153/I181991

> <PRICE>
EUR 130/10 mg

$$$$

  -OEChem-04102411192D

 22 23  0     0  0  0  0  0  0999 V2000
   -1.3417    2.8083    0.0000 C   0  0  0  0  0  0  0  0  0  0  0  0
   -1.8417    3.6750    0.0000 C   0  0  0  0  0  0  0  0  0  0  0  0
    0.1583   -1.5208    0.0000 C   0  0  0  0  0  0  0  0  0  0  0  0
   -0.3417   -2.3875    0.0000 N   0  0  0  0  0  0  0  0  0  0  0  0
   -0.3417    2.8083    0.0000 C   0  0  0  0  0  0  0  0  0  0  0  0
    1.1583   -1.5208    0.0000 O   0  0  0  0  0  0  0  0  0  0  0  0
    0.1583    3.6750    0.0000 C   0  0  0  0  0  0  0  0  0  0  0  0
   -1.3417    4.5333    0.0000 C   0  0  0  0  0  0  0  0  0  0  0  0
   -1.8417    1.9417    0.0000 Cl  0  0  0  0  0  0  0  0  0  0  0  0
   -0.3417    4.5333    0.0000 C   0  0  0  0  0  0  0  0  0  0  0  0
   -1.8417    5.4000    0.0000 Cl  0  0  0  0  0  0  0  0  0  0  0  0
    0.1583   -3.2542    0.0000 C   0  0  3  0  0  0  0  0  0  0  0  0
    0.1583    1.9417    0.0000 O   0  0  0  0  0  0  0  0  0  0  0  0
   -0.3417   -0.6583    0.0000 C   0  0  0  0  0  0  0  0  0  0  0  0
   -0.3417    1.0750    0.0000 C   0  0  0  0  0  0  0  0  0  0  0  0
   -0.4042   -4.0792    0.0000 C   0  0  0  0  0  0  0  0  0  0  0  0
    1.1583   -3.1792    0.0000 C   0  0  0  0  0  0  0  0  0  0  0  0
    0.1583    0.2083    0.0000 C   0  0  0  0  0  0  0  0  0  0  0  0
    1.8375   -3.9125    0.0000 C   0  0  0  0  0  0  0  0  0  0  0  0
   -0.1083   -5.0375    0.0000 C   0  0  0  0  0  0  0  0  0  0  0  0
    0.8208   -5.4000    0.0000 C   0  0  0  0  0  0  0  0  0  0  0  0
    1.6875   -4.9000    0.0000 C   0  0  0  0  0  0  0  0  0  0  0  0
  1  2  2  0  0  0  0
  3 14  1  0  0  0  0
  3  4  1  0  0  0  0
  1  5  1  0  0  0  0
  3  6  2  0  0  0  0
  5  7  2  0  0  0  0
  2  8  1  0  0  0  0
  1  9  1  0  0  0  0
  7 10  1  0  0  0  0
  8 11  1  0  0  0  0
  4 12  1  0  0  0  0
  5 13  1  0  0  0  0
 14 18  1  0  0  0  0
 13 15  1  0  0  0  0
 12 16  1  0  0  0  0
 12 17  1  0  0  0  0
 15 18  1  0  0  0  0
 17 19  1  0  0  0  0
 16 20  1  0  0  0  0
 20 21  1  0  0  0  0
 19 22  1  0  0  0  0
  8 10  2  0  0  0  0
 21 22  1  0  0  0  0
M  END
> <MOLFORMULA>
C17 H23 Cl2 N O2

> <MOLWEIGHT>
3.442797000000000e+002

> <IDNUMBER>
AN-153/NB13093

> <PRICE>
EUR 130/10 mg

$$$$

  -OEChem-04102411192D

 26 28  0     0  0  0  0  0  0999 V2000
   -2.8542    2.0208    0.0000 N   0  0  3  0  0  0  0  0  0  0  0  0
   -3.4875    1.6500    0.0000 C   0  0  0  0  0  0  0  0  0  0  0  0
   -2.8542    2.7375    0.0000 C   0  0  0  0  0  0  0  0  0  0  0  0
   -4.1083    2.7375    0.0000 C   0  0  0  0  0  0  0  0  0  0  0  0
   -4.1083    2.0208    0.0000 C   0  0  0  0  0  0  0  0  0  0  0  0
   -3.4875    0.9333    0.0000 O   0  0  0  0  0  0  0  0  0  0  0  0
   -2.2458    3.1083    0.0000 O   0  0  0  0  0  0  0  0  0  0  0  0
    0.9458    2.0208    0.0000 C   0  0  0  0  0  0  0  0  0  0  0  0
    1.5833    1.6542    0.0000 N   0  0  0  0  0  0  0  0  0  0  0  0
    0.9417    2.7583    0.0000 O   0  0  0  0  0  0  0  0  0  0  0  0
   -2.2375    1.6500    0.0000 C   0  0  0  0  0  0  0  0  0  0  0  0
   -4.7375    1.6500    0.0000 C   0  0  0  0  0  0  0  0  0  0  0  0
   -4.7375    3.1042    0.0000 C   0  0  0  0  0  0  0  0  0  0  0  0
    1.5792    0.9500    0.0000 C   0  0  3  0  0  0  0  0  0  0  0  0
    0.3083    1.6500    0.0000 C   0  0  0  0  0  0  0  0  0  0  0  0
   -1.6083    2.0167    0.0000 C   0  0  0  0  0  0  0  0  0  0  0  0
    2.2583    0.6000    0.0000 C   0  0  0  0  0  0  0  0  0  0  0  0
    0.8750    0.6250    0.0000 C   0  0  0  0  0  0  0  0  0  0  0  0
   -0.3333    2.0208    0.0000 C   0  0  0  0  0  0  0  0  0  0  0  0
   -0.9708    1.6458    0.0000 C   0  0  0  0  0  0  0  0  0  0  0  0
   -5.3667    2.0208    0.0000 C   0  0  0  0  0  0  0  0  0  0  0  0
   -5.3667    2.7375    0.0000 C   0  0  0  0  0  0  0  0  0  0  0  0
    2.3792   -0.1208    0.0000 C   0  0  0  0  0  0  0  0  0  0  0  0
    0.7375   -0.0917    0.0000 C   0  0  0  0  0  0  0  0  0  0  0  0
    1.9333   -0.5667    0.0000 C   0  0  0  0  0  0  0  0  0  0  0  0
    1.1875   -0.5625    0.0000 C   0  0  0  0  0  0  0  0  0  0  0  0
  1  2  1  0  0  0  0
  1  3  1  0  0  0  0
  3  4  1  0  0  0  0
  2  5  1  0  0  0  0
  2  6  2  0  0  0  0
  3  7  2  0  0  0  0
  8 15  1  0  0  0  0
  8  9  1  0  0  0  0
  8 10  2  0  0  0  0
  1 11  1  0  0  0  0
  5 12  1  0  0  0  0
  4 13  1  0  0  0  0
  9 14  1  0  0  0  0
 15 19  1  0  0  0  0
 11 16  1  0  0  0  0
 14 17  1  0  0  0  0
 14 18  1  0  0  0  0
 19 20  1  0  0  0  0
 16 20  1  0  0  0  0
 12 21  2  0  0  0  0
 13 22  2  0  0  0  0
 17 23  1  0  0  0  0
 18 24  1  0  0  0  0
 23 25  1  0  0  0  0
 24 26  1  0  0  0  0
  4  5  2  0  0  0  0
 21 22  1  0  0  0  0
 25 26  1  0  0  0  0
M  END
> <MOLFORMULA>
C21 H28 N2 O3

> <MOLWEIGHT>
3.564632000000000e+002

> <IDNUMBER>
AT-225/NB93074

> <PRICE>
EUR 140/10 mg

$$$$
