
  -OEChem-04102411502D

 23 23  0     0  0  0  0  0  0999 V2000
    0.8000   -0.5000    0.0000 C   0  0  0  0  0  0  0  0  0  0  0  0
    1.8000   -0.5000    0.0000 N   0  0  0  0  0  0  0  0  0  0  0  0
    0.3000    0.3667    0.0000 O   0  0  0  0  0  0  0  0  0  0  0  0
    2.3000    0.3667    0.0000 C   0  0  3  0  0  0  0  0  0  0  0  0
    0.3000   -1.3667    0.0000 C   0  0  0  0  0  0  0  0  0  0  0  0
    1.5917    1.0708    0.0000 C   0  0  0  0  0  0  0  0  0  0  0  0
    3.2667    0.1042    0.0000 C   0  0  0  0  0  0  0  0  0  0  0  0
   -0.7000   -1.3667    0.0000 C   0  0  0  0  0  0  0  0  0  0  0  0
   -4.2000   -3.9667    0.0000 C   0  0  0  0  0  0  0  0  0  0  0  0
   -3.7000   -3.1000    0.0000 C   0  0  0  0  0  0  0  0  0  0  0  0
   -2.7000   -3.1000    0.0000 C   0  0  0  0  0  0  0  0  0  0  0  0
   -1.2000   -2.2333    0.0000 C   0  0  0  0  0  0  0  0  0  0  0  0
   -2.2000   -2.2333    0.0000 C   0  0  0  0  0  0  0  0  0  0  0  0
   -5.2000   -3.9667    0.0000 C   0  0  0  0  0  0  0  0  0  0  0  0
    4.2292    0.3667    0.0000 C   0  0  0  0  0  0  0  0  0  0  0  0
    1.3333    2.0375    0.0000 C   0  0  0  0  0  0  0  0  0  0  0  0
    3.2667    3.9708    0.0000 C   0  0  0  0  0  0  0  0  0  0  0  0
    4.2292    3.7125    0.0000 C   0  0  0  0  0  0  0  0  0  0  0  0
    4.9375    3.0042    0.0000 C   0  0  0  0  0  0  0  0  0  0  0  0
    1.5917    3.0042    0.0000 C   0  0  0  0  0  0  0  0  0  0  0  0
    2.3000    3.7125    0.0000 C   0  0  0  0  0  0  0  0  0  0  0  0
    5.1958    2.0375    0.0000 C   0  0  0  0  0  0  0  0  0  0  0  0
    4.9375    1.0708    0.0000 C   0  0  0  0  0  0  0  0  0  0  0  0
  1  2  1  0  0  0  0
  1  3  2  0  0  0  0
  2  4  1  0  0  0  0
  1  5  1  0  0  0  0
  4  6  1  0  0  0  0
  4  7  1  0  0  0  0
  5  8  1  0  0  0  0
  9 10  1  0  0  0  0
 10 11  1  0  0  0  0
 11 13  1  0  0  0  0
  8 12  1  0  0  0  0
 12 13  1  0  0  0  0
  9 14  1  0  0  0  0
  7 15  1  0  0  0  0
  6 16  1  0  0  0  0
 17 21  1  0  0  0  0
 18 19  1  0  0  0  0
 19 22  1  0  0  0  0
 16 20  1  0  0  0  0
 20 21  1  0  0  0  0
 22 23  1  0  0  0  0
 15 23  1  0  0  0  0
 17 18  1  0  0  0  0
M  END
> <MOLFORMULA>
C21 H41 N O

> <MOLWEIGHT>
3.235609000000000e+002

> <IDNUMBER>
AN-153/I164016

> <PRICE>
EUR 130/10 mg

> <Similarity score>
0.84

$$$$

  -OEChem-04102411502D

 20 21  0     0  0  0  0  0  0999 V2000
   -2.9958    0.9125    0.0000 C   0  0  0  0  0  0  0  0  0  0  0  0
   -8.4000   -1.7167    0.0000 C   0  0  0  0  0  0  0  0  0  0  0  0
   -1.6625   -0.9500    0.0000 N   0  0  0  0  0  0  0  0  0  0  0  0
   -9.7292    0.1458    0.0000 N   0  0  0  0  0  0  0  0  0  0  0  0
   -2.0625    2.9333    0.0000 O   0  0  0  0  0  0  0  0  0  0  0  0
   -9.3292   -3.7375    0.0000 O   0  0  0  0  0  0  0  0  0  0  0  0
   -5.2500    0.6458    0.0000 C   0  0  0  0  0  0  0  0  0  0  0  0
   -6.1375   -1.4500    0.0000 C   0  0  0  0  0  0  0  0  0  0  0  0
  -12.0167    0.1458    0.0000 C   0  0  3  0  0  0  0  0  0  0  0  0
    0.6292   -0.9500    0.0000 C   0  0  3  0  0  0  0  0  0  0  0  0
    1.7667    1.0333    0.0000 C   0  0  0  0  0  0  0  0  0  0  0  0
    1.8042   -2.9292    0.0000 C   0  0  0  0  0  0  0  0  0  0  0  0
  -13.2042    2.1208    0.0000 C   0  0  0  0  0  0  0  0  0  0  0  0
  -13.1542   -1.8375    0.0000 C   0  0  0  0  0  0  0  0  0  0  0  0
    4.1000   -2.9292    0.0000 C   0  0  0  0  0  0  0  0  0  0  0  0
    4.1000    1.0708    0.0000 C   0  0  0  0  0  0  0  0  0  0  0  0
  -15.5000   -1.8792    0.0000 C   0  0  0  0  0  0  0  0  0  0  0  0
  -15.5000    2.1208    0.0000 C   0  0  0  0  0  0  0  0  0  0  0  0
    5.2500   -0.9042    0.0000 C   0  0  0  0  0  0  0  0  0  0  0  0
  -16.6417    0.1000    0.0000 C   0  0  0  0  0  0  0  0  0  0  0  0
  2  8  1  0  0  0  0
  1  3  1  0  0  0  0
  2  4  1  0  0  0  0
  1  5  2  0  0  0  0
  2  6  2  0  0  0  0
  1  7  1  0  0  0  0
  7  8  1  0  0  0  0
  4  9  1  0  0  0  0
  3 10  1  0  0  0  0
 10 11  1  0  0  0  0
 10 12  1  0  0  0  0
  9 13  1  0  0  0  0
  9 14  1  0  0  0  0
 12 15  1  0  0  0  0
 11 16  1  0  0  0  0
 14 17  1  0  0  0  0
 13 18  1  0  0  0  0
 15 19  1  0  0  0  0
 17 20  1  0  0  0  0
 16 19  1  0  0  0  0
 18 20  1  0  0  0  0
M  END
> <MOLFORMULA>
C16 H28 N2 O2

> <MOLWEIGHT>
2.804092000000000e+002

> <IDNUMBER>
AT-084/J170635

> <PRICE>
EUR 37.00/10 mg

> <Similarity score>
0.83

$$$$

  -OEChem-04102411502D

 20 21  0     0  0  0  0  0  0999 V2000
   -1.2500    0.4333    0.0000 C   0  0  0  0  0  0  0  0  0  0  0  0
    1.2500   -0.4292    0.0000 C   0  0  0  0  0  0  0  0  0  0  0  0
    1.7500   -1.2958    0.0000 N   0  0  0  0  0  0  0  0  0  0  0  0
   -1.7500    1.3000    0.0000 N   0  0  0  0  0  0  0  0  0  0  0  0
    1.7500    0.4333    0.0000 O   0  0  0  0  0  0  0  0  0  0  0  0
   -1.7500   -0.4292    0.0000 O   0  0  0  0  0  0  0  0  0  0  0  0
   -0.2542    0.4333    0.0000 C   0  0  0  0  0  0  0  0  0  0  0  0
    0.2458   -0.4292    0.0000 C   0  0  0  0  0  0  0  0  0  0  0  0
    2.7458   -1.2958    0.0000 C   0  0  3  0  0  0  0  0  0  0  0  0
   -2.7500    1.3000    0.0000 C   0  0  3  0  0  0  0  0  0  0  0  0
   -3.2500    2.1667    0.0000 C   0  0  0  0  0  0  0  0  0  0  0  0
   -3.2542    0.4333    0.0000 C   0  0  0  0  0  0  0  0  0  0  0  0
    3.2500   -0.4292    0.0000 C   0  0  0  0  0  0  0  0  0  0  0  0
    3.2500   -2.1625    0.0000 C   0  0  0  0  0  0  0  0  0  0  0  0
    4.2500   -0.4292    0.0000 C   0  0  0  0  0  0  0  0  0  0  0  0
    4.2500   -2.1625    0.0000 C   0  0  0  0  0  0  0  0  0  0  0  0
   -4.2500    0.4375    0.0000 C   0  0  0  0  0  0  0  0  0  0  0  0
   -4.2500    2.1667    0.0000 C   0  0  0  0  0  0  0  0  0  0  0  0
    4.7500   -1.2958    0.0000 C   0  0  0  0  0  0  0  0  0  0  0  0
   -4.7500    1.3000    0.0000 C   0  0  0  0  0  0  0  0  0  0  0  0
  2  8  1  0  0  0  0
  2  3  1  0  0  0  0
  1  4  1  0  0  0  0
  2  5  2  0  0  0  0
  1  6  2  0  0  0  0
  1  7  1  0  0  0  0
  7  8  1  0  0  0  0
  3  9  1  0  0  0  0
  4 10  1  0  0  0  0
 10 11  1  0  0  0  0
 10 12  1  0  0  0  0
  9 13  1  0  0  0  0
  9 14  1  0  0  0  0
 13 15  1  0  0  0  0
 14 16  1  0  0  0  0
 12 17  1  0  0  0  0
 11 18  1  0  0  0  0
 16 19  1  0  0  0  0
 17 20  1  0  0  0  0
 18 20  1  0  0  0  0
 15 19  1  0  0  0  0
M  END
> <MOLFORMULA>
C16 H28 N2 O2

> <MOLWEIGHT>
2.804092000000000e+002

> <IDNUMBER>
AN-153/I156158

> <PRICE>
EUR 130/10 mg

> <Similarity score>
0.83

$$$$

  -OEChem-04102411502D

 25 26  0     0  0  0  0  0  0999 V2000
    3.2500    1.3000    0.0000 C   0  0  0  0  0  0  0  0  0  0  0  0
   -2.7500   -2.1625    0.0000 C   0  0  0  0  0  0  0  0  0  0  0  0
    4.2500    1.3000    0.0000 N   0  0  0  0  0  0  0  0  0  0  0  0
   -3.2542   -3.0292    0.0000 N   0  0  0  0  0  0  0  0  0  0  0  0
   -3.2542   -1.2958    0.0000 O   0  0  0  0  0  0  0  0  0  0  0  0
    2.7500    2.1667    0.0000 O   0  0  0  0  0  0  0  0  0  0  0  0
    4.7500    2.1667    0.0000 C   0  0  3  0  0  0  0  0  0  0  0  0
   -4.2500   -3.0292    0.0000 C   0  0  3  0  0  0  0  0  0  0  0  0
   -1.7542   -2.1625    0.0000 C   0  0  0  0  0  0  0  0  0  0  0  0
    2.7500    0.4333    0.0000 C   0  0  0  0  0  0  0  0  0  0  0  0
    4.2500    3.0333    0.0000 C   0  0  0  0  0  0  0  0  0  0  0  0
    5.7500    2.1667    0.0000 C   0  0  0  0  0  0  0  0  0  0  0  0
   -4.7542   -2.1625    0.0000 C   0  0  0  0  0  0  0  0  0  0  0  0
   -4.7542   -3.8958    0.0000 C   0  0  0  0  0  0  0  0  0  0  0  0
   -1.2500   -1.2958    0.0000 C   0  0  0  0  0  0  0  0  0  0  0  0
    1.7500    0.4333    0.0000 C   0  0  0  0  0  0  0  0  0  0  0  0
   -0.2542   -1.2958    0.0000 C   0  0  0  0  0  0  0  0  0  0  0  0
    1.2458   -0.4333    0.0000 C   0  0  0  0  0  0  0  0  0  0  0  0
    0.2500   -0.4333    0.0000 C   0  0  0  0  0  0  0  0  0  0  0  0
   -5.7500   -3.8958    0.0000 C   0  0  0  0  0  0  0  0  0  0  0  0
    4.7500    3.9000    0.0000 C   0  0  0  0  0  0  0  0  0  0  0  0
    6.2500    3.0333    0.0000 C   0  0  0  0  0  0  0  0  0  0  0  0
   -5.7500   -2.1625    0.0000 C   0  0  0  0  0  0  0  0  0  0  0  0
    5.7500    3.9000    0.0000 C   0  0  0  0  0  0  0  0  0  0  0  0
   -6.2500   -3.0292    0.0000 C   0  0  0  0  0  0  0  0  0  0  0  0
  2  9  1  0  0  0  0
  1  3  1  0  0  0  0
  2  4  1  0  0  0  0
  2  5  2  0  0  0  0
  1  6  2  0  0  0  0
  3  7  1  0  0  0  0
  4  8  1  0  0  0  0
  9 15  1  0  0  0  0
  1 10  1  0  0  0  0
  7 11  1  0  0  0  0
  7 12  1  0  0  0  0
  8 13  1  0  0  0  0
  8 14  1  0  0  0  0
 15 17  1  0  0  0  0
 10 16  1  0  0  0  0
 17 19  1  0  0  0  0
 16 18  1  0  0  0  0
 18 19  1  0  0  0  0
 14 20  1  0  0  0  0
 11 21  1  0  0  0  0
 12 22  1  0  0  0  0
 13 23  1  0  0  0  0
 22 24  1  0  0  0  0
 20 25  1  0  0  0  0
 21 24  1  0  0  0  0
 23 25  1  0  0  0  0
M  END
> <MOLFORMULA>
C21 H38 N2 O2

> <MOLWEIGHT>
3.505432000000000e+002

> <IDNUMBER>
AN-153/I144910

> <PRICE>
EUR 130/10 mg

> <Similarity score>
0.81

$$$$

  -OEChem-04102411502D

 21 22  0     0  0  0  0  0  0999 V2000
   -1.7500    0.5292    0.0000 C   0  0  0  0  0  0  0  0  0  0  0  0
    1.7375    0.4792    0.0000 C   0  0  0  0  0  0  0  0  0  0  0  0
   -2.6083    1.0333    0.0000 N   0  0  0  0  0  0  0  0  0  0  0  0
    2.6208    0.9750    0.0000 N   0  0  0  0  0  0  0  0  0  0  0  0
    1.7292   -0.5125    0.0000 O   0  0  0  0  0  0  0  0  0  0  0  0
   -1.7500   -0.4792    0.0000 O   0  0  0  0  0  0  0  0  0  0  0  0
   -3.4958    0.5375    0.0000 C   0  0  3  0  0  0  0  0  0  0  0  0
    3.4792    0.4708    0.0000 C   0  0  3  0  0  0  0  0  0  0  0  0
   -0.8583    1.0167    0.0000 C   0  0  0  0  0  0  0  0  0  0  0  0
    0.8708    0.9833    0.0000 C   0  0  0  0  0  0  0  0  0  0  0  0
   -0.0083    0.5083    0.0000 C   0  0  0  0  0  0  0  0  0  0  0  0
   -4.3542    1.0417    0.0000 C   0  0  0  0  0  0  0  0  0  0  0  0
   -3.5000   -0.4542    0.0000 C   0  0  0  0  0  0  0  0  0  0  0  0
    3.4750   -0.5208    0.0000 C   0  0  0  0  0  0  0  0  0  0  0  0
    4.3542    0.9500    0.0000 C   0  0  0  0  0  0  0  0  0  0  0  0
    5.2167    0.4375    0.0000 C   0  0  0  0  0  0  0  0  0  0  0  0
    4.3417   -1.0375    0.0000 C   0  0  0  0  0  0  0  0  0  0  0  0
   -4.3625   -0.9583    0.0000 C   0  0  0  0  0  0  0  0  0  0  0  0
   -5.2208    0.5542    0.0000 C   0  0  0  0  0  0  0  0  0  0  0  0
   -5.2208   -0.4542    0.0000 C   0  0  0  0  0  0  0  0  0  0  0  0
    5.2083   -0.5542    0.0000 C   0  0  0  0  0  0  0  0  0  0  0  0
  2 10  1  0  0  0  0
  1  3  1  0  0  0  0
  2  4  1  0  0  0  0
  2  5  2  0  0  0  0
  1  6  2  0  0  0  0
  3  7  1  0  0  0  0
  4  8  1  0  0  0  0
  1  9  1  0  0  0  0
 10 11  1  0  0  0  0
  9 11  1  0  0  0  0
  7 12  1  0  0  0  0
  7 13  1  0  0  0  0
  8 14  1  0  0  0  0
  8 15  1  0  0  0  0
 15 16  1  0  0  0  0
 14 17  1  0  0  0  0
 13 18  1  0  0  0  0
 12 19  1  0  0  0  0
 18 20  1  0  0  0  0
 16 21  1  0  0  0  0
 19 20  1  0  0  0  0
 17 21  1  0  0  0  0
M  END
> <MOLFORMULA>
C17 H30 N2 O2

> <MOLWEIGHT>
2.944360000000000e+002

> <IDNUMBER>
AN-153/I154883

> <PRICE>
EUR 130/10 mg

> <Similarity score>
0.81

$$$$

  -OEChem-04102411502D

 21 22  0     0  0  0  0  0  0999 V2000
   -4.1458    0.7458    0.0000 C   0  0  0  0  0  0  0  0  0  0  0  0
    4.1375    0.6250    0.0000 C   0  0  0  0  0  0  0  0  0  0  0  0
    6.2292    1.8083    0.0000 N   0  0  0  0  0  0  0  0  0  0  0  0
   -6.1875    1.9458    0.0000 N   0  0  0  0  0  0  0  0  0  0  0  0
   -4.1458   -1.6375    0.0000 O   0  0  0  0  0  0  0  0  0  0  0  0
    4.1125   -1.7292    0.0000 O   0  0  0  0  0  0  0  0  0  0  0  0
   -8.2833    0.7625    0.0000 C   0  0  3  0  0  0  0  0  0  0  0  0
    8.2667    0.6208    0.0000 C   0  0  3  0  0  0  0  0  0  0  0  0
   -2.0375    1.9000    0.0000 C   0  0  0  0  0  0  0  0  0  0  0  0
    2.0708    1.8250    0.0000 C   0  0  0  0  0  0  0  0  0  0  0  0
   -0.0083    0.6958    0.0000 C   0  0  0  0  0  0  0  0  0  0  0  0
  -10.3167    1.9708    0.0000 C   0  0  0  0  0  0  0  0  0  0  0  0
   -8.3125   -1.5917    0.0000 C   0  0  0  0  0  0  0  0  0  0  0  0
    8.2542   -1.7375    0.0000 C   0  0  0  0  0  0  0  0  0  0  0  0
   10.3500    1.7458    0.0000 C   0  0  0  0  0  0  0  0  0  0  0  0
  -10.3417   -2.7792    0.0000 C   0  0  0  0  0  0  0  0  0  0  0  0
  -12.3792    0.8125    0.0000 C   0  0  0  0  0  0  0  0  0  0  0  0
   12.3875    0.5250    0.0000 C   0  0  0  0  0  0  0  0  0  0  0  0
   10.3167   -2.9792    0.0000 C   0  0  0  0  0  0  0  0  0  0  0  0
  -12.3792   -1.5917    0.0000 C   0  0  0  0  0  0  0  0  0  0  0  0
   12.3792   -1.8292    0.0000 C   0  0  0  0  0  0  0  0  0  0  0  0
  2 10  1  0  0  0  0
  2  3  1  0  0  0  0
  1  4  1  0  0  0  0
  1  5  2  0  0  0  0
  2  6  2  0  0  0  0
  4  7  1  0  0  0  0
  3  8  1  0  0  0  0
  1  9  1  0  0  0  0
 10 11  1  0  0  0  0
  9 11  1  0  0  0  0
  7 12  1  0  0  0  0
  7 13  1  0  0  0  0
  8 14  1  0  0  0  0
  8 15  1  0  0  0  0
 13 16  1  0  0  0  0
 12 17  1  0  0  0  0
 15 18  1  0  0  0  0
 14 19  1  0  0  0  0
 16 20  1  0  0  0  0
 18 21  1  0  0  0  0
 17 20  1  0  0  0  0
 19 21  1  0  0  0  0
M  END
> <MOLFORMULA>
C17 H30 N2 O2

> <MOLWEIGHT>
2.944360000000000e+002

> <IDNUMBER>
AT-084/J162468

> <PRICE>
EUR 37.00/10 mg

> <Similarity score>
0.81

$$$$

  -OEChem-04102411502D

 25 26  0     0  0  0  0  0  0999 V2000
   -5.0833    0.2083    0.0000 C   0  0  0  0  0  0  0  0  0  0  0  0
    5.0542    0.3250    0.0000 C   0  0  0  0  0  0  0  0  0  0  0  0
   -6.3667    0.9333    0.0000 N   0  0  0  0  0  0  0  0  0  0  0  0
    6.3417    1.0958    0.0000 N   0  0  0  0  0  0  0  0  0  0  0  0
    5.0917   -1.0625    0.0000 O   0  0  0  0  0  0  0  0  0  0  0  0
   -5.0833   -1.2125    0.0000 O   0  0  0  0  0  0  0  0  0  0  0  0
   -7.6583    0.1750    0.0000 C   0  0  3  0  0  0  0  0  0  0  0  0
    7.6250    0.3625    0.0000 C   0  0  3  0  0  0  0  0  0  0  0  0
    3.8042    1.0625    0.0000 C   0  0  0  0  0  0  0  0  0  0  0  0
   -3.8125    0.9625    0.0000 C   0  0  0  0  0  0  0  0  0  0  0  0
   -7.5917   -1.1667    0.0000 C   0  0  0  0  0  0  0  0  0  0  0  0
   -8.9083    0.8708    0.0000 C   0  0  0  0  0  0  0  0  0  0  0  0
    7.6375   -1.0167    0.0000 C   0  0  0  0  0  0  0  0  0  0  0  0
    8.8750    1.1208    0.0000 C   0  0  0  0  0  0  0  0  0  0  0  0
    2.5167    0.3083    0.0000 C   0  0  0  0  0  0  0  0  0  0  0  0
   -2.5208    0.2083    0.0000 C   0  0  0  0  0  0  0  0  0  0  0  0
    1.2292    1.0458    0.0000 C   0  0  0  0  0  0  0  0  0  0  0  0
   -1.2583    0.9833    0.0000 C   0  0  0  0  0  0  0  0  0  0  0  0
    0.0000    0.2958    0.0000 C   0  0  0  0  0  0  0  0  0  0  0  0
   10.1125    0.4083    0.0000 C   0  0  0  0  0  0  0  0  0  0  0  0
   -8.8542   -1.9542    0.0000 C   0  0  0  0  0  0  0  0  0  0  0  0
  -10.1417    0.1000    0.0000 C   0  0  0  0  0  0  0  0  0  0  0  0
    8.9167   -1.7417    0.0000 C   0  0  0  0  0  0  0  0  0  0  0  0
  -10.1250   -1.2542    0.0000 C   0  0  0  0  0  0  0  0  0  0  0  0
   10.1417   -0.9917    0.0000 C   0  0  0  0  0  0  0  0  0  0  0  0
  2  9  1  0  0  0  0
  1  3  1  0  0  0  0
  2  4  1  0  0  0  0
  2  5  2  0  0  0  0
  1  6  2  0  0  0  0
  3  7  1  0  0  0  0
  4  8  1  0  0  0  0
  9 15  1  0  0  0  0
  1 10  1  0  0  0  0
  7 11  1  0  0  0  0
  7 12  1  0  0  0  0
  8 13  1  0  0  0  0
  8 14  1  0  0  0  0
 15 17  1  0  0  0  0
 10 16  1  0  0  0  0
 17 19  1  0  0  0  0
 16 18  1  0  0  0  0
 18 19  1  0  0  0  0
 14 20  1  0  0  0  0
 11 21  1  0  0  0  0
 12 22  1  0  0  0  0
 13 23  1  0  0  0  0
 22 24  1  0  0  0  0
 20 25  1  0  0  0  0
 21 24  1  0  0  0  0
 23 25  1  0  0  0  0
M  END
> <MOLFORMULA>
C21 H38 N2 O2

> <MOLWEIGHT>
3.505432000000000e+002

> <IDNUMBER>
AT-084/J162691

> <PRICE>
EUR 37.00/10 mg

> <Similarity score>
0.81

$$$$

  -OEChem-04102411502D

 12 12  0     0  0  0  0  0  0999 V2000
   -4.0958   -1.6250    0.0000 C   0  0  0  0  0  0  0  0  0  0  0  0
   -0.0500    2.2333    0.0000 N   0  0  0  0  0  0  0  0  0  0  0  0
   -9.4417    0.0500    0.0000 C   0  0  0  0  0  0  0  0  0  0  0  0
   -2.8375   -7.0417    0.0000 O   0  0  0  0  0  0  0  0  0  0  0  0
  -16.0000    7.0667    0.0000 N   0  0  0  0  0  0  0  0  0  0  0  0
    5.3000    0.5833    0.0000 C   0  0  3  0  0  0  0  0  0  0  0  0
  -10.6917    5.4417    0.0000 C   0  0  0  0  0  0  0  0  0  0  0  0
    6.5792   -4.9042    0.0000 C   0  0  0  0  0  0  0  0  0  0  0  0
    9.3667    4.3417    0.0000 C   0  0  0  0  0  0  0  0  0  0  0  0
   14.7167    2.7458    0.0000 C   0  0  0  0  0  0  0  0  0  0  0  0
   11.9292   -6.5042    0.0000 C   0  0  0  0  0  0  0  0  0  0  0  0
   15.9750   -2.7167    0.0000 C   0  0  0  0  0  0  0  0  0  0  0  0
  1  2  1  0  0  0  0
  1  3  1  0  0  0  0
  1  4  2  0  0  0  0
  5  7  1  0  0  0  0
  2  6  1  0  0  0  0
  3  7  1  0  0  0  0
  6  8  1  0  0  0  0
  6  9  1  0  0  0  0
  9 10  1  0  0  0  0
  8 11  1  0  0  0  0
 10 12  1  0  0  0  0
 11 12  1  0  0  0  0
M  END
> <MOLFORMULA>
C9 H18 N2 O

> <MOLWEIGHT>
1.702542000000000e+002

> <IDNUMBER>
AM-879/PD13253

> <PRICE>
EUR 55.00/10 mg

> <Similarity score>
0.80

$$$$

  -OEChem-04102411502D

 12 12  0     0  0  0  0  0  0999 V2000
    6.5042   -6.9292    0.0000 C   0  0  0  0  0  0  0  0  0  0  0  0
    7.5625   -5.9292    0.0000 N   0  0  0  0  0  0  0  0  0  0  0  0
    5.1250   -6.5000    0.0000 C   0  0  0  0  0  0  0  0  0  0  0  0
    6.8375   -8.3417    0.0000 O   0  0  0  0  0  0  0  0  0  0  0  0
    3.4042   -4.6667    0.0000 N   0  0  0  0  0  0  0  0  0  0  0  0
    8.9542   -6.3625    0.0000 C   0  0  3  0  0  0  0  0  0  0  0  0
    4.7917   -5.0917    0.0000 C   0  0  0  0  0  0  0  0  0  0  0  0
   10.0167   -5.3792    0.0000 C   0  0  0  0  0  0  0  0  0  0  0  0
    9.2875   -7.7917    0.0000 C   0  0  0  0  0  0  0  0  0  0  0  0
   10.6792   -8.2125    0.0000 C   0  0  0  0  0  0  0  0  0  0  0  0
   11.4042   -5.7917    0.0000 C   0  0  0  0  0  0  0  0  0  0  0  0
   11.7375   -7.2167    0.0000 C   0  0  0  0  0  0  0  0  0  0  0  0
  1  2  1  0  0  0  0
  1  3  1  0  0  0  0
  1  4  2  0  0  0  0
  5  7  1  0  0  0  0
  2  6  1  0  0  0  0
  3  7  1  0  0  0  0
  6  8  1  0  0  0  0
  6  9  1  0  0  0  0
  9 10  1  0  0  0  0
  8 11  1  0  0  0  0
 11 12  1  0  0  0  0
 10 12  1  0  0  0  0
M  END
> <MOLFORMULA>
C9 H18 N2 O

> <MOLWEIGHT>
1.702542000000000e+002

> <IDNUMBER>
AM-879/PD08290

> <SALTDATA>
HCl

> <PRICE>
EUR 55.00/10 mg

> <Similarity score>
0.80

$$$$

  -OEChem-04102411502D

 12 12  0     0  0  0  0  0  0999 V2000
   -0.5000   -0.4292    0.0000 C   0  0  0  0  0  0  0  0  0  0  0  0
   -1.0000    0.4333    0.0000 N   0  0  0  0  0  0  0  0  0  0  0  0
   -1.0000   -1.2917    0.0000 C   0  0  0  0  0  0  0  0  0  0  0  0
    0.5000   -0.4292    0.0000 O   0  0  0  0  0  0  0  0  0  0  0  0
   -0.5000    1.3000    0.0000 C   0  0  3  0  0  0  0  0  0  0  0  0
   -1.0083   -3.0292    0.0000 Cl  0  0  0  0  0  0  0  0  0  0  0  0
   -0.5000   -2.1625    0.0000 C   0  0  0  0  0  0  0  0  0  0  0  0
    0.5000    1.3000    0.0000 C   0  0  0  0  0  0  0  0  0  0  0  0
   -1.0000    2.1708    0.0000 C   0  0  0  0  0  0  0  0  0  0  0  0
   -0.5000    3.0333    0.0000 C   0  0  0  0  0  0  0  0  0  0  0  0
    1.0000    2.1708    0.0000 C   0  0  0  0  0  0  0  0  0  0  0  0
    0.5000    3.0333    0.0000 C   0  0  0  0  0  0  0  0  0  0  0  0
  1  2  1  0  0  0  0
  1  3  1  0  0  0  0
  1  4  2  0  0  0  0
  2  5  1  0  0  0  0
  6  7  1  0  0  0  0
  3  7  1  0  0  0  0
  5  8  1  0  0  0  0
  5  9  1  0  0  0  0
  9 10  1  0  0  0  0
  8 11  1  0  0  0  0
 10 12  1  0  0  0  0
 11 12  1  0  0  0  0
M  END
> <MOLFORMULA>
C9 H16 Cl N O

> <MOLWEIGHT>
1.896844000000000e+002

> <IDNUMBER>
AN-153/KC13174

> <PRICE>
EUR 130/10 mg

> <Similarity score>
0.79

$$$$

  -OEChem-04102411502D

 13 13  0     0  0  0  0  0  0999 V2000
   -0.5583   -0.6375    0.0000 C   0  0  0  0  0  0  0  0  0  0  0  0
   -1.0583    0.2333    0.0000 N   0  0  0  0  0  0  0  0  0  0  0  0
   -1.0583   -1.5042    0.0000 C   0  0  0  0  0  0  0  0  0  0  0  0
    0.4417   -0.6375    0.0000 O   0  0  0  0  0  0  0  0  0  0  0  0
   -0.5583    1.0958    0.0000 C   0  0  3  0  0  0  0  0  0  0  0  0
   -1.0583   -3.2375    0.0000 Cl  0  0  0  0  0  0  0  0  0  0  0  0
   -0.5583   -2.3667    0.0000 C   0  0  0  0  0  0  0  0  0  0  0  0
    0.4375    1.0208    0.0000 C   0  0  0  0  0  0  0  0  0  0  0  0
   -1.1208    1.9208    0.0000 C   0  0  0  0  0  0  0  0  0  0  0  0
    1.1167    1.7500    0.0000 C   0  0  0  0  0  0  0  0  0  0  0  0
   -0.8333    2.8750    0.0000 C   0  0  0  0  0  0  0  0  0  0  0  0
    0.9667    2.7458    0.0000 C   0  0  0  0  0  0  0  0  0  0  0  0
    0.1042    3.2458    0.0000 C   0  0  0  0  0  0  0  0  0  0  0  0
  1  2  1  0  0  0  0
  1  3  1  0  0  0  0
  1  4  2  0  0  0  0
  2  5  1  0  0  0  0
  6  7  1  0  0  0  0
  3  7  1  0  0  0  0
  5  8  1  0  0  0  0
  5  9  1  0  0  0  0
  8 10  1  0  0  0  0
  9 11  1  0  0  0  0
 10 12  1  0  0  0  0
 11 13  1  0  0  0  0
 12 13  1  0  0  0  0
M  END
> <MOLFORMULA>
C10 H18 Cl N O

> <MOLWEIGHT>
2.037112000000000e+002

> <IDNUMBER>
AN-153/KC13147

> <PRICE>
EUR 130/10 mg

> <Similarity score>
0.79

$$$$

  -OEChem-04102411502D

 18 19  0     0  0  0  0  0  0999 V2000
    0.1042   -0.0250    0.0000 C   0  0  0  0  0  0  0  0  0  0  0  0
   -0.8958   -0.0250    0.0000 N   0  0  0  0  0  0  0  0  0  0  0  0
    0.6042   -0.8917    0.0000 O   0  0  0  0  0  0  0  0  0  0  0  0
    0.6042    0.8417    0.0000 C   0  0  0  0  0  0  0  0  0  0  0  0
   -1.3958   -0.8917    0.0000 C   0  0  3  0  0  0  0  0  0  0  0  0
    1.6042    0.8417    0.0000 C   0  0  0  0  0  0  0  0  0  0  0  0
    2.1042    1.7083    0.0000 C   0  0  3  0  0  0  0  0  0  0  0  0
   -0.7875   -1.6833    0.0000 C   0  0  0  0  0  0  0  0  0  0  0  0
   -2.3875   -0.7625    0.0000 C   0  0  0  0  0  0  0  0  0  0  0  0
    3.1000    1.8125    0.0000 C   0  0  0  0  0  0  0  0  0  0  0  0
    1.6958    2.6208    0.0000 C   0  0  0  0  0  0  0  0  0  0  0  0
   -0.9167   -2.6750    0.0000 C   0  0  0  0  0  0  0  0  0  0  0  0
   -3.1792   -1.3708    0.0000 C   0  0  0  0  0  0  0  0  0  0  0  0
    3.3083    2.7875    0.0000 C   0  0  0  0  0  0  0  0  0  0  0  0
    2.4417    3.2875    0.0000 C   0  0  0  0  0  0  0  0  0  0  0  0
   -3.3125   -2.3625    0.0000 C   0  0  0  0  0  0  0  0  0  0  0  0
   -1.7125   -3.2833    0.0000 C   0  0  0  0  0  0  0  0  0  0  0  0
   -2.7042   -3.1542    0.0000 C   0  0  0  0  0  0  0  0  0  0  0  0
  1  2  1  0  0  0  0
  1  3  2  0  0  0  0
  1  4  1  0  0  0  0
  2  5  1  0  0  0  0
  4  6  1  0  0  0  0
  6  7  1  0  0  0  0
  5  8  1  0  0  0  0
  5  9  1  0  0  0  0
  7 10  1  0  0  0  0
  7 11  1  0  0  0  0
  8 12  1  0  0  0  0
  9 13  1  0  0  0  0
 10 14  1  0  0  0  0
 11 15  1  0  0  0  0
 13 16  1  0  0  0  0
 12 17  1  0  0  0  0
 16 18  1  0  0  0  0
 14 15  1  0  0  0  0
 17 18  1  0  0  0  0
M  END
> <MOLFORMULA>
C16 H29 N O

> <MOLWEIGHT>
2.514111000000000e+002

> <IDNUMBER>
AN-153/I107513

> <PRICE>
EUR 130/10 mg

> <Similarity score>
0.77

$$$$

  -OEChem-04102411502D

 13 13  0     0  0  0  0  0  0999 V2000
    0.2667   -0.3000    0.0000 C   0  0  0  0  0  0  0  0  0  0  0  0
   -0.3833   -0.6750    0.0000 N   0  0  0  0  0  0  0  0  0  0  0  0
    0.2667    0.4500    0.0000 O   0  0  0  0  0  0  0  0  0  0  0  0
   -1.0333   -0.3000    0.0000 C   0  0  3  0  0  0  0  0  0  0  0  0
    1.5667   -2.5500    0.0000 Cl  0  0  0  0  0  0  0  0  0  0  0  0
    0.9167   -0.6750    0.0000 C   0  0  0  0  0  0  0  0  0  0  0  0
    1.5667   -1.8000    0.0000 C   0  0  0  0  0  0  0  0  0  0  0  0
   -1.6833   -0.6750    0.0000 C   0  0  0  0  0  0  0  0  0  0  0  0
   -1.0333    0.4583    0.0000 C   0  0  0  0  0  0  0  0  0  0  0  0
    0.9167   -1.4250    0.0000 C   0  0  0  0  0  0  0  0  0  0  0  0
   -1.6833    0.8333    0.0000 C   0  0  0  0  0  0  0  0  0  0  0  0
   -2.3333   -0.3000    0.0000 C   0  0  0  0  0  0  0  0  0  0  0  0
   -2.3333    0.4583    0.0000 C   0  0  0  0  0  0  0  0  0  0  0  0
  1  2  1  0  0  0  0
  1  3  2  0  0  0  0
  2  4  1  0  0  0  0
  5  7  1  0  0  0  0
  1  6  1  0  0  0  0
  7 10  1  0  0  0  0
  4  8  1  0  0  0  0
  4  9  1  0  0  0  0
  6 10  1  0  0  0  0
  9 11  1  0  0  0  0
  8 12  1  0  0  0  0
 11 13  1  0  0  0  0
 12 13  1  0  0  0  0
M  END
> <MOLFORMULA>
C10 H18 Cl N O

> <MOLWEIGHT>
2.037112000000000e+002

> <IDNUMBER>
AT-225/JK16815

> <PRICE>
EUR 140/10 mg

> <Similarity score>
0.76

$$$$

  -OEChem-04102411502D

 16 16  0     0  0  0  0  0  0999 V2000
   -0.6542    0.1042    0.0000 C   0  0  0  0  0  0  0  0  0  0  0  0
   -1.1542    0.9708    0.0000 N   0  0  0  0  0  0  0  0  0  0  0  0
   -1.1542   -0.7625    0.0000 C   0  0  0  0  0  0  0  0  0  0  0  0
    0.3458    0.1042    0.0000 O   0  0  0  0  0  0  0  0  0  0  0  0
   -0.6542    1.8375    0.0000 C   0  0  3  0  0  0  0  0  0  0  0  0
   -1.1542   -2.4917    0.0000 O   0  0  0  0  0  0  0  0  0  0  0  0
   -0.6542   -1.6292    0.0000 C   0  0  0  0  0  0  0  0  0  0  0  0
   -0.6542   -3.3583    0.0000 C   0  0  0  0  0  0  0  0  0  0  0  0
    0.3375    1.7042    0.0000 C   0  0  0  0  0  0  0  0  0  0  0  0
   -1.2625    2.6292    0.0000 C   0  0  0  0  0  0  0  0  0  0  0  0
   -1.1542   -4.2250    0.0000 C   0  0  0  0  0  0  0  0  0  0  0  0
   -1.1333    3.6208    0.0000 C   0  0  0  0  0  0  0  0  0  0  0  0
    1.1292    2.3167    0.0000 C   0  0  0  0  0  0  0  0  0  0  0  0
   -0.3417    4.2250    0.0000 C   0  0  0  0  0  0  0  0  0  0  0  0
    1.2583    3.3042    0.0000 C   0  0  0  0  0  0  0  0  0  0  0  0
    0.6500    4.0958    0.0000 C   0  0  0  0  0  0  0  0  0  0  0  0
  1  2  1  0  0  0  0
  1  3  1  0  0  0  0
  1  4  2  0  0  0  0
  2  5  1  0  0  0  0
  6  7  1  0  0  0  0
  3  7  1  0  0  0  0
  6  8  1  0  0  0  0
  5  9  1  0  0  0  0
  5 10  1  0  0  0  0
  8 11  1  0  0  0  0
 10 12  1  0  0  0  0
  9 13  1  0  0  0  0
 12 14  1  0  0  0  0
 13 15  1  0  0  0  0
 14 16  1  0  0  0  0
 15 16  1  0  0  0  0
M  END
> <MOLFORMULA>
C13 H25 N O2

> <MOLWEIGHT>
2.273455000000000e+002

> <IDNUMBER>
AN-153/I239583

> <PRICE>
EUR 130/10 mg

> <Similarity score>
0.75

$$$$

  -OEChem-04102411502D

 11 11  0     0  0  0  0  0  0999 V2000
   -0.5000   -0.8625    0.0000 C   0  0  0  0  0  0  0  0  0  0  0  0
   -1.0000   -0.0000    0.0000 N   0  0  0  0  0  0  0  0  0  0  0  0
    0.5000   -0.8625    0.0000 O   0  0  0  0  0  0  0  0  0  0  0  0
   -0.5000    0.8667    0.0000 C   0  0  3  0  0  0  0  0  0  0  0  0
   -1.0000   -1.7292    0.0000 C   0  0  0  0  0  0  0  0  0  0  0  0
   -1.0000    1.7333    0.0000 C   0  0  0  0  0  0  0  0  0  0  0  0
    0.5000    0.8667    0.0000 C   0  0  0  0  0  0  0  0  0  0  0  0
   -0.5000   -2.5958    0.0000 C   0  0  0  0  0  0  0  0  0  0  0  0
    1.0000    1.7333    0.0000 C   0  0  0  0  0  0  0  0  0  0  0  0
   -0.5000    2.6000    0.0000 C   0  0  0  0  0  0  0  0  0  0  0  0
    0.5000    2.6000    0.0000 C   0  0  0  0  0  0  0  0  0  0  0  0
  1  2  1  0  0  0  0
  1  3  2  0  0  0  0
  2  4  1  0  0  0  0
  1  5  1  0  0  0  0
  4  6  1  0  0  0  0
  4  7  1  0  0  0  0
  5  8  1  0  0  0  0
  7  9  1  0  0  0  0
  6 10  1  0  0  0  0
  9 11  1  0  0  0  0
 10 11  1  0  0  0  0
M  END
> <MOLFORMULA>
C9 H17 N O

> <MOLWEIGHT>
1.552393000000000e+002

> <IDNUMBER>
AN-153/I178135

> <PRICE>
EUR 130/10 mg

> <Similarity score>
0.75

$$$$

  -OEChem-04102411502D

 11 11  0     0  0  0  0  0  0999 V2000
   -1.2458    0.3500    0.0000 C   0  0  0  0  0  0  0  0  0  0  0  0
   -0.5208    0.7583    0.0000 N   0  0  0  0  0  0  0  0  0  0  0  0
   -1.9583    0.7708    0.0000 O   0  0  0  0  0  0  0  0  0  0  0  0
    0.2000    0.3333    0.0000 C   0  0  3  0  0  0  0  0  0  0  0  0
   -1.2583   -0.4792    0.0000 C   0  0  0  0  0  0  0  0  0  0  0  0
    0.2000   -0.4917    0.0000 C   0  0  0  0  0  0  0  0  0  0  0  0
    0.9125    0.7458    0.0000 C   0  0  0  0  0  0  0  0  0  0  0  0
   -0.5458   -0.8917    0.0000 C   0  0  0  0  0  0  0  0  0  0  0  0
    0.9125   -0.9042    0.0000 C   0  0  0  0  0  0  0  0  0  0  0  0
    1.6292    0.3333    0.0000 C   0  0  0  0  0  0  0  0  0  0  0  0
    1.6292   -0.4917    0.0000 C   0  0  0  0  0  0  0  0  0  0  0  0
  1  2  1  0  0  0  0
  1  3  2  0  0  0  0
  2  4  1  0  0  0  0
  1  5  1  0  0  0  0
  4  6  1  0  0  0  0
  4  7  1  0  0  0  0
  5  8  1  0  0  0  0
  6  9  1  0  0  0  0
  7 10  1  0  0  0  0
 10 11  1  0  0  0  0
  9 11  1  0  0  0  0
M  END
> <MOLFORMULA>
C9 H17 N O

> <MOLWEIGHT>
1.552393000000000e+002

> <IDNUMBER>
AT-084/J167621

> <PRICE>
EUR 37.00/10 mg

> <Similarity score>
0.75

$$$$

  -OEChem-04102411502D

 26 26  0     0  0  0  0  0  0999 V2000
    5.1167    2.5500    0.0000 C   0  0  0  0  0  0  0  0  0  0  0  0
    5.1167   -1.2125    0.0000 C   0  0  0  0  0  0  0  0  0  0  0  0
    4.4667   -0.8375    0.0000 N   0  0  0  0  0  0  0  0  0  0  0  0
    4.4500    2.1833    0.0000 N   0  0  0  0  0  0  0  0  0  0  0  0
    5.1167    3.3000    0.0000 O   0  0  0  0  0  0  0  0  0  0  0  0
    5.1125   -1.9542    0.0000 O   0  0  0  0  0  0  0  0  0  0  0  0
    4.4500    1.4125    0.0000 C   0  0  3  0  0  0  0  0  0  0  0  0
    4.4667   -0.0875    0.0000 C   0  0  3  0  0  0  0  0  0  0  0  0
    5.1000    0.2875    0.0000 C   0  0  0  0  0  0  0  0  0  0  0  0
    5.1000    1.0375    0.0000 C   0  0  0  0  0  0  0  0  0  0  0  0
    3.8000    0.2875    0.0000 C   0  0  0  0  0  0  0  0  0  0  0  0
    3.8000    1.0375    0.0000 C   0  0  0  0  0  0  0  0  0  0  0  0
    5.7667    2.1833    0.0000 C   0  0  0  0  0  0  0  0  0  0  0  0
    5.7625   -0.8375    0.0000 C   0  0  0  0  0  0  0  0  0  0  0  0
    6.4167    2.5583    0.0000 C   0  0  0  0  0  0  0  0  0  0  0  0
    6.4125   -1.2125    0.0000 C   0  0  0  0  0  0  0  0  0  0  0  0
    9.0167    2.5583    0.0000 C   0  0  0  0  0  0  0  0  0  0  0  0
    9.0125   -1.2167    0.0000 C   0  0  0  0  0  0  0  0  0  0  0  0
    8.3625   -0.8375    0.0000 C   0  0  0  0  0  0  0  0  0  0  0  0
    8.3667    2.1833    0.0000 C   0  0  0  0  0  0  0  0  0  0  0  0
    7.0625   -0.8375    0.0000 C   0  0  0  0  0  0  0  0  0  0  0  0
    7.7125   -1.2125    0.0000 C   0  0  0  0  0  0  0  0  0  0  0  0
    7.7167    2.5583    0.0000 C   0  0  0  0  0  0  0  0  0  0  0  0
    7.0667    2.1833    0.0000 C   0  0  0  0  0  0  0  0  0  0  0  0
    9.6667    2.1833    0.0000 C   0  0  0  0  0  0  0  0  0  0  0  0
    9.6625   -0.8417    0.0000 C   0  0  0  0  0  0  0  0  0  0  0  0
  2  3  1  0  0  0  0
  3  8  1  0  0  0  0
  1  4  1  0  0  0  0
  1  5  2  0  0  0  0
  2  6  2  0  0  0  0
  4  7  1  0  0  0  0
  8 11  1  0  0  0  0
  9 10  1  0  0  0  0
  7 10  1  0  0  0  0
 11 12  1  0  0  0  0
  7 12  1  0  0  0  0
  1 13  1  0  0  0  0
  2 14  1  0  0  0  0
 13 15  1  0  0  0  0
 14 16  1  0  0  0  0
 17 20  1  0  0  0  0
 18 19  1  0  0  0  0
 19 22  1  0  0  0  0
 20 23  1  0  0  0  0
 16 21  1  0  0  0  0
 21 22  1  0  0  0  0
 23 24  1  0  0  0  0
 15 24  1  0  0  0  0
 17 25  1  0  0  0  0
 18 26  1  0  0  0  0
  8  9  1  0  0  0  0
M  END
> <MOLFORMULA>
C22 H42 N2 O2

> <MOLWEIGHT>
3.665858000000000e+002

> <IDNUMBER>
AT-225/NB36460

> <PRICE>
EUR 140/10 mg

> <Similarity score>
0.73

$$$$

  -OEChem-04102411502D

 11 11  0     0  0  0  0  0  0999 V2000
    0.7500   -0.8625    0.0000 C   0  0  0  0  0  0  0  0  0  0  0  0
   -0.2500   -0.8625    0.0000 N   0  0  0  0  0  0  0  0  0  0  0  0
    1.2458   -0.0000    0.0000 O   0  0  0  0  0  0  0  0  0  0  0  0
   -0.7542    0.0042    0.0000 C   0  0  3  0  0  0  0  0  0  0  0  0
    2.2500   -1.7292    0.0000 Br  0  0  0  0  0  0  0  0  0  0  0  0
    1.2458   -1.7292    0.0000 C   0  0  0  0  0  0  0  0  0  0  0  0
   -0.2500    0.8667    0.0000 C   0  0  0  0  0  0  0  0  0  0  0  0
   -1.7542    0.0042    0.0000 C   0  0  0  0  0  0  0  0  0  0  0  0
   -0.7542    1.7333    0.0000 C   0  0  0  0  0  0  0  0  0  0  0  0
   -2.2500    0.8667    0.0000 C   0  0  0  0  0  0  0  0  0  0  0  0
   -1.7542    1.7333    0.0000 C   0  0  0  0  0  0  0  0  0  0  0  0
  1  2  1  0  0  0  0
  1  3  2  0  0  0  0
  2  4  1  0  0  0  0
  5  6  1  0  0  0  0
  1  6  1  0  0  0  0
  4  7  1  0  0  0  0
  4  8  1  0  0  0  0
  7  9  1  0  0  0  0
  8 10  1  0  0  0  0
 10 11  1  0  0  0  0
  9 11  1  0  0  0  0
M  END
> <MOLFORMULA>
C8 H14 Br N O

> <MOLWEIGHT>
2.201086000000000e+002

> <IDNUMBER>
AN-153/I225856

> <PRICE>
EUR 130/10 mg

> <Similarity score>
0.73

$$$$

  -OEChem-04102411502D

 11 11  0     0  0  0  0  0  0999 V2000
    1.1417   -0.1167    0.0000 C   0  0  0  0  0  0  0  0  0  0  0  0
    1.8583    0.2958    0.0000 N   0  0  0  0  0  0  0  0  0  0  0  0
    1.1417   -0.9417    0.0000 O   0  0  0  0  0  0  0  0  0  0  0  0
    2.5708   -0.1167    0.0000 C   0  0  3  0  0  0  0  0  0  0  0  0
   -0.2833   -0.1167    0.0000 Br  0  0  0  0  0  0  0  0  0  0  0  0
    0.4292    0.2958    0.0000 C   0  0  0  0  0  0  0  0  0  0  0  0
    2.5667   -0.9458    0.0000 C   0  0  0  0  0  0  0  0  0  0  0  0
    3.2792    0.2958    0.0000 C   0  0  0  0  0  0  0  0  0  0  0  0
    3.9958   -0.1208    0.0000 C   0  0  0  0  0  0  0  0  0  0  0  0
    3.2750   -1.3583    0.0000 C   0  0  0  0  0  0  0  0  0  0  0  0
    3.9917   -0.9500    0.0000 C   0  0  0  0  0  0  0  0  0  0  0  0
  1  2  1  0  0  0  0
  1  3  2  0  0  0  0
  2  4  1  0  0  0  0
  5  6  1  0  0  0  0
  1  6  1  0  0  0  0
  4  7  1  0  0  0  0
  4  8  1  0  0  0  0
  8  9  1  0  0  0  0
  7 10  1  0  0  0  0
  9 11  1  0  0  0  0
 10 11  1  0  0  0  0
M  END
> <MOLFORMULA>
C8 H14 Br N O

> <MOLWEIGHT>
2.201086000000000e+002

> <IDNUMBER>
AT-084/J175039

> <PRICE>
EUR 37.00/10 mg

> <Similarity score>
0.73

$$$$

  -OEChem-04102411502D

 28 28  0     0  0  0  0  0  0999 V2000
   -2.4292    1.3292    0.0000 C   0  0  0  0  0  0  0  0  0  0  0  0
   -3.1417    0.9167    0.0000 N   0  0  0  0  0  0  0  0  0  0  0  0
   -2.4250    2.1542    0.0000 O   0  0  0  0  0  0  0  0  0  0  0  0
    5.4042    0.8958    0.0000 S   0  0  0  0  0  0  0  0  0  0  0  0
   -3.8583    1.3333    0.0000 C   0  0  3  0  0  0  0  0  0  0  0  0
   -1.7208    0.9208    0.0000 C   0  0  0  0  0  0  0  0  0  0  0  0
    4.6917    1.3083    0.0000 C   0  0  0  0  0  0  0  0  0  0  0  0
    6.1167    1.3083    0.0000 C   0  0  0  0  0  0  0  0  0  0  0  0
   -3.8583    2.1583    0.0000 C   0  0  0  0  0  0  0  0  0  0  0  0
   -4.5708    0.9208    0.0000 C   0  0  0  0  0  0  0  0  0  0  0  0
   -1.0083    1.3250    0.0000 C   0  0  0  0  0  0  0  0  0  0  0  0
    3.9792    0.9000    0.0000 C   0  0  0  0  0  0  0  0  0  0  0  0
    6.8292    0.8958    0.0000 C   0  0  0  0  0  0  0  0  0  0  0  0
   10.3917    1.3083    0.0000 C   0  0  0  0  0  0  0  0  0  0  0  0
    9.6792    0.8958    0.0000 C   0  0  0  0  0  0  0  0  0  0  0  0
    0.4167    1.3208    0.0000 C   0  0  0  0  0  0  0  0  0  0  0  0
    1.1292    0.9083    0.0000 C   0  0  0  0  0  0  0  0  0  0  0  0
    1.8417    1.3208    0.0000 C   0  0  0  0  0  0  0  0  0  0  0  0
    2.5542    0.9083    0.0000 C   0  0  0  0  0  0  0  0  0  0  0  0
    7.5417    1.3083    0.0000 C   0  0  0  0  0  0  0  0  0  0  0  0
    8.2542    0.8958    0.0000 C   0  0  0  0  0  0  0  0  0  0  0  0
    8.9667    1.3083    0.0000 C   0  0  0  0  0  0  0  0  0  0  0  0
    3.2667    1.3125    0.0000 C   0  0  0  0  0  0  0  0  0  0  0  0
   -0.2958    0.9125    0.0000 C   0  0  0  0  0  0  0  0  0  0  0  0
   11.1042    0.8958    0.0000 C   0  0  0  0  0  0  0  0  0  0  0  0
   -5.2833    1.3333    0.0000 C   0  0  0  0  0  0  0  0  0  0  0  0
   -4.5708    2.5708    0.0000 C   0  0  0  0  0  0  0  0  0  0  0  0
   -5.2833    2.1583    0.0000 C   0  0  0  0  0  0  0  0  0  0  0  0
  1  2  1  0  0  0  0
  1  3  2  0  0  0  0
  4  7  1  0  0  0  0
  2  5  1  0  0  0  0
  1  6  1  0  0  0  0
  7 12  1  0  0  0  0
  4  8  1  0  0  0  0
  5  9  1  0  0  0  0
  5 10  1  0  0  0  0
  6 11  1  0  0  0  0
 12 23  1  0  0  0  0
  8 13  1  0  0  0  0
 14 15  1  0  0  0  0
 15 22  1  0  0  0  0
 16 24  1  0  0  0  0
 16 17  1  0  0  0  0
 17 18  1  0  0  0  0
 18 19  1  0  0  0  0
 13 20  1  0  0  0  0
 20 21  1  0  0  0  0
 21 22  1  0  0  0  0
 19 23  1  0  0  0  0
 11 24  1  0  0  0  0
 14 25  1  0  0  0  0
 10 26  1  0  0  0  0
  9 27  1  0  0  0  0
 27 28  1  0  0  0  0
 26 28  1  0  0  0  0
M  END
> <MOLFORMULA>
C25 H49 N O S

> <MOLWEIGHT>
4.117341000000000e+002

> <IDNUMBER>
AT-819/OC11471

> <PRICE>
EUR 192/10 mg

> <Similarity score>
0.72

$$$$

  -OEChem-04102411502D

 14 14  0     0  0  0  0  0  0999 V2000
    0.0750   -0.0000    0.0000 C   0  0  0  0  0  0  0  0  0  0  0  0
    2.7250    0.0958    0.0000 C   0  0  0  0  0  0  0  0  0  0  0  0
   -0.6792    0.6208    0.0000 N   0  0  0  0  0  0  0  0  0  0  0  0
   -0.0708   -0.9833    0.0000 O   0  0  0  0  0  0  0  0  0  0  0  0
    2.8875    1.0792    0.0000 O   0  0  0  0  0  0  0  0  0  0  0  0
    1.0125    0.3625    0.0000 C   0  0  0  0  0  0  0  0  0  0  0  0
    1.7875   -0.2583    0.0000 C   0  0  0  0  0  0  0  0  0  0  0  0
    3.5083   -0.5250    0.0000 O   0  0  0  0  0  0  0  0  0  0  0  0
   -1.6292    0.2500    0.0000 C   0  0  3  0  0  0  0  0  0  0  0  0
   -2.3917    0.8833    0.0000 C   0  0  0  0  0  0  0  0  0  0  0  0
   -1.7875   -0.7292    0.0000 C   0  0  0  0  0  0  0  0  0  0  0  0
   -2.7292   -1.0750    0.0000 C   0  0  0  0  0  0  0  0  0  0  0  0
   -3.3458    0.5375    0.0000 C   0  0  0  0  0  0  0  0  0  0  0  0
   -3.5125   -0.4417    0.0000 C   0  0  0  0  0  0  0  0  0  0  0  0
  2  7  1  0  0  0  0
  1  3  1  0  0  0  0
  1  4  2  0  0  0  0
  2  5  2  0  0  0  0
  1  6  1  0  0  0  0
  6  7  1  0  0  0  0
  2  8  1  0  0  0  0
  3  9  1  0  0  0  0
  9 10  1  0  0  0  0
  9 11  1  0  0  0  0
 11 12  1  0  0  0  0
 10 13  1  0  0  0  0
 12 14  1  0  0  0  0
 13 14  1  0  0  0  0
M  END
> <MOLFORMULA>
C10 H17 N O3

> <MOLWEIGHT>
1.992483000000000e+002

> <IDNUMBER>
AN-153/I144892

> <PRICE>
EUR 130/10 mg

> <Similarity score>
0.72

$$$$

  -OEChem-04102411502D

 14 14  0     0  0  0  0  0  0999 V2000
    3.9667   -4.5917    0.0000 C   0  0  0  0  0  0  0  0  0  0  0  0
    0.6750   -3.4542    0.0000 C   0  0  0  0  0  0  0  0  0  0  0  0
    4.6417   -3.4417    0.0000 N   0  0  0  0  0  0  0  0  0  0  0  0
    4.6417   -5.7417    0.0000 O   0  0  0  0  0  0  0  0  0  0  0  0
    0.0000   -2.3042    0.0000 O   0  0  0  0  0  0  0  0  0  0  0  0
    2.6500   -4.5917    0.0000 C   0  0  0  0  0  0  0  0  0  0  0  0
    1.9917   -3.4542    0.0000 C   0  0  0  0  0  0  0  0  0  0  0  0
    0.0000   -4.6042    0.0000 O   0  0  0  0  0  0  0  0  0  0  0  0
    3.9792   -2.2917    0.0000 C   0  0  3  0  0  0  0  0  0  0  0  0
    4.6792   -1.1542    0.0000 C   0  0  0  0  0  0  0  0  0  0  0  0
    2.6542   -2.3042    0.0000 C   0  0  0  0  0  0  0  0  0  0  0  0
    2.0000   -1.1542    0.0000 C   0  0  0  0  0  0  0  0  0  0  0  0
    4.0292   -0.0167    0.0000 C   0  0  0  0  0  0  0  0  0  0  0  0
    2.6792   -0.0000    0.0000 C   0  0  0  0  0  0  0  0  0  0  0  0
  2  7  1  0  0  0  0
  1  3  1  0  0  0  0
  1  4  2  0  0  0  0
  2  5  2  0  0  0  0
  1  6  1  0  0  0  0
  6  7  1  0  0  0  0
  2  8  1  0  0  0  0
  3  9  1  0  0  0  0
  9 10  1  0  0  0  0
  9 11  1  0  0  0  0
 11 12  1  0  0  0  0
 10 13  1  0  0  0  0
 12 14  1  0  0  0  0
 13 14  1  0  0  0  0
M  END
> <MOLFORMULA>
C10 H17 N O3

> <MOLWEIGHT>
1.992483000000000e+002

> <IDNUMBER>
AT-084/J161089

> <PRICE>
EUR 37.00/10 mg

> <Similarity score>
0.72

$$$$

  -OEChem-04102411502D

 11 11  0     0  0  0  0  0  0999 V2000
    4.3917   -1.2500    0.0000 C   0  0  0  0  0  0  0  0  0  0  0  0
    3.4000   -0.3542    0.0000 N   0  0  0  0  0  0  0  0  0  0  0  0
    5.6542   -0.8417    0.0000 C   0  0  0  0  0  0  0  0  0  0  0  0
    4.1042   -2.5500    0.0000 O   0  0  0  0  0  0  0  0  0  0  0  0
    2.1417   -0.7750    0.0000 C   0  0  3  0  0  0  0  0  0  0  0  0
    7.9000   -1.3250    0.0000 Cl  0  0  0  0  0  0  0  0  0  0  0  0
    6.6500   -1.7292    0.0000 C   0  0  0  0  0  0  0  0  0  0  0  0
    1.7250   -2.0417    0.0000 C   0  0  0  0  0  0  0  0  0  0  0  0
    1.0667   -0.0000    0.0000 C   0  0  0  0  0  0  0  0  0  0  0  0
    0.0000   -0.7750    0.0000 C   0  0  0  0  0  0  0  0  0  0  0  0
    0.4000   -2.0417    0.0000 C   0  0  0  0  0  0  0  0  0  0  0  0
  1  2  1  0  0  0  0
  1  3  1  0  0  0  0
  1  4  2  0  0  0  0
  2  5  1  0  0  0  0
  6  7  1  0  0  0  0
  3  7  1  0  0  0  0
  5  8  1  0  0  0  0
  5  9  1  0  0  0  0
  9 10  1  0  0  0  0
  8 11  1  0  0  0  0
 10 11  1  0  0  0  0
M  END
> <MOLFORMULA>
C8 H14 Cl N O

> <MOLWEIGHT>
1.756576000000000e+002

> <IDNUMBER>
AT-687/PE32685

> <PRICE>
EUR 80/10 mg

> <Similarity score>
0.70

$$$$

  -OEChem-04102411502D

 11 11  0     0  0  0  0  0  0999 V2000
    4.3917   -1.2542    0.0000 C   0  0  0  0  0  0  0  0  0  0  0  0
    3.4042   -0.3625    0.0000 N   0  0  0  0  0  0  0  0  0  0  0  0
    5.6625   -0.8417    0.0000 C   0  0  0  0  0  0  0  0  0  0  0  0
    4.1125   -2.5542    0.0000 O   0  0  0  0  0  0  0  0  0  0  0  0
    2.1417   -0.7750    0.0000 C   0  0  3  0  0  0  0  0  0  0  0  0
    7.9042   -1.3250    0.0000 Cl  0  0  0  0  0  0  0  0  0  0  0  0
    6.6500   -1.7375    0.0000 C   0  0  0  0  0  0  0  0  0  0  0  0
    1.7292   -2.0417    0.0000 C   0  0  0  0  0  0  0  0  0  0  0  0
    1.0667   -0.0000    0.0000 C   0  0  0  0  0  0  0  0  0  0  0  0
    0.4000   -2.0417    0.0000 C   0  0  0  0  0  0  0  0  0  0  0  0
    0.0000   -0.7750    0.0000 C   0  0  0  0  0  0  0  0  0  0  0  0
  1  2  1  0  0  0  0
  1  3  1  0  0  0  0
  1  4  2  0  0  0  0
  2  5  1  0  0  0  0
  6  7  1  0  0  0  0
  3  7  1  0  0  0  0
  5  8  1  0  0  0  0
  5  9  1  0  0  0  0
  8 10  1  0  0  0  0
  9 11  1  0  0  0  0
 10 11  1  0  0  0  0
M  END
> <MOLFORMULA>
C8 H14 Cl N O

> <MOLWEIGHT>
1.756576000000000e+002

> <IDNUMBER>
AT-687/NB01599

> <PRICE>
EUR 80/10 mg

> <Similarity score>
0.70

$$$$

  -OEChem-04102411502D

 11 11  0     0  0  0  0  0  0999 V2000
   -0.3583   -0.3542    0.0000 C   0  0  0  0  0  0  0  0  0  0  0  0
   -0.8583    0.5083    0.0000 N   0  0  0  0  0  0  0  0  0  0  0  0
   -0.8583   -1.2167    0.0000 C   0  0  0  0  0  0  0  0  0  0  0  0
    0.6417   -0.3542    0.0000 O   0  0  0  0  0  0  0  0  0  0  0  0
   -0.3583    1.3750    0.0000 C   0  0  3  0  0  0  0  0  0  0  0  0
   -0.8583   -2.9542    0.0000 Cl  0  0  0  0  0  0  0  0  0  0  0  0
   -0.3583   -2.0875    0.0000 C   0  0  0  0  0  0  0  0  0  0  0  0
   -0.7583    2.2875    0.0000 C   0  0  0  0  0  0  0  0  0  0  0  0
    0.6417    1.4833    0.0000 C   0  0  0  0  0  0  0  0  0  0  0  0
    0.8500    2.4583    0.0000 C   0  0  0  0  0  0  0  0  0  0  0  0
   -0.0208    2.9583    0.0000 C   0  0  0  0  0  0  0  0  0  0  0  0
  1  2  1  0  0  0  0
  1  3  1  0  0  0  0
  1  4  2  0  0  0  0
  2  5  1  0  0  0  0
  6  7  1  0  0  0  0
  3  7  1  0  0  0  0
  5  8  1  0  0  0  0
  5  9  1  0  0  0  0
  9 10  1  0  0  0  0
  8 11  1  0  0  0  0
 10 11  1  0  0  0  0
M  END
> <MOLFORMULA>
C8 H14 Cl N O

> <MOLWEIGHT>
1.756576000000000e+002

> <IDNUMBER>
AN-153/KC13156

> <PRICE>
EUR 130/10 mg

> <Similarity score>
0.70

$$$$

  -OEChem-04102411502D

 11 11  0     0  0  0  0  0  0999 V2000
    0.4292    1.0000    0.0000 C   0  0  0  0  0  0  0  0  0  0  0  0
   -0.4333    0.5000    0.0000 N   0  0  0  0  0  0  0  0  0  0  0  0
    1.2917    0.5000    0.0000 O   0  0  0  0  0  0  0  0  0  0  0  0
    1.2917    2.5000    0.0000 N   0  0  0  0  0  0  0  0  0  0  0  0
   -0.4333   -0.4917    0.0000 C   0  0  3  0  0  0  0  0  0  0  0  0
    0.4292    2.0000    0.0000 C   0  0  0  0  0  0  0  0  0  0  0  0
   -1.3000   -0.9917    0.0000 C   0  0  0  0  0  0  0  0  0  0  0  0
    0.4292   -1.0000    0.0000 C   0  0  0  0  0  0  0  0  0  0  0  0
    0.4292   -2.0000    0.0000 C   0  0  0  0  0  0  0  0  0  0  0  0
   -1.3000   -1.9917    0.0000 C   0  0  0  0  0  0  0  0  0  0  0  0
   -0.4333   -2.5000    0.0000 C   0  0  0  0  0  0  0  0  0  0  0  0
  1  2  1  0  0  0  0
  1  3  2  0  0  0  0
  4  6  1  0  0  0  0
  2  5  1  0  0  0  0
  1  6  1  0  0  0  0
  5  7  1  0  0  0  0
  5  8  1  0  0  0  0
  8  9  1  0  0  0  0
  7 10  1  0  0  0  0
  9 11  1  0  0  0  0
 10 11  1  0  0  0  0
M  END
> <MOLFORMULA>
C8 H16 N2 O

> <MOLWEIGHT>
1.562274000000000e+002

> <IDNUMBER>
AN-153/KC15557

> <PRICE>
EUR 130/10 mg

> <Similarity score>
0.70

$$$$

  -OEChem-04102411502D

 19 19  0     0  0  0  0  0  0999 V2000
    0.2667    0.6458    0.0000 C   0  0  0  0  0  0  0  0  0  0  0  0
    0.9792    0.2375    0.0000 N   0  0  0  0  0  0  0  0  0  0  0  0
    0.2625    1.4708    0.0000 O   0  0  0  0  0  0  0  0  0  0  0  0
    1.6917    0.6500    0.0000 C   0  0  3  0  0  0  0  0  0  0  0  0
   -2.5833   -1.0042    0.0000 Br  0  0  0  0  0  0  0  0  0  0  0  0
   -0.4458    0.2333    0.0000 C   0  0  0  0  0  0  0  0  0  0  0  0
   -3.3000   -0.6000    0.0000 C   0  0  0  0  0  0  0  0  0  0  0  0
    2.4417    0.3208    0.0000 C   0  0  0  0  0  0  0  0  0  0  0  0
    1.7750    1.4708    0.0000 C   0  0  0  0  0  0  0  0  0  0  0  0
   -1.1583    0.6458    0.0000 C   0  0  0  0  0  0  0  0  0  0  0  0
   -4.0208   -1.0167    0.0000 C   0  0  0  0  0  0  0  0  0  0  0  0
   -4.7250   -0.6042    0.0000 C   0  0  0  0  0  0  0  0  0  0  0  0
   -4.0083    0.6333    0.0000 C   0  0  0  0  0  0  0  0  0  0  0  0
   -3.2958    0.2250    0.0000 C   0  0  0  0  0  0  0  0  0  0  0  0
   -2.5833    0.6375    0.0000 C   0  0  0  0  0  0  0  0  0  0  0  0
   -1.8708    0.2333    0.0000 C   0  0  0  0  0  0  0  0  0  0  0  0
   -4.7208    0.2208    0.0000 C   0  0  0  0  0  0  0  0  0  0  0  0
    2.5792    1.6458    0.0000 C   0  0  0  0  0  0  0  0  0  0  0  0
    2.9917    0.9333    0.0000 C   0  0  0  0  0  0  0  0  0  0  0  0
  1  2  1  0  0  0  0
  1  3  2  0  0  0  0
  2  4  1  0  0  0  0
  5  7  1  0  0  0  0
  1  6  1  0  0  0  0
  7 11  1  0  0  0  0
  4  8  1  0  0  0  0
  4  9  1  0  0  0  0
  6 10  1  0  0  0  0
 11 12  1  0  0  0  0
 12 17  1  0  0  0  0
 13 14  1  0  0  0  0
 14 15  1  0  0  0  0
 15 16  1  0  0  0  0
 10 16  1  0  0  0  0
 13 17  1  0  0  0  0
  9 18  1  0  0  0  0
  8 19  1  0  0  0  0
 18 19  1  0  0  0  0
M  END
> <MOLFORMULA>
C16 H30 Br N O

> <MOLWEIGHT>
3.323230000000000e+002

> <IDNUMBER>
AT-225/JK17623

> <PRICE>
EUR 140/10 mg

> <Similarity score>
0.69

$$$$

  -OEChem-04102411502D

 11 11  0     0  0  0  0  0  0999 V2000
    2.5000    1.0583    0.0000 C   0  0  0  0  0  0  0  0  0  0  0  0
    0.7917    2.0458    0.0000 N   0  0  0  0  0  0  0  0  0  0  0  0
    4.2000    2.0458    0.0000 O   0  0  0  0  0  0  0  0  0  0  0  0
   -0.9083    1.0208    0.0000 C   0  0  3  0  0  0  0  0  0  0  0  0
    0.7917   -1.9042    0.0000 Cl  0  0  0  0  0  0  0  0  0  0  0  0
    2.5000   -0.9167    0.0000 C   0  0  0  0  0  0  0  0  0  0  0  0
   -0.9083   -0.9167    0.0000 C   0  0  0  0  0  0  0  0  0  0  0  0
   -2.6458    2.0458    0.0000 C   0  0  0  0  0  0  0  0  0  0  0  0
   -4.3458    1.0583    0.0000 C   0  0  0  0  0  0  0  0  0  0  0  0
   -2.6083   -1.9042    0.0000 C   0  0  0  0  0  0  0  0  0  0  0  0
   -4.3458   -0.9167    0.0000 C   0  0  0  0  0  0  0  0  0  0  0  0
  1  2  1  0  0  0  0
  1  3  2  0  0  0  0
  2  4  1  0  0  0  0
  5  6  1  0  0  0  0
  1  6  1  0  0  0  0
  4  7  1  0  0  0  0
  4  8  1  0  0  0  0
  8  9  1  0  0  0  0
  7 10  1  0  0  0  0
  9 11  1  0  0  0  0
 10 11  1  0  0  0  0
M  END
> <MOLFORMULA>
C8 H14 Cl N O

> <MOLWEIGHT>
1.756576000000000e+002

> <IDNUMBER>
AS-970/QB02561

> <Similarity score>
0.68

$$$$

  -OEChem-04102411502D

 11 11  0     0  0  0  0  0  0999 V2000
    4.5917   -0.6792    0.0000 C   0  0  0  0  0  0  0  0  0  0  0  0
    3.4500   -0.0125    0.0000 N   0  0  0  0  0  0  0  0  0  0  0  0
    4.5917   -2.0167    0.0000 O   0  0  0  0  0  0  0  0  0  0  0  0
    2.2792   -0.6792    0.0000 C   0  0  3  0  0  0  0  0  0  0  0  0
    6.9000   -0.6917    0.0000 Cl  0  0  0  0  0  0  0  0  0  0  0  0
    5.7542   -0.0167    0.0000 C   0  0  0  0  0  0  0  0  0  0  0  0
    1.1417   -0.0000    0.0000 C   0  0  0  0  0  0  0  0  0  0  0  0
    2.2792   -2.0042    0.0000 C   0  0  0  0  0  0  0  0  0  0  0  0
    0.0000   -0.6792    0.0000 C   0  0  0  0  0  0  0  0  0  0  0  0
    1.1417   -2.6667    0.0000 C   0  0  0  0  0  0  0  0  0  0  0  0
    0.0000   -2.0042    0.0000 C   0  0  0  0  0  0  0  0  0  0  0  0
  1  2  1  0  0  0  0
  1  3  2  0  0  0  0
  2  4  1  0  0  0  0
  5  6  1  0  0  0  0
  1  6  1  0  0  0  0
  4  7  1  0  0  0  0
  4  8  1  0  0  0  0
  7  9  1  0  0  0  0
  8 10  1  0  0  0  0
 10 11  1  0  0  0  0
  9 11  1  0  0  0  0
M  END
> <MOLFORMULA>
C8 H14 Cl N O

> <MOLWEIGHT>
1.756576000000000e+002

> <IDNUMBER>
AT-687/NB07567

> <PRICE>
EUR 80/10 mg

> <Similarity score>
0.68

$$$$

  -OEChem-04102411502D

 11 11  0     0  0  0  0  0  0999 V2000
   -1.2500    0.2000    0.0000 C   0  0  0  0  0  0  0  0  0  0  0  0
   -0.1333    1.1000    0.0000 N   0  0  0  0  0  0  0  0  0  0  0  0
   -1.0250   -1.2042    0.0000 O   0  0  0  0  0  0  0  0  0  0  0  0
    1.2000    0.5833    0.0000 C   0  0  3  0  0  0  0  0  0  0  0  0
   -3.7000   -0.1750    0.0000 Cl  0  0  0  0  0  0  0  0  0  0  0  0
   -2.5833    0.7250    0.0000 C   0  0  0  0  0  0  0  0  0  0  0  0
    1.4167   -0.8250    0.0000 C   0  0  0  0  0  0  0  0  0  0  0  0
    2.3167    1.4833    0.0000 C   0  0  0  0  0  0  0  0  0  0  0  0
    3.6500    0.9583    0.0000 C   0  0  0  0  0  0  0  0  0  0  0  0
    2.7500   -1.3500    0.0000 C   0  0  0  0  0  0  0  0  0  0  0  0
    3.8750   -0.4500    0.0000 C   0  0  0  0  0  0  0  0  0  0  0  0
  1  2  1  0  0  0  0
  1  3  2  0  0  0  0
  2  4  1  0  0  0  0
  5  6  1  0  0  0  0
  1  6  1  0  0  0  0
  4  7  1  0  0  0  0
  4  8  1  0  0  0  0
  8  9  1  0  0  0  0
  7 10  1  0  0  0  0
  9 11  1  0  0  0  0
 10 11  1  0  0  0  0
M  END
> <MOLFORMULA>
C8 H14 Cl N O

> <MOLWEIGHT>
1.756576000000000e+002

> <IDNUMBER>
AT-687/PE33900

> <PRICE>
EUR 80/10 mg

> <Similarity score>
0.68

$$$$

  -OEChem-04102411502D

 11 11  0     0  0  0  0  0  0999 V2000
   -0.7500   -0.8625    0.0000 C   0  0  0  0  0  0  0  0  0  0  0  0
    0.2500   -0.8625    0.0000 N   0  0  0  0  0  0  0  0  0  0  0  0
   -1.2500   -0.0000    0.0000 O   0  0  0  0  0  0  0  0  0  0  0  0
    0.7458   -0.0000    0.0000 C   0  0  3  0  0  0  0  0  0  0  0  0
   -2.2500   -1.7292    0.0000 Cl  0  0  0  0  0  0  0  0  0  0  0  0
   -1.2500   -1.7292    0.0000 C   0  0  0  0  0  0  0  0  0  0  0  0
    1.7458   -0.0000    0.0000 C   0  0  0  0  0  0  0  0  0  0  0  0
    0.2500    0.8667    0.0000 C   0  0  0  0  0  0  0  0  0  0  0  0
    2.2500    0.8667    0.0000 C   0  0  0  0  0  0  0  0  0  0  0  0
    0.7458    1.7333    0.0000 C   0  0  0  0  0  0  0  0  0  0  0  0
    1.7458    1.7333    0.0000 C   0  0  0  0  0  0  0  0  0  0  0  0
  1  2  1  0  0  0  0
  1  3  2  0  0  0  0
  2  4  1  0  0  0  0
  5  6  1  0  0  0  0
  1  6  1  0  0  0  0
  4  7  1  0  0  0  0
  4  8  1  0  0  0  0
  7  9  1  0  0  0  0
  8 10  1  0  0  0  0
 10 11  1  0  0  0  0
  9 11  1  0  0  0  0
M  END
> <MOLFORMULA>
C8 H14 Cl N O

> <MOLWEIGHT>
1.756576000000000e+002

> <IDNUMBER>
AN-153/I101094

> <PRICE>
EUR 130/10 mg

> <Similarity score>
0.68

$$$$

  -OEChem-04102411502D

 11 11  0     0  0  0  0  0  0999 V2000
   -0.0583   -0.1875    0.0000 C   0  0  0  0  0  0  0  0  0  0  0  0
   -0.7708    0.2333    0.0000 N   0  0  0  0  0  0  0  0  0  0  0  0
   -0.0583   -1.0125    0.0000 O   0  0  0  0  0  0  0  0  0  0  0  0
   -1.4875   -0.1792    0.0000 C   0  0  3  0  0  0  0  0  0  0  0  0
    1.3667   -0.1917    0.0000 Cl  0  0  0  0  0  0  0  0  0  0  0  0
    0.6542    0.2250    0.0000 C   0  0  0  0  0  0  0  0  0  0  0  0
   -2.2000    0.2333    0.0000 C   0  0  0  0  0  0  0  0  0  0  0  0
   -1.4875   -1.0042    0.0000 C   0  0  0  0  0  0  0  0  0  0  0  0
   -2.9083   -0.1792    0.0000 C   0  0  0  0  0  0  0  0  0  0  0  0
   -2.2000   -1.4167    0.0000 C   0  0  0  0  0  0  0  0  0  0  0  0
   -2.9083   -1.0042    0.0000 C   0  0  0  0  0  0  0  0  0  0  0  0
  1  2  1  0  0  0  0
  1  3  2  0  0  0  0
  2  4  1  0  0  0  0
  5  6  1  0  0  0  0
  1  6  1  0  0  0  0
  4  7  1  0  0  0  0
  4  8  1  0  0  0  0
  7  9  1  0  0  0  0
  8 10  1  0  0  0  0
 10 11  1  0  0  0  0
  9 11  1  0  0  0  0
M  END
> <MOLFORMULA>
C8 H14 Cl N O

> <MOLWEIGHT>
1.756576000000000e+002

> <IDNUMBER>
AT-225/JK21302

> <PRICE>
EUR 140/10 mg

> <Similarity score>
0.68

$$$$

  -OEChem-04102411502D

 16 16  0     0  0  0  0  0  0999 V2000
    0.4958   -1.2958    0.0000 C   0  0  0  0  0  0  0  0  0  0  0  0
   -0.5000   -1.2958    0.0000 N   0  0  0  0  0  0  0  0  0  0  0  0
    1.0000   -2.1625    0.0000 O   0  0  0  0  0  0  0  0  0  0  0  0
    1.0000   -0.4292    0.0000 C   0  0  0  0  0  0  0  0  0  0  0  0
    0.4958    0.4333    0.0000 C   0  0  0  0  0  0  0  0  0  0  0  0
   -1.0000   -2.1625    0.0000 C   0  0  3  0  0  0  0  0  0  0  0  0
    1.0000    1.3000    0.0000 C   0  0  3  0  0  0  0  0  0  0  0  0
    0.4958    2.1667    0.0000 C   0  0  0  0  0  0  0  0  0  0  0  0
    1.9958    1.3000    0.0000 C   0  0  0  0  0  0  0  0  0  0  0  0
   -0.5000   -3.0292    0.0000 C   0  0  0  0  0  0  0  0  0  0  0  0
   -2.0042   -2.1625    0.0000 C   0  0  0  0  0  0  0  0  0  0  0  0
    0.4958   -3.0292    0.0000 C   0  0  0  0  0  0  0  0  0  0  0  0
   -2.5000   -3.0292    0.0000 C   0  0  0  0  0  0  0  0  0  0  0  0
    2.4958    2.1667    0.0000 C   0  0  0  0  0  0  0  0  0  0  0  0
    1.0000    3.0333    0.0000 C   0  0  0  0  0  0  0  0  0  0  0  0
    1.9958    3.0333    0.0000 C   0  0  0  0  0  0  0  0  0  0  0  0
  1  2  1  0  0  0  0
  1  3  2  0  0  0  0
  1  4  1  0  0  0  0
  4  5  1  0  0  0  0
  2  6  1  0  0  0  0
  5  7  1  0  0  0  0
  7  8  1  0  0  0  0
  7  9  1  0  0  0  0
  6 10  1  0  0  0  0
  6 11  1  0  0  0  0
 10 12  1  0  0  0  0
 11 13  1  0  0  0  0
  9 14  1  0  0  0  0
  8 15  1  0  0  0  0
 14 16  1  0  0  0  0
 15 16  1  0  0  0  0
M  END
> <MOLFORMULA>
C14 H27 N O

> <MOLWEIGHT>
2.253733000000000e+002

> <IDNUMBER>
AN-153/NB16472

> <PRICE>
EUR 130/10 mg

> <Similarity score>
0.68

$$$$

  -OEChem-04102411502D

 17 17  0     0  0  0  0  0  0999 V2000
    1.2417   -0.8417    0.0000 C   0  0  0  0  0  0  0  0  0  0  0  0
    0.7542    0.0208    0.0000 N   0  0  0  0  0  0  0  0  0  0  0  0
    0.7542   -1.7167    0.0000 N   0  0  0  0  0  0  0  0  0  0  0  0
   -0.7458    0.8833    0.0000 C   0  0  0  0  0  0  0  0  0  0  0  0
   -0.2583    0.0208    0.0000 N   0  0  0  0  0  0  0  0  0  0  0  0
    2.2417   -0.8417    0.0000 O   0  0  0  0  0  0  0  0  0  0  0  0
   -1.7583    0.8833    0.0000 O   0  0  0  0  0  0  0  0  0  0  0  0
   -0.2583   -1.7167    0.0000 C   0  0  3  0  0  0  0  0  0  0  0  0
   -0.2583    1.7375    0.0000 C   0  0  0  0  0  0  0  0  0  0  0  0
   -0.7625   -0.8542    0.0000 C   0  0  0  0  0  0  0  0  0  0  0  0
   -0.7458   -2.5750    0.0000 C   0  0  0  0  0  0  0  0  0  0  0  0
    0.7542    1.7375    0.0000 C   0  0  0  0  0  0  0  0  0  0  0  0
    1.2667    2.5958    0.0000 C   0  0  0  0  0  0  0  0  0  0  0  0
   -1.7583   -0.8542    0.0000 C   0  0  0  0  0  0  0  0  0  0  0  0
   -1.7583   -2.5917    0.0000 C   0  0  0  0  0  0  0  0  0  0  0  0
   -2.2458   -1.7292    0.0000 C   0  0  0  0  0  0  0  0  0  0  0  0
    0.0542   -0.7625    0.0000 H   0  0  0  0  0  0  0  0  0  0  0  0
  1  2  1  0  0  0  0
  1  3  1  0  0  0  0
  4  5  1  0  0  0  0
  2  5  1  0  0  0  0
  1  6  2  0  0  0  0
  4  7  2  0  0  0  0
  3  8  1  0  0  0  0
  4  9  1  0  0  0  0
  8 10  1  0  0  0  0
  8 11  1  0  0  0  0
  9 12  1  0  0  0  0
 12 13  1  0  0  0  0
 10 14  1  0  0  0  0
 11 15  1  0  0  0  0
 15 16  1  0  0  0  0
  8 17  1  0  0  0  0
 14 16  1  0  0  0  0
M  END
> <MOLFORMULA>
C11 H21 N3 O2

> <MOLWEIGHT>
2.273059000000000e+002

> <IDNUMBER>
AN-153/MC00307

> <PRICE>
EUR 130/10 mg

> <Similarity score>
0.68

$$$$

  -OEChem-04102411502D

 16 16  0     0  0  0  0  0  0999 V2000
    4.8125    1.3458    0.0000 C   0  0  0  0  0  0  0  0  0  0  0  0
    4.1667    0.9708    0.0000 N   0  0  0  0  0  0  0  0  0  0  0  0
    5.4625    0.9708    0.0000 N   0  0  0  0  0  0  0  0  0  0  0  0
    2.8667    0.9708    0.0000 C   0  0  0  0  0  0  0  0  0  0  0  0
    3.5167    1.3458    0.0000 N   0  0  0  0  0  0  0  0  0  0  0  0
    4.8125    2.0958    0.0000 O   0  0  0  0  0  0  0  0  0  0  0  0
    2.8667    0.2208    0.0000 O   0  0  0  0  0  0  0  0  0  0  0  0
    6.1125    1.3458    0.0000 C   0  0  3  0  0  0  0  0  0  0  0  0
    2.2167    1.3458    0.0000 C   0  0  0  0  0  0  0  0  0  0  0  0
    6.7625    0.9708    0.0000 C   0  0  0  0  0  0  0  0  0  0  0  0
    6.1125    2.0958    0.0000 C   0  0  0  0  0  0  0  0  0  0  0  0
    1.5667    0.9708    0.0000 C   0  0  0  0  0  0  0  0  0  0  0  0
    0.9167    1.3458    0.0000 C   0  0  0  0  0  0  0  0  0  0  0  0
    6.7625    2.4708    0.0000 C   0  0  0  0  0  0  0  0  0  0  0  0
    7.4125    1.3458    0.0000 C   0  0  0  0  0  0  0  0  0  0  0  0
    7.4125    2.0958    0.0000 C   0  0  0  0  0  0  0  0  0  0  0  0
  1  2  1  0  0  0  0
  1  3  1  0  0  0  0
  4  5  1  0  0  0  0
  2  5  1  0  0  0  0
  1  6  2  0  0  0  0
  4  7  2  0  0  0  0
  3  8  1  0  0  0  0
  4  9  1  0  0  0  0
  8 10  1  0  0  0  0
  8 11  1  0  0  0  0
  9 12  1  0  0  0  0
 12 13  1  0  0  0  0
 11 14  1  0  0  0  0
 10 15  1  0  0  0  0
 14 16  1  0  0  0  0
 15 16  1  0  0  0  0
M  END
> <MOLFORMULA>
C11 H21 N3 O2

> <MOLWEIGHT>
2.273059000000000e+002

> <IDNUMBER>
AT-084/NB10119

> <PRICE>
EUR 37.00/10 mg

> <Similarity score>
0.68

$$$$

  -OEChem-04102411502D

 19 19  0     0  0  0  0  0  0999 V2000
   -2.9708   -1.9042    0.0000 C   0  0  0  0  0  0  0  0  0  0  0  0
   -3.6833   -1.4917    0.0000 C   0  0  0  0  0  0  0  0  0  0  0  0
   -0.8167    0.9833    0.0000 C   0  0  0  0  0  0  0  0  0  0  0  0
   -0.1042    0.5708    0.0000 N   0  0  0  0  0  0  0  0  0  0  0  0
   -0.8167    1.8083    0.0000 O   0  0  0  0  0  0  0  0  0  0  0  0
    0.6042    0.9958    0.0000 C   0  0  3  0  0  0  0  0  0  0  0  0
   -3.6833   -0.6667    0.0000 C   0  0  0  0  0  0  0  0  0  0  0  0
   -2.9750   -2.7292    0.0000 C   0  0  0  0  0  0  0  0  0  0  0  0
   -1.5333    0.5708    0.0000 C   0  0  0  0  0  0  0  0  0  0  0  0
    1.3250    0.5875    0.0000 C   0  0  0  0  0  0  0  0  0  0  0  0
    0.5958    1.8125    0.0000 C   0  0  0  0  0  0  0  0  0  0  0  0
   -4.3958   -0.2542    0.0000 C   0  0  0  0  0  0  0  0  0  0  0  0
   -2.2458    0.9833    0.0000 C   0  0  0  0  0  0  0  0  0  0  0  0
   -3.6750    0.9833    0.0000 C   0  0  0  0  0  0  0  0  0  0  0  0
   -2.9625    0.5708    0.0000 C   0  0  0  0  0  0  0  0  0  0  0  0
   -4.3917    0.5708    0.0000 C   0  0  0  0  0  0  0  0  0  0  0  0
    1.3000    2.2375    0.0000 C   0  0  0  0  0  0  0  0  0  0  0  0
    2.0333    1.0083    0.0000 C   0  0  0  0  0  0  0  0  0  0  0  0
    2.0250    1.8333    0.0000 C   0  0  0  0  0  0  0  0  0  0  0  0
  1  2  3  0  0  0  0
  3  9  1  0  0  0  0
  3  4  1  0  0  0  0
  3  5  2  0  0  0  0
  4  6  1  0  0  0  0
  2  7  1  0  0  0  0
  1  8  1  0  0  0  0
  9 13  1  0  0  0  0
  6 10  1  0  0  0  0
  6 11  1  0  0  0  0
  7 12  1  0  0  0  0
 13 15  1  0  0  0  0
 14 16  1  0  0  0  0
 14 15  1  0  0  0  0
 12 16  1  0  0  0  0
 11 17  1  0  0  0  0
 10 18  1  0  0  0  0
 17 19  1  0  0  0  0
 18 19  1  0  0  0  0
M  END
> <MOLFORMULA>
C17 H29 N O

> <MOLWEIGHT>
2.634221000000000e+002

> <IDNUMBER>
AT-225/NB46351

> <PRICE>
EUR 140/10 mg

> <Similarity score>
0.67

$$$$

  -OEChem-04102411502D

 10 10  0     0  0  0  0  0  0999 V2000
    1.2375   -0.2792    0.0000 C   0  0  0  0  0  0  0  0  0  0  0  0
    1.9542    0.1333    0.0000 N   0  0  0  0  0  0  0  0  0  0  0  0
    1.2375   -1.1042    0.0000 O   0  0  0  0  0  0  0  0  0  0  0  0
    2.6667   -0.2792    0.0000 C   0  0  3  0  0  0  0  0  0  0  0  0
   -0.1875   -0.2792    0.0000 Br  0  0  0  0  0  0  0  0  0  0  0  0
    0.5250    0.1333    0.0000 C   0  0  0  0  0  0  0  0  0  0  0  0
    2.7542   -1.0917    0.0000 C   0  0  0  0  0  0  0  0  0  0  0  0
    3.4208    0.0625    0.0000 C   0  0  0  0  0  0  0  0  0  0  0  0
    3.9750   -0.5500    0.0000 C   0  0  0  0  0  0  0  0  0  0  0  0
    3.5625   -1.2667    0.0000 C   0  0  0  0  0  0  0  0  0  0  0  0
  1  2  1  0  0  0  0
  1  3  2  0  0  0  0
  2  4  1  0  0  0  0
  5  6  1  0  0  0  0
  1  6  1  0  0  0  0
  4  7  1  0  0  0  0
  4  8  1  0  0  0  0
  8  9  1  0  0  0  0
  7 10  1  0  0  0  0
  9 10  1  0  0  0  0
M  END
> <MOLFORMULA>
C7 H12 Br N O

> <MOLWEIGHT>
2.060818000000000e+002

> <IDNUMBER>
AT-084/J175481

> <PRICE>
EUR 37.00/10 mg

> <Similarity score>
0.66

$$$$

  -OEChem-04102411502D

 10 10  0     0  0  0  0  0  0999 V2000
   -0.2167    0.8042    0.0000 C   0  0  0  0  0  0  0  0  0  0  0  0
   -0.7750   -0.0292    0.0000 N   0  0  0  0  0  0  0  0  0  0  0  0
    0.7792    0.7375    0.0000 O   0  0  0  0  0  0  0  0  0  0  0  0
   -0.3333   -0.9250    0.0000 C   0  0  3  0  0  0  0  0  0  0  0  0
   -0.1000    2.5292    0.0000 Br  0  0  0  0  0  0  0  0  0  0  0  0
   -0.6583    1.7000    0.0000 C   0  0  0  0  0  0  0  0  0  0  0  0
   -0.8000   -1.8083    0.0000 C   0  0  0  0  0  0  0  0  0  0  0  0
    0.6542   -1.0958    0.0000 C   0  0  0  0  0  0  0  0  0  0  0  0
   -0.1000   -2.5250    0.0000 C   0  0  0  0  0  0  0  0  0  0  0  0
    0.7958   -2.0875    0.0000 C   0  0  0  0  0  0  0  0  0  0  0  0
  1  2  1  0  0  0  0
  1  3  2  0  0  0  0
  2  4  1  0  0  0  0
  5  6  1  0  0  0  0
  1  6  1  0  0  0  0
  4  7  1  0  0  0  0
  4  8  1  0  0  0  0
  7  9  1  0  0  0  0
  8 10  1  0  0  0  0
  9 10  1  0  0  0  0
M  END
> <MOLFORMULA>
C7 H12 Br N O

> <MOLWEIGHT>
2.060818000000000e+002

> <IDNUMBER>
AN-153/I284148

> <PRICE>
EUR 130/10 mg

> <Similarity score>
0.66

$$$$

  -OEChem-04102411502D

 15 15  0     0  0  0  0  0  0999 V2000
   -0.6542   -0.3292    0.0000 C   0  0  0  0  0  0  0  0  0  0  0  0
   -1.1542    0.5375    0.0000 N   0  0  0  0  0  0  0  0  0  0  0  0
    0.3458   -0.3292    0.0000 O   0  0  0  0  0  0  0  0  0  0  0  0
   -0.6542    1.4042    0.0000 C   0  0  3  0  0  0  0  0  0  0  0  0
   -1.1542   -1.1958    0.0000 C   0  0  0  0  0  0  0  0  0  0  0  0
   -0.6542   -2.0625    0.0000 O   0  0  0  0  0  0  0  0  0  0  0  0
   -1.1542   -2.9250    0.0000 C   0  0  0  0  0  0  0  0  0  0  0  0
    0.3375    1.2708    0.0000 C   0  0  0  0  0  0  0  0  0  0  0  0
   -1.2625    2.1958    0.0000 C   0  0  0  0  0  0  0  0  0  0  0  0
   -0.6542   -3.7917    0.0000 C   0  0  0  0  0  0  0  0  0  0  0  0
   -1.1333    3.1875    0.0000 C   0  0  0  0  0  0  0  0  0  0  0  0
    1.1292    1.8833    0.0000 C   0  0  0  0  0  0  0  0  0  0  0  0
   -0.3417    3.7958    0.0000 C   0  0  0  0  0  0  0  0  0  0  0  0
    0.6500    3.6667    0.0000 C   0  0  0  0  0  0  0  0  0  0  0  0
    1.2583    2.8750    0.0000 C   0  0  0  0  0  0  0  0  0  0  0  0
  1  2  1  0  0  0  0
  1  3  2  0  0  0  0
  2  4  1  0  0  0  0
  1  5  1  0  0  0  0
  5  6  1  0  0  0  0
  6  7  1  0  0  0  0
  4  8  1  0  0  0  0
  4  9  1  0  0  0  0
  7 10  1  0  0  0  0
  9 11  1  0  0  0  0
  8 12  1  0  0  0  0
 11 13  1  0  0  0  0
 13 14  1  0  0  0  0
 12 15  1  0  0  0  0
 14 15  1  0  0  0  0
M  END
> <MOLFORMULA>
C12 H23 N O2

> <MOLWEIGHT>
2.133187000000000e+002

> <IDNUMBER>
AN-153/I239520

> <PRICE>
EUR 130/10 mg

> <Similarity score>
0.64

$$$$

  -OEChem-04102411502D

 13 13  0     0  0  0  0  0  0999 V2000
   -0.5000   -0.4292    0.0000 C   0  0  0  0  0  0  0  0  0  0  0  0
   -1.0000    0.4333    0.0000 N   0  0  0  0  0  0  0  0  0  0  0  0
    0.5000   -0.4292    0.0000 O   0  0  0  0  0  0  0  0  0  0  0  0
   -1.0000   -1.2958    0.0000 C   0  0  0  0  0  0  0  0  0  0  0  0
   -0.5000    1.3000    0.0000 C   0  0  3  0  0  0  0  0  0  0  0  0
   -0.5000   -2.1625    0.0000 C   0  0  3  0  0  0  0  0  0  0  0  0
   -1.0000    2.1667    0.0000 C   0  0  0  0  0  0  0  0  0  0  0  0
    0.5000    1.3000    0.0000 C   0  0  0  0  0  0  0  0  0  0  0  0
   -1.0000   -3.0292    0.0000 C   0  0  0  0  0  0  0  0  0  0  0  0
    0.5000   -2.1625    0.0000 C   0  0  0  0  0  0  0  0  0  0  0  0
    1.0000    2.1667    0.0000 C   0  0  0  0  0  0  0  0  0  0  0  0
   -0.5000    3.0333    0.0000 C   0  0  0  0  0  0  0  0  0  0  0  0
    0.5000    3.0333    0.0000 C   0  0  0  0  0  0  0  0  0  0  0  0
  1  2  1  0  0  0  0
  1  3  2  0  0  0  0
  1  4  1  0  0  0  0
  2  5  1  0  0  0  0
  4  6  1  0  0  0  0
  5  7  1  0  0  0  0
  5  8  1  0  0  0  0
  6  9  1  0  0  0  0
  6 10  1  0  0  0  0
  8 11  1  0  0  0  0
  7 12  1  0  0  0  0
 11 13  1  0  0  0  0
 12 13  1  0  0  0  0
M  END
> <MOLFORMULA>
C11 H21 N O

> <MOLWEIGHT>
1.832929000000000e+002

> <IDNUMBER>
AN-153/I143564

> <PRICE>
EUR 130/10 mg

> <Similarity score>
0.63

$$$$

  -OEChem-04102411502D

 14 14  0     0  0  0  0  0  0999 V2000
   -0.5583   -0.6375    0.0000 C   0  0  0  0  0  0  0  0  0  0  0  0
   -1.0583    0.2292    0.0000 N   0  0  0  0  0  0  0  0  0  0  0  0
    0.4417   -0.6375    0.0000 O   0  0  0  0  0  0  0  0  0  0  0  0
   -1.0583   -1.5042    0.0000 C   0  0  0  0  0  0  0  0  0  0  0  0
   -0.5583    1.0917    0.0000 C   0  0  3  0  0  0  0  0  0  0  0  0
   -0.5583   -2.3708    0.0000 C   0  0  3  0  0  0  0  0  0  0  0  0
   -1.1208    1.9208    0.0000 C   0  0  0  0  0  0  0  0  0  0  0  0
    0.4375    1.0208    0.0000 C   0  0  0  0  0  0  0  0  0  0  0  0
   -1.0583   -3.2375    0.0000 C   0  0  0  0  0  0  0  0  0  0  0  0
    0.4417   -2.3708    0.0000 C   0  0  0  0  0  0  0  0  0  0  0  0
   -0.8292    2.8750    0.0000 C   0  0  0  0  0  0  0  0  0  0  0  0
    1.1167    1.7500    0.0000 C   0  0  0  0  0  0  0  0  0  0  0  0
    0.1042    3.2417    0.0000 C   0  0  0  0  0  0  0  0  0  0  0  0
    0.9708    2.7417    0.0000 C   0  0  0  0  0  0  0  0  0  0  0  0
  1  2  1  0  0  0  0
  1  3  2  0  0  0  0
  1  4  1  0  0  0  0
  2  5  1  0  0  0  0
  4  6  1  0  0  0  0
  5  7  1  0  0  0  0
  5  8  1  0  0  0  0
  6  9  1  0  0  0  0
  6 10  1  0  0  0  0
  7 11  1  0  0  0  0
  8 12  1  0  0  0  0
 11 13  1  0  0  0  0
 12 14  1  0  0  0  0
 13 14  1  0  0  0  0
M  END
> <MOLFORMULA>
C12 H23 N O

> <MOLWEIGHT>
1.973197000000000e+002

> <IDNUMBER>
AN-153/I167135

> <PRICE>
EUR 130/10 mg

> <Similarity score>
0.63

$$$$

  -OEChem-04102411502D

 15 16  0     0  0  0  0  0  0999 V2000
    2.9875    0.7708    0.0000 C   0  0  0  0  0  0  0  0  0  0  0  0
    2.3375    0.3958    0.0000 N   0  0  0  0  0  0  0  0  0  0  0  0
    2.9875    1.5208    0.0000 O   0  0  0  0  0  0  0  0  0  0  0  0
    3.6375    0.3958    0.0000 C   0  0  0  0  0  0  0  0  0  0  0  0
    1.6875    0.7708    0.0000 C   0  0  3  0  0  0  0  0  0  0  0  0
    4.2792    0.7708    0.0000 C   0  0  3  0  0  0  0  0  0  0  0  0
    1.6875    1.5208    0.0000 C   0  0  0  0  0  0  0  0  0  0  0  0
    1.0375    0.3958    0.0000 C   0  0  0  0  0  0  0  0  0  0  0  0
    4.9667    0.4583    0.0000 C   0  0  0  0  0  0  0  0  0  0  0  0
    4.3625    1.5125    0.0000 C   0  0  0  0  0  0  0  0  0  0  0  0
    5.0917    1.6708    0.0000 C   0  0  0  0  0  0  0  0  0  0  0  0
    5.4667    1.0208    0.0000 C   0  0  0  0  0  0  0  0  0  0  0  0
    0.3875    0.7708    0.0000 C   0  0  0  0  0  0  0  0  0  0  0  0
    1.0375    1.8958    0.0000 C   0  0  0  0  0  0  0  0  0  0  0  0
    0.3875    1.5208    0.0000 C   0  0  0  0  0  0  0  0  0  0  0  0
  1  2  1  0  0  0  0
  1  3  2  0  0  0  0
  1  4  1  0  0  0  0
  2  5  1  0  0  0  0
  4  6  1  0  0  0  0
  5  7  1  0  0  0  0
  5  8  1  0  0  0  0
  6  9  1  0  0  0  0
  6 10  1  0  0  0  0
 10 11  1  0  0  0  0
  9 12  1  0  0  0  0
  8 13  1  0  0  0  0
  7 14  1  0  0  0  0
 13 15  1  0  0  0  0
 11 12  1  0  0  0  0
 14 15  1  0  0  0  0
M  END
> <MOLFORMULA>
C13 H23 N O

> <MOLWEIGHT>
2.093307000000000e+002

> <IDNUMBER>
AT-084/NB10911

> <PRICE>
EUR 37.00/10 mg

> <Similarity score>
0.62

$$$$

  -OEChem-04102411502D

 12 12  0     0  0  0  0  0  0999 V2000
   -1.0000   -3.0292    0.0000 N   0  0  0  0  0  0  0  0  0  0  0  0
   -0.5000   -2.1625    0.0000 C   0  0  0  0  0  0  0  0  0  0  0  0
   -0.5000   -0.4292    0.0000 C   0  0  0  0  0  0  0  0  0  0  0  0
   -1.0000   -1.2958    0.0000 C   0  0  0  0  0  0  0  0  0  0  0  0
   -1.0000    0.4333    0.0000 N   0  0  0  0  0  0  0  0  0  0  0  0
    0.5000   -0.4292    0.0000 O   0  0  0  0  0  0  0  0  0  0  0  0
   -0.5000    1.3000    0.0000 C   0  0  3  0  0  0  0  0  0  0  0  0
    0.5000    1.3000    0.0000 C   0  0  0  0  0  0  0  0  0  0  0  0
   -1.0000    2.1667    0.0000 C   0  0  0  0  0  0  0  0  0  0  0  0
   -0.5000    3.0333    0.0000 C   0  0  0  0  0  0  0  0  0  0  0  0
    1.0000    2.1667    0.0000 C   0  0  0  0  0  0  0  0  0  0  0  0
    0.5000    3.0333    0.0000 C   0  0  0  0  0  0  0  0  0  0  0  0
  1  2  3  0  0  0  0
  3  4  1  0  0  0  0
  2  4  1  0  0  0  0
  3  5  1  0  0  0  0
  3  6  2  0  0  0  0
  5  7  1  0  0  0  0
  7  8  1  0  0  0  0
  7  9  1  0  0  0  0
  9 10  1  0  0  0  0
  8 11  1  0  0  0  0
 10 12  1  0  0  0  0
 11 12  1  0  0  0  0
M  END
> <MOLFORMULA>
C9 H14 N2 O

> <MOLWEIGHT>
1.662226000000000e+002

> <IDNUMBER>
AN-153/I154451

> <PRICE>
EUR 130/10 mg

> <Similarity score>
0.62

$$$$

  -OEChem-04102411502D

 18 18  0     0  0  0  0  0  0999 V2000
   -3.0958   -1.9542    0.0000 C   0  0  0  0  0  0  0  0  0  0  0  0
   -3.8083   -1.5417    0.0000 C   0  0  0  0  0  0  0  0  0  0  0  0
   -0.9417    0.9333    0.0000 C   0  0  0  0  0  0  0  0  0  0  0  0
   -0.2292    0.5208    0.0000 N   0  0  0  0  0  0  0  0  0  0  0  0
   -0.9417    1.7583    0.0000 O   0  0  0  0  0  0  0  0  0  0  0  0
    0.4792    0.9458    0.0000 C   0  0  3  0  0  0  0  0  0  0  0  0
   -3.8083   -0.7167    0.0000 C   0  0  0  0  0  0  0  0  0  0  0  0
   -3.1000   -2.7792    0.0000 C   0  0  0  0  0  0  0  0  0  0  0  0
   -1.6583    0.5208    0.0000 C   0  0  0  0  0  0  0  0  0  0  0  0
    1.2000    0.5375    0.0000 C   0  0  0  0  0  0  0  0  0  0  0  0
    0.4708    1.7625    0.0000 C   0  0  0  0  0  0  0  0  0  0  0  0
   -4.5208   -0.3042    0.0000 C   0  0  0  0  0  0  0  0  0  0  0  0
   -2.3708    0.9333    0.0000 C   0  0  0  0  0  0  0  0  0  0  0  0
   -3.8000    0.9333    0.0000 C   0  0  0  0  0  0  0  0  0  0  0  0
   -3.0875    0.5208    0.0000 C   0  0  0  0  0  0  0  0  0  0  0  0
   -4.5167    0.5208    0.0000 C   0  0  0  0  0  0  0  0  0  0  0  0
    1.1750    2.1875    0.0000 C   0  0  0  0  0  0  0  0  0  0  0  0
    1.9083    0.9583    0.0000 C   0  0  0  0  0  0  0  0  0  0  0  0
  1  2  3  0  0  0  0
  3  9  1  0  0  0  0
  3  4  1  0  0  0  0
  3  5  2  0  0  0  0
  4  6  1  0  0  0  0
  2  7  1  0  0  0  0
  1  8  1  0  0  0  0
  9 13  1  0  0  0  0
  6 10  1  0  0  0  0
  6 11  1  0  0  0  0
  7 12  1  0  0  0  0
 13 15  1  0  0  0  0
 14 16  1  0  0  0  0
 14 15  1  0  0  0  0
 12 16  1  0  0  0  0
 11 17  1  0  0  0  0
 10 18  1  0  0  0  0
 17 18  1  0  0  0  0
M  END
> <MOLFORMULA>
C16 H27 N O

> <MOLWEIGHT>
2.493953000000000e+002

> <IDNUMBER>
AT-225/NB46353

> <PRICE>
EUR 140/10 mg

> <Similarity score>
0.62

$$$$

  -OEChem-04102411502D

 13 13  0     0  0  0  0  0  0999 V2000
   -0.7000   -0.4875    0.0000 C   0  0  0  0  0  0  0  0  0  0  0  0
   -1.9208   -1.1375    0.0000 C   0  0  0  0  0  0  0  0  0  0  0  0
    0.5000   -1.2500    0.0000 N   0  0  0  0  0  0  0  0  0  0  0  0
   -0.6583    0.9583    0.0000 O   0  0  0  0  0  0  0  0  0  0  0  0
   -3.1083   -0.3292    0.0000 C   0  0  0  0  0  0  0  0  0  0  0  0
   -3.1083    1.1708    0.0000 O   0  0  0  0  0  0  0  0  0  0  0  0
    1.7667   -0.5917    0.0000 C   0  0  3  0  0  0  0  0  0  0  0  0
   -4.3333   -0.9917    0.0000 C   0  0  0  0  0  0  0  0  0  0  0  0
    3.0125   -1.3292    0.0000 C   0  0  0  0  0  0  0  0  0  0  0  0
    1.8167    0.8250    0.0000 C   0  0  0  0  0  0  0  0  0  0  0  0
    3.1125    1.5208    0.0000 C   0  0  0  0  0  0  0  0  0  0  0  0
    4.2792   -0.6667    0.0000 C   0  0  0  0  0  0  0  0  0  0  0  0
    4.3292    0.7625    0.0000 C   0  0  0  0  0  0  0  0  0  0  0  0
  1  2  1  0  0  0  0
  1  3  1  0  0  0  0
  1  4  2  0  0  0  0
  2  5  1  0  0  0  0
  5  6  2  0  0  0  0
  3  7  1  0  0  0  0
  5  8  1  0  0  0  0
  7  9  1  0  0  0  0
  7 10  1  0  0  0  0
 10 11  1  0  0  0  0
  9 12  1  0  0  0  0
 11 13  1  0  0  0  0
 12 13  1  0  0  0  0
M  END
> <MOLFORMULA>
C10 H17 N O2

> <MOLWEIGHT>
1.832493000000000e+002

> <IDNUMBER>
AT-225/JK18229

> <PRICE>
EUR 140/10 mg

> <Similarity score>
0.62

$$$$

  -OEChem-04102411502D

 10 10  0     0  0  0  0  0  0999 V2000
   -1.0250    0.5000    0.0000 C   0  0  0  0  0  0  0  0  0  0  0  0
   -0.2875   -0.7500    0.0000 N   0  0  0  0  0  0  0  0  0  0  0  0
   -0.2875    1.7250    0.0000 O   0  0  0  0  0  0  0  0  0  0  0  0
    1.1292   -0.7292    0.0000 C   0  0  3  0  0  0  0  0  0  0  0  0
   -3.1875    1.7250    0.0000 Cl  0  0  0  0  0  0  0  0  0  0  0  0
   -2.4625    0.5000    0.0000 C   0  0  0  0  0  0  0  0  0  0  0  0
    1.9292    0.4333    0.0000 C   0  0  0  0  0  0  0  0  0  0  0  0
    2.0250   -1.8917    0.0000 C   0  0  0  0  0  0  0  0  0  0  0  0
    3.3667   -1.3750    0.0000 C   0  0  0  0  0  0  0  0  0  0  0  0
    3.3167    0.0083    0.0000 C   0  0  0  0  0  0  0  0  0  0  0  0
  1  2  1  0  0  0  0
  1  3  2  0  0  0  0
  2  4  1  0  0  0  0
  5  6  1  0  0  0  0
  1  6  1  0  0  0  0
  4  7  1  0  0  0  0
  4  8  1  0  0  0  0
  8  9  1  0  0  0  0
  7 10  1  0  0  0  0
  9 10  1  0  0  0  0
M  END
> <MOLFORMULA>
C7 H12 Cl N O

> <MOLWEIGHT>
1.616308000000000e+002

> <IDNUMBER>
AT-687/PE33910

> <PRICE>
EUR 80/10 mg

> <Similarity score>
0.60

$$$$

  -OEChem-04102411502D

 10 10  0     0  0  0  0  0  0999 V2000
    4.4000   -0.6542    0.0000 C   0  0  0  0  0  0  0  0  0  0  0  0
    3.2542   -0.0000    0.0000 N   0  0  0  0  0  0  0  0  0  0  0  0
    5.5500   -0.0000    0.0000 O   0  0  0  0  0  0  0  0  0  0  0  0
    2.1000   -0.6542    0.0000 C   0  0  3  0  0  0  0  0  0  0  0  0
    5.5500   -2.6500    0.0000 Cl  0  0  0  0  0  0  0  0  0  0  0  0
    4.4000   -1.9792    0.0000 C   0  0  0  0  0  0  0  0  0  0  0  0
    0.8792   -0.1250    0.0000 C   0  0  0  0  0  0  0  0  0  0  0  0
    1.9667   -1.9917    0.0000 C   0  0  0  0  0  0  0  0  0  0  0  0
    0.6625   -2.2667    0.0000 C   0  0  0  0  0  0  0  0  0  0  0  0
    0.0000   -1.1042    0.0000 C   0  0  0  0  0  0  0  0  0  0  0  0
  1  2  1  0  0  0  0
  1  3  2  0  0  0  0
  2  4  1  0  0  0  0
  5  6  1  0  0  0  0
  1  6  1  0  0  0  0
  4  7  1  0  0  0  0
  4  8  1  0  0  0  0
  8  9  1  0  0  0  0
  7 10  1  0  0  0  0
  9 10  1  0  0  0  0
M  END
> <MOLFORMULA>
C7 H12 Cl N O

> <MOLWEIGHT>
1.616308000000000e+002

> <IDNUMBER>
AT-687/NB07577

> <PRICE>
EUR 80/10 mg

> <Similarity score>
0.60

$$$$

  -OEChem-04102411502D

 10 10  0     0  0  0  0  0  0999 V2000
   -0.6042   -0.7875    0.0000 C   0  0  0  0  0  0  0  0  0  0  0  0
    0.3958   -0.7875    0.0000 N   0  0  0  0  0  0  0  0  0  0  0  0
   -1.1042    0.0750    0.0000 O   0  0  0  0  0  0  0  0  0  0  0  0
    0.8958    0.0750    0.0000 C   0  0  3  0  0  0  0  0  0  0  0  0
   -2.1042   -1.6542    0.0000 Cl  0  0  0  0  0  0  0  0  0  0  0  0
   -1.1042   -1.6542    0.0000 C   0  0  0  0  0  0  0  0  0  0  0  0
    0.4917    0.9917    0.0000 C   0  0  0  0  0  0  0  0  0  0  0  0
    1.8917    0.1792    0.0000 C   0  0  0  0  0  0  0  0  0  0  0  0
    2.1000    1.1583    0.0000 C   0  0  0  0  0  0  0  0  0  0  0  0
    1.2333    1.6583    0.0000 C   0  0  0  0  0  0  0  0  0  0  0  0
  1  2  1  0  0  0  0
  1  3  2  0  0  0  0
  2  4  1  0  0  0  0
  5  6  1  0  0  0  0
  1  6  1  0  0  0  0
  4  7  1  0  0  0  0
  4  8  1  0  0  0  0
  8  9  1  0  0  0  0
  7 10  1  0  0  0  0
  9 10  1  0  0  0  0
M  END
> <MOLFORMULA>
C7 H12 Cl N O

> <MOLWEIGHT>
1.616308000000000e+002

> <IDNUMBER>
AN-153/I178490

> <PRICE>
EUR 130/10 mg

> <Similarity score>
0.60

$$$$

  -OEChem-04102411502D

 13 13  0     0  0  0  0  0  0999 V2000
   -1.0000   -2.5958    0.0000 N   0  3  0  0  0  0  0  0  0  0  0  0
   -0.5000   -3.4625    0.0000 N   0  5  0  0  0  0  0  0  0  0  0  0
   -0.5000   -1.7292    0.0000 N   0  0  0  0  0  0  0  0  0  0  0  0
   -0.5000   -0.0000    0.0000 C   0  0  0  0  0  0  0  0  0  0  0  0
   -1.0000   -0.8625    0.0000 C   0  0  0  0  0  0  0  0  0  0  0  0
   -1.0000    0.8667    0.0000 N   0  0  0  0  0  0  0  0  0  0  0  0
    0.5000    0.0042    0.0000 O   0  0  0  0  0  0  0  0  0  0  0  0
   -0.5000    1.7333    0.0000 C   0  0  3  0  0  0  0  0  0  0  0  0
    0.5000    1.7333    0.0000 C   0  0  0  0  0  0  0  0  0  0  0  0
   -1.0000    2.6000    0.0000 C   0  0  0  0  0  0  0  0  0  0  0  0
    1.0000    2.6000    0.0000 C   0  0  0  0  0  0  0  0  0  0  0  0
   -0.5000    3.4667    0.0000 C   0  0  0  0  0  0  0  0  0  0  0  0
    0.5000    3.4667    0.0000 C   0  0  0  0  0  0  0  0  0  0  0  0
  1  2  2  0  0  0  0
  1  3  2  0  0  0  0
  4  5  1  0  0  0  0
  3  5  1  0  0  0  0
  4  6  1  0  0  0  0
  4  7  2  0  0  0  0
  6  8  1  0  0  0  0
  8  9  1  0  0  0  0
  8 10  1  0  0  0  0
  9 11  1  0  0  0  0
 10 12  1  0  0  0  0
 12 13  1  0  0  0  0
 11 13  1  0  0  0  0
M  CHG  2   1   1   2  -1
M  END
> <MOLFORMULA>
C8 H14 N4 O

> <MOLWEIGHT>
1.822256000000000e+002

> <IDNUMBER>
AN-153/J113270

> <PRICE>
EUR 130/10 mg

> <Similarity score>
0.59

$$$$

  -OEChem-04102411502D

 11 11  0     0  0  0  0  0  0999 V2000
    1.5333    1.0875    0.0000 C   0  0  0  0  0  0  0  0  0  0  0  0
    2.1292    0.5167    0.0000 N   0  0  0  0  0  0  0  0  0  0  0  0
    1.7292    1.8875    0.0000 O   0  0  0  0  0  0  0  0  0  0  0  0
    2.9250    0.7500    0.0000 C   0  0  3  0  0  0  0  0  0  0  0  0
    0.7417    0.8542    0.0000 C   0  0  0  0  0  0  0  0  0  0  0  0
    3.0625    1.4708    0.0000 C   0  0  0  0  0  0  0  0  0  0  0  0
    3.3667    0.2750    0.0000 C   0  0  0  0  0  0  0  0  0  0  0  0
    4.1167    0.2750    0.0000 C   0  0  0  0  0  0  0  0  0  0  0  0
    3.7625    1.7958    0.0000 C   0  0  0  0  0  0  0  0  0  0  0  0
    4.4417    1.4458    0.0000 C   0  0  0  0  0  0  0  0  0  0  0  0
    4.5625    0.7208    0.0000 C   0  0  0  0  0  0  0  0  0  0  0  0
  1  2  1  0  0  0  0
  1  3  2  0  0  0  0
  2  4  1  0  0  0  0
  1  5  1  0  0  0  0
  4  6  1  0  0  0  0
  4  7  1  0  0  0  0
  7  8  1  0  0  0  0
  6  9  1  0  0  0  0
  9 10  1  0  0  0  0
  8 11  1  0  0  0  0
 10 11  1  0  0  0  0
M  END
> <MOLFORMULA>
C9 H17 N O

> <MOLWEIGHT>
1.552393000000000e+002

> <IDNUMBER>
AT-084/J178828

> <PRICE>
EUR 37.00/10 mg

> <Similarity score>
0.58

$$$$
