
  -OEChem-04102411172D

 18 19  0     0  0  0  0  0  0999 V2000
   -0.3458   -0.7333    0.0000 C   0  0  0  0  0  0  0  0  0  0  0  0
    0.1542   -1.6000    0.0000 N   0  0  0  0  0  0  0  0  0  0  0  0
    0.1542    0.1292    0.0000 O   0  0  0  0  0  0  0  0  0  0  0  0
   -1.3458   -0.7333    0.0000 C   0  0  0  0  0  0  0  0  0  0  0  0
   -1.8458    0.1292    0.0000 C   0  0  0  0  0  0  0  0  0  0  0  0
   -2.8458    1.8625    0.0000 C   0  0  0  0  0  0  0  0  0  0  0  0
   -3.3458    2.7292    0.0000 Br  0  0  0  0  0  0  0  0  0  0  0  0
    1.1542   -1.6000    0.0000 C   0  0  3  0  0  0  0  0  0  0  0  0
   -1.8458    1.8625    0.0000 C   0  0  0  0  0  0  0  0  0  0  0  0
   -3.3458    0.9958    0.0000 C   0  0  0  0  0  0  0  0  0  0  0  0
   -2.8458    0.1292    0.0000 C   0  0  0  0  0  0  0  0  0  0  0  0
   -1.3458    0.9958    0.0000 C   0  0  0  0  0  0  0  0  0  0  0  0
    1.5875   -2.5042    0.0000 C   0  0  0  0  0  0  0  0  0  0  0  0
    1.5875   -0.7000    0.0000 C   0  0  0  0  0  0  0  0  0  0  0  0
    2.5625   -0.4792    0.0000 C   0  0  0  0  0  0  0  0  0  0  0  0
    2.5625   -2.7250    0.0000 C   0  0  0  0  0  0  0  0  0  0  0  0
    3.3417   -1.1000    0.0000 C   0  0  0  0  0  0  0  0  0  0  0  0
    3.3417   -2.1000    0.0000 C   0  0  0  0  0  0  0  0  0  0  0  0
  1  2  1  0  0  0  0
  1  3  2  0  0  0  0
  1  4  1  0  0  0  0
  4  5  1  0  0  0  0
  6  9  1  0  0  0  0
  6  7  1  0  0  0  0
  2  8  1  0  0  0  0
  9 12  2  0  0  0  0
 10 11  1  0  0  0  0
  5 11  2  0  0  0  0
  5 12  1  0  0  0  0
  8 13  1  0  0  0  0
  8 14  1  0  0  0  0
 14 15  1  0  0  0  0
 13 16  1  0  0  0  0
 15 17  1  0  0  0  0
 16 18  1  0  0  0  0
  6 10  2  0  0  0  0
 17 18  1  0  0  0  0
M  END
> <MOLFORMULA>
C15 H20 Br N O

> <MOLWEIGHT>
3.102330000000000e+002

> <IDNUMBER>
AN-153/I142710

> <PRICE>
EUR 130/10 mg

$$$$

  -OEChem-04102411172D

 17 18  0     0  0  0  0  0  0999 V2000
   -0.5583    0.2083    0.0000 C   0  0  0  0  0  0  0  0  0  0  0  0
   -1.0583   -0.6583    0.0000 N   0  0  0  0  0  0  0  0  0  0  0  0
    0.4417    0.2083    0.0000 O   0  0  0  0  0  0  0  0  0  0  0  0
   -1.0583    1.0750    0.0000 C   0  0  0  0  0  0  0  0  0  0  0  0
   -0.5583   -1.5208    0.0000 C   0  0  3  0  0  0  0  0  0  0  0  0
   -0.5583    1.9417    0.0000 C   0  0  0  0  0  0  0  0  0  0  0  0
   -1.0583    2.8083    0.0000 C   0  0  0  0  0  0  0  0  0  0  0  0
    0.4417    1.9417    0.0000 C   0  0  0  0  0  0  0  0  0  0  0  0
    0.4375   -1.4458    0.0000 C   0  0  0  0  0  0  0  0  0  0  0  0
   -1.1208   -2.3500    0.0000 C   0  0  0  0  0  0  0  0  0  0  0  0
   -0.5583    3.6750    0.0000 C   0  0  0  0  0  0  0  0  0  0  0  0
    0.9417    2.8083    0.0000 C   0  0  0  0  0  0  0  0  0  0  0  0
    1.1167   -2.1792    0.0000 C   0  0  0  0  0  0  0  0  0  0  0  0
   -0.8292   -3.3042    0.0000 C   0  0  0  0  0  0  0  0  0  0  0  0
    0.4417    3.6750    0.0000 C   0  0  0  0  0  0  0  0  0  0  0  0
    0.9708   -3.1708    0.0000 C   0  0  0  0  0  0  0  0  0  0  0  0
    0.1042   -3.6708    0.0000 C   0  0  0  0  0  0  0  0  0  0  0  0
  1  2  1  0  0  0  0
  1  3  2  0  0  0  0
  1  4  1  0  0  0  0
  2  5  1  0  0  0  0
  4  6  1  0  0  0  0
  6  7  1  0  0  0  0
  6  8  2  0  0  0  0
  5  9  1  0  0  0  0
  5 10  1  0  0  0  0
  7 11  2  0  0  0  0
  8 12  1  0  0  0  0
  9 13  1  0  0  0  0
 10 14  1  0  0  0  0
 12 15  2  0  0  0  0
 13 16  1  0  0  0  0
 14 17  1  0  0  0  0
 11 15  1  0  0  0  0
 16 17  1  0  0  0  0
M  END
> <MOLFORMULA>
C15 H21 N O

> <MOLWEIGHT>
2.313369000000000e+002

> <IDNUMBER>
AN-153/I146753

> <PRICE>
EUR 130/10 mg

$$$$

  -OEChem-04102411172D

 21 22  0     0  0  0  0  0  0999 V2000
   -0.9708   -0.6583    0.0000 C   0  0  0  0  0  0  0  0  0  0  0  0
   -0.9708    2.8083    0.0000 C   0  0  0  0  0  0  0  0  0  0  0  0
   -1.4708   -1.5208    0.0000 N   0  0  0  0  0  0  0  0  0  0  0  0
    0.0292    2.8083    0.0000 C   0  0  0  0  0  0  0  0  0  0  0  0
   -1.4708    1.9417    0.0000 C   0  0  0  0  0  0  0  0  0  0  0  0
    0.0292   -0.6583    0.0000 O   0  0  0  0  0  0  0  0  0  0  0  0
   -0.9708    1.0750    0.0000 C   0  0  0  0  0  0  0  0  0  0  0  0
   -1.4708    0.2083    0.0000 C   0  0  0  0  0  0  0  0  0  0  0  0
    0.5292    1.9417    0.0000 C   0  0  0  0  0  0  0  0  0  0  0  0
    0.0292    1.0750    0.0000 C   0  0  0  0  0  0  0  0  0  0  0  0
   -1.4708    3.6750    0.0000 O   0  0  0  0  0  0  0  0  0  0  0  0
   -0.9708   -2.3875    0.0000 C   0  0  3  0  0  0  0  0  0  0  0  0
    0.5292    3.6750    0.0000 O   0  0  0  0  0  0  0  0  0  0  0  0
   -0.9708    4.5375    0.0000 C   0  0  0  0  0  0  0  0  0  0  0  0
    1.5292    3.6750    0.0000 C   0  0  0  0  0  0  0  0  0  0  0  0
    0.0250   -2.3125    0.0000 C   0  0  0  0  0  0  0  0  0  0  0  0
   -1.5333   -3.2167    0.0000 C   0  0  0  0  0  0  0  0  0  0  0  0
   -1.2375   -4.1708    0.0000 C   0  0  0  0  0  0  0  0  0  0  0  0
    0.7083   -3.0458    0.0000 C   0  0  0  0  0  0  0  0  0  0  0  0
    0.5583   -4.0375    0.0000 C   0  0  0  0  0  0  0  0  0  0  0  0
   -0.3083   -4.5375    0.0000 C   0  0  0  0  0  0  0  0  0  0  0  0
  2  5  1  0  0  0  0
  1  3  1  0  0  0  0
  4  9  1  0  0  0  0
  5  7  2  0  0  0  0
  1  6  2  0  0  0  0
  7  8  1  0  0  0  0
  1  8  1  0  0  0  0
  9 10  2  0  0  0  0
  7 10  1  0  0  0  0
  2 11  1  0  0  0  0
  3 12  1  0  0  0  0
  4 13  1  0  0  0  0
 11 14  1  0  0  0  0
 13 15  1  0  0  0  0
 12 16  1  0  0  0  0
 12 17  1  0  0  0  0
 17 18  1  0  0  0  0
 16 19  1  0  0  0  0
 19 20  1  0  0  0  0
 18 21  1  0  0  0  0
  2  4  2  0  0  0  0
 20 21  1  0  0  0  0
M  END
> <MOLFORMULA>
C17 H25 N O3

> <MOLWEIGHT>
2.913885000000000e+002

> <IDNUMBER>
AN-153/I149295

> <PRICE>
EUR 130/10 mg

$$$$

  -OEChem-04102411172D

 24 27  0     0  0  0  0  0  0999 V2000
   -0.3458    0.0042    0.0000 C   0  0  0  0  0  0  0  0  0  0  0  0
   -1.3458    0.0042    0.0000 C   0  0  3  0  0  0  0  0  0  0  0  0
   -3.3458    0.0042    0.0000 O   0  0  0  0  0  0  0  0  0  0  0  0
   -1.8458   -0.8625    0.0000 C   0  0  0  0  0  0  0  0  0  0  0  0
   -1.8458    0.8667    0.0000 C   0  0  0  0  0  0  0  0  0  0  0  0
   -2.8458   -0.8625    0.0000 C   0  0  0  0  0  0  0  0  0  0  0  0
   -2.8458    0.8667    0.0000 C   0  0  0  0  0  0  0  0  0  0  0  0
    0.1542   -0.8625    0.0000 N   0  0  0  0  0  0  0  0  0  0  0  0
    0.1542    0.8667    0.0000 O   0  0  0  0  0  0  0  0  0  0  0  0
    1.1542   -0.8625    0.0000 C   0  0  3  0  0  0  0  0  0  0  0  0
   -1.3458    1.7333    0.0000 C   0  0  0  0  0  0  0  0  0  0  0  0
   -1.3458   -1.7292    0.0000 C   0  0  0  0  0  0  0  0  0  0  0  0
   -3.3458   -1.7292    0.0000 C   0  0  0  0  0  0  0  0  0  0  0  0
   -3.3458    1.7333    0.0000 C   0  0  0  0  0  0  0  0  0  0  0  0
    1.5875   -1.7667    0.0000 C   0  0  0  0  0  0  0  0  0  0  0  0
    1.5875    0.0375    0.0000 C   0  0  0  0  0  0  0  0  0  0  0  0
   -1.8458    2.6000    0.0000 C   0  0  0  0  0  0  0  0  0  0  0  0
   -1.8458   -2.5958    0.0000 C   0  0  0  0  0  0  0  0  0  0  0  0
   -2.8458   -2.5958    0.0000 C   0  0  0  0  0  0  0  0  0  0  0  0
   -2.8458    2.6000    0.0000 C   0  0  0  0  0  0  0  0  0  0  0  0
    2.5625    0.2583    0.0000 C   0  0  0  0  0  0  0  0  0  0  0  0
    2.5625   -1.9875    0.0000 C   0  0  0  0  0  0  0  0  0  0  0  0
    3.3417   -1.3625    0.0000 C   0  0  0  0  0  0  0  0  0  0  0  0
    3.3417   -0.3625    0.0000 C   0  0  0  0  0  0  0  0  0  0  0  0
  1  2  1  0  0  0  0
  3  7  1  0  0  0  0
  2  4  1  0  0  0  0
  2  5  1  0  0  0  0
  4  6  1  0  0  0  0
  5  7  2  0  0  0  0
  1  8  1  0  0  0  0
  1  9  2  0  0  0  0
  8 10  1  0  0  0  0
  5 11  1  0  0  0  0
  4 12  2  0  0  0  0
  6 13  2  0  0  0  0
  7 14  1  0  0  0  0
 10 15  1  0  0  0  0
 10 16  1  0  0  0  0
 11 17  2  0  0  0  0
 12 18  1  0  0  0  0
 18 19  2  0  0  0  0
 17 20  1  0  0  0  0
 16 21  1  0  0  0  0
 15 22  1  0  0  0  0
 22 23  1  0  0  0  0
 21 24  1  0  0  0  0
  3  6  1  0  0  0  0
 23 24  1  0  0  0  0
 14 20  2  0  0  0  0
 13 19  1  0  0  0  0
M  END
> <MOLFORMULA>
C21 H23 N O2

> <MOLWEIGHT>
3.214177000000000e+002

> <IDNUMBER>
AN-153/I161187

> <PRICE>
EUR 130/10 mg

$$$$

  -OEChem-04102411172D

 20 21  0     0  0  0  0  0  0999 V2000
   -2.8458   -2.2917    0.0000 N   0  3  0  0  0  0  0  0  0  0  0  0
    0.1542    1.1708    0.0000 C   0  0  0  0  0  0  0  0  0  0  0  0
   -2.3458   -1.4250    0.0000 C   0  0  0  0  0  0  0  0  0  0  0  0
   -3.8458   -2.2917    0.0000 O   0  5  0  0  0  0  0  0  0  0  0  0
   -2.3458   -3.1583    0.0000 O   0  0  0  0  0  0  0  0  0  0  0  0
    0.6542    2.0375    0.0000 N   0  0  0  0  0  0  0  0  0  0  0  0
    0.6542    0.3042    0.0000 O   0  0  0  0  0  0  0  0  0  0  0  0
   -1.3458   -1.4250    0.0000 C   0  0  0  0  0  0  0  0  0  0  0  0
   -2.8458   -0.5583    0.0000 C   0  0  0  0  0  0  0  0  0  0  0  0
   -0.8458    1.1708    0.0000 C   0  0  0  0  0  0  0  0  0  0  0  0
   -1.3458    0.3042    0.0000 C   0  0  0  0  0  0  0  0  0  0  0  0
   -0.8458   -0.5583    0.0000 C   0  0  0  0  0  0  0  0  0  0  0  0
   -2.3458    0.3042    0.0000 C   0  0  0  0  0  0  0  0  0  0  0  0
    1.6542    2.0375    0.0000 C   0  0  3  0  0  0  0  0  0  0  0  0
    2.0875    1.1375    0.0000 C   0  0  0  0  0  0  0  0  0  0  0  0
    2.0875    2.9375    0.0000 C   0  0  0  0  0  0  0  0  0  0  0  0
    3.0625    3.1625    0.0000 C   0  0  0  0  0  0  0  0  0  0  0  0
    3.0625    0.9167    0.0000 C   0  0  0  0  0  0  0  0  0  0  0  0
    3.8417    2.5375    0.0000 C   0  0  0  0  0  0  0  0  0  0  0  0
    3.8417    1.5375    0.0000 C   0  0  0  0  0  0  0  0  0  0  0  0
  2 10  1  0  0  0  0
  1  3  1  0  0  0  0
  1  4  1  0  0  0  0
  1  5  2  0  0  0  0
  2  6  1  0  0  0  0
  2  7  2  0  0  0  0
  3  8  1  0  0  0  0
  3  9  2  0  0  0  0
 10 11  1  0  0  0  0
 11 13  2  0  0  0  0
  8 12  2  0  0  0  0
  9 13  1  0  0  0  0
  6 14  1  0  0  0  0
 14 15  1  0  0  0  0
 14 16  1  0  0  0  0
 16 17  1  0  0  0  0
 15 18  1  0  0  0  0
 17 19  1  0  0  0  0
 18 20  1  0  0  0  0
 11 12  1  0  0  0  0
 19 20  1  0  0  0  0
M  CHG  2   1   1   4  -1
M  END
> <MOLFORMULA>
C15 H20 N2 O3

> <MOLWEIGHT>
2.763340000000000e+002

> <IDNUMBER>
AN-153/I161079

> <PRICE>
EUR 130/10 mg

$$$$

  -OEChem-04102411172D

 19 20  0     0  0  0  0  0  0999 V2000
    0.1583    0.2083    0.0000 C   0  0  0  0  0  0  0  0  0  0  0  0
   -0.3417   -0.6583    0.0000 N   0  0  0  0  0  0  0  0  0  0  0  0
   -0.3417    1.0750    0.0000 C   0  0  3  0  0  0  0  0  0  0  0  0
    1.1583    0.2083    0.0000 O   0  0  0  0  0  0  0  0  0  0  0  0
    0.1583    1.9417    0.0000 C   0  0  0  0  0  0  0  0  0  0  0  0
    0.1583   -1.5208    0.0000 C   0  0  3  0  0  0  0  0  0  0  0  0
   -1.3417    1.0750    0.0000 C   0  0  0  0  0  0  0  0  0  0  0  0
   -0.3417    2.8083    0.0000 C   0  0  0  0  0  0  0  0  0  0  0  0
    1.1583    1.9417    0.0000 C   0  0  0  0  0  0  0  0  0  0  0  0
    1.1583   -1.4458    0.0000 C   0  0  0  0  0  0  0  0  0  0  0  0
   -0.4042   -2.3500    0.0000 C   0  0  0  0  0  0  0  0  0  0  0  0
   -1.8417    0.2083    0.0000 C   0  0  0  0  0  0  0  0  0  0  0  0
    0.1583    3.6750    0.0000 C   0  0  0  0  0  0  0  0  0  0  0  0
    1.6583    2.8083    0.0000 C   0  0  0  0  0  0  0  0  0  0  0  0
   -0.1083   -3.3042    0.0000 C   0  0  0  0  0  0  0  0  0  0  0  0
    1.8375   -2.1792    0.0000 C   0  0  0  0  0  0  0  0  0  0  0  0
    0.8208   -3.6708    0.0000 C   0  0  0  0  0  0  0  0  0  0  0  0
    1.1583    3.6750    0.0000 C   0  0  0  0  0  0  0  0  0  0  0  0
    1.6875   -3.1708    0.0000 C   0  0  0  0  0  0  0  0  0  0  0  0
  1  2  1  0  0  0  0
  1  3  1  0  0  0  0
  1  4  2  0  0  0  0
  3  5  1  0  0  0  0
  2  6  1  0  0  0  0
  3  7  1  0  0  0  0
  5  8  1  0  0  0  0
  5  9  2  0  0  0  0
  6 10  1  0  0  0  0
  6 11  1  0  0  0  0
  7 12  1  0  0  0  0
  8 13  2  0  0  0  0
  9 14  1  0  0  0  0
 11 15  1  0  0  0  0
 10 16  1  0  0  0  0
 15 17  1  0  0  0  0
 14 18  2  0  0  0  0
 16 19  1  0  0  0  0
 13 18  1  0  0  0  0
 17 19  1  0  0  0  0
M  END
> <MOLFORMULA>
C17 H25 N O

> <MOLWEIGHT>
2.593905000000000e+002

> <IDNUMBER>
AN-153/I161311

> <PRICE>
EUR 130/10 mg

$$$$

  -OEChem-04102411172D

 14 14  0     0  0  0  0  0  0999 V2000
   -0.0917   -0.6375    0.0000 C   0  0  0  0  0  0  0  0  0  0  0  0
   -0.5917    0.2292    0.0000 N   0  0  0  0  0  0  0  0  0  0  0  0
    0.9083   -0.6375    0.0000 O   0  0  0  0  0  0  0  0  0  0  0  0
   -0.5917   -1.5042    0.0000 C   0  0  3  0  0  0  0  0  0  0  0  0
   -0.0917    1.0917    0.0000 C   0  0  3  0  0  0  0  0  0  0  0  0
   -0.0917   -2.3708    0.0000 C   0  0  0  0  0  0  0  0  0  0  0  0
   -1.5917   -1.5042    0.0000 C   0  0  0  0  0  0  0  0  0  0  0  0
   -0.6542    1.9208    0.0000 C   0  0  0  0  0  0  0  0  0  0  0  0
    0.9042    1.0167    0.0000 C   0  0  0  0  0  0  0  0  0  0  0  0
   -0.5917   -3.2375    0.0000 C   0  0  0  0  0  0  0  0  0  0  0  0
    1.5875    1.7500    0.0000 C   0  0  0  0  0  0  0  0  0  0  0  0
   -0.3583    2.8750    0.0000 C   0  0  0  0  0  0  0  0  0  0  0  0
    1.4375    2.7417    0.0000 C   0  0  0  0  0  0  0  0  0  0  0  0
    0.5708    3.2417    0.0000 C   0  0  0  0  0  0  0  0  0  0  0  0
  1  2  1  0  0  0  0
  1  3  2  0  0  0  0
  1  4  1  0  0  0  0
  2  5  1  0  0  0  0
  4  6  1  0  0  0  0
  4  7  1  0  0  0  0
  5  8  1  0  0  0  0
  5  9  1  0  0  0  0
  6 10  1  0  0  0  0
  9 11  1  0  0  0  0
  8 12  1  0  0  0  0
 11 13  1  0  0  0  0
 12 14  1  0  0  0  0
 13 14  1  0  0  0  0
M  END
> <MOLFORMULA>
C12 H23 N O

> <MOLWEIGHT>
1.973197000000000e+002

> <IDNUMBER>
AN-153/I161313

> <PRICE>
EUR 130/10 mg

$$$$

  -OEChem-04102411172D

 18 19  0     0  0  0  0  0  0999 V2000
   -0.3458   -0.7333    0.0000 C   0  0  0  0  0  0  0  0  0  0  0  0
    0.1542   -1.6000    0.0000 N   0  0  0  0  0  0  0  0  0  0  0  0
    0.1542    0.1292    0.0000 O   0  0  0  0  0  0  0  0  0  0  0  0
   -1.3458   -0.7333    0.0000 C   0  0  0  0  0  0  0  0  0  0  0  0
   -1.8458    0.1292    0.0000 C   0  0  0  0  0  0  0  0  0  0  0  0
   -2.8458    1.8625    0.0000 C   0  0  0  0  0  0  0  0  0  0  0  0
   -3.3458    2.7292    0.0000 Cl  0  0  0  0  0  0  0  0  0  0  0  0
    1.1542   -1.6000    0.0000 C   0  0  3  0  0  0  0  0  0  0  0  0
   -1.8458    1.8625    0.0000 C   0  0  0  0  0  0  0  0  0  0  0  0
   -3.3458    0.9958    0.0000 C   0  0  0  0  0  0  0  0  0  0  0  0
   -2.8458    0.1292    0.0000 C   0  0  0  0  0  0  0  0  0  0  0  0
   -1.3458    0.9958    0.0000 C   0  0  0  0  0  0  0  0  0  0  0  0
    1.5875   -2.5000    0.0000 C   0  0  0  0  0  0  0  0  0  0  0  0
    1.5875   -0.7000    0.0000 C   0  0  0  0  0  0  0  0  0  0  0  0
    2.5625   -0.4792    0.0000 C   0  0  0  0  0  0  0  0  0  0  0  0
    2.5625   -2.7250    0.0000 C   0  0  0  0  0  0  0  0  0  0  0  0
    3.3417   -1.1000    0.0000 C   0  0  0  0  0  0  0  0  0  0  0  0
    3.3417   -2.1000    0.0000 C   0  0  0  0  0  0  0  0  0  0  0  0
  1  2  1  0  0  0  0
  1  3  2  0  0  0  0
  1  4  1  0  0  0  0
  4  5  1  0  0  0  0
  6  9  1  0  0  0  0
  6  7  1  0  0  0  0
  2  8  1  0  0  0  0
  9 12  2  0  0  0  0
 10 11  1  0  0  0  0
  5 11  2  0  0  0  0
  5 12  1  0  0  0  0
  8 13  1  0  0  0  0
  8 14  1  0  0  0  0
 14 15  1  0  0  0  0
 13 16  1  0  0  0  0
 15 17  1  0  0  0  0
 16 18  1  0  0  0  0
  6 10  2  0  0  0  0
 17 18  1  0  0  0  0
M  END
> <MOLFORMULA>
C15 H20 Cl N O

> <MOLWEIGHT>
2.657820000000000e+002

> <IDNUMBER>
AN-153/I167133

> <PRICE>
EUR 130/10 mg

$$$$

  -OEChem-04102411172D

 14 14  0     0  0  0  0  0  0999 V2000
   -0.5583   -0.6375    0.0000 C   0  0  0  0  0  0  0  0  0  0  0  0
   -1.0583    0.2292    0.0000 N   0  0  0  0  0  0  0  0  0  0  0  0
    0.4417   -0.6375    0.0000 O   0  0  0  0  0  0  0  0  0  0  0  0
   -1.0583   -1.5042    0.0000 C   0  0  0  0  0  0  0  0  0  0  0  0
   -0.5583    1.0917    0.0000 C   0  0  3  0  0  0  0  0  0  0  0  0
   -0.5583   -2.3708    0.0000 C   0  0  3  0  0  0  0  0  0  0  0  0
   -1.1208    1.9208    0.0000 C   0  0  0  0  0  0  0  0  0  0  0  0
    0.4375    1.0208    0.0000 C   0  0  0  0  0  0  0  0  0  0  0  0
   -1.0583   -3.2375    0.0000 C   0  0  0  0  0  0  0  0  0  0  0  0
    0.4417   -2.3708    0.0000 C   0  0  0  0  0  0  0  0  0  0  0  0
   -0.8292    2.8750    0.0000 C   0  0  0  0  0  0  0  0  0  0  0  0
    1.1167    1.7500    0.0000 C   0  0  0  0  0  0  0  0  0  0  0  0
    0.1042    3.2417    0.0000 C   0  0  0  0  0  0  0  0  0  0  0  0
    0.9708    2.7417    0.0000 C   0  0  0  0  0  0  0  0  0  0  0  0
  1  2  1  0  0  0  0
  1  3  2  0  0  0  0
  1  4  1  0  0  0  0
  2  5  1  0  0  0  0
  4  6  1  0  0  0  0
  5  7  1  0  0  0  0
  5  8  1  0  0  0  0
  6  9  1  0  0  0  0
  6 10  1  0  0  0  0
  7 11  1  0  0  0  0
  8 12  1  0  0  0  0
 11 13  1  0  0  0  0
 12 14  1  0  0  0  0
 13 14  1  0  0  0  0
M  END
> <MOLFORMULA>
C12 H23 N O

> <MOLWEIGHT>
1.973197000000000e+002

> <IDNUMBER>
AN-153/I167135

> <PRICE>
EUR 130/10 mg

$$$$

  -OEChem-04102411172D

 15 15  0     0  0  0  0  0  0999 V2000
   -0.0917   -0.2042    0.0000 C   0  0  0  0  0  0  0  0  0  0  0  0
   -0.5917    0.6625    0.0000 N   0  0  0  0  0  0  0  0  0  0  0  0
    0.9083   -0.2042    0.0000 O   0  0  0  0  0  0  0  0  0  0  0  0
   -0.5917   -1.0708    0.0000 C   0  0  3  0  0  0  0  0  0  0  0  0
   -0.0917    1.5250    0.0000 C   0  0  3  0  0  0  0  0  0  0  0  0
   -0.0917   -1.9375    0.0000 C   0  0  0  0  0  0  0  0  0  0  0  0
   -1.5917   -1.0708    0.0000 C   0  0  0  0  0  0  0  0  0  0  0  0
   -0.6542    2.3542    0.0000 C   0  0  0  0  0  0  0  0  0  0  0  0
    0.9042    1.4500    0.0000 C   0  0  0  0  0  0  0  0  0  0  0  0
   -0.5917   -2.8042    0.0000 C   0  0  0  0  0  0  0  0  0  0  0  0
   -0.0917   -3.6708    0.0000 C   0  0  0  0  0  0  0  0  0  0  0  0
   -0.3583    3.3083    0.0000 C   0  0  0  0  0  0  0  0  0  0  0  0
    1.5875    2.1833    0.0000 C   0  0  0  0  0  0  0  0  0  0  0  0
    1.4375    3.1750    0.0000 C   0  0  0  0  0  0  0  0  0  0  0  0
    0.5708    3.6750    0.0000 C   0  0  0  0  0  0  0  0  0  0  0  0
  1  2  1  0  0  0  0
  1  3  2  0  0  0  0
  1  4  1  0  0  0  0
  2  5  1  0  0  0  0
  4  6  1  0  0  0  0
  4  7  1  0  0  0  0
  5  8  1  0  0  0  0
  5  9  1  0  0  0  0
  6 10  1  0  0  0  0
 10 11  1  0  0  0  0
  8 12  1  0  0  0  0
  9 13  1  0  0  0  0
 13 14  1  0  0  0  0
 12 15  1  0  0  0  0
 14 15  1  0  0  0  0
M  END
> <MOLFORMULA>
C13 H25 N O

> <MOLWEIGHT>
2.113465000000000e+002

> <IDNUMBER>
AN-153/I167137

> <PRICE>
EUR 130/10 mg

$$$$

  -OEChem-04102411172D

 15 16  0     0  0  0  0  0  0999 V2000
   -0.6542   -0.1917    0.0000 C   0  0  0  0  0  0  0  0  0  0  0  0
    0.0125    0.5500    0.0000 N   0  0  0  0  0  0  0  0  0  0  0  0
   -1.6333    0.0167    0.0000 C   0  0  3  0  0  0  0  0  0  0  0  0
   -0.3458   -1.1458    0.0000 O   0  0  0  0  0  0  0  0  0  0  0  0
   -2.3750   -0.6542    0.0000 O   0  0  0  0  0  0  0  0  0  0  0  0
    0.9917    0.3417    0.0000 C   0  0  3  0  0  0  0  0  0  0  0  0
   -3.2417   -0.1542    0.0000 C   0  0  0  0  0  0  0  0  0  0  0  0
   -2.0417    0.9292    0.0000 C   0  0  0  0  0  0  0  0  0  0  0  0
    1.2292   -0.6292    0.0000 C   0  0  0  0  0  0  0  0  0  0  0  0
    1.6042    1.1333    0.0000 C   0  0  0  0  0  0  0  0  0  0  0  0
   -3.0333    0.8250    0.0000 C   0  0  0  0  0  0  0  0  0  0  0  0
    2.6042    1.1500    0.0000 C   0  0  0  0  0  0  0  0  0  0  0  0
    2.1375   -1.0500    0.0000 C   0  0  0  0  0  0  0  0  0  0  0  0
    3.0292   -0.6042    0.0000 C   0  0  0  0  0  0  0  0  0  0  0  0
    3.2375    0.3750    0.0000 C   0  0  0  0  0  0  0  0  0  0  0  0
  1  2  1  0  0  0  0
  1  3  1  0  0  0  0
  1  4  2  0  0  0  0
  3  5  1  0  0  0  0
  2  6  1  0  0  0  0
  5  7  1  0  0  0  0
  3  8  1  0  0  0  0
  6  9  1  0  0  0  0
  6 10  1  0  0  0  0
  8 11  1  0  0  0  0
 10 12  1  0  0  0  0
  9 13  1  0  0  0  0
 13 14  1  0  0  0  0
 12 15  1  0  0  0  0
  7 11  1  0  0  0  0
 14 15  1  0  0  0  0
M  END
> <MOLFORMULA>
C12 H21 N O2

> <MOLWEIGHT>
2.113029000000000e+002

> <IDNUMBER>
AN-153/I176467

> <PRICE>
EUR 130/10 mg

$$$$

  -OEChem-04102411172D

 18 19  0     0  0  0  0  0  0999 V2000
   -0.3458   -0.7333    0.0000 C   0  0  0  0  0  0  0  0  0  0  0  0
    0.1542   -1.6000    0.0000 N   0  0  0  0  0  0  0  0  0  0  0  0
    0.1542    0.1292    0.0000 O   0  0  0  0  0  0  0  0  0  0  0  0
   -1.3458   -0.7333    0.0000 C   0  0  0  0  0  0  0  0  0  0  0  0
   -1.8458    0.1292    0.0000 C   0  0  0  0  0  0  0  0  0  0  0  0
   -2.8458    1.8625    0.0000 C   0  0  0  0  0  0  0  0  0  0  0  0
   -3.3458    2.7292    0.0000 F   0  0  0  0  0  0  0  0  0  0  0  0
    1.1542   -1.6000    0.0000 C   0  0  3  0  0  0  0  0  0  0  0  0
   -3.3458    0.9958    0.0000 C   0  0  0  0  0  0  0  0  0  0  0  0
   -1.8458    1.8625    0.0000 C   0  0  0  0  0  0  0  0  0  0  0  0
   -2.8458    0.1292    0.0000 C   0  0  0  0  0  0  0  0  0  0  0  0
   -1.3458    0.9958    0.0000 C   0  0  0  0  0  0  0  0  0  0  0  0
    1.5875   -2.5042    0.0000 C   0  0  0  0  0  0  0  0  0  0  0  0
    1.5875   -0.7000    0.0000 C   0  0  0  0  0  0  0  0  0  0  0  0
    2.5625   -0.4792    0.0000 C   0  0  0  0  0  0  0  0  0  0  0  0
    2.5625   -2.7250    0.0000 C   0  0  0  0  0  0  0  0  0  0  0  0
    3.3417   -1.1000    0.0000 C   0  0  0  0  0  0  0  0  0  0  0  0
    3.3417   -2.1000    0.0000 C   0  0  0  0  0  0  0  0  0  0  0  0
  1  2  1  0  0  0  0
  1  3  2  0  0  0  0
  1  4  1  0  0  0  0
  4  5  1  0  0  0  0
  6 10  1  0  0  0  0
  6  7  1  0  0  0  0
  2  8  1  0  0  0  0
  9 11  1  0  0  0  0
 10 12  2  0  0  0  0
  5 11  2  0  0  0  0
  5 12  1  0  0  0  0
  8 13  1  0  0  0  0
  8 14  1  0  0  0  0
 14 15  1  0  0  0  0
 13 16  1  0  0  0  0
 15 17  1  0  0  0  0
 16 18  1  0  0  0  0
  6  9  2  0  0  0  0
 17 18  1  0  0  0  0
M  END
> <MOLFORMULA>
C15 H20 F N O

> <MOLWEIGHT>
2.493270000000000e+002

> <IDNUMBER>
AN-153/I181918

> <PRICE>
EUR 130/10 mg

$$$$

  -OEChem-04102411172D

 20 21  0     0  0  0  0  0  0999 V2000
   -0.9125   -0.6542    0.0000 C   0  0  0  0  0  0  0  0  0  0  0  0
   -1.9125   -0.6542    0.0000 N   0  0  0  0  0  0  0  0  0  0  0  0
   -0.4125   -1.5208    0.0000 O   0  0  0  0  0  0  0  0  0  0  0  0
   -2.4125   -1.5208    0.0000 C   0  0  3  0  0  0  0  0  0  0  0  0
    2.5875    1.9417    0.0000 C   0  0  0  0  0  0  0  0  0  0  0  0
    2.0875    1.0750    0.0000 O   0  0  0  0  0  0  0  0  0  0  0  0
   -0.4125    0.2083    0.0000 C   0  0  0  0  0  0  0  0  0  0  0  0
    1.0875    1.0750    0.0000 C   0  0  0  0  0  0  0  0  0  0  0  0
    2.0875    2.8083    0.0000 C   0  0  0  0  0  0  0  0  0  0  0  0
    3.5875    1.9417    0.0000 C   0  0  0  0  0  0  0  0  0  0  0  0
   -3.4125   -1.4458    0.0000 C   0  0  0  0  0  0  0  0  0  0  0  0
   -1.8500   -2.3500    0.0000 C   0  0  0  0  0  0  0  0  0  0  0  0
    0.5875    0.2083    0.0000 C   0  0  0  0  0  0  0  0  0  0  0  0
    2.5875    3.6750    0.0000 C   0  0  0  0  0  0  0  0  0  0  0  0
    4.0875    2.8083    0.0000 C   0  0  0  0  0  0  0  0  0  0  0  0
   -4.0917   -2.1792    0.0000 C   0  0  0  0  0  0  0  0  0  0  0  0
   -2.1458   -3.3042    0.0000 C   0  0  0  0  0  0  0  0  0  0  0  0
    3.5875    3.6708    0.0000 C   0  0  0  0  0  0  0  0  0  0  0  0
   -3.9417   -3.1708    0.0000 C   0  0  0  0  0  0  0  0  0  0  0  0
   -3.0750   -3.6708    0.0000 C   0  0  0  0  0  0  0  0  0  0  0  0
  1  2  1  0  0  0  0
  1  3  2  0  0  0  0
  2  4  1  0  0  0  0
  5  6  1  0  0  0  0
  6  8  1  0  0  0  0
  1  7  1  0  0  0  0
  8 13  1  0  0  0  0
  5  9  2  0  0  0  0
  5 10  1  0  0  0  0
  4 11  1  0  0  0  0
  4 12  1  0  0  0  0
  7 13  1  0  0  0  0
  9 14  1  0  0  0  0
 10 15  2  0  0  0  0
 11 16  1  0  0  0  0
 12 17  1  0  0  0  0
 15 18  1  0  0  0  0
 16 19  1  0  0  0  0
 17 20  1  0  0  0  0
 19 20  1  0  0  0  0
 14 18  2  0  0  0  0
M  END
> <MOLFORMULA>
C17 H25 N O2

> <MOLWEIGHT>
2.753895000000000e+002

> <IDNUMBER>
AN-153/I181991

> <PRICE>
EUR 130/10 mg

$$$$

  -OEChem-04102411172D

 26 29  0     0  0  0  0  0  0999 V2000
   -0.7750    1.1000    0.0000 C   0  0  0  0  0  0  0  0  0  0  0  0
   -0.0292    1.7667    0.0000 N   0  0  3  0  0  0  0  0  0  0  0  0
   -0.3750    0.1833    0.0000 N   0  0  3  0  0  0  0  0  0  0  0  0
    0.8333    1.2625    0.0000 C   0  0  0  0  0  0  0  0  0  0  0  0
    0.6208    0.2833    0.0000 C   0  0  3  0  0  0  0  0  0  0  0  0
   -0.7833   -0.7292    0.0000 C   0  0  0  0  0  0  0  0  0  0  0  0
    1.2042   -0.5250    0.0000 C   0  0  0  0  0  0  0  0  0  0  0  0
   -0.2000   -1.5375    0.0000 C   0  0  0  0  0  0  0  0  0  0  0  0
    0.7958   -1.4375    0.0000 C   0  0  0  0  0  0  0  0  0  0  0  0
   -1.7542    1.3125    0.0000 S   0  0  0  0  0  0  0  0  0  0  0  0
    1.3792   -2.2500    0.0000 C   0  0  0  0  0  0  0  0  0  0  0  0
   -0.6083   -2.4500    0.0000 C   0  0  0  0  0  0  0  0  0  0  0  0
   -0.0250   -3.2625    0.0000 C   0  0  0  0  0  0  0  0  0  0  0  0
    0.9708   -3.1625    0.0000 C   0  0  0  0  0  0  0  0  0  0  0  0
    1.7500    1.6625    0.0000 O   0  0  0  0  0  0  0  0  0  0  0  0
   -0.1292    2.7625    0.0000 C   0  0  3  0  0  0  0  0  0  0  0  0
    1.5542   -3.9750    0.0000 O   0  0  0  0  0  0  0  0  0  0  0  0
   -0.4375   -4.1750    0.0000 O   0  0  0  0  0  0  0  0  0  0  0  0
   -1.0708    3.1000    0.0000 C   0  0  0  0  0  0  0  0  0  0  0  0
    0.7208    3.2833    0.0000 C   0  0  0  0  0  0  0  0  0  0  0  0
    1.1417   -4.8875    0.0000 C   0  0  0  0  0  0  0  0  0  0  0  0
    0.1458   -4.9875    0.0000 C   0  0  0  0  0  0  0  0  0  0  0  0
   -1.3875    4.0458    0.0000 C   0  0  0  0  0  0  0  0  0  0  0  0
    0.8458    4.2708    0.0000 C   0  0  0  0  0  0  0  0  0  0  0  0
   -0.8458    4.8875    0.0000 C   0  0  0  0  0  0  0  0  0  0  0  0
    0.1458    4.9875    0.0000 C   0  0  0  0  0  0  0  0  0  0  0  0
  1  2  1  0  0  0  0
  1  3  1  0  0  0  0
  2  4  1  0  0  0  0
  3  5  1  0  0  0  0
  3  6  1  0  0  0  0
  5  7  1  0  0  0  0
  6  8  1  0  0  0  0
  8  9  1  0  0  0  0
  1 10  2  0  0  0  0
  9 11  2  0  0  0  0
  8 12  2  0  0  0  0
 12 13  1  0  0  0  0
 13 14  2  0  0  0  0
  4 15  2  0  0  0  0
  2 16  1  0  0  0  0
 14 17  1  0  0  0  0
 13 18  1  0  0  0  0
 16 19  1  0  0  0  0
 16 20  1  0  0  0  0
 17 21  1  0  0  0  0
 18 22  1  0  0  0  0
 19 23  1  0  0  0  0
 20 24  1  0  0  0  0
 23 25  1  0  0  0  0
 24 26  1  0  0  0  0
  4  5  1  0  0  0  0
  7  9  1  0  0  0  0
 25 26  1  0  0  0  0
 11 14  1  0  0  0  0
M  END
> <MOLFORMULA>
C20 H26 N2 O3 S

> <MOLWEIGHT>
3.745024000000000e+002

> <IDNUMBER>
AN-153/I255134

> <PRICE>
EUR 130/10 mg

$$$$

  -OEChem-04102411172D

 22 24  0     0  0  0  0  0  0999 V2000
    0.2875    1.8500    0.0000 N   0  0  3  0  0  0  0  0  0  0  0  0
    1.2875    1.8500    0.0000 C   0  0  0  0  0  0  0  0  0  0  0  0
    0.7875    0.3125    0.0000 C   0  0  3  0  0  0  0  0  0  0  0  0
    0.7875   -0.6875    0.0000 C   0  0  0  0  0  0  0  0  0  0  0  0
   -0.0208    0.9000    0.0000 C   0  0  0  0  0  0  0  0  0  0  0  0
    1.6000    0.9000    0.0000 C   0  0  0  0  0  0  0  0  0  0  0  0
   -0.0750   -1.1875    0.0000 N   0  0  0  0  0  0  0  0  0  0  0  0
   -0.3000    2.6583    0.0000 C   0  0  0  0  0  0  0  0  0  0  0  0
    1.8750    2.6583    0.0000 O   0  0  0  0  0  0  0  0  0  0  0  0
    1.6542   -1.1875    0.0000 O   0  0  0  0  0  0  0  0  0  0  0  0
   -0.0750   -2.1875    0.0000 C   0  0  3  0  0  0  0  0  0  0  0  0
   -1.2917    2.5542    0.0000 C   0  0  0  0  0  0  0  0  0  0  0  0
    0.1083    3.5750    0.0000 C   0  0  0  0  0  0  0  0  0  0  0  0
   -0.9750   -2.6208    0.0000 C   0  0  0  0  0  0  0  0  0  0  0  0
    0.8250   -2.6208    0.0000 C   0  0  0  0  0  0  0  0  0  0  0  0
   -1.8792    3.3625    0.0000 C   0  0  0  0  0  0  0  0  0  0  0  0
   -0.4792    4.3792    0.0000 C   0  0  0  0  0  0  0  0  0  0  0  0
    1.0458   -3.5958    0.0000 C   0  0  0  0  0  0  0  0  0  0  0  0
   -1.2000   -3.5958    0.0000 C   0  0  0  0  0  0  0  0  0  0  0  0
    0.4250   -4.3792    0.0000 C   0  0  0  0  0  0  0  0  0  0  0  0
   -1.4750    4.2750    0.0000 C   0  0  0  0  0  0  0  0  0  0  0  0
   -0.5750   -4.3792    0.0000 C   0  0  0  0  0  0  0  0  0  0  0  0
  1  2  1  0  0  0  0
  3  5  1  0  0  0  0
  3  4  1  0  0  0  0
  1  5  1  0  0  0  0
  2  6  1  0  0  0  0
  4  7  1  0  0  0  0
  1  8  1  0  0  0  0
  2  9  2  0  0  0  0
  4 10  2  0  0  0  0
  7 11  1  0  0  0  0
  8 12  1  0  0  0  0
  8 13  2  0  0  0  0
 11 14  1  0  0  0  0
 11 15  1  0  0  0  0
 12 16  2  0  0  0  0
 13 17  1  0  0  0  0
 15 18  1  0  0  0  0
 14 19  1  0  0  0  0
 18 20  1  0  0  0  0
 17 21  2  0  0  0  0
 19 22  1  0  0  0  0
  3  6  1  0  0  0  0
 16 21  1  0  0  0  0
 20 22  1  0  0  0  0
M  END
> <MOLFORMULA>
C18 H24 N2 O2

> <MOLWEIGHT>
3.003996000000000e+002

> <IDNUMBER>
AN-153/I262539

> <PRICE>
EUR 130/10 mg

$$$$

  -OEChem-04102411172D

 34 38  0     0  0  0  0  0  0999 V2000
    0.9083    1.5083    0.0000 C   0  0  0  0  0  0  0  0  0  0  0  0
    0.4083    2.3750    0.0000 C   0  0  0  0  0  0  0  0  0  0  0  0
    1.9083    1.5083    0.0000 C   0  0  0  0  0  0  0  0  0  0  0  0
    0.4083    0.6417    0.0000 N   0  0  3  0  0  0  0  0  0  0  0  0
    0.9083    3.2417    0.0000 C   0  0  0  0  0  0  0  0  0  0  0  0
    2.4083    2.3750    0.0000 N   0  0  0  0  0  0  0  0  0  0  0  0
    1.9083    3.2417    0.0000 C   0  0  0  0  0  0  0  0  0  0  0  0
    0.9083   -1.9542    0.0000 C   0  0  0  0  0  0  0  0  0  0  0  0
    0.4083   -1.0875    0.0000 C   0  0  3  0  0  0  0  0  0  0  0  0
    0.9083   -0.2250    0.0000 C   0  0  0  0  0  0  0  0  0  0  0  0
    0.4083   -2.8208    0.0000 N   0  0  0  0  0  0  0  0  0  0  0  0
    0.4083    4.1042    0.0000 C   0  0  0  0  0  0  0  0  0  0  0  0
   -0.5917    2.3750    0.0000 C   0  0  0  0  0  0  0  0  0  0  0  0
    2.4083    0.6417    0.0000 O   0  0  0  0  0  0  0  0  0  0  0  0
    1.9083   -1.9542    0.0000 O   0  0  0  0  0  0  0  0  0  0  0  0
    2.4083    4.1042    0.0000 C   0  0  0  0  0  0  0  0  0  0  0  0
   -0.5917    0.6417    0.0000 C   0  0  0  0  0  0  0  0  0  0  0  0
    0.9083    4.9667    0.0000 C   0  0  0  0  0  0  0  0  0  0  0  0
    0.9083   -3.6875    0.0000 C   0  0  3  0  0  0  0  0  0  0  0  0
    1.9083    4.9667    0.0000 C   0  0  0  0  0  0  0  0  0  0  0  0
    0.4083    5.8333    0.0000 Cl  0  0  0  0  0  0  0  0  0  0  0  0
   -0.5917   -1.0875    0.0000 C   0  0  0  0  0  0  0  0  0  0  0  0
   -1.0917   -0.2250    0.0000 C   0  0  0  0  0  0  0  0  0  0  0  0
   -1.0917    1.5083    0.0000 C   0  0  0  0  0  0  0  0  0  0  0  0
   -1.0917    3.2417    0.0000 C   0  0  0  0  0  0  0  0  0  0  0  0
    1.9083   -3.6125    0.0000 C   0  0  0  0  0  0  0  0  0  0  0  0
    0.3458   -4.5125    0.0000 C   0  0  0  0  0  0  0  0  0  0  0  0
   -2.0917    1.5083    0.0000 C   0  0  0  0  0  0  0  0  0  0  0  0
   -2.0917    3.2417    0.0000 C   0  0  0  0  0  0  0  0  0  0  0  0
    0.6417   -5.4708    0.0000 C   0  0  0  0  0  0  0  0  0  0  0  0
    2.5875   -4.3458    0.0000 C   0  0  0  0  0  0  0  0  0  0  0  0
    1.5708   -5.8333    0.0000 C   0  0  0  0  0  0  0  0  0  0  0  0
    2.4375   -5.3333    0.0000 C   0  0  0  0  0  0  0  0  0  0  0  0
   -2.5917    2.3750    0.0000 C   0  0  0  0  0  0  0  0  0  0  0  0
  1  2  2  0  0  0  0
  1  3  1  0  0  0  0
  1  4  1  0  0  0  0
  2  5  1  0  0  0  0
  3  6  1  0  0  0  0
  6  7  1  0  0  0  0
  8  9  1  0  0  0  0
  9 10  1  0  0  0  0
  4 10  1  0  0  0  0
  8 11  1  0  0  0  0
  5 12  1  0  0  0  0
  2 13  1  0  0  0  0
  3 14  2  0  0  0  0
  8 15  2  0  0  0  0
  7 16  1  0  0  0  0
  4 17  1  0  0  0  0
 12 18  2  0  0  0  0
 11 19  1  0  0  0  0
 16 20  2  0  0  0  0
 18 21  1  0  0  0  0
 22 23  1  0  0  0  0
 17 23  1  0  0  0  0
 13 24  1  0  0  0  0
 13 25  2  0  0  0  0
 19 26  1  0  0  0  0
 19 27  1  0  0  0  0
 24 28  2  0  0  0  0
 25 29  1  0  0  0  0
 27 30  1  0  0  0  0
 26 31  1  0  0  0  0
 30 32  1  0  0  0  0
 31 33  1  0  0  0  0
 29 34  2  0  0  0  0
  5  7  2  0  0  0  0
  9 22  1  0  0  0  0
 18 20  1  0  0  0  0
 28 34  1  0  0  0  0
 32 33  1  0  0  0  0
M  END
> <MOLFORMULA>
C28 H32 Cl N3 O2

> <MOLWEIGHT>
4.780328000000000e+002

> <IDNUMBER>
AN-153/I261762

> <PRICE>
EUR 130/10 mg

$$$$

  -OEChem-04102411172D

 25 27  0     0  0  0  0  0  0999 V2000
   -0.8167   -0.3542    0.0000 N   0  0  3  0  0  0  0  0  0  0  0  0
   -1.7458    0.0167    0.0000 C   0  0  0  0  0  0  0  0  0  0  0  0
   -0.7125    1.2583    0.0000 C   0  0  3  0  0  0  0  0  0  0  0  0
   -0.3375    2.1875    0.0000 C   0  0  0  0  0  0  0  0  0  0  0  0
   -0.1792    0.4125    0.0000 C   0  0  0  0  0  0  0  0  0  0  0  0
   -1.6792    1.0125    0.0000 C   0  0  0  0  0  0  0  0  0  0  0  0
    0.6500    2.3292    0.0000 N   0  0  0  0  0  0  0  0  0  0  0  0
   -0.5708   -1.3250    0.0000 C   0  0  0  0  0  0  0  0  0  0  0  0
   -2.5917   -0.5167    0.0000 O   0  0  0  0  0  0  0  0  0  0  0  0
   -0.9583    2.9750    0.0000 O   0  0  0  0  0  0  0  0  0  0  0  0
    0.3917   -1.5958    0.0000 C   0  0  0  0  0  0  0  0  0  0  0  0
   -1.2875   -2.0208    0.0000 C   0  0  0  0  0  0  0  0  0  0  0  0
   -0.0833   -3.2625    0.0000 C   0  0  0  0  0  0  0  0  0  0  0  0
    1.0208    3.2583    0.0000 C   0  0  3  0  0  0  0  0  0  0  0  0
   -1.0458   -2.9917    0.0000 C   0  0  0  0  0  0  0  0  0  0  0  0
    0.6333   -2.5667    0.0000 C   0  0  0  0  0  0  0  0  0  0  0  0
    0.1625   -4.2333    0.0000 O   0  0  0  0  0  0  0  0  0  0  0  0
    1.1250   -4.5042    0.0000 C   0  0  0  0  0  0  0  0  0  0  0  0
    2.0208    3.3292    0.0000 C   0  0  0  0  0  0  0  0  0  0  0  0
    0.3458    3.9958    0.0000 C   0  0  0  0  0  0  0  0  0  0  0  0
    1.3708   -5.4750    0.0000 C   0  0  0  0  0  0  0  0  0  0  0  0
    0.5000    4.9792    0.0000 C   0  0  0  0  0  0  0  0  0  0  0  0
    2.5875    4.1458    0.0000 C   0  0  0  0  0  0  0  0  0  0  0  0
    2.3000    5.1042    0.0000 C   0  0  0  0  0  0  0  0  0  0  0  0
    1.3708    5.4750    0.0000 C   0  0  0  0  0  0  0  0  0  0  0  0
  1  2  1  0  0  0  0
  3  5  1  0  0  0  0
  3  4  1  0  0  0  0
  1  5  1  0  0  0  0
  2  6  1  0  0  0  0
  4  7  1  0  0  0  0
  1  8  1  0  0  0  0
  2  9  2  0  0  0  0
  4 10  2  0  0  0  0
  8 11  2  0  0  0  0
  8 12  1  0  0  0  0
 13 15  1  0  0  0  0
  7 14  1  0  0  0  0
 12 15  2  0  0  0  0
 11 16  1  0  0  0  0
 13 17  1  0  0  0  0
 17 18  1  0  0  0  0
 14 19  1  0  0  0  0
 14 20  1  0  0  0  0
 18 21  1  0  0  0  0
 20 22  1  0  0  0  0
 19 23  1  0  0  0  0
 23 24  1  0  0  0  0
 22 25  1  0  0  0  0
  3  6  1  0  0  0  0
 13 16  2  0  0  0  0
 24 25  1  0  0  0  0
M  END
> <MOLFORMULA>
C20 H28 N2 O3

> <MOLWEIGHT>
3.444522000000000e+002

> <IDNUMBER>
AN-153/I275519

> <PRICE>
EUR 130/10 mg

$$$$

  -OEChem-04102411172D

 21 23  0     0  0  0  0  0  0999 V2000
   -0.2792   -1.8500    0.0000 N   0  0  3  0  0  0  0  0  0  0  0  0
   -1.2708   -1.7125    0.0000 C   0  0  0  0  0  0  0  0  0  0  0  0
   -0.5583   -0.2583    0.0000 C   0  0  3  0  0  0  0  0  0  0  0  0
   -0.4167    0.7333    0.0000 C   0  0  0  0  0  0  0  0  0  0  0  0
    0.1583   -0.9542    0.0000 C   0  0  0  0  0  0  0  0  0  0  0  0
   -1.4417   -0.7250    0.0000 C   0  0  0  0  0  0  0  0  0  0  0  0
    0.5083    1.1042    0.0000 N   0  0  0  0  0  0  0  0  0  0  0  0
   -1.9667   -2.4292    0.0000 O   0  0  0  0  0  0  0  0  0  0  0  0
    0.1875   -2.7375    0.0000 C   0  0  3  0  0  0  0  0  0  0  0  0
   -1.2042    1.3500    0.0000 O   0  0  0  0  0  0  0  0  0  0  0  0
    0.6500    2.0958    0.0000 C   0  0  3  0  0  0  0  0  0  0  0  0
    1.1792   -2.8750    0.0000 C   0  0  0  0  0  0  0  0  0  0  0  0
   -0.2542   -3.6333    0.0000 C   0  0  0  0  0  0  0  0  0  0  0  0
   -0.1792    2.6500    0.0000 C   0  0  0  0  0  0  0  0  0  0  0  0
    1.6042    2.3958    0.0000 C   0  0  0  0  0  0  0  0  0  0  0  0
    0.4667   -4.3292    0.0000 C   0  0  0  0  0  0  0  0  0  0  0  0
    1.3500   -3.8625    0.0000 C   0  0  0  0  0  0  0  0  0  0  0  0
   -0.2625    3.6500    0.0000 C   0  0  0  0  0  0  0  0  0  0  0  0
    1.9625    3.3292    0.0000 C   0  0  0  0  0  0  0  0  0  0  0  0
    1.4542    4.1875    0.0000 C   0  0  0  0  0  0  0  0  0  0  0  0
    0.4667    4.3292    0.0000 C   0  0  0  0  0  0  0  0  0  0  0  0
  1  2  1  0  0  0  0
  3  5  1  0  0  0  0
  3  4  1  0  0  0  0
  1  5  1  0  0  0  0
  2  6  1  0  0  0  0
  4  7  1  0  0  0  0
  2  8  2  0  0  0  0
  1  9  1  0  0  0  0
  4 10  2  0  0  0  0
  7 11  1  0  0  0  0
  9 12  1  0  0  0  0
  9 13  1  0  0  0  0
 11 14  1  0  0  0  0
 11 15  1  0  0  0  0
 13 16  1  0  0  0  0
 12 17  1  0  0  0  0
 14 18  1  0  0  0  0
 15 19  1  0  0  0  0
 19 20  1  0  0  0  0
 18 21  1  0  0  0  0
  3  6  1  0  0  0  0
 16 17  1  0  0  0  0
 20 21  1  0  0  0  0
M  END
> <MOLFORMULA>
C17 H28 N2 O2

> <MOLWEIGHT>
2.924202000000000e+002

> <IDNUMBER>
AN-153/I275867

> <PRICE>
EUR 130/10 mg

$$$$

  -OEChem-04102411172D

 23 25  0     0  0  0  0  0  0999 V2000
   -0.5417   -1.1625    0.0000 N   0  0  3  0  0  0  0  0  0  0  0  0
   -1.5125   -0.9083    0.0000 C   0  0  0  0  0  0  0  0  0  0  0  0
   -0.6375    0.4500    0.0000 C   0  0  3  0  0  0  0  0  0  0  0  0
   -0.3833    1.4167    0.0000 C   0  0  0  0  0  0  0  0  0  0  0  0
   -0.0042   -0.3208    0.0000 C   0  0  0  0  0  0  0  0  0  0  0  0
   -1.5667    0.0875    0.0000 C   0  0  0  0  0  0  0  0  0  0  0  0
    0.5833    1.6833    0.0000 N   0  0  0  0  0  0  0  0  0  0  0  0
   -0.1792   -2.0958    0.0000 C   0  0  0  0  0  0  0  0  0  0  0  0
   -2.2833   -1.5417    0.0000 O   0  0  0  0  0  0  0  0  0  0  0  0
   -1.0917    2.1208    0.0000 O   0  0  0  0  0  0  0  0  0  0  0  0
    0.8083   -2.2458    0.0000 C   0  0  0  0  0  0  0  0  0  0  0  0
   -0.8042   -2.8750    0.0000 C   0  0  0  0  0  0  0  0  0  0  0  0
    0.5458   -3.9583    0.0000 C   0  0  0  0  0  0  0  0  0  0  0  0
    0.8375    2.6500    0.0000 C   0  0  3  0  0  0  0  0  0  0  0  0
    1.1708   -3.1792    0.0000 C   0  0  0  0  0  0  0  0  0  0  0  0
   -0.4417   -3.8083    0.0000 C   0  0  0  0  0  0  0  0  0  0  0  0
    0.9083   -4.8917    0.0000 Cl  0  0  0  0  0  0  0  0  0  0  0  0
    0.0750    3.3000    0.0000 C   0  0  0  0  0  0  0  0  0  0  0  0
    1.8167    2.8417    0.0000 C   0  0  0  0  0  0  0  0  0  0  0  0
    0.1083    4.2917    0.0000 C   0  0  0  0  0  0  0  0  0  0  0  0
    2.2792    3.7250    0.0000 C   0  0  0  0  0  0  0  0  0  0  0  0
    1.8750    4.6375    0.0000 C   0  0  0  0  0  0  0  0  0  0  0  0
    0.9083    4.8917    0.0000 C   0  0  0  0  0  0  0  0  0  0  0  0
  1  2  1  0  0  0  0
  3  5  1  0  0  0  0
  3  4  1  0  0  0  0
  1  5  1  0  0  0  0
  2  6  1  0  0  0  0
  4  7  1  0  0  0  0
  1  8  1  0  0  0  0
  2  9  2  0  0  0  0
  4 10  2  0  0  0  0
  8 11  2  0  0  0  0
  8 12  1  0  0  0  0
 13 16  1  0  0  0  0
  7 14  1  0  0  0  0
 11 15  1  0  0  0  0
 12 16  2  0  0  0  0
 13 17  1  0  0  0  0
 14 18  1  0  0  0  0
 14 19  1  0  0  0  0
 18 20  1  0  0  0  0
 19 21  1  0  0  0  0
 21 22  1  0  0  0  0
 20 23  1  0  0  0  0
  3  6  1  0  0  0  0
 13 15  2  0  0  0  0
 22 23  1  0  0  0  0
M  END
> <MOLFORMULA>
C18 H23 Cl N2 O2

> <MOLWEIGHT>
3.348447000000000e+002

> <IDNUMBER>
AN-153/I275444

> <PRICE>
EUR 130/10 mg

$$$$

  -OEChem-04102411172D

 25 27  0     0  0  0  0  0  0999 V2000
    0.5583   -0.7667    0.0000 N   0  0  3  0  0  0  0  0  0  0  0  0
    0.5583    0.8500    0.0000 C   0  0  3  0  0  0  0  0  0  0  0  0
    1.5125   -0.4583    0.0000 C   0  0  0  0  0  0  0  0  0  0  0  0
    0.2500    1.8042    0.0000 C   0  0  0  0  0  0  0  0  0  0  0  0
   -0.0292    0.0417    0.0000 C   0  0  0  0  0  0  0  0  0  0  0  0
    1.5125    0.5417    0.0000 C   0  0  0  0  0  0  0  0  0  0  0  0
    0.9208    2.5458    0.0000 N   0  0  0  0  0  0  0  0  0  0  0  0
    0.2500   -1.7167    0.0000 C   0  0  0  0  0  0  0  0  0  0  0  0
    2.3208   -1.0458    0.0000 O   0  0  0  0  0  0  0  0  0  0  0  0
   -0.7292    2.0083    0.0000 O   0  0  0  0  0  0  0  0  0  0  0  0
   -1.6542   -4.7792    0.0000 C   0  0  0  0  0  0  0  0  0  0  0  0
   -1.0375   -2.8792    0.0000 C   0  0  0  0  0  0  0  0  0  0  0  0
   -0.7292   -1.9250    0.0000 C   0  0  0  0  0  0  0  0  0  0  0  0
    0.6125    3.4958    0.0000 C   0  0  3  0  0  0  0  0  0  0  0  0
   -1.9625   -5.7292    0.0000 F   0  0  0  0  0  0  0  0  0  0  0  0
   -0.6750   -4.5708    0.0000 C   0  0  0  0  0  0  0  0  0  0  0  0
   -2.3250   -4.0375    0.0000 C   0  0  0  0  0  0  0  0  0  0  0  0
   -0.3667   -3.6208    0.0000 C   0  0  0  0  0  0  0  0  0  0  0  0
   -2.0167   -3.0833    0.0000 C   0  0  0  0  0  0  0  0  0  0  0  0
    1.3333    4.1833    0.0000 C   0  0  0  0  0  0  0  0  0  0  0  0
   -0.3792    3.6292    0.0000 C   0  0  0  0  0  0  0  0  0  0  0  0
    1.2458    5.1792    0.0000 C   0  0  0  0  0  0  0  0  0  0  0  0
   -0.8917    4.4833    0.0000 C   0  0  0  0  0  0  0  0  0  0  0  0
   -0.5417    5.4208    0.0000 C   0  0  0  0  0  0  0  0  0  0  0  0
    0.4083    5.7292    0.0000 C   0  0  0  0  0  0  0  0  0  0  0  0
  2  5  1  0  0  0  0
  1  3  1  0  0  0  0
  2  4  1  0  0  0  0
  1  5  1  0  0  0  0
  3  6  1  0  0  0  0
  4  7  1  0  0  0  0
  1  8  1  0  0  0  0
  3  9  2  0  0  0  0
  4 10  2  0  0  0  0
 11 17  1  0  0  0  0
 12 13  1  0  0  0  0
  8 13  1  0  0  0  0
  7 14  1  0  0  0  0
 11 15  1  0  0  0  0
 16 18  1  0  0  0  0
 17 19  2  0  0  0  0
 12 18  2  0  0  0  0
 12 19  1  0  0  0  0
 14 20  1  0  0  0  0
 14 21  1  0  0  0  0
 20 22  1  0  0  0  0
 21 23  1  0  0  0  0
 23 24  1  0  0  0  0
 22 25  1  0  0  0  0
  2  6  1  0  0  0  0
 11 16  2  0  0  0  0
 24 25  1  0  0  0  0
M  END
> <MOLFORMULA>
C20 H27 F N2 O2

> <MOLWEIGHT>
3.464433000000000e+002

> <IDNUMBER>
AN-153/I275933

> <PRICE>
EUR 130/10 mg

$$$$

  -OEChem-04102411172D

 20 21  0     0  0  0  0  0  0999 V2000
    0.6667    0.2083    0.0000 C   0  0  3  0  0  0  0  0  0  0  0  0
    0.6667    1.8250    0.0000 N   0  0  3  0  0  0  0  0  0  0  0  0
    1.6208    1.5167    0.0000 C   0  0  0  0  0  0  0  0  0  0  0  0
    0.3583   -0.7417    0.0000 C   0  0  0  0  0  0  0  0  0  0  0  0
    0.0792    1.0167    0.0000 C   0  0  0  0  0  0  0  0  0  0  0  0
    1.6208    0.5167    0.0000 C   0  0  0  0  0  0  0  0  0  0  0  0
   -0.6208   -0.9500    0.0000 N   0  0  0  0  0  0  0  0  0  0  0  0
    2.4292    2.1042    0.0000 O   0  0  0  0  0  0  0  0  0  0  0  0
    1.0292   -1.4875    0.0000 O   0  0  0  0  0  0  0  0  0  0  0  0
   -0.9292   -1.9000    0.0000 C   0  0  3  0  0  0  0  0  0  0  0  0
    0.3583    2.7792    0.0000 C   0  0  0  0  0  0  0  0  0  0  0  0
   -0.2042   -2.5917    0.0000 C   0  0  0  0  0  0  0  0  0  0  0  0
   -1.9208   -2.0375    0.0000 C   0  0  0  0  0  0  0  0  0  0  0  0
   -0.6208    2.9833    0.0000 C   0  0  0  0  0  0  0  0  0  0  0  0
   -0.9292    3.9375    0.0000 C   0  0  0  0  0  0  0  0  0  0  0  0
   -1.9083    4.1417    0.0000 C   0  0  0  0  0  0  0  0  0  0  0  0
   -0.2958   -3.5875    0.0000 C   0  0  0  0  0  0  0  0  0  0  0  0
   -2.4333   -2.8958    0.0000 C   0  0  0  0  0  0  0  0  0  0  0  0
   -1.1292   -4.1417    0.0000 C   0  0  0  0  0  0  0  0  0  0  0  0
   -2.0792   -3.8292    0.0000 C   0  0  0  0  0  0  0  0  0  0  0  0
  2  5  1  0  0  0  0
  3  6  1  0  0  0  0
  1  4  1  0  0  0  0
  1  5  1  0  0  0  0
  1  6  1  0  0  0  0
  4  7  1  0  0  0  0
  3  8  2  0  0  0  0
  4  9  2  0  0  0  0
  7 10  1  0  0  0  0
  2 11  1  0  0  0  0
 10 12  1  0  0  0  0
 10 13  1  0  0  0  0
 11 14  1  0  0  0  0
 14 15  1  0  0  0  0
 15 16  1  0  0  0  0
 12 17  1  0  0  0  0
 13 18  1  0  0  0  0
 17 19  1  0  0  0  0
 18 20  1  0  0  0  0
  2  3  1  0  0  0  0
 19 20  1  0  0  0  0
M  END
> <MOLFORMULA>
C16 H28 N2 O2

> <MOLWEIGHT>
2.804092000000000e+002

> <IDNUMBER>
AN-153/I276436

> <PRICE>
EUR 130/10 mg

$$$$

  -OEChem-04102411172D

 31 34  0     0  0  0  0  0  0999 V2000
    0.1708   -2.7792    0.0000 N   0  0  3  0  0  0  0  0  0  0  0  0
   -0.5917   -1.3542    0.0000 C   0  0  3  0  0  0  0  0  0  0  0  0
    0.8667   -2.0583    0.0000 C   0  0  0  0  0  0  0  0  0  0  0  0
   -1.3125   -0.6625    0.0000 C   0  0  0  0  0  0  0  0  0  0  0  0
   -0.7292   -2.3417    0.0000 C   0  0  0  0  0  0  0  0  0  0  0  0
   -1.0750    0.3125    0.0000 N   0  0  3  0  0  0  0  0  0  0  0  0
   -0.3583    3.2250    0.0000 C   0  0  0  0  0  0  0  0  0  0  0  0
    0.3917   -1.1750    0.0000 C   0  0  0  0  0  0  0  0  0  0  0  0
    0.6042    3.5042    0.0000 N   0  0  0  0  0  0  0  0  0  0  0  0
    0.3500   -3.7625    0.0000 C   0  0  0  0  0  0  0  0  0  0  0  0
   -0.5958    2.2542    0.0000 C   0  0  3  0  0  0  0  0  0  0  0  0
    1.8542   -2.1917    0.0000 O   0  0  0  0  0  0  0  0  0  0  0  0
   -2.2750   -0.9375    0.0000 O   0  0  0  0  0  0  0  0  0  0  0  0
   -1.7958    1.0042    0.0000 C   0  0  0  0  0  0  0  0  0  0  0  0
   -0.1125    0.5875    0.0000 C   0  0  0  0  0  0  0  0  0  0  0  0
   -1.0792    3.9167    0.0000 O   0  0  0  0  0  0  0  0  0  0  0  0
    0.1250    1.5625    0.0000 C   0  0  0  0  0  0  0  0  0  0  0  0
   -1.5583    1.9750    0.0000 C   0  0  0  0  0  0  0  0  0  0  0  0
    1.2917   -4.1042    0.0000 C   0  0  0  0  0  0  0  0  0  0  0  0
   -0.4167   -4.4083    0.0000 C   0  0  0  0  0  0  0  0  0  0  0  0
    0.8417    4.4708    0.0000 C   0  0  3  0  0  0  0  0  0  0  0  0
    1.4667   -5.0875    0.0000 C   0  0  0  0  0  0  0  0  0  0  0  0
   -0.2375   -5.3917    0.0000 C   0  0  0  0  0  0  0  0  0  0  0  0
    0.7042   -5.7333    0.0000 C   0  0  0  0  0  0  0  0  0  0  0  0
    0.8792   -6.7167    0.0000 C   0  0  0  0  0  0  0  0  0  0  0  0
    0.0708    5.1042    0.0000 C   0  0  0  0  0  0  0  0  0  0  0  0
    1.8208    4.6750    0.0000 C   0  0  0  0  0  0  0  0  0  0  0  0
    0.0875    6.1042    0.0000 C   0  0  0  0  0  0  0  0  0  0  0  0
    2.2708    5.5708    0.0000 C   0  0  0  0  0  0  0  0  0  0  0  0
    0.8792    6.7167    0.0000 C   0  0  0  0  0  0  0  0  0  0  0  0
    1.8500    6.4792    0.0000 C   0  0  0  0  0  0  0  0  0  0  0  0
  2  5  1  0  0  0  0
  1  3  1  0  0  0  0
  2  4  1  0  0  0  0
  1  5  1  0  0  0  0
  4  6  1  0  0  0  0
  7 11  1  0  0  0  0
  3  8  1  0  0  0  0
  7  9  1  0  0  0  0
  1 10  1  0  0  0  0
 11 17  1  0  0  0  0
  3 12  2  0  0  0  0
  4 13  2  0  0  0  0
  6 14  1  0  0  0  0
  6 15  1  0  0  0  0
  7 16  2  0  0  0  0
 15 17  1  0  0  0  0
 14 18  1  0  0  0  0
 10 19  1  0  0  0  0
 10 20  2  0  0  0  0
  9 21  1  0  0  0  0
 19 22  2  0  0  0  0
 20 23  1  0  0  0  0
 23 24  2  0  0  0  0
 24 25  1  0  0  0  0
 21 26  1  0  0  0  0
 21 27  1  0  0  0  0
 26 28  1  0  0  0  0
 27 29  1  0  0  0  0
 28 30  1  0  0  0  0
 29 31  1  0  0  0  0
  2  8  1  0  0  0  0
 22 24  1  0  0  0  0
 11 18  1  0  0  0  0
 30 31  1  0  0  0  0
M  END
> <MOLFORMULA>
C25 H35 N3 O3

> <MOLWEIGHT>
4.255695000000000e+002

> <IDNUMBER>
AN-153/I276239

> <PRICE>
EUR 130/10 mg

$$$$

  -OEChem-04102411172D

 26 28  0     0  0  0  0  0  0999 V2000
   -0.7625   -0.8917    0.0000 N   0  0  3  0  0  0  0  0  0  0  0  0
   -1.7000   -0.5417    0.0000 C   0  0  0  0  0  0  0  0  0  0  0  0
   -0.6958    0.7250    0.0000 C   0  0  3  0  0  0  0  0  0  0  0  0
   -0.4958   -1.8542    0.0000 C   0  0  0  0  0  0  0  0  0  0  0  0
   -0.1417   -0.1042    0.0000 C   0  0  0  0  0  0  0  0  0  0  0  0
   -0.3500    1.6625    0.0000 C   0  0  0  0  0  0  0  0  0  0  0  0
   -1.6583    0.4583    0.0000 C   0  0  0  0  0  0  0  0  0  0  0  0
    0.4750   -2.1000    0.0000 C   0  0  0  0  0  0  0  0  0  0  0  0
    0.6375    1.8292    0.0000 N   0  0  0  0  0  0  0  0  0  0  0  0
    0.7417   -3.0667    0.0000 C   0  0  0  0  0  0  0  0  0  0  0  0
   -1.1958   -2.5667    0.0000 C   0  0  0  0  0  0  0  0  0  0  0  0
   -2.5333   -1.0958    0.0000 O   0  0  0  0  0  0  0  0  0  0  0  0
   -0.9875    2.4333    0.0000 O   0  0  0  0  0  0  0  0  0  0  0  0
    0.0417   -3.7792    0.0000 C   0  0  0  0  0  0  0  0  0  0  0  0
   -0.9250   -3.5292    0.0000 C   0  0  0  0  0  0  0  0  0  0  0  0
    1.1750   -1.3875    0.0000 O   0  0  0  0  0  0  0  0  0  0  0  0
    0.9875    2.7667    0.0000 C   0  0  3  0  0  0  0  0  0  0  0  0
    0.3125   -4.7417    0.0000 O   0  0  0  0  0  0  0  0  0  0  0  0
    2.1417   -1.6375    0.0000 C   0  0  0  0  0  0  0  0  0  0  0  0
    1.2792   -4.9917    0.0000 C   0  0  0  0  0  0  0  0  0  0  0  0
    1.9833    2.8625    0.0000 C   0  0  0  0  0  0  0  0  0  0  0  0
    0.2917    3.4875    0.0000 C   0  0  0  0  0  0  0  0  0  0  0  0
    0.4250    4.4750    0.0000 C   0  0  0  0  0  0  0  0  0  0  0  0
    2.5292    3.6958    0.0000 C   0  0  0  0  0  0  0  0  0  0  0  0
    1.2792    4.9917    0.0000 C   0  0  0  0  0  0  0  0  0  0  0  0
    2.2167    4.6417    0.0000 C   0  0  0  0  0  0  0  0  0  0  0  0
  1  2  1  0  0  0  0
  3  5  1  0  0  0  0
  1  4  1  0  0  0  0
  1  5  1  0  0  0  0
  3  6  1  0  0  0  0
  2  7  1  0  0  0  0
  4  8  1  0  0  0  0
  6  9  1  0  0  0  0
  8 10  2  0  0  0  0
  4 11  2  0  0  0  0
  2 12  2  0  0  0  0
  6 13  2  0  0  0  0
 14 15  2  0  0  0  0
 11 15  1  0  0  0  0
  8 16  1  0  0  0  0
  9 17  1  0  0  0  0
 14 18  1  0  0  0  0
 16 19  1  0  0  0  0
 18 20  1  0  0  0  0
 17 21  1  0  0  0  0
 17 22  1  0  0  0  0
 22 23  1  0  0  0  0
 21 24  1  0  0  0  0
 23 25  1  0  0  0  0
 24 26  1  0  0  0  0
  3  7  1  0  0  0  0
 10 14  1  0  0  0  0
 25 26  1  0  0  0  0
M  END
> <MOLFORMULA>
C20 H28 N2 O4

> <MOLWEIGHT>
3.604512000000000e+002

> <IDNUMBER>
AN-153/I296232

> <PRICE>
EUR 130/10 mg

$$$$

  -OEChem-04102411172D

 29 32  0     0  0  0  0  0  0999 V2000
    0.2000    0.1583    0.0000 C   0  0  0  0  0  0  0  0  0  0  0  0
   -0.2667    1.0458    0.0000 N   0  0  0  0  0  0  0  0  0  0  0  0
    0.2625    1.8917    0.0000 N   0  0  3  0  0  0  0  0  0  0  0  0
    1.2625    1.8542    0.0000 C   0  0  0  0  0  0  0  0  0  0  0  0
   -0.3333   -0.6875    0.0000 C   0  0  0  0  0  0  0  0  0  0  0  0
    1.2000    0.1208    0.0000 C   0  0  0  0  0  0  0  0  0  0  0  0
    1.7292    0.9708    0.0000 C   0  0  0  0  0  0  0  0  0  0  0  0
   -0.2042    2.7750    0.0000 C   0  0  0  0  0  0  0  0  0  0  0  0
    0.1333   -1.5708    0.0000 N   0  0  0  0  0  0  0  0  0  0  0  0
   -1.2042    2.8125    0.0000 C   0  0  0  0  0  0  0  0  0  0  0  0
    1.7958    2.7000    0.0000 O   0  0  0  0  0  0  0  0  0  0  0  0
   -1.3333   -0.6500    0.0000 O   0  0  0  0  0  0  0  0  0  0  0  0
   -1.6708    3.6958    0.0000 C   0  0  0  0  0  0  0  0  0  0  0  0
   -1.1375    4.5375    0.0000 Cl  0  0  0  0  0  0  0  0  0  0  0  0
   -0.3958   -2.4167    0.0000 C   0  0  3  0  0  0  0  0  0  0  0  0
    1.6667   -0.7625    0.0000 C   0  0  0  0  0  0  0  0  0  0  0  0
    2.7292    0.9333    0.0000 C   0  0  0  0  0  0  0  0  0  0  0  0
   -1.7333    1.9667    0.0000 C   0  0  0  0  0  0  0  0  0  0  0  0
   -2.6708    3.7333    0.0000 C   0  0  0  0  0  0  0  0  0  0  0  0
   -1.3917   -2.3042    0.0000 C   0  0  0  0  0  0  0  0  0  0  0  0
    0.1375   -3.2625    0.0000 C   0  0  0  0  0  0  0  0  0  0  0  0
    2.6667   -0.8000    0.0000 C   0  0  0  0  0  0  0  0  0  0  0  0
    3.1958    0.0500    0.0000 C   0  0  0  0  0  0  0  0  0  0  0  0
   -2.7333    2.0042    0.0000 C   0  0  0  0  0  0  0  0  0  0  0  0
   -3.2000    2.8875    0.0000 C   0  0  0  0  0  0  0  0  0  0  0  0
   -0.1958   -4.2083    0.0000 C   0  0  0  0  0  0  0  0  0  0  0  0
   -2.0958   -3.0125    0.0000 C   0  0  0  0  0  0  0  0  0  0  0  0
   -1.1375   -4.5375    0.0000 C   0  0  0  0  0  0  0  0  0  0  0  0
   -1.9875   -4.0083    0.0000 C   0  0  0  0  0  0  0  0  0  0  0  0
  1  2  2  0  0  0  0
  2  3  1  0  0  0  0
  4  7  1  0  0  0  0
  1  5  1  0  0  0  0
  1  6  1  0  0  0  0
  6  7  2  0  0  0  0
  3  8  1  0  0  0  0
  5  9  1  0  0  0  0
  8 10  1  0  0  0  0
  4 11  2  0  0  0  0
  5 12  2  0  0  0  0
 10 13  1  0  0  0  0
 13 14  1  0  0  0  0
  9 15  1  0  0  0  0
  6 16  1  0  0  0  0
  7 17  1  0  0  0  0
 10 18  2  0  0  0  0
 13 19  2  0  0  0  0
 15 20  1  0  0  0  0
 15 21  1  0  0  0  0
 16 22  2  0  0  0  0
 22 23  1  0  0  0  0
 18 24  1  0  0  0  0
 24 25  2  0  0  0  0
 21 26  1  0  0  0  0
 20 27  1  0  0  0  0
 26 28  1  0  0  0  0
 27 29  1  0  0  0  0
  3  4  1  0  0  0  0
 17 23  2  0  0  0  0
 28 29  1  0  0  0  0
 19 25  1  0  0  0  0
M  END
> <MOLFORMULA>
C23 H24 Cl N3 O2

> <MOLWEIGHT>
4.099146000000000e+002

> <IDNUMBER>
AN-153/I295220

> <PRICE>
EUR 130/10 mg

$$$$

  -OEChem-04102411172D

 26 28  0     0  0  0  0  0  0999 V2000
   -0.5458   -1.3417    0.0000 N   0  0  3  0  0  0  0  0  0  0  0  0
   -1.5375   -1.4917    0.0000 C   0  0  0  0  0  0  0  0  0  0  0  0
   -1.2750    0.1042    0.0000 C   0  0  3  0  0  0  0  0  0  0  0  0
    0.1542   -2.0500    0.0000 C   0  0  0  0  0  0  0  0  0  0  0  0
   -0.3875   -0.3542    0.0000 C   0  0  0  0  0  0  0  0  0  0  0  0
   -1.4250    1.0958    0.0000 C   0  0  0  0  0  0  0  0  0  0  0  0
   -1.9875   -0.6000    0.0000 C   0  0  0  0  0  0  0  0  0  0  0  0
   -0.6458    1.7208    0.0000 N   0  0  0  0  0  0  0  0  0  0  0  0
   -0.1083   -3.0167    0.0000 C   0  0  0  0  0  0  0  0  0  0  0  0
    1.1250   -1.7958    0.0000 C   0  0  0  0  0  0  0  0  0  0  0  0
   -1.9958   -2.3792    0.0000 O   0  0  0  0  0  0  0  0  0  0  0  0
   -2.3583    1.4583    0.0000 O   0  0  0  0  0  0  0  0  0  0  0  0
    1.8250   -2.5083    0.0000 C   0  0  0  0  0  0  0  0  0  0  0  0
    0.5958   -3.7250    0.0000 C   0  0  0  0  0  0  0  0  0  0  0  0
   -0.7958    2.7083    0.0000 C   0  0  3  0  0  0  0  0  0  0  0  0
    1.5625   -3.4708    0.0000 C   0  0  0  0  0  0  0  0  0  0  0  0
    1.3875   -0.8333    0.0000 O   0  0  0  0  0  0  0  0  0  0  0  0
    0.3333   -4.6917    0.0000 O   0  0  0  0  0  0  0  0  0  0  0  0
    2.3542   -0.5792    0.0000 C   0  0  0  0  0  0  0  0  0  0  0  0
   -0.6333   -4.9458    0.0000 C   0  0  0  0  0  0  0  0  0  0  0  0
    0.0292    3.2750    0.0000 C   0  0  0  0  0  0  0  0  0  0  0  0
   -1.7542    3.0000    0.0000 C   0  0  0  0  0  0  0  0  0  0  0  0
    0.1000    4.2667    0.0000 C   0  0  0  0  0  0  0  0  0  0  0  0
   -2.1208    3.9292    0.0000 C   0  0  0  0  0  0  0  0  0  0  0  0
   -0.6333    4.9458    0.0000 C   0  0  0  0  0  0  0  0  0  0  0  0
   -1.6250    4.7917    0.0000 C   0  0  0  0  0  0  0  0  0  0  0  0
  1  2  1  0  0  0  0
  3  5  1  0  0  0  0
  1  4  1  0  0  0  0
  1  5  1  0  0  0  0
  3  6  1  0  0  0  0
  2  7  1  0  0  0  0
  6  8  1  0  0  0  0
  4  9  2  0  0  0  0
  4 10  1  0  0  0  0
  2 11  2  0  0  0  0
  6 12  2  0  0  0  0
 10 13  2  0  0  0  0
  9 14  1  0  0  0  0
  8 15  1  0  0  0  0
 13 16  1  0  0  0  0
 10 17  1  0  0  0  0
 14 18  1  0  0  0  0
 17 19  1  0  0  0  0
 18 20  1  0  0  0  0
 15 21  1  0  0  0  0
 15 22  1  0  0  0  0
 21 23  1  0  0  0  0
 22 24  1  0  0  0  0
 23 25  1  0  0  0  0
 24 26  1  0  0  0  0
  3  7  1  0  0  0  0
 14 16  2  0  0  0  0
 25 26  1  0  0  0  0
M  END
> <MOLFORMULA>
C20 H28 N2 O4

> <MOLWEIGHT>
3.604512000000000e+002

> <IDNUMBER>
AN-153/I296361

> <PRICE>
EUR 130/10 mg

$$$$

  -OEChem-04102411172D

 29 32  0     0  0  0  0  0  0999 V2000
   -0.6458    0.4792    0.0000 C   0  0  0  0  0  0  0  0  0  0  0  0
    0.0458    1.9417    0.0000 N   0  0  3  0  0  0  0  0  0  0  0  0
   -0.8333    1.4625    0.0000 C   0  0  0  0  0  0  0  0  0  0  0  0
   -1.3333   -0.2500    0.0000 C   0  0  0  0  0  0  0  0  0  0  0  0
    0.3458    0.3542    0.0000 C   0  0  0  0  0  0  0  0  0  0  0  0
   -1.0458   -1.2083    0.0000 C   0  0  0  0  0  0  0  0  0  0  0  0
    0.7708    1.2583    0.0000 C   0  0  0  0  0  0  0  0  0  0  0  0
    0.1708    2.9333    0.0000 C   0  0  0  0  0  0  0  0  0  0  0  0
   -0.6250    3.5417    0.0000 C   0  0  0  0  0  0  0  0  0  0  0  0
   -1.7292   -1.9333    0.0000 N   0  0  0  0  0  0  0  0  0  0  0  0
   -0.0708   -1.4375    0.0000 O   0  0  0  0  0  0  0  0  0  0  0  0
   -2.3042   -0.0167    0.0000 O   0  0  0  0  0  0  0  0  0  0  0  0
   -0.4958    4.5292    0.0000 C   0  0  0  0  0  0  0  0  0  0  0  0
    0.4250    4.9125    0.0000 Cl  0  0  0  0  0  0  0  0  0  0  0  0
   -1.4417   -2.8917    0.0000 C   0  0  3  0  0  0  0  0  0  0  0  0
    0.9125   -0.4708    0.0000 C   0  0  0  0  0  0  0  0  0  0  0  0
    1.7708    1.3375    0.0000 C   0  0  0  0  0  0  0  0  0  0  0  0
   -1.5458    3.1542    0.0000 C   0  0  0  0  0  0  0  0  0  0  0  0
   -1.2917    5.1333    0.0000 C   0  0  0  0  0  0  0  0  0  0  0  0
   -2.1833   -3.5667    0.0000 C   0  0  0  0  0  0  0  0  0  0  0  0
   -0.4542   -3.0500    0.0000 C   0  0  0  0  0  0  0  0  0  0  0  0
    1.9125   -0.3875    0.0000 C   0  0  0  0  0  0  0  0  0  0  0  0
    2.3375    0.5167    0.0000 C   0  0  0  0  0  0  0  0  0  0  0  0
   -2.3417    3.7583    0.0000 C   0  0  0  0  0  0  0  0  0  0  0  0
   -2.2167    4.7500    0.0000 C   0  0  0  0  0  0  0  0  0  0  0  0
    0.0375   -3.9167    0.0000 C   0  0  0  0  0  0  0  0  0  0  0  0
   -2.1125   -4.5625    0.0000 C   0  0  0  0  0  0  0  0  0  0  0  0
   -0.3333   -4.8458    0.0000 C   0  0  0  0  0  0  0  0  0  0  0  0
   -1.2917   -5.1333    0.0000 C   0  0  0  0  0  0  0  0  0  0  0  0
  2  3  1  0  0  0  0
  1  3  2  0  0  0  0
  1  4  1  0  0  0  0
  1  5  1  0  0  0  0
  4  6  1  0  0  0  0
  5  7  1  0  0  0  0
  2  8  1  0  0  0  0
  8  9  1  0  0  0  0
  6 10  1  0  0  0  0
  6 11  2  0  0  0  0
  4 12  2  0  0  0  0
  9 13  1  0  0  0  0
 13 14  1  0  0  0  0
 10 15  1  0  0  0  0
  5 16  2  0  0  0  0
  7 17  2  0  0  0  0
  9 18  2  0  0  0  0
 13 19  2  0  0  0  0
 15 20  1  0  0  0  0
 15 21  1  0  0  0  0
 16 22  1  0  0  0  0
 22 23  2  0  0  0  0
 18 24  1  0  0  0  0
 24 25  2  0  0  0  0
 21 26  1  0  0  0  0
 20 27  1  0  0  0  0
 26 28  1  0  0  0  0
 27 29  1  0  0  0  0
  2  7  1  0  0  0  0
 17 23  1  0  0  0  0
 28 29  1  0  0  0  0
 19 25  1  0  0  0  0
M  END
> <MOLFORMULA>
C24 H25 Cl N2 O2

> <MOLWEIGHT>
4.089265000000000e+002

> <IDNUMBER>
AN-153/I294934

> <PRICE>
EUR 130/10 mg

$$$$

  -OEChem-04102411172D

 30 33  0     0  0  0  0  0  0999 V2000
   -1.0750    0.4792    0.0000 C   0  0  0  0  0  0  0  0  0  0  0  0
   -0.3833    1.9417    0.0000 N   0  0  3  0  0  0  0  0  0  0  0  0
   -1.2583    1.4625    0.0000 C   0  0  0  0  0  0  0  0  0  0  0  0
   -0.0833    0.3542    0.0000 C   0  0  0  0  0  0  0  0  0  0  0  0
   -1.7583   -0.2500    0.0000 C   0  0  0  0  0  0  0  0  0  0  0  0
    0.3458    1.2583    0.0000 C   0  0  0  0  0  0  0  0  0  0  0  0
   -1.4708   -1.2083    0.0000 C   0  0  0  0  0  0  0  0  0  0  0  0
   -2.1583   -1.9333    0.0000 N   0  0  0  0  0  0  0  0  0  0  0  0
   -0.2542    2.9333    0.0000 C   0  0  0  0  0  0  0  0  0  0  0  0
   -0.5000   -1.4375    0.0000 O   0  0  0  0  0  0  0  0  0  0  0  0
   -2.7333   -0.0208    0.0000 O   0  0  0  0  0  0  0  0  0  0  0  0
    1.3417    1.3375    0.0000 C   0  0  0  0  0  0  0  0  0  0  0  0
    0.4875   -0.4708    0.0000 C   0  0  0  0  0  0  0  0  0  0  0  0
   -1.0500    3.5417    0.0000 C   0  0  0  0  0  0  0  0  0  0  0  0
   -1.8708   -2.8917    0.0000 C   0  0  3  0  0  0  0  0  0  0  0  0
    1.4833   -0.3875    0.0000 C   0  0  0  0  0  0  0  0  0  0  0  0
    1.9125    0.5167    0.0000 C   0  0  0  0  0  0  0  0  0  0  0  0
    1.7708    2.2417    0.0000 C   0  0  0  0  0  0  0  0  0  0  0  0
   -0.9250    4.5292    0.0000 C   0  0  0  0  0  0  0  0  0  0  0  0
   -1.9750    3.1542    0.0000 C   0  0  0  0  0  0  0  0  0  0  0  0
   -0.8833   -3.0500    0.0000 C   0  0  0  0  0  0  0  0  0  0  0  0
   -2.6083   -3.5667    0.0000 C   0  0  0  0  0  0  0  0  0  0  0  0
    2.7667    2.3250    0.0000 C   0  0  0  0  0  0  0  0  0  0  0  0
   -2.7708    3.7583    0.0000 C   0  0  0  0  0  0  0  0  0  0  0  0
   -1.7208    5.1333    0.0000 C   0  0  0  0  0  0  0  0  0  0  0  0
   -2.5417   -4.5667    0.0000 C   0  0  0  0  0  0  0  0  0  0  0  0
   -0.3875   -3.9167    0.0000 C   0  0  0  0  0  0  0  0  0  0  0  0
   -0.7625   -4.8458    0.0000 C   0  0  0  0  0  0  0  0  0  0  0  0
   -2.6417    4.7500    0.0000 C   0  0  0  0  0  0  0  0  0  0  0  0
   -1.7208   -5.1333    0.0000 C   0  0  0  0  0  0  0  0  0  0  0  0
  2  3  1  0  0  0  0
  1  3  2  0  0  0  0
  1  4  1  0  0  0  0
  1  5  1  0  0  0  0
  4  6  1  0  0  0  0
  5  7  1  0  0  0  0
  7  8  1  0  0  0  0
  2  9  1  0  0  0  0
  7 10  2  0  0  0  0
  5 11  2  0  0  0  0
  6 12  2  0  0  0  0
  4 13  2  0  0  0  0
  9 14  1  0  0  0  0
  8 15  1  0  0  0  0
 13 16  1  0  0  0  0
 16 17  2  0  0  0  0
 12 18  1  0  0  0  0
 14 19  2  0  0  0  0
 14 20  1  0  0  0  0
 15 21  1  0  0  0  0
 15 22  1  0  0  0  0
 18 23  1  0  0  0  0
 20 24  2  0  0  0  0
 19 25  1  0  0  0  0
 22 26  1  0  0  0  0
 21 27  1  0  0  0  0
 27 28  1  0  0  0  0
 24 29  1  0  0  0  0
 26 30  1  0  0  0  0
  2  6  1  0  0  0  0
 12 17  1  0  0  0  0
 28 30  1  0  0  0  0
 25 29  2  0  0  0  0
M  END
> <MOLFORMULA>
C26 H30 N2 O2

> <MOLWEIGHT>
4.025350000000000e+002

> <IDNUMBER>
AN-153/I294942

> <PRICE>
EUR 130/10 mg

$$$$

  -OEChem-04102411172D

 29 32  0     0  0  0  0  0  0999 V2000
   -0.7000    0.1750    0.0000 C   0  0  0  0  0  0  0  0  0  0  0  0
   -0.7000    1.7917    0.0000 N   0  0  3  0  0  0  0  0  0  0  0  0
   -1.2875    0.9833    0.0000 C   0  0  0  0  0  0  0  0  0  0  0  0
   -1.0083   -0.7750    0.0000 C   0  0  0  0  0  0  0  0  0  0  0  0
    0.2500    0.4833    0.0000 C   0  0  0  0  0  0  0  0  0  0  0  0
   -0.3417   -1.5208    0.0000 C   0  0  0  0  0  0  0  0  0  0  0  0
    0.2500    1.4833    0.0000 C   0  0  0  0  0  0  0  0  0  0  0  0
   -1.0083    2.7417    0.0000 C   0  0  0  0  0  0  0  0  0  0  0  0
   -0.3417    3.4875    0.0000 C   0  0  0  0  0  0  0  0  0  0  0  0
   -0.6500   -2.4708    0.0000 N   0  0  0  0  0  0  0  0  0  0  0  0
    0.6375   -1.3125    0.0000 O   0  0  0  0  0  0  0  0  0  0  0  0
   -1.9875   -0.9833    0.0000 O   0  0  0  0  0  0  0  0  0  0  0  0
   -0.6500    4.4333    0.0000 C   0  0  0  0  0  0  0  0  0  0  0  0
   -1.6250    4.6417    0.0000 F   0  0  0  0  0  0  0  0  0  0  0  0
    0.0208   -3.2125    0.0000 C   0  0  3  0  0  0  0  0  0  0  0  0
    1.1167   -0.0167    0.0000 C   0  0  0  0  0  0  0  0  0  0  0  0
    1.1167    1.9833    0.0000 C   0  0  0  0  0  0  0  0  0  0  0  0
    0.6375    3.2792    0.0000 C   0  0  0  0  0  0  0  0  0  0  0  0
    0.0208    5.1750    0.0000 C   0  0  0  0  0  0  0  0  0  0  0  0
   -0.3583   -4.1375    0.0000 C   0  0  0  0  0  0  0  0  0  0  0  0
    0.9792   -2.9333    0.0000 C   0  0  0  0  0  0  0  0  0  0  0  0
    1.9833    0.4833    0.0000 C   0  0  0  0  0  0  0  0  0  0  0  0
    1.9833    1.4833    0.0000 C   0  0  0  0  0  0  0  0  0  0  0  0
    1.3083    4.0167    0.0000 C   0  0  0  0  0  0  0  0  0  0  0  0
    1.0000    4.9708    0.0000 C   0  0  0  0  0  0  0  0  0  0  0  0
    1.8000   -3.5083    0.0000 C   0  0  0  0  0  0  0  0  0  0  0  0
    0.1292   -5.0125    0.0000 C   0  0  0  0  0  0  0  0  0  0  0  0
    1.8583   -4.5083    0.0000 C   0  0  0  0  0  0  0  0  0  0  0  0
    1.1167   -5.1750    0.0000 C   0  0  0  0  0  0  0  0  0  0  0  0
  2  3  1  0  0  0  0
  1  3  2  0  0  0  0
  1  4  1  0  0  0  0
  1  5  1  0  0  0  0
  4  6  1  0  0  0  0
  5  7  1  0  0  0  0
  2  8  1  0  0  0  0
  8  9  1  0  0  0  0
  6 10  1  0  0  0  0
  6 11  2  0  0  0  0
  4 12  2  0  0  0  0
  9 13  1  0  0  0  0
 13 14  1  0  0  0  0
 10 15  1  0  0  0  0
  5 16  2  0  0  0  0
  7 17  2  0  0  0  0
  9 18  2  0  0  0  0
 13 19  2  0  0  0  0
 15 20  1  0  0  0  0
 15 21  1  0  0  0  0
 16 22  1  0  0  0  0
 22 23  2  0  0  0  0
 18 24  1  0  0  0  0
 24 25  2  0  0  0  0
 21 26  1  0  0  0  0
 20 27  1  0  0  0  0
 26 28  1  0  0  0  0
 27 29  1  0  0  0  0
  2  7  1  0  0  0  0
 17 23  1  0  0  0  0
 28 29  1  0  0  0  0
 19 25  1  0  0  0  0
M  END
> <MOLFORMULA>
C24 H25 F N2 O2

> <MOLWEIGHT>
3.924715000000000e+002

> <IDNUMBER>
AN-153/I294953

> <PRICE>
EUR 130/10 mg

$$$$

  -OEChem-04102411172D

 28 31  0     0  0  0  0  0  0999 V2000
    0.8667   -1.0208    0.0000 N   0  0  3  0  0  0  0  0  0  0  0  0
    0.8667    0.5958    0.0000 C   0  0  3  0  0  0  0  0  0  0  0  0
    1.8167   -0.7125    0.0000 C   0  0  0  0  0  0  0  0  0  0  0  0
    0.5583    1.5458    0.0000 C   0  0  0  0  0  0  0  0  0  0  0  0
    0.9167   -5.2833    0.0000 N   0  0  0  0  0  0  0  0  0  0  0  0
   -0.0333   -3.9750    0.0000 C   0  0  0  0  0  0  0  0  0  0  0  0
    0.9167   -3.6667    0.0000 C   0  0  0  0  0  0  0  0  0  0  0  0
    0.2792   -0.2125    0.0000 C   0  0  0  0  0  0  0  0  0  0  0  0
    1.5042   -4.4750    0.0000 C   0  0  0  0  0  0  0  0  0  0  0  0
    1.8167    0.2875    0.0000 C   0  0  0  0  0  0  0  0  0  0  0  0
    1.2250    2.2917    0.0000 N   0  0  0  0  0  0  0  0  0  0  0  0
   -0.0333   -4.9750    0.0000 C   0  0  0  0  0  0  0  0  0  0  0  0
    0.5583   -1.9708    0.0000 C   0  0  0  0  0  0  0  0  0  0  0  0
    2.6250   -1.3000    0.0000 O   0  0  0  0  0  0  0  0  0  0  0  0
   -0.9000   -3.4750    0.0000 C   0  0  0  0  0  0  0  0  0  0  0  0
   -0.4208    1.7542    0.0000 O   0  0  0  0  0  0  0  0  0  0  0  0
    1.2250   -2.7167    0.0000 C   0  0  0  0  0  0  0  0  0  0  0  0
   -0.9000   -5.4750    0.0000 C   0  0  0  0  0  0  0  0  0  0  0  0
   -1.7667   -3.9750    0.0000 C   0  0  0  0  0  0  0  0  0  0  0  0
    0.9167    3.2417    0.0000 C   0  0  3  0  0  0  0  0  0  0  0  0
   -1.7667   -4.9750    0.0000 C   0  0  0  0  0  0  0  0  0  0  0  0
   -2.6292   -3.4750    0.0000 C   0  0  0  0  0  0  0  0  0  0  0  0
    1.6417    3.9333    0.0000 C   0  0  0  0  0  0  0  0  0  0  0  0
   -0.0750    3.3750    0.0000 C   0  0  0  0  0  0  0  0  0  0  0  0
   -0.5875    4.2292    0.0000 C   0  0  0  0  0  0  0  0  0  0  0  0
    1.5500    4.9250    0.0000 C   0  0  0  0  0  0  0  0  0  0  0  0
    0.7167    5.4750    0.0000 C   0  0  0  0  0  0  0  0  0  0  0  0
   -0.2333    5.1667    0.0000 C   0  0  0  0  0  0  0  0  0  0  0  0
  2  8  1  0  0  0  0
  1  3  1  0  0  0  0
  2  4  1  0  0  0  0
  5  9  1  0  0  0  0
  6  7  1  0  0  0  0
  7 17  1  0  0  0  0
  1  8  1  0  0  0  0
  7  9  2  0  0  0  0
  3 10  1  0  0  0  0
  4 11  1  0  0  0  0
  6 12  2  0  0  0  0
  1 13  1  0  0  0  0
  3 14  2  0  0  0  0
  6 15  1  0  0  0  0
  4 16  2  0  0  0  0
 13 17  1  0  0  0  0
 12 18  1  0  0  0  0
 15 19  2  0  0  0  0
 11 20  1  0  0  0  0
 19 21  1  0  0  0  0
 19 22  1  0  0  0  0
 20 23  1  0  0  0  0
 20 24  1  0  0  0  0
 24 25  1  0  0  0  0
 23 26  1  0  0  0  0
 26 27  1  0  0  0  0
 25 28  1  0  0  0  0
  2 10  1  0  0  0  0
  5 12  1  0  0  0  0
 18 21  2  0  0  0  0
 27 28  1  0  0  0  0
M  END
> <MOLFORMULA>
C23 H31 N3 O2

> <MOLWEIGHT>
3.815169000000000e+002

> <IDNUMBER>
AN-153/I299928

> <PRICE>
EUR 130/10 mg

$$$$

  -OEChem-04102411172D

 28 31  0     0  0  0  0  0  0999 V2000
    0.8667   -1.0208    0.0000 N   0  0  3  0  0  0  0  0  0  0  0  0
    0.8667    0.5958    0.0000 C   0  0  3  0  0  0  0  0  0  0  0  0
    1.8167   -0.7125    0.0000 C   0  0  0  0  0  0  0  0  0  0  0  0
    0.5583    1.5458    0.0000 C   0  0  0  0  0  0  0  0  0  0  0  0
    0.9167   -5.2833    0.0000 N   0  0  0  0  0  0  0  0  0  0  0  0
   -0.0333   -3.9750    0.0000 C   0  0  0  0  0  0  0  0  0  0  0  0
    0.9167   -3.6667    0.0000 C   0  0  0  0  0  0  0  0  0  0  0  0
    0.2792   -0.2125    0.0000 C   0  0  0  0  0  0  0  0  0  0  0  0
    1.5042   -4.4750    0.0000 C   0  0  0  0  0  0  0  0  0  0  0  0
    1.8167    0.2875    0.0000 C   0  0  0  0  0  0  0  0  0  0  0  0
    1.2250    2.2917    0.0000 N   0  0  0  0  0  0  0  0  0  0  0  0
   -0.0333   -4.9750    0.0000 C   0  0  0  0  0  0  0  0  0  0  0  0
    0.5583   -1.9708    0.0000 C   0  0  0  0  0  0  0  0  0  0  0  0
    2.6250   -1.3000    0.0000 O   0  0  0  0  0  0  0  0  0  0  0  0
   -0.9000   -3.4750    0.0000 C   0  0  0  0  0  0  0  0  0  0  0  0
   -0.4208    1.7542    0.0000 O   0  0  0  0  0  0  0  0  0  0  0  0
    1.2250   -2.7167    0.0000 C   0  0  0  0  0  0  0  0  0  0  0  0
   -0.9000   -5.4750    0.0000 C   0  0  0  0  0  0  0  0  0  0  0  0
   -1.7667   -3.9750    0.0000 C   0  0  0  0  0  0  0  0  0  0  0  0
    0.9167    3.2417    0.0000 C   0  0  3  0  0  0  0  0  0  0  0  0
   -1.7667   -4.9750    0.0000 C   0  0  0  0  0  0  0  0  0  0  0  0
   -2.6292   -3.4750    0.0000 Cl  0  0  0  0  0  0  0  0  0  0  0  0
   -0.0750    3.3750    0.0000 C   0  0  0  0  0  0  0  0  0  0  0  0
    1.6417    3.9333    0.0000 C   0  0  0  0  0  0  0  0  0  0  0  0
   -0.5875    4.2292    0.0000 C   0  0  0  0  0  0  0  0  0  0  0  0
    1.5500    4.9250    0.0000 C   0  0  0  0  0  0  0  0  0  0  0  0
    0.7167    5.4750    0.0000 C   0  0  0  0  0  0  0  0  0  0  0  0
   -0.2333    5.1667    0.0000 C   0  0  0  0  0  0  0  0  0  0  0  0
  2  8  1  0  0  0  0
  1  3  1  0  0  0  0
  2  4  1  0  0  0  0
  5  9  1  0  0  0  0
  6  7  1  0  0  0  0
  7 17  1  0  0  0  0
  1  8  1  0  0  0  0
  7  9  2  0  0  0  0
  3 10  1  0  0  0  0
  4 11  1  0  0  0  0
  6 12  2  0  0  0  0
  1 13  1  0  0  0  0
  3 14  2  0  0  0  0
  6 15  1  0  0  0  0
  4 16  2  0  0  0  0
 13 17  1  0  0  0  0
 12 18  1  0  0  0  0
 15 19  2  0  0  0  0
 11 20  1  0  0  0  0
 19 21  1  0  0  0  0
 19 22  1  0  0  0  0
 20 23  1  0  0  0  0
 20 24  1  0  0  0  0
 23 25  1  0  0  0  0
 24 26  1  0  0  0  0
 26 27  1  0  0  0  0
 25 28  1  0  0  0  0
  2 10  1  0  0  0  0
  5 12  1  0  0  0  0
 18 21  2  0  0  0  0
 27 28  1  0  0  0  0
M  END
> <MOLFORMULA>
C22 H28 Cl N3 O2

> <MOLWEIGHT>
4.019352000000000e+002

> <IDNUMBER>
AN-153/J100012

> <PRICE>
EUR 130/10 mg

$$$$

  -OEChem-04102411172D

 28 31  0     0  0  0  0  0  0999 V2000
    0.8667   -1.0208    0.0000 N   0  0  3  0  0  0  0  0  0  0  0  0
    0.8667    0.5958    0.0000 C   0  0  3  0  0  0  0  0  0  0  0  0
    1.8167   -0.7125    0.0000 C   0  0  0  0  0  0  0  0  0  0  0  0
    0.5583    1.5458    0.0000 C   0  0  0  0  0  0  0  0  0  0  0  0
    0.9167   -5.2833    0.0000 N   0  0  0  0  0  0  0  0  0  0  0  0
   -0.0333   -3.9750    0.0000 C   0  0  0  0  0  0  0  0  0  0  0  0
    0.9167   -3.6667    0.0000 C   0  0  0  0  0  0  0  0  0  0  0  0
    0.2792   -0.2125    0.0000 C   0  0  0  0  0  0  0  0  0  0  0  0
    1.5042   -4.4750    0.0000 C   0  0  0  0  0  0  0  0  0  0  0  0
    1.8167    0.2875    0.0000 C   0  0  0  0  0  0  0  0  0  0  0  0
    1.2250    2.2917    0.0000 N   0  0  0  0  0  0  0  0  0  0  0  0
   -0.0333   -4.9750    0.0000 C   0  0  0  0  0  0  0  0  0  0  0  0
    0.5583   -1.9708    0.0000 C   0  0  0  0  0  0  0  0  0  0  0  0
    2.6250   -1.3000    0.0000 O   0  0  0  0  0  0  0  0  0  0  0  0
   -0.9000   -3.4750    0.0000 C   0  0  0  0  0  0  0  0  0  0  0  0
   -0.4208    1.7542    0.0000 O   0  0  0  0  0  0  0  0  0  0  0  0
    1.2250   -2.7167    0.0000 C   0  0  0  0  0  0  0  0  0  0  0  0
   -0.9000   -5.4750    0.0000 C   0  0  0  0  0  0  0  0  0  0  0  0
   -1.7667   -3.9750    0.0000 C   0  0  0  0  0  0  0  0  0  0  0  0
    0.9167    3.2417    0.0000 C   0  0  3  0  0  0  0  0  0  0  0  0
   -1.7667   -4.9750    0.0000 C   0  0  0  0  0  0  0  0  0  0  0  0
   -2.6292   -3.4750    0.0000 F   0  0  0  0  0  0  0  0  0  0  0  0
   -0.0750    3.3750    0.0000 C   0  0  0  0  0  0  0  0  0  0  0  0
    1.6417    3.9333    0.0000 C   0  0  0  0  0  0  0  0  0  0  0  0
   -0.5875    4.2292    0.0000 C   0  0  0  0  0  0  0  0  0  0  0  0
    1.5500    4.9250    0.0000 C   0  0  0  0  0  0  0  0  0  0  0  0
    0.7167    5.4750    0.0000 C   0  0  0  0  0  0  0  0  0  0  0  0
   -0.2333    5.1667    0.0000 C   0  0  0  0  0  0  0  0  0  0  0  0
  2  8  1  0  0  0  0
  1  3  1  0  0  0  0
  2  4  1  0  0  0  0
  5  9  1  0  0  0  0
  6  7  1  0  0  0  0
  7 17  1  0  0  0  0
  1  8  1  0  0  0  0
  7  9  2  0  0  0  0
  3 10  1  0  0  0  0
  4 11  1  0  0  0  0
  6 12  2  0  0  0  0
  1 13  1  0  0  0  0
  3 14  2  0  0  0  0
  6 15  1  0  0  0  0
  4 16  2  0  0  0  0
 13 17  1  0  0  0  0
 12 18  1  0  0  0  0
 15 19  2  0  0  0  0
 11 20  1  0  0  0  0
 19 21  1  0  0  0  0
 19 22  1  0  0  0  0
 20 23  1  0  0  0  0
 20 24  1  0  0  0  0
 23 25  1  0  0  0  0
 24 26  1  0  0  0  0
 26 27  1  0  0  0  0
 25 28  1  0  0  0  0
  2 10  1  0  0  0  0
  5 12  1  0  0  0  0
 18 21  2  0  0  0  0
 27 28  1  0  0  0  0
M  END
> <MOLFORMULA>
C22 H28 F N3 O2

> <MOLWEIGHT>
3.854802000000000e+002

> <IDNUMBER>
AN-153/J100077

> <PRICE>
EUR 130/10 mg

$$$$

  -OEChem-04102411172D

 22 23  0     0  0  0  0  0  0999 V2000
   -0.2417   -3.2375    0.0000 C   0  0  0  0  0  0  0  0  0  0  0  0
   -0.3500   -2.2417    0.0000 N   0  0  3  0  0  0  0  0  0  0  0  0
   -0.6792    0.7375    0.0000 C   0  0  0  0  0  0  0  0  0  0  0  0
    0.1250    1.3333    0.0000 N   0  0  0  0  0  0  0  0  0  0  0  0
    0.6750   -3.6375    0.0000 C   0  0  3  0  0  0  0  0  0  0  0  0
   -0.5708   -0.2542    0.0000 C   0  0  3  0  0  0  0  0  0  0  0  0
   -1.2667   -1.8417    0.0000 C   0  0  0  0  0  0  0  0  0  0  0  0
    0.4542   -1.6500    0.0000 C   0  0  0  0  0  0  0  0  0  0  0  0
   -1.0458   -3.8292    0.0000 O   0  0  0  0  0  0  0  0  0  0  0  0
   -1.5958    1.1417    0.0000 O   0  0  0  0  0  0  0  0  0  0  0  0
    0.3458   -0.6542    0.0000 C   0  0  0  0  0  0  0  0  0  0  0  0
   -1.3750   -0.8458    0.0000 C   0  0  0  0  0  0  0  0  0  0  0  0
    0.0167    2.3250    0.0000 C   0  0  3  0  0  0  0  0  0  0  0  0
    1.5917   -4.0417    0.0000 C   0  0  0  0  0  0  0  0  0  0  0  0
    0.2750   -4.5542    0.0000 C   0  0  0  0  0  0  0  0  0  0  0  0
    1.0792   -2.7208    0.0000 C   0  0  0  0  0  0  0  0  0  0  0  0
   -0.9250    2.6583    0.0000 C   0  0  0  0  0  0  0  0  0  0  0  0
    0.8667    2.8542    0.0000 C   0  0  0  0  0  0  0  0  0  0  0  0
    0.9792    3.8500    0.0000 C   0  0  0  0  0  0  0  0  0  0  0  0
   -1.2542    3.6042    0.0000 C   0  0  0  0  0  0  0  0  0  0  0  0
    0.2750    4.5542    0.0000 C   0  0  0  0  0  0  0  0  0  0  0  0
   -0.7208    4.4458    0.0000 C   0  0  0  0  0  0  0  0  0  0  0  0
  1  2  1  0  0  0  0
  3  6  1  0  0  0  0
  3  4  1  0  0  0  0
  1  5  1  0  0  0  0
  6 11  1  0  0  0  0
  2  7  1  0  0  0  0
  2  8  1  0  0  0  0
  1  9  2  0  0  0  0
  3 10  2  0  0  0  0
  8 11  1  0  0  0  0
  7 12  1  0  0  0  0
  4 13  1  0  0  0  0
  5 14  1  0  0  0  0
  5 15  1  0  0  0  0
  5 16  1  0  0  0  0
 13 17  1  0  0  0  0
 13 18  1  0  0  0  0
 18 19  1  0  0  0  0
 17 20  1  0  0  0  0
 19 21  1  0  0  0  0
 20 22  1  0  0  0  0
  6 12  1  0  0  0  0
 21 22  1  0  0  0  0
M  END
> <MOLFORMULA>
C18 H32 N2 O2

> <MOLWEIGHT>
3.084628000000000e+002

> <IDNUMBER>
AN-153/J101821

> <PRICE>
EUR 130/10 mg

$$$$

  -OEChem-04102411172D

 25 27  0     0  0  0  0  0  0999 V2000
   -0.9667   -2.1917    0.0000 C   0  0  0  0  0  0  0  0  0  0  0  0
   -0.8375   -1.2000    0.0000 N   0  0  3  0  0  0  0  0  0  0  0  0
   -0.4583    1.7750    0.0000 C   0  0  0  0  0  0  0  0  0  0  0  0
   -0.1708   -2.7958    0.0000 C   0  0  0  0  0  0  0  0  0  0  0  0
    0.4625    2.1625    0.0000 N   0  0  0  0  0  0  0  0  0  0  0  0
   -0.5833    0.7833    0.0000 C   0  0  3  0  0  0  0  0  0  0  0  0
   -1.8875   -2.5792    0.0000 O   0  0  0  0  0  0  0  0  0  0  0  0
    0.0833   -0.8125    0.0000 C   0  0  0  0  0  0  0  0  0  0  0  0
   -1.6333   -0.5917    0.0000 C   0  0  0  0  0  0  0  0  0  0  0  0
   -0.2958   -3.7875    0.0000 C   0  0  0  0  0  0  0  0  0  0  0  0
   -1.2542    2.3833    0.0000 O   0  0  0  0  0  0  0  0  0  0  0  0
   -1.5083    0.4000    0.0000 C   0  0  0  0  0  0  0  0  0  0  0  0
    0.2125    0.1792    0.0000 C   0  0  0  0  0  0  0  0  0  0  0  0
    0.5000   -4.3958    0.0000 C   0  0  0  0  0  0  0  0  0  0  0  0
    0.5917    3.1542    0.0000 C   0  0  3  0  0  0  0  0  0  0  0  0
    0.3708   -5.3875    0.0000 F   0  0  0  0  0  0  0  0  0  0  0  0
    0.7542   -2.4125    0.0000 C   0  0  0  0  0  0  0  0  0  0  0  0
    1.5500   -3.0167    0.0000 C   0  0  0  0  0  0  0  0  0  0  0  0
    1.4208   -4.0083    0.0000 C   0  0  0  0  0  0  0  0  0  0  0  0
    1.5417    3.4708    0.0000 C   0  0  0  0  0  0  0  0  0  0  0  0
   -0.2458    3.7000    0.0000 C   0  0  0  0  0  0  0  0  0  0  0  0
   -0.3458    4.6917    0.0000 C   0  0  0  0  0  0  0  0  0  0  0  0
    1.8833    4.4042    0.0000 C   0  0  0  0  0  0  0  0  0  0  0  0
    0.3708    5.3875    0.0000 C   0  0  0  0  0  0  0  0  0  0  0  0
    1.3625    5.2583    0.0000 C   0  0  0  0  0  0  0  0  0  0  0  0
  1  2  1  0  0  0  0
  3  6  1  0  0  0  0
  1  4  1  0  0  0  0
  3  5  1  0  0  0  0
  6 12  1  0  0  0  0
  1  7  2  0  0  0  0
  2  8  1  0  0  0  0
  2  9  1  0  0  0  0
  4 10  1  0  0  0  0
  3 11  2  0  0  0  0
  9 12  1  0  0  0  0
  8 13  1  0  0  0  0
 10 14  2  0  0  0  0
  5 15  1  0  0  0  0
 14 16  1  0  0  0  0
  4 17  2  0  0  0  0
 17 18  1  0  0  0  0
 18 19  2  0  0  0  0
 15 20  1  0  0  0  0
 15 21  1  0  0  0  0
 21 22  1  0  0  0  0
 20 23  1  0  0  0  0
 22 24  1  0  0  0  0
 23 25  1  0  0  0  0
  6 13  1  0  0  0  0
 14 19  1  0  0  0  0
 24 25  1  0  0  0  0
M  END
> <MOLFORMULA>
C20 H27 F N2 O2

> <MOLWEIGHT>
3.464433000000000e+002

> <IDNUMBER>
AN-153/J101630

> <PRICE>
EUR 130/10 mg

$$$$

  -OEChem-04102411172D

 24 25  0     0  0  0  0  0  0999 V2000
   -0.2083    1.0917    0.0000 C   0  0  0  0  0  0  0  0  0  0  0  0
    0.6583    2.5917    0.0000 C   0  0  0  0  0  0  0  0  0  0  0  0
   -0.2083   -0.9083    0.0000 C   0  0  0  0  0  0  0  0  0  0  0  0
   -0.2083    2.0917    0.0000 O   0  0  0  0  0  0  0  0  0  0  0  0
    0.6583    3.5917    0.0000 C   0  0  0  0  0  0  0  0  0  0  0  0
   -1.0750    0.5917    0.0000 C   0  0  3  0  0  0  0  0  0  0  0  0
   -1.0750   -0.4083    0.0000 C   0  0  3  0  0  0  0  0  0  0  0  0
   -0.2083   -1.9083    0.0000 N   0  0  0  0  0  0  0  0  0  0  0  0
    0.6542    0.5917    0.0000 O   0  0  0  0  0  0  0  0  0  0  0  0
    0.6542   -0.4083    0.0000 O   0  0  0  0  0  0  0  0  0  0  0  0
    1.5208    2.0917    0.0000 Cl  0  0  0  0  0  0  0  0  0  0  0  0
    1.5208    4.0875    0.0000 Cl  0  0  0  0  0  0  0  0  0  0  0  0
   -0.2083    4.0875    0.0000 Cl  0  0  0  0  0  0  0  0  0  0  0  0
   -2.8083    0.5917    0.0000 C   0  0  0  0  0  0  0  0  0  0  0  0
   -2.8083   -0.4083    0.0000 C   0  0  0  0  0  0  0  0  0  0  0  0
    0.6542   -2.4083    0.0000 C   0  0  3  0  0  0  0  0  0  0  0  0
   -1.9417   -0.9083    0.0000 C   0  0  0  0  0  0  0  0  0  0  0  0
   -1.9417    1.0917    0.0000 C   0  0  0  0  0  0  0  0  0  0  0  0
    1.4833   -1.8458    0.0000 C   0  0  0  0  0  0  0  0  0  0  0  0
    0.5833   -3.4083    0.0000 C   0  0  0  0  0  0  0  0  0  0  0  0
    1.3167   -4.0875    0.0000 C   0  0  0  0  0  0  0  0  0  0  0  0
    2.4375   -2.1417    0.0000 C   0  0  0  0  0  0  0  0  0  0  0  0
    2.8042   -3.0708    0.0000 C   0  0  0  0  0  0  0  0  0  0  0  0
    2.3042   -3.9375    0.0000 C   0  0  0  0  0  0  0  0  0  0  0  0
  2  4  1  0  0  0  0
  3  7  1  0  0  0  0
  1  4  1  0  0  0  0
  2  5  2  0  0  0  0
  1  6  1  0  0  0  0
  6  7  1  0  0  0  0
  3  8  1  0  0  0  0
  1  9  2  0  0  0  0
  3 10  2  0  0  0  0
  2 11  1  0  0  0  0
  5 12  1  0  0  0  0
  5 13  1  0  0  0  0
 14 18  1  0  0  0  0
 14 15  2  0  0  0  0
  8 16  1  0  0  0  0
  7 17  1  0  0  0  0
  6 18  1  0  0  0  0
 16 19  1  0  0  0  0
 16 20  1  0  0  0  0
 20 21  1  0  0  0  0
 19 22  1  0  0  0  0
 22 23  1  0  0  0  0
 21 24  1  0  0  0  0
 15 17  1  0  0  0  0
 23 24  1  0  0  0  0
M  END
> <MOLFORMULA>
C17 H22 Cl3 N O3

> <MOLWEIGHT>
3.947238000000000e+002

> <IDNUMBER>
AN-153/J115333

> <PRICE>
EUR 130/10 mg

$$$$

  -OEChem-04102411172D

 21 22  0     0  0  0  0  0  0999 V2000
   -0.5625   -1.8417    0.0000 N   0  0  3  0  0  0  0  0  0  0  0  0
   -0.5625    1.1583    0.0000 C   0  0  0  0  0  0  0  0  0  0  0  0
   -0.5625   -2.8417    0.0000 C   0  0  0  0  0  0  0  0  0  0  0  0
    0.3042    1.6583    0.0000 N   0  0  0  0  0  0  0  0  0  0  0  0
   -0.5625    0.1583    0.0000 C   0  0  3  0  0  0  0  0  0  0  0  0
    0.3042   -1.3417    0.0000 C   0  0  0  0  0  0  0  0  0  0  0  0
   -1.4333   -1.3417    0.0000 C   0  0  0  0  0  0  0  0  0  0  0  0
   -1.4333    1.6583    0.0000 O   0  0  0  0  0  0  0  0  0  0  0  0
   -1.4333   -3.3417    0.0000 O   0  0  0  0  0  0  0  0  0  0  0  0
   -1.4333   -0.3417    0.0000 C   0  0  0  0  0  0  0  0  0  0  0  0
    0.3042   -0.3417    0.0000 C   0  0  0  0  0  0  0  0  0  0  0  0
    0.3042    2.6583    0.0000 C   0  0  3  0  0  0  0  0  0  0  0  0
    0.3000   -3.3417    0.0000 C   0  0  0  0  0  0  0  0  0  0  0  0
   -0.6000    3.0958    0.0000 C   0  0  0  0  0  0  0  0  0  0  0  0
    1.2042    3.0958    0.0000 C   0  0  0  0  0  0  0  0  0  0  0  0
    0.3000   -4.3417    0.0000 C   0  0  0  0  0  0  0  0  0  0  0  0
    1.1667   -4.8417    0.0000 C   0  0  0  0  0  0  0  0  0  0  0  0
    1.4250    4.0625    0.0000 C   0  0  0  0  0  0  0  0  0  0  0  0
   -0.8208    4.0625    0.0000 C   0  0  0  0  0  0  0  0  0  0  0  0
   -0.1958    4.8417    0.0000 C   0  0  0  0  0  0  0  0  0  0  0  0
    0.8042    4.8417    0.0000 C   0  0  0  0  0  0  0  0  0  0  0  0
  2  5  1  0  0  0  0
  1  3  1  0  0  0  0
  2  4  1  0  0  0  0
  5 10  1  0  0  0  0
  1  6  1  0  0  0  0
  1  7  1  0  0  0  0
  2  8  2  0  0  0  0
  3  9  2  0  0  0  0
  7 10  1  0  0  0  0
  6 11  1  0  0  0  0
  4 12  1  0  0  0  0
  3 13  1  0  0  0  0
 12 14  1  0  0  0  0
 12 15  1  0  0  0  0
 13 16  1  0  0  0  0
 16 17  1  0  0  0  0
 15 18  1  0  0  0  0
 14 19  1  0  0  0  0
 19 20  1  0  0  0  0
 18 21  1  0  0  0  0
  5 11  1  0  0  0  0
 20 21  1  0  0  0  0
M  END
> <MOLFORMULA>
C17 H30 N2 O2

> <MOLWEIGHT>
2.944360000000000e+002

> <IDNUMBER>
AN-153/KC15874

> <PRICE>
EUR 130/10 mg

$$$$

  -OEChem-04102411172D

 23 24  0     0  0  0  0  0  0999 V2000
    1.3375   -2.4875    0.0000 C   0  0  0  0  0  0  0  0  0  0  0  0
    0.8375   -1.6167    0.0000 N   0  0  3  0  0  0  0  0  0  0  0  0
   -0.6625    0.9833    0.0000 C   0  0  0  0  0  0  0  0  0  0  0  0
   -0.1625    1.8458    0.0000 N   0  0  0  0  0  0  0  0  0  0  0  0
    0.8375   -3.3542    0.0000 C   0  0  3  0  0  0  0  0  0  0  0  0
   -0.1625    0.1125    0.0000 C   0  0  3  0  0  0  0  0  0  0  0  0
    1.3375   -0.7542    0.0000 C   0  0  0  0  0  0  0  0  0  0  0  0
   -0.1625   -1.6167    0.0000 C   0  0  0  0  0  0  0  0  0  0  0  0
    2.3375   -2.4875    0.0000 O   0  0  0  0  0  0  0  0  0  0  0  0
   -1.6625    0.9833    0.0000 O   0  0  0  0  0  0  0  0  0  0  0  0
    0.8375    0.1125    0.0000 C   0  0  0  0  0  0  0  0  0  0  0  0
   -0.6625   -0.7542    0.0000 C   0  0  0  0  0  0  0  0  0  0  0  0
   -0.6625    2.7083    0.0000 C   0  0  3  0  0  0  0  0  0  0  0  0
    1.7042   -3.8542    0.0000 C   0  0  0  0  0  0  0  0  0  0  0  0
    0.3375   -4.2167    0.0000 C   0  0  0  0  0  0  0  0  0  0  0  0
   -0.0333   -2.8542    0.0000 C   0  0  0  0  0  0  0  0  0  0  0  0
   -0.1000    3.5417    0.0000 C   0  0  0  0  0  0  0  0  0  0  0  0
   -1.6625    2.6333    0.0000 C   0  0  0  0  0  0  0  0  0  0  0  0
    1.7042   -4.8542    0.0000 C   0  0  0  0  0  0  0  0  0  0  0  0
   -0.3958    4.4833    0.0000 C   0  0  0  0  0  0  0  0  0  0  0  0
   -2.3458    3.3708    0.0000 C   0  0  0  0  0  0  0  0  0  0  0  0
   -1.3250    4.8542    0.0000 C   0  0  0  0  0  0  0  0  0  0  0  0
   -2.1958    4.3542    0.0000 C   0  0  0  0  0  0  0  0  0  0  0  0
  1  2  1  0  0  0  0
  3  6  1  0  0  0  0
  3  4  1  0  0  0  0
  1  5  1  0  0  0  0
  6 12  1  0  0  0  0
  2  7  1  0  0  0  0
  2  8  1  0  0  0  0
  1  9  2  0  0  0  0
  3 10  2  0  0  0  0
  7 11  1  0  0  0  0
  8 12  1  0  0  0  0
  4 13  1  0  0  0  0
  5 14  1  0  0  0  0
  5 15  1  0  0  0  0
  5 16  1  0  0  0  0
 13 17  1  0  0  0  0
 13 18  1  0  0  0  0
 14 19  1  0  0  0  0
 17 20  1  0  0  0  0
 18 21  1  0  0  0  0
 20 22  1  0  0  0  0
 21 23  1  0  0  0  0
  6 11  1  0  0  0  0
 22 23  1  0  0  0  0
M  END
> <MOLFORMULA>
C19 H34 N2 O2

> <MOLWEIGHT>
3.224896000000000e+002

> <IDNUMBER>
AN-153/KC15917

> <PRICE>
EUR 130/10 mg

$$$$

  -OEChem-04102411172D

 23 24  0     0  0  0  0  0  0999 V2000
    5.2875   -5.7500    0.0000 S   0  0  3  0  0  0  0  0  0  0  0  0
    6.0125   -6.1417    0.0000 N   0  0  3  0  0  0  0  0  0  0  0  0
    8.1667   -7.4042    0.0000 C   0  0  0  0  0  0  0  0  0  0  0  0
    8.8917   -6.9875    0.0000 N   0  0  0  0  0  0  0  0  0  0  0  0
    4.5792   -6.1792    0.0000 N   0  0  3  0  0  0  0  0  0  0  0  0
    5.6792   -5.0250    0.0000 O   0  0  0  0  0  0  0  0  0  0  0  0
    4.8542   -5.0417    0.0000 O   0  0  0  0  0  0  0  0  0  0  0  0
    7.4500   -6.9792    0.0000 C   0  0  3  0  0  0  0  0  0  0  0  0
    9.6125   -7.4042    0.0000 C   0  0  3  0  0  0  0  0  0  0  0  0
    6.0042   -6.9792    0.0000 C   0  0  0  0  0  0  0  0  0  0  0  0
    6.7375   -5.7292    0.0000 C   0  0  0  0  0  0  0  0  0  0  0  0
    8.1667   -8.2292    0.0000 O   0  0  0  0  0  0  0  0  0  0  0  0
    7.4542   -6.1500    0.0000 C   0  0  0  0  0  0  0  0  0  0  0  0
    6.7292   -7.4042    0.0000 C   0  0  0  0  0  0  0  0  0  0  0  0
    4.6000   -7.0042    0.0000 C   0  0  0  0  0  0  0  0  0  0  0  0
    3.8542   -5.7875    0.0000 C   0  0  0  0  0  0  0  0  0  0  0  0
    9.8375   -6.6042    0.0000 C   0  0  0  0  0  0  0  0  0  0  0  0
   10.3417   -6.9792    0.0000 C   0  0  0  0  0  0  0  0  0  0  0  0
    9.4875   -8.2292    0.0000 C   0  0  0  0  0  0  0  0  0  0  0  0
   11.1250   -7.2917    0.0000 C   0  0  0  0  0  0  0  0  0  0  0  0
   10.0625   -8.8500    0.0000 C   0  0  0  0  0  0  0  0  0  0  0  0
   10.8917   -8.7792    0.0000 C   0  0  0  0  0  0  0  0  0  0  0  0
   11.3667   -8.0917    0.0000 C   0  0  0  0  0  0  0  0  0  0  0  0
  1  2  1  0  0  0  0
  3  8  1  0  0  0  0
  3  4  1  0  0  0  0
  1  5  1  0  0  0  0
  1  6  2  0  0  0  0
  1  7  2  0  0  0  0
  8 13  1  0  0  0  0
  4  9  1  0  0  0  0
  2 10  1  0  0  0  0
  2 11  1  0  0  0  0
  3 12  2  0  0  0  0
 11 13  1  0  0  0  0
 10 14  1  0  0  0  0
  5 15  1  0  0  0  0
  5 16  1  0  0  0  0
  9 17  1  0  0  0  0
  9 18  1  0  0  0  0
  9 19  1  0  0  0  0
 18 20  1  0  0  0  0
 19 21  1  0  0  0  0
 21 22  1  0  0  0  0
 20 23  1  0  0  0  0
  8 14  1  0  0  0  0
 22 23  1  0  0  0  0
M  END
> <MOLFORMULA>
C16 H31 N3 O3 S

> <MOLWEIGHT>
3.455049000000000e+002

> <IDNUMBER>
AM-879/MD26758

> <PRICE>
EUR 55.00/10 mg

$$$$

  -OEChem-04102411172D

 19 21  0     0  0  0  0  0  0999 V2000
    4.8792   -5.0625    0.0000 C   0  0  0  0  0  0  0  0  0  0  0  0
    5.3625   -3.8292    0.0000 N   0  0  0  0  0  0  0  0  0  0  0  0
    3.2250   -3.6875    0.0000 N   0  0  0  0  0  0  0  0  0  0  0  0
    3.5625   -4.9792    0.0000 C   0  0  0  0  0  0  0  0  0  0  0  0
    4.3542   -2.9792    0.0000 C   0  0  3  0  0  0  0  0  0  0  0  0
    2.6625   -5.9625    0.0000 C   0  0  0  0  0  0  0  0  0  0  0  0
    5.6042   -6.2125    0.0000 O   0  0  0  0  0  0  0  0  0  0  0  0
    1.3667   -5.6792    0.0000 C   0  0  0  0  0  0  0  0  0  0  0  0
    3.0792   -7.2292    0.0000 C   0  0  0  0  0  0  0  0  0  0  0  0
    2.1792   -8.2167    0.0000 C   0  0  0  0  0  0  0  0  0  0  0  0
    0.4792   -6.6750    0.0000 C   0  0  0  0  0  0  0  0  0  0  0  0
    0.8875   -7.9292    0.0000 C   0  0  0  0  0  0  0  0  0  0  0  0
    5.6292   -2.5792    0.0000 C   0  0  0  0  0  0  0  0  0  0  0  0
    3.2500   -2.2375    0.0000 C   0  0  0  0  0  0  0  0  0  0  0  0
    0.0000   -8.9125    0.0000 C   0  0  0  0  0  0  0  0  0  0  0  0
    3.1625   -0.8875    0.0000 C   0  0  0  0  0  0  0  0  0  0  0  0
    6.1125   -1.3542    0.0000 C   0  0  0  0  0  0  0  0  0  0  0  0
    4.1292   -0.0000    0.0000 C   0  0  0  0  0  0  0  0  0  0  0  0
    5.4417   -0.2042    0.0000 C   0  0  0  0  0  0  0  0  0  0  0  0
  1  2  1  0  0  0  0
  3  4  2  0  0  0  0
  1  4  1  0  0  0  0
  2  5  1  0  0  0  0
  4  6  1  0  0  0  0
  1  7  2  0  0  0  0
  6  8  2  0  0  0  0
  6  9  1  0  0  0  0
  9 10  2  0  0  0  0
  8 11  1  0  0  0  0
 10 12  1  0  0  0  0
  5 13  1  0  0  0  0
  5 14  1  0  0  0  0
 12 15  1  0  0  0  0
 14 16  1  0  0  0  0
 13 17  1  0  0  0  0
 16 18  1  0  0  0  0
 17 19  1  0  0  0  0
  3  5  1  0  0  0  0
 11 12  2  0  0  0  0
 18 19  1  0  0  0  0
M  END
> <MOLFORMULA>
C16 H20 N2 O

> <MOLWEIGHT>
2.563470000000000e+002

> <IDNUMBER>
AT-687/NB01290

> <PRICE>
EUR 80/10 mg

$$$$

  -OEChem-04102411172D

 18 20  0     0  0  0  0  0  0999 V2000
    4.4000   -5.0667    0.0000 C   0  0  0  0  0  0  0  0  0  0  0  0
    4.8875   -3.8292    0.0000 N   0  0  0  0  0  0  0  0  0  0  0  0
    2.7500   -3.6917    0.0000 N   0  0  0  0  0  0  0  0  0  0  0  0
    3.0875   -4.9792    0.0000 C   0  0  0  0  0  0  0  0  0  0  0  0
    3.8792   -2.9875    0.0000 C   0  0  3  0  0  0  0  0  0  0  0  0
    5.1250   -6.2167    0.0000 O   0  0  0  0  0  0  0  0  0  0  0  0
    2.1792   -5.9625    0.0000 C   0  0  0  0  0  0  0  0  0  0  0  0
    2.7667   -2.2292    0.0000 C   0  0  0  0  0  0  0  0  0  0  0  0
    5.1500   -2.5792    0.0000 C   0  0  0  0  0  0  0  0  0  0  0  0
    0.8917   -5.6792    0.0000 C   0  0  0  0  0  0  0  0  0  0  0  0
    2.6042   -7.2292    0.0000 C   0  0  0  0  0  0  0  0  0  0  0  0
    2.6792   -0.8792    0.0000 C   0  0  0  0  0  0  0  0  0  0  0  0
    5.6292   -1.3542    0.0000 C   0  0  0  0  0  0  0  0  0  0  0  0
    1.7000   -8.2125    0.0000 C   0  0  0  0  0  0  0  0  0  0  0  0
    0.0000   -6.6667    0.0000 C   0  0  0  0  0  0  0  0  0  0  0  0
    4.9667   -0.2042    0.0000 C   0  0  0  0  0  0  0  0  0  0  0  0
    0.4042   -7.9292    0.0000 C   0  0  0  0  0  0  0  0  0  0  0  0
    3.6625   -0.0000    0.0000 C   0  0  0  0  0  0  0  0  0  0  0  0
  1  2  1  0  0  0  0
  3  4  2  0  0  0  0
  1  4  1  0  0  0  0
  2  5  1  0  0  0  0
  1  6  2  0  0  0  0
  4  7  1  0  0  0  0
  5  8  1  0  0  0  0
  5  9  1  0  0  0  0
  7 10  2  0  0  0  0
  7 11  1  0  0  0  0
  8 12  1  0  0  0  0
  9 13  1  0  0  0  0
 11 14  2  0  0  0  0
 10 15  1  0  0  0  0
 13 16  1  0  0  0  0
 14 17  1  0  0  0  0
 12 18  1  0  0  0  0
  3  5  1  0  0  0  0
 15 17  2  0  0  0  0
 16 18  1  0  0  0  0
M  END
> <MOLFORMULA>
C15 H18 N2 O

> <MOLWEIGHT>
2.423202000000000e+002

> <IDNUMBER>
AT-687/NB01341

> <PRICE>
EUR 80/10 mg

$$$$

  -OEChem-04102411172D

 23 24  0     0  0  0  0  0  0999 V2000
    0.0458   -3.5083    0.0000 C   0  0  0  0  0  0  0  0  0  0  0  0
    0.7667   -3.0917    0.0000 N   0  0  3  0  0  0  0  0  0  0  0  0
    2.9167   -1.8458    0.0000 C   0  0  0  0  0  0  0  0  0  0  0  0
   -0.6708   -3.1000    0.0000 O   0  0  0  0  0  0  0  0  0  0  0  0
    3.6375   -2.2583    0.0000 N   0  0  0  0  0  0  0  0  0  0  0  0
    2.1958   -2.2667    0.0000 C   0  0  3  0  0  0  0  0  0  0  0  0
    0.0458   -4.3375    0.0000 O   0  0  0  0  0  0  0  0  0  0  0  0
    1.4792   -3.5042    0.0000 C   0  0  0  0  0  0  0  0  0  0  0  0
    0.7667   -2.2667    0.0000 C   0  0  0  0  0  0  0  0  0  0  0  0
    2.9125   -1.0208    0.0000 O   0  0  0  0  0  0  0  0  0  0  0  0
   -0.6708   -2.2667    0.0000 C   0  0  3  0  0  0  0  0  0  0  0  0
    2.1958   -3.0917    0.0000 C   0  0  0  0  0  0  0  0  0  0  0  0
    1.4792   -1.8542    0.0000 C   0  0  0  0  0  0  0  0  0  0  0  0
    4.3500   -1.8417    0.0000 C   0  0  3  0  0  0  0  0  0  0  0  0
   -0.6708   -1.4417    0.0000 C   0  0  0  0  0  0  0  0  0  0  0  0
   -1.4958   -2.2667    0.0000 C   0  0  0  0  0  0  0  0  0  0  0  0
    0.1542   -2.2667    0.0000 C   0  0  0  0  0  0  0  0  0  0  0  0
    4.9917   -2.3542    0.0000 C   0  0  0  0  0  0  0  0  0  0  0  0
    4.3458   -1.0167    0.0000 C   0  0  0  0  0  0  0  0  0  0  0  0
    4.9875   -0.5042    0.0000 C   0  0  0  0  0  0  0  0  0  0  0  0
    5.7917   -2.1708    0.0000 C   0  0  0  0  0  0  0  0  0  0  0  0
    6.1500   -1.4333    0.0000 C   0  0  0  0  0  0  0  0  0  0  0  0
    5.7875   -0.6875    0.0000 C   0  0  0  0  0  0  0  0  0  0  0  0
  1  2  1  0  0  0  0
  3  6  1  0  0  0  0
  1  4  1  0  0  0  0
  3  5  1  0  0  0  0
  6 13  1  0  0  0  0
  1  7  2  0  0  0  0
  2  8  1  0  0  0  0
  2  9  1  0  0  0  0
  3 10  2  0  0  0  0
  4 11  1  0  0  0  0
  8 12  1  0  0  0  0
  9 13  1  0  0  0  0
  5 14  1  0  0  0  0
 11 15  1  0  0  0  0
 11 16  1  0  0  0  0
 11 17  1  0  0  0  0
 14 18  1  0  0  0  0
 14 19  1  0  0  0  0
 19 20  1  0  0  0  0
 18 21  1  0  0  0  0
 21 22  1  0  0  0  0
 20 23  1  0  0  0  0
  6 12  1  0  0  0  0
 22 23  1  0  0  0  0
M  END
> <MOLFORMULA>
C18 H32 N2 O3

> <MOLWEIGHT>
3.244618000000000e+002

> <IDNUMBER>
AT-084/NB11284

> <PRICE>
EUR 37.00/10 mg

$$$$

  -OEChem-04102411172D

 16 17  0     0  0  0  0  0  0999 V2000
    6.0125   -4.5250    0.0000 C   0  0  0  0  0  0  0  0  0  0  0  0
    6.7250   -4.9417    0.0000 N   0  0  0  0  0  0  0  0  0  0  0  0
    6.0167   -3.7000    0.0000 O   0  0  0  0  0  0  0  0  0  0  0  0
    3.8708   -5.7583    0.0000 N   0  0  0  0  0  0  0  0  0  0  0  0
    5.2958   -4.9333    0.0000 C   0  0  3  0  0  0  0  0  0  0  0  0
    6.7250   -5.7667    0.0000 C   0  0  3  0  0  0  0  0  0  0  0  0
    3.8708   -4.9333    0.0000 C   0  0  0  0  0  0  0  0  0  0  0  0
    4.5833   -6.1708    0.0000 C   0  0  0  0  0  0  0  0  0  0  0  0
    4.5833   -4.5208    0.0000 C   0  0  0  0  0  0  0  0  0  0  0  0
    5.2958   -5.7583    0.0000 C   0  0  0  0  0  0  0  0  0  0  0  0
    7.4083   -6.0625    0.0000 C   0  0  0  0  0  0  0  0  0  0  0  0
    5.9333   -6.1042    0.0000 C   0  0  0  0  0  0  0  0  0  0  0  0
    5.6667   -6.7708    0.0000 C   0  0  0  0  0  0  0  0  0  0  0  0
    7.5875   -6.8833    0.0000 C   0  0  0  0  0  0  0  0  0  0  0  0
    6.9917   -7.5458    0.0000 C   0  0  0  0  0  0  0  0  0  0  0  0
    6.1167   -7.4792    0.0000 C   0  0  0  0  0  0  0  0  0  0  0  0
  1  2  1  0  0  0  0
  1  3  2  0  0  0  0
  4  7  1  0  0  0  0
  1  5  1  0  0  0  0
  2  6  1  0  0  0  0
  7  9  1  0  0  0  0
  8 10  1  0  0  0  0
  5  9  1  0  0  0  0
  5 10  1  0  0  0  0
  6 11  1  0  0  0  0
  6 12  1  0  0  0  0
 12 13  1  0  0  0  0
 11 14  1  0  0  0  0
 14 15  1  0  0  0  0
 13 16  1  0  0  0  0
  4  8  1  0  0  0  0
 15 16  1  0  0  0  0
M  END
> <MOLFORMULA>
C13 H24 N2 O

> <MOLWEIGHT>
2.243456000000000e+002

> <IDNUMBER>
AT-084/NB11302

> <SALTDATA>
HCl

> <PRICE>
EUR 37.00/10 mg

$$$$

  -OEChem-04102411172D

 24 26  0     0  0  0  0  0  0999 V2000
    1.8542   -0.5333    0.0000 C   0  0  0  0  0  0  0  0  0  0  0  0
    1.4500    0.3792    0.0000 C   0  0  0  0  0  0  0  0  0  0  0  0
    2.8500   -0.4292    0.0000 N   0  0  0  0  0  0  0  0  0  0  0  0
    0.4708    0.5875    0.0000 C   0  0  0  0  0  0  0  0  0  0  0  0
    1.3542   -1.4000    0.0000 C   0  0  0  0  0  0  0  0  0  0  0  0
    3.0583    0.5458    0.0000 O   0  0  0  0  0  0  0  0  0  0  0  0
    2.1917    1.0458    0.0000 C   0  0  0  0  0  0  0  0  0  0  0  0
    0.1625    1.5375    0.0000 N   0  0  0  0  0  0  0  0  0  0  0  0
    0.3542   -1.4000    0.0000 C   0  0  0  0  0  0  0  0  0  0  0  0
    1.8542   -2.2667    0.0000 C   0  0  0  0  0  0  0  0  0  0  0  0
   -0.1958   -0.1583    0.0000 O   0  0  0  0  0  0  0  0  0  0  0  0
    2.8542   -2.2667    0.0000 Cl  0  0  0  0  0  0  0  0  0  0  0  0
   -0.1458   -0.5333    0.0000 Cl  0  0  0  0  0  0  0  0  0  0  0  0
   -0.8167    1.7458    0.0000 C   0  0  3  0  0  0  0  0  0  0  0  0
    2.0875    2.0417    0.0000 C   0  0  0  0  0  0  0  0  0  0  0  0
    0.3542   -3.1333    0.0000 C   0  0  0  0  0  0  0  0  0  0  0  0
    1.3542   -3.1333    0.0000 C   0  0  0  0  0  0  0  0  0  0  0  0
   -0.1458   -2.2667    0.0000 C   0  0  0  0  0  0  0  0  0  0  0  0
   -1.0542    2.7167    0.0000 C   0  0  0  0  0  0  0  0  0  0  0  0
   -1.4292    0.9542    0.0000 C   0  0  0  0  0  0  0  0  0  0  0  0
   -2.4292    0.9375    0.0000 C   0  0  0  0  0  0  0  0  0  0  0  0
   -1.9625    3.1375    0.0000 C   0  0  0  0  0  0  0  0  0  0  0  0
   -3.0625    1.7125    0.0000 C   0  0  0  0  0  0  0  0  0  0  0  0
   -2.8542    2.6917    0.0000 C   0  0  0  0  0  0  0  0  0  0  0  0
  1  2  1  0  0  0  0
  1  3  2  0  0  0  0
  2  4  1  0  0  0  0
  1  5  1  0  0  0  0
  3  6  1  0  0  0  0
  2  7  2  0  0  0  0
  4  8  1  0  0  0  0
  5  9  2  0  0  0  0
  5 10  1  0  0  0  0
  4 11  2  0  0  0  0
 10 12  1  0  0  0  0
  9 13  1  0  0  0  0
  8 14  1  0  0  0  0
  7 15  1  0  0  0  0
 16 18  2  0  0  0  0
 10 17  2  0  0  0  0
  9 18  1  0  0  0  0
 14 19  1  0  0  0  0
 14 20  1  0  0  0  0
 20 21  1  0  0  0  0
 19 22  1  0  0  0  0
 21 23  1  0  0  0  0
 22 24  1  0  0  0  0
  6  7  1  0  0  0  0
 16 17  1  0  0  0  0
 23 24  1  0  0  0  0
M  END
> <MOLFORMULA>
C18 H20 Cl2 N2 O2

> <MOLWEIGHT>
3.672740000000000e+002

> <IDNUMBER>
AN-153/NB13089

> <PRICE>
EUR 130/10 mg

$$$$

  -OEChem-04102411172D

 22 23  0     0  0  0  0  0  0999 V2000
   -1.3417    2.8083    0.0000 C   0  0  0  0  0  0  0  0  0  0  0  0
   -1.8417    3.6750    0.0000 C   0  0  0  0  0  0  0  0  0  0  0  0
    0.1583   -1.5208    0.0000 C   0  0  0  0  0  0  0  0  0  0  0  0
   -0.3417   -2.3875    0.0000 N   0  0  0  0  0  0  0  0  0  0  0  0
   -0.3417    2.8083    0.0000 C   0  0  0  0  0  0  0  0  0  0  0  0
    1.1583   -1.5208    0.0000 O   0  0  0  0  0  0  0  0  0  0  0  0
    0.1583    3.6750    0.0000 C   0  0  0  0  0  0  0  0  0  0  0  0
   -1.3417    4.5333    0.0000 C   0  0  0  0  0  0  0  0  0  0  0  0
   -1.8417    1.9417    0.0000 Cl  0  0  0  0  0  0  0  0  0  0  0  0
   -0.3417    4.5333    0.0000 C   0  0  0  0  0  0  0  0  0  0  0  0
   -1.8417    5.4000    0.0000 Cl  0  0  0  0  0  0  0  0  0  0  0  0
    0.1583   -3.2542    0.0000 C   0  0  3  0  0  0  0  0  0  0  0  0
    0.1583    1.9417    0.0000 O   0  0  0  0  0  0  0  0  0  0  0  0
   -0.3417   -0.6583    0.0000 C   0  0  0  0  0  0  0  0  0  0  0  0
   -0.3417    1.0750    0.0000 C   0  0  0  0  0  0  0  0  0  0  0  0
   -0.4042   -4.0792    0.0000 C   0  0  0  0  0  0  0  0  0  0  0  0
    1.1583   -3.1792    0.0000 C   0  0  0  0  0  0  0  0  0  0  0  0
    0.1583    0.2083    0.0000 C   0  0  0  0  0  0  0  0  0  0  0  0
    1.8375   -3.9125    0.0000 C   0  0  0  0  0  0  0  0  0  0  0  0
   -0.1083   -5.0375    0.0000 C   0  0  0  0  0  0  0  0  0  0  0  0
    0.8208   -5.4000    0.0000 C   0  0  0  0  0  0  0  0  0  0  0  0
    1.6875   -4.9000    0.0000 C   0  0  0  0  0  0  0  0  0  0  0  0
  1  2  2  0  0  0  0
  3 14  1  0  0  0  0
  3  4  1  0  0  0  0
  1  5  1  0  0  0  0
  3  6  2  0  0  0  0
  5  7  2  0  0  0  0
  2  8  1  0  0  0  0
  1  9  1  0  0  0  0
  7 10  1  0  0  0  0
  8 11  1  0  0  0  0
  4 12  1  0  0  0  0
  5 13  1  0  0  0  0
 14 18  1  0  0  0  0
 13 15  1  0  0  0  0
 12 16  1  0  0  0  0
 12 17  1  0  0  0  0
 15 18  1  0  0  0  0
 17 19  1  0  0  0  0
 16 20  1  0  0  0  0
 20 21  1  0  0  0  0
 19 22  1  0  0  0  0
  8 10  2  0  0  0  0
 21 22  1  0  0  0  0
M  END
> <MOLFORMULA>
C17 H23 Cl2 N O2

> <MOLWEIGHT>
3.442797000000000e+002

> <IDNUMBER>
AN-153/NB13093

> <PRICE>
EUR 130/10 mg

$$$$

  -OEChem-04102411172D

 19 20  0     0  0  0  0  0  0999 V2000
   -0.3458   -1.1667    0.0000 C   0  0  0  0  0  0  0  0  0  0  0  0
    0.1542   -2.0333    0.0000 N   0  0  0  0  0  0  0  0  0  0  0  0
    0.1542   -0.3042    0.0000 O   0  0  0  0  0  0  0  0  0  0  0  0
   -1.3458   -1.1667    0.0000 C   0  0  0  0  0  0  0  0  0  0  0  0
   -1.8458   -0.3042    0.0000 C   0  0  0  0  0  0  0  0  0  0  0  0
   -2.8458    1.4292    0.0000 C   0  0  0  0  0  0  0  0  0  0  0  0
    1.1542   -2.0333    0.0000 C   0  0  3  0  0  0  0  0  0  0  0  0
   -1.3458    0.5625    0.0000 C   0  0  0  0  0  0  0  0  0  0  0  0
   -2.8458   -0.3042    0.0000 C   0  0  0  0  0  0  0  0  0  0  0  0
   -3.3458    0.5625    0.0000 C   0  0  0  0  0  0  0  0  0  0  0  0
   -1.8458    1.4292    0.0000 C   0  0  0  0  0  0  0  0  0  0  0  0
   -3.3458    2.2958    0.0000 O   0  0  0  0  0  0  0  0  0  0  0  0
   -2.8458    3.1625    0.0000 C   0  0  0  0  0  0  0  0  0  0  0  0
    1.5875   -2.9375    0.0000 C   0  0  0  0  0  0  0  0  0  0  0  0
    1.5875   -1.1333    0.0000 C   0  0  0  0  0  0  0  0  0  0  0  0
    2.5625   -0.9125    0.0000 C   0  0  0  0  0  0  0  0  0  0  0  0
    2.5625   -3.1583    0.0000 C   0  0  0  0  0  0  0  0  0  0  0  0
    3.3417   -2.5333    0.0000 C   0  0  0  0  0  0  0  0  0  0  0  0
    3.3417   -1.5333    0.0000 C   0  0  0  0  0  0  0  0  0  0  0  0
  1  2  1  0  0  0  0
  1  3  2  0  0  0  0
  1  4  1  0  0  0  0
  4  5  1  0  0  0  0
  6 10  2  0  0  0  0
  2  7  1  0  0  0  0
  5  8  1  0  0  0  0
  5  9  2  0  0  0  0
  9 10  1  0  0  0  0
  8 11  2  0  0  0  0
  6 12  1  0  0  0  0
 12 13  1  0  0  0  0
  7 14  1  0  0  0  0
  7 15  1  0  0  0  0
 15 16  1  0  0  0  0
 14 17  1  0  0  0  0
 17 18  1  0  0  0  0
 16 19  1  0  0  0  0
  6 11  1  0  0  0  0
 18 19  1  0  0  0  0
M  END
> <MOLFORMULA>
C16 H23 N O2

> <MOLWEIGHT>
2.613627000000000e+002

> <IDNUMBER>
AN-153/NB13975

> <PRICE>
EUR 130/10 mg

$$$$

  -OEChem-04102411172D

 19 20  0     0  0  0  0  0  0999 V2000
    0.1583    0.2083    0.0000 C   0  0  0  0  0  0  0  0  0  0  0  0
    0.1583    1.9417    0.0000 C   0  0  0  0  0  0  0  0  0  0  0  0
   -0.3417   -0.6583    0.0000 N   0  0  0  0  0  0  0  0  0  0  0  0
   -0.3417    1.0750    0.0000 C   0  0  0  0  0  0  0  0  0  0  0  0
    1.1583    0.2083    0.0000 O   0  0  0  0  0  0  0  0  0  0  0  0
   -0.3417    2.8083    0.0000 C   0  0  0  0  0  0  0  0  0  0  0  0
    0.1583   -1.5208    0.0000 C   0  0  3  0  0  0  0  0  0  0  0  0
   -1.3417    2.8083    0.0000 O   0  0  0  0  0  0  0  0  0  0  0  0
    1.1583    1.9417    0.0000 C   0  0  0  0  0  0  0  0  0  0  0  0
    0.1583    3.6750    0.0000 C   0  0  0  0  0  0  0  0  0  0  0  0
   -1.8417    1.9417    0.0000 C   0  0  0  0  0  0  0  0  0  0  0  0
   -0.4042   -2.3500    0.0000 C   0  0  0  0  0  0  0  0  0  0  0  0
    1.1583   -1.4458    0.0000 C   0  0  0  0  0  0  0  0  0  0  0  0
    1.6583    2.8083    0.0000 C   0  0  0  0  0  0  0  0  0  0  0  0
    1.1583    3.6750    0.0000 C   0  0  0  0  0  0  0  0  0  0  0  0
    1.8375   -2.1792    0.0000 C   0  0  0  0  0  0  0  0  0  0  0  0
   -0.1083   -3.3042    0.0000 C   0  0  0  0  0  0  0  0  0  0  0  0
    0.8208   -3.6708    0.0000 C   0  0  0  0  0  0  0  0  0  0  0  0
    1.6875   -3.1708    0.0000 C   0  0  0  0  0  0  0  0  0  0  0  0
  2  4  1  0  0  0  0
  1  3  1  0  0  0  0
  1  4  1  0  0  0  0
  1  5  2  0  0  0  0
  2  6  2  0  0  0  0
  3  7  1  0  0  0  0
  6  8  1  0  0  0  0
  2  9  1  0  0  0  0
  6 10  1  0  0  0  0
  8 11  1  0  0  0  0
  7 12  1  0  0  0  0
  7 13  1  0  0  0  0
  9 14  2  0  0  0  0
 14 15  1  0  0  0  0
 13 16  1  0  0  0  0
 12 17  1  0  0  0  0
 17 18  1  0  0  0  0
 16 19  1  0  0  0  0
 10 15  2  0  0  0  0
 18 19  1  0  0  0  0
M  END
> <MOLFORMULA>
C16 H23 N O2

> <MOLWEIGHT>
2.613627000000000e+002

> <IDNUMBER>
AN-153/NB14033

> <PRICE>
EUR 130/10 mg

$$$$

  -OEChem-04102411172D

 23 26  0     0  0  0  0  0  0999 V2000
   -0.1083   -0.6167    0.0000 N   0  0  3  0  0  0  0  0  0  0  0  0
   -1.1333   -0.5458    0.0000 C   0  0  0  0  0  0  0  0  0  0  0  0
    0.2792    0.3375    0.0000 C   0  0  0  0  0  0  0  0  0  0  0  0
   -0.5125    1.0000    0.0000 C   0  0  0  0  0  0  0  0  0  0  0  0
   -1.3833    0.4542    0.0000 C   0  0  0  0  0  0  0  0  0  0  0  0
    1.2458    0.6917    0.0000 C   0  0  0  0  0  0  0  0  0  0  0  0
    0.5958   -1.0750    0.0000 C   0  0  3  0  0  0  0  0  0  0  0  0
    1.6792   -0.0250    0.0000 C   0  0  3  0  0  0  0  0  0  0  0  0
    1.3875   -0.8125    0.0000 C   0  0  0  0  0  0  0  0  0  0  0  0
   -0.3333    2.0125    0.0000 C   0  0  0  0  0  0  0  0  0  0  0  0
   -1.7958   -1.3333    0.0000 O   0  0  0  0  0  0  0  0  0  0  0  0
    1.4250    1.7042    0.0000 C   0  0  0  0  0  0  0  0  0  0  0  0
   -2.3375    0.8417    0.0000 O   0  0  0  0  0  0  0  0  0  0  0  0
    0.6333    2.3667    0.0000 C   0  0  0  0  0  0  0  0  0  0  0  0
   -0.3833   -1.3958    0.0000 C   0  0  0  0  0  0  0  0  0  0  0  0
    1.4542   -1.6375    0.0000 C   0  0  0  0  0  0  0  0  0  0  0  0
    1.7750   -1.0500    0.0000 C   0  0  0  0  0  0  0  0  0  0  0  0
    2.3333    0.7667    0.0000 C   0  0  0  0  0  0  0  0  0  0  0  0
    0.8125    3.3792    0.0000 C   0  0  0  0  0  0  0  0  0  0  0  0
   -0.7417   -2.3625    0.0000 C   0  0  0  0  0  0  0  0  0  0  0  0
    1.5542   -2.6625    0.0000 C   0  0  0  0  0  0  0  0  0  0  0  0
    0.8125   -3.3750    0.0000 C   0  0  0  0  0  0  0  0  0  0  0  0
   -0.2083   -3.2417    0.0000 C   0  0  0  0  0  0  0  0  0  0  0  0
  1  2  1  0  0  0  0
  1  3  1  0  0  0  0
  3  4  1  0  0  0  0
  2  5  1  0  0  0  0
  3  6  2  0  0  0  0
  1  7  1  0  0  0  0
  8  9  1  0  0  0  0
  7  9  1  0  0  0  0
  4 10  2  0  0  0  0
  2 11  2  0  0  0  0
  6 12  1  0  0  0  0
  5 13  2  0  0  0  0
 12 14  2  0  0  0  0
  7 15  1  0  0  0  0
  7 16  1  0  0  0  0
  8 17  1  0  0  0  0
  8 18  1  0  0  0  0
 14 19  1  0  0  0  0
 15 20  1  0  0  0  0
 16 21  1  0  0  0  0
 21 22  1  0  0  0  0
 20 23  1  0  0  0  0
  4  5  1  0  0  0  0
  6  8  1  0  0  0  0
 22 23  1  0  0  0  0
 10 14  1  0  0  0  0
M  END
> <MOLFORMULA>
C20 H25 N O2

> <MOLWEIGHT>
3.114225000000000e+002

> <IDNUMBER>
AN-153/NB18977

> <PRICE>
EUR 130/10 mg

$$$$

  -OEChem-04102411172D

 37 42  0     0  0  0  0  0  0999 V2000
    0.8250    0.2583    0.0000 C   0  0  3  0  0  0  0  0  0  0  0  0
   -0.6250    1.0958    0.0000 N   0  0  3  0  0  0  0  0  0  0  0  0
   -0.2042    0.1500    0.0000 C   0  0  0  0  0  0  0  0  0  0  0  0
    1.8375    0.4750    0.0000 C   0  0  0  0  0  0  0  0  0  0  0  0
    0.5083   -0.7250    0.0000 C   0  0  0  0  0  0  0  0  0  0  0  0
    0.1458    1.7875    0.0000 C   0  0  0  0  0  0  0  0  0  0  0  0
    1.0417    1.2708    0.0000 C   0  0  0  0  0  0  0  0  0  0  0  0
    2.5292   -0.2958    0.0000 C   0  0  0  0  0  0  0  0  0  0  0  0
    1.2000   -1.4917    0.0000 C   0  0  0  0  0  0  0  0  0  0  0  0
    0.1458    2.8208    0.0000 C   0  0  0  0  0  0  0  0  0  0  0  0
   -1.2958    1.6000    0.0000 C   0  0  3  0  0  0  0  0  0  0  0  0
    2.2083   -1.2792    0.0000 O   0  0  0  0  0  0  0  0  0  0  0  0
   -0.5042   -0.9417    0.0000 C   0  0  0  0  0  0  0  0  0  0  0  0
   -0.6792    2.9833    0.0000 C   0  0  3  0  0  0  0  0  0  0  0  0
    2.1583    1.4583    0.0000 C   0  0  0  0  0  0  0  0  0  0  0  0
   -1.3208    2.4417    0.0000 C   0  0  0  0  0  0  0  0  0  0  0  0
    3.1708    1.6708    0.0000 N   0  0  0  0  0  0  0  0  0  0  0  0
    0.8792   -2.4750    0.0000 C   0  0  0  0  0  0  0  0  0  0  0  0
   -0.1333   -2.6917    0.0000 C   0  0  3  0  0  0  0  0  0  0  0  0
   -0.8250   -1.9250    0.0000 C   0  0  0  0  0  0  0  0  0  0  0  0
   -0.4292   -0.4417    0.0000 O   0  0  0  0  0  0  0  0  0  0  0  0
    1.9375    1.7875    0.0000 C   0  0  0  0  0  0  0  0  0  0  0  0
    1.0417    3.3375    0.0000 C   0  0  0  0  0  0  0  0  0  0  0  0
   -1.1750   -0.3708    0.0000 O   0  0  0  0  0  0  0  0  0  0  0  0
    3.5417   -0.0792    0.0000 N   0  0  0  0  0  0  0  0  0  0  0  0
    1.9375    2.8208    0.0000 C   0  0  0  0  0  0  0  0  0  0  0  0
   -1.2667    0.5667    0.0000 C   0  0  0  0  0  0  0  0  0  0  0  0
   -2.1250    2.2208    0.0000 C   0  0  0  0  0  0  0  0  0  0  0  0
   -1.5708    3.5083    0.0000 C   0  0  0  0  0  0  0  0  0  0  0  0
   -0.0125    3.6167    0.0000 C   0  0  0  0  0  0  0  0  0  0  0  0
    0.3375   -3.6125    0.0000 C   0  0  0  0  0  0  0  0  0  0  0  0
   -1.1625   -2.7750    0.0000 C   0  0  0  0  0  0  0  0  0  0  0  0
    2.8333    3.3375    0.0000 C   0  0  0  0  0  0  0  0  0  0  0  0
   -2.0542   -0.1042    0.0000 C   0  0  0  0  0  0  0  0  0  0  0  0
   -3.1250    1.9583    0.0000 C   0  0  0  0  0  0  0  0  0  0  0  0
   -3.5458    1.0167    0.0000 C   0  0  0  0  0  0  0  0  0  0  0  0
   -3.0708    0.0958    0.0000 C   0  0  0  0  0  0  0  0  0  0  0  0
  2  3  1  0  0  0  0
  1  3  1  0  0  0  0
  1  4  1  0  0  0  0
  1  5  1  0  0  0  0
  6  7  1  0  0  0  0
  1  7  1  0  0  0  0
  4  8  2  0  0  0  0
  5  9  2  0  0  0  0
  6 10  2  0  0  0  0
  2 11  1  0  0  0  0
  9 12  1  0  0  0  0
  5 13  1  0  0  0  0
 10 14  1  0  0  0  0
  4 15  1  0  0  0  0
 11 16  1  0  0  0  0
 15 17  3  0  0  0  0
  9 18  1  0  0  0  0
 19 20  1  0  0  0  0
 13 20  1  0  0  0  0
  3 21  2  0  0  0  0
  7 22  2  0  0  0  0
 23 26  2  0  0  0  0
 13 24  2  0  0  0  0
  8 25  1  0  0  0  0
 22 26  1  0  0  0  0
 11 27  1  0  0  0  0
 11 28  1  0  0  0  0
 14 29  1  0  0  0  0
 14 30  1  0  0  0  0
 19 31  1  0  0  0  0
 19 32  1  0  0  0  0
 26 33  1  0  0  0  0
 27 34  1  0  0  0  0
 28 35  1  0  0  0  0
 35 36  1  0  0  0  0
 34 37  1  0  0  0  0
  2  6  1  0  0  0  0
  8 12  1  0  0  0  0
 10 23  1  0  0  0  0
 18 19  1  0  0  0  0
 14 16  1  0  0  0  0
 36 37  1  0  0  0  0
M  END
> <MOLFORMULA>
C31 H37 N3 O3

> <MOLWEIGHT>
4.996513000000000e+002

> <IDNUMBER>
AN-153/NB18979

> <PRICE>
EUR 130/10 mg

$$$$

  -OEChem-04102411172D

 36 41  0     0  0  0  0  0  0999 V2000
    0.3125    0.1542    0.0000 C   0  0  3  0  0  0  0  0  0  0  0  0
   -0.5375   -1.2792    0.0000 N   0  0  3  0  0  0  0  0  0  0  0  0
    0.1125    1.1625    0.0000 C   0  0  0  0  0  0  0  0  0  0  0  0
    0.4083   -0.8708    0.0000 C   0  0  0  0  0  0  0  0  0  0  0  0
    1.2875   -0.1750    0.0000 C   0  0  0  0  0  0  0  0  0  0  0  0
   -1.2167   -0.5042    0.0000 C   0  0  0  0  0  0  0  0  0  0  0  0
    0.8833    1.8417    0.0000 C   0  0  0  0  0  0  0  0  0  0  0  0
   -0.8625    1.4917    0.0000 C   0  0  0  0  0  0  0  0  0  0  0  0
   -0.6917    0.3792    0.0000 C   0  0  0  0  0  0  0  0  0  0  0  0
    2.0625    0.5042    0.0000 C   0  0  0  0  0  0  0  0  0  0  0  0
   -2.2458   -0.4917    0.0000 C   0  0  0  0  0  0  0  0  0  0  0  0
   -1.0500   -1.9417    0.0000 C   0  0  3  0  0  0  0  0  0  0  0  0
    1.8583    1.5125    0.0000 O   0  0  0  0  0  0  0  0  0  0  0  0
    0.6833    2.8500    0.0000 C   0  0  0  0  0  0  0  0  0  0  0  0
   -2.4167   -1.3125    0.0000 C   0  0  3  0  0  0  0  0  0  0  0  0
   -1.0667    2.5042    0.0000 O   0  0  0  0  0  0  0  0  0  0  0  0
    1.4875   -1.1875    0.0000 C   0  0  0  0  0  0  0  0  0  0  0  0
   -0.2917    3.1833    0.0000 C   0  0  0  0  0  0  0  0  0  0  0  0
   -1.8833   -1.9542    0.0000 C   0  0  0  0  0  0  0  0  0  0  0  0
    2.4625   -1.5167    0.0000 N   0  0  0  0  0  0  0  0  0  0  0  0
    1.2917   -1.3958    0.0000 O   0  0  0  0  0  0  0  0  0  0  0  0
   -1.1958    1.2792    0.0000 C   0  0  0  0  0  0  0  0  0  0  0  0
   -2.7500    0.4042    0.0000 C   0  0  0  0  0  0  0  0  0  0  0  0
   -1.5625    1.7875    0.0000 O   0  0  0  0  0  0  0  0  0  0  0  0
    3.0333    0.1708    0.0000 N   0  0  0  0  0  0  0  0  0  0  0  0
   -2.2250    1.2917    0.0000 C   0  0  0  0  0  0  0  0  0  0  0  0
   -1.6750   -2.7583    0.0000 C   0  0  0  0  0  0  0  0  0  0  0  0
   -0.0208   -1.9250    0.0000 C   0  0  0  0  0  0  0  0  0  0  0  0
   -3.0375   -0.7000    0.0000 C   0  0  0  0  0  0  0  0  0  0  0  0
   -2.9500   -2.1917    0.0000 C   0  0  0  0  0  0  0  0  0  0  0  0
   -0.4917    4.1875    0.0000 C   0  0  0  0  0  0  0  0  0  0  0  0
   -2.7292    2.1875    0.0000 C   0  0  0  0  0  0  0  0  0  0  0  0
   -1.4292   -3.7542    0.0000 C   0  0  0  0  0  0  0  0  0  0  0  0
    0.6375   -2.7167    0.0000 C   0  0  0  0  0  0  0  0  0  0  0  0
    0.4250   -3.7250    0.0000 C   0  0  0  0  0  0  0  0  0  0  0  0
   -0.4917   -4.1875    0.0000 C   0  0  0  0  0  0  0  0  0  0  0  0
  2  4  1  0  0  0  0
  1  3  1  0  0  0  0
  1  4  1  0  0  0  0
  1  5  1  0  0  0  0
  6  9  1  0  0  0  0
  3  7  2  0  0  0  0
  3  8  1  0  0  0  0
  1  9  1  0  0  0  0
  5 10  2  0  0  0  0
  6 11  2  0  0  0  0
  2 12  1  0  0  0  0
 10 13  1  0  0  0  0
  7 14  1  0  0  0  0
 11 15  1  0  0  0  0
  8 16  1  0  0  0  0
  5 17  1  0  0  0  0
 16 18  1  0  0  0  0
 12 19  1  0  0  0  0
 17 20  3  0  0  0  0
  4 21  2  0  0  0  0
  9 22  2  0  0  0  0
 23 26  2  0  0  0  0
  8 24  2  0  0  0  0
 10 25  1  0  0  0  0
 22 26  1  0  0  0  0
 12 27  1  0  0  0  0
 12 28  1  0  0  0  0
 15 29  1  0  0  0  0
 15 30  1  0  0  0  0
 18 31  1  0  0  0  0
 26 32  1  0  0  0  0
 27 33  1  0  0  0  0
 28 34  1  0  0  0  0
 34 35  1  0  0  0  0
 33 36  1  0  0  0  0
  2  6  1  0  0  0  0
  7 13  1  0  0  0  0
 11 23  1  0  0  0  0
 15 19  1  0  0  0  0
 14 18  2  0  0  0  0
 35 36  1  0  0  0  0
M  END
> <MOLFORMULA>
C29 H31 N3 O4

> <MOLWEIGHT>
4.855809000000000e+002

> <IDNUMBER>
AN-153/NB18982

> <PRICE>
EUR 130/10 mg

$$$$

  -OEChem-04102411172D

 35 40  0     0  0  0  0  0  0999 V2000
   -0.1458   -0.8500    0.0000 C   0  0  3  0  0  0  0  0  0  0  0  0
    0.4625    0.7125    0.0000 N   0  0  3  0  0  0  0  0  0  0  0  0
   -0.4125    0.1542    0.0000 C   0  0  0  0  0  0  0  0  0  0  0  0
    0.2208   -1.8208    0.0000 C   0  0  0  0  0  0  0  0  0  0  0  0
    1.2625    0.0583    0.0000 C   0  0  0  0  0  0  0  0  0  0  0  0
   -1.1708   -0.6833    0.0000 C   0  0  0  0  0  0  0  0  0  0  0  0
    0.8875   -0.9083    0.0000 C   0  0  0  0  0  0  0  0  0  0  0  0
   -0.4333   -2.6208    0.0000 C   0  0  0  0  0  0  0  0  0  0  0  0
   -1.8250   -1.4875    0.0000 C   0  0  0  0  0  0  0  0  0  0  0  0
    2.2875    0.2167    0.0000 C   0  0  0  0  0  0  0  0  0  0  0  0
    0.8583    1.4583    0.0000 C   0  0  3  0  0  0  0  0  0  0  0  0
   -1.4583   -2.4583    0.0000 O   0  0  0  0  0  0  0  0  0  0  0  0
    2.3250    1.0583    0.0000 C   0  0  3  0  0  0  0  0  0  0  0  0
    1.2458   -1.9833    0.0000 C   0  0  0  0  0  0  0  0  0  0  0  0
    1.6875    1.6125    0.0000 C   0  0  0  0  0  0  0  0  0  0  0  0
   -1.5375    0.2833    0.0000 C   0  0  0  0  0  0  0  0  0  0  0  0
    1.6125   -2.9542    0.0000 N   0  0  0  0  0  0  0  0  0  0  0  0
   -0.8833    0.3542    0.0000 O   0  0  0  0  0  0  0  0  0  0  0  0
    1.5375   -1.7167    0.0000 C   0  0  0  0  0  0  0  0  0  0  0  0
    2.9375   -0.5917    0.0000 C   0  0  0  0  0  0  0  0  0  0  0  0
   -0.0667   -3.5917    0.0000 N   0  0  0  0  0  0  0  0  0  0  0  0
    2.5625   -1.5583    0.0000 C   0  0  0  0  0  0  0  0  0  0  0  0
   -0.8833    1.0875    0.0000 O   0  0  0  0  0  0  0  0  0  0  0  0
   -2.8500   -1.3208    0.0000 C   0  0  0  0  0  0  0  0  0  0  0  0
   -0.1625    1.2667    0.0000 C   0  0  0  0  0  0  0  0  0  0  0  0
    1.3458    2.3708    0.0000 C   0  0  0  0  0  0  0  0  0  0  0  0
    2.7042    2.0208    0.0000 C   0  0  0  0  0  0  0  0  0  0  0  0
    3.0375    0.5667    0.0000 C   0  0  0  0  0  0  0  0  0  0  0  0
   -2.5625    0.4500    0.0000 C   0  0  0  0  0  0  0  0  0  0  0  0
   -3.2167   -0.3542    0.0000 C   0  0  0  0  0  0  0  0  0  0  0  0
    3.2125   -2.3667    0.0000 C   0  0  0  0  0  0  0  0  0  0  0  0
    0.9333    3.3250    0.0000 C   0  0  0  0  0  0  0  0  0  0  0  0
   -0.9458    1.9458    0.0000 C   0  0  0  0  0  0  0  0  0  0  0  0
   -0.0667    3.5958    0.0000 C   0  0  0  0  0  0  0  0  0  0  0  0
   -0.9042    2.9833    0.0000 C   0  0  0  0  0  0  0  0  0  0  0  0
  2  3  1  0  0  0  0
  1  3  1  0  0  0  0
  1  4  1  0  0  0  0
  5  7  1  0  0  0  0
  1  6  1  0  0  0  0
  1  7  1  0  0  0  0
  4  8  2  0  0  0  0
  6  9  2  0  0  0  0
  5 10  2  0  0  0  0
  2 11  1  0  0  0  0
  9 12  1  0  0  0  0
 10 13  1  0  0  0  0
  4 14  1  0  0  0  0
 11 15  1  0  0  0  0
  6 16  1  0  0  0  0
 14 17  3  0  0  0  0
  3 18  2  0  0  0  0
  7 19  2  0  0  0  0
 20 22  2  0  0  0  0
  8 21  1  0  0  0  0
 19 22  1  0  0  0  0
 16 23  2  0  0  0  0
  9 24  1  0  0  0  0
 11 25  1  0  0  0  0
 11 26  1  0  0  0  0
 13 27  1  0  0  0  0
 13 28  1  0  0  0  0
 16 29  1  0  0  0  0
 29 30  1  0  0  0  0
 22 31  1  0  0  0  0
 26 32  1  0  0  0  0
 25 33  1  0  0  0  0
 32 34  1  0  0  0  0
 33 35  1  0  0  0  0
  2  5  1  0  0  0  0
  8 12  1  0  0  0  0
 10 20  1  0  0  0  0
 24 30  1  0  0  0  0
 13 15  1  0  0  0  0
 34 35  1  0  0  0  0
M  END
> <MOLFORMULA>
C29 H33 N3 O3

> <MOLWEIGHT>
4.715977000000000e+002

> <IDNUMBER>
AN-153/NB18986

> <PRICE>
EUR 130/10 mg

$$$$

  -OEChem-04102411172D

 34 40  0     0  0  0  0  0  0999 V2000
    1.1667    0.4875    0.0000 C   0  0  3  0  0  0  0  0  0  0  0  0
   -0.2667    1.3125    0.0000 N   0  0  3  0  0  0  0  0  0  0  0  0
    0.8500   -0.4833    0.0000 C   0  0  0  0  0  0  0  0  0  0  0  0
    0.1500    0.3792    0.0000 C   0  0  0  0  0  0  0  0  0  0  0  0
    0.4917    1.9958    0.0000 C   0  0  0  0  0  0  0  0  0  0  0  0
    1.3792    1.4833    0.0000 C   0  0  0  0  0  0  0  0  0  0  0  0
   -0.0833   -0.9000    0.0000 N   0  0  0  0  0  0  0  0  0  0  0  0
    1.5333   -1.2417    0.0000 C   0  0  0  0  0  0  0  0  0  0  0  0
    0.4917    3.0167    0.0000 C   0  0  0  0  0  0  0  0  0  0  0  0
   -0.9292    1.8083    0.0000 C   0  0  3  0  0  0  0  0  0  0  0  0
   -0.3208    3.1750    0.0000 C   0  0  3  0  0  0  0  0  0  0  0  0
    1.0208   -2.1292    0.0000 C   0  0  0  0  0  0  0  0  0  0  0  0
    0.0250   -1.9167    0.0000 C   0  0  0  0  0  0  0  0  0  0  0  0
    2.1625    0.7000    0.0000 N   0  0  0  0  0  0  0  0  0  0  0  0
   -0.9542    2.6375    0.0000 C   0  0  0  0  0  0  0  0  0  0  0  0
    2.2625    1.9958    0.0000 C   0  0  0  0  0  0  0  0  0  0  0  0
   -0.3625   -0.5042    0.0000 O   0  0  0  0  0  0  0  0  0  0  0  0
    1.3792    3.5250    0.0000 C   0  0  0  0  0  0  0  0  0  0  0  0
    2.2625    3.0167    0.0000 C   0  0  0  0  0  0  0  0  0  0  0  0
    2.5292   -1.0333    0.0000 C   0  0  0  0  0  0  0  0  0  0  0  0
    2.8458   -0.0625    0.0000 C   0  0  0  0  0  0  0  0  0  0  0  0
   -0.9000    0.7875    0.0000 C   0  0  0  0  0  0  0  0  0  0  0  0
   -1.7458    2.4208    0.0000 C   0  0  0  0  0  0  0  0  0  0  0  0
   -1.2000    3.6917    0.0000 C   0  0  0  0  0  0  0  0  0  0  0  0
    0.3458    3.8625    0.0000 C   0  0  0  0  0  0  0  0  0  0  0  0
    1.3375   -3.1000    0.0000 C   0  0  0  0  0  0  0  0  0  0  0  0
   -0.6583   -2.6750    0.0000 C   0  0  0  0  0  0  0  0  0  0  0  0
    3.1458    3.5250    0.0000 C   0  0  0  0  0  0  0  0  0  0  0  0
   -1.6792    0.1292    0.0000 C   0  0  0  0  0  0  0  0  0  0  0  0
   -2.7333    2.1667    0.0000 C   0  0  0  0  0  0  0  0  0  0  0  0
    0.6542   -3.8583    0.0000 C   0  0  0  0  0  0  0  0  0  0  0  0
   -0.3458   -3.6458    0.0000 C   0  0  0  0  0  0  0  0  0  0  0  0
   -3.1500    1.2333    0.0000 C   0  0  0  0  0  0  0  0  0  0  0  0
   -2.6792    0.3250    0.0000 C   0  0  0  0  0  0  0  0  0  0  0  0
  2  4  1  0  0  0  0
  1  3  1  0  0  0  0
  1  4  1  0  0  0  0
  5  6  1  0  0  0  0
  1  6  1  0  0  0  0
  3  7  1  0  0  0  0
  3  8  2  0  0  0  0
  5  9  2  0  0  0  0
  2 10  1  0  0  0  0
  9 11  1  0  0  0  0
  8 12  1  0  0  0  0
  7 13  1  0  0  0  0
  1 14  1  0  0  0  0
 10 15  1  0  0  0  0
  6 16  2  0  0  0  0
  4 17  2  0  0  0  0
 18 19  2  0  0  0  0
 16 19  1  0  0  0  0
 20 21  1  0  0  0  0
 14 21  1  0  0  0  0
 10 22  1  0  0  0  0
 10 23  1  0  0  0  0
 11 24  1  0  0  0  0
 11 25  1  0  0  0  0
 12 26  1  0  0  0  0
 13 27  1  0  0  0  0
 19 28  1  0  0  0  0
 22 29  1  0  0  0  0
 23 30  1  0  0  0  0
 26 31  2  0  0  0  0
 27 32  2  0  0  0  0
 30 33  1  0  0  0  0
 29 34  1  0  0  0  0
  2  5  1  0  0  0  0
  8 20  1  0  0  0  0
 12 13  2  0  0  0  0
  9 18  1  0  0  0  0
 11 15  1  0  0  0  0
 31 32  1  0  0  0  0
 33 34  1  0  0  0  0
M  END
> <MOLFORMULA>
C30 H35 N3 O

> <MOLWEIGHT>
4.536265000000000e+002

> <IDNUMBER>
AN-153/NB18989

> <PRICE>
EUR 130/10 mg

$$$$

  -OEChem-04102411172D

 32 37  0     0  0  0  0  0  0999 V2000
    0.0125   -0.1500    0.0000 C   0  0  3  0  0  0  0  0  0  0  0  0
   -0.7542    1.3208    0.0000 N   0  0  3  0  0  0  0  0  0  0  0  0
   -0.9042    0.3042    0.0000 C   0  0  0  0  0  0  0  0  0  0  0  0
    0.7292    0.5792    0.0000 C   0  0  0  0  0  0  0  0  0  0  0  0
    0.2542    1.4917    0.0000 C   0  0  0  0  0  0  0  0  0  0  0  0
    0.9750   -0.5083    0.0000 N   0  0  0  0  0  0  0  0  0  0  0  0
   -0.7792   -0.8042    0.0000 N   0  0  0  0  0  0  0  0  0  0  0  0
    1.1417   -1.5208    0.0000 C   0  0  0  0  0  0  0  0  0  0  0  0
    0.8042    2.3542    0.0000 C   0  0  0  0  0  0  0  0  0  0  0  0
   -1.0500    2.1000    0.0000 C   0  0  3  0  0  0  0  0  0  0  0  0
    0.3542   -2.1750    0.0000 C   0  0  0  0  0  0  0  0  0  0  0  0
    0.2000    2.9292    0.0000 C   0  0  3  0  0  0  0  0  0  0  0  0
   -0.6083   -1.8167    0.0000 C   0  0  0  0  0  0  0  0  0  0  0  0
   -0.6250    2.8167    0.0000 C   0  0  0  0  0  0  0  0  0  0  0  0
    1.7542    0.5375    0.0000 C   0  0  0  0  0  0  0  0  0  0  0  0
   -1.8167   -0.1708    0.0000 O   0  0  0  0  0  0  0  0  0  0  0  0
    1.8292    2.3125    0.0000 C   0  0  0  0  0  0  0  0  0  0  0  0
    2.1042   -1.8792    0.0000 O   0  0  0  0  0  0  0  0  0  0  0  0
    2.3042    1.4042    0.0000 C   0  0  0  0  0  0  0  0  0  0  0  0
   -1.4125    3.0583    0.0000 C   0  0  0  0  0  0  0  0  0  0  0  0
   -1.5750    1.2167    0.0000 C   0  0  0  0  0  0  0  0  0  0  0  0
    0.5250   -3.1833    0.0000 C   0  0  0  0  0  0  0  0  0  0  0  0
    1.0250    3.1250    0.0000 C   0  0  0  0  0  0  0  0  0  0  0  0
   -0.2667    3.8417    0.0000 C   0  0  0  0  0  0  0  0  0  0  0  0
   -1.4000   -2.4708    0.0000 C   0  0  0  0  0  0  0  0  0  0  0  0
    3.3292    1.3583    0.0000 C   0  0  0  0  0  0  0  0  0  0  0  0
   -2.3917    3.3708    0.0000 C   0  0  0  0  0  0  0  0  0  0  0  0
   -2.5917    1.0792    0.0000 C   0  0  0  0  0  0  0  0  0  0  0  0
   -0.2667   -3.8375    0.0000 C   0  0  0  0  0  0  0  0  0  0  0  0
   -1.2292   -3.4792    0.0000 C   0  0  0  0  0  0  0  0  0  0  0  0
   -3.3333    1.7833    0.0000 C   0  0  0  0  0  0  0  0  0  0  0  0
   -3.2458    2.8042    0.0000 C   0  0  0  0  0  0  0  0  0  0  0  0
  2  3  1  0  0  0  0
  1  3  1  0  0  0  0
  1  4  1  0  0  0  0
  4  5  1  0  0  0  0
  1  6  1  0  0  0  0
  1  7  1  0  0  0  0
  6  8  1  0  0  0  0
  5  9  2  0  0  0  0
  2 10  1  0  0  0  0
 11 13  2  0  0  0  0
  9 12  1  0  0  0  0
  7 13  1  0  0  0  0
 10 14  1  0  0  0  0
  4 15  2  0  0  0  0
  3 16  2  0  0  0  0
 17 19  2  0  0  0  0
  8 18  2  0  0  0  0
 15 19  1  0  0  0  0
 10 20  1  0  0  0  0
 10 21  1  0  0  0  0
 11 22  1  0  0  0  0
 12 23  1  0  0  0  0
 12 24  1  0  0  0  0
 13 25  1  0  0  0  0
 19 26  1  0  0  0  0
 20 27  1  0  0  0  0
 21 28  1  0  0  0  0
 29 30  1  0  0  0  0
 25 30  2  0  0  0  0
 28 31  1  0  0  0  0
 27 32  1  0  0  0  0
  2  5  1  0  0  0  0
  8 11  1  0  0  0  0
  9 17  1  0  0  0  0
 12 14  1  0  0  0  0
 22 29  2  0  0  0  0
 31 32  1  0  0  0  0
M  END
> <MOLFORMULA>
C27 H31 N3 O2

> <MOLWEIGHT>
4.295609000000000e+002

> <IDNUMBER>
AN-153/NB18993

> <PRICE>
EUR 130/10 mg

$$$$

  -OEChem-04102411172D

 29 33  0     0  0  0  0  0  0999 V2000
    0.1667    2.8542    0.0000 N   0  0  3  0  0  0  0  0  0  0  0  0
   -0.2792    1.9583    0.0000 C   0  0  0  0  0  0  0  0  0  0  0  0
    0.2750    1.1250    0.0000 C   0  0  0  0  0  0  0  0  0  0  0  0
   -0.0667   -1.5000    0.0000 C   0  0  0  0  0  0  0  0  0  0  0  0
    0.3792   -0.6042    0.0000 C   0  0  0  0  0  0  0  0  0  0  0  0
    0.4875   -2.3333    0.0000 N   0  0  3  0  0  0  0  0  0  0  0  0
    1.3792   -0.5417    0.0000 C   0  0  0  0  0  0  0  0  0  0  0  0
    1.2708    1.1875    0.0000 C   0  0  0  0  0  0  0  0  0  0  0  0
    1.8250    0.3500    0.0000 N   0  0  0  0  0  0  0  0  0  0  0  0
    1.1667    2.9125    0.0000 C   0  0  0  0  0  0  0  0  0  0  0  0
   -0.1708    0.2292    0.0000 C   0  0  0  0  0  0  0  0  0  0  0  0
    1.4833   -2.2708    0.0000 C   0  0  0  0  0  0  0  0  0  0  0  0
    1.7167    2.0792    0.0000 C   0  0  0  0  0  0  0  0  0  0  0  0
    1.9292   -1.3750    0.0000 C   0  0  0  0  0  0  0  0  0  0  0  0
   -0.3833    3.6875    0.0000 C   0  0  0  0  0  0  0  0  0  0  0  0
   -1.2750    1.8958    0.0000 O   0  0  0  0  0  0  0  0  0  0  0  0
   -1.0625   -1.5583    0.0000 O   0  0  0  0  0  0  0  0  0  0  0  0
   -1.3833    3.6250    0.0000 N   0  0  0  0  0  0  0  0  0  0  0  0
    0.0417   -3.2292    0.0000 C   0  0  3  0  0  0  0  0  0  0  0  0
    0.0625    4.5792    0.0000 C   0  0  0  0  0  0  0  0  0  0  0  0
   -1.9333    4.4542    0.0000 C   0  0  0  0  0  0  0  0  0  0  0  0
    0.6542   -4.0167    0.0000 C   0  0  0  0  0  0  0  0  0  0  0  0
   -0.9583   -3.2125    0.0000 C   0  0  0  0  0  0  0  0  0  0  0  0
   -0.4917    5.4125    0.0000 C   0  0  0  0  0  0  0  0  0  0  0  0
   -1.4875    5.3500    0.0000 C   0  0  0  0  0  0  0  0  0  0  0  0
    0.4167   -4.9917    0.0000 C   0  0  0  0  0  0  0  0  0  0  0  0
   -1.5958   -3.9875    0.0000 C   0  0  0  0  0  0  0  0  0  0  0  0
   -0.4917   -5.4125    0.0000 C   0  0  0  0  0  0  0  0  0  0  0  0
   -1.3833   -4.9667    0.0000 C   0  0  0  0  0  0  0  0  0  0  0  0
  1  2  1  0  0  0  0
  2  3  1  0  0  0  0
  4  5  1  0  0  0  0
  5 11  2  0  0  0  0
  4  6  1  0  0  0  0
  7  9  2  0  0  0  0
  8 13  1  0  0  0  0
  8  9  1  0  0  0  0
  1 10  1  0  0  0  0
  3 11  1  0  0  0  0
 12 14  2  0  0  0  0
 10 13  2  0  0  0  0
  7 14  1  0  0  0  0
  1 15  1  0  0  0  0
  2 16  2  0  0  0  0
  4 17  2  0  0  0  0
 15 18  1  0  0  0  0
  6 19  1  0  0  0  0
 15 20  2  0  0  0  0
 18 21  2  0  0  0  0
 19 22  1  0  0  0  0
 19 23  1  0  0  0  0
 20 24  1  0  0  0  0
 24 25  2  0  0  0  0
 22 26  1  0  0  0  0
 23 27  1  0  0  0  0
 26 28  1  0  0  0  0
 27 29  1  0  0  0  0
  3  8  2  0  0  0  0
 21 25  1  0  0  0  0
  5  7  1  0  0  0  0
  6 12  1  0  0  0  0
 28 29  1  0  0  0  0
M  END
> <MOLFORMULA>
C23 H22 N4 O2

> <MOLWEIGHT>
3.864528000000000e+002

> <IDNUMBER>
AN-153/NB21236

> <PRICE>
EUR 130/10 mg

$$$$

  -OEChem-04102411172D

 28 32  0     0  0  0  0  0  0999 V2000
    0.1667    2.9125    0.0000 N   0  0  3  0  0  0  0  0  0  0  0  0
   -0.3042    2.0292    0.0000 C   0  0  0  0  0  0  0  0  0  0  0  0
    0.2208    1.1792    0.0000 C   0  0  0  0  0  0  0  0  0  0  0  0
   -0.2000   -1.4333    0.0000 C   0  0  0  0  0  0  0  0  0  0  0  0
    0.2750   -0.5500    0.0000 C   0  0  0  0  0  0  0  0  0  0  0  0
    0.3250   -2.2833    0.0000 N   0  0  3  0  0  0  0  0  0  0  0  0
   -0.3583    3.7625    0.0000 C   0  0  0  0  0  0  0  0  0  0  0  0
   -1.3542    3.8375    0.0000 N   0  0  0  0  0  0  0  0  0  0  0  0
    1.2208    1.2125    0.0000 C   0  0  0  0  0  0  0  0  0  0  0  0
    1.2750   -0.5208    0.0000 C   0  0  0  0  0  0  0  0  0  0  0  0
    1.1667    2.9417    0.0000 C   0  0  0  0  0  0  0  0  0  0  0  0
    1.7458    0.3583    0.0000 N   0  0  0  0  0  0  0  0  0  0  0  0
   -0.2542    0.3000    0.0000 C   0  0  0  0  0  0  0  0  0  0  0  0
    1.3250   -2.2500    0.0000 C   0  0  0  0  0  0  0  0  0  0  0  0
    1.6917    2.0917    0.0000 C   0  0  0  0  0  0  0  0  0  0  0  0
    1.8000   -1.3708    0.0000 C   0  0  0  0  0  0  0  0  0  0  0  0
   -0.7417    5.3292    0.0000 N   0  0  0  0  0  0  0  0  0  0  0  0
    0.0208    4.6833    0.0000 N   0  0  0  0  0  0  0  0  0  0  0  0
   -1.5958    4.8042    0.0000 C   0  0  0  0  0  0  0  0  0  0  0  0
   -1.3042    2.0000    0.0000 O   0  0  0  0  0  0  0  0  0  0  0  0
   -1.2000   -1.4625    0.0000 O   0  0  0  0  0  0  0  0  0  0  0  0
   -0.1458   -3.1625    0.0000 C   0  0  3  0  0  0  0  0  0  0  0  0
   -1.1458   -3.1208    0.0000 C   0  0  0  0  0  0  0  0  0  0  0  0
    0.4417   -3.9708    0.0000 C   0  0  0  0  0  0  0  0  0  0  0  0
   -1.8042   -3.8708    0.0000 C   0  0  0  0  0  0  0  0  0  0  0  0
    0.1750   -4.9375    0.0000 C   0  0  0  0  0  0  0  0  0  0  0  0
   -1.6250   -4.8583    0.0000 C   0  0  0  0  0  0  0  0  0  0  0  0
   -0.7417   -5.3292    0.0000 C   0  0  0  0  0  0  0  0  0  0  0  0
  1  2  1  0  0  0  0
  2  3  1  0  0  0  0
  4  5  1  0  0  0  0
  5 13  2  0  0  0  0
  4  6  1  0  0  0  0
  1  7  1  0  0  0  0
  7  8  2  0  0  0  0
  9 15  1  0  0  0  0
 10 12  2  0  0  0  0
  1 11  1  0  0  0  0
  9 12  1  0  0  0  0
  3 13  1  0  0  0  0
 14 16  2  0  0  0  0
 11 15  2  0  0  0  0
 10 16  1  0  0  0  0
 17 18  1  0  0  0  0
  7 18  1  0  0  0  0
  8 19  1  0  0  0  0
  2 20  2  0  0  0  0
  4 21  2  0  0  0  0
  6 22  1  0  0  0  0
 22 23  1  0  0  0  0
 22 24  1  0  0  0  0
 23 25  1  0  0  0  0
 24 26  1  0  0  0  0
 25 27  1  0  0  0  0
 26 28  1  0  0  0  0
  3  9  2  0  0  0  0
 17 19  2  0  0  0  0
  5 10  1  0  0  0  0
  6 14  1  0  0  0  0
 27 28  1  0  0  0  0
M  END
> <MOLFORMULA>
C20 H20 N6 O2

> <MOLWEIGHT>
3.764180000000000e+002

> <IDNUMBER>
AN-153/NB21237

> <PRICE>
EUR 130/10 mg

$$$$

  -OEChem-04102411172D

 29 33  0     0  0  0  0  0  0999 V2000
    0.8500    2.6458    0.0000 N   0  0  3  0  0  0  0  0  0  0  0  0
    0.4750    3.5708    0.0000 C   0  0  0  0  0  0  0  0  0  0  0  0
    0.2375    1.8542    0.0000 C   0  0  0  0  0  0  0  0  0  0  0  0
   -0.5000    3.8083    0.0000 N   0  0  0  0  0  0  0  0  0  0  0  0
    0.6125    0.9292    0.0000 C   0  0  0  0  0  0  0  0  0  0  0  0
   -0.2333   -1.5792    0.0000 C   0  0  0  0  0  0  0  0  0  0  0  0
    0.3792   -0.7875    0.0000 C   0  0  0  0  0  0  0  0  0  0  0  0
    0.1417   -2.5042    0.0000 N   0  0  3  0  0  0  0  0  0  0  0  0
    1.6042    0.7917    0.0000 C   0  0  0  0  0  0  0  0  0  0  0  0
    1.3708   -0.9250    0.0000 C   0  0  0  0  0  0  0  0  0  0  0  0
    1.8417    2.5083    0.0000 C   0  0  0  0  0  0  0  0  0  0  0  0
    1.0000    4.4167    0.0000 N   0  0  0  0  0  0  0  0  0  0  0  0
    1.9833   -0.1333    0.0000 N   0  0  0  0  0  0  0  0  0  0  0  0
    0.0000    0.1375    0.0000 C   0  0  0  0  0  0  0  0  0  0  0  0
    1.1333   -2.6417    0.0000 C   0  0  0  0  0  0  0  0  0  0  0  0
    0.3542    5.1792    0.0000 N   0  0  0  0  0  0  0  0  0  0  0  0
    2.2167    1.5833    0.0000 C   0  0  0  0  0  0  0  0  0  0  0  0
    1.7458   -1.8500    0.0000 C   0  0  0  0  0  0  0  0  0  0  0  0
   -0.5708    4.8042    0.0000 C   0  0  0  0  0  0  0  0  0  0  0  0
   -0.7542    1.9917    0.0000 O   0  0  0  0  0  0  0  0  0  0  0  0
   -1.2250   -1.4417    0.0000 O   0  0  0  0  0  0  0  0  0  0  0  0
   -0.4708   -3.2917    0.0000 C   0  0  3  0  0  0  0  0  0  0  0  0
   -1.4208    5.3292    0.0000 C   0  0  0  0  0  0  0  0  0  0  0  0
   -0.0250   -4.1875    0.0000 C   0  0  0  0  0  0  0  0  0  0  0  0
   -1.4500   -3.0833    0.0000 C   0  0  0  0  0  0  0  0  0  0  0  0
   -0.4500   -5.0958    0.0000 C   0  0  0  0  0  0  0  0  0  0  0  0
   -2.2208   -3.7167    0.0000 C   0  0  0  0  0  0  0  0  0  0  0  0
   -1.4208   -5.3292    0.0000 C   0  0  0  0  0  0  0  0  0  0  0  0
   -2.2083   -4.7167    0.0000 C   0  0  0  0  0  0  0  0  0  0  0  0
  1  2  1  0  0  0  0
  1  3  1  0  0  0  0
  2  4  2  0  0  0  0
  3  5  1  0  0  0  0
  6  7  1  0  0  0  0
  7 14  2  0  0  0  0
  6  8  1  0  0  0  0
  9 17  1  0  0  0  0
 10 13  2  0  0  0  0
  1 11  1  0  0  0  0
  2 12  1  0  0  0  0
  9 13  1  0  0  0  0
  5 14  1  0  0  0  0
 15 18  2  0  0  0  0
 12 16  1  0  0  0  0
 11 17  2  0  0  0  0
 10 18  1  0  0  0  0
  4 19  1  0  0  0  0
  3 20  2  0  0  0  0
  6 21  2  0  0  0  0
  8 22  1  0  0  0  0
 19 23  1  0  0  0  0
 22 24  1  0  0  0  0
 22 25  1  0  0  0  0
 24 26  1  0  0  0  0
 25 27  1  0  0  0  0
 26 28  1  0  0  0  0
 27 29  1  0  0  0  0
  5  9  2  0  0  0  0
 16 19  2  0  0  0  0
  7 10  1  0  0  0  0
  8 15  1  0  0  0  0
 28 29  1  0  0  0  0
M  END
> <MOLFORMULA>
C21 H22 N6 O2

> <MOLWEIGHT>
3.904448000000000e+002

> <IDNUMBER>
AN-153/NB21238

> <PRICE>
EUR 130/10 mg

$$$$

  -OEChem-04102411172D

 23 25  0     0  0  0  0  0  0999 V2000
    0.0542   -0.2083    0.0000 C   0  0  0  0  0  0  0  0  0  0  0  0
    0.4292    0.7167    0.0000 C   0  0  0  0  0  0  0  0  0  0  0  0
    0.6708   -0.9958    0.0000 N   0  0  3  0  0  0  0  0  0  0  0  0
    0.1833    2.4333    0.0000 C   0  0  0  0  0  0  0  0  0  0  0  0
    1.4167    0.8583    0.0000 C   0  0  0  0  0  0  0  0  0  0  0  0
    1.7917    1.7833    0.0000 N   0  0  0  0  0  0  0  0  0  0  0  0
    1.6583   -0.8583    0.0000 C   0  0  0  0  0  0  0  0  0  0  0  0
   -0.1875    1.5042    0.0000 C   0  0  0  0  0  0  0  0  0  0  0  0
    2.0333    0.0708    0.0000 C   0  0  0  0  0  0  0  0  0  0  0  0
    1.1750    2.5708    0.0000 C   0  0  0  0  0  0  0  0  0  0  0  0
   -0.4333    3.2208    0.0000 C   0  0  0  0  0  0  0  0  0  0  0  0
   -0.9375   -0.3500    0.0000 O   0  0  0  0  0  0  0  0  0  0  0  0
    0.2958   -1.9250    0.0000 C   0  0  3  0  0  0  0  0  0  0  0  0
   -0.0583    4.1417    0.0000 O   0  0  0  0  0  0  0  0  0  0  0  0
   -1.4208    3.0792    0.0000 O   0  0  0  0  0  0  0  0  0  0  0  0
    1.5500    3.5000    0.0000 C   0  0  0  0  0  0  0  0  0  0  0  0
   -0.7000   -1.9917    0.0000 C   0  0  0  0  0  0  0  0  0  0  0  0
    0.9708   -2.6625    0.0000 C   0  0  0  0  0  0  0  0  0  0  0  0
   -2.0375    3.8667    0.0000 C   0  0  0  0  0  0  0  0  0  0  0  0
    0.8125   -3.6500    0.0000 C   0  0  0  0  0  0  0  0  0  0  0  0
   -1.2708   -2.8125    0.0000 C   0  0  0  0  0  0  0  0  0  0  0  0
   -0.0583   -4.1417    0.0000 C   0  0  0  0  0  0  0  0  0  0  0  0
   -0.9875   -3.7708    0.0000 C   0  0  0  0  0  0  0  0  0  0  0  0
  1  2  1  0  0  0  0
  1  3  1  0  0  0  0
  4  8  1  0  0  0  0
  2  5  1  0  0  0  0
  5  6  2  0  0  0  0
  3  7  1  0  0  0  0
  2  8  2  0  0  0  0
  7  9  2  0  0  0  0
  4 10  2  0  0  0  0
  4 11  1  0  0  0  0
  1 12  2  0  0  0  0
  3 13  1  0  0  0  0
 11 14  2  0  0  0  0
 11 15  1  0  0  0  0
 10 16  1  0  0  0  0
 13 17  1  0  0  0  0
 13 18  1  0  0  0  0
 15 19  1  0  0  0  0
 18 20  1  0  0  0  0
 17 21  1  0  0  0  0
 20 22  1  0  0  0  0
 21 23  1  0  0  0  0
  5  9  1  0  0  0  0
  6 10  1  0  0  0  0
 22 23  1  0  0  0  0
M  END
> <MOLFORMULA>
C18 H22 N2 O3

> <MOLWEIGHT>
3.143828000000000e+002

> <IDNUMBER>
AN-153/NB21061

> <PRICE>
EUR 130/10 mg

$$$$

  -OEChem-04102411172D

 25 27  0     0  0  0  0  0  0999 V2000
    0.0000   -1.0000    0.0000 N   0  0  3  0  0  0  0  0  0  0  0  0
   -0.6958   -1.7208    0.0000 C   0  0  0  0  0  0  0  0  0  0  0  0
    0.1333    1.6417    0.0000 C   0  0  0  0  0  0  0  0  0  0  0  0
    0.4125    0.6833    0.0000 C   0  0  3  0  0  0  0  0  0  0  0  0
   -0.2792   -0.0417    0.0000 C   0  0  0  0  0  0  0  0  0  0  0  0
    0.8250    2.3625    0.0000 N   0  0  0  0  0  0  0  0  0  0  0  0
   -0.4167   -2.6833    0.0000 C   0  0  0  0  0  0  0  0  0  0  0  0
   -1.6667   -1.4833    0.0000 O   0  0  0  0  0  0  0  0  0  0  0  0
   -0.8375    1.8833    0.0000 O   0  0  0  0  0  0  0  0  0  0  0  0
    0.5542   -2.9208    0.0000 C   0  0  0  0  0  0  0  0  0  0  0  0
   -1.1083   -3.4042    0.0000 C   0  0  0  0  0  0  0  0  0  0  0  0
    0.9667   -1.2375    0.0000 C   0  0  0  0  0  0  0  0  0  0  0  0
    0.1417   -4.6042    0.0000 C   0  0  0  0  0  0  0  0  0  0  0  0
    0.5500    3.3250    0.0000 C   0  0  3  0  0  0  0  0  0  0  0  0
    0.8333   -3.8833    0.0000 C   0  0  0  0  0  0  0  0  0  0  0  0
   -0.8292   -4.3625    0.0000 C   0  0  0  0  0  0  0  0  0  0  0  0
    0.4167   -5.5625    0.0000 F   0  0  0  0  0  0  0  0  0  0  0  0
    1.3833    0.4417    0.0000 C   0  0  0  0  0  0  0  0  0  0  0  0
    1.6625   -0.5167    0.0000 C   0  0  0  0  0  0  0  0  0  0  0  0
   -0.4375    3.4917    0.0000 C   0  0  0  0  0  0  0  0  0  0  0  0
    1.2917    3.9917    0.0000 C   0  0  0  0  0  0  0  0  0  0  0  0
    1.2333    4.9875    0.0000 C   0  0  0  0  0  0  0  0  0  0  0  0
   -0.9250    4.3583    0.0000 C   0  0  0  0  0  0  0  0  0  0  0  0
   -0.5417    5.2833    0.0000 C   0  0  0  0  0  0  0  0  0  0  0  0
    0.4167    5.5625    0.0000 C   0  0  0  0  0  0  0  0  0  0  0  0
  1  2  1  0  0  0  0
  3  4  1  0  0  0  0
  4  5  1  0  0  0  0
  1  5  1  0  0  0  0
  3  6  1  0  0  0  0
  2  7  1  0  0  0  0
  2  8  2  0  0  0  0
  3  9  2  0  0  0  0
  7 10  1  0  0  0  0
  7 11  2  0  0  0  0
  1 12  1  0  0  0  0
 13 16  2  0  0  0  0
  6 14  1  0  0  0  0
 10 15  2  0  0  0  0
 11 16  1  0  0  0  0
 13 17  1  0  0  0  0
 18 19  1  0  0  0  0
 12 19  1  0  0  0  0
 14 20  1  0  0  0  0
 14 21  1  0  0  0  0
 21 22  1  0  0  0  0
 20 23  1  0  0  0  0
 23 24  1  0  0  0  0
 22 25  1  0  0  0  0
  4 18  1  0  0  0  0
 13 15  1  0  0  0  0
 24 25  1  0  0  0  0
M  END
> <MOLFORMULA>
C20 H27 F N2 O2

> <MOLWEIGHT>
3.464433000000000e+002

> <IDNUMBER>
AN-153/NB21890

> <PRICE>
EUR 130/10 mg

$$$$

  -OEChem-04102411172D

 23 24  0     0  0  0  0  0  0999 V2000
    0.6833   -2.6542    0.0000 C   0  0  0  0  0  0  0  0  0  0  0  0
    0.3792   -1.7000    0.0000 N   0  0  3  0  0  0  0  0  0  0  0  0
   -0.5333    1.1583    0.0000 C   0  0  0  0  0  0  0  0  0  0  0  0
    0.1375    1.8958    0.0000 N   0  0  0  0  0  0  0  0  0  0  0  0
    0.0125   -3.3917    0.0000 N   0  0  3  0  0  0  0  0  0  0  0  0
    1.6625   -2.8667    0.0000 O   0  0  0  0  0  0  0  0  0  0  0  0
   -0.2292    0.2042    0.0000 C   0  0  3  0  0  0  0  0  0  0  0  0
   -0.5958   -1.4875    0.0000 C   0  0  0  0  0  0  0  0  0  0  0  0
    1.0542   -0.9583    0.0000 C   0  0  0  0  0  0  0  0  0  0  0  0
   -1.5125    1.3708    0.0000 O   0  0  0  0  0  0  0  0  0  0  0  0
    0.7458   -0.0083    0.0000 C   0  0  0  0  0  0  0  0  0  0  0  0
   -0.9042   -0.5333    0.0000 C   0  0  0  0  0  0  0  0  0  0  0  0
   -0.1667    2.8500    0.0000 C   0  0  3  0  0  0  0  0  0  0  0  0
   -0.9667   -3.1792    0.0000 C   0  0  0  0  0  0  0  0  0  0  0  0
    0.3167   -4.3458    0.0000 C   0  0  0  0  0  0  0  0  0  0  0  0
    0.5583    3.5375    0.0000 C   0  0  0  0  0  0  0  0  0  0  0  0
   -1.1583    2.9875    0.0000 C   0  0  0  0  0  0  0  0  0  0  0  0
   -0.3583   -5.0833    0.0000 C   0  0  0  0  0  0  0  0  0  0  0  0
   -1.6375   -3.9208    0.0000 C   0  0  0  0  0  0  0  0  0  0  0  0
   -1.6667    3.8500    0.0000 C   0  0  0  0  0  0  0  0  0  0  0  0
    0.4750    4.5292    0.0000 C   0  0  0  0  0  0  0  0  0  0  0  0
   -1.3083    4.7792    0.0000 C   0  0  0  0  0  0  0  0  0  0  0  0
   -0.3583    5.0833    0.0000 C   0  0  0  0  0  0  0  0  0  0  0  0
  1  2  1  0  0  0  0
  3  7  1  0  0  0  0
  3  4  1  0  0  0  0
  1  5  1  0  0  0  0
  1  6  2  0  0  0  0
  7 11  1  0  0  0  0
  2  8  1  0  0  0  0
  2  9  1  0  0  0  0
  3 10  2  0  0  0  0
  9 11  1  0  0  0  0
  8 12  1  0  0  0  0
  4 13  1  0  0  0  0
  5 14  1  0  0  0  0
  5 15  1  0  0  0  0
 13 16  1  0  0  0  0
 13 17  1  0  0  0  0
 15 18  1  0  0  0  0
 14 19  1  0  0  0  0
 17 20  1  0  0  0  0
 16 21  1  0  0  0  0
 20 22  1  0  0  0  0
 21 23  1  0  0  0  0
  7 12  1  0  0  0  0
 22 23  1  0  0  0  0
M  END
> <MOLFORMULA>
C18 H33 N3 O2

> <MOLWEIGHT>
3.234777000000000e+002

> <IDNUMBER>
AN-153/NB22005

> <PRICE>
EUR 130/10 mg

$$$$

  -OEChem-04102411172D

 30 34  0     0  0  0  0  0  0999 V2000
    0.8417    2.1500    0.0000 N   0  0  3  0  0  0  0  0  0  0  0  0
    0.4583    3.0750    0.0000 C   0  0  0  0  0  0  0  0  0  0  0  0
    0.2292    1.3583    0.0000 C   0  0  0  0  0  0  0  0  0  0  0  0
   -0.5125    3.3125    0.0000 N   0  0  0  0  0  0  0  0  0  0  0  0
    0.6083    0.4333    0.0000 C   0  0  0  0  0  0  0  0  0  0  0  0
   -0.2333   -2.0750    0.0000 C   0  0  0  0  0  0  0  0  0  0  0  0
    0.3792   -1.2833    0.0000 C   0  0  0  0  0  0  0  0  0  0  0  0
    0.1458   -3.0000    0.0000 N   0  0  3  0  0  0  0  0  0  0  0  0
    1.6000    0.3000    0.0000 C   0  0  0  0  0  0  0  0  0  0  0  0
    1.3708   -1.4167    0.0000 C   0  0  0  0  0  0  0  0  0  0  0  0
    1.8292    2.0167    0.0000 C   0  0  0  0  0  0  0  0  0  0  0  0
    0.9875    3.9250    0.0000 N   0  0  0  0  0  0  0  0  0  0  0  0
    1.9792   -0.6250    0.0000 N   0  0  0  0  0  0  0  0  0  0  0  0
   -0.0042   -0.3583    0.0000 C   0  0  0  0  0  0  0  0  0  0  0  0
    1.1375   -3.1333    0.0000 C   0  0  0  0  0  0  0  0  0  0  0  0
    0.3375    4.6833    0.0000 N   0  0  0  0  0  0  0  0  0  0  0  0
    2.2125    1.0917    0.0000 C   0  0  0  0  0  0  0  0  0  0  0  0
    1.7500   -2.3417    0.0000 C   0  0  0  0  0  0  0  0  0  0  0  0
   -0.5875    4.3042    0.0000 C   0  0  0  0  0  0  0  0  0  0  0  0
   -0.7625    1.4917    0.0000 O   0  0  0  0  0  0  0  0  0  0  0  0
   -1.2250   -1.9417    0.0000 O   0  0  0  0  0  0  0  0  0  0  0  0
   -0.4667   -3.7917    0.0000 C   0  0  3  0  0  0  0  0  0  0  0  0
   -1.4375    4.8292    0.0000 C   0  0  0  0  0  0  0  0  0  0  0  0
   -1.4417   -3.5833    0.0000 C   0  0  0  0  0  0  0  0  0  0  0  0
   -0.0167   -4.6833    0.0000 C   0  0  0  0  0  0  0  0  0  0  0  0
   -1.4083    5.8292    0.0000 C   0  0  0  0  0  0  0  0  0  0  0  0
   -2.2167   -4.2208    0.0000 C   0  0  0  0  0  0  0  0  0  0  0  0
   -0.4375   -5.5917    0.0000 C   0  0  0  0  0  0  0  0  0  0  0  0
   -2.2000   -5.2167    0.0000 C   0  0  0  0  0  0  0  0  0  0  0  0
   -1.4083   -5.8292    0.0000 C   0  0  0  0  0  0  0  0  0  0  0  0
  1  2  1  0  0  0  0
  1  3  1  0  0  0  0
  2  4  2  0  0  0  0
  3  5  1  0  0  0  0
  6  7  1  0  0  0  0
  7 14  2  0  0  0  0
  6  8  1  0  0  0  0
  9 17  1  0  0  0  0
 10 13  2  0  0  0  0
  1 11  1  0  0  0  0
  2 12  1  0  0  0  0
  9 13  1  0  0  0  0
  5 14  1  0  0  0  0
 15 18  2  0  0  0  0
 12 16  1  0  0  0  0
 11 17  2  0  0  0  0
 10 18  1  0  0  0  0
  4 19  1  0  0  0  0
  3 20  2  0  0  0  0
  6 21  2  0  0  0  0
  8 22  1  0  0  0  0
 19 23  1  0  0  0  0
 22 24  1  0  0  0  0
 22 25  1  0  0  0  0
 23 26  1  0  0  0  0
 24 27  1  0  0  0  0
 25 28  1  0  0  0  0
 27 29  1  0  0  0  0
 28 30  1  0  0  0  0
  5  9  2  0  0  0  0
 16 19  2  0  0  0  0
  7 10  1  0  0  0  0
  8 15  1  0  0  0  0
 29 30  1  0  0  0  0
M  END
> <MOLFORMULA>
C22 H24 N6 O2

> <MOLWEIGHT>
4.044716000000000e+002

> <IDNUMBER>
AN-153/NB23108

> <PRICE>
EUR 130/10 mg

$$$$

  -OEChem-04102411172D

 22 23  0     0  0  0  0  0  0999 V2000
   -0.0042   -1.9667    0.0000 N   0  0  3  0  0  0  0  0  0  0  0  0
   -0.6500   -2.7292    0.0000 C   0  0  0  0  0  0  0  0  0  0  0  0
   -0.0250    0.6792    0.0000 C   0  0  0  0  0  0  0  0  0  0  0  0
    0.3083   -0.2625    0.0000 C   0  0  3  0  0  0  0  0  0  0  0  0
   -0.3375   -1.0250    0.0000 C   0  0  0  0  0  0  0  0  0  0  0  0
    0.6208    1.4417    0.0000 N   0  0  0  0  0  0  0  0  0  0  0  0
   -0.3125   -3.6708    0.0000 C   0  0  3  0  0  0  0  0  0  0  0  0
   -1.6333   -2.5458    0.0000 O   0  0  0  0  0  0  0  0  0  0  0  0
   -1.0083    0.8583    0.0000 O   0  0  0  0  0  0  0  0  0  0  0  0
    0.9833   -2.1458    0.0000 C   0  0  0  0  0  0  0  0  0  0  0  0
    0.2875    2.3833    0.0000 C   0  0  3  0  0  0  0  0  0  0  0  0
    1.2917   -0.4417    0.0000 C   0  0  0  0  0  0  0  0  0  0  0  0
    1.6292   -1.3833    0.0000 C   0  0  0  0  0  0  0  0  0  0  0  0
    0.0208   -4.6125    0.0000 C   0  0  0  0  0  0  0  0  0  0  0  0
   -1.2542   -4.0042    0.0000 C   0  0  0  0  0  0  0  0  0  0  0  0
    0.6292   -3.3333    0.0000 C   0  0  0  0  0  0  0  0  0  0  0  0
    0.9875    3.0958    0.0000 C   0  0  0  0  0  0  0  0  0  0  0  0
   -0.7083    2.4917    0.0000 C   0  0  0  0  0  0  0  0  0  0  0  0
    0.8708    4.0833    0.0000 C   0  0  0  0  0  0  0  0  0  0  0  0
   -1.2458    3.3333    0.0000 C   0  0  0  0  0  0  0  0  0  0  0  0
   -0.9208    4.2750    0.0000 C   0  0  0  0  0  0  0  0  0  0  0  0
    0.0208    4.6125    0.0000 C   0  0  0  0  0  0  0  0  0  0  0  0
  1  2  1  0  0  0  0
  3  4  1  0  0  0  0
  4  5  1  0  0  0  0
  1  5  1  0  0  0  0
  3  6  1  0  0  0  0
  2  7  1  0  0  0  0
  2  8  2  0  0  0  0
  3  9  2  0  0  0  0
  1 10  1  0  0  0  0
  6 11  1  0  0  0  0
 12 13  1  0  0  0  0
 10 13  1  0  0  0  0
  7 14  1  0  0  0  0
  7 15  1  0  0  0  0
  7 16  1  0  0  0  0
 11 17  1  0  0  0  0
 11 18  1  0  0  0  0
 17 19  1  0  0  0  0
 18 20  1  0  0  0  0
 20 21  1  0  0  0  0
 19 22  1  0  0  0  0
  4 12  1  0  0  0  0
 21 22  1  0  0  0  0
M  END
> <MOLFORMULA>
C18 H32 N2 O2

> <MOLWEIGHT>
3.084628000000000e+002

> <IDNUMBER>
AN-153/NB21710

> <PRICE>
EUR 130/10 mg

$$$$

  -OEChem-04102411172D

 21 22  0     0  0  0  0  0  0999 V2000
   -0.8667   -1.6792    0.0000 N   0  0  3  0  0  0  0  0  0  0  0  0
   -0.4458    1.2917    0.0000 C   0  0  0  0  0  0  0  0  0  0  0  0
   -1.0042   -2.6708    0.0000 C   0  0  0  0  0  0  0  0  0  0  0  0
    0.4792    1.6667    0.0000 N   0  0  0  0  0  0  0  0  0  0  0  0
   -0.5875    0.3000    0.0000 C   0  0  3  0  0  0  0  0  0  0  0  0
   -1.6542   -1.0625    0.0000 C   0  0  0  0  0  0  0  0  0  0  0  0
    0.0625   -1.3042    0.0000 C   0  0  0  0  0  0  0  0  0  0  0  0
   -1.2333    1.9083    0.0000 O   0  0  0  0  0  0  0  0  0  0  0  0
   -1.9333   -3.0417    0.0000 O   0  0  0  0  0  0  0  0  0  0  0  0
    0.2000   -0.3125    0.0000 C   0  0  0  0  0  0  0  0  0  0  0  0
   -1.5125   -0.0708    0.0000 C   0  0  0  0  0  0  0  0  0  0  0  0
    0.6208    2.6542    0.0000 C   0  0  3  0  0  0  0  0  0  0  0  0
   -0.2167   -3.2833    0.0000 C   0  0  0  0  0  0  0  0  0  0  0  0
   -0.3583   -4.2750    0.0000 O   0  0  0  0  0  0  0  0  0  0  0  0
    0.4292   -4.8917    0.0000 C   0  0  0  0  0  0  0  0  0  0  0  0
   -0.2125    3.2125    0.0000 C   0  0  0  0  0  0  0  0  0  0  0  0
    1.5708    2.9583    0.0000 C   0  0  0  0  0  0  0  0  0  0  0  0
    1.9292    3.8958    0.0000 C   0  0  0  0  0  0  0  0  0  0  0  0
   -0.2958    4.2042    0.0000 C   0  0  0  0  0  0  0  0  0  0  0  0
    0.4292    4.8917    0.0000 C   0  0  0  0  0  0  0  0  0  0  0  0
    1.4208    4.7500    0.0000 C   0  0  0  0  0  0  0  0  0  0  0  0
  2  5  1  0  0  0  0
  1  3  1  0  0  0  0
  2  4  1  0  0  0  0
  5 10  1  0  0  0  0
  1  6  1  0  0  0  0
  1  7  1  0  0  0  0
  2  8  2  0  0  0  0
  3  9  2  0  0  0  0
  7 10  1  0  0  0  0
  6 11  1  0  0  0  0
  4 12  1  0  0  0  0
  3 13  1  0  0  0  0
 13 14  1  0  0  0  0
 14 15  1  0  0  0  0
 12 16  1  0  0  0  0
 12 17  1  0  0  0  0
 17 18  1  0  0  0  0
 16 19  1  0  0  0  0
 19 20  1  0  0  0  0
 18 21  1  0  0  0  0
  5 11  1  0  0  0  0
 20 21  1  0  0  0  0
M  END
> <MOLFORMULA>
C16 H28 N2 O3

> <MOLWEIGHT>
2.964082000000000e+002

> <IDNUMBER>
AN-153/NB21972

> <PRICE>
EUR 130/10 mg

$$$$

  -OEChem-04102411172D

 24 26  0     0  0  0  0  0  0999 V2000
   -0.4125    1.9542    0.0000 C   0  0  0  0  0  0  0  0  0  0  0  0
   -0.8208    2.8667    0.0000 S   0  0  0  0  0  0  0  0  0  0  0  0
    0.5792    2.0583    0.0000 N   0  0  0  0  0  0  0  0  0  0  0  0
   -0.0792    3.5333    0.0000 C   0  0  0  0  0  0  0  0  0  0  0  0
    0.7875    3.0333    0.0000 N   0  0  0  0  0  0  0  0  0  0  0  0
   -0.9125   -0.6458    0.0000 C   0  0  0  0  0  0  0  0  0  0  0  0
   -0.4125    0.2208    0.0000 C   0  0  3  0  0  0  0  0  0  0  0  0
   -0.9125    1.0875    0.0000 S   0  0  0  0  0  0  0  0  0  0  0  0
   -0.4125   -1.5125    0.0000 N   0  0  0  0  0  0  0  0  0  0  0  0
   -1.9125   -0.6458    0.0000 O   0  0  0  0  0  0  0  0  0  0  0  0
    0.5875    0.2208    0.0000 C   0  0  0  0  0  0  0  0  0  0  0  0
   -0.1833    4.5250    0.0000 N   0  0  0  0  0  0  0  0  0  0  0  0
   -0.9125   -2.3792    0.0000 C   0  0  3  0  0  0  0  0  0  0  0  0
    1.0875    1.0875    0.0000 C   0  0  0  0  0  0  0  0  0  0  0  0
    1.0875   -0.6458    0.0000 C   0  0  0  0  0  0  0  0  0  0  0  0
   -1.9125   -2.3042    0.0000 C   0  0  0  0  0  0  0  0  0  0  0  0
   -0.3500   -3.2042    0.0000 C   0  0  0  0  0  0  0  0  0  0  0  0
    2.0875   -0.6458    0.0000 C   0  0  0  0  0  0  0  0  0  0  0  0
    2.0875    1.0875    0.0000 C   0  0  0  0  0  0  0  0  0  0  0  0
   -2.5917   -3.0375    0.0000 C   0  0  0  0  0  0  0  0  0  0  0  0
   -0.6458   -4.1583    0.0000 C   0  0  0  0  0  0  0  0  0  0  0  0
   -1.5750   -4.5250    0.0000 C   0  0  0  0  0  0  0  0  0  0  0  0
   -2.4417   -4.0250    0.0000 C   0  0  0  0  0  0  0  0  0  0  0  0
    2.5875    0.2208    0.0000 C   0  0  0  0  0  0  0  0  0  0  0  0
  1  2  1  0  0  0  0
  1  3  2  0  0  0  0
  2  4  1  0  0  0  0
  3  5  1  0  0  0  0
  6  7  1  0  0  0  0
  7  8  1  0  0  0  0
  1  8  1  0  0  0  0
  6  9  1  0  0  0  0
  6 10  2  0  0  0  0
  7 11  1  0  0  0  0
  4 12  1  0  0  0  0
  9 13  1  0  0  0  0
 11 14  1  0  0  0  0
 11 15  2  0  0  0  0
 13 16  1  0  0  0  0
 13 17  1  0  0  0  0
 15 18  1  0  0  0  0
 14 19  2  0  0  0  0
 16 20  1  0  0  0  0
 17 21  1  0  0  0  0
 21 22  1  0  0  0  0
 20 23  1  0  0  0  0
 19 24  1  0  0  0  0
  4  5  2  0  0  0  0
 18 24  2  0  0  0  0
 22 23  1  0  0  0  0
M  END
> <MOLFORMULA>
C17 H22 N4 O S2

> <MOLWEIGHT>
3.625198000000000e+002

> <IDNUMBER>
AN-153/NB24305

> <PRICE>
EUR 130/10 mg

$$$$

  -OEChem-04102411172D

 24 26  0     0  0  0  0  0  0999 V2000
    0.8500   -2.3250    0.0000 C   0  0  0  0  0  0  0  0  0  0  0  0
    1.6583   -2.9125    0.0000 N   0  0  3  0  0  0  0  0  0  0  0  0
    0.0417   -2.9125    0.0000 N   0  0  0  0  0  0  0  0  0  0  0  0
    0.3500   -3.8625    0.0000 N   0  0  0  0  0  0  0  0  0  0  0  0
    1.3500   -3.8625    0.0000 N   0  0  0  0  0  0  0  0  0  0  0  0
    0.8500   -1.3250    0.0000 S   0  0  0  0  0  0  0  0  0  0  0  0
   -0.0167    0.1750    0.0000 C   0  0  0  0  0  0  0  0  0  0  0  0
   -0.0167   -0.8250    0.0000 C   0  0  3  0  0  0  0  0  0  0  0  0
   -0.8833    0.6750    0.0000 N   0  0  0  0  0  0  0  0  0  0  0  0
    0.8500    0.6750    0.0000 O   0  0  0  0  0  0  0  0  0  0  0  0
   -0.8833   -1.3250    0.0000 C   0  0  0  0  0  0  0  0  0  0  0  0
    2.6083   -2.6042    0.0000 C   0  0  0  0  0  0  0  0  0  0  0  0
   -0.8833    1.6750    0.0000 C   0  0  3  0  0  0  0  0  0  0  0  0
   -0.8833   -2.3250    0.0000 C   0  0  0  0  0  0  0  0  0  0  0  0
   -1.7500   -0.8250    0.0000 C   0  0  0  0  0  0  0  0  0  0  0  0
   -1.7833    2.1083    0.0000 C   0  0  0  0  0  0  0  0  0  0  0  0
    0.0208    2.1083    0.0000 C   0  0  0  0  0  0  0  0  0  0  0  0
   -2.6125   -1.3250    0.0000 C   0  0  0  0  0  0  0  0  0  0  0  0
   -1.7500   -2.8250    0.0000 C   0  0  0  0  0  0  0  0  0  0  0  0
    0.2417    3.0833    0.0000 C   0  0  0  0  0  0  0  0  0  0  0  0
   -2.0042    3.0833    0.0000 C   0  0  0  0  0  0  0  0  0  0  0  0
   -1.3833    3.8667    0.0000 C   0  0  0  0  0  0  0  0  0  0  0  0
   -0.3833    3.8667    0.0000 C   0  0  0  0  0  0  0  0  0  0  0  0
   -2.6125   -2.3250    0.0000 C   0  0  0  0  0  0  0  0  0  0  0  0
  1  2  1  0  0  0  0
  1  3  2  0  0  0  0
  3  4  1  0  0  0  0
  2  5  1  0  0  0  0
  1  6  1  0  0  0  0
  7  8  1  0  0  0  0
  6  8  1  0  0  0  0
  7  9  1  0  0  0  0
  7 10  2  0  0  0  0
  8 11  1  0  0  0  0
  2 12  1  0  0  0  0
  9 13  1  0  0  0  0
 11 14  2  0  0  0  0
 11 15  1  0  0  0  0
 13 16  1  0  0  0  0
 13 17  1  0  0  0  0
 15 18  2  0  0  0  0
 14 19  1  0  0  0  0
 17 20  1  0  0  0  0
 16 21  1  0  0  0  0
 21 22  1  0  0  0  0
 20 23  1  0  0  0  0
 19 24  2  0  0  0  0
  4  5  2  0  0  0  0
 18 24  1  0  0  0  0
 22 23  1  0  0  0  0
M  END
> <MOLFORMULA>
C17 H23 N5 O S

> <MOLWEIGHT>
3.454687000000000e+002

> <IDNUMBER>
AN-153/NB24309

> <PRICE>
EUR 130/10 mg

$$$$

  -OEChem-04102411172D

 29 32  0     0  0  0  0  0  0999 V2000
    0.1667    2.1000    0.0000 C   0  0  0  0  0  0  0  0  0  0  0  0
   -0.2375    3.0125    0.0000 N   0  0  3  0  0  0  0  0  0  0  0  0
    1.1625    2.2042    0.0000 N   0  0  0  0  0  0  0  0  0  0  0  0
    1.3708    3.1833    0.0000 N   0  0  0  0  0  0  0  0  0  0  0  0
    0.5042    3.6833    0.0000 N   0  0  0  0  0  0  0  0  0  0  0  0
   -0.3333    1.2333    0.0000 S   0  0  0  0  0  0  0  0  0  0  0  0
   -0.3333   -0.4958    0.0000 C   0  0  0  0  0  0  0  0  0  0  0  0
    0.1667    0.3667    0.0000 C   0  0  3  0  0  0  0  0  0  0  0  0
    0.1667   -1.3625    0.0000 N   0  0  0  0  0  0  0  0  0  0  0  0
   -1.2167    3.2208    0.0000 C   0  0  0  0  0  0  0  0  0  0  0  0
   -1.3333   -0.4958    0.0000 O   0  0  0  0  0  0  0  0  0  0  0  0
    1.1667    0.3667    0.0000 C   0  0  0  0  0  0  0  0  0  0  0  0
   -0.3333   -2.2292    0.0000 C   0  0  3  0  0  0  0  0  0  0  0  0
   -1.5250    4.1708    0.0000 C   0  0  0  0  0  0  0  0  0  0  0  0
   -1.8875    2.4792    0.0000 C   0  0  0  0  0  0  0  0  0  0  0  0
    1.6667    1.2333    0.0000 C   0  0  0  0  0  0  0  0  0  0  0  0
    1.6667   -0.4958    0.0000 C   0  0  0  0  0  0  0  0  0  0  0  0
   -1.3292   -2.1542    0.0000 C   0  0  0  0  0  0  0  0  0  0  0  0
    0.2333   -3.0542    0.0000 C   0  0  0  0  0  0  0  0  0  0  0  0
   -2.5042    4.3750    0.0000 C   0  0  0  0  0  0  0  0  0  0  0  0
    2.6667   -0.5000    0.0000 C   0  0  0  0  0  0  0  0  0  0  0  0
    2.6667    1.2333    0.0000 C   0  0  0  0  0  0  0  0  0  0  0  0
   -2.8625    2.6875    0.0000 C   0  0  0  0  0  0  0  0  0  0  0  0
   -0.0625   -4.0125    0.0000 C   0  0  0  0  0  0  0  0  0  0  0  0
   -2.0083   -2.8875    0.0000 C   0  0  0  0  0  0  0  0  0  0  0  0
   -1.8583   -3.8750    0.0000 C   0  0  0  0  0  0  0  0  0  0  0  0
   -0.9958   -4.3750    0.0000 C   0  0  0  0  0  0  0  0  0  0  0  0
   -3.1708    3.6375    0.0000 C   0  0  0  0  0  0  0  0  0  0  0  0
    3.1667    0.3667    0.0000 C   0  0  0  0  0  0  0  0  0  0  0  0
  1  2  1  0  0  0  0
  1  3  2  0  0  0  0
  3  4  1  0  0  0  0
  2  5  1  0  0  0  0
  1  6  1  0  0  0  0
  7  8  1  0  0  0  0
  6  8  1  0  0  0  0
  7  9  1  0  0  0  0
  2 10  1  0  0  0  0
  7 11  2  0  0  0  0
  8 12  1  0  0  0  0
  9 13  1  0  0  0  0
 10 14  1  0  0  0  0
 10 15  2  0  0  0  0
 12 16  2  0  0  0  0
 12 17  1  0  0  0  0
 13 18  1  0  0  0  0
 13 19  1  0  0  0  0
 14 20  2  0  0  0  0
 17 21  2  0  0  0  0
 16 22  1  0  0  0  0
 15 23  1  0  0  0  0
 19 24  1  0  0  0  0
 18 25  1  0  0  0  0
 25 26  1  0  0  0  0
 24 27  1  0  0  0  0
 20 28  1  0  0  0  0
 22 29  2  0  0  0  0
  4  5  2  0  0  0  0
 23 28  2  0  0  0  0
 21 29  1  0  0  0  0
 26 27  1  0  0  0  0
M  END
> <MOLFORMULA>
C22 H25 N5 O S

> <MOLWEIGHT>
4.075395000000000e+002

> <IDNUMBER>
AN-153/NB24310

> <PRICE>
EUR 130/10 mg

$$$$

  -OEChem-04102411172D

 24 26  0     0  0  0  0  0  0999 V2000
    1.3250   -1.9208    0.0000 C   0  0  0  0  0  0  0  0  0  0  0  0
    0.5167   -2.5083    0.0000 S   0  0  0  0  0  0  0  0  0  0  0  0
    2.1333   -2.5083    0.0000 N   0  0  0  0  0  0  0  0  0  0  0  0
    0.4583    0.5792    0.0000 C   0  0  0  0  0  0  0  0  0  0  0  0
    1.8250   -3.4583    0.0000 N   0  0  0  0  0  0  0  0  0  0  0  0
    0.8250   -3.4583    0.0000 C   0  0  0  0  0  0  0  0  0  0  0  0
    0.4583   -0.4208    0.0000 C   0  0  3  0  0  0  0  0  0  0  0  0
    1.3250   -0.9208    0.0000 S   0  0  0  0  0  0  0  0  0  0  0  0
   -0.4083    1.0792    0.0000 N   0  0  0  0  0  0  0  0  0  0  0  0
    1.3250    1.0792    0.0000 O   0  0  0  0  0  0  0  0  0  0  0  0
   -0.4083   -0.9208    0.0000 C   0  0  0  0  0  0  0  0  0  0  0  0
   -0.4083    2.0792    0.0000 C   0  0  3  0  0  0  0  0  0  0  0  0
    0.2375   -4.2667    0.0000 C   0  0  0  0  0  0  0  0  0  0  0  0
   -1.2708   -0.4208    0.0000 C   0  0  0  0  0  0  0  0  0  0  0  0
   -0.4083   -1.9208    0.0000 C   0  0  0  0  0  0  0  0  0  0  0  0
    0.4958    2.5125    0.0000 C   0  0  0  0  0  0  0  0  0  0  0  0
   -1.3083    2.5125    0.0000 C   0  0  0  0  0  0  0  0  0  0  0  0
   -2.1375   -0.9208    0.0000 C   0  0  0  0  0  0  0  0  0  0  0  0
   -1.2708   -2.4208    0.0000 C   0  0  0  0  0  0  0  0  0  0  0  0
   -1.5292    3.4875    0.0000 C   0  0  0  0  0  0  0  0  0  0  0  0
    0.7167    3.4875    0.0000 C   0  0  0  0  0  0  0  0  0  0  0  0
   -2.1375   -1.9208    0.0000 C   0  0  0  0  0  0  0  0  0  0  0  0
   -0.9083    4.2667    0.0000 C   0  0  0  0  0  0  0  0  0  0  0  0
    0.0917    4.2667    0.0000 C   0  0  0  0  0  0  0  0  0  0  0  0
  1  2  1  0  0  0  0
  1  3  2  0  0  0  0
  4  7  1  0  0  0  0
  3  5  1  0  0  0  0
  2  6  1  0  0  0  0
  7  8  1  0  0  0  0
  1  8  1  0  0  0  0
  4  9  1  0  0  0  0
  4 10  2  0  0  0  0
  7 11  1  0  0  0  0
  9 12  1  0  0  0  0
  6 13  1  0  0  0  0
 11 14  2  0  0  0  0
 11 15  1  0  0  0  0
 12 16  1  0  0  0  0
 12 17  1  0  0  0  0
 14 18  1  0  0  0  0
 15 19  2  0  0  0  0
 17 20  1  0  0  0  0
 16 21  1  0  0  0  0
 19 22  1  0  0  0  0
 20 23  1  0  0  0  0
 21 24  1  0  0  0  0
  5  6  2  0  0  0  0
 18 22  2  0  0  0  0
 23 24  1  0  0  0  0
M  END
> <MOLFORMULA>
C18 H23 N3 O S2

> <MOLWEIGHT>
3.615317000000000e+002

> <IDNUMBER>
AN-153/NB24311

> <PRICE>
EUR 130/10 mg

$$$$

  -OEChem-04102411172D

 25 27  0     0  0  0  0  0  0999 V2000
    0.3042   -2.8417    0.0000 C   0  0  0  0  0  0  0  0  0  0  0  0
   -0.5625   -3.3417    0.0000 C   0  0  0  0  0  0  0  0  0  0  0  0
    0.3042   -1.8417    0.0000 N   0  0  3  0  0  0  0  0  0  0  0  0
    0.3042    1.1583    0.0000 C   0  0  0  0  0  0  0  0  0  0  0  0
    1.1667    1.6583    0.0000 N   0  0  0  0  0  0  0  0  0  0  0  0
   -1.4292   -2.8417    0.0000 C   0  0  0  0  0  0  0  0  0  0  0  0
    1.1667   -3.3417    0.0000 O   0  0  0  0  0  0  0  0  0  0  0  0
    0.3042    0.1583    0.0000 C   0  0  3  0  0  0  0  0  0  0  0  0
    1.1667   -1.3417    0.0000 C   0  0  0  0  0  0  0  0  0  0  0  0
   -0.5625   -1.3417    0.0000 C   0  0  0  0  0  0  0  0  0  0  0  0
   -0.5625    1.6583    0.0000 O   0  0  0  0  0  0  0  0  0  0  0  0
   -0.5625   -0.3417    0.0000 C   0  0  0  0  0  0  0  0  0  0  0  0
    1.1667   -0.3417    0.0000 C   0  0  0  0  0  0  0  0  0  0  0  0
   -1.4292   -1.8417    0.0000 F   0  0  0  0  0  0  0  0  0  0  0  0
   -0.5625   -4.3417    0.0000 C   0  0  0  0  0  0  0  0  0  0  0  0
    1.1667    2.6583    0.0000 C   0  0  3  0  0  0  0  0  0  0  0  0
   -2.2958   -3.3417    0.0000 C   0  0  0  0  0  0  0  0  0  0  0  0
    0.2667    3.0917    0.0000 C   0  0  0  0  0  0  0  0  0  0  0  0
    2.0708    3.0917    0.0000 C   0  0  0  0  0  0  0  0  0  0  0  0
   -1.4292   -4.8417    0.0000 C   0  0  0  0  0  0  0  0  0  0  0  0
   -2.2958   -4.3417    0.0000 C   0  0  0  0  0  0  0  0  0  0  0  0
    0.0458    4.0625    0.0000 C   0  0  0  0  0  0  0  0  0  0  0  0
    2.2917    4.0625    0.0000 C   0  0  0  0  0  0  0  0  0  0  0  0
    0.6667    4.8417    0.0000 C   0  0  0  0  0  0  0  0  0  0  0  0
    1.6667    4.8417    0.0000 C   0  0  0  0  0  0  0  0  0  0  0  0
  1  2  1  0  0  0  0
  1  3  1  0  0  0  0
  4  8  1  0  0  0  0
  4  5  1  0  0  0  0
  2  6  2  0  0  0  0
  1  7  2  0  0  0  0
  8 13  1  0  0  0  0
  3  9  1  0  0  0  0
  3 10  1  0  0  0  0
  4 11  2  0  0  0  0
 10 12  1  0  0  0  0
  9 13  1  0  0  0  0
  6 14  1  0  0  0  0
  2 15  1  0  0  0  0
  5 16  1  0  0  0  0
  6 17  1  0  0  0  0
 16 18  1  0  0  0  0
 16 19  1  0  0  0  0
 15 20  2  0  0  0  0
 20 21  1  0  0  0  0
 18 22  1  0  0  0  0
 19 23  1  0  0  0  0
 22 24  1  0  0  0  0
 23 25  1  0  0  0  0
  8 12  1  0  0  0  0
 17 21  2  0  0  0  0
 24 25  1  0  0  0  0
M  END
> <MOLFORMULA>
C20 H27 F N2 O2

> <MOLWEIGHT>
3.464433000000000e+002

> <IDNUMBER>
AN-153/NB24605

> <PRICE>
EUR 130/10 mg

$$$$

  -OEChem-04102411172D

 18 19  0     0  0  0  0  0  0999 V2000
   -0.1792    0.1125    0.0000 C   0  0  0  0  0  0  0  0  0  0  0  0
    0.6833    0.6125    0.0000 N   0  0  0  0  0  0  0  0  0  0  0  0
   -1.0500    0.6125    0.0000 C   0  0  3  0  0  0  0  0  0  0  0  0
   -0.1792   -0.8917    0.0000 O   0  0  0  0  0  0  0  0  0  0  0  0
   -1.9125    0.1042    0.0000 C   0  0  0  0  0  0  0  0  0  0  0  0
   -1.0542    1.6083    0.0000 Cl  0  0  0  0  0  0  0  0  0  0  0  0
    1.5542    0.1125    0.0000 C   0  0  3  0  0  0  0  0  0  0  0  0
   -2.7792    0.5958    0.0000 C   0  0  0  0  0  0  0  0  0  0  0  0
   -1.9042   -0.8958    0.0000 C   0  0  0  0  0  0  0  0  0  0  0  0
    1.4042   -0.8792    0.0000 C   0  0  0  0  0  0  0  0  0  0  0  0
    2.4167    0.6167    0.0000 C   0  0  0  0  0  0  0  0  0  0  0  0
   -2.7750   -1.4042    0.0000 C   0  0  0  0  0  0  0  0  0  0  0  0
   -3.6458    0.0958    0.0000 C   0  0  0  0  0  0  0  0  0  0  0  0
    3.3542    0.2458    0.0000 C   0  0  0  0  0  0  0  0  0  0  0  0
    2.0875   -1.6042    0.0000 C   0  0  0  0  0  0  0  0  0  0  0  0
    3.6417   -0.7042    0.0000 C   0  0  0  0  0  0  0  0  0  0  0  0
   -3.6458   -0.9000    0.0000 C   0  0  0  0  0  0  0  0  0  0  0  0
    3.0750   -1.5250    0.0000 C   0  0  0  0  0  0  0  0  0  0  0  0
  1  2  1  0  0  0  0
  1  3  1  0  0  0  0
  1  4  2  0  0  0  0
  3  5  1  0  0  0  0
  3  6  1  0  0  0  0
  2  7  1  0  0  0  0
  5  8  1  0  0  0  0
  5  9  2  0  0  0  0
  7 10  1  0  0  0  0
  7 11  1  0  0  0  0
  9 12  1  0  0  0  0
  8 13  2  0  0  0  0
 11 14  1  0  0  0  0
 10 15  1  0  0  0  0
 14 16  1  0  0  0  0
 12 17  2  0  0  0  0
 15 18  1  0  0  0  0
 13 17  1  0  0  0  0
 16 18  1  0  0  0  0
M  END
> <MOLFORMULA>
C15 H20 Cl N O

> <MOLWEIGHT>
2.657820000000000e+002

> <IDNUMBER>
AN-153/NB25355

> <PRICE>
EUR 130/10 mg

$$$$

  -OEChem-04102411172D

 27 30  0     0  0  0  0  0  0999 V2000
   -1.4792    1.2375    0.0000 C   0  0  0  0  0  0  0  0  0  0  0  0
   -2.0625    2.0500    0.0000 N   0  0  0  0  0  0  0  0  0  0  0  0
   -2.0625    0.4333    0.0000 N   0  0  0  0  0  0  0  0  0  0  0  0
    1.0250    0.3667    0.0000 C   0  0  0  0  0  0  0  0  0  0  0  0
   -0.4792    1.2292    0.0000 S   0  0  0  0  0  0  0  0  0  0  0  0
    0.0208    0.3708    0.0000 C   0  0  3  0  0  0  0  0  0  0  0  0
   -3.0167    1.7375    0.0000 C   0  0  0  0  0  0  0  0  0  0  0  0
   -3.0125    0.7417    0.0000 C   0  0  0  0  0  0  0  0  0  0  0  0
    1.5167   -0.5083    0.0000 N   0  0  0  0  0  0  0  0  0  0  0  0
    1.5292    1.2208    0.0000 O   0  0  0  0  0  0  0  0  0  0  0  0
   -0.4792   -0.5000    0.0000 C   0  0  0  0  0  0  0  0  0  0  0  0
    2.5208   -0.5125    0.0000 C   0  0  3  0  0  0  0  0  0  0  0  0
   -3.8792    2.2417    0.0000 C   0  0  0  0  0  0  0  0  0  0  0  0
   -3.8792    0.2417    0.0000 C   0  0  0  0  0  0  0  0  0  0  0  0
    0.0208   -1.3667    0.0000 C   0  0  0  0  0  0  0  0  0  0  0  0
   -1.4833   -0.5000    0.0000 C   0  0  0  0  0  0  0  0  0  0  0  0
    2.9000    0.4125    0.0000 C   0  0  0  0  0  0  0  0  0  0  0  0
    3.0167   -1.3833    0.0000 C   0  0  0  0  0  0  0  0  0  0  0  0
   -4.7458    0.7375    0.0000 C   0  0  0  0  0  0  0  0  0  0  0  0
   -4.7458    1.7417    0.0000 C   0  0  0  0  0  0  0  0  0  0  0  0
   -1.9833   -1.3625    0.0000 C   0  0  0  0  0  0  0  0  0  0  0  0
   -0.4792   -2.2333    0.0000 C   0  0  0  0  0  0  0  0  0  0  0  0
    4.0042   -1.5417    0.0000 C   0  0  0  0  0  0  0  0  0  0  0  0
    3.8583    0.7000    0.0000 C   0  0  0  0  0  0  0  0  0  0  0  0
    4.7417   -0.8542    0.0000 C   0  0  0  0  0  0  0  0  0  0  0  0
   -1.4875   -2.2375    0.0000 C   0  0  0  0  0  0  0  0  0  0  0  0
    4.6708    0.1292    0.0000 C   0  0  0  0  0  0  0  0  0  0  0  0
  1  2  2  0  0  0  0
  1  3  1  0  0  0  0
  4  6  1  0  0  0  0
  1  5  1  0  0  0  0
  5  6  1  0  0  0  0
  2  7  1  0  0  0  0
  3  8  1  0  0  0  0
  4  9  1  0  0  0  0
  4 10  2  0  0  0  0
  6 11  1  0  0  0  0
  9 12  1  0  0  0  0
  7 13  1  0  0  0  0
  8 14  1  0  0  0  0
 11 15  1  0  0  0  0
 11 16  2  0  0  0  0
 12 17  1  0  0  0  0
 12 18  1  0  0  0  0
 14 19  2  0  0  0  0
 13 20  2  0  0  0  0
 16 21  1  0  0  0  0
 15 22  2  0  0  0  0
 18 23  1  0  0  0  0
 17 24  1  0  0  0  0
 23 25  1  0  0  0  0
 21 26  2  0  0  0  0
 24 27  1  0  0  0  0
  7  8  2  0  0  0  0
 19 20  1  0  0  0  0
 22 26  1  0  0  0  0
 25 27  1  0  0  0  0
M  END
> <MOLFORMULA>
C22 H25 N3 O S

> <MOLWEIGHT>
3.795255000000000e+002

> <IDNUMBER>
AN-153/NB25356

> <PRICE>
EUR 130/10 mg

$$$$

  -OEChem-04102411172D

 28 31  0     0  0  0  0  0  0999 V2000
   -1.0458    1.2375    0.0000 C   0  0  0  0  0  0  0  0  0  0  0  0
   -1.6333    2.0500    0.0000 N   0  0  0  0  0  0  0  0  0  0  0  0
   -1.6292    0.4333    0.0000 N   0  0  0  0  0  0  0  0  0  0  0  0
    1.4583    0.3667    0.0000 C   0  0  0  0  0  0  0  0  0  0  0  0
   -2.5833    1.7417    0.0000 C   0  0  0  0  0  0  0  0  0  0  0  0
   -0.0500    1.2292    0.0000 S   0  0  0  0  0  0  0  0  0  0  0  0
    0.4542    0.3708    0.0000 C   0  0  3  0  0  0  0  0  0  0  0  0
   -2.5792    0.7417    0.0000 C   0  0  0  0  0  0  0  0  0  0  0  0
    1.9500   -0.5083    0.0000 N   0  0  0  0  0  0  0  0  0  0  0  0
    1.9625    1.2208    0.0000 O   0  0  0  0  0  0  0  0  0  0  0  0
   -3.4458    2.2417    0.0000 C   0  0  0  0  0  0  0  0  0  0  0  0
   -0.0458   -0.5000    0.0000 C   0  0  0  0  0  0  0  0  0  0  0  0
   -3.4458    0.2417    0.0000 C   0  0  0  0  0  0  0  0  0  0  0  0
   -4.3125    1.7417    0.0000 C   0  0  0  0  0  0  0  0  0  0  0  0
    2.9542   -0.5125    0.0000 C   0  0  3  0  0  0  0  0  0  0  0  0
   -4.3125    0.7375    0.0000 C   0  0  0  0  0  0  0  0  0  0  0  0
    0.4542   -1.3667    0.0000 C   0  0  0  0  0  0  0  0  0  0  0  0
   -1.0500   -0.5000    0.0000 C   0  0  0  0  0  0  0  0  0  0  0  0
   -5.1792    2.2417    0.0000 C   0  0  0  0  0  0  0  0  0  0  0  0
    3.4500   -1.3833    0.0000 C   0  0  0  0  0  0  0  0  0  0  0  0
    3.3333    0.4125    0.0000 C   0  0  0  0  0  0  0  0  0  0  0  0
   -0.0458   -2.2333    0.0000 C   0  0  0  0  0  0  0  0  0  0  0  0
   -1.5500   -1.3625    0.0000 C   0  0  0  0  0  0  0  0  0  0  0  0
    4.2875    0.7000    0.0000 C   0  0  0  0  0  0  0  0  0  0  0  0
    4.4375   -1.5417    0.0000 C   0  0  0  0  0  0  0  0  0  0  0  0
   -1.0542   -2.2375    0.0000 C   0  0  0  0  0  0  0  0  0  0  0  0
    5.1042    0.1292    0.0000 C   0  0  0  0  0  0  0  0  0  0  0  0
    5.1750   -0.8542    0.0000 C   0  0  0  0  0  0  0  0  0  0  0  0
  1  2  2  0  0  0  0
  1  3  1  0  0  0  0
  4  7  1  0  0  0  0
  2  5  1  0  0  0  0
  1  6  1  0  0  0  0
  6  7  1  0  0  0  0
  3  8  1  0  0  0  0
  4  9  1  0  0  0  0
  4 10  2  0  0  0  0
  5 11  1  0  0  0  0
  7 12  1  0  0  0  0
  8 13  1  0  0  0  0
 11 14  2  0  0  0  0
  9 15  1  0  0  0  0
 13 16  2  0  0  0  0
 12 17  1  0  0  0  0
 12 18  2  0  0  0  0
 14 19  1  0  0  0  0
 15 20  1  0  0  0  0
 15 21  1  0  0  0  0
 17 22  2  0  0  0  0
 18 23  1  0  0  0  0
 21 24  1  0  0  0  0
 20 25  1  0  0  0  0
 23 26  2  0  0  0  0
 24 27  1  0  0  0  0
 25 28  1  0  0  0  0
  5  8  2  0  0  0  0
 14 16  1  0  0  0  0
 22 26  1  0  0  0  0
 27 28  1  0  0  0  0
M  END
> <MOLFORMULA>
C23 H27 N3 O S

> <MOLWEIGHT>
3.935523000000000e+002

> <IDNUMBER>
AN-153/NB25357

> <PRICE>
EUR 130/10 mg

$$$$

  -OEChem-04102411172D

 29 32  0     0  0  0  0  0  0999 V2000
   -1.0500    0.7375    0.0000 C   0  0  0  0  0  0  0  0  0  0  0  0
   -1.6375    1.5458    0.0000 N   0  0  0  0  0  0  0  0  0  0  0  0
   -1.6333   -0.0708    0.0000 N   0  0  0  0  0  0  0  0  0  0  0  0
    1.4542   -0.1333    0.0000 C   0  0  0  0  0  0  0  0  0  0  0  0
   -2.5875    1.2375    0.0000 C   0  0  0  0  0  0  0  0  0  0  0  0
   -0.0542    0.7292    0.0000 S   0  0  0  0  0  0  0  0  0  0  0  0
    0.4500   -0.1333    0.0000 C   0  0  3  0  0  0  0  0  0  0  0  0
   -2.5833    0.2417    0.0000 C   0  0  0  0  0  0  0  0  0  0  0  0
    1.9542   -1.0000    0.0000 N   0  0  0  0  0  0  0  0  0  0  0  0
   -3.4500    1.7417    0.0000 C   0  0  0  0  0  0  0  0  0  0  0  0
    1.9500    0.7292    0.0000 O   0  0  0  0  0  0  0  0  0  0  0  0
   -0.0500   -1.0000    0.0000 C   0  0  0  0  0  0  0  0  0  0  0  0
   -3.4500   -0.2583    0.0000 C   0  0  0  0  0  0  0  0  0  0  0  0
   -4.3167    1.2417    0.0000 C   0  0  0  0  0  0  0  0  0  0  0  0
    2.9583   -1.0000    0.0000 C   0  0  3  0  0  0  0  0  0  0  0  0
   -4.3167    0.2375    0.0000 C   0  0  0  0  0  0  0  0  0  0  0  0
   -5.1833    1.7417    0.0000 O   0  0  0  0  0  0  0  0  0  0  0  0
   -1.0542   -1.0042    0.0000 C   0  0  0  0  0  0  0  0  0  0  0  0
    0.4458   -1.8667    0.0000 C   0  0  0  0  0  0  0  0  0  0  0  0
   -5.1833    2.7417    0.0000 C   0  0  0  0  0  0  0  0  0  0  0  0
    3.3292   -0.0667    0.0000 C   0  0  0  0  0  0  0  0  0  0  0  0
    3.4583   -1.8667    0.0000 C   0  0  0  0  0  0  0  0  0  0  0  0
   -1.5542   -1.8667    0.0000 C   0  0  0  0  0  0  0  0  0  0  0  0
   -0.0500   -2.7375    0.0000 C   0  0  0  0  0  0  0  0  0  0  0  0
    4.4500   -2.0125    0.0000 C   0  0  0  0  0  0  0  0  0  0  0  0
    4.2792    0.2250    0.0000 C   0  0  0  0  0  0  0  0  0  0  0  0
    5.1000   -0.3375    0.0000 C   0  0  0  0  0  0  0  0  0  0  0  0
    5.1792   -1.3250    0.0000 C   0  0  0  0  0  0  0  0  0  0  0  0
   -1.0583   -2.7375    0.0000 C   0  0  0  0  0  0  0  0  0  0  0  0
  1  2  2  0  0  0  0
  1  3  1  0  0  0  0
  4  7  1  0  0  0  0
  2  5  1  0  0  0  0
  1  6  1  0  0  0  0
  6  7  1  0  0  0  0
  3  8  1  0  0  0  0
  4  9  1  0  0  0  0
  5 10  1  0  0  0  0
  4 11  2  0  0  0  0
  7 12  1  0  0  0  0
  8 13  1  0  0  0  0
 10 14  2  0  0  0  0
  9 15  1  0  0  0  0
 13 16  2  0  0  0  0
 14 17  1  0  0  0  0
 12 18  2  0  0  0  0
 12 19  1  0  0  0  0
 17 20  1  0  0  0  0
 15 21  1  0  0  0  0
 15 22  1  0  0  0  0
 18 23  1  0  0  0  0
 19 24  2  0  0  0  0
 22 25  1  0  0  0  0
 21 26  1  0  0  0  0
 26 27  1  0  0  0  0
 25 28  1  0  0  0  0
 24 29  1  0  0  0  0
  5  8  2  0  0  0  0
 14 16  1  0  0  0  0
 23 29  2  0  0  0  0
 27 28  1  0  0  0  0
M  END
> <MOLFORMULA>
C23 H27 N3 O2 S

> <MOLWEIGHT>
4.095513000000000e+002

> <IDNUMBER>
AN-153/NB25358

> <PRICE>
EUR 130/10 mg

$$$$

  -OEChem-04102411172D

 30 33  0     0  0  0  0  0  0999 V2000
   -0.6167    0.4875    0.0000 C   0  0  0  0  0  0  0  0  0  0  0  0
   -1.2042    1.2958    0.0000 N   0  0  0  0  0  0  0  0  0  0  0  0
   -1.2000   -0.3208    0.0000 N   0  0  0  0  0  0  0  0  0  0  0  0
    1.8875   -0.3833    0.0000 C   0  0  0  0  0  0  0  0  0  0  0  0
   -2.1542    0.9875    0.0000 C   0  0  0  0  0  0  0  0  0  0  0  0
    0.3792    0.4792    0.0000 S   0  0  0  0  0  0  0  0  0  0  0  0
    0.8833   -0.3833    0.0000 C   0  0  3  0  0  0  0  0  0  0  0  0
   -2.1500   -0.0083    0.0000 C   0  0  0  0  0  0  0  0  0  0  0  0
    2.3875   -1.2500    0.0000 N   0  0  0  0  0  0  0  0  0  0  0  0
   -3.0167    1.4917    0.0000 C   0  0  0  0  0  0  0  0  0  0  0  0
    2.3833    0.4792    0.0000 O   0  0  0  0  0  0  0  0  0  0  0  0
    0.3833   -1.2500    0.0000 C   0  0  0  0  0  0  0  0  0  0  0  0
   -3.0167   -0.5083    0.0000 C   0  0  0  0  0  0  0  0  0  0  0  0
   -3.8833    0.9917    0.0000 C   0  0  0  0  0  0  0  0  0  0  0  0
    3.3917   -1.2500    0.0000 C   0  0  3  0  0  0  0  0  0  0  0  0
   -3.8833   -0.0125    0.0000 C   0  0  0  0  0  0  0  0  0  0  0  0
   -4.7500    1.4917    0.0000 O   0  0  0  0  0  0  0  0  0  0  0  0
   -0.6208   -1.2500    0.0000 C   0  0  0  0  0  0  0  0  0  0  0  0
    0.8792   -2.1167    0.0000 C   0  0  0  0  0  0  0  0  0  0  0  0
   -4.7500    2.4917    0.0000 C   0  0  0  0  0  0  0  0  0  0  0  0
    3.7625   -0.3167    0.0000 C   0  0  0  0  0  0  0  0  0  0  0  0
    3.8917   -2.1167    0.0000 C   0  0  0  0  0  0  0  0  0  0  0  0
   -5.6167    2.9917    0.0000 C   0  0  0  0  0  0  0  0  0  0  0  0
    0.3833   -2.9875    0.0000 C   0  0  0  0  0  0  0  0  0  0  0  0
   -1.1208   -2.1125    0.0000 C   0  0  0  0  0  0  0  0  0  0  0  0
    4.7125   -0.0250    0.0000 C   0  0  0  0  0  0  0  0  0  0  0  0
    4.8833   -2.2625    0.0000 C   0  0  0  0  0  0  0  0  0  0  0  0
    5.6125   -1.5750    0.0000 C   0  0  0  0  0  0  0  0  0  0  0  0
   -0.6250   -2.9875    0.0000 C   0  0  0  0  0  0  0  0  0  0  0  0
    5.5333   -0.5875    0.0000 C   0  0  0  0  0  0  0  0  0  0  0  0
  1  2  2  0  0  0  0
  1  3  1  0  0  0  0
  4  7  1  0  0  0  0
  2  5  1  0  0  0  0
  1  6  1  0  0  0  0
  6  7  1  0  0  0  0
  3  8  1  0  0  0  0
  4  9  1  0  0  0  0
  5 10  1  0  0  0  0
  4 11  2  0  0  0  0
  7 12  1  0  0  0  0
  8 13  1  0  0  0  0
 10 14  2  0  0  0  0
  9 15  1  0  0  0  0
 13 16  2  0  0  0  0
 14 17  1  0  0  0  0
 12 18  2  0  0  0  0
 12 19  1  0  0  0  0
 17 20  1  0  0  0  0
 15 21  1  0  0  0  0
 15 22  1  0  0  0  0
 20 23  1  0  0  0  0
 19 24  2  0  0  0  0
 18 25  1  0  0  0  0
 21 26  1  0  0  0  0
 22 27  1  0  0  0  0
 27 28  1  0  0  0  0
 24 29  1  0  0  0  0
 26 30  1  0  0  0  0
  5  8  2  0  0  0  0
 14 16  1  0  0  0  0
 25 29  2  0  0  0  0
 28 30  1  0  0  0  0
M  END
> <MOLFORMULA>
C24 H29 N3 O2 S

> <MOLWEIGHT>
4.235781000000000e+002

> <IDNUMBER>
AN-153/NB25359

> <PRICE>
EUR 130/10 mg

$$$$

  -OEChem-04102411172D

 17 18  0     0  0  0  0  0  0999 V2000
    2.6000   -5.9875    0.0000 C   0  0  0  0  0  0  0  0  0  0  0  0
    3.4292   -5.9875    0.0000 N   0  0  0  0  0  0  0  0  0  0  0  0
    2.1875   -6.7042    0.0000 O   0  0  0  0  0  0  0  0  0  0  0  0
    2.1875   -5.2792    0.0000 C   0  0  0  0  0  0  0  0  0  0  0  0
    3.8375   -6.7000    0.0000 C   0  0  3  0  0  0  0  0  0  0  0  0
    1.3667   -5.2792    0.0000 C   0  0  0  0  0  0  0  0  0  0  0  0
    0.9542   -4.5667    0.0000 C   0  0  0  0  0  0  0  0  0  0  0  0
    0.9542   -5.9875    0.0000 C   0  0  0  0  0  0  0  0  0  0  0  0
    3.3292   -7.3875    0.0000 C   0  0  0  0  0  0  0  0  0  0  0  0
    4.5792   -6.6042    0.0000 C   0  0  0  0  0  0  0  0  0  0  0  0
    0.1292   -4.5667    0.0000 C   0  0  0  0  0  0  0  0  0  0  0  0
    0.1292   -5.9875    0.0000 C   0  0  0  0  0  0  0  0  0  0  0  0
    5.1500   -7.2292    0.0000 C   0  0  0  0  0  0  0  0  0  0  0  0
    3.4375   -8.1042    0.0000 C   0  0  0  0  0  0  0  0  0  0  0  0
    4.9667   -8.1042    0.0000 C   0  0  0  0  0  0  0  0  0  0  0  0
   -0.2708   -5.2792    0.0000 C   0  0  0  0  0  0  0  0  0  0  0  0
    4.1792   -8.4875    0.0000 C   0  0  0  0  0  0  0  0  0  0  0  0
  1  2  1  0  0  0  0
  1  3  2  0  0  0  0
  1  4  1  0  0  0  0
  2  5  1  0  0  0  0
  4  6  1  0  0  0  0
  6  7  2  0  0  0  0
  6  8  1  0  0  0  0
  5  9  1  0  0  0  0
  5 10  1  0  0  0  0
  7 11  1  0  0  0  0
  8 12  2  0  0  0  0
 10 13  1  0  0  0  0
  9 14  1  0  0  0  0
 13 15  1  0  0  0  0
 12 16  1  0  0  0  0
 14 17  1  0  0  0  0
 11 16  2  0  0  0  0
 15 17  1  0  0  0  0
M  END
> <MOLFORMULA>
C15 H21 N O

> <MOLWEIGHT>
2.313369000000000e+002

> <IDNUMBER>
AT-225/NB88584

> <PRICE>
EUR 140/10 mg

$$$$

  -OEChem-04102411172D

 26 28  0     0  0  0  0  0  0999 V2000
   -2.8542    2.0208    0.0000 N   0  0  3  0  0  0  0  0  0  0  0  0
   -3.4875    1.6500    0.0000 C   0  0  0  0  0  0  0  0  0  0  0  0
   -2.8542    2.7375    0.0000 C   0  0  0  0  0  0  0  0  0  0  0  0
   -4.1083    2.7375    0.0000 C   0  0  0  0  0  0  0  0  0  0  0  0
   -4.1083    2.0208    0.0000 C   0  0  0  0  0  0  0  0  0  0  0  0
   -3.4875    0.9333    0.0000 O   0  0  0  0  0  0  0  0  0  0  0  0
   -2.2458    3.1083    0.0000 O   0  0  0  0  0  0  0  0  0  0  0  0
    0.9458    2.0208    0.0000 C   0  0  0  0  0  0  0  0  0  0  0  0
    1.5833    1.6542    0.0000 N   0  0  0  0  0  0  0  0  0  0  0  0
    0.9417    2.7583    0.0000 O   0  0  0  0  0  0  0  0  0  0  0  0
   -2.2375    1.6500    0.0000 C   0  0  0  0  0  0  0  0  0  0  0  0
   -4.7375    1.6500    0.0000 C   0  0  0  0  0  0  0  0  0  0  0  0
   -4.7375    3.1042    0.0000 C   0  0  0  0  0  0  0  0  0  0  0  0
    1.5792    0.9500    0.0000 C   0  0  3  0  0  0  0  0  0  0  0  0
    0.3083    1.6500    0.0000 C   0  0  0  0  0  0  0  0  0  0  0  0
   -1.6083    2.0167    0.0000 C   0  0  0  0  0  0  0  0  0  0  0  0
    2.2583    0.6000    0.0000 C   0  0  0  0  0  0  0  0  0  0  0  0
    0.8750    0.6250    0.0000 C   0  0  0  0  0  0  0  0  0  0  0  0
   -0.3333    2.0208    0.0000 C   0  0  0  0  0  0  0  0  0  0  0  0
   -0.9708    1.6458    0.0000 C   0  0  0  0  0  0  0  0  0  0  0  0
   -5.3667    2.0208    0.0000 C   0  0  0  0  0  0  0  0  0  0  0  0
   -5.3667    2.7375    0.0000 C   0  0  0  0  0  0  0  0  0  0  0  0
    2.3792   -0.1208    0.0000 C   0  0  0  0  0  0  0  0  0  0  0  0
    0.7375   -0.0917    0.0000 C   0  0  0  0  0  0  0  0  0  0  0  0
    1.9333   -0.5667    0.0000 C   0  0  0  0  0  0  0  0  0  0  0  0
    1.1875   -0.5625    0.0000 C   0  0  0  0  0  0  0  0  0  0  0  0
  1  2  1  0  0  0  0
  1  3  1  0  0  0  0
  3  4  1  0  0  0  0
  2  5  1  0  0  0  0
  2  6  2  0  0  0  0
  3  7  2  0  0  0  0
  8 15  1  0  0  0  0
  8  9  1  0  0  0  0
  8 10  2  0  0  0  0
  1 11  1  0  0  0  0
  5 12  1  0  0  0  0
  4 13  1  0  0  0  0
  9 14  1  0  0  0  0
 15 19  1  0  0  0  0
 11 16  1  0  0  0  0
 14 17  1  0  0  0  0
 14 18  1  0  0  0  0
 19 20  1  0  0  0  0
 16 20  1  0  0  0  0
 12 21  2  0  0  0  0
 13 22  2  0  0  0  0
 17 23  1  0  0  0  0
 18 24  1  0  0  0  0
 23 25  1  0  0  0  0
 24 26  1  0  0  0  0
  4  5  2  0  0  0  0
 21 22  1  0  0  0  0
 25 26  1  0  0  0  0
M  END
> <MOLFORMULA>
C21 H28 N2 O3

> <MOLWEIGHT>
3.564632000000000e+002

> <IDNUMBER>
AT-225/NB93074

> <PRICE>
EUR 140/10 mg

$$$$

  -OEChem-04102411172D

 26 28  0     0  0  0  0  0  0999 V2000
   -2.0833    1.0958    0.0000 C   0  0  0  0  0  0  0  0  0  0  0  0
   -2.3417    0.1458    0.0000 N   0  0  0  0  0  0  0  0  0  0  0  0
   -2.7917    1.8125    0.0000 N   0  0  0  0  0  0  0  0  0  0  0  0
    0.5500    0.8375    0.0000 C   0  0  0  0  0  0  0  0  0  0  0  0
   -0.4208    0.6042    0.0000 C   0  0  3  0  0  0  0  0  0  0  0  0
   -3.3208   -0.1250    0.0000 C   0  0  0  0  0  0  0  0  0  0  0  0
   -3.7625    1.5542    0.0000 C   0  0  0  0  0  0  0  0  0  0  0  0
   -1.1042    1.3292    0.0000 S   0  0  0  0  0  0  0  0  0  0  0  0
   -4.0208    0.5875    0.0000 C   0  0  0  0  0  0  0  0  0  0  0  0
    1.2292    0.1042    0.0000 N   0  0  0  0  0  0  0  0  0  0  0  0
    0.8417    1.7875    0.0000 O   0  0  0  0  0  0  0  0  0  0  0  0
   -0.7125   -0.3500    0.0000 C   0  0  0  0  0  0  0  0  0  0  0  0
   -4.4542    2.2625    0.0000 N   0  0  0  0  0  0  0  0  0  0  0  0
   -3.5917   -1.0958    0.0000 N   0  0  0  0  0  0  0  0  0  0  0  0
    2.2042    0.3333    0.0000 C   0  0  3  0  0  0  0  0  0  0  0  0
   -1.6792   -0.5792    0.0000 C   0  0  0  0  0  0  0  0  0  0  0  0
   -0.0250   -1.0792    0.0000 C   0  0  0  0  0  0  0  0  0  0  0  0
    2.7750   -0.4833    0.0000 C   0  0  0  0  0  0  0  0  0  0  0  0
    2.4958    1.3000    0.0000 C   0  0  0  0  0  0  0  0  0  0  0  0
   -0.3083   -2.0292    0.0000 C   0  0  0  0  0  0  0  0  0  0  0  0
   -1.9708   -1.5375    0.0000 C   0  0  0  0  0  0  0  0  0  0  0  0
    3.4167    1.6792    0.0000 C   0  0  0  0  0  0  0  0  0  0  0  0
    3.7833   -0.5500    0.0000 C   0  0  0  0  0  0  0  0  0  0  0  0
    4.2958    1.1792    0.0000 C   0  0  0  0  0  0  0  0  0  0  0  0
   -1.2792   -2.2583    0.0000 C   0  0  0  0  0  0  0  0  0  0  0  0
    4.4500    0.1958    0.0000 C   0  0  0  0  0  0  0  0  0  0  0  0
  1  2  1  0  0  0  0
  1  3  2  0  0  0  0
  4  5  1  0  0  0  0
  5  8  1  0  0  0  0
  2  6  2  0  0  0  0
  3  7  1  0  0  0  0
  1  8  1  0  0  0  0
  7  9  2  0  0  0  0
  4 10  1  0  0  0  0
  4 11  2  0  0  0  0
  5 12  1  0  0  0  0
  7 13  1  0  0  0  0
  6 14  1  0  0  0  0
 10 15  1  0  0  0  0
 12 16  2  0  0  0  0
 12 17  1  0  0  0  0
 15 18  1  0  0  0  0
 15 19  1  0  0  0  0
 17 20  2  0  0  0  0
 16 21  1  0  0  0  0
 19 22  1  0  0  0  0
 18 23  1  0  0  0  0
 22 24  1  0  0  0  0
 20 25  1  0  0  0  0
 23 26  1  0  0  0  0
  6  9  1  0  0  0  0
 21 25  2  0  0  0  0
 24 26  1  0  0  0  0
M  END
> <MOLFORMULA>
C19 H25 N5 O S

> <MOLWEIGHT>
3.715065000000000e+002

> <IDNUMBER>
AN-153/PE03166

> <PRICE>
EUR 130/10 mg

$$$$

  -OEChem-04102411172D

 22 25  0     0  0  0  0  0  0999 V2000
    0.1667   -0.6333    0.0000 N   0  0  3  0  0  0  0  0  0  0  0  0
    0.1667   -1.5917    0.0000 C   0  0  0  0  0  0  0  0  0  0  0  0
   -0.6625   -0.1500    0.0000 C   0  0  0  0  0  0  0  0  0  0  0  0
   -1.5000   -0.6208    0.0000 C   0  0  0  0  0  0  0  0  0  0  0  0
   -1.5000   -1.5833    0.0000 C   0  0  0  0  0  0  0  0  0  0  0  0
    1.0083   -0.1500    0.0000 C   0  0  3  0  0  0  0  0  0  0  0  0
   -0.6583    0.8250    0.0000 C   0  0  0  0  0  0  0  0  0  0  0  0
    0.1792    1.3167    0.0000 C   0  0  3  0  0  0  0  0  0  0  0  0
    1.0083    0.8250    0.0000 C   0  0  0  0  0  0  0  0  0  0  0  0
   -2.3250   -0.1417    0.0000 C   0  0  0  0  0  0  0  0  0  0  0  0
    0.8458   -2.2750    0.0000 O   0  0  0  0  0  0  0  0  0  0  0  0
   -1.5000    1.3083    0.0000 C   0  0  0  0  0  0  0  0  0  0  0  0
   -2.1750   -2.2708    0.0000 O   0  0  0  0  0  0  0  0  0  0  0  0
   -2.3250    0.8250    0.0000 C   0  0  0  0  0  0  0  0  0  0  0  0
    0.9458   -1.1417    0.0000 C   0  0  0  0  0  0  0  0  0  0  0  0
    1.8292    0.4042    0.0000 C   0  0  0  0  0  0  0  0  0  0  0  0
   -3.1583    1.3000    0.0000 F   0  0  0  0  0  0  0  0  0  0  0  0
    0.1792    2.2792    0.0000 C   0  0  0  0  0  0  0  0  0  0  0  0
    1.6708   -1.8083    0.0000 C   0  0  0  0  0  0  0  0  0  0  0  0
    2.7833    0.1167    0.0000 C   0  0  0  0  0  0  0  0  0  0  0  0
    2.6458   -1.6583    0.0000 C   0  0  0  0  0  0  0  0  0  0  0  0
    3.1542   -0.8000    0.0000 C   0  0  0  0  0  0  0  0  0  0  0  0
  1  2  1  0  0  0  0
  1  3  1  0  0  0  0
  3  4  2  0  0  0  0
  2  5  1  0  0  0  0
  1  6  1  0  0  0  0
  3  7  1  0  0  0  0
  8  9  1  0  0  0  0
  6  9  1  0  0  0  0
  4 10  1  0  0  0  0
  2 11  2  0  0  0  0
  7 12  2  0  0  0  0
  5 13  2  0  0  0  0
 12 14  1  0  0  0  0
  6 15  1  0  0  0  0
  6 16  1  0  0  0  0
 14 17  1  0  0  0  0
  8 18  1  0  0  0  0
 15 19  1  0  0  0  0
 16 20  1  0  0  0  0
 19 21  1  0  0  0  0
 20 22  1  0  0  0  0
  4  5  1  0  0  0  0
  7  8  1  0  0  0  0
 21 22  1  0  0  0  0
 10 14  2  0  0  0  0
M  END
> <MOLFORMULA>
C18 H20 F N O2

> <MOLWEIGHT>
3.013590000000000e+002

> <IDNUMBER>
AN-153/PE04255

> <PRICE>
EUR 130/10 mg

$$$$

  -OEChem-04102411172D

 29 33  0     0  0  0  0  0  0999 V2000
    4.3250   -6.7250    0.0000 C   0  0  0  0  0  0  0  0  0  0  0  0
    5.6250   -6.4500    0.0000 C   0  0  0  0  0  0  0  0  0  0  0  0
    3.2542   -5.9417    0.0000 O   0  0  0  0  0  0  0  0  0  0  0  0
    3.9000   -7.9750    0.0000 C   0  0  0  0  0  0  0  0  0  0  0  0
    6.0500   -5.1792    0.0000 N   0  0  3  0  0  0  0  0  0  0  0  0
    2.6000   -7.9917    0.0000 C   0  0  0  0  0  0  0  0  0  0  0  0
    9.0667   -3.3750    0.0000 C   0  0  0  0  0  0  0  0  0  0  0  0
    2.1750   -6.7250    0.0000 C   0  0  0  0  0  0  0  0  0  0  0  0
    7.7750   -3.6500    0.0000 C   0  0  3  0  0  0  0  0  0  0  0  0
    6.5250   -7.4417    0.0000 N   0  0  0  0  0  0  0  0  0  0  0  0
    7.3542   -4.9042    0.0000 C   0  0  0  0  0  0  0  0  0  0  0  0
    4.8000   -8.9750    0.0000 N   0  0  0  0  0  0  0  0  0  0  0  0
    9.4750   -2.1000    0.0000 N   0  0  0  0  0  0  0  0  0  0  0  0
    6.1042   -8.7042    0.0000 C   0  0  0  0  0  0  0  0  0  0  0  0
    9.9667   -4.3750    0.0000 O   0  0  0  0  0  0  0  0  0  0  0  0
    5.1542   -4.1917    0.0000 C   0  0  0  0  0  0  0  0  0  0  0  0
   10.7667   -1.8417    0.0000 C   0  0  3  0  0  0  0  0  0  0  0  0
    6.8750   -2.6500    0.0000 C   0  0  0  0  0  0  0  0  0  0  0  0
    1.7000   -8.9750    0.0000 C   0  0  0  0  0  0  0  0  0  0  0  0
    0.8917   -6.4500    0.0000 C   0  0  0  0  0  0  0  0  0  0  0  0
    5.5792   -2.9250    0.0000 C   0  0  0  0  0  0  0  0  0  0  0  0
   11.0917   -0.5542    0.0000 C   0  0  0  0  0  0  0  0  0  0  0  0
   11.5917   -2.9000    0.0000 C   0  0  0  0  0  0  0  0  0  0  0  0
    0.3917   -8.7000    0.0000 C   0  0  0  0  0  0  0  0  0  0  0  0
    0.0000   -7.4417    0.0000 C   0  0  0  0  0  0  0  0  0  0  0  0
   12.9042   -2.9167    0.0000 C   0  0  0  0  0  0  0  0  0  0  0  0
   12.3000   -0.0000    0.0000 C   0  0  0  0  0  0  0  0  0  0  0  0
   13.5167   -0.6000    0.0000 C   0  0  0  0  0  0  0  0  0  0  0  0
   13.7667   -1.8750    0.0000 C   0  0  0  0  0  0  0  0  0  0  0  0
  1  2  2  0  0  0  0
  1  3  1  0  0  0  0
  1  4  1  0  0  0  0
  2  5  1  0  0  0  0
  4  6  1  0  0  0  0
  7  9  1  0  0  0  0
  3  8  1  0  0  0  0
  9 11  1  0  0  0  0
  2 10  1  0  0  0  0
  5 11  1  0  0  0  0
  4 12  2  0  0  0  0
  7 13  1  0  0  0  0
 12 14  1  0  0  0  0
  7 15  2  0  0  0  0
  5 16  1  0  0  0  0
 13 17  1  0  0  0  0
 18 21  1  0  0  0  0
  6 19  1  0  0  0  0
  8 20  1  0  0  0  0
 16 21  1  0  0  0  0
 17 22  1  0  0  0  0
 17 23  1  0  0  0  0
 19 24  2  0  0  0  0
 20 25  2  0  0  0  0
 23 26  1  0  0  0  0
 22 27  1  0  0  0  0
 27 28  1  0  0  0  0
 26 29  1  0  0  0  0
  6  8  2  0  0  0  0
 10 14  2  0  0  0  0
 24 25  1  0  0  0  0
  9 18  1  0  0  0  0
 28 29  1  0  0  0  0
M  END
> <MOLFORMULA>
C23 H28 N4 O2

> <MOLWEIGHT>
3.925002000000000e+002

> <IDNUMBER>
AT-687/PE16763

> <PRICE>
EUR 80/10 mg

$$$$

  -OEChem-04102411172D

 29 33  0     0  0  0  0  0  0999 V2000
    6.1417   -7.4750    0.0000 C   0  0  0  0  0  0  0  0  0  0  0  0
    6.8750   -7.1000    0.0000 C   0  0  0  0  0  0  0  0  0  0  0  0
    5.3792   -7.1750    0.0000 O   0  0  0  0  0  0  0  0  0  0  0  0
    6.0917   -8.2917    0.0000 C   0  0  0  0  0  0  0  0  0  0  0  0
    5.3000   -8.5042    0.0000 C   0  0  0  0  0  0  0  0  0  0  0  0
    6.9167   -6.2667    0.0000 N   0  0  3  0  0  0  0  0  0  0  0  0
    4.8542   -7.8125    0.0000 C   0  0  0  0  0  0  0  0  0  0  0  0
    7.0167   -3.7792    0.0000 C   0  0  0  0  0  0  0  0  0  0  0  0
    7.5667   -7.5542    0.0000 N   0  0  0  0  0  0  0  0  0  0  0  0
    6.7875   -8.7417    0.0000 N   0  0  0  0  0  0  0  0  0  0  0  0
    7.7375   -3.3875    0.0000 N   0  0  0  0  0  0  0  0  0  0  0  0
    7.5250   -8.3667    0.0000 C   0  0  0  0  0  0  0  0  0  0  0  0
    6.9917   -4.6042    0.0000 C   0  0  3  0  0  0  0  0  0  0  0  0
    6.2292   -5.8250    0.0000 C   0  0  0  0  0  0  0  0  0  0  0  0
    7.6542   -5.8917    0.0000 C   0  0  0  0  0  0  0  0  0  0  0  0
    6.3042   -3.3542    0.0000 O   0  0  0  0  0  0  0  0  0  0  0  0
    6.2667   -4.9917    0.0000 C   0  0  0  0  0  0  0  0  0  0  0  0
    7.7000   -5.0667    0.0000 C   0  0  0  0  0  0  0  0  0  0  0  0
    7.7542   -2.5542    0.0000 C   0  0  3  0  0  0  0  0  0  0  0  0
    4.9167   -9.2417    0.0000 C   0  0  0  0  0  0  0  0  0  0  0  0
    4.0250   -7.8500    0.0000 C   0  0  0  0  0  0  0  0  0  0  0  0
    6.9875   -2.2417    0.0000 C   0  0  0  0  0  0  0  0  0  0  0  0
    8.4667   -2.1542    0.0000 C   0  0  0  0  0  0  0  0  0  0  0  0
    4.0917   -9.2875    0.0000 C   0  0  0  0  0  0  0  0  0  0  0  0
    3.6375   -8.5792    0.0000 C   0  0  0  0  0  0  0  0  0  0  0  0
    6.7542   -1.4542    0.0000 C   0  0  0  0  0  0  0  0  0  0  0  0
    8.6042   -1.3292    0.0000 C   0  0  0  0  0  0  0  0  0  0  0  0
    7.2292   -0.7875    0.0000 C   0  0  0  0  0  0  0  0  0  0  0  0
    8.0417   -0.7250    0.0000 C   0  0  0  0  0  0  0  0  0  0  0  0
  1  2  1  0  0  0  0
  1  3  1  0  0  0  0
  1  4  2  0  0  0  0
  4  5  1  0  0  0  0
  2  6  1  0  0  0  0
  3  7  1  0  0  0  0
  8 13  1  0  0  0  0
  2  9  2  0  0  0  0
  4 10  1  0  0  0  0
  8 11  1  0  0  0  0
 10 12  2  0  0  0  0
 13 18  1  0  0  0  0
  6 14  1  0  0  0  0
  6 15  1  0  0  0  0
  8 16  2  0  0  0  0
 14 17  1  0  0  0  0
 15 18  1  0  0  0  0
 11 19  1  0  0  0  0
  5 20  1  0  0  0  0
  7 21  1  0  0  0  0
 19 22  1  0  0  0  0
 19 23  1  0  0  0  0
 20 24  2  0  0  0  0
 21 25  2  0  0  0  0
 22 26  1  0  0  0  0
 23 27  1  0  0  0  0
 26 28  1  0  0  0  0
 27 29  1  0  0  0  0
  5  7  2  0  0  0  0
  9 12  1  0  0  0  0
 24 25  1  0  0  0  0
 13 17  1  0  0  0  0
 28 29  1  0  0  0  0
M  END
> <MOLFORMULA>
C23 H28 N4 O2

> <MOLWEIGHT>
3.925002000000000e+002

> <IDNUMBER>
AT-687/PE16688

> <PRICE>
EUR 80/10 mg

$$$$

  -OEChem-04102411172D

 31 34  0     0  0  0  0  0  0999 V2000
   -0.2958    1.3125    0.0000 C   0  0  0  0  0  0  0  0  0  0  0  0
   -1.0083    1.7333    0.0000 N   0  0  3  0  0  0  0  0  0  0  0  0
   -3.1500    2.9833    0.0000 C   0  0  0  0  0  0  0  0  0  0  0  0
    0.4167    1.7333    0.0000 C   0  0  0  0  0  0  0  0  0  0  0  0
    1.1375    1.3208    0.0000 C   0  0  0  0  0  0  0  0  0  0  0  0
   -0.2958    0.4875    0.0000 N   0  0  0  0  0  0  0  0  0  0  0  0
    1.1375    0.4875    0.0000 N   0  0  0  0  0  0  0  0  0  0  0  0
   -3.8708    2.5708    0.0000 N   0  0  0  0  0  0  0  0  0  0  0  0
    0.4167    0.0750    0.0000 C   0  0  0  0  0  0  0  0  0  0  0  0
   -2.4333    2.5583    0.0000 C   0  0  3  0  0  0  0  0  0  0  0  0
   -1.0083    2.5583    0.0000 C   0  0  0  0  0  0  0  0  0  0  0  0
   -1.7208    1.3208    0.0000 C   0  0  0  0  0  0  0  0  0  0  0  0
   -3.1500    3.8000    0.0000 O   0  0  0  0  0  0  0  0  0  0  0  0
    1.8500    1.7333    0.0000 O   0  0  0  0  0  0  0  0  0  0  0  0
   -1.7208    2.9708    0.0000 C   0  0  0  0  0  0  0  0  0  0  0  0
   -2.4375    1.7333    0.0000 C   0  0  0  0  0  0  0  0  0  0  0  0
    2.5667    1.3250    0.0000 C   0  0  0  0  0  0  0  0  0  0  0  0
   -4.5833    2.9833    0.0000 C   0  0  3  0  0  0  0  0  0  0  0  0
    4.0000    0.5000    0.0000 C   0  0  0  0  0  0  0  0  0  0  0  0
    2.5667    0.5000    0.0000 C   0  0  0  0  0  0  0  0  0  0  0  0
    3.2792    1.7458    0.0000 C   0  0  0  0  0  0  0  0  0  0  0  0
    3.2792    0.0875    0.0000 C   0  0  0  0  0  0  0  0  0  0  0  0
    4.0000    1.3333    0.0000 C   0  0  0  0  0  0  0  0  0  0  0  0
    4.7125    0.0875    0.0000 C   0  0  0  0  0  0  0  0  0  0  0  0
   -4.5208    3.8083    0.0000 C   0  0  0  0  0  0  0  0  0  0  0  0
   -5.2708    2.5208    0.0000 C   0  0  0  0  0  0  0  0  0  0  0  0
    4.7125   -0.7375    0.0000 C   0  0  0  0  0  0  0  0  0  0  0  0
   -6.0542    2.7708    0.0000 C   0  0  0  0  0  0  0  0  0  0  0  0
   -5.1125    4.3667    0.0000 C   0  0  0  0  0  0  0  0  0  0  0  0
   -6.3417    3.5458    0.0000 C   0  0  0  0  0  0  0  0  0  0  0  0
   -5.9333    4.2500    0.0000 C   0  0  0  0  0  0  0  0  0  0  0  0
  1  2  1  0  0  0  0
  3 10  1  0  0  0  0
  1  4  1  0  0  0  0
  4  5  2  0  0  0  0
  1  6  2  0  0  0  0
  7  9  2  0  0  0  0
  3  8  1  0  0  0  0
  6  9  1  0  0  0  0
 10 16  1  0  0  0  0
  2 11  1  0  0  0  0
  2 12  1  0  0  0  0
  3 13  2  0  0  0  0
  5 14  1  0  0  0  0
 11 15  1  0  0  0  0
 12 16  1  0  0  0  0
 14 17  1  0  0  0  0
  8 18  1  0  0  0  0
 19 23  1  0  0  0  0
 17 20  2  0  0  0  0
 17 21  1  0  0  0  0
 20 22  1  0  0  0  0
 21 23  2  0  0  0  0
 19 24  1  0  0  0  0
 18 25  1  0  0  0  0
 18 26  1  0  0  0  0
 24 27  1  0  0  0  0
 26 28  1  0  0  0  0
 25 29  1  0  0  0  0
 28 30  1  0  0  0  0
 29 31  1  0  0  0  0
  5  7  1  0  0  0  0
 10 15  1  0  0  0  0
 19 22  2  0  0  0  0
 30 31  1  0  0  0  0
M  END
> <MOLFORMULA>
C25 H34 N4 O2

> <MOLWEIGHT>
4.225696000000000e+002

> <IDNUMBER>
AT-687/PE17825

> <PRICE>
EUR 80/10 mg

$$$$

  -OEChem-04102411172D

 29 32  0     0  0  0  0  0  0999 V2000
   -0.2958    1.3125    0.0000 C   0  0  0  0  0  0  0  0  0  0  0  0
   -1.0083    1.7333    0.0000 N   0  0  3  0  0  0  0  0  0  0  0  0
   -3.1500    2.9833    0.0000 C   0  0  0  0  0  0  0  0  0  0  0  0
    0.4167    1.7333    0.0000 C   0  0  0  0  0  0  0  0  0  0  0  0
    1.1375    1.3208    0.0000 C   0  0  0  0  0  0  0  0  0  0  0  0
   -0.2958    0.4875    0.0000 N   0  0  0  0  0  0  0  0  0  0  0  0
    1.1375    0.4875    0.0000 N   0  0  0  0  0  0  0  0  0  0  0  0
   -3.8708    2.5708    0.0000 N   0  0  0  0  0  0  0  0  0  0  0  0
    0.4167    0.0750    0.0000 C   0  0  0  0  0  0  0  0  0  0  0  0
   -2.4333    2.5583    0.0000 C   0  0  3  0  0  0  0  0  0  0  0  0
   -1.0083    2.5583    0.0000 C   0  0  0  0  0  0  0  0  0  0  0  0
   -1.7208    1.3208    0.0000 C   0  0  0  0  0  0  0  0  0  0  0  0
   -3.1500    3.8000    0.0000 O   0  0  0  0  0  0  0  0  0  0  0  0
    1.8500    1.7333    0.0000 O   0  0  0  0  0  0  0  0  0  0  0  0
   -1.7208    2.9708    0.0000 C   0  0  0  0  0  0  0  0  0  0  0  0
   -2.4375    1.7333    0.0000 C   0  0  0  0  0  0  0  0  0  0  0  0
   -4.5833    2.9833    0.0000 C   0  0  3  0  0  0  0  0  0  0  0  0
    2.5667    1.3250    0.0000 C   0  0  0  0  0  0  0  0  0  0  0  0
    2.5667    0.5000    0.0000 C   0  0  0  0  0  0  0  0  0  0  0  0
    3.2792    1.7458    0.0000 C   0  0  0  0  0  0  0  0  0  0  0  0
   -4.5208    3.8083    0.0000 C   0  0  0  0  0  0  0  0  0  0  0  0
   -5.2708    2.5208    0.0000 C   0  0  0  0  0  0  0  0  0  0  0  0
    3.2792    0.0875    0.0000 C   0  0  0  0  0  0  0  0  0  0  0  0
    4.0000    1.3333    0.0000 C   0  0  0  0  0  0  0  0  0  0  0  0
   -6.0542    2.7708    0.0000 C   0  0  0  0  0  0  0  0  0  0  0  0
   -5.1125    4.3667    0.0000 C   0  0  0  0  0  0  0  0  0  0  0  0
   -6.3417    3.5458    0.0000 C   0  0  0  0  0  0  0  0  0  0  0  0
   -5.9333    4.2500    0.0000 C   0  0  0  0  0  0  0  0  0  0  0  0
    4.0000    0.5000    0.0000 C   0  0  0  0  0  0  0  0  0  0  0  0
  1  2  1  0  0  0  0
  3 10  1  0  0  0  0
  1  4  1  0  0  0  0
  4  5  2  0  0  0  0
  1  6  2  0  0  0  0
  7  9  2  0  0  0  0
  3  8  1  0  0  0  0
  6  9  1  0  0  0  0
 10 16  1  0  0  0  0
  2 11  1  0  0  0  0
  2 12  1  0  0  0  0
  3 13  2  0  0  0  0
  5 14  1  0  0  0  0
 11 15  1  0  0  0  0
 12 16  1  0  0  0  0
  8 17  1  0  0  0  0
 14 18  1  0  0  0  0
 18 19  2  0  0  0  0
 18 20  1  0  0  0  0
 17 21  1  0  0  0  0
 17 22  1  0  0  0  0
 19 23  1  0  0  0  0
 20 24  2  0  0  0  0
 22 25  1  0  0  0  0
 21 26  1  0  0  0  0
 25 27  1  0  0  0  0
 26 28  1  0  0  0  0
 24 29  1  0  0  0  0
  5  7  1  0  0  0  0
 10 15  1  0  0  0  0
 23 29  2  0  0  0  0
 27 28  1  0  0  0  0
M  END
> <MOLFORMULA>
C23 H30 N4 O2

> <MOLWEIGHT>
3.945160000000000e+002

> <IDNUMBER>
AT-687/PE17761

> <PRICE>
EUR 80/10 mg

$$$$

  -OEChem-04102411172D

 33 37  0     0  0  0  0  0  0999 V2000
    7.8000   -2.4500    0.0000 C   0  0  0  0  0  0  0  0  0  0  0  0
    6.4750   -2.4500    0.0000 C   0  0  0  0  0  0  0  0  0  0  0  0
    8.2167   -1.1750    0.0000 N   0  0  0  0  0  0  0  0  0  0  0  0
    6.0542   -1.1750    0.0000 N   0  0  3  0  0  0  0  0  0  0  0  0
    8.5917   -3.5292    0.0000 C   0  0  0  0  0  0  0  0  0  0  0  0
    7.1500   -0.3917    0.0000 C   0  0  0  0  0  0  0  0  0  0  0  0
    9.9167   -3.3792    0.0000 N   0  0  3  0  0  0  0  0  0  0  0  0
   13.8792   -2.9917    0.0000 C   0  0  0  0  0  0  0  0  0  0  0  0
    5.5750   -3.4250    0.0000 C   0  0  0  0  0  0  0  0  0  0  0  0
    4.2750   -3.1417    0.0000 O   0  0  0  0  0  0  0  0  0  0  0  0
    4.7667   -0.8917    0.0000 C   0  0  0  0  0  0  0  0  0  0  0  0
   14.4250   -1.7750    0.0000 N   0  0  0  0  0  0  0  0  0  0  0  0
    3.8667   -1.8667    0.0000 C   0  0  3  0  0  0  0  0  0  0  0  0
    8.0667   -4.7250    0.0000 O   0  0  0  0  0  0  0  0  0  0  0  0
   12.5500   -3.1250    0.0000 C   0  0  3  0  0  0  0  0  0  0  0  0
   10.6792   -4.4667    0.0000 C   0  0  0  0  0  0  0  0  0  0  0  0
   10.4417   -2.1792    0.0000 C   0  0  0  0  0  0  0  0  0  0  0  0
   14.6750   -4.0667    0.0000 O   0  0  0  0  0  0  0  0  0  0  0  0
    2.5542   -1.5792    0.0000 C   0  0  0  0  0  0  0  0  0  0  0  0
   11.7917   -2.0292    0.0000 C   0  0  0  0  0  0  0  0  0  0  0  0
   12.0167   -4.3417    0.0000 C   0  0  0  0  0  0  0  0  0  0  0  0
   15.7500   -1.6542    0.0000 C   0  0  3  0  0  0  0  0  0  0  0  0
    2.1792   -0.3167    0.0000 C   0  0  0  0  0  0  0  0  0  0  0  0
    1.6750   -2.5542    0.0000 C   0  0  0  0  0  0  0  0  0  0  0  0
   16.4500   -2.7792    0.0000 C   0  0  0  0  0  0  0  0  0  0  0  0
   16.2000   -0.3917    0.0000 C   0  0  0  0  0  0  0  0  0  0  0  0
    0.3667   -2.2750    0.0000 C   0  0  0  0  0  0  0  0  0  0  0  0
    0.8750   -0.0500    0.0000 C   0  0  0  0  0  0  0  0  0  0  0  0
   17.4750   -0.0000    0.0000 C   0  0  0  0  0  0  0  0  0  0  0  0
   17.7542   -2.9500    0.0000 C   0  0  0  0  0  0  0  0  0  0  0  0
    0.0000   -1.0000    0.0000 C   0  0  0  0  0  0  0  0  0  0  0  0
   18.7167   -2.0292    0.0000 C   0  0  0  0  0  0  0  0  0  0  0  0
   18.6000   -0.7000    0.0000 C   0  0  0  0  0  0  0  0  0  0  0  0
  1  2  2  0  0  0  0
  1  3  1  0  0  0  0
  2  4  1  0  0  0  0
  1  5  1  0  0  0  0
  3  6  2  0  0  0  0
  5  7  1  0  0  0  0
  8 15  1  0  0  0  0
  2  9  1  0  0  0  0
  9 10  1  0  0  0  0
  4 11  1  0  0  0  0
  8 12  1  0  0  0  0
 10 13  1  0  0  0  0
  5 14  2  0  0  0  0
 15 20  1  0  0  0  0
  7 16  1  0  0  0  0
  7 17  1  0  0  0  0
  8 18  2  0  0  0  0
 13 19  1  0  0  0  0
 17 20  1  0  0  0  0
 16 21  1  0  0  0  0
 12 22  1  0  0  0  0
 19 23  2  0  0  0  0
 19 24  1  0  0  0  0
 22 25  1  0  0  0  0
 22 26  1  0  0  0  0
 24 27  2  0  0  0  0
 23 28  1  0  0  0  0
 26 29  1  0  0  0  0
 25 30  1  0  0  0  0
 27 31  1  0  0  0  0
 30 32  1  0  0  0  0
 29 33  1  0  0  0  0
  4  6  1  0  0  0  0
 15 21  1  0  0  0  0
 11 13  1  0  0  0  0
 28 31  2  0  0  0  0
 32 33  1  0  0  0  0
M  END
> <MOLFORMULA>
C26 H34 N4 O3

> <MOLWEIGHT>
4.505796000000000e+002

> <IDNUMBER>
AT-687/PE20906

> <PRICE>
EUR 80/10 mg

$$$$

  -OEChem-04102411172D

 34 38  0     0  0  0  0  0  0999 V2000
    9.0917   -2.4500    0.0000 C   0  0  0  0  0  0  0  0  0  0  0  0
    7.7667   -2.4500    0.0000 C   0  0  0  0  0  0  0  0  0  0  0  0
    9.5042   -1.1750    0.0000 N   0  0  0  0  0  0  0  0  0  0  0  0
    7.3500   -1.1750    0.0000 N   0  0  3  0  0  0  0  0  0  0  0  0
    9.8667   -3.5250    0.0000 C   0  0  0  0  0  0  0  0  0  0  0  0
    8.4250   -0.3917    0.0000 C   0  0  0  0  0  0  0  0  0  0  0  0
   11.2000   -3.3917    0.0000 N   0  0  3  0  0  0  0  0  0  0  0  0
   15.1667   -2.9917    0.0000 C   0  0  0  0  0  0  0  0  0  0  0  0
    6.8667   -3.4250    0.0000 C   0  0  0  0  0  0  0  0  0  0  0  0
    5.5750   -3.1500    0.0000 O   0  0  0  0  0  0  0  0  0  0  0  0
    6.0750   -0.8917    0.0000 C   0  0  0  0  0  0  0  0  0  0  0  0
    5.1750   -1.8750    0.0000 C   0  0  3  0  0  0  0  0  0  0  0  0
   15.7000   -1.7750    0.0000 N   0  0  0  0  0  0  0  0  0  0  0  0
    9.3500   -4.7250    0.0000 O   0  0  0  0  0  0  0  0  0  0  0  0
   13.8417   -3.1292    0.0000 C   0  0  3  0  0  0  0  0  0  0  0  0
    3.8750   -1.5917    0.0000 C   0  0  0  0  0  0  0  0  0  0  0  0
   11.7250   -2.1750    0.0000 C   0  0  0  0  0  0  0  0  0  0  0  0
   11.9667   -4.4750    0.0000 C   0  0  0  0  0  0  0  0  0  0  0  0
   15.9417   -4.0667    0.0000 O   0  0  0  0  0  0  0  0  0  0  0  0
   13.3000   -4.3500    0.0000 C   0  0  0  0  0  0  0  0  0  0  0  0
   13.0667   -2.0292    0.0000 C   0  0  0  0  0  0  0  0  0  0  0  0
    3.4750   -0.3292    0.0000 C   0  0  0  0  0  0  0  0  0  0  0  0
    2.9750   -2.5750    0.0000 C   0  0  0  0  0  0  0  0  0  0  0  0
    1.2917   -1.0167    0.0000 C   0  0  0  0  0  0  0  0  0  0  0  0
   17.0250   -1.6500    0.0000 C   0  0  3  0  0  0  0  0  0  0  0  0
    2.1750   -0.0500    0.0000 C   0  0  0  0  0  0  0  0  0  0  0  0
    1.6750   -2.2750    0.0000 C   0  0  0  0  0  0  0  0  0  0  0  0
    0.0000   -0.7167    0.0000 Cl  0  0  0  0  0  0  0  0  0  0  0  0
   17.7250   -2.7917    0.0000 C   0  0  0  0  0  0  0  0  0  0  0  0
   17.4750   -0.3917    0.0000 C   0  0  0  0  0  0  0  0  0  0  0  0
   18.7542   -0.0000    0.0000 C   0  0  0  0  0  0  0  0  0  0  0  0
   19.0250   -2.9750    0.0000 C   0  0  0  0  0  0  0  0  0  0  0  0
   19.9750   -2.0292    0.0000 C   0  0  0  0  0  0  0  0  0  0  0  0
   19.8750   -0.7167    0.0000 C   0  0  0  0  0  0  0  0  0  0  0  0
  1  2  2  0  0  0  0
  1  3  1  0  0  0  0
  2  4  1  0  0  0  0
  1  5  1  0  0  0  0
  3  6  2  0  0  0  0
  5  7  1  0  0  0  0
  8 15  1  0  0  0  0
  2  9  1  0  0  0  0
  9 10  1  0  0  0  0
  4 11  1  0  0  0  0
 10 12  1  0  0  0  0
  8 13  1  0  0  0  0
  5 14  2  0  0  0  0
 15 20  1  0  0  0  0
 12 16  1  0  0  0  0
  7 17  1  0  0  0  0
  7 18  1  0  0  0  0
  8 19  2  0  0  0  0
 18 20  1  0  0  0  0
 17 21  1  0  0  0  0
 16 22  1  0  0  0  0
 16 23  2  0  0  0  0
 24 27  2  0  0  0  0
 13 25  1  0  0  0  0
 22 26  2  0  0  0  0
 23 27  1  0  0  0  0
 24 28  1  0  0  0  0
 25 29  1  0  0  0  0
 25 30  1  0  0  0  0
 30 31  1  0  0  0  0
 29 32  1  0  0  0  0
 32 33  1  0  0  0  0
 31 34  1  0  0  0  0
  4  6  1  0  0  0  0
 15 21  1  0  0  0  0
 11 12  1  0  0  0  0
 24 26  1  0  0  0  0
 33 34  1  0  0  0  0
M  END
> <MOLFORMULA>
C26 H33 Cl N4 O3

> <MOLWEIGHT>
4.850247000000000e+002

> <IDNUMBER>
AT-687/PE20997

> <PRICE>
EUR 80/10 mg

$$$$

  -OEChem-04102411172D

 34 38  0     0  0  0  0  0  0999 V2000
    9.0917   -2.4500    0.0000 C   0  0  0  0  0  0  0  0  0  0  0  0
    7.7750   -2.4500    0.0000 C   0  0  0  0  0  0  0  0  0  0  0  0
    7.3500   -1.1750    0.0000 N   0  0  3  0  0  0  0  0  0  0  0  0
    9.5042   -1.1750    0.0000 N   0  0  0  0  0  0  0  0  0  0  0  0
    8.4250   -0.3917    0.0000 N   0  0  0  0  0  0  0  0  0  0  0  0
    9.8667   -3.5167    0.0000 C   0  0  0  0  0  0  0  0  0  0  0  0
   11.2042   -3.3917    0.0000 N   0  0  3  0  0  0  0  0  0  0  0  0
    6.0750   -0.8917    0.0000 C   0  0  0  0  0  0  0  0  0  0  0  0
   15.1667   -2.9917    0.0000 C   0  0  0  0  0  0  0  0  0  0  0  0
    6.8750   -3.4292    0.0000 C   0  0  0  0  0  0  0  0  0  0  0  0
    5.5750   -3.1292    0.0000 O   0  0  0  0  0  0  0  0  0  0  0  0
    5.1750   -1.8500    0.0000 C   0  0  3  0  0  0  0  0  0  0  0  0
   15.7000   -1.7750    0.0000 N   0  0  0  0  0  0  0  0  0  0  0  0
    9.3500   -4.7292    0.0000 O   0  0  0  0  0  0  0  0  0  0  0  0
   13.8500   -3.1292    0.0000 C   0  0  3  0  0  0  0  0  0  0  0  0
    3.8750   -1.5750    0.0000 C   0  0  0  0  0  0  0  0  0  0  0  0
   11.7250   -2.1750    0.0000 C   0  0  0  0  0  0  0  0  0  0  0  0
   11.9667   -4.4750    0.0000 C   0  0  0  0  0  0  0  0  0  0  0  0
   15.9500   -4.0667    0.0000 O   0  0  0  0  0  0  0  0  0  0  0  0
   13.3042   -4.3292    0.0000 C   0  0  0  0  0  0  0  0  0  0  0  0
   13.0667   -2.0292    0.0000 C   0  0  0  0  0  0  0  0  0  0  0  0
    3.4750   -0.3167    0.0000 C   0  0  0  0  0  0  0  0  0  0  0  0
    2.9750   -2.5750    0.0000 C   0  0  0  0  0  0  0  0  0  0  0  0
    1.2917   -0.9917    0.0000 C   0  0  0  0  0  0  0  0  0  0  0  0
   17.0250   -1.6292    0.0000 C   0  0  3  0  0  0  0  0  0  0  0  0
    2.1750   -0.0292    0.0000 C   0  0  0  0  0  0  0  0  0  0  0  0
    1.6750   -2.2750    0.0000 C   0  0  0  0  0  0  0  0  0  0  0  0
    0.0000   -0.7167    0.0000 Cl  0  0  0  0  0  0  0  0  0  0  0  0
   17.7250   -2.7917    0.0000 C   0  0  0  0  0  0  0  0  0  0  0  0
   17.4792   -0.3917    0.0000 C   0  0  0  0  0  0  0  0  0  0  0  0
   18.7667   -0.0000    0.0000 C   0  0  0  0  0  0  0  0  0  0  0  0
   19.0250   -2.9500    0.0000 C   0  0  0  0  0  0  0  0  0  0  0  0
   19.9792   -2.0292    0.0000 C   0  0  0  0  0  0  0  0  0  0  0  0
   19.8792   -0.7167    0.0000 C   0  0  0  0  0  0  0  0  0  0  0  0
  1  2  2  0  0  0  0
  2  3  1  0  0  0  0
  1  4  1  0  0  0  0
  4  5  2  0  0  0  0
  1  6  1  0  0  0  0
  6  7  1  0  0  0  0
  3  8  1  0  0  0  0
  9 15  1  0  0  0  0
  2 10  1  0  0  0  0
 10 11  1  0  0  0  0
 11 12  1  0  0  0  0
  9 13  1  0  0  0  0
  6 14  2  0  0  0  0
 15 20  1  0  0  0  0
 12 16  1  0  0  0  0
  7 17  1  0  0  0  0
  7 18  1  0  0  0  0
  9 19  2  0  0  0  0
 18 20  1  0  0  0  0
 17 21  1  0  0  0  0
 16 22  1  0  0  0  0
 16 23  2  0  0  0  0
 24 27  2  0  0  0  0
 13 25  1  0  0  0  0
 22 26  2  0  0  0  0
 23 27  1  0  0  0  0
 24 28  1  0  0  0  0
 25 29  1  0  0  0  0
 25 30  1  0  0  0  0
 30 31  1  0  0  0  0
 29 32  1  0  0  0  0
 32 33  1  0  0  0  0
 31 34  1  0  0  0  0
  3  5  1  0  0  0  0
 15 21  1  0  0  0  0
  8 12  1  0  0  0  0
 24 26  1  0  0  0  0
 33 34  1  0  0  0  0
M  END
> <MOLFORMULA>
C25 H32 Cl N5 O3

> <MOLWEIGHT>
4.860128000000000e+002

> <IDNUMBER>
AT-687/PE20679

> <PRICE>
EUR 80/10 mg

$$$$

  -OEChem-04102411172D

 35 39  0     0  0  0  0  0  0999 V2000
    9.9917   -2.4417    0.0000 C   0  0  0  0  0  0  0  0  0  0  0  0
    8.6750   -2.4417    0.0000 C   0  0  0  0  0  0  0  0  0  0  0  0
   10.4042   -1.1917    0.0000 N   0  0  0  0  0  0  0  0  0  0  0  0
    8.2500   -1.1917    0.0000 N   0  0  3  0  0  0  0  0  0  0  0  0
   10.7792   -3.5250    0.0000 C   0  0  0  0  0  0  0  0  0  0  0  0
    9.3417   -0.3917    0.0000 C   0  0  0  0  0  0  0  0  0  0  0  0
   12.1000   -3.4000    0.0000 N   0  0  3  0  0  0  0  0  0  0  0  0
   16.0750   -3.0000    0.0000 C   0  0  0  0  0  0  0  0  0  0  0  0
    7.7750   -3.4250    0.0000 C   0  0  0  0  0  0  0  0  0  0  0  0
    6.4500   -3.1500    0.0000 O   0  0  0  0  0  0  0  0  0  0  0  0
    6.9542   -0.8917    0.0000 C   0  0  0  0  0  0  0  0  0  0  0  0
    6.0542   -1.8750    0.0000 C   0  0  3  0  0  0  0  0  0  0  0  0
   16.6167   -1.7917    0.0000 N   0  0  0  0  0  0  0  0  0  0  0  0
   10.2417   -4.7417    0.0000 O   0  0  0  0  0  0  0  0  0  0  0  0
   14.7542   -3.1250    0.0000 C   0  0  3  0  0  0  0  0  0  0  0  0
    4.7667   -1.6000    0.0000 C   0  0  0  0  0  0  0  0  0  0  0  0
   12.6500   -2.1917    0.0000 C   0  0  0  0  0  0  0  0  0  0  0  0
   12.8750   -4.4667    0.0000 C   0  0  0  0  0  0  0  0  0  0  0  0
   16.8500   -4.0667    0.0000 O   0  0  0  0  0  0  0  0  0  0  0  0
   14.2167   -4.3417    0.0000 C   0  0  0  0  0  0  0  0  0  0  0  0
   13.9792   -2.0417    0.0000 C   0  0  0  0  0  0  0  0  0  0  0  0
    4.3667   -0.3250    0.0000 C   0  0  0  0  0  0  0  0  0  0  0  0
    3.8667   -2.5667    0.0000 C   0  0  0  0  0  0  0  0  0  0  0  0
    2.1917   -1.0167    0.0000 C   0  0  0  0  0  0  0  0  0  0  0  0
   17.9500   -1.6667    0.0000 C   0  0  3  0  0  0  0  0  0  0  0  0
    3.0667   -0.0542    0.0000 C   0  0  0  0  0  0  0  0  0  0  0  0
    2.5667   -2.3000    0.0000 C   0  0  0  0  0  0  0  0  0  0  0  0
    0.8917   -0.7250    0.0000 O   0  0  0  0  0  0  0  0  0  0  0  0
    0.0000   -1.7042    0.0000 C   0  0  0  0  0  0  0  0  0  0  0  0
   18.6250   -2.8000    0.0000 C   0  0  0  0  0  0  0  0  0  0  0  0
   18.4000   -0.3917    0.0000 C   0  0  0  0  0  0  0  0  0  0  0  0
   19.6750   -0.0000    0.0000 C   0  0  0  0  0  0  0  0  0  0  0  0
   19.9417   -2.9667    0.0000 C   0  0  0  0  0  0  0  0  0  0  0  0
   20.9000   -2.0417    0.0000 C   0  0  0  0  0  0  0  0  0  0  0  0
   20.8000   -0.7250    0.0000 C   0  0  0  0  0  0  0  0  0  0  0  0
  1  2  2  0  0  0  0
  1  3  1  0  0  0  0
  2  4  1  0  0  0  0
  1  5  1  0  0  0  0
  3  6  2  0  0  0  0
  5  7  1  0  0  0  0
  8 15  1  0  0  0  0
  2  9  1  0  0  0  0
  9 10  1  0  0  0  0
  4 11  1  0  0  0  0
 10 12  1  0  0  0  0
  8 13  1  0  0  0  0
  5 14  2  0  0  0  0
 15 20  1  0  0  0  0
 12 16  1  0  0  0  0
  7 17  1  0  0  0  0
  7 18  1  0  0  0  0
  8 19  2  0  0  0  0
 18 20  1  0  0  0  0
 17 21  1  0  0  0  0
 16 22  1  0  0  0  0
 16 23  2  0  0  0  0
 24 27  2  0  0  0  0
 13 25  1  0  0  0  0
 22 26  2  0  0  0  0
 23 27  1  0  0  0  0
 24 28  1  0  0  0  0
 28 29  1  0  0  0  0
 25 30  1  0  0  0  0
 25 31  1  0  0  0  0
 31 32  1  0  0  0  0
 30 33  1  0  0  0  0
 33 34  1  0  0  0  0
 32 35  1  0  0  0  0
  4  6  1  0  0  0  0
 15 21  1  0  0  0  0
 11 12  1  0  0  0  0
 24 26  1  0  0  0  0
 34 35  1  0  0  0  0
M  END
> <MOLFORMULA>
C27 H36 N4 O4

> <MOLWEIGHT>
4.806054000000000e+002

> <IDNUMBER>
AT-687/PE21014

> <PRICE>
EUR 80/10 mg

$$$$

  -OEChem-04102411172D

 35 39  0     0  0  0  0  0  0999 V2000
    9.9917   -2.4417    0.0000 C   0  0  0  0  0  0  0  0  0  0  0  0
    8.6750   -2.4417    0.0000 C   0  0  0  0  0  0  0  0  0  0  0  0
    8.2500   -1.1667    0.0000 N   0  0  3  0  0  0  0  0  0  0  0  0
   10.4042   -1.1667    0.0000 N   0  0  0  0  0  0  0  0  0  0  0  0
    9.3417   -0.3917    0.0000 N   0  0  0  0  0  0  0  0  0  0  0  0
   10.7792   -3.5250    0.0000 C   0  0  0  0  0  0  0  0  0  0  0  0
   12.1000   -3.4000    0.0000 N   0  0  3  0  0  0  0  0  0  0  0  0
    6.9542   -0.8917    0.0000 C   0  0  0  0  0  0  0  0  0  0  0  0
   16.0750   -2.9792    0.0000 C   0  0  0  0  0  0  0  0  0  0  0  0
    7.7750   -3.4250    0.0000 C   0  0  0  0  0  0  0  0  0  0  0  0
    6.4500   -3.1500    0.0000 O   0  0  0  0  0  0  0  0  0  0  0  0
    6.0542   -1.8500    0.0000 C   0  0  3  0  0  0  0  0  0  0  0  0
   16.6167   -1.7917    0.0000 N   0  0  0  0  0  0  0  0  0  0  0  0
   10.2417   -4.7417    0.0000 O   0  0  0  0  0  0  0  0  0  0  0  0
   14.7542   -3.1250    0.0000 C   0  0  3  0  0  0  0  0  0  0  0  0
    4.7667   -1.5792    0.0000 C   0  0  0  0  0  0  0  0  0  0  0  0
   12.6500   -2.1917    0.0000 C   0  0  0  0  0  0  0  0  0  0  0  0
   12.8750   -4.4667    0.0000 C   0  0  0  0  0  0  0  0  0  0  0  0
   16.8500   -4.0667    0.0000 O   0  0  0  0  0  0  0  0  0  0  0  0
   14.2167   -4.3417    0.0000 C   0  0  0  0  0  0  0  0  0  0  0  0
   13.9792   -2.0417    0.0000 C   0  0  0  0  0  0  0  0  0  0  0  0
    4.3667   -0.3042    0.0000 C   0  0  0  0  0  0  0  0  0  0  0  0
    3.8667   -2.5667    0.0000 C   0  0  0  0  0  0  0  0  0  0  0  0
    2.1917   -1.0000    0.0000 C   0  0  0  0  0  0  0  0  0  0  0  0
   17.9500   -1.6500    0.0000 C   0  0  3  0  0  0  0  0  0  0  0  0
    3.0667   -0.0417    0.0000 C   0  0  0  0  0  0  0  0  0  0  0  0
    2.5667   -2.2750    0.0000 C   0  0  0  0  0  0  0  0  0  0  0  0
    0.8917   -0.7250    0.0000 O   0  0  0  0  0  0  0  0  0  0  0  0
    0.0000   -1.6917    0.0000 C   0  0  0  0  0  0  0  0  0  0  0  0
   18.6250   -2.8000    0.0000 C   0  0  0  0  0  0  0  0  0  0  0  0
   18.4000   -0.3917    0.0000 C   0  0  0  0  0  0  0  0  0  0  0  0
   19.6750   -0.0000    0.0000 C   0  0  0  0  0  0  0  0  0  0  0  0
   19.9417   -2.9417    0.0000 C   0  0  0  0  0  0  0  0  0  0  0  0
   20.9000   -2.0417    0.0000 C   0  0  0  0  0  0  0  0  0  0  0  0
   20.8000   -0.7250    0.0000 C   0  0  0  0  0  0  0  0  0  0  0  0
  1  2  2  0  0  0  0
  2  3  1  0  0  0  0
  1  4  1  0  0  0  0
  4  5  2  0  0  0  0
  1  6  1  0  0  0  0
  6  7  1  0  0  0  0
  3  8  1  0  0  0  0
  9 15  1  0  0  0  0
  2 10  1  0  0  0  0
 10 11  1  0  0  0  0
 11 12  1  0  0  0  0
  9 13  1  0  0  0  0
  6 14  2  0  0  0  0
 15 20  1  0  0  0  0
 12 16  1  0  0  0  0
  7 17  1  0  0  0  0
  7 18  1  0  0  0  0
  9 19  2  0  0  0  0
 18 20  1  0  0  0  0
 17 21  1  0  0  0  0
 16 22  1  0  0  0  0
 16 23  2  0  0  0  0
 24 27  2  0  0  0  0
 13 25  1  0  0  0  0
 22 26  2  0  0  0  0
 23 27  1  0  0  0  0
 24 28  1  0  0  0  0
 28 29  1  0  0  0  0
 25 30  1  0  0  0  0
 25 31  1  0  0  0  0
 31 32  1  0  0  0  0
 30 33  1  0  0  0  0
 33 34  1  0  0  0  0
 32 35  1  0  0  0  0
  3  5  1  0  0  0  0
 15 21  1  0  0  0  0
  8 12  1  0  0  0  0
 24 26  1  0  0  0  0
 34 35  1  0  0  0  0
M  END
> <MOLFORMULA>
C26 H35 N5 O4

> <MOLWEIGHT>
4.815935000000000e+002

> <IDNUMBER>
AT-687/PE20689

> <PRICE>
EUR 80/10 mg

$$$$

  -OEChem-04102411172D

 34 38  0     0  0  0  0  0  0999 V2000
    9.0917   -2.4500    0.0000 C   0  0  0  0  0  0  0  0  0  0  0  0
    7.7667   -2.4500    0.0000 C   0  0  0  0  0  0  0  0  0  0  0  0
    9.5042   -1.1750    0.0000 N   0  0  0  0  0  0  0  0  0  0  0  0
    7.3500   -1.1750    0.0000 N   0  0  3  0  0  0  0  0  0  0  0  0
    9.8667   -3.5250    0.0000 C   0  0  0  0  0  0  0  0  0  0  0  0
    8.4250   -0.3917    0.0000 C   0  0  0  0  0  0  0  0  0  0  0  0
   11.2000   -3.3917    0.0000 N   0  0  3  0  0  0  0  0  0  0  0  0
   15.1667   -2.9917    0.0000 C   0  0  0  0  0  0  0  0  0  0  0  0
    6.8667   -3.4250    0.0000 C   0  0  0  0  0  0  0  0  0  0  0  0
    5.5750   -3.1500    0.0000 O   0  0  0  0  0  0  0  0  0  0  0  0
    6.0750   -0.8917    0.0000 C   0  0  0  0  0  0  0  0  0  0  0  0
    5.1750   -1.8750    0.0000 C   0  0  3  0  0  0  0  0  0  0  0  0
   15.7000   -1.7750    0.0000 N   0  0  0  0  0  0  0  0  0  0  0  0
    9.3500   -4.7250    0.0000 O   0  0  0  0  0  0  0  0  0  0  0  0
   13.8417   -3.1292    0.0000 C   0  0  3  0  0  0  0  0  0  0  0  0
    3.8750   -1.5917    0.0000 C   0  0  0  0  0  0  0  0  0  0  0  0
   11.7250   -2.1750    0.0000 C   0  0  0  0  0  0  0  0  0  0  0  0
   11.9667   -4.4750    0.0000 C   0  0  0  0  0  0  0  0  0  0  0  0
   15.9417   -4.0667    0.0000 O   0  0  0  0  0  0  0  0  0  0  0  0
   13.3000   -4.3500    0.0000 C   0  0  0  0  0  0  0  0  0  0  0  0
   13.0667   -2.0292    0.0000 C   0  0  0  0  0  0  0  0  0  0  0  0
    3.4750   -0.3292    0.0000 C   0  0  0  0  0  0  0  0  0  0  0  0
    2.9750   -2.5750    0.0000 C   0  0  0  0  0  0  0  0  0  0  0  0
    1.2917   -1.0167    0.0000 C   0  0  0  0  0  0  0  0  0  0  0  0
   17.0250   -1.6500    0.0000 C   0  0  3  0  0  0  0  0  0  0  0  0
    2.1750   -0.0500    0.0000 C   0  0  0  0  0  0  0  0  0  0  0  0
    1.6750   -2.2750    0.0000 C   0  0  0  0  0  0  0  0  0  0  0  0
    0.0000   -0.7167    0.0000 F   0  0  0  0  0  0  0  0  0  0  0  0
   17.7250   -2.7917    0.0000 C   0  0  0  0  0  0  0  0  0  0  0  0
   17.4750   -0.3917    0.0000 C   0  0  0  0  0  0  0  0  0  0  0  0
   18.7542   -0.0000    0.0000 C   0  0  0  0  0  0  0  0  0  0  0  0
   19.0250   -2.9750    0.0000 C   0  0  0  0  0  0  0  0  0  0  0  0
   19.9750   -2.0292    0.0000 C   0  0  0  0  0  0  0  0  0  0  0  0
   19.8750   -0.7167    0.0000 C   0  0  0  0  0  0  0  0  0  0  0  0
  1  2  2  0  0  0  0
  1  3  1  0  0  0  0
  2  4  1  0  0  0  0
  1  5  1  0  0  0  0
  3  6  2  0  0  0  0
  5  7  1  0  0  0  0
  8 15  1  0  0  0  0
  2  9  1  0  0  0  0
  9 10  1  0  0  0  0
  4 11  1  0  0  0  0
 10 12  1  0  0  0  0
  8 13  1  0  0  0  0
  5 14  2  0  0  0  0
 15 20  1  0  0  0  0
 12 16  1  0  0  0  0
  7 17  1  0  0  0  0
  7 18  1  0  0  0  0
  8 19  2  0  0  0  0
 18 20  1  0  0  0  0
 17 21  1  0  0  0  0
 16 22  1  0  0  0  0
 16 23  2  0  0  0  0
 24 27  2  0  0  0  0
 13 25  1  0  0  0  0
 22 26  2  0  0  0  0
 23 27  1  0  0  0  0
 24 28  1  0  0  0  0
 25 29  1  0  0  0  0
 25 30  1  0  0  0  0
 30 31  1  0  0  0  0
 29 32  1  0  0  0  0
 32 33  1  0  0  0  0
 31 34  1  0  0  0  0
  4  6  1  0  0  0  0
 15 21  1  0  0  0  0
 11 12  1  0  0  0  0
 24 26  1  0  0  0  0
 33 34  1  0  0  0  0
M  END
> <MOLFORMULA>
C26 H33 F N4 O3

> <MOLWEIGHT>
4.685697000000000e+002

> <IDNUMBER>
AT-687/PE20953

> <PRICE>
EUR 80/10 mg

$$$$

  -OEChem-04102411172D

 28 31  0     0  0  0  0  0  0999 V2000
    0.2500   -0.1917    0.0000 N   0  0  3  0  0  0  0  0  0  0  0  0
   -0.3000   -1.7167    0.0000 N   0  0  0  0  0  0  0  0  0  0  0  0
    1.0375   -0.8125    0.0000 C   0  0  0  0  0  0  0  0  0  0  0  0
   -0.5833   -0.7542    0.0000 C   0  0  3  0  0  0  0  0  0  0  0  0
    0.6917   -1.7542    0.0000 C   0  0  0  0  0  0  0  0  0  0  0  0
    0.2875    0.8000    0.0000 C   0  0  0  0  0  0  0  0  0  0  0  0
    1.1667    1.2708    0.0000 C   0  0  0  0  0  0  0  0  0  0  0  0
    2.0000   -0.5375    0.0000 O   0  0  0  0  0  0  0  0  0  0  0  0
    1.2042    2.2708    0.0000 N   0  0  0  0  0  0  0  0  0  0  0  0
    1.2542   -2.5792    0.0000 C   0  0  0  0  0  0  0  0  0  0  0  0
    2.0167    0.7458    0.0000 O   0  0  0  0  0  0  0  0  0  0  0  0
   -0.7000    0.2333    0.0000 C   0  0  0  0  0  0  0  0  0  0  0  0
   -1.2833   -1.4750    0.0000 C   0  0  0  0  0  0  0  0  0  0  0  0
    0.3500    2.7958    0.0000 C   0  0  3  0  0  0  0  0  0  0  0  0
    2.2500   -2.5125    0.0000 C   0  0  0  0  0  0  0  0  0  0  0  0
    0.8125   -3.4792    0.0000 C   0  0  0  0  0  0  0  0  0  0  0  0
    0.3917    3.7958    0.0000 C   0  0  0  0  0  0  0  0  0  0  0  0
   -0.5333    2.3333    0.0000 C   0  0  0  0  0  0  0  0  0  0  0  0
   -2.2708   -1.3750    0.0000 C   0  0  0  0  0  0  0  0  0  0  0  0
   -1.5500    0.7583    0.0000 C   0  0  0  0  0  0  0  0  0  0  0  0
    1.3667   -4.3125    0.0000 C   0  0  0  0  0  0  0  0  0  0  0  0
    2.8042   -3.3417    0.0000 C   0  0  0  0  0  0  0  0  0  0  0  0
   -0.4625    4.3125    0.0000 C   0  0  0  0  0  0  0  0  0  0  0  0
   -1.3708    2.8458    0.0000 C   0  0  0  0  0  0  0  0  0  0  0  0
    2.3667   -4.2417    0.0000 C   0  0  0  0  0  0  0  0  0  0  0  0
   -2.8125   -0.5292    0.0000 C   0  0  0  0  0  0  0  0  0  0  0  0
   -1.3458    3.8458    0.0000 C   0  0  0  0  0  0  0  0  0  0  0  0
   -2.4958    0.4208    0.0000 C   0  0  0  0  0  0  0  0  0  0  0  0
  2  4  1  0  0  0  0
  1  3  1  0  0  0  0
  1  4  1  0  0  0  0
  3  5  1  0  0  0  0
  1  6  1  0  0  0  0
  6  7  1  0  0  0  0
  3  8  2  0  0  0  0
  7  9  1  0  0  0  0
  5 10  1  0  0  0  0
  7 11  2  0  0  0  0
  4 12  1  0  0  0  0
  4 13  1  0  0  0  0
  9 14  1  0  0  0  0
 10 15  1  0  0  0  0
 10 16  2  0  0  0  0
 14 17  1  0  0  0  0
 14 18  1  0  0  0  0
 13 19  1  0  0  0  0
 12 20  1  0  0  0  0
 16 21  1  0  0  0  0
 15 22  2  0  0  0  0
 17 23  1  0  0  0  0
 18 24  1  0  0  0  0
 21 25  2  0  0  0  0
 19 26  1  0  0  0  0
 24 27  1  0  0  0  0
 20 28  1  0  0  0  0
  2  5  2  0  0  0  0
 26 28  1  0  0  0  0
 22 25  1  0  0  0  0
 23 27  1  0  0  0  0
M  END
> <MOLFORMULA>
C23 H31 N3 O2

> <MOLWEIGHT>
3.815169000000000e+002

> <IDNUMBER>
AT-687/PE23078

> <PRICE>
EUR 80/10 mg

$$$$

  -OEChem-04102411172D

 28 31  0     0  0  0  0  0  0999 V2000
    0.2500   -0.7042    0.0000 N   0  0  3  0  0  0  0  0  0  0  0  0
   -0.3000   -2.2292    0.0000 N   0  0  0  0  0  0  0  0  0  0  0  0
    1.0417   -1.3250    0.0000 C   0  0  0  0  0  0  0  0  0  0  0  0
   -0.5833   -1.2667    0.0000 C   0  0  3  0  0  0  0  0  0  0  0  0
    0.6917   -2.2667    0.0000 C   0  0  0  0  0  0  0  0  0  0  0  0
    0.2875    0.2875    0.0000 C   0  0  0  0  0  0  0  0  0  0  0  0
    1.1667    0.7583    0.0000 C   0  0  0  0  0  0  0  0  0  0  0  0
    2.0000   -1.0542    0.0000 O   0  0  0  0  0  0  0  0  0  0  0  0
    1.2542   -3.0917    0.0000 C   0  0  0  0  0  0  0  0  0  0  0  0
    1.2042    1.7500    0.0000 N   0  0  0  0  0  0  0  0  0  0  0  0
    2.0167    0.2333    0.0000 O   0  0  0  0  0  0  0  0  0  0  0  0
    1.2125    3.8375    0.0000 O   0  0  0  0  0  0  0  0  0  0  0  0
   -1.2833   -1.9875    0.0000 C   0  0  0  0  0  0  0  0  0  0  0  0
   -0.7000   -0.2792    0.0000 C   0  0  0  0  0  0  0  0  0  0  0  0
    0.3500    2.2833    0.0000 C   0  0  0  0  0  0  0  0  0  0  0  0
    0.3875    3.2833    0.0000 C   0  0  3  0  0  0  0  0  0  0  0  0
    0.9292    4.7917    0.0000 C   0  0  0  0  0  0  0  0  0  0  0  0
    0.8125   -3.9917    0.0000 C   0  0  0  0  0  0  0  0  0  0  0  0
    2.2500   -3.0250    0.0000 C   0  0  0  0  0  0  0  0  0  0  0  0
   -0.4000    3.8958    0.0000 C   0  0  0  0  0  0  0  0  0  0  0  0
   -2.2750   -1.8875    0.0000 C   0  0  0  0  0  0  0  0  0  0  0  0
   -1.5500    0.2458    0.0000 C   0  0  0  0  0  0  0  0  0  0  0  0
   -0.0708    4.8250    0.0000 C   0  0  0  0  0  0  0  0  0  0  0  0
    2.8042   -3.8542    0.0000 C   0  0  0  0  0  0  0  0  0  0  0  0
    1.3667   -4.8250    0.0000 C   0  0  0  0  0  0  0  0  0  0  0  0
   -2.4958   -0.0917    0.0000 C   0  0  0  0  0  0  0  0  0  0  0  0
    2.3667   -4.7542    0.0000 C   0  0  0  0  0  0  0  0  0  0  0  0
   -2.8125   -1.0417    0.0000 C   0  0  0  0  0  0  0  0  0  0  0  0
  2  4  1  0  0  0  0
  1  3  1  0  0  0  0
  1  4  1  0  0  0  0
  3  5  1  0  0  0  0
  1  6  1  0  0  0  0
  6  7  1  0  0  0  0
  3  8  2  0  0  0  0
  5  9  1  0  0  0  0
  7 10  1  0  0  0  0
  7 11  2  0  0  0  0
 12 16  1  0  0  0  0
  4 13  1  0  0  0  0
  4 14  1  0  0  0  0
 10 15  1  0  0  0  0
 15 16  1  0  0  0  0
 12 17  1  0  0  0  0
  9 18  2  0  0  0  0
  9 19  1  0  0  0  0
 16 20  1  0  0  0  0
 13 21  1  0  0  0  0
 14 22  1  0  0  0  0
 20 23  1  0  0  0  0
 19 24  2  0  0  0  0
 18 25  1  0  0  0  0
 22 26  1  0  0  0  0
 24 27  1  0  0  0  0
 21 28  1  0  0  0  0
  2  5  2  0  0  0  0
 26 28  1  0  0  0  0
 25 27  2  0  0  0  0
 17 23  1  0  0  0  0
M  END
> <MOLFORMULA>
C22 H29 N3 O3

> <MOLWEIGHT>
3.834891000000000e+002

> <IDNUMBER>
AT-687/PE23079

> <PRICE>
EUR 80/10 mg

$$$$

  -OEChem-04102411172D

 30 33  0     0  0  0  0  0  0999 V2000
    9.6042   -0.6292    0.0000 N   0  0  3  0  0  0  0  0  0  0  0  0
   10.9375   -0.5125    0.0000 N   0  0  0  0  0  0  0  0  0  0  0  0
    9.7917    0.1708    0.0000 C   0  0  0  0  0  0  0  0  0  0  0  0
   10.3167   -1.0542    0.0000 C   0  0  3  0  0  0  0  0  0  0  0  0
   10.6042    0.2458    0.0000 C   0  0  0  0  0  0  0  0  0  0  0  0
    8.1667   -0.6167    0.0000 C   0  0  0  0  0  0  0  0  0  0  0  0
    8.8792   -1.0375    0.0000 C   0  0  0  0  0  0  0  0  0  0  0  0
    7.4417   -1.0250    0.0000 N   0  0  0  0  0  0  0  0  0  0  0  0
    6.7167   -0.6000    0.0000 C   0  0  0  0  0  0  0  0  0  0  0  0
    9.2542    0.8000    0.0000 O   0  0  0  0  0  0  0  0  0  0  0  0
   11.0000    0.9750    0.0000 C   0  0  0  0  0  0  0  0  0  0  0  0
    8.1750    0.2125    0.0000 O   0  0  0  0  0  0  0  0  0  0  0  0
    6.0042   -1.0125    0.0000 C   0  0  0  0  0  0  0  0  0  0  0  0
    9.6417   -1.5417    0.0000 C   0  0  0  0  0  0  0  0  0  0  0  0
   11.1125   -1.2792    0.0000 C   0  0  0  0  0  0  0  0  0  0  0  0
    6.7167    0.2333    0.0000 C   0  0  0  0  0  0  0  0  0  0  0  0
    6.0042   -1.8375    0.0000 C   0  0  0  0  0  0  0  0  0  0  0  0
   11.8250    1.0000    0.0000 C   0  0  0  0  0  0  0  0  0  0  0  0
   10.5625    1.6833    0.0000 C   0  0  0  0  0  0  0  0  0  0  0  0
    5.2917   -0.6000    0.0000 C   0  0  0  0  0  0  0  0  0  0  0  0
   11.4292   -2.0417    0.0000 C   0  0  0  0  0  0  0  0  0  0  0  0
    9.6042   -2.3667    0.0000 C   0  0  0  0  0  0  0  0  0  0  0  0
    5.2917   -2.2500    0.0000 C   0  0  0  0  0  0  0  0  0  0  0  0
    6.0042    0.6458    0.0000 C   0  0  0  0  0  0  0  0  0  0  0  0
   10.9542    2.4083    0.0000 C   0  0  0  0  0  0  0  0  0  0  0  0
    5.2917    0.2333    0.0000 C   0  0  0  0  0  0  0  0  0  0  0  0
   12.2167    1.7250    0.0000 C   0  0  0  0  0  0  0  0  0  0  0  0
   11.0375   -2.7667    0.0000 C   0  0  0  0  0  0  0  0  0  0  0  0
   10.2250   -2.9125    0.0000 C   0  0  0  0  0  0  0  0  0  0  0  0
   11.7792    2.4333    0.0000 C   0  0  0  0  0  0  0  0  0  0  0  0
  2  4  1  0  0  0  0
  1  3  1  0  0  0  0
  1  4  1  0  0  0  0
  3  5  1  0  0  0  0
  6  7  1  0  0  0  0
  1  7  1  0  0  0  0
  6  8  1  0  0  0  0
  8  9  1  0  0  0  0
  3 10  2  0  0  0  0
  5 11  1  0  0  0  0
  6 12  2  0  0  0  0
  9 13  1  0  0  0  0
  4 14  1  0  0  0  0
  4 15  1  0  0  0  0
  9 16  2  0  0  0  0
 13 17  1  0  0  0  0
 11 18  2  0  0  0  0
 11 19  1  0  0  0  0
 13 20  2  0  0  0  0
 15 21  1  0  0  0  0
 14 22  1  0  0  0  0
 17 23  1  0  0  0  0
 16 24  1  0  0  0  0
 19 25  2  0  0  0  0
 24 26  2  0  0  0  0
 18 27  1  0  0  0  0
 21 28  1  0  0  0  0
 22 29  1  0  0  0  0
 25 30  1  0  0  0  0
  2  5  2  0  0  0  0
 28 29  1  0  0  0  0
 27 30  2  0  0  0  0
 20 26  1  0  0  0  0
M  END
> <MOLFORMULA>
C25 H29 N3 O2

> <MOLWEIGHT>
4.035231000000000e+002

> <IDNUMBER>
AT-687/PE23080

> <PRICE>
EUR 80/10 mg

$$$$

  -OEChem-04102411172D

 30 33  0     0  0  0  0  0  0999 V2000
    0.2500   -1.4250    0.0000 N   0  0  3  0  0  0  0  0  0  0  0  0
   -0.3000   -2.9500    0.0000 N   0  0  0  0  0  0  0  0  0  0  0  0
    1.0417   -2.0417    0.0000 C   0  0  0  0  0  0  0  0  0  0  0  0
   -0.5833   -1.9875    0.0000 C   0  0  3  0  0  0  0  0  0  0  0  0
    0.6917   -2.9792    0.0000 C   0  0  0  0  0  0  0  0  0  0  0  0
    0.2875   -0.4292    0.0000 C   0  0  0  0  0  0  0  0  0  0  0  0
    1.1667    0.0458    0.0000 C   0  0  0  0  0  0  0  0  0  0  0  0
    2.0042   -1.7667    0.0000 O   0  0  0  0  0  0  0  0  0  0  0  0
    1.2542   -3.8125    0.0000 C   0  0  0  0  0  0  0  0  0  0  0  0
    1.2042    1.0333    0.0000 N   0  0  0  0  0  0  0  0  0  0  0  0
    2.0167   -0.4875    0.0000 O   0  0  0  0  0  0  0  0  0  0  0  0
   -0.7000   -0.9917    0.0000 C   0  0  0  0  0  0  0  0  0  0  0  0
   -1.2833   -2.7042    0.0000 C   0  0  0  0  0  0  0  0  0  0  0  0
    0.3625    1.5625    0.0000 C   0  0  0  0  0  0  0  0  0  0  0  0
    0.3917    2.5583    0.0000 C   0  0  0  0  0  0  0  0  0  0  0  0
    0.4542    4.5542    0.0000 C   0  0  0  0  0  0  0  0  0  0  0  0
    1.2750    3.0250    0.0000 C   0  0  0  0  0  0  0  0  0  0  0  0
   -0.4583    3.0833    0.0000 C   0  0  0  0  0  0  0  0  0  0  0  0
   -0.4208    4.0792    0.0000 C   0  0  0  0  0  0  0  0  0  0  0  0
    1.3042    4.0167    0.0000 C   0  0  0  0  0  0  0  0  0  0  0  0
    2.2500   -3.7417    0.0000 C   0  0  0  0  0  0  0  0  0  0  0  0
    0.8125   -4.7167    0.0000 C   0  0  0  0  0  0  0  0  0  0  0  0
    0.4875    5.5417    0.0000 C   0  0  0  0  0  0  0  0  0  0  0  0
   -1.5500   -0.4750    0.0000 C   0  0  0  0  0  0  0  0  0  0  0  0
   -2.2750   -2.6042    0.0000 C   0  0  0  0  0  0  0  0  0  0  0  0
    2.8125   -4.5750    0.0000 C   0  0  0  0  0  0  0  0  0  0  0  0
    1.3667   -5.5417    0.0000 C   0  0  0  0  0  0  0  0  0  0  0  0
   -2.8208   -1.7542    0.0000 C   0  0  0  0  0  0  0  0  0  0  0  0
   -2.4958   -0.8125    0.0000 C   0  0  0  0  0  0  0  0  0  0  0  0
    2.3667   -5.4792    0.0000 C   0  0  0  0  0  0  0  0  0  0  0  0
  2  4  1  0  0  0  0
  1  3  1  0  0  0  0
  1  4  1  0  0  0  0
  3  5  1  0  0  0  0
  1  6  1  0  0  0  0
  6  7  1  0  0  0  0
  3  8  2  0  0  0  0
  5  9  1  0  0  0  0
  7 10  1  0  0  0  0
  7 11  2  0  0  0  0
  4 12  1  0  0  0  0
  4 13  1  0  0  0  0
 10 14  1  0  0  0  0
 14 15  1  0  0  0  0
 16 19  1  0  0  0  0
 15 17  2  0  0  0  0
 15 18  1  0  0  0  0
 18 19  2  0  0  0  0
 17 20  1  0  0  0  0
  9 21  1  0  0  0  0
  9 22  2  0  0  0  0
 16 23  1  0  0  0  0
 12 24  1  0  0  0  0
 13 25  1  0  0  0  0
 21 26  2  0  0  0  0
 22 27  1  0  0  0  0
 25 28  1  0  0  0  0
 24 29  1  0  0  0  0
 27 30  2  0  0  0  0
  2  5  2  0  0  0  0
 28 29  1  0  0  0  0
 26 30  1  0  0  0  0
 16 20  2  0  0  0  0
M  END
> <MOLFORMULA>
C25 H29 N3 O2

> <MOLWEIGHT>
4.035231000000000e+002

> <IDNUMBER>
AT-687/PE23081

> <PRICE>
EUR 80/10 mg

$$$$

  -OEChem-04102411172D

 29 32  0     0  0  0  0  0  0999 V2000
    0.2500   -0.1917    0.0000 N   0  0  3  0  0  0  0  0  0  0  0  0
   -0.3000   -1.7125    0.0000 N   0  0  0  0  0  0  0  0  0  0  0  0
    1.0417   -0.8042    0.0000 C   0  0  0  0  0  0  0  0  0  0  0  0
   -0.5833   -0.7500    0.0000 C   0  0  3  0  0  0  0  0  0  0  0  0
    0.6917   -1.7500    0.0000 C   0  0  0  0  0  0  0  0  0  0  0  0
    1.1667    1.2750    0.0000 C   0  0  0  0  0  0  0  0  0  0  0  0
    0.2875    0.8083    0.0000 C   0  0  0  0  0  0  0  0  0  0  0  0
    1.2042    2.2708    0.0000 N   0  0  0  0  0  0  0  0  0  0  0  0
    0.3625    2.7958    0.0000 C   0  0  0  0  0  0  0  0  0  0  0  0
    2.0000   -0.5292    0.0000 O   0  0  0  0  0  0  0  0  0  0  0  0
    1.2542   -2.5792    0.0000 C   0  0  0  0  0  0  0  0  0  0  0  0
    2.0167    0.7458    0.0000 O   0  0  0  0  0  0  0  0  0  0  0  0
    0.3875    3.7958    0.0000 C   0  0  0  0  0  0  0  0  0  0  0  0
   -0.7000    0.2458    0.0000 C   0  0  0  0  0  0  0  0  0  0  0  0
   -1.2833   -1.4667    0.0000 C   0  0  0  0  0  0  0  0  0  0  0  0
   -0.5250    2.3333    0.0000 C   0  0  0  0  0  0  0  0  0  0  0  0
    2.2500   -2.5042    0.0000 C   0  0  0  0  0  0  0  0  0  0  0  0
    0.8125   -3.4792    0.0000 C   0  0  0  0  0  0  0  0  0  0  0  0
    1.2667    4.2542    0.0000 C   0  0  0  0  0  0  0  0  0  0  0  0
   -0.4583    4.3042    0.0000 C   0  0  0  0  0  0  0  0  0  0  0  0
   -2.2750   -1.3667    0.0000 C   0  0  0  0  0  0  0  0  0  0  0  0
   -1.5500    0.7625    0.0000 C   0  0  0  0  0  0  0  0  0  0  0  0
   -1.3750    2.8458    0.0000 C   0  0  0  0  0  0  0  0  0  0  0  0
    2.8125   -3.3375    0.0000 C   0  0  0  0  0  0  0  0  0  0  0  0
    1.3667   -4.3042    0.0000 C   0  0  0  0  0  0  0  0  0  0  0  0
   -1.3458    3.8583    0.0000 C   0  0  0  0  0  0  0  0  0  0  0  0
    2.3667   -4.2417    0.0000 C   0  0  0  0  0  0  0  0  0  0  0  0
   -2.8208   -0.5250    0.0000 C   0  0  0  0  0  0  0  0  0  0  0  0
   -2.4958    0.4208    0.0000 C   0  0  0  0  0  0  0  0  0  0  0  0
  2  4  1  0  0  0  0
  1  3  1  0  0  0  0
  1  4  1  0  0  0  0
  3  5  1  0  0  0  0
  6  7  1  0  0  0  0
  1  7  1  0  0  0  0
  6  8  1  0  0  0  0
  8  9  1  0  0  0  0
  3 10  2  0  0  0  0
  5 11  1  0  0  0  0
  6 12  2  0  0  0  0
  9 13  1  0  0  0  0
  4 14  1  0  0  0  0
  4 15  1  0  0  0  0
  9 16  2  0  0  0  0
 11 17  1  0  0  0  0
 11 18  2  0  0  0  0
 13 19  1  0  0  0  0
 13 20  2  0  0  0  0
 15 21  1  0  0  0  0
 14 22  1  0  0  0  0
 16 23  1  0  0  0  0
 17 24  2  0  0  0  0
 18 25  1  0  0  0  0
 23 26  2  0  0  0  0
 25 27  2  0  0  0  0
 21 28  1  0  0  0  0
 22 29  1  0  0  0  0
  2  5  2  0  0  0  0
 28 29  1  0  0  0  0
 24 27  1  0  0  0  0
 20 26  1  0  0  0  0
M  END
> <MOLFORMULA>
C24 H27 N3 O2

> <MOLWEIGHT>
3.894963000000000e+002

> <IDNUMBER>
AT-687/PE23082

> <PRICE>
EUR 80/10 mg

$$$$

  -OEChem-04102411172D

 29 32  0     0  0  0  0  0  0999 V2000
    0.2500   -0.1917    0.0000 N   0  0  3  0  0  0  0  0  0  0  0  0
   -0.3000   -1.7167    0.0000 N   0  0  0  0  0  0  0  0  0  0  0  0
    1.0417   -0.8125    0.0000 C   0  0  0  0  0  0  0  0  0  0  0  0
   -0.5833   -0.7542    0.0000 C   0  0  3  0  0  0  0  0  0  0  0  0
    0.6917   -1.7542    0.0000 C   0  0  0  0  0  0  0  0  0  0  0  0
    0.2875    0.8000    0.0000 C   0  0  0  0  0  0  0  0  0  0  0  0
    1.1667    1.2708    0.0000 C   0  0  0  0  0  0  0  0  0  0  0  0
    1.2042    2.2708    0.0000 N   0  0  0  0  0  0  0  0  0  0  0  0
    2.0042   -0.5417    0.0000 O   0  0  0  0  0  0  0  0  0  0  0  0
    1.2542   -2.5792    0.0000 C   0  0  0  0  0  0  0  0  0  0  0  0
    0.3542    2.7958    0.0000 C   0  0  0  0  0  0  0  0  0  0  0  0
    2.0167    0.7458    0.0000 O   0  0  0  0  0  0  0  0  0  0  0  0
   -0.5250    2.3375    0.0000 C   0  0  0  0  0  0  0  0  0  0  0  0
   -1.3708    2.8583    0.0000 C   0  0  0  0  0  0  0  0  0  0  0  0
   -1.2833   -1.4750    0.0000 C   0  0  0  0  0  0  0  0  0  0  0  0
   -0.7000    0.2333    0.0000 C   0  0  0  0  0  0  0  0  0  0  0  0
   -2.2583    2.4000    0.0000 Cl  0  0  0  0  0  0  0  0  0  0  0  0
   -0.4583    4.3167    0.0000 C   0  0  0  0  0  0  0  0  0  0  0  0
    0.3917    3.7958    0.0000 C   0  0  0  0  0  0  0  0  0  0  0  0
    0.8125   -3.4875    0.0000 C   0  0  0  0  0  0  0  0  0  0  0  0
    2.2500   -2.5125    0.0000 C   0  0  0  0  0  0  0  0  0  0  0  0
   -1.3333    3.8583    0.0000 C   0  0  0  0  0  0  0  0  0  0  0  0
   -2.2750   -1.3750    0.0000 C   0  0  0  0  0  0  0  0  0  0  0  0
   -1.5500    0.7583    0.0000 C   0  0  0  0  0  0  0  0  0  0  0  0
    1.3667   -4.3167    0.0000 C   0  0  0  0  0  0  0  0  0  0  0  0
    2.8125   -3.3417    0.0000 C   0  0  0  0  0  0  0  0  0  0  0  0
    2.3667   -4.2500    0.0000 C   0  0  0  0  0  0  0  0  0  0  0  0
   -2.8208   -0.5292    0.0000 C   0  0  0  0  0  0  0  0  0  0  0  0
   -2.4958    0.4208    0.0000 C   0  0  0  0  0  0  0  0  0  0  0  0
  2  4  1  0  0  0  0
  1  3  1  0  0  0  0
  1  4  1  0  0  0  0
  3  5  1  0  0  0  0
  1  6  1  0  0  0  0
  6  7  1  0  0  0  0
  7  8  1  0  0  0  0
  3  9  2  0  0  0  0
  5 10  1  0  0  0  0
  8 11  1  0  0  0  0
  7 12  2  0  0  0  0
 11 13  2  0  0  0  0
 13 14  1  0  0  0  0
  4 15  1  0  0  0  0
  4 16  1  0  0  0  0
 14 17  1  0  0  0  0
 18 19  2  0  0  0  0
 11 19  1  0  0  0  0
 10 20  2  0  0  0  0
 10 21  1  0  0  0  0
 18 22  1  0  0  0  0
 15 23  1  0  0  0  0
 16 24  1  0  0  0  0
 20 25  1  0  0  0  0
 21 26  2  0  0  0  0
 26 27  1  0  0  0  0
 23 28  1  0  0  0  0
 24 29  1  0  0  0  0
  2  5  2  0  0  0  0
 28 29  1  0  0  0  0
 25 27  2  0  0  0  0
 14 22  2  0  0  0  0
M  END
> <MOLFORMULA>
C23 H24 Cl N3 O2

> <MOLWEIGHT>
4.099146000000000e+002

> <IDNUMBER>
AT-687/PE23083

> <PRICE>
EUR 80/10 mg

$$$$

  -OEChem-04102411172D

 31 34  0     0  0  0  0  0  0999 V2000
    0.1542   -0.1917    0.0000 N   0  0  3  0  0  0  0  0  0  0  0  0
   -0.3958   -1.7167    0.0000 N   0  0  0  0  0  0  0  0  0  0  0  0
    0.9417   -0.8125    0.0000 C   0  0  0  0  0  0  0  0  0  0  0  0
   -0.6708   -0.7542    0.0000 C   0  0  3  0  0  0  0  0  0  0  0  0
    0.6042   -1.7542    0.0000 C   0  0  0  0  0  0  0  0  0  0  0  0
    1.0792    1.2708    0.0000 C   0  0  0  0  0  0  0  0  0  0  0  0
    0.1917    0.8000    0.0000 C   0  0  0  0  0  0  0  0  0  0  0  0
    1.1125    2.2708    0.0000 N   0  0  0  0  0  0  0  0  0  0  0  0
    0.2542    2.7958    0.0000 C   0  0  0  0  0  0  0  0  0  0  0  0
    1.9042   -0.5375    0.0000 O   0  0  0  0  0  0  0  0  0  0  0  0
    1.1542   -2.5792    0.0000 C   0  0  0  0  0  0  0  0  0  0  0  0
    1.9292    0.7458    0.0000 O   0  0  0  0  0  0  0  0  0  0  0  0
    0.2875    3.7958    0.0000 C   0  0  0  0  0  0  0  0  0  0  0  0
   -0.7958    0.2333    0.0000 C   0  0  0  0  0  0  0  0  0  0  0  0
   -1.3750   -1.4750    0.0000 C   0  0  0  0  0  0  0  0  0  0  0  0
    1.1750    4.2542    0.0000 O   0  0  0  0  0  0  0  0  0  0  0  0
   -0.6250    2.3333    0.0000 C   0  0  0  0  0  0  0  0  0  0  0  0
    0.7167   -3.4792    0.0000 C   0  0  0  0  0  0  0  0  0  0  0  0
    2.1542   -2.5125    0.0000 C   0  0  0  0  0  0  0  0  0  0  0  0
   -0.5500    4.3167    0.0000 C   0  0  0  0  0  0  0  0  0  0  0  0
    2.0292    3.7333    0.0000 C   0  0  0  0  0  0  0  0  0  0  0  0
   -1.6458    0.7583    0.0000 C   0  0  0  0  0  0  0  0  0  0  0  0
   -2.3708   -1.3750    0.0000 C   0  0  0  0  0  0  0  0  0  0  0  0
    2.9042    4.1917    0.0000 C   0  0  0  0  0  0  0  0  0  0  0  0
   -1.4708    2.8500    0.0000 C   0  0  0  0  0  0  0  0  0  0  0  0
    2.7167   -3.3417    0.0000 C   0  0  0  0  0  0  0  0  0  0  0  0
    1.2750   -4.3167    0.0000 C   0  0  0  0  0  0  0  0  0  0  0  0
   -1.4250    3.8583    0.0000 C   0  0  0  0  0  0  0  0  0  0  0  0
   -2.5875    0.4208    0.0000 C   0  0  0  0  0  0  0  0  0  0  0  0
    2.2792   -4.2500    0.0000 C   0  0  0  0  0  0  0  0  0  0  0  0
   -2.9083   -0.5292    0.0000 C   0  0  0  0  0  0  0  0  0  0  0  0
  2  4  1  0  0  0  0
  1  3  1  0  0  0  0
  1  4  1  0  0  0  0
  3  5  1  0  0  0  0
  6  7  1  0  0  0  0
  1  7  1  0  0  0  0
  6  8  1  0  0  0  0
  8  9  1  0  0  0  0
  3 10  2  0  0  0  0
  5 11  1  0  0  0  0
  6 12  2  0  0  0  0
  9 13  1  0  0  0  0
  4 14  1  0  0  0  0
  4 15  1  0  0  0  0
 13 16  1  0  0  0  0
  9 17  2  0  0  0  0
 11 18  2  0  0  0  0
 11 19  1  0  0  0  0
 13 20  2  0  0  0  0
 16 21  1  0  0  0  0
 14 22  1  0  0  0  0
 15 23  1  0  0  0  0
 21 24  1  0  0  0  0
 17 25  1  0  0  0  0
 19 26  2  0  0  0  0
 18 27  1  0  0  0  0
 25 28  2  0  0  0  0
 22 29  1  0  0  0  0
 26 30  1  0  0  0  0
 23 31  1  0  0  0  0
  2  5  2  0  0  0  0
 29 31  1  0  0  0  0
 27 30  2  0  0  0  0
 20 28  1  0  0  0  0
M  END
> <MOLFORMULA>
C25 H29 N3 O3

> <MOLWEIGHT>
4.195221000000000e+002

> <IDNUMBER>
AT-687/PE23084

> <PRICE>
EUR 80/10 mg

$$$$

  -OEChem-04102411172D

 27 29  0     0  0  0  0  0  0999 V2000
    4.5917   -6.8917    0.0000 C   0  0  0  0  0  0  0  0  0  0  0  0
    4.5917   -8.2250    0.0000 N   0  0  0  0  0  0  0  0  0  0  0  0
    2.2917   -6.8917    0.0000 C   0  0  0  0  0  0  0  0  0  0  0  0
    1.1542   -6.2250    0.0000 C   0  0  3  0  0  0  0  0  0  0  0  0
    3.4417   -6.2250    0.0000 C   0  0  0  0  0  0  0  0  0  0  0  0
    5.7417   -6.2167    0.0000 N   0  0  3  0  0  0  0  0  0  0  0  0
    2.2917   -8.2250    0.0000 N   0  0  0  0  0  0  0  0  0  0  0  0
    9.1917   -4.2250    0.0000 C   0  0  0  0  0  0  0  0  0  0  0  0
    3.4417   -8.8917    0.0000 C   0  0  0  0  0  0  0  0  0  0  0  0
    9.1917   -2.8917    0.0000 N   0  0  0  0  0  0  0  0  0  0  0  0
    8.0417   -4.8792    0.0000 C   0  0  3  0  0  0  0  0  0  0  0  0
    6.8917   -6.8750    0.0000 C   0  0  0  0  0  0  0  0  0  0  0  0
    5.7417   -4.8792    0.0000 C   0  0  0  0  0  0  0  0  0  0  0  0
   10.3500   -4.8792    0.0000 O   0  0  0  0  0  0  0  0  0  0  0  0
    0.0000   -5.5542    0.0000 F   0  0  0  0  0  0  0  0  0  0  0  0
    1.8000   -5.0750    0.0000 F   0  0  0  0  0  0  0  0  0  0  0  0
    0.4792   -7.3750    0.0000 F   0  0  0  0  0  0  0  0  0  0  0  0
    6.8917   -4.2250    0.0000 C   0  0  0  0  0  0  0  0  0  0  0  0
    8.0417   -6.2167    0.0000 C   0  0  0  0  0  0  0  0  0  0  0  0
   10.3500   -2.2417    0.0000 C   0  0  3  0  0  0  0  0  0  0  0  0
    3.4417  -10.2250    0.0000 C   0  0  0  0  0  0  0  0  0  0  0  0
   10.2500   -0.8917    0.0000 C   0  0  0  0  0  0  0  0  0  0  0  0
   11.4417   -2.9750    0.0000 C   0  0  0  0  0  0  0  0  0  0  0  0
   12.7000   -2.6000    0.0000 C   0  0  0  0  0  0  0  0  0  0  0  0
   11.2250   -0.0000    0.0000 C   0  0  0  0  0  0  0  0  0  0  0  0
   12.5542   -0.2167    0.0000 C   0  0  0  0  0  0  0  0  0  0  0  0
   13.2042   -1.3667    0.0000 C   0  0  0  0  0  0  0  0  0  0  0  0
  1  2  1  0  0  0  0
  3  5  1  0  0  0  0
  3  4  1  0  0  0  0
  1  5  2  0  0  0  0
  1  6  1  0  0  0  0
  3  7  2  0  0  0  0
  8 11  1  0  0  0  0
  2  9  2  0  0  0  0
  8 10  1  0  0  0  0
 11 18  1  0  0  0  0
  6 12  1  0  0  0  0
  6 13  1  0  0  0  0
  8 14  2  0  0  0  0
  4 15  1  0  0  0  0
  4 16  1  0  0  0  0
  4 17  1  0  0  0  0
 13 18  1  0  0  0  0
 12 19  1  0  0  0  0
 10 20  1  0  0  0  0
  9 21  1  0  0  0  0
 20 22  1  0  0  0  0
 20 23  1  0  0  0  0
 23 24  1  0  0  0  0
 22 25  1  0  0  0  0
 25 26  1  0  0  0  0
 24 27  1  0  0  0  0
  7  9  1  0  0  0  0
 11 19  1  0  0  0  0
 26 27  1  0  0  0  0
M  END
> <MOLFORMULA>
C19 H27 F3 N4 O

> <MOLWEIGHT>
3.844433000000000e+002

> <IDNUMBER>
AT-687/PE24604

> <PRICE>
EUR 80/10 mg

$$$$

  -OEChem-04102411172D

 29 32  0     0  0  0  0  0  0999 V2000
   12.2250   -1.6750    0.0000 C   0  0  0  0  0  0  0  0  0  0  0  0
   11.8000   -2.9250    0.0000 N   0  0  3  0  0  0  0  0  0  0  0  0
   10.0667   -1.6917    0.0000 C   0  0  0  0  0  0  0  0  0  0  0  0
   10.4750   -2.9417    0.0000 N   0  0  0  0  0  0  0  0  0  0  0  0
   11.1250   -0.8917    0.0000 C   0  0  0  0  0  0  0  0  0  0  0  0
   13.5000   -1.3750    0.0000 C   0  0  0  0  0  0  0  0  0  0  0  0
    8.7750   -1.2917    0.0000 C   0  0  0  0  0  0  0  0  0  0  0  0
   12.7000   -3.9167    0.0000 C   0  0  0  0  0  0  0  0  0  0  0  0
   14.4167   -2.3750    0.0000 N   0  0  0  0  0  0  0  0  0  0  0  0
    7.8167   -2.2000    0.0000 N   0  0  3  0  0  0  0  0  0  0  0  0
    4.9042   -4.9042    0.0000 C   0  0  0  0  0  0  0  0  0  0  0  0
   14.0000   -3.6250    0.0000 C   0  0  0  0  0  0  0  0  0  0  0  0
    3.6250   -4.5417    0.0000 N   0  0  0  0  0  0  0  0  0  0  0  0
   13.9250   -0.1167    0.0000 O   0  0  0  0  0  0  0  0  0  0  0  0
    5.8750   -4.0000    0.0000 C   0  0  3  0  0  0  0  0  0  0  0  0
    8.4792   -0.0000    0.0000 O   0  0  0  0  0  0  0  0  0  0  0  0
    8.1167   -3.4750    0.0000 C   0  0  0  0  0  0  0  0  0  0  0  0
    6.5292   -1.8000    0.0000 C   0  0  0  0  0  0  0  0  0  0  0  0
    5.2250   -6.2000    0.0000 O   0  0  0  0  0  0  0  0  0  0  0  0
    5.5667   -2.6917    0.0000 C   0  0  0  0  0  0  0  0  0  0  0  0
    7.1417   -4.3917    0.0000 C   0  0  0  0  0  0  0  0  0  0  0  0
    2.6917   -5.4542    0.0000 C   0  0  3  0  0  0  0  0  0  0  0  0
   14.8917   -4.6250    0.0000 C   0  0  0  0  0  0  0  0  0  0  0  0
    1.4792   -4.9000    0.0000 C   0  0  0  0  0  0  0  0  0  0  0  0
    3.0000   -6.7417    0.0000 C   0  0  0  0  0  0  0  0  0  0  0  0
    2.1792   -7.7792    0.0000 C   0  0  0  0  0  0  0  0  0  0  0  0
    0.2750   -5.4917    0.0000 C   0  0  0  0  0  0  0  0  0  0  0  0
    0.0000   -6.7792    0.0000 C   0  0  0  0  0  0  0  0  0  0  0  0
    0.8542   -7.8167    0.0000 C   0  0  0  0  0  0  0  0  0  0  0  0
  1  2  1  0  0  0  0
  3  5  1  0  0  0  0
  2  4  1  0  0  0  0
  1  5  2  0  0  0  0
  1  6  1  0  0  0  0
  3  7  1  0  0  0  0
  2  8  1  0  0  0  0
  6  9  1  0  0  0  0
  7 10  1  0  0  0  0
 11 15  1  0  0  0  0
  9 12  1  0  0  0  0
 11 13  1  0  0  0  0
  6 14  2  0  0  0  0
 15 20  1  0  0  0  0
  7 16  2  0  0  0  0
 10 17  1  0  0  0  0
 10 18  1  0  0  0  0
 11 19  2  0  0  0  0
 18 20  1  0  0  0  0
 17 21  1  0  0  0  0
 13 22  1  0  0  0  0
 12 23  1  0  0  0  0
 22 24  1  0  0  0  0
 22 25  1  0  0  0  0
 25 26  1  0  0  0  0
 24 27  1  0  0  0  0
 27 28  1  0  0  0  0
 26 29  1  0  0  0  0
  3  4  2  0  0  0  0
  8 12  2  0  0  0  0
 15 21  1  0  0  0  0
 28 29  1  0  0  0  0
M  END
> <MOLFORMULA>
C21 H29 N5 O3

> <MOLWEIGHT>
3.994921000000000e+002

> <IDNUMBER>
AT-687/PE23275

> <PRICE>
EUR 80/10 mg

$$$$

  -OEChem-04102411172D

 26 28  0     0  0  0  0  0  0999 V2000
    4.6000   -6.9000    0.0000 C   0  0  0  0  0  0  0  0  0  0  0  0
    1.1542   -6.2292    0.0000 C   0  0  3  0  0  0  0  0  0  0  0  0
    3.4500   -6.2250    0.0000 C   0  0  0  0  0  0  0  0  0  0  0  0
    5.7500   -6.2042    0.0000 N   0  0  3  0  0  0  0  0  0  0  0  0
    9.2000   -4.2250    0.0000 C   0  0  0  0  0  0  0  0  0  0  0  0
    2.3000   -6.9000    0.0000 C   0  0  0  0  0  0  0  0  0  0  0  0
    4.6000   -8.2250    0.0000 N   0  0  0  0  0  0  0  0  0  0  0  0
    9.2000   -2.8917    0.0000 N   0  0  0  0  0  0  0  0  0  0  0  0
    2.3000   -8.2250    0.0000 N   0  0  0  0  0  0  0  0  0  0  0  0
    3.4500   -8.8917    0.0000 C   0  0  0  0  0  0  0  0  0  0  0  0
    8.0500   -4.8792    0.0000 C   0  0  3  0  0  0  0  0  0  0  0  0
    6.9000   -6.8667    0.0000 C   0  0  0  0  0  0  0  0  0  0  0  0
    5.7500   -4.8792    0.0000 C   0  0  0  0  0  0  0  0  0  0  0  0
   10.3542   -4.8792    0.0000 O   0  0  0  0  0  0  0  0  0  0  0  0
    0.4792   -7.3792    0.0000 F   0  0  0  0  0  0  0  0  0  0  0  0
    0.0000   -5.5542    0.0000 F   0  0  0  0  0  0  0  0  0  0  0  0
    1.8000   -5.0792    0.0000 F   0  0  0  0  0  0  0  0  0  0  0  0
    6.9000   -4.2250    0.0000 C   0  0  0  0  0  0  0  0  0  0  0  0
    8.0500   -6.2042    0.0000 C   0  0  0  0  0  0  0  0  0  0  0  0
   10.3542   -2.2250    0.0000 C   0  0  3  0  0  0  0  0  0  0  0  0
   10.2417   -0.9000    0.0000 C   0  0  0  0  0  0  0  0  0  0  0  0
   11.4417   -2.9667    0.0000 C   0  0  0  0  0  0  0  0  0  0  0  0
   12.7042   -2.5792    0.0000 C   0  0  0  0  0  0  0  0  0  0  0  0
   11.2250   -0.0000    0.0000 C   0  0  0  0  0  0  0  0  0  0  0  0
   12.5667   -0.2000    0.0000 C   0  0  0  0  0  0  0  0  0  0  0  0
   13.2167   -1.3500    0.0000 C   0  0  0  0  0  0  0  0  0  0  0  0
  2  6  1  0  0  0  0
  1  3  2  0  0  0  0
  1  4  1  0  0  0  0
  5 11  1  0  0  0  0
  3  6  1  0  0  0  0
  1  7  1  0  0  0  0
  5  8  1  0  0  0  0
  9 10  1  0  0  0  0
  7 10  2  0  0  0  0
 11 18  1  0  0  0  0
  4 12  1  0  0  0  0
  4 13  1  0  0  0  0
  5 14  2  0  0  0  0
  2 15  1  0  0  0  0
  2 16  1  0  0  0  0
  2 17  1  0  0  0  0
 13 18  1  0  0  0  0
 12 19  1  0  0  0  0
  8 20  1  0  0  0  0
 20 21  1  0  0  0  0
 20 22  1  0  0  0  0
 22 23  1  0  0  0  0
 21 24  1  0  0  0  0
 24 25  1  0  0  0  0
 23 26  1  0  0  0  0
  6  9  2  0  0  0  0
 11 19  1  0  0  0  0
 25 26  1  0  0  0  0
M  END
> <MOLFORMULA>
C18 H25 F3 N4 O

> <MOLWEIGHT>
3.704165000000000e+002

> <IDNUMBER>
AT-687/PE24574

> <PRICE>
EUR 80/10 mg

$$$$

  -OEChem-04102411172D

 33 37  0     0  0  0  0  0  0999 V2000
   -3.3208    2.1875    0.0000 C   0  0  0  0  0  0  0  0  0  0  0  0
   -3.3125    1.3583    0.0000 C   0  0  0  0  0  0  0  0  0  0  0  0
   -1.8833    2.1875    0.0000 C   0  0  0  0  0  0  0  0  0  0  0  0
   -2.6083    2.6083    0.0000 N   0  0  0  0  0  0  0  0  0  0  0  0
   -1.8833    1.3583    0.0000 N   0  0  0  0  0  0  0  0  0  0  0  0
   -2.6000    0.9458    0.0000 C   0  0  0  0  0  0  0  0  0  0  0  0
   -4.1000    2.4333    0.0000 C   0  0  0  0  0  0  0  0  0  0  0  0
   -4.0958    1.1000    0.0000 S   0  0  0  0  0  0  0  0  0  0  0  0
   -1.1708    2.6000    0.0000 N   0  0  3  0  0  0  0  0  0  0  0  0
   -4.5833    1.7708    0.0000 C   0  0  0  0  0  0  0  0  0  0  0  0
    0.9750    2.1750    0.0000 C   0  0  0  0  0  0  0  0  0  0  0  0
    0.2542    2.5958    0.0000 C   0  0  3  0  0  0  0  0  0  0  0  0
   -0.4583    2.1833    0.0000 C   0  0  0  0  0  0  0  0  0  0  0  0
    1.6917    2.5875    0.0000 N   0  0  0  0  0  0  0  0  0  0  0  0
   -4.3625    3.2208    0.0000 C   0  0  0  0  0  0  0  0  0  0  0  0
   -2.6000    0.1208    0.0000 O   0  0  0  0  0  0  0  0  0  0  0  0
    0.9667    1.3500    0.0000 O   0  0  0  0  0  0  0  0  0  0  0  0
   -5.1708    3.3958    0.0000 C   0  0  0  0  0  0  0  0  0  0  0  0
   -3.8083    3.8375    0.0000 C   0  0  0  0  0  0  0  0  0  0  0  0
   -1.1708    3.4208    0.0000 C   0  0  0  0  0  0  0  0  0  0  0  0
    2.4042    2.1708    0.0000 C   0  0  3  0  0  0  0  0  0  0  0  0
   -4.0708    4.6167    0.0000 C   0  0  0  0  0  0  0  0  0  0  0  0
   -5.4333    4.1667    0.0000 C   0  0  0  0  0  0  0  0  0  0  0  0
   -4.8750    4.7792    0.0000 C   0  0  0  0  0  0  0  0  0  0  0  0
    0.2625    3.4208    0.0000 C   0  0  0  0  0  0  0  0  0  0  0  0
   -0.4583    3.8333    0.0000 C   0  0  0  0  0  0  0  0  0  0  0  0
   -5.1333    5.5667    0.0000 C   0  0  0  0  0  0  0  0  0  0  0  0
    2.3375    1.3500    0.0000 C   0  0  0  0  0  0  0  0  0  0  0  0
    3.0875    2.6458    0.0000 C   0  0  0  0  0  0  0  0  0  0  0  0
    3.8792    2.3958    0.0000 C   0  0  0  0  0  0  0  0  0  0  0  0
    2.9375    0.7833    0.0000 C   0  0  0  0  0  0  0  0  0  0  0  0
    4.1750    1.6083    0.0000 C   0  0  0  0  0  0  0  0  0  0  0  0
    3.7542    0.8958    0.0000 C   0  0  0  0  0  0  0  0  0  0  0  0
  1  2  2  0  0  0  0
  3  4  2  0  0  0  0
  1  4  1  0  0  0  0
  3  5  1  0  0  0  0
  2  6  1  0  0  0  0
  1  7  1  0  0  0  0
  2  8  1  0  0  0  0
  3  9  1  0  0  0  0
  7 10  2  0  0  0  0
 11 12  1  0  0  0  0
 12 13  1  0  0  0  0
  9 13  1  0  0  0  0
 11 14  1  0  0  0  0
  7 15  1  0  0  0  0
  6 16  2  0  0  0  0
 11 17  2  0  0  0  0
 15 18  2  0  0  0  0
 15 19  1  0  0  0  0
  9 20  1  0  0  0  0
 14 21  1  0  0  0  0
 19 22  2  0  0  0  0
 18 23  1  0  0  0  0
 22 24  1  0  0  0  0
 25 26  1  0  0  0  0
 20 26  1  0  0  0  0
 24 27  1  0  0  0  0
 21 28  1  0  0  0  0
 21 29  1  0  0  0  0
 29 30  1  0  0  0  0
 28 31  1  0  0  0  0
 30 32  1  0  0  0  0
 31 33  1  0  0  0  0
  8 10  1  0  0  0  0
  5  6  1  0  0  0  0
 23 24  2  0  0  0  0
 12 25  1  0  0  0  0
 32 33  1  0  0  0  0
M  END
> <MOLFORMULA>
C26 H32 N4 O2 S

> <MOLWEIGHT>
4.646308000000000e+002

> <IDNUMBER>
AT-687/PE25978

> <PRICE>
EUR 80/10 mg

$$$$

  -OEChem-04102411172D

 33 37  0     0  0  0  0  0  0999 V2000
   -2.1875    1.2083    0.0000 C   0  0  0  0  0  0  0  0  0  0  0  0
   -2.1833    0.3833    0.0000 C   0  0  0  0  0  0  0  0  0  0  0  0
   -0.7583    1.2083    0.0000 C   0  0  0  0  0  0  0  0  0  0  0  0
   -1.4708    1.6208    0.0000 N   0  0  0  0  0  0  0  0  0  0  0  0
   -2.9708    1.4583    0.0000 C   0  0  0  0  0  0  0  0  0  0  0  0
   -0.7583    0.3833    0.0000 N   0  0  0  0  0  0  0  0  0  0  0  0
   -1.4708   -0.0292    0.0000 C   0  0  0  0  0  0  0  0  0  0  0  0
   -2.9625    0.1208    0.0000 S   0  0  0  0  0  0  0  0  0  0  0  0
   -0.0458    1.6208    0.0000 N   0  0  3  0  0  0  0  0  0  0  0  0
   -3.4583    0.7875    0.0000 C   0  0  0  0  0  0  0  0  0  0  0  0
    2.0917    1.1875    0.0000 C   0  0  0  0  0  0  0  0  0  0  0  0
    1.3792    1.6083    0.0000 C   0  0  3  0  0  0  0  0  0  0  0  0
   -3.2333    2.2375    0.0000 C   0  0  0  0  0  0  0  0  0  0  0  0
    0.6667    1.2000    0.0000 C   0  0  0  0  0  0  0  0  0  0  0  0
    2.8125    1.5958    0.0000 N   0  0  0  0  0  0  0  0  0  0  0  0
   -1.4708   -0.8542    0.0000 O   0  0  0  0  0  0  0  0  0  0  0  0
    2.0917    0.3625    0.0000 O   0  0  0  0  0  0  0  0  0  0  0  0
   -4.0375    2.4000    0.0000 C   0  0  0  0  0  0  0  0  0  0  0  0
   -0.0458    2.4375    0.0000 C   0  0  0  0  0  0  0  0  0  0  0  0
    3.5167    1.1833    0.0000 C   0  0  3  0  0  0  0  0  0  0  0  0
    1.3875    2.4333    0.0000 C   0  0  0  0  0  0  0  0  0  0  0  0
   -2.6833    2.8583    0.0000 C   0  0  0  0  0  0  0  0  0  0  0  0
    0.6750    2.8500    0.0000 C   0  0  0  0  0  0  0  0  0  0  0  0
   -4.5833    1.7833    0.0000 C   0  0  0  0  0  0  0  0  0  0  0  0
   -4.3000    3.1833    0.0000 C   0  0  0  0  0  0  0  0  0  0  0  0
    3.4542    0.3625    0.0000 C   0  0  0  0  0  0  0  0  0  0  0  0
    4.2042    1.6458    0.0000 C   0  0  0  0  0  0  0  0  0  0  0  0
   -2.9458    3.6333    0.0000 C   0  0  0  0  0  0  0  0  0  0  0  0
   -3.7500    3.8083    0.0000 C   0  0  0  0  0  0  0  0  0  0  0  0
    4.9917    1.3875    0.0000 C   0  0  0  0  0  0  0  0  0  0  0  0
    4.0417   -0.2000    0.0000 C   0  0  0  0  0  0  0  0  0  0  0  0
    5.2875    0.6125    0.0000 C   0  0  0  0  0  0  0  0  0  0  0  0
    4.8667   -0.0875    0.0000 C   0  0  0  0  0  0  0  0  0  0  0  0
  1  2  2  0  0  0  0
  3  4  2  0  0  0  0
  1  4  1  0  0  0  0
  1  5  1  0  0  0  0
  3  6  1  0  0  0  0
  2  7  1  0  0  0  0
  2  8  1  0  0  0  0
  3  9  1  0  0  0  0
  5 10  2  0  0  0  0
 11 12  1  0  0  0  0
 12 14  1  0  0  0  0
  5 13  1  0  0  0  0
  9 14  1  0  0  0  0
 11 15  1  0  0  0  0
  7 16  2  0  0  0  0
 11 17  2  0  0  0  0
 13 18  1  0  0  0  0
  9 19  1  0  0  0  0
 15 20  1  0  0  0  0
 21 23  1  0  0  0  0
 13 22  2  0  0  0  0
 19 23  1  0  0  0  0
 18 24  1  0  0  0  0
 18 25  2  0  0  0  0
 20 26  1  0  0  0  0
 20 27  1  0  0  0  0
 22 28  1  0  0  0  0
 28 29  2  0  0  0  0
 27 30  1  0  0  0  0
 26 31  1  0  0  0  0
 30 32  1  0  0  0  0
 31 33  1  0  0  0  0
  8 10  1  0  0  0  0
  6  7  1  0  0  0  0
 25 29  1  0  0  0  0
 12 21  1  0  0  0  0
 32 33  1  0  0  0  0
M  END
> <MOLFORMULA>
C26 H32 N4 O2 S

> <MOLWEIGHT>
4.646308000000000e+002

> <IDNUMBER>
AT-687/PE26029

> <PRICE>
EUR 80/10 mg

$$$$

  -OEChem-04102411182D

 19 21  0     0  0  0  0  0  0999 V2000
    4.8750   -5.0542    0.0000 C   0  0  0  0  0  0  0  0  0  0  0  0
    5.3542   -3.8250    0.0000 N   0  0  0  0  0  0  0  0  0  0  0  0
    3.2250   -3.6792    0.0000 N   0  0  0  0  0  0  0  0  0  0  0  0
    3.5542   -4.9750    0.0000 C   0  0  0  0  0  0  0  0  0  0  0  0
    4.3500   -2.9750    0.0000 C   0  0  3  0  0  0  0  0  0  0  0  0
    2.6542   -5.9542    0.0000 C   0  0  0  0  0  0  0  0  0  0  0  0
    5.6000   -6.2042    0.0000 O   0  0  0  0  0  0  0  0  0  0  0  0
    3.0750   -7.2250    0.0000 C   0  0  0  0  0  0  0  0  0  0  0  0
    1.3667   -5.6750    0.0000 C   0  0  0  0  0  0  0  0  0  0  0  0
    0.4750   -6.6750    0.0000 C   0  0  0  0  0  0  0  0  0  0  0  0
    2.1750   -8.2167    0.0000 C   0  0  0  0  0  0  0  0  0  0  0  0
    0.8792   -7.9250    0.0000 C   0  0  0  0  0  0  0  0  0  0  0  0
    3.2500   -2.2292    0.0000 C   0  0  0  0  0  0  0  0  0  0  0  0
    5.6250   -2.5750    0.0000 C   0  0  0  0  0  0  0  0  0  0  0  0
    0.0000   -8.9042    0.0000 C   0  0  0  0  0  0  0  0  0  0  0  0
    6.1042   -1.3500    0.0000 C   0  0  0  0  0  0  0  0  0  0  0  0
    3.1542   -0.8792    0.0000 C   0  0  0  0  0  0  0  0  0  0  0  0
    4.1250   -0.0000    0.0000 C   0  0  0  0  0  0  0  0  0  0  0  0
    5.4417   -0.2000    0.0000 C   0  0  0  0  0  0  0  0  0  0  0  0
  1  2  1  0  0  0  0
  3  4  2  0  0  0  0
  1  4  1  0  0  0  0
  2  5  1  0  0  0  0
  4  6  1  0  0  0  0
  1  7  2  0  0  0  0
  6  8  1  0  0  0  0
  6  9  2  0  0  0  0
  9 10  1  0  0  0  0
  8 11  2  0  0  0  0
 10 12  2  0  0  0  0
  5 13  1  0  0  0  0
  5 14  1  0  0  0  0
 12 15  1  0  0  0  0
 14 16  1  0  0  0  0
 13 17  1  0  0  0  0
 17 18  1  0  0  0  0
 16 19  1  0  0  0  0
  3  5  1  0  0  0  0
 11 12  1  0  0  0  0
 18 19  1  0  0  0  0
M  END
> <MOLFORMULA>
C16 H20 N2 O

> <MOLWEIGHT>
2.563470000000000e+002

> <IDNUMBER>
AT-687/PE32443

> <PRICE>
EUR 80/10 mg

$$$$

  -OEChem-04102411182D

 18 20  0     0  0  0  0  0  0999 V2000
    3.5917   -3.9667    0.0000 C   0  0  0  0  0  0  0  0  0  0  0  0
    4.8792   -4.2500    0.0000 N   0  0  0  0  0  0  0  0  0  0  0  0
    4.6667   -2.1042    0.0000 N   0  0  0  0  0  0  0  0  0  0  0  0
    3.4500   -2.6500    0.0000 C   0  0  0  0  0  0  0  0  0  0  0  0
    5.5500   -3.0917    0.0000 C   0  0  3  0  0  0  0  0  0  0  0  0
    2.6000   -4.8542    0.0000 O   0  0  0  0  0  0  0  0  0  0  0  0
    2.3000   -1.9917    0.0000 C   0  0  0  0  0  0  0  0  0  0  0  0
    6.0500   -4.3167    0.0000 C   0  0  0  0  0  0  0  0  0  0  0  0
    6.2000   -1.9417    0.0000 C   0  0  0  0  0  0  0  0  0  0  0  0
    1.1500   -2.6500    0.0000 C   0  0  0  0  0  0  0  0  0  0  0  0
    2.3000   -0.6542    0.0000 C   0  0  0  0  0  0  0  0  0  0  0  0
    7.5250   -1.7250    0.0000 C   0  0  0  0  0  0  0  0  0  0  0  0
    7.3417   -4.7042    0.0000 C   0  0  0  0  0  0  0  0  0  0  0  0
    1.1500   -0.0000    0.0000 C   0  0  0  0  0  0  0  0  0  0  0  0
    0.0000   -1.9917    0.0000 C   0  0  0  0  0  0  0  0  0  0  0  0
    0.0000   -0.6542    0.0000 C   0  0  0  0  0  0  0  0  0  0  0  0
    8.5167   -2.6042    0.0000 C   0  0  0  0  0  0  0  0  0  0  0  0
    8.4250   -3.9417    0.0000 C   0  0  0  0  0  0  0  0  0  0  0  0
  1  2  1  0  0  0  0
  3  4  2  0  0  0  0
  1  4  1  0  0  0  0
  2  5  1  0  0  0  0
  1  6  2  0  0  0  0
  4  7  1  0  0  0  0
  5  8  1  0  0  0  0
  5  9  1  0  0  0  0
  7 10  1  0  0  0  0
  7 11  2  0  0  0  0
  9 12  1  0  0  0  0
  8 13  1  0  0  0  0
 11 14  1  0  0  0  0
 10 15  2  0  0  0  0
 14 16  2  0  0  0  0
 12 17  1  0  0  0  0
 13 18  1  0  0  0  0
  3  5  1  0  0  0  0
 15 16  1  0  0  0  0
 17 18  1  0  0  0  0
M  END
> <MOLFORMULA>
C15 H18 N2 O

> <MOLWEIGHT>
2.423202000000000e+002

> <IDNUMBER>
AT-687/PE32473

> <PRICE>
EUR 80/10 mg

$$$$

  -OEChem-04102411182D

 28 30  0     0  0  0  0  0  0999 V2000
   -1.5083   -1.5917    0.0000 S   0  0  3  0  0  0  0  0  0  0  0  0
   -0.6833   -0.1542    0.0000 C   0  0  0  0  0  0  0  0  0  0  0  0
   -0.6833   -1.5917    0.0000 N   0  0  3  0  0  0  0  0  0  0  0  0
   -1.9208   -0.8792    0.0000 N   0  0  0  0  0  0  0  0  0  0  0  0
   -0.2708   -0.8792    0.0000 C   0  0  0  0  0  0  0  0  0  0  0  0
   -0.2708    0.5500    0.0000 C   0  0  0  0  0  0  0  0  0  0  0  0
   -1.5083   -0.1542    0.0000 C   0  0  0  0  0  0  0  0  0  0  0  0
   -0.2708   -2.3042    0.0000 C   0  0  0  0  0  0  0  0  0  0  0  0
   -2.2208   -2.0042    0.0000 O   0  0  0  0  0  0  0  0  0  0  0  0
   -1.5083   -2.4167    0.0000 O   0  0  0  0  0  0  0  0  0  0  0  0
   -0.6833    1.2583    0.0000 N   0  0  0  0  0  0  0  0  0  0  0  0
    0.5542   -2.3042    0.0000 C   0  0  0  0  0  0  0  0  0  0  0  0
    0.5542    0.5500    0.0000 O   0  0  0  0  0  0  0  0  0  0  0  0
    0.9667   -3.0250    0.0000 C   0  0  0  0  0  0  0  0  0  0  0  0
   -0.2708    1.9833    0.0000 C   0  0  3  0  0  0  0  0  0  0  0  0
   -1.9208    0.5500    0.0000 C   0  0  0  0  0  0  0  0  0  0  0  0
    0.5542   -3.7375    0.0000 O   0  0  0  0  0  0  0  0  0  0  0  0
    0.9667   -1.5917    0.0000 C   0  0  0  0  0  0  0  0  0  0  0  0
    1.7917   -3.0250    0.0000 C   0  0  0  0  0  0  0  0  0  0  0  0
   -0.2708   -3.7375    0.0000 C   0  0  0  0  0  0  0  0  0  0  0  0
   -0.7333    2.6625    0.0000 C   0  0  0  0  0  0  0  0  0  0  0  0
    0.5542    1.9208    0.0000 C   0  0  0  0  0  0  0  0  0  0  0  0
    1.7917   -1.5917    0.0000 C   0  0  0  0  0  0  0  0  0  0  0  0
    2.2042   -2.3042    0.0000 C   0  0  0  0  0  0  0  0  0  0  0  0
    1.1125    2.5208    0.0000 C   0  0  0  0  0  0  0  0  0  0  0  0
   -0.4875    3.4375    0.0000 C   0  0  0  0  0  0  0  0  0  0  0  0
    0.2792    3.7333    0.0000 C   0  0  0  0  0  0  0  0  0  0  0  0
    0.9875    3.3208    0.0000 C   0  0  0  0  0  0  0  0  0  0  0  0
  2  7  1  0  0  0  0
  1  3  1  0  0  0  0
  1  4  1  0  0  0  0
  3  5  1  0  0  0  0
  2  6  1  0  0  0  0
  4  7  2  0  0  0  0
  3  8  1  0  0  0  0
  1  9  2  0  0  0  0
  1 10  2  0  0  0  0
  6 11  1  0  0  0  0
  8 12  1  0  0  0  0
  6 13  2  0  0  0  0
 12 14  2  0  0  0  0
 11 15  1  0  0  0  0
  7 16  1  0  0  0  0
 14 17  1  0  0  0  0
 12 18  1  0  0  0  0
 14 19  1  0  0  0  0
 17 20  1  0  0  0  0
 15 21  1  0  0  0  0
 15 22  1  0  0  0  0
 18 23  2  0  0  0  0
 23 24  1  0  0  0  0
 22 25  1  0  0  0  0
 21 26  1  0  0  0  0
 26 27  1  0  0  0  0
 25 28  1  0  0  0  0
  2  5  2  0  0  0  0
 19 24  2  0  0  0  0
 27 28  1  0  0  0  0
M  END
> <MOLFORMULA>
C20 H27 N3 O4 S

> <MOLWEIGHT>
4.055163000000000e+002

> <IDNUMBER>
AT-687/SK00985

> <PRICE>
EUR 80/10 mg

$$$$

  -OEChem-04102411182D

 27 29  0     0  0  0  0  0  0999 V2000
    1.4917    1.2458    0.0000 S   0  0  3  0  0  0  0  0  0  0  0  0
    0.6667   -0.1750    0.0000 C   0  0  0  0  0  0  0  0  0  0  0  0
    1.9042    0.5375    0.0000 N   0  0  0  0  0  0  0  0  0  0  0  0
    0.6667    1.2458    0.0000 N   0  0  3  0  0  0  0  0  0  0  0  0
    0.2542    0.5375    0.0000 C   0  0  0  0  0  0  0  0  0  0  0  0
    0.2542   -0.8917    0.0000 C   0  0  0  0  0  0  0  0  0  0  0  0
    1.4917   -0.1750    0.0000 C   0  0  0  0  0  0  0  0  0  0  0  0
    2.2042    1.6583    0.0000 O   0  0  0  0  0  0  0  0  0  0  0  0
    1.4917    2.0708    0.0000 O   0  0  0  0  0  0  0  0  0  0  0  0
    0.6667   -1.6042    0.0000 N   0  0  0  0  0  0  0  0  0  0  0  0
    0.2542    1.9625    0.0000 C   0  0  0  0  0  0  0  0  0  0  0  0
   -0.5708   -0.8917    0.0000 O   0  0  0  0  0  0  0  0  0  0  0  0
   -0.5708    1.9625    0.0000 C   0  0  0  0  0  0  0  0  0  0  0  0
    0.2542   -2.3167    0.0000 C   0  0  3  0  0  0  0  0  0  0  0  0
    1.9042   -0.8917    0.0000 C   0  0  0  0  0  0  0  0  0  0  0  0
   -0.9833    2.6833    0.0000 C   0  0  0  0  0  0  0  0  0  0  0  0
   -1.8083    2.6833    0.0000 C   0  0  0  0  0  0  0  0  0  0  0  0
   -0.5708    3.3833    0.0000 C   0  0  0  0  0  0  0  0  0  0  0  0
   -0.5708   -2.2542    0.0000 C   0  0  0  0  0  0  0  0  0  0  0  0
    0.7167   -3.0042    0.0000 C   0  0  0  0  0  0  0  0  0  0  0  0
   -0.9833    4.0917    0.0000 C   0  0  0  0  0  0  0  0  0  0  0  0
   -2.2208    3.3833    0.0000 C   0  0  0  0  0  0  0  0  0  0  0  0
    0.4667   -3.7917    0.0000 C   0  0  0  0  0  0  0  0  0  0  0  0
   -1.1250   -2.8667    0.0000 C   0  0  0  0  0  0  0  0  0  0  0  0
   -1.8083    4.0917    0.0000 C   0  0  0  0  0  0  0  0  0  0  0  0
   -1.0083   -3.6792    0.0000 C   0  0  0  0  0  0  0  0  0  0  0  0
   -0.2958   -4.0917    0.0000 C   0  0  0  0  0  0  0  0  0  0  0  0
  2  5  2  0  0  0  0
  1  3  1  0  0  0  0
  1  4  1  0  0  0  0
  4  5  1  0  0  0  0
  2  6  1  0  0  0  0
  3  7  2  0  0  0  0
  1  8  2  0  0  0  0
  1  9  2  0  0  0  0
  6 10  1  0  0  0  0
  4 11  1  0  0  0  0
  6 12  2  0  0  0  0
 11 13  1  0  0  0  0
 10 14  1  0  0  0  0
  7 15  1  0  0  0  0
 13 16  1  0  0  0  0
 16 17  1  0  0  0  0
 16 18  2  0  0  0  0
 14 19  1  0  0  0  0
 14 20  1  0  0  0  0
 18 21  1  0  0  0  0
 17 22  2  0  0  0  0
 20 23  1  0  0  0  0
 19 24  1  0  0  0  0
 21 25  2  0  0  0  0
 24 26  1  0  0  0  0
 23 27  1  0  0  0  0
  2  7  1  0  0  0  0
 22 25  1  0  0  0  0
 26 27  1  0  0  0  0
M  END
> <MOLFORMULA>
C20 H27 N3 O3 S

> <MOLWEIGHT>
3.895173000000000e+002

> <IDNUMBER>
AT-687/SK01028

> <PRICE>
EUR 80/10 mg

$$$$

  -OEChem-04102411182D

 27 29  0     0  0  0  0  0  0999 V2000
   -1.9208   -1.9500    0.0000 S   0  0  3  0  0  0  0  0  0  0  0  0
   -1.0958   -0.5167    0.0000 C   0  0  0  0  0  0  0  0  0  0  0  0
   -1.0958   -1.9500    0.0000 N   0  0  3  0  0  0  0  0  0  0  0  0
   -2.3333   -1.2292    0.0000 N   0  0  0  0  0  0  0  0  0  0  0  0
   -0.6833   -1.2292    0.0000 C   0  0  0  0  0  0  0  0  0  0  0  0
   -0.6833    0.1958    0.0000 C   0  0  0  0  0  0  0  0  0  0  0  0
   -1.9208   -0.5167    0.0000 C   0  0  0  0  0  0  0  0  0  0  0  0
   -2.6250   -2.3625    0.0000 O   0  0  0  0  0  0  0  0  0  0  0  0
   -1.9208   -2.7750    0.0000 O   0  0  0  0  0  0  0  0  0  0  0  0
   -1.0958    0.9083    0.0000 N   0  0  0  0  0  0  0  0  0  0  0  0
   -0.6833   -2.6625    0.0000 C   0  0  0  0  0  0  0  0  0  0  0  0
    0.1417    0.1958    0.0000 O   0  0  0  0  0  0  0  0  0  0  0  0
    0.1417   -2.6625    0.0000 C   0  0  0  0  0  0  0  0  0  0  0  0
    1.7917   -2.6625    0.0000 C   0  0  0  0  0  0  0  0  0  0  0  0
   -0.6833    1.6208    0.0000 C   0  0  3  0  0  0  0  0  0  0  0  0
    2.6167   -2.6625    0.0000 F   0  0  0  0  0  0  0  0  0  0  0  0
    0.5542   -3.3792    0.0000 C   0  0  0  0  0  0  0  0  0  0  0  0
    0.5542   -1.9500    0.0000 C   0  0  0  0  0  0  0  0  0  0  0  0
    1.3792   -1.9500    0.0000 C   0  0  0  0  0  0  0  0  0  0  0  0
    1.3792   -3.3792    0.0000 C   0  0  0  0  0  0  0  0  0  0  0  0
   -2.3333    0.1958    0.0000 C   0  0  0  0  0  0  0  0  0  0  0  0
    0.1417    1.5583    0.0000 C   0  0  0  0  0  0  0  0  0  0  0  0
   -1.1458    2.3000    0.0000 C   0  0  0  0  0  0  0  0  0  0  0  0
   -0.9000    3.0958    0.0000 C   0  0  0  0  0  0  0  0  0  0  0  0
    0.7000    2.1708    0.0000 C   0  0  0  0  0  0  0  0  0  0  0  0
    0.5750    2.9833    0.0000 C   0  0  0  0  0  0  0  0  0  0  0  0
   -0.1333    3.3833    0.0000 C   0  0  0  0  0  0  0  0  0  0  0  0
  2  7  1  0  0  0  0
  1  3  1  0  0  0  0
  1  4  1  0  0  0  0
  3  5  1  0  0  0  0
  2  6  1  0  0  0  0
  4  7  2  0  0  0  0
  1  8  2  0  0  0  0
  1  9  2  0  0  0  0
  6 10  1  0  0  0  0
  3 11  1  0  0  0  0
  6 12  2  0  0  0  0
 11 13  1  0  0  0  0
 14 19  1  0  0  0  0
 10 15  1  0  0  0  0
 14 16  1  0  0  0  0
 13 17  2  0  0  0  0
 13 18  1  0  0  0  0
 18 19  2  0  0  0  0
 17 20  1  0  0  0  0
  7 21  1  0  0  0  0
 15 22  1  0  0  0  0
 15 23  1  0  0  0  0
 23 24  1  0  0  0  0
 22 25  1  0  0  0  0
 25 26  1  0  0  0  0
 24 27  1  0  0  0  0
  2  5  2  0  0  0  0
 14 20  2  0  0  0  0
 26 27  1  0  0  0  0
M  END
> <MOLFORMULA>
C19 H24 F N3 O3 S

> <MOLWEIGHT>
3.934806000000000e+002

> <IDNUMBER>
AT-687/SK00952

> <PRICE>
EUR 80/10 mg

$$$$
