4gv1_ligand
     RDKit          3D

 30 33  0  0  0  0  0  0  0  0999 V2000
  -16.1850   -0.4780    9.5900 Cl  0  0  0  0  0  0  0  0  0  0  0  0
  -16.7230    0.6360   10.7890 C   0  0  0  0  0  0  0  0  0  0  0  0
  -18.0150    0.5540   11.2850 C   0  0  0  0  0  0  0  0  0  0  0  0
  -18.4180    1.4630   12.2500 C   0  0  0  0  0  0  0  0  0  0  0  0
  -15.8340    1.6050   11.2380 C   0  0  0  0  0  0  0  0  0  0  0  0
  -16.2390    2.5110   12.2170 C   0  0  0  0  0  0  0  0  0  0  0  0
  -17.5340    2.4390   12.7240 C   0  0  0  0  0  0  0  0  0  0  0  0
  -18.0120    3.4110   13.7970 C   0  0  2  0  0  0  0  0  0  0  0  0
  -18.3850    2.6590   15.0960 C   0  0  0  0  0  0  0  0  0  0  0  0
  -18.7820    3.5840   16.2550 C   0  0  0  0  0  0  0  0  0  0  0  0
  -17.7080    4.4200   16.6410 O   0  0  0  0  0  0  0  0  0  0  0  0
  -19.1830    4.1310   13.2710 N   0  0  0  0  0  0  0  0  0  0  0  0
  -19.0740    5.1350   12.3450 C   0  0  0  0  0  0  0  0  0  0  0  0
  -17.9650    5.4540   11.9130 O   0  0  0  0  0  0  0  0  0  0  0  0
  -20.3800    5.7800   11.8600 C   0  0  0  0  0  0  0  0  0  0  0  0
  -20.0940    6.9710   10.9410 C   0  0  0  0  0  0  0  0  0  0  0  0
  -19.5770    6.5580    9.5390 C   0  0  0  0  0  0  0  0  0  0  0  0
  -21.1720    6.2410   13.0230 N   0  0  0  0  0  4  0  0  0  0  0  0
  -21.1950    4.6930   11.0970 C   0  0  0  0  0  0  0  0  0  0  0  0
  -20.5100    4.3260    9.7760 C   0  0  0  0  0  0  0  0  0  0  0  0
  -20.5900    5.5900    9.0610 N   0  0  0  0  0  0  0  0  0  0  0  0
  -21.6660    6.0240    8.2730 C   0  0  0  0  0  0  0  0  0  0  0  0
  -21.6200    7.3640    7.9470 N   0  0  0  0  0  0  0  0  0  0  0  0
  -22.6390    7.9730    7.2530 C   0  0  0  0  0  0  0  0  0  0  0  0
  -23.7110    7.2450    6.8310 N   0  0  0  0  0  0  0  0  0  0  0  0
  -22.7820    5.2800    7.8780 C   0  0  0  0  0  0  0  0  0  0  0  0
  -23.2330    3.9630    7.9850 C   0  0  0  0  0  0  0  0  0  0  0  0
  -24.4320    3.8200    7.3100 C   0  0  0  0  0  0  0  0  0  0  0  0
  -24.7380    5.0480    6.8510 N   0  0  0  0  0  0  0  0  0  0  0  0
  -23.7630    5.9140    7.1610 C   0  0  0  0  0  0  0  0  0  0  0  0
  1  2  1  0
  2  3  2  0
  2  5  1  0
  3  4  1  0
  4  7  2  0
  5  6  2  0
  6  7  1  0
  7  8  1  0
  8  9  1  1
  8 12  1  0
  9 10  1  0
 10 11  1  0
 12 13  1  0
 13 14  2  0
 13 15  1  0
 15 16  1  0
 15 18  1  0
 15 19  1  0
 16 17  1  0
 17 21  1  0
 19 20  1  0
 20 21  1  0
 21 22  1  0
 22 23  2  0
 22 26  1  0
 23 24  1  0
 24 25  2  0
 25 30  1  0
 26 27  1  0
 26 30  2  0
 27 28  2  0
 28 29  1  0
 29 30  1  0
M  CHG  1  18   1
M  END
>  <_TriposChargeType>  (1) 
GAST_HUCK

$$$$
