# created with PyMOL 2.4.0
@<TRIPOS>MOLECULE
obj01
73 79 1                 
SMALL
USER_CHARGES
@<TRIPOS>ATOM
1	 CL1	11.093	16.252	32.491	Cl	1	UNK900	0.000	
2	  C1	4.350	11.407	42.227	C.2	1	UNK900	0.000	
3	  N1	2.484	11.869	40.713	N.2	1	UNK900	0.000	
4	  O1	6.234	12.855	42.260	O.3	1	UNK900	0.000	
5	  C2	3.103	11.127	41.630	C.2	1	UNK900	0.000	
6	  N2	4.412	13.352	40.788	N.2	1	UNK900	0.000	
7	  O2	9.309	16.976	40.380	O.2	1	UNK900	0.000	
8	  C3	3.200	12.956	40.323	C.2	1	UNK900	0.000	
9	  N3	2.670	9.932	42.144	N.2	1	UNK900	0.000	
10	  C4	4.984	12.563	41.746	C.2	1	UNK900	0.000	
11	  N4	8.693	15.420	38.837	N.2	1	UNK900	0.000	
12	  C5	4.596	10.365	43.183	C.2	1	UNK900	0.000	
13	  N5	10.080	17.313	38.228	N.pl3	1	UNK900	0.000	
14	  C6	3.548	9.449	43.096	C.2	1	UNK900	0.000	
15	  N6	2.338	4.354	45.427	N.pl3	1	UNK900	0.000	
16	  C7	7.001	13.900	41.794	C.2	1	UNK900	0.000	
17	  N7	-1.435	2.956	43.916	N.4	1	UNK900	0.000	
18	  C8	7.405	13.977	40.450	C.2	1	UNK900	0.000	
19	  C9	8.193	15.068	40.057	C.2	1	UNK900	0.000	
20	 C10	8.578	16.021	41.013	C.2	1	UNK900	0.000	
21	 C11	8.219	15.943	42.359	C.2	1	UNK900	0.000	
22	 C12	7.413	14.863	42.719	C.2	1	UNK900	0.000	
23	 C13	9.325	16.555	39.081	C.2	1	UNK900	0.000	
24	 C14	10.289	17.065	36.860	C.2	1	UNK900	0.000	
25	 C15	11.539	17.356	36.312	C.2	1	UNK900	0.000	
26	 C16	11.792	17.098	34.965	C.2	1	UNK900	0.000	
27	 C17	10.786	16.566	34.160	C.2	1	UNK900	0.000	
28	 C18	9.527	16.295	34.692	C.2	1	UNK900	0.000	
29	 C19	9.277	16.556	36.037	C.2	1	UNK900	0.000	
30	 C20	3.288	8.144	43.792	C.2	1	UNK900	0.000	
31	 C21	1.949	7.773	43.984	C.2	1	UNK900	0.000	
32	 C22	1.610	6.536	44.520	C.2	1	UNK900	0.000	
33	 C23	2.604	5.635	44.907	C.2	1	UNK900	0.000	
34	 C24	3.941	6.017	44.775	C.2	1	UNK900	0.000	
35	 C25	4.296	7.247	44.206	C.2	1	UNK900	0.000	
36	 C26	5.777	7.537	44.002	C.3	1	UNK900	0.000	
37	 C27	1.208	3.497	45.047	C.3	1	UNK900	0.000	
38	 C28	0.987	3.447	43.520	C.3	1	UNK900	0.000	
39	 C29	-0.171	2.508	43.147	C.3	1	UNK900	0.000	
40	 C30	-1.241	2.913	45.453	C.3	1	UNK900	0.000	
41	 C31	-0.069	3.833	45.843	C.3	1	UNK900	0.000	
42	 C32	-2.639	2.082	43.504	C.3	1	UNK900	0.000	
43	  H1	2.734	13.591	39.580	 H	1	UNK900	0.000	
44	  H2	5.451	10.280	43.836	 H	1	UNK900	0.000	
45	  H3	1.848	9.423	41.856	 H	1	UNK900	0.000	
46	  H4	7.098	13.231	39.735	 H	1	UNK900	0.000	
47	  H5	8.531	16.683	43.079	 H	1	UNK900	0.000	
48	  H6	7.093	14.765	43.745	 H	1	UNK900	0.000	
49	  H7	10.719	17.986	38.649	 H	1	UNK900	0.000	
50	  H8	12.322	17.767	36.933	 H	1	UNK900	0.000	
51	  H9	12.764	17.314	34.547	 H	1	UNK900	0.000	
52	 H10	8.746	15.887	34.067	 H	1	UNK900	0.000	
53	 H11	8.293	16.351	36.435	 H	1	UNK900	0.000	
54	 H12	1.149	8.437	43.695	 H	1	UNK900	0.000	
55	 H13	0.565	6.303	44.605	 H	1	UNK900	0.000	
56	 H14	4.722	5.333	45.077	 H	1	UNK900	0.000	
57	 H15	6.133	8.248	44.748	 H	1	UNK900	0.000	
58	 H16	5.963	7.939	43.007	 H	1	UNK900	0.000	
59	 H17	6.382	6.633	44.091	 H	1	UNK900	0.000	
60	 H18	3.170	3.846	45.692	 H	1	UNK900	0.000	
61	 H19	1.520	2.494	45.348	 H	1	UNK900	0.000	
62	 H20	1.893	3.093	43.029	 H	1	UNK900	0.000	
63	 H21	0.777	4.434	43.111	 H	1	UNK900	0.000	
64	 H22	-0.397	2.556	42.079	 H	1	UNK900	0.000	
65	 H23	0.033	1.472	43.424	 H	1	UNK900	0.000	
66	 H24	-2.175	3.242	45.911	 H	1	UNK900	0.000	
67	 H25	-1.051	1.873	45.725	 H	1	UNK900	0.000	
68	 H26	0.131	3.727	46.911	 H	1	UNK900	0.000	
69	 H27	-0.385	4.864	45.711	 H	1	UNK900	0.000	
70	 H28	-3.516	2.459	44.032	 H	1	UNK900	0.000	
71	 H29	-2.426	1.047	43.774	 H	1	UNK900	0.000	
72	 H30	-2.770	2.198	42.427	 H	1	UNK900	0.000	
73	 H31	-1.636	3.910	43.637	 H	1	UNK900	0.000	
@<TRIPOS>BOND
1 2 5 ar
2 2 10 ar
3 2 12 ar
4 3 8 ar
5 4 16 1
6 3 5 ar
7 5 9 ar
8 6 10 ar
9 6 8 ar
10 8 43 1
11 9 45 1
12 4 10 1
13 11 23 ar
14 12 14 ar
15 12 44 1
16 13 24 1
17 13 49 1
18 9 14 ar
19 14 30 1
20 15 37 1
21 15 60 1
22 16 18 ar
23 16 22 ar
24 17 40 1
25 17 42 1
26 17 73 1
27 18 19 ar
28 18 46 1
29 11 19 ar
30 19 20 ar
31 7 20 ar
32 20 21 ar
33 21 22 ar
34 21 47 1
35 22 48 1
36 7 23 ar
37 13 23 1
38 24 25 ar
39 24 29 ar
40 25 26 ar
41 25 50 1
42 26 27 ar
43 26 51 1
44 1 27 1
45 27 28 ar
46 28 29 ar
47 28 52 1
48 29 53 1
49 30 31 ar
50 30 35 ar
51 31 32 ar
52 31 54 1
53 32 33 ar
54 32 55 1
55 15 33 1
56 33 34 ar
57 34 35 ar
58 34 56 1
59 35 36 1
60 36 57 1
61 36 58 1
62 36 59 1
63 37 38 1
64 37 41 1
65 37 61 1
66 38 39 1
67 38 62 1
68 38 63 1
69 17 39 1
70 39 64 1
71 39 65 1
72 40 41 1
73 40 66 1
74 40 67 1
75 41 68 1
76 41 69 1
77 42 70 1
78 42 71 1
79 42 72 1
@<TRIPOS>SUBSTRUCTURE
1	UNK900	1	GROUP	1 ****	UNK
