@<TRIPOS>MOLECULE
obj01
 42 48 0 0 0
SMALL
GASTEIGER

@<TRIPOS>ATOM
      1 CL         11.0930   16.2520   32.4910 Cl      1  UNL1       -0.0822
      2 C           4.3500   11.4070   42.2270 C.2     1  UNL1        0.1448
      3 N           2.4840   11.8690   40.7130 N.2     1  UNL1       -0.0307
      4 O           6.2340   12.8550   42.2600 O.3     1  UNL1       -0.4360
      5 C           3.1030   11.1270   41.6300 C.2     1  UNL1        0.3771
      6 N           4.4120   13.3520   40.7880 N.2     1  UNL1       -0.1839
      7 O           9.3090   16.9760   40.3800 O.2     1  UNL1       -0.4225
      8 C           3.2000   12.9560   40.3230 C.3     1  UNL1        0.3947
      9 N           2.6700    9.9320   42.1440 N.2     1  UNL1       -0.0345
     10 C           4.9840   12.5630   41.7460 C.2     1  UNL1        0.2365
     11 N           8.6930   15.4200   38.8370 N.ar    1  UNL1       -0.1930
     12 C           4.5960   10.3650   43.1830 C.2     1  UNL1        0.0590
     13 N          10.0800   17.3130   38.2280 N.pl3   1  UNL1       -0.1616
     14 C           3.5480    9.4490   43.0960 C.2     1  UNL1        0.1935
     15 N           2.3380    4.3540   45.4270 N.pl3   1  UNL1       -0.2389
     16 C           7.0010   13.9000   41.7940 C.ar    1  UNL1        0.1489
     17 N          -1.4350    2.9560   43.9160 N.4     1  UNL1        0.3820
     18 C           7.4050   13.9770   40.4500 C.ar    1  UNL1        0.0599
     19 C           8.1930   15.0680   40.0570 C.ar    1  UNL1        0.1233
     20 C           8.5780   16.0210   41.0130 C.ar    1  UNL1        0.1663
     21 C           8.2190   15.9430   42.3590 C.ar    1  UNL1        0.0423
     22 C           7.4130   14.8630   42.7190 C.ar    1  UNL1        0.0408
     23 C           9.3250   16.5550   39.0810 C.ar    1  UNL1        0.3133
     24 C          10.2890   17.0650   36.8600 C.ar    1  UNL1        0.0751
     25 C          11.5390   17.3560   36.3120 C.ar    1  UNL1        0.0175
     26 C          11.7920   17.0980   34.9650 C.ar    1  UNL1        0.0127
     27 C          10.7860   16.5660   34.1600 C.ar    1  UNL1        0.0578
     28 C           9.5270   16.2950   34.6920 C.ar    1  UNL1        0.0127
     29 C           9.2770   16.5560   36.0370 C.ar    1  UNL1        0.0175
     30 C           3.2880    8.1440   43.7920 C.ar    1  UNL1        0.0392
     31 C           1.9490    7.7730   43.9840 C.ar    1  UNL1        0.0047
     32 C           1.6100    6.5360   44.5200 C.ar    1  UNL1        0.0162
     33 C           2.6040    5.6350   44.9070 C.ar    1  UNL1        0.0649
     34 C           3.9410    6.0170   44.7750 C.ar    1  UNL1        0.0119
     35 C           4.2960    7.2470   44.2060 C.ar    1  UNL1       -0.0170
     36 C           5.7770    7.5370   44.0020 C.3     1  UNL1        0.0312
     37 C           1.2080    3.4970   45.0470 C.3     1  UNL1        0.1043
     38 C           0.9870    3.4470   43.5200 C.3     1  UNL1        0.0844
     39 C          -0.1710    2.5080   43.1470 C.3     1  UNL1        0.1407
     40 C          -1.2410    2.9130   45.4530 C.3     1  UNL1        0.1407
     41 C          -0.0690    3.8330   45.8430 C.3     1  UNL1        0.0844
     42 C          -2.6390    2.0820   43.5040 C.3     1  UNL1        0.2022
@<TRIPOS>UNITY_ATOM_ATTR
17 1
charge 1
@<TRIPOS>BOND
     1     1    27    1
     2     2     5    1
     3     2    10    1
     4     2    12    2
     5     3     5    2
     6     3     8    1
     7     4    10    1
     8     4    16    1
     9     5     9    1
    10     6     8    1
    11     6    10    2
    12     7    20   ar
    13     7    23   ar
    14     9    14    2
    15    11    19   ar
    16    11    23   ar
    17    12    14    1
    18    13    23    1
    19    13    24    1
    20    14    30    1
    21    15    33    1
    22    15    37    1
    23    16    18   ar
    24    16    22   ar
    25    17    39    1
    26    17    40    1
    27    17    42    1
    28    18    19   ar
    29    19    20   ar
    30    20    21   ar
    31    21    22   ar
    32    24    25   ar
    33    24    29   ar
    34    25    26   ar
    35    26    27   ar
    36    27    28   ar
    37    28    29   ar
    38    30    31   ar
    39    30    35   ar
    40    31    32   ar
    41    32    33   ar
    42    33    34   ar
    43    34    35   ar
    44    35    36    1
    45    37    38    1
    46    37    41    1
    47    38    39    1
    48    40    41    1
