__5u98_D_rec_5u98_1kx_lig_min.pdb
 OpenBabel10171920013D

 21 24  0  0  1  0  0  0  0  0999 V2000
  -11.9930  -16.9430  -37.1830 C   0  0  0  0  0  0  0  0  0  0  0  0
  -11.3460  -15.9910  -36.4240 N   0  0  0  0  0  0  0  0  0  0  0  0
  -12.2000  -16.7610  -38.5530 C   0  0  0  0  0  0  0  0  0  0  0  0
  -12.8520  -17.8900  -39.0260 N   0  0  0  0  0  0  0  0  0  0  0  0
  -13.0490  -18.7350  -37.9660 C   0  0  0  0  0  0  0  0  0  0  0  0
  -12.5280  -18.1670  -36.8490 N   0  0  0  0  0  0  0  0  0  0  0  0
  -11.1080  -14.6390  -38.2910 N   0  0  0  0  0  0  0  0  0  0  0  0
  -10.2740  -13.8860  -36.2170 N   0  0  0  0  0  0  0  0  0  0  0  0
  -11.7080  -15.5190  -39.1050 C   0  0  0  0  0  0  0  0  0  0  0  0
  -10.9250  -14.8750  -36.9980 C   0  0  0  0  0  0  0  0  0  0  0  0
  -12.5210  -18.7200  -35.5350 C   0  0  1  0  0  0  0  0  0  0  0  0
  -13.7380  -19.7440  -35.4070 C   0  0  0  0  0  0  0  0  0  0  0  0
  -13.2660  -21.0150  -35.3600 C   0  0  0  0  0  0  0  0  0  0  0  0
  -11.7820  -20.9730  -35.1440 C   0  0  2  0  0  0  0  0  0  0  0  0
  -11.3780  -19.4350  -35.2990 C   0  0  0  0  0  0  0  0  0  0  0  0
  -11.8060  -21.8460  -37.3600 O   0  0  0  0  0  0  0  0  0  0  0  0
  -11.0400  -21.7470  -36.1610 C   0  0  0  0  0  0  0  0  0  0  0  0
  -11.8420  -15.1950  -40.4930 N   0  0  0  0  0  0  0  0  0  0  0  0
  -12.2030  -13.6530  -42.4000 C   0  0  0  0  0  0  0  0  0  0  0  0
  -11.7240  -13.8370  -40.9680 C   0  0  0  0  0  0  0  0  0  0  0  0
  -10.7270  -13.5370  -42.0800 C   0  0  0  0  0  0  0  0  0  0  0  0
  1  3  2  0  0  0  0
  1  6  1  0  0  0  0
  1  2  1  0  0  0  0
  2 10  2  0  0  0  0
  3  9  1  0  0  0  0
  3  4  1  0  0  0  0
  4  5  2  0  0  0  0
  5  6  1  0  0  0  0
  7  9  2  0  0  0  0
  7 10  1  0  0  0  0
  8 10  1  0  0  0  0
  9 18  1  0  0  0  0
 11  6  1  6  0  0  0
 11 15  1  0  0  0  0
 11 12  1  0  0  0  0
 12 13  1  0  0  0  0
 13 14  1  0  0  0  0
 14 17  1  6  0  0  0
 14 15  1  0  0  0  0
 16 17  1  0  0  0  0
 18 20  1  0  0  0  0
 19 21  1  0  0  0  0
 19 20  1  0  0  0  0
 20 21  1  0  0  0  0
M  END
>  <COMPND>
    UNNAMED

>  <AUTHOR>
    GENERATED BY OPEN BABEL 2.4.90

>  <MASTER>
        0    0    0    0    0    0    0    0   21    0   21    0

