/home/haotian/molecules_confs/Protein_test/SurfGen/data/pan/synthesis/1_out.pdbqt
     RDKit          3D

 51 57  0  0  1  0  0  0  0  0999 V2000
    6.3096   13.8425   43.7704 N   0  0  0  0  0  0  0  0  0  0  0  0
    7.2082   14.2789   43.9786 H   0  0  0  0  0  0  0  0  0  0  0  0
    3.6775   12.4523   42.9999 N   0  0  0  0  0  0  0  0  0  0  0  0
    2.7436   12.4396   43.4108 H   0  0  0  0  0  0  0  0  0  0  0  0
    4.5900   13.5872   44.1970 N   0  0  0  0  0  0  0  0  0  0  0  0
    3.7981   13.7668   44.8159 H   0  0  0  0  0  0  0  0  0  0  0  0
    4.0119   11.9397   42.1172 C   0  0  0  0  0  0  0  0  0  0  0  0
    6.1596   13.2556   43.0039 C   0  0  0  0  0  3  0  0  0  0  0  0
    4.5366   12.9784   43.3555 C   0  0  0  0  0  0  0  0  0  0  0  0
    5.2728   12.8229   42.7955 C   0  0  0  0  0  0  0  0  0  0  0  0
    5.0018   12.1721   41.9927 C   0  0  0  0  0  3  0  0  0  0  0  0
    5.4891   13.9720   44.3313 C   0  0  0  0  0  2  0  0  0  0  0  0
    7.0420   13.0688   42.3327 O   0  0  0  0  0  0  0  0  0  0  0  0
    7.4107   13.9403   41.7379 C   0  0  0  0  0  0  0  0  0  0  0  0
    7.8066   14.7942   42.2370 C   0  0  0  0  0  3  0  0  0  0  0  0
    8.1406   15.5754   41.8025 C   0  0  0  0  0  3  0  0  0  0  0  0
    8.1362   15.6416   40.7417 C   0  0  0  0  0  0  0  0  0  0  0  0
    8.3813   16.2415   40.0375 O   0  0  0  0  0  0  0  0  0  0  0  0
    7.7528   14.8180   40.1903 C   0  0  0  0  0  0  0  0  0  0  0  0
    8.2161   15.9327   39.1681 C   0  0  0  0  0  3  0  0  0  0  0  0
    7.8399   15.0794   39.2590 N   0  0  0  0  0  0  0  0  0  0  0  0
    7.5538   14.4941   38.4750 H   0  0  0  0  0  0  0  0  0  0  0  0
    7.4072   14.0072   40.6777 C   0  0  0  0  0  3  0  0  0  0  0  0
    8.3929   16.3862   38.3667 N   0  0  0  0  0  0  0  0  0  0  0  0
    7.6975   16.8746   37.8031 H   0  0  0  0  0  0  0  0  0  0  0  0
    9.2973   16.3246   38.1662 C   0  0  0  0  0  0  0  0  0  0  0  0
    9.5110   16.9333   37.4848 C   0  0  0  0  0  3  0  0  0  0  0  0
   10.3400   17.0307   37.1437 C   0  0  0  0  0  3  0  0  0  0  0  0
   11.1195   16.4229   37.5342 C   0  0  0  0  0  0  0  0  0  0  0  0
   10.9049   15.8144   38.2152 C   0  0  0  0  0  3  0  0  0  0  0  0
    9.9578   15.7550   38.5531 C   0  0  0  0  0  3  0  0  0  0  0  0
   12.1275   16.4631   37.1986 C   0  0  0  0  0  0  0  0  0  0  0  0
   12.4265   15.8986   36.3516 F   0  0  0  0  0  0  0  0  0  0  0  0
   12.8326   17.0683   37.7118 F   0  0  0  0  0  0  0  0  0  0  0  0
   13.1341   16.5031   36.8635 F   0  0  0  0  0  0  0  0  0  0  0  0
    3.3768   11.2771   41.4650 C   0  0  0  0  0  0  0  0  0  0  0  0
    2.9679   11.6477   40.6225 C   0  0  0  0  0  0  0  0  0  0  0  0
    2.3596   11.0704   39.9678 C   0  0  0  0  0  3  0  0  0  0  0  0
    3.2639   12.9825   40.3804 C   0  0  0  0  0  1  0  0  0  0  0  0
    2.2126   10.0626   40.2718 C   0  0  0  0  0  0  0  0  0  0  0  0
    2.6567    9.7278   41.1514 C   0  0  0  0  0  3  0  0  0  0  0  0
    3.2210   10.3166   41.7298 C   0  0  0  0  0  3  0  0  0  0  0  0
    1.5692    9.4477   39.5819 N   0  0  0  0  0  0  0  0  0  0  0  0
    1.7627    9.5287   38.5840 H   0  0  0  0  0  0  0  0  0  0  0  0
    0.9011    8.8910   39.8189 C   0  0  0  0  0  0  0  0  0  0  0  0
    1.1110    8.0526   39.8937 C   0  0  0  0  0  3  0  0  0  0  0  0
    0.5181    7.5357   40.1071 C   0  0  0  0  0  2  0  0  0  0  0  0
   -0.3026    7.7993   40.2589 N   0  0  0  0  0  0  0  0  0  0  0  0
   -0.5134    8.6378   40.1838 C   0  0  0  0  0  3  0  0  0  0  0  0
   -0.9629    7.0466   40.5234 C   0  0  0  0  0  1  0  0  0  0  0  0
    0.0804    9.1546   39.9707 C   0  0  0  0  0  3  0  0  0  0  0  0
  1 12  1  0
  2  1  1  0
  3  4  1  0
  5  6  1  0
  7  3  1  0
  8 13  1  0
  8 10  1  0
  8  1  1  0
  9  3  1  0
  9  5  1  0
 10  9  2  0
 11 10  1  0
 11  7  2  0
 12  5  1  0
 14 15  1  0
 14 13  1  0
 16 15  2  0
 17 16  1  0
 18 17  1  0
 19 17  2  0
 19 23  1  0
 20 24  1  0
 20 21  1  0
 20 18  1  0
 21 19  1  0
 22 21  1  0
 23 14  2  0
 25 24  1  0
 26 31  1  0
 26 24  1  0
 27 26  2  0
 28 29  2  0
 28 27  1  0
 29 30  1  0
 30 31  2  0
 32 29  1  0
 33 32  1  0
 34 32  1  0
 35 32  1  0
 36  7  1  0
 36 42  1  0
 37 36  2  0
 38 37  1  0
 38 40  2  0
 39 37  1  0
 40 41  1  0
 41 42  2  0
 43 40  1  0
 43 45  1  0
 44 43  1  0
 45 46  2  0
 45 51  1  0
 46 47  1  0
 47 48  1  0
 48 50  1  0
 49 48  1  0
 51 49  2  0
M  END
>  <MODEL>  (1) 
1

>  <REMARK>  (1) 
 VINA RESULT:     -14.7      0.000      0.000
  8 active torsions:
  status: ('A' for Active; 'I' for Inactive)
    1  A    between atoms: N_2  and  C_19 
    2  A    between atoms: C_20  and  N_2 
    3  A    between atoms: O_4  and  C_22 
    4  A    between atoms: O_4  and  C_42 
    5  A    between atoms: C_17  and  N_7 
    6  A    between atoms: N_7  and  C_28 
    7  A    between atoms: C_26  and  C_13 
    8  A    between atoms: C_31  and  C_21 

>  <TORSDO>  (1) 
F 8

$$$$
/home/haotian/molecules_confs/Protein_test/SurfGen/data/pan/synthesis/2_out.pdbqt
     RDKit          3D

 48 54  0  0  1  0  0  0  0  0999 V2000
    7.9285   14.3802   43.1557 N   0  0  0  0  0  0  0  0  0  0  0  0
    8.9000   14.6898   43.1271 H   0  0  0  0  0  0  0  0  0  0  0  0
    5.0320   13.3531   43.0914 N   0  0  0  0  0  0  0  0  0  0  0  0
    4.2227   13.4936   43.6973 H   0  0  0  0  0  0  0  0  0  0  0  0
    6.3343   14.3955   43.9685 N   0  0  0  0  0  0  0  0  0  0  0  0
    5.7364   14.7147   44.7314 H   0  0  0  0  0  0  0  0  0  0  0  0
    5.0856   12.7595   42.1967 C   0  0  0  0  0  0  0  0  0  0  0  0
    7.5318   13.7882   42.4864 C   0  0  0  0  0  3  0  0  0  0  0  0
    6.0105   13.7649   43.2076 C   0  0  0  0  0  0  0  0  0  0  0  0
    6.5725   13.4795   42.5124 C   0  0  0  0  0  0  0  0  0  0  0  0
    6.0418   12.8410   41.8413 C   0  0  0  0  0  3  0  0  0  0  0  0
    7.2831   14.6519   43.8725 C   0  0  0  0  0  2  0  0  0  0  0  0
    8.2053   13.4469   41.6545 O   0  0  0  0  0  0  0  0  0  0  0  0
    8.3352   14.1508   40.7955 C   0  0  0  0  0  0  0  0  0  0  0  0
    7.6488   14.1287   39.9823 C   0  0  0  0  0  3  0  0  0  0  0  0
    7.6914   14.6944   39.2152 C   0  0  0  0  0  3  0  0  0  0  0  0
    8.4655   15.4173   39.1239 C   0  0  0  0  0  0  0  0  0  0  0  0
    8.7765   16.0959   38.5269 O   0  0  0  0  0  0  0  0  0  0  0  0
    9.1806   15.4849   39.9077 C   0  0  0  0  0  0  0  0  0  0  0  0
    9.5436   16.5579   38.8036 C   0  0  0  0  0  3  0  0  0  0  0  0
    9.7862   16.1926   39.6321 N   0  0  0  0  0  0  0  0  0  0  0  0
   10.5893   16.4990   40.1789 H   0  0  0  0  0  0  0  0  0  0  0  0
    9.1091   14.8735   40.7052 C   0  0  0  0  0  3  0  0  0  0  0  0
    9.9811   17.2489   38.3444 N   0  0  0  0  0  0  0  0  0  0  0  0
    9.8017   18.2441   38.4727 H   0  0  0  0  0  0  0  0  0  0  0  0
   10.6007   16.8881   37.7563 C   0  0  0  0  0  0  0  0  0  0  0  0
   10.3266   17.0460   36.8730 C   0  0  0  0  0  3  0  0  0  0  0  0
   10.7911   16.7752   36.1487 C   0  0  0  0  0  3  0  0  0  0  0  0
   11.7007   16.2476   36.3030 C   0  0  0  0  0  0  0  0  0  0  0  0
   12.3183   15.8879   35.5160 F   0  0  0  0  0  0  0  0  0  0  0  0
   11.9748   16.0897   37.1863 C   0  0  0  0  0  3  0  0  0  0  0  0
   11.4093   16.4198   37.9526 C   0  0  0  0  0  3  0  0  0  0  0  0
    4.2361   12.1676   41.7527 C   0  0  0  0  0  0  0  0  0  0  0  0
    3.6760   12.5706   41.0181 C   0  0  0  0  0  0  0  0  0  0  0  0
    2.8625   12.0605   40.5602 C   0  0  0  0  0  3  0  0  0  0  0  0
    4.0544   13.8536   40.6469 C   0  0  0  0  0  1  0  0  0  0  0  0
    2.6817   11.0847   40.9402 C   0  0  0  0  0  0  0  0  0  0  0  0
    3.2880   10.7142   41.6992 C   0  0  0  0  0  3  0  0  0  0  0  0
    4.0418   11.2400   42.0934 C   0  0  0  0  0  3  0  0  0  0  0  0
    1.8197   10.5414   40.4582 N   0  0  0  0  0  0  0  0  0  0  0  0
    1.7673   10.5788   39.4412 H   0  0  0  0  0  0  0  0  0  0  0  0
    1.1717   10.0754   40.8776 C   0  0  0  0  0  0  0  0  0  0  0  0
    1.2941    9.2184   40.9365 C   0  0  0  0  0  3  0  0  0  0  0  0
    0.7179    8.7824   41.3124 C   0  0  0  0  0  2  0  0  0  0  0  0
   -0.0012    9.1478   41.6510 N   0  0  0  0  0  0  0  0  0  0  0  0
   -0.1245   10.0057   41.5932 C   0  0  0  0  0  3  0  0  0  0  0  0
   -0.6578    8.4876   42.1028 C   0  0  0  0  0  1  0  0  0  0  0  0
    0.4528   10.4416   41.2165 C   0  0  0  0  0  3  0  0  0  0  0  0
  1 12  1  0
  2  1  1  0
  3  4  1  0
  5  6  1  0
  7  3  1  0
  8 13  1  0
  8 10  1  0
  8  1  1  0
  9  3  1  0
  9  5  1  0
 10  9  2  0
 11 10  1  0
 11  7  2  0
 12  5  1  0
 14 13  1  0
 15 14  2  0
 16 15  1  0
 17 16  2  0
 17 19  1  0
 18 17  1  0
 19 23  2  0
 20 24  1  0
 20 18  1  0
 20 21  1  0
 21 22  1  0
 21 19  1  0
 23 14  1  0
 25 24  1  0
 26 32  1  0
 26 24  1  0
 27 26  2  0
 28 29  2  0
 28 27  1  0
 29 31  1  0
 30 29  1  0
 31 32  2  0
 33  7  1  0
 33 39  1  0
 34 33  2  0
 35 34  1  0
 35 37  2  0
 36 34  1  0
 37 38  1  0
 38 39  2  0
 40 37  1  0
 40 42  1  0
 41 40  1  0
 42 43  2  0
 42 48  1  0
 43 44  1  0
 44 45  1  0
 45 47  1  0
 46 45  1  0
 48 46  2  0
M  END
>  <MODEL>  (2) 
1

>  <REMARK>  (2) 
 VINA RESULT:     -13.3      0.000      0.000
  7 active torsions:
  status: ('A' for Active; 'I' for Inactive)
    1  A    between atoms: N_2  and  C_19 
    2  A    between atoms: C_20  and  N_2 
    3  A    between atoms: O_4  and  C_22 
    4  A    between atoms: O_4  and  C_42 
    5  A    between atoms: C_17  and  N_7 
    6  A    between atoms: N_7  and  C_28 
    7  A    between atoms: C_31  and  C_21 

>  <TORSDO>  (2) 
F 7

$$$$
/home/haotian/molecules_confs/Protein_test/SurfGen/data/pan/synthesis/3_out.pdbqt
     RDKit          3D

 48 54  0  0  1  0  0  0  0  0999 V2000
    4.5835   12.0347   42.7742 N   0  0  0  0  0  0  0  0  0  0  0  0
    4.8793   12.7612   42.1207 H   0  0  0  0  0  0  0  0  0  0  0  0
    3.6890    9.7317   44.6033 N   0  0  0  0  0  0  0  0  0  0  0  0
    3.5009    9.6624   45.6039 H   0  0  0  0  0  0  0  0  0  0  0  0
    4.1749   11.5465   44.4468 N   0  0  0  0  0  0  0  0  0  0  0  0
    4.0665   11.7839   45.4325 H   0  0  0  0  0  0  0  0  0  0  0  0
    3.6176    8.9518   43.8677 C   0  0  0  0  0  0  0  0  0  0  0  0
    4.3971   11.1140   42.5069 C   0  0  0  0  0  3  0  0  0  0  0  0
    4.0011   10.5969   44.0600 C   0  0  0  0  0  0  0  0  0  0  0  0
    4.1046   10.3933   43.1502 C   0  0  0  0  0  0  0  0  0  0  0  0
    3.8765    9.3666   42.9679 C   0  0  0  0  0  3  0  0  0  0  0  0
    4.4566   12.1927   43.7545 C   0  0  0  0  0  2  0  0  0  0  0  0
    4.5209   10.8697   41.4168 O   0  0  0  0  0  0  0  0  0  0  0  0
    5.4783   11.1941   40.9376 C   0  0  0  0  0  0  0  0  0  0  0  0
    5.5565   12.1684   40.5142 C   0  0  0  0  0  3  0  0  0  0  0  0
    6.3353   12.5183   40.0892 C   0  0  0  0  0  3  0  0  0  0  0  0
    7.2148   11.9280   40.0109 C   0  0  0  0  0  0  0  0  0  0  0  0
    8.1076   11.9715   39.6691 O   0  0  0  0  0  0  0  0  0  0  0  0
    7.1959   10.9456   40.4162 C   0  0  0  0  0  0  0  0  0  0  0  0
    8.6267   11.2011   39.7940 C   0  0  0  0  0  3  0  0  0  0  0  0
    8.0805   10.5858   40.2420 N   0  0  0  0  0  0  0  0  0  0  0  0
    8.3787    9.6502   40.5139 H   0  0  0  0  0  0  0  0  0  0  0  0
    6.3568   10.6040   40.8593 C   0  0  0  0  0  3  0  0  0  0  0  0
    9.5155   11.0723   39.5248 N   0  0  0  0  0  0  0  0  0  0  0  0
   10.2976   10.8862   40.1511 H   0  0  0  0  0  0  0  0  0  0  0  0
    9.5743   11.1394   38.6004 C   0  0  0  0  0  0  0  0  0  0  0  0
    9.8973   10.3339   38.2460 C   0  0  0  0  0  3  0  0  0  0  0  0
   10.0276   10.1922   37.3654 C   0  0  0  0  0  3  0  0  0  0  0  0
    9.8023   10.9816   36.6896 C   0  0  0  0  0  0  0  0  0  0  0  0
    9.9218   10.9110   35.6355 Cl  0  0  0  0  0  0  0  0  0  0  0  0
    9.4793   11.7871   37.0440 C   0  0  0  0  0  3  0  0  0  0  0  0
    9.3558   11.8806   38.0408 C   0  0  0  0  0  3  0  0  0  0  0  0
    3.3135    7.8868   44.0705 C   0  0  0  0  0  0  0  0  0  0  0  0
    4.0193    7.1960   44.2730 C   0  0  0  0  0  0  0  0  0  0  0  0
    3.7924    6.1762   44.4722 C   0  0  0  0  0  3  0  0  0  0  0  0
    5.3180    7.6842   44.2686 C   0  0  0  0  0  1  0  0  0  0  0  0
    2.7575    5.9369   44.4434 C   0  0  0  0  0  0  0  0  0  0  0  0
    2.0686    6.6867   44.2298 C   0  0  0  0  0  3  0  0  0  0  0  0
    2.3387    7.6327   44.0493 C   0  0  0  0  0  3  0  0  0  0  0  0
    2.5135    4.8571   44.6539 N   0  0  0  0  0  0  0  0  0  0  0  0
    3.3025    4.2375   44.8316 H   0  0  0  0  0  0  0  0  0  0  0  0
    1.6932    4.4844   44.6816 C   0  0  0  0  0  0  0  0  0  0  0  0
    1.5362    3.8626   44.0960 C   0  0  0  0  0  3  0  0  0  0  0  0
    0.7996    3.5152   44.1077 C   0  0  0  0  0  2  0  0  0  0  0  0
    0.1797    3.7465   44.6813 N   0  0  0  0  0  0  0  0  0  0  0  0
    0.3365    4.3673   45.2671 C   0  0  0  0  0  3  0  0  0  0  0  0
   -0.7286    3.2855   44.6607 H   0  0  0  0  0  0  0  0  0  0  0  0
    1.0742    4.7156   45.2552 C   0  0  0  0  0  3  0  0  0  0  0  0
  1  2  1  0
  3  9  1  0
  4  3  1  0
  5  6  1  0
  5 12  1  0
  7 11  2  0
  7  3  1  0
  8 13  1  0
  8  1  1  0
  9  5  1  0
 10  9  2  0
 10  8  1  0
 11 10  1  0
 12  1  1  0
 13 14  1  0
 14 15  1  0
 15 16  2  0
 17 18  1  0
 17 16  1  0
 19 17  2  0
 20 24  1  0
 20 18  1  0
 21 19  1  0
 21 20  1  0
 22 21  1  0
 23 14  2  0
 23 19  1  0
 24 26  1  0
 25 24  1  0
 26 32  1  0
 27 28  1  0
 27 26  2  0
 28 29  2  0
 29 30  1  0
 29 31  1  0
 32 31  2  0
 33  7  1  0
 34 33  2  0
 34 36  1  0
 35 34  1  0
 37 35  2  0
 37 38  1  0
 38 39  2  0
 39 33  1  0
 40 37  1  0
 41 40  1  0
 42 48  1  0
 42 40  1  0
 43 42  2  0
 44 45  1  0
 44 43  1  0
 45 46  1  0
 46 48  2  0
 47 45  1  0
M  END
>  <MODEL>  (3) 
1

>  <REMARK>  (3) 
 VINA RESULT:     -14.0      0.000      0.000
  7 active torsions:
  status: ('A' for Active; 'I' for Inactive)
    1  A    between atoms: N_2  and  C_20 
    2  A    between atoms: C_21  and  N_2 
    3  A    between atoms: O_4  and  C_23 
    4  A    between atoms: O_4  and  C_42 
    5  A    between atoms: C_18  and  N_7 
    6  A    between atoms: N_7  and  C_29 
    7  A    between atoms: C_32  and  C_22 

>  <TORSDO>  (3) 
F 7

$$$$
/home/haotian/molecules_confs/Protein_test/SurfGen/data/pan/synthesis/4_out.pdbqt
     RDKit          3D

 42 47  0  0  1  0  0  0  0  0999 V2000
    8.3675   15.2170   41.4383 N   0  0  0  0  0  0  0  0  0  0  0  0
    9.1414   15.6691   40.9514 H   0  0  0  0  0  0  0  0  0  0  0  0
    6.0281   13.7338   42.7726 N   0  0  0  0  0  0  0  0  0  0  0  0
    5.5082   13.8773   43.6391 H   0  0  0  0  0  0  0  0  0  0  0  0
    7.2614   15.1585   42.8448 N   0  0  0  0  0  0  0  0  0  0  0  0
    6.9445   15.5441   43.7342 H   0  0  0  0  0  0  0  0  0  0  0  0
    5.8791   12.9630   42.0398 C   0  0  0  0  0  0  0  0  0  0  0  0
    7.9062   14.4255   41.0990 C   0  0  0  0  0  3  0  0  0  0  0  0
    6.8383   14.3194   42.3968 C   0  0  0  0  0  0  0  0  0  0  0  0
    7.1409   13.9758   41.5779 C   0  0  0  0  0  0  0  0  0  0  0  0
    6.5715   13.1157   41.3003 C   0  0  0  0  0  3  0  0  0  0  0  0
    8.0031   15.5388   42.3146 C   0  0  0  0  0  2  0  0  0  0  0  0
    5.1025   12.1491   42.0947 C   0  0  0  0  0  0  0  0  0  0  0  0
    4.2320   12.2544   41.5968 C   0  0  0  0  0  0  0  0  0  0  0  0
    3.4624   11.5213   41.6116 C   0  0  0  0  0  3  0  0  0  0  0  0
    4.1178   13.4411   40.8864 C   0  0  0  0  0  1  0  0  0  0  0  0
    3.6802   10.6593   42.1953 C   0  0  0  0  0  0  0  0  0  0  0  0
    4.5932   10.5991   42.6897 C   0  0  0  0  0  3  0  0  0  0  0  0
    5.2834   11.3219   42.6401 C   0  0  0  0  0  3  0  0  0  0  0  0
    2.8669    9.8802   42.2128 N   0  0  0  0  0  0  0  0  0  0  0  0
    2.3515    9.7384   41.3450 H   0  0  0  0  0  0  0  0  0  0  0  0
    2.6242    9.3686   42.9139 C   0  0  0  0  0  0  0  0  0  0  0  0
    1.9697    9.6689   43.3981 C   0  0  0  0  0  3  0  0  0  0  0  0
    1.7377    9.2179   44.0355 C   0  0  0  0  0  2  0  0  0  0  0  0
    2.1225    8.4592   44.2389 N   0  0  0  0  0  0  0  0  0  0  0  0
    2.7781    8.1578   43.7555 C   0  0  0  0  0  3  0  0  0  0  0  0
    1.8482    8.0060   44.9266 C   0  0  0  0  0  1  0  0  0  0  0  0
    3.0099    8.6088   43.1171 C   0  0  0  0  0  3  0  0  0  0  0  0
    8.2674   14.0129   40.1174 O   0  0  0  0  0  0  0  0  0  0  0  0
    7.9659   14.5727   39.1985 C   0  0  0  0  0  0  0  0  0  0  0  0
    8.5485   15.3981   38.8631 C   0  0  0  0  0  3  0  0  0  0  0  0
    8.3575   15.9247   38.0913 C   0  0  0  0  0  3  0  0  0  0  0  0
    7.5090   15.7078   37.4905 C   0  0  0  0  0  0  0  0  0  0  0  0
    6.8884   14.8933   37.7762 C   0  0  0  0  0  3  0  0  0  0  0  0
    7.1174   14.3549   38.5978 C   0  0  0  0  0  3  0  0  0  0  0  0
    7.2126   16.2322   36.6150 S   0  0  0  0  0  0  0  0  0  0  0  0
    8.0912   15.6666   36.4195 O   0  0  0  0  0  0  0  0  0  0  0  0
    6.3350   16.7986   36.8102 O   0  0  0  0  0  1  0  0  0  0  0  0
    7.7203   16.1970   35.6825 N   0  0  1  0  0  4  0  0  0  0  0  0
    8.7393   16.1734   35.7003 H   0  0  0  0  0  0  0  0  0  0  0  0
    7.2454   16.1828   34.7302 C   0  0  0  0  0  3  0  0  0  0  0  0
    7.4925   16.1263   33.6993 C   0  0  0  0  0  2  0  0  0  0  0  0
  1 12  1  0
  2  1  1  0
  3  4  1  0
  5  6  1  0
  7  3  1  0
  8 29  1  0
  8 10  1  0
  8  1  1  0
  9  3  1  0
  9  5  1  0
 10  9  2  0
 11 10  1  0
 11  7  2  0
 12  5  1  0
 13  7  1  0
 13 19  1  0
 14 13  2  0
 15 14  1  0
 15 17  2  0
 16 14  1  0
 17 18  1  0
 18 19  2  0
 20 17  1  0
 20 22  1  0
 21 20  1  0
 22 28  1  0
 22 23  2  0
 23 24  1  0
 24 25  1  0
 25 27  1  0
 26 25  1  0
 28 26  2  0
 30 29  1  0
 31 30  1  0
 32 31  2  0
 33 34  2  0
 33 32  1  0
 34 35  1  0
 35 30  2  0
 36 38  1  0
 36 37  1  0
 36 33  1  0
 39 40  1  6
 39 36  1  0
 39 37  1  0
 41 39  1  0
 42 41  2  0
M  END
>  <MODEL>  (4) 
1

>  <REMARK>  (4) 
 VINA RESULT:     -12.0      0.000      0.000
  8 active torsions:
  status: ('A' for Active; 'I' for Inactive)
    1  A    between atoms: O_1  and  C_14 
    2  A    between atoms: O_1  and  C_31 
    3  A    between atoms: C_11  and  N_2 
    4  A    between atoms: N_2  and  C_19 
    5  A    between atoms: C_22  and  C_13 
    6  A    between atoms: C_15  and  S_36 
    7  A    between atoms: S_36  and  N_39 
    8  A    between atoms: N_39  and  C_41 

>  <TORSDO>  (4) 
F 8

$$$$
/home/haotian/molecules_confs/Protein_test/SurfGen/data/pan/synthesis/5_out.pdbqt
     RDKit          3D

 48 54  0  0  1  0  0  0  0  0999 V2000
    2.6069   12.2792   40.5586 N   0  0  0  0  0  0  0  0  0  0  0  0
    3.0522   12.8604   39.8501 H   0  0  0  0  0  0  0  0  0  0  0  0
    1.4111   10.4227   42.6988 N   0  0  0  0  0  0  0  0  0  0  0  0
    0.5176   10.4020   43.1900 H   0  0  0  0  0  0  0  0  0  0  0  0
    1.1867   11.9328   41.5933 N   0  0  0  0  0  0  0  0  0  0  0  0
    0.2442   12.1681   41.9030 H   0  0  0  0  0  0  0  0  0  0  0  0
    2.2365    9.7436   42.8112 C   0  0  0  0  0  0  0  0  0  0  0  0
    3.0353   11.4994   40.9635 C   0  0  0  0  0  3  0  0  0  0  0  0
    1.7303   11.1252   41.9596 C   0  0  0  0  0  0  0  0  0  0  0  0
    2.5974   10.9209   41.6645 C   0  0  0  0  0  0  0  0  0  0  0  0
    2.9702   10.0566   42.1676 C   0  0  0  0  0  3  0  0  0  0  0  0
    1.6837   12.4473   40.9122 C   0  0  0  0  0  2  0  0  0  0  0  0
    4.0737   11.2552   40.6098 O   0  0  0  0  0  0  0  0  0  0  0  0
    4.8774   11.9856   40.8762 C   0  0  0  0  0  0  0  0  0  0  0  0
    5.2428   12.0316   41.8747 C   0  0  0  0  0  3  0  0  0  0  0  0
    5.9245   12.6244   42.1802 C   0  0  0  0  0  3  0  0  0  0  0  0
    6.3806   13.3092   41.5074 C   0  0  0  0  0  0  0  0  0  0  0  0
    6.0547   13.3089   40.4954 C   0  0  0  0  0  0  0  0  0  0  0  0
    7.1392   14.0481   41.6073 S   0  0  0  0  0  0  0  0  0  0  0  0
    5.3331   12.6690   40.2035 C   0  0  0  0  0  3  0  0  0  0  0  0
    6.6122   14.0466   39.9715 N   0  0  0  0  0  0  0  0  0  0  0  0
    7.2809   14.5031   40.6589 C   0  0  0  0  0  3  0  0  0  0  0  0
    6.5194   14.2757   38.9814 H   0  0  0  0  0  0  0  0  0  0  0  0
    7.9725   15.2789   40.4355 N   0  0  0  0  0  0  0  0  0  0  0  0
    7.8122   16.2212   40.7909 H   0  0  0  0  0  0  0  0  0  0  0  0
    8.8298   15.0727   39.8437 C   0  0  0  0  0  0  0  0  0  0  0  0
    9.7607   14.8650   40.3112 C   0  0  0  0  0  3  0  0  0  0  0  0
   10.6193   14.6575   39.7179 C   0  0  0  0  0  3  0  0  0  0  0  0
   10.5448   14.6600   38.6583 C   0  0  0  0  0  0  0  0  0  0  0  0
    9.6139   14.8678   38.1908 C   0  0  0  0  0  3  0  0  0  0  0  0
   11.4030   14.4535   38.0660 Cl  0  0  0  0  0  0  0  0  0  0  0  0
    8.7565   15.0740   38.7826 C   0  0  0  0  0  3  0  0  0  0  0  0
    2.2676    8.8611   43.5094 C   0  0  0  0  0  0  0  0  0  0  0  0
    2.6765    8.9628   44.4255 C   0  0  0  0  0  0  0  0  0  0  0  0
    2.7337    8.1660   45.1280 C   0  0  0  0  0  3  0  0  0  0  0  0
    3.1617   10.2340   44.6982 C   0  0  0  0  0  1  0  0  0  0  0  0
    2.3242    7.2461   44.7895 C   0  0  0  0  0  0  0  0  0  0  0  0
    1.9137    7.1931   43.8357 C   0  0  0  0  0  3  0  0  0  0  0  0
    1.8854    7.9762   43.2152 C   0  0  0  0  0  3  0  0  0  0  0  0
    2.3825    6.3994   45.5314 N   0  0  0  0  0  0  0  0  0  0  0  0
    2.6473    6.6453   46.4843 H   0  0  0  0  0  0  0  0  0  0  0  0
    2.2203    5.5275   45.3696 C   0  0  0  0  0  0  0  0  0  0  0  0
    2.9055    4.9972   45.4112 C   0  0  0  0  0  3  0  0  0  0  0  0
    2.7768    4.2055   45.2686 C   0  0  0  0  0  2  0  0  0  0  0  0
    1.9844    3.8864   45.0786 N   0  0  0  0  0  0  0  0  0  0  0  0
    1.2978    4.4163   45.0369 C   0  0  0  0  0  3  0  0  0  0  0  0
    1.8661    2.8881   44.9063 H   0  0  0  0  0  0  0  0  0  0  0  0
    1.4278    5.2084   45.1796 C   0  0  0  0  0  3  0  0  0  0  0  0
  1 12  1  0
  1  2  1  0
  3  9  1  0
  4  3  1  0
  5  6  1  0
  5 12  1  0
  7 11  2  0
  7  3  1  0
  8 13  1  0
  8  1  1  0
  9  5  1  0
 10  9  2  0
 10  8  1  0
 11 10  1  0
 13 14  1  0
 14 20  1  0
 15 16  1  0
 15 14  2  0
 16 17  2  0
 17 19  1  0
 17 18  1  0
 18 21  1  0
 19 22  1  0
 20 18  2  0
 21 23  1  0
 22 21  1  0
 22 24  1  0
 24 26  1  0
 24 25  1  0
 26 32  1  0
 27 28  1  0
 27 26  2  0
 28 29  2  0
 29 31  1  0
 29 30  1  0
 32 30  2  0
 33  7  1  0
 34 33  2  0
 34 36  1  0
 35 34  1  0
 37 35  2  0
 37 38  1  0
 38 39  2  0
 39 33  1  0
 40 37  1  0
 41 40  1  0
 42 48  1  0
 42 40  1  0
 43 42  2  0
 44 45  1  0
 44 43  1  0
 45 46  1  0
 46 48  2  0
 47 45  1  0
M  END
>  <MODEL>  (5) 
1

>  <REMARK>  (5) 
 VINA RESULT:     -13.6      0.000      0.000
  7 active torsions:
  status: ('A' for Active; 'I' for Inactive)
    1  A    between atoms: O_1  and  C_15 
    2  A    between atoms: O_1  and  C_32 
    3  A    between atoms: C_12  and  N_2 
    4  A    between atoms: N_2  and  C_20 
    5  A    between atoms: C_23  and  C_14 
    6  A    between atoms: C_37  and  N_40 
    7  A    between atoms: N_40  and  C_42 

>  <TORSDO>  (5) 
F 7

$$$$
/home/haotian/molecules_confs/Protein_test/SurfGen/data/pan/synthesis/6_out.pdbqt
     RDKit          3D

 46 52  0  0  1  0  0  0  0  0999 V2000
    7.2695   12.7253   44.4816 N   0  0  0  0  0  0  0  0  0  0  0  0
    7.7023   13.6285   44.6772 H   0  0  0  0  0  0  0  0  0  0  0  0
    5.8443   10.0906   43.7890 N   0  0  0  0  0  0  0  0  0  0  0  0
    6.0045    9.1168   44.0471 H   0  0  0  0  0  0  0  0  0  0  0  0
    7.2433   10.9509   44.7140 N   0  0  0  0  0  0  0  0  0  0  0  0
    7.6422   10.1109   45.1334 H   0  0  0  0  0  0  0  0  0  0  0  0
    5.0706   10.4817   43.1526 C   0  0  0  0  0  0  0  0  0  0  0  0
    6.4849   12.6172   43.9081 C   0  0  0  0  0  3  0  0  0  0  0  0
    6.4101   10.9445   44.0911 C   0  0  0  0  0  0  0  0  0  0  0  0
    6.0546   11.7265   43.7129 C   0  0  0  0  0  0  0  0  0  0  0  0
    5.2050   11.4955   43.1088 C   0  0  0  0  0  3  0  0  0  0  0  0
    7.6054   11.8588   44.8566 C   0  0  0  0  0  2  0  0  0  0  0  0
    6.0592   13.5536   43.4554 O   0  0  0  0  0  0  0  0  0  0  0  0
    6.7220   14.1150   42.7526 C   0  0  0  0  0  0  0  0  0  0  0  0
    7.3262   14.9133   43.1166 C   0  0  0  0  0  3  0  0  0  0  0  0
    7.9157   15.4393   42.5825 C   0  0  0  0  0  3  0  0  0  0  0  0
    8.0095   15.2504   41.5409 C   0  0  0  0  0  0  0  0  0  0  0  0
    7.4297   14.4641   41.1211 C   0  0  0  0  0  0  0  0  0  0  0  0
    8.5831   15.6867   40.7603 O   0  0  0  0  0  0  0  0  0  0  0  0
    6.8151   13.9261   41.7117 C   0  0  0  0  0  3  0  0  0  0  0  0
    7.6453   14.4159   40.0819 N   0  0  0  0  0  0  0  0  0  0  0  0
    8.3575   15.1721   39.8591 C   0  0  0  0  0  3  0  0  0  0  0  0
    7.2393   13.7597   39.4155 H   0  0  0  0  0  0  0  0  0  0  0  0
    8.7736   15.3766   38.9023 N   0  0  0  0  0  0  0  0  0  0  0  0
    9.1632   14.6184   38.3433 H   0  0  0  0  0  0  0  0  0  0  0  0
    8.7816   16.3705   38.5284 C   0  0  0  0  0  0  0  0  0  0  0  0
    7.9408   16.9083   38.1646 C   0  0  0  0  0  3  0  0  0  0  0  0
    8.2710   17.8722   37.8643 C   0  0  0  0  0  3  0  0  0  0  0  0
    9.3167   17.9305   38.0422 C   0  0  0  0  0  3  0  0  0  0  0  0
    9.6317   17.0033   38.4522 C   0  0  0  0  0  2  0  0  0  0  0  0
    4.2734    9.8716   42.6433 C   0  0  0  0  0  0  0  0  0  0  0  0
    4.4277    9.5294   41.7074 C   0  0  0  0  0  0  0  0  0  0  0  0
    3.7125    8.9496   41.1756 C   0  0  0  0  0  3  0  0  0  0  0  0
    5.6576    9.8783   41.1649 C   0  0  0  0  0  1  0  0  0  0  0  0
    2.8138    8.7553   41.7078 C   0  0  0  0  0  0  0  0  0  0  0  0
    2.7034    9.1303   42.6714 C   0  0  0  0  0  3  0  0  0  0  0  0
    3.4113    9.6727   43.1254 C   0  0  0  0  0  3  0  0  0  0  0  0
    2.0533    8.1407   41.1483 N   0  0  0  0  0  0  0  0  0  0  0  0
    2.2606    7.9379   40.1703 H   0  0  0  0  0  0  0  0  0  0  0  0
    1.2815    7.8088   41.4736 C   0  0  0  0  0  0  0  0  0  0  0  0
    0.5538    8.0924   41.0930 C   0  0  0  0  0  3  0  0  0  0  0  0
   -0.1535    7.8024   41.3752 C   0  0  0  0  0  2  0  0  0  0  0  0
   -0.1961    7.2278   42.0340 N   0  0  0  0  0  0  0  0  0  0  0  0
    0.5314    6.9428   42.4145 C   0  0  0  0  0  3  0  0  0  0  0  0
   -1.1021    6.8897   42.3562 H   0  0  0  0  0  0  0  0  0  0  0  0
    1.2382    7.2336   42.1319 C   0  0  0  0  0  3  0  0  0  0  0  0
  1  2  1  0
  3  9  1  0
  4  3  1  0
  5 12  1  0
  6  5  1  0
  7  3  1  0
  7 11  2  0
  8 13  1  0
  8  1  1  0
  9 10  2  0
  9  5  1  0
 10  8  1  0
 11 10  1  0
 12  1  1  0
 13 14  1  0
 14 15  1  0
 15 16  2  0
 17 19  1  0
 17 16  1  0
 18 17  2  0
 20 18  1  0
 20 14  2  0
 21 18  1  0
 21 22  1  0
 22 24  1  0
 22 19  1  0
 23 21  1  0
 24 26  1  0
 25 24  1  0
 26 30  1  0
 27 26  2  0
 27 28  1  0
 28 29  2  0
 30 29  1  0
 31  7  1  0
 32 31  2  0
 32 34  1  0
 33 32  1  0
 35 33  2  0
 35 36  1  0
 36 37  2  0
 37 31  1  0
 38 35  1  0
 39 38  1  0
 40 38  1  0
 41 40  2  0
 42 41  1  0
 43 42  1  0
 43 44  1  0
 44 46  2  0
 45 43  1  0
 46 40  1  0
M  END
>  <MODEL>  (6) 
1

>  <REMARK>  (6) 
 VINA RESULT:     -13.1      0.000      0.000
  7 active torsions:
  status: ('A' for Active; 'I' for Inactive)
    1  A    between atoms: O_1  and  C_15 
    2  A    between atoms: O_1  and  C_32 
    3  A    between atoms: C_12  and  N_2 
    4  A    between atoms: N_2  and  C_20 
    5  A    between atoms: C_23  and  C_14 
    6  A    between atoms: C_37  and  N_40 
    7  A    between atoms: N_40  and  C_42 

>  <TORSDO>  (6) 
F 7

$$$$
/home/haotian/molecules_confs/Protein_test/SurfGen/data/pan/synthesis/7_out.pdbqt
     RDKit          3D

 43 46  0  0  1  0  0  0  0  0999 V2000
    4.9999   14.6752   40.6946 N   0  0  0  0  0  0  0  0  0  0  0  0
    5.5850   15.4930   40.5235 H   0  0  0  0  0  0  0  0  0  0  0  0
    2.4471   10.7238   41.6718 N   0  0  0  0  0  0  0  0  0  0  0  0
    1.5315   10.3886   41.3747 H   0  0  0  0  0  0  0  0  0  0  0  0
    2.6156   13.2860   40.2299 N   0  0  0  0  0  0  0  0  0  0  0  0
    1.7062   13.2257   39.7723 H   0  0  0  0  0  0  0  0  0  0  0  0
    3.5262    9.9652   42.7110 C   0  0  0  0  0  0  0  0  0  0  0  0
    5.4101   13.5202   41.6078 C   0  0  0  0  0  3  0  0  0  0  0  0
    3.2007   12.1463   41.2302 C   0  0  0  0  0  0  0  0  0  0  0  0
    4.5111   12.2561   41.8760 C   0  0  0  0  0  0  0  0  0  0  0  0
    4.8047   10.9214   42.8340 C   0  0  0  0  0  3  0  0  0  0  0  0
    3.5875   14.4724   40.0485 C   0  0  0  0  0  2  0  0  0  0  0  0
    3.2677    8.4148   43.4992 C   0  0  0  0  0  0  0  0  0  0  0  0
    1.8476    8.0599   44.0767 C   0  0  0  0  0  3  0  0  0  0  0  0
    1.5103    6.6196   44.8366 C   0  0  0  0  0  3  0  0  0  0  0  0
    0.3544    9.6078   43.8018 C   0  0  0  0  0 15  0  0  0  0  0  0
    2.7943    5.5727   44.9420 C   0  0  0  0  0  0  0  0  0  0  0  0
    4.2301    6.0143   44.3202 C   0  0  0  0  0  3  0  0  0  0  0  0
    4.4595    7.3930   43.6204 C   0  0  0  0  0  3  0  0  0  0  0  0
    2.4434    4.0465   45.7450 N   0  0  0  0  0  0  0  0  0  0  0  0
    1.4591    3.8210   45.8891 H   0  0  0  0  0  0  0  0  0  0  0  0
    3.3791    3.1026   46.2119 C   0  0  0  0  0  0  0  0  0  0  0  0
    3.4493    2.9491   47.5580 C   0  0  0  0  0  3  0  0  0  0  0  0
    4.2878    2.1012   48.0050 C   0  0  0  0  0  2  0  0  0  0  0  0
    5.0944    1.3635   47.1846 N   0  0  0  0  0  0  0  0  0  0  0  0
    5.0243    1.5170   45.8385 C   0  0  0  0  0  3  0  0  0  0  0  0
    5.7524    0.6948   47.5861 H   0  0  0  0  0  0  0  0  0  0  0  0
    4.1858    2.3650   45.3915 C   0  0  0  0  0  3  0  0  0  0  0  0
    6.9826   13.6525   42.3833 N   0  0  0  0  0  0  0  0  0  0  0  0
    7.0797   13.6655   43.3992 H   0  0  0  0  0  0  0  0  0  0  0  0
    8.3686   13.7596   41.3253 C   0  0  0  0  0  2  0  0  0  0  0  0
    8.2962   13.8057   39.5806 C   0  0  0  0  0  2  0  0  0  0  0  0
    8.0987   15.3334   38.7559 C   0  0  0  0  0  2  0  0  0  0  0  0
    9.0783   16.7051   39.2138 C   0  0  0  0  0  2  0  0  0  0  0  0
   10.5109   17.1008   38.2947 N   0  0  0  0  0  0  0  0  0  0  0  0
   11.3775   17.3361   38.7785 H   0  0  0  0  0  0  0  0  0  0  0  0
   10.4590   17.0940   36.5486 C   0  0  0  0  0  0  0  0  0  0  0  0
   11.9392   17.2142   35.6300 C   0  0  0  0  0  3  0  0  0  0  0  0
   11.8875   17.2084   33.8840 C   0  0  0  0  0  3  0  0  0  0  0  0
   10.3534   17.0808   33.0567 C   0  0  0  0  0  0  0  0  0  0  0  0
    8.8733   16.9606   33.9753 C   0  0  0  0  0  3  0  0  0  0  0  0
   10.3016   17.0740   31.3106 Cl  0  0  0  0  0  0  0  0  0  0  0  0
    8.9261   16.9672   35.7212 C   0  0  0  0  0  3  0  0  0  0  0  0
  1  8  1  0
  2  1  1  0
  3  7  1  0
  4  3  1  0
  5  9  1  0
  6  5  1  0
  7 11  2  0
  7 13  1  0
  8 10  1  0
  8 29  1  0
  9  3  1  0
  9 10  2  0
 10 11  1  0
 12  5  1  0
 12  1  1  0
 13 19  2  0
 13 14  1  0
 14 15  2  0
 15 17  1  0
 17 20  1  0
 18 17  2  0
 19 18  1  0
 20 21  1  0
 20 22  1  0
 22 23  2  0
 23 24  1  0
 25 27  1  0
 25 24  1  0
 26 25  1  0
 28 26  2  0
 28 22  1  0
 29 30  1  0
 31 29  1  0
 32 31  1  0
 33 34  1  0
 33 32  1  0
 35 36  1  0
 35 34  1  0
 37 35  1  0
 38 37  1  0
 39 38  2  0
 40 41  2  0
 40 39  1  0
 41 43  1  0
 42 40  1  0
 43 37  2  0
M  END
>  <MODEL>  (7) 
1

>  <REMARK>  (7) 
 VINA RESULT:     -15.5      0.000      0.000
  10 active torsions:
  status: ('A' for Active; 'I' for Inactive)
    1  A    between atoms: N_1  and  C_16 
    2  A    between atoms: N_1  and  C_30 
    3  A    between atoms: C_13  and  N_3 
    4  A    between atoms: N_3  and  C_19 
    5  A    between atoms: C_22  and  C_15 
    6  A    between atoms: C_30  and  C_32 
    7  A    between atoms: C_32  and  C_33 
    8  A    between atoms: C_33  and  C_34 
    9  A    between atoms: C_34  and  N_35 
   10  A    between atoms: N_35  and  C_37 

>  <TORSDO>  (7) 
F 10

$$$$
/home/haotian/molecules_confs/Protein_test/SurfGen/data/pan/synthesis/8_out.pdbqt
     RDKit          3D

 47 52  0  0  1  0  0  0  0  0999 V2000
    8.6846   13.1085   42.7726 N   0  0  0  0  0  0  0  0  0  0  0  0
    9.3743   13.8583   42.8101 H   0  0  0  0  0  0  0  0  0  0  0  0
    6.4978   10.9580   42.5634 N   0  0  0  0  0  0  0  0  0  0  0  0
    6.4162   10.0028   42.9113 H   0  0  0  0  0  0  0  0  0  0  0  0
    8.2006   11.4420   43.2111 N   0  0  0  0  0  0  0  0  0  0  0  0
    8.4071   10.5559   43.6730 H   0  0  0  0  0  0  0  0  0  0  0  0
    5.7782   11.5071   41.9838 C   0  0  0  0  0  0  0  0  0  0  0  0
    7.8250   13.1900   42.3134 C   0  0  0  0  0  3  0  0  0  0  0  0
    7.3156   11.6306   42.6949 C   0  0  0  0  0  0  0  0  0  0  0  0
    7.1399   12.4503   42.2743 C   0  0  0  0  0  0  0  0  0  0  0  0
    6.1802   12.4318   41.8073 C   0  0  0  0  0  3  0  0  0  0  0  0
    8.8173   12.2127   43.2024 C   0  0  0  0  0  2  0  0  0  0  0  0
    7.6142   14.1718   41.8097 N   0  0  0  0  0  0  0  0  0  0  0  0
    7.6537   15.1291   42.4025 C   0  0  0  0  0  2  0  0  0  0  0  0
    7.4425   16.1115   41.8981 C   0  0  0  0  0  3  0  0  0  0  0  0
    7.1913   16.1382   40.8010 C   0  0  0  0  0  3  0  0  0  0  0  0
    7.1512   15.1836   40.2093 C   0  0  0  0  0  0  0  0  0  0  0  0
    7.3629   14.1996   40.7135 C   0  0  0  0  0  3  0  0  0  0  0  0
    6.8997   15.2101   39.1136 N   0  0  0  0  0  0  0  0  0  0  0  0
    7.6970   15.4553   38.3596 C   0  0  0  0  0  0  0  0  0  0  0  0
    7.4464   15.4828   37.2628 N   0  0  0  0  0  0  0  0  0  0  0  0
    8.7470   15.6746   38.7010 O   0  0  0  0  0  0  0  0  0  0  0  0
    6.4948   15.2843   36.9524 H   0  0  0  0  0  0  0  0  0  0  0  0
    5.9488   15.0124   38.8034 H   0  0  0  0  0  0  0  0  0  0  0  0
    8.2437   15.7280   36.5089 C   0  0  0  0  0  0  0  0  0  0  0  0
    8.5405   16.7981   36.3307 C   0  0  0  0  0  3  0  0  0  0  0  0
    9.3379   17.0447   35.5763 C   0  0  0  0  0  3  0  0  0  0  0  0
    9.8398   16.2193   34.9993 C   0  0  0  0  0  0  0  0  0  0  0  0
    9.5435   15.1476   35.1773 C   0  0  0  0  0  3  0  0  0  0  0  0
   10.6371   16.4635   34.2444 Cl  0  0  0  0  0  0  0  0  0  0  0  0
    8.7455   14.9026   35.9319 C   0  0  0  0  0  3  0  0  0  0  0  0
    4.7765   11.1186   41.6456 C   0  0  0  0  0  0  0  0  0  0  0  0
    4.7066   10.6026   40.7825 C   0  0  0  0  0  0  0  0  0  0  0  0
    3.7891   10.2118   40.4126 C   0  0  0  0  0  3  0  0  0  0  0  0
    5.9100   10.4423   40.1096 C   0  0  0  0  0  1  0  0  0  0  0  0
    2.9433   10.4073   41.0266 C   0  0  0  0  0  0  0  0  0  0  0  0
    3.0694   10.9440   41.9073 C   0  0  0  0  0  3  0  0  0  0  0  0
    3.9586   11.2895   42.2078 C   0  0  0  0  0  3  0  0  0  0  0  0
    1.9692    9.9940   40.6380 N   0  0  0  0  0  0  0  0  0  0  0  0
    1.5839   10.4402   39.8057 H   0  0  0  0  0  0  0  0  0  0  0  0
    1.4952    9.3109   40.9854 C   0  0  0  0  0  0  0  0  0  0  0  0
    1.1681    8.7447   40.4153 C   0  0  0  0  0  3  0  0  0  0  0  0
    0.7361    8.1207   40.7123 C   0  0  0  0  0  2  0  0  0  0  0  0
    0.5979    8.0121   41.5694 N   0  0  0  0  0  0  0  0  0  0  0  0
    0.9247    8.5781   42.1409 C   0  0  0  0  0  3  0  0  0  0  0  0
    0.0515    7.2166   41.8998 H   0  0  0  0  0  0  0  0  0  0  0  0
    1.3570    9.2024   41.8426 C   0  0  0  0  0  3  0  0  0  0  0  0
  1  2  1  0
  3  9  1  0
  4  3  1  0
  5 12  1  0
  6  5  1  0
  7  3  1  0
  7 11  2  0
  8 13  1  0
  8  1  1  0
  9 10  2  0
  9  5  1  0
 10  8  1  0
 11 10  1  0
 12  1  1  0
 13 14  1  0
 14 15  1  0
 16 15  2  0
 17 16  1  0
 18 13  1  0
 18 17  2  0
 19 17  1  0
 19 20  1  0
 20 22  2  0
 21 20  1  0
 21 25  1  0
 23 21  1  0
 24 19  1  0
 25 26  1  0
 26 27  2  0
 28 27  1  0
 28 30  1  0
 29 28  2  0
 31 25  2  0
 31 29  1  0
 32  7  1  0
 33 35  1  0
 33 32  2  0
 34 33  1  0
 36 34  2  0
 36 37  1  0
 37 38  2  0
 38 32  1  0
 39 36  1  0
 40 39  1  0
 41 47  1  0
 41 39  1  0
 42 41  2  0
 43 44  1  0
 43 42  1  0
 44 45  1  0
 45 47  2  0
 46 44  1  0
M  END
>  <MODEL>  (8) 
1

>  <REMARK>  (8) 
 VINA RESULT:     -13.0      0.000      0.000
  6 active torsions:
  status: ('A' for Active; 'I' for Inactive)
    1  A    between atoms: N_1  and  C_15 
    2  A    between atoms: C_12  and  N_2 
    3  A    between atoms: N_2  and  C_18 
    4  A    between atoms: C_21  and  C_14 
    5  A    between atoms: C_33  and  N_35 
       I    between atoms: N_35  and  C_37 
       I    between atoms: C_37  and  N_38 
    6  A    between atoms: N_38  and  C_40 

>  <TORSDO>  (8) 
F 6

$$$$
