ZINC03814457
     RDKit          3D

 30 31  0  0  1  0  0  0  0  0999 V2000
    3.6634    1.2443    0.6580 C   0  0  0  0  0  0  0  0  0  0  0  0
    3.4679   -0.2533    0.4477 C   0  0  0  0  0  0  0  0  0  0  0  0
    4.6198   -0.8791   -0.2681 C   0  0  0  0  0  0  0  0  0  0  0  0
    2.1912   -0.4965   -0.2747 C   0  0  0  0  0  0  0  0  0  0  0  0
    2.2221   -1.0622   -1.3523 O   0  0  0  0  0  0  0  0  0  0  0  0
    0.8832   -0.0655    0.2885 C   0  0  0  0  0  0  0  0  0  0  0  0
   -0.1821   -0.4175   -0.5997 O   0  0  0  0  0  0  0  0  0  0  0  0
   -1.5026   -0.1204   -0.2957 C   0  0  0  0  0  0  0  0  0  0  0  0
   -2.4626   -0.4981   -1.2120 C   0  0  0  0  0  0  0  0  0  0  0  0
   -3.7817   -0.2137   -0.9320 C   0  0  0  0  0  0  0  0  0  0  0  0
   -4.4902   -0.6847   -1.9767 N   0  0  0  0  0  0  0  0  0  0  0  0
   -3.6821   -1.2475   -2.8924 C   0  0  0  0  0  0  0  0  0  0  0  0
   -2.4344   -1.1241   -2.4055 N   0  0  0  0  0  0  0  0  0  0  0  0
   -4.0846    0.4182    0.2176 N   0  0  0  0  0  0  0  0  0  0  0  0
   -3.1653    0.7953    1.1244 C   0  0  0  0  0  0  0  0  0  0  0  0
   -1.8711    0.5083    0.8346 N   0  0  0  0  0  0  0  0  0  0  0  0
   -3.5242    1.4608    2.3272 N   0  0  0  0  0  0  0  0  0  0  0  0
    3.7647    1.7834   -0.2984 H   0  0  0  0  0  0  0  0  0  0  0  0
    4.5693    1.4089    1.2729 H   0  0  0  0  0  0  0  0  0  0  0  0
    2.7546    1.5883    1.2287 H   0  0  0  0  0  0  0  0  0  0  0  0
    3.4324   -0.6963    1.4798 H   0  0  0  0  0  0  0  0  0  0  0  0
    5.0657   -0.1485   -1.0009 H   0  0  0  0  0  0  0  0  0  0  0  0
    5.4376   -1.1803    0.4473 H   0  0  0  0  0  0  0  0  0  0  0  0
    4.3264   -1.7694   -0.8562 H   0  0  0  0  0  0  0  0  0  0  0  0
    0.8925    1.0404    0.3568 H   0  0  0  0  0  0  0  0  0  0  0  0
    0.7051   -0.4886    1.3011 H   0  0  0  0  0  0  0  0  0  0  0  0
   -5.5355   -0.6080   -2.0396 H   0  0  0  0  0  0  0  0  0  0  0  0
   -3.9732   -1.7136   -3.8438 H   0  0  0  0  0  0  0  0  0  0  0  0
   -4.4734    1.3794    2.7006 H   0  0  0  0  0  0  0  0  0  0  0  0
   -2.8330    2.0401    2.8483 H   0  0  0  0  0  0  0  0  0  0  0  0
  1  2  1  0
  1 18  1  0
  1 19  1  0
  1 20  1  0
  2  3  1  0
  2  4  1  0
  2 21  1  0
  3 22  1  0
  3 23  1  0
  3 24  1  0
  4  5  2  0
  4  6  1  0
  6  7  1  0
  6 25  1  0
  6 26  1  0
  7  8  1  0
  8 16  2  0
  8  9  1  0
  9 13  1  0
  9 10  2  0
 10 11  1  0
 10 14  1  0
 11 12  1  0
 11 27  1  0
 12 13  2  0
 12 28  1  0
 14 15  2  0
 15 16  1  0
 15 17  1  0
 17 29  1  0
 17 30  1  0
M  END
>  <id>  (1) 
ZINC03814457

>  <Cluster>  (1) 
1

>  <MODEL.SOURCE>  (1) 
CORINA 3.44 0027  09.01.2008

>  <MODEL.CCRATIO>  (1) 
1

>  <r_mmffld_Potential_Energy-OPLS_2005>  (1) 
-78.6454

>  <r_mmffld_RMS_Derivative-OPLS_2005>  (1) 
0.000213629

>  <b_mmffld_Minimization_Converged-OPLS_2005>  (1) 
1

$$$$
ZINC03814459
     RDKit          3D

 30 32  0  0  1  0  0  0  0  0999 V2000
   -3.7507   -1.2286   -2.8226 C   0  0  0  0  0  0  0  0  0  0  0  0
   -4.5781   -0.7182   -1.8921 N   0  0  0  0  0  0  0  0  0  0  0  0
   -3.8220   -0.2297   -0.8775 C   0  0  0  0  0  0  0  0  0  0  0  0
   -2.5055   -0.4630   -1.2273 C   0  0  0  0  0  0  0  0  0  0  0  0
   -2.4700   -1.0832   -2.4358 N   0  0  0  0  0  0  0  0  0  0  0  0
   -1.4804   -0.0716   -0.3807 C   0  0  0  0  0  0  0  0  0  0  0  0
   -1.8082    0.5335    0.7747 N   0  0  0  0  0  0  0  0  0  0  0  0
   -3.0820    0.7664    1.1273 C   0  0  0  0  0  0  0  0  0  0  0  0
   -4.0557    0.3734    0.2815 N   0  0  0  0  0  0  0  0  0  0  0  0
   -3.4675    1.3946    2.3231 N   0  0  0  0  0  0  0  0  0  0  0  0
   -0.1887   -0.3266   -0.7750 O   0  0  0  0  0  0  0  0  0  0  0  0
    0.8616    0.0724    0.0885 C   0  0  0  0  0  0  0  0  0  0  0  0
    2.2189   -0.2862   -0.5028 C   0  0  1  0  0  0  0  0  0  0  0  0
    3.2914    0.1057    0.4658 C   0  0  0  0  0  0  0  0  0  0  0  0
    4.2436   -1.0610    0.4238 C   0  0  0  0  0  0  0  0  0  0  0  0
    3.5688   -2.0676   -0.4362 C   0  0  0  0  0  0  0  0  0  0  0  0
    2.2789   -1.6499   -0.6834 O   0  0  0  0  0  0  0  0  0  0  0  0
   -4.0244   -1.7029   -3.7707 H   0  0  0  0  0  0  0  0  0  0  0  0
   -5.6042   -0.6912   -1.9219 H   0  0  0  0  0  0  0  0  0  0  0  0
   -4.0511    2.2570    2.3009 H   0  0  0  0  0  0  0  0  0  0  0  0
   -3.1749    1.0065    3.2462 H   0  0  0  0  0  0  0  0  0  0  0  0
    0.8268    1.1730    0.3064 H   0  0  0  0  0  0  0  0  0  0  0  0
    0.7348   -0.4204    1.0963 H   0  0  0  0  0  0  0  0  0  0  0  0
    2.2945    0.2036   -1.4777 H   0  0  0  0  0  0  0  0  0  0  0  0
    3.7589    1.0523    0.1361 H   0  0  0  0  0  0  0  0  0  0  0  0
    2.9058    0.2491    1.4964 H   0  0  0  0  0  0  0  0  0  0  0  0
    4.4013   -1.4441    1.4344 H   0  0  0  0  0  0  0  0  0  0  0  0
    5.2326   -0.7482   -0.0058 H   0  0  0  0  0  0  0  0  0  0  0  0
    3.4972   -3.0566    0.0896 H   0  0  0  0  0  0  0  0  0  0  0  0
    4.1146   -2.2494   -1.4068 H   0  0  0  0  0  0  0  0  0  0  0  0
  1  5  2  0
  1  2  1  0
  1 18  1  0
  2  3  1  0
  2 19  1  0
  3  9  1  0
  3  4  2  0
  4  5  1  0
  4  6  1  0
  6  7  2  0
  6 11  1  0
  7  8  1  0
  8  9  2  0
  8 10  1  0
 10 20  1  0
 10 21  1  0
 11 12  1  0
 12 13  1  0
 12 22  1  0
 12 23  1  0
 13 17  1  0
 13 14  1  0
 13 24  1  6
 14 15  1  0
 14 25  1  0
 14 26  1  0
 15 16  1  0
 15 27  1  0
 15 28  1  0
 16 17  1  0
 16 29  1  0
 16 30  1  0
M  END
>  <id>  (2) 
ZINC03814459

>  <Cluster>  (2) 
2

>  <MODEL.SOURCE>  (2) 
CORINA 3.44 0027  09.01.2008

>  <MODEL.CCRATIO>  (2) 
1

>  <s_st_Chirality_1>  (2) 
13_S_17_12_14_24

>  <r_mmffld_Potential_Energy-OPLS_2005>  (2) 
-67.4705

>  <r_mmffld_RMS_Derivative-OPLS_2005>  (2) 
9.48919e-05

>  <b_mmffld_Minimization_Converged-OPLS_2005>  (2) 
1

$$$$
ZINC03814460
     RDKit          3D

 30 32  0  0  1  0  0  0  0  0999 V2000
   -3.6471   -1.2225   -2.8356 C   0  0  0  0  0  0  0  0  0  0  0  0
   -4.5214   -0.6801   -1.9724 N   0  0  0  0  0  0  0  0  0  0  0  0
   -3.8092   -0.2041   -0.9191 C   0  0  0  0  0  0  0  0  0  0  0  0
   -2.4936   -0.4751   -1.1752 C   0  0  0  0  0  0  0  0  0  0  0  0
   -2.3825   -1.1008   -2.3511 N   0  0  0  0  0  0  0  0  0  0  0  0
   -1.4664   -0.1213   -0.2903 C   0  0  0  0  0  0  0  0  0  0  0  0
   -1.8882    0.5010    0.8184 N   0  0  0  0  0  0  0  0  0  0  0  0
   -3.1725    0.7830    1.1016 C   0  0  0  0  0  0  0  0  0  0  0  0
   -4.1378    0.4259    0.2228 N   0  0  0  0  0  0  0  0  0  0  0  0
   -3.5397    1.4525    2.3068 N   0  0  0  0  0  0  0  0  0  0  0  0
   -0.1828   -0.3716   -0.5197 O   0  0  0  0  0  0  0  0  0  0  0  0
    1.0174   -0.1988    0.0721 C   0  0  0  0  0  0  0  0  0  0  0  0
    1.2385   -0.8891    1.3718 C   0  0  1  0  0  0  0  0  0  0  0  0
    2.5557   -0.4437    2.0155 C   0  0  0  0  0  0  0  0  0  0  0  0
    2.1973    0.8240    2.7130 C   0  0  0  0  0  0  0  0  0  0  0  0
    0.7366    0.8075    2.8762 C   0  0  0  0  0  0  0  0  0  0  0  0
    0.0076    1.7141    3.3636 O   0  0  0  0  0  0  0  0  0  0  0  0
    0.2799   -0.4573    2.3708 N   0  0  0  0  0  0  0  0  0  0  0  0
   -3.8737   -1.6943   -3.7830 H   0  0  0  0  0  0  0  0  0  0  0  0
   -5.5459   -0.6224   -2.0667 H   0  0  0  0  0  0  0  0  0  0  0  0
   -2.8434    2.0281    2.8279 H   0  0  0  0  0  0  0  0  0  0  0  0
   -4.5054    1.3839    2.6942 H   0  0  0  0  0  0  0  0  0  0  0  0
    1.9068   -0.3907   -0.5797 H   0  0  0  0  0  0  0  0  0  0  0  0
    1.1286    0.9169    0.2952 H   0  0  0  0  0  0  0  0  0  0  0  0
    1.2185   -1.9859    1.2256 H   0  0  0  0  0  0  0  0  0  0  0  0
    3.2482   -0.2100    1.1809 H   0  0  0  0  0  0  0  0  0  0  0  0
    2.9631   -1.2258    2.6912 H   0  0  0  0  0  0  0  0  0  0  0  0
    2.6272    0.8230    3.7647 H   0  0  0  0  0  0  0  0  0  0  0  0
    2.5578    1.7349    2.1704 H   0  0  0  0  0  0  0  0  0  0  0  0
   -0.5699   -0.9533    2.6868 H   0  0  0  0  0  0  0  0  0  0  0  0
  1  5  2  0
  1  2  1  0
  1 19  1  0
  2  3  1  0
  2 20  1  0
  3  9  1  0
  3  4  2  0
  4  5  1  0
  4  6  1  0
  6  7  2  0
  6 11  1  0
  7  8  1  0
  8  9  2  0
  8 10  1  0
 10 21  1  0
 10 22  1  0
 11 12  1  0
 12 13  1  0
 12 23  1  0
 12 24  1  0
 13 18  1  0
 13 14  1  0
 13 25  1  6
 14 15  1  0
 14 26  1  0
 14 27  1  0
 15 16  1  0
 15 28  1  0
 15 29  1  0
 16 17  2  0
 16 18  1  0
 18 30  1  0
M  END
>  <id>  (3) 
ZINC03814460

>  <Cluster>  (3) 
2

>  <MODEL.SOURCE>  (3) 
CORINA 3.44 0027  09.01.2008

>  <MODEL.CCRATIO>  (3) 
1

>  <s_st_Chirality_1>  (3) 
13_R_18_12_14_25

>  <r_mmffld_Potential_Energy-OPLS_2005>  (3) 
-89.4303

>  <r_mmffld_RMS_Derivative-OPLS_2005>  (3) 
5.17485e-05

>  <b_mmffld_Minimization_Converged-OPLS_2005>  (3) 
1

$$$$
