8-methoxy-3-[7-methyl-4-(piperidin-1-yl)-5,6,7,8-tetrahydro[1]benzothieno[2,3-d]
     RDKit          2D

 33 38  0  0  0  0  0  0  0  0999 V2000
   -1.5372   -0.9918    0.0000 C   0  0  0  0  0  0  0  0  0  0  0  0
    0.2042    0.9918    0.0000 C   0  0  0  0  0  0  0  0  0  0  0  0
    1.0775    0.4973    0.0000 C   0  0  0  0  0  0  0  0  0  0  0  0
   -0.6639   -0.4922    0.0000 C   0  0  0  0  0  0  0  0  0  0  0  0
   -0.6587    0.4973    0.0000 N   0  0  0  0  0  0  0  0  0  0  0  0
    1.0675   -0.5072    0.0000 C   0  0  0  0  0  0  0  0  0  0  0  0
    0.2042   -1.0018    0.0000 N   0  0  0  0  0  0  0  0  0  0  0  0
    2.6069   -0.0177    0.0000 C   0  0  0  0  0  0  0  0  0  0  0  0
    2.0315    0.7949    0.0000 C   0  0  0  0  0  0  0  0  0  0  0  0
   -1.5372   -2.0015    0.0000 C   0  0  0  0  0  0  0  0  0  0  0  0
    2.0162   -0.8253    0.0000 S   0  0  0  0  0  0  0  0  0  0  0  0
   -2.4153   -2.5010    0.0000 O   0  0  0  0  0  0  0  0  0  0  0  0
   -2.4053   -0.4768    0.0000 C   0  0  0  0  0  0  0  0  0  0  0  0
   -3.2783   -2.0015    0.0000 C   0  0  0  0  0  0  0  0  0  0  0  0
    0.2146    1.9912    0.0000 N   0  0  0  0  0  0  0  0  0  0  0  0
   -3.2783   -0.9918    0.0000 C   0  0  0  0  0  0  0  0  0  0  0  0
    2.4455    1.7034    0.0000 C   0  0  0  0  0  0  0  0  0  0  0  0
    3.5962    0.0730    0.0000 C   0  0  0  0  0  0  0  0  0  0  0  0
   -0.6737   -2.5062    0.0000 O   0  0  0  0  0  0  0  0  0  0  0  0
   -4.1416   -2.4910    0.0000 C   0  0  0  0  0  0  0  0  0  0  0  0
    3.4397    1.7943    0.0000 C   0  0  0  0  0  0  0  0  0  0  0  0
    4.0152    0.9768    0.0000 C   0  0  0  0  0  0  0  0  0  0  0  0
   -4.1416   -3.4902    0.0000 O   0  0  0  0  0  0  0  0  0  0  0  0
    1.0927    2.4910    0.0000 C   0  0  0  0  0  0  0  0  0  0  0  0
   -0.6436    2.4910    0.0000 C   0  0  0  0  0  0  0  0  0  0  0  0
   -4.1416   -0.4922    0.0000 C   0  0  0  0  0  0  0  0  0  0  0  0
   -5.0045   -0.9918    0.0000 C   0  0  0  0  0  0  0  0  0  0  0  0
   -5.0045   -1.9912    0.0000 C   0  0  0  0  0  0  0  0  0  0  0  0
   -5.0045   -3.9902    0.0000 C   0  0  0  0  0  0  0  0  0  0  0  0
    5.0045    1.0675    0.0000 C   0  0  0  0  0  0  0  0  0  0  0  0
   -0.6284    3.4955    0.0000 C   0  0  0  0  0  0  0  0  0  0  0  0
    1.0979    3.4804    0.0000 C   0  0  0  0  0  0  0  0  0  0  0  0
    0.2346    3.9902    0.0000 C   0  0  0  0  0  0  0  0  0  0  0  0
  2  5  2  0
  3  6  2  0
  2  3  1  0
  1  4  1  0
  4  5  1  0
  6  7  1  0
  4  7  2  0
  8 11  1  0
  8  9  2  0
  3  9  1  0
  1 10  1  0
  6 11  1  0
 10 12  1  0
 12 14  1  0
  1 13  2  0
 14 16  1  0
  2 15  1  0
 13 16  1  0
  9 17  1  0
  8 18  1  0
 10 19  2  0
 14 20  2  0
 17 21  1  0
 21 22  1  0
 18 22  1  0
 20 23  1  0
 15 24  1  0
 15 25  1  0
 16 26  2  0
 26 27  1  0
 27 28  2  0
 20 28  1  0
 23 29  1  0
 22 30  1  0
 25 31  1  0
 24 32  1  0
 31 33  1  0
 32 33  1  0
M  END
>  <IDNUMBER>  (1) 
C200-4134

>  <available>  (1) 
37

>  <H_acceptor>  (1) 
6

>  <H_donor>  (1) 
0

>  <B_rotN>  (1) 
3

>  <N_O>  (1) 
6

>  <logP>  (1) 
6.423

>  <logD>  (1) 
6.423

>  <logSw>  (1) 
-5.7996

>  <PSA>  (1) 
51.185

>  <pKa_ma>  (1) 
21.9462

>  <pKa_mb>  (1) 
2.6836

>  <N_Chirals>  (1) 
1

>  <Name>  (1) 
8-methoxy-3-[7-methyl-4-(piperidin-1-yl)-5,6,7,8-tetrahydro[1]benzothieno[2,3-d]pyrimidin-2-yl]-2H-1-benzopyran-2-one

>  <Smile>  (1) 
CC(CC1)Cc2c1c1c(N3CCCCC3)nc(C3=Cc(cccc4OC)c4OC3=O)nc1s2

>  <Color>  (1) 
YELLOW

>  <Collection>  (1) 
DC

>  <InChI>  (1) 
InChI=1S/C26H27N3O3S/c1-15-9-10-17-20(13-15)33-25-21(17)24(29-11-4-3-5-12-29)27-23(28-25)18-14-16-7-6-8-19(31-2)22(16)32-26(18)30/h6-8,14-15H,3-5,9-13H2,1-2H3/t15-/m1/s1

>  <InChI Key>  (1) 
VMUJNFOIIMUTIY-OAHLLOKOSA-N

>  <PERCENTSP3>  (1) 
42.3

>  <Link>  (1) 
https://www.chemdiv.com/catalog/screening-compounds/compound-C200-4134/

>  <MFCDNUMBER>  (1) 
MFCD14727227

>  <CLNUMBER>  (1) 
CL1996

>  <STEREO>  (1) 
RACEMIC MIXTURE

>  <State>  (1) 
Solid

>  <Similarity score>  (1) 
0.23

$$$$
6,8-difluoro-1-(4-fluorophenyl)-3-(3-methoxyphenyl)-1H-pyrazolo[4,3-c]quinoline
     RDKit          2D

 30 34  0  0  0  0  0  0  0  0999 V2000
   -0.4486    0.4624    0.0000 N   0  0  0  0  0  0  0  0  0  0  0  0
    0.2257   -1.0142    0.0000 C   0  0  0  0  0  0  0  0  0  0  0  0
   -0.6493   -0.5127    0.0000 C   0  0  0  0  0  0  0  0  0  0  0  0
    0.5544    0.5572    0.0000 N   0  0  0  0  0  0  0  0  0  0  0  0
    0.9835   -0.3344    0.0000 C   0  0  0  0  0  0  0  0  0  0  0  0
   -1.5352   -1.0142    0.0000 C   0  0  0  0  0  0  0  0  0  0  0  0
   -1.5352   -2.0060    0.0000 C   0  0  0  0  0  0  0  0  0  0  0  0
   -0.6493   -2.4908    0.0000 N   0  0  0  0  0  0  0  0  0  0  0  0
    0.2257   -2.0060    0.0000 C   0  0  0  0  0  0  0  0  0  0  0  0
    1.9810   -0.4346    0.0000 C   0  0  0  0  0  0  0  0  0  0  0  0
   -2.3989   -2.4908    0.0000 C   0  0  0  0  0  0  0  0  0  0  0  0
   -1.0727    1.2315    0.0000 C   0  0  0  0  0  0  0  0  0  0  0  0
   -3.2849   -2.0060    0.0000 C   0  0  0  0  0  0  0  0  0  0  0  0
   -2.3989   -0.5127    0.0000 C   0  0  0  0  0  0  0  0  0  0  0  0
   -3.2738   -1.0142    0.0000 C   0  0  0  0  0  0  0  0  0  0  0  0
    2.5605    0.3845    0.0000 C   0  0  0  0  0  0  0  0  0  0  0  0
   -2.0644    1.0532    0.0000 C   0  0  0  0  0  0  0  0  0  0  0  0
   -0.7327    2.1509    0.0000 C   0  0  0  0  0  0  0  0  0  0  0  0
   -2.3934   -3.4883    0.0000 F   0  0  0  0  0  0  0  0  0  0  0  0
   -2.3711    2.7249    0.0000 C   0  0  0  0  0  0  0  0  0  0  0  0
    3.5745    0.2953    0.0000 C   0  0  0  0  0  0  0  0  0  0  0  0
   -4.1486   -0.5182    0.0000 F   0  0  0  0  0  0  0  0  0  0  0  0
   -1.3847    2.9032    0.0000 C   0  0  0  0  0  0  0  0  0  0  0  0
   -2.7108    1.8054    0.0000 C   0  0  0  0  0  0  0  0  0  0  0  0
   -3.0175    3.4883    0.0000 F   0  0  0  0  0  0  0  0  0  0  0  0
    2.4044   -1.3428    0.0000 C   0  0  0  0  0  0  0  0  0  0  0  0
    4.1486    1.0977    0.0000 O   0  0  0  0  0  0  0  0  0  0  0  0
    3.4076   -1.4320    0.0000 C   0  0  0  0  0  0  0  0  0  0  0  0
    3.9981   -0.6074    0.0000 C   0  0  0  0  0  0  0  0  0  0  0  0
    3.7139    1.9837    0.0000 C   0  0  0  0  0  0  0  0  0  0  0  0
  2  3  2  0
  2  5  1  0
  1  3  1  0
  1  4  1  0
  4  5  2  0
  3  6  1  0
  6  7  1  0
  7  8  1  0
  8  9  2  0
  2  9  1  0
  5 10  1  0
  7 11  2  0
  1 12  1  0
 13 15  2  0
 11 13  1  0
  6 14  2  0
 14 15  1  0
 10 16  1  0
 12 17  2  0
 12 18  1  0
 11 19  1  0
 20 23  1  0
 20 24  2  0
 16 21  2  0
 21 29  1  0
 15 22  1  0
 18 23  2  0
 17 24  1  0
 20 25  1  0
 10 26  2  0
 21 27  1  0
 26 28  1  0
 28 29  2  0
 27 30  1  0
M  END
>  <IDNUMBER>  (2) 
C350-0671

>  <available>  (2) 
81

>  <H_acceptor>  (2) 
3

>  <H_donor>  (2) 
0

>  <B_rotN>  (2) 
3

>  <N_O>  (2) 
4

>  <logP>  (2) 
5.6044

>  <logD>  (2) 
5.6044

>  <logSw>  (2) 
-5.7434

>  <PSA>  (2) 
31.0241

>  <pKa_ma>  (2) 
32.859

>  <pKa_mb>  (2) 
2.7705

>  <N_Chirals>  (2) 
0

>  <Name>  (2) 
6,8-difluoro-1-(4-fluorophenyl)-3-(3-methoxyphenyl)-1H-pyrazolo[4,3-c]quinoline

>  <Smile>  (2) 
COc1cccc(-c(c2cnc3c(F)cc(F)cc3c22)nn2-c(cc2)ccc2F)c1

>  <Color>  (2) 
NOT COLORED

>  <Collection>  (2) 
DC

>  <InChI>  (2) 
InChI=1S/C23H14F3N3O/c1-30-17-4-2-3-13(9-17)21-19-12-27-22-18(10-15(25)11-20(22)26)23(19)29(28-21)16-7-5-14(24)6-8-16/h2-12H,1H3

>  <InChI Key>  (2) 
FJPLPDZRGWLLHS-UHFFFAOYSA-N

>  <PERCENTSP3>  (2) 
4.3

>  <Link>  (2) 
https://www.chemdiv.com/catalog/screening-compounds/compound-C350-0671/

>  <MFCDNUMBER>  (2) 
MFCD14750568

>  <CLNUMBER>  (2) 
CL4130

>  <STEREO>  (2) 
ACHIRAL

>  <State>  (2) 
Solid

>  <Similarity score>  (2) 
0.23

$$$$
3-(4-ethoxyphenyl)-6,8-difluoro-1-(4-fluorophenyl)-1H-pyrazolo[4,3-c]quinoline
     RDKit          2D

 31 35  0  0  0  0  0  0  0  0999 V2000
   -1.5756    0.4393    0.0000 N   0  0  0  0  0  0  0  0  0  0  0  0
   -0.9125   -1.0244    0.0000 C   0  0  0  0  0  0  0  0  0  0  0  0
   -1.7885   -0.5255    0.0000 C   0  0  0  0  0  0  0  0  0  0  0  0
   -0.5687    0.5457    0.0000 N   0  0  0  0  0  0  0  0  0  0  0  0
   -0.1474   -0.3458    0.0000 C   0  0  0  0  0  0  0  0  0  0  0  0
   -2.6687   -1.0244    0.0000 C   0  0  0  0  0  0  0  0  0  0  0  0
   -2.6687   -2.0201    0.0000 C   0  0  0  0  0  0  0  0  0  0  0  0
   -1.7885   -2.5191    0.0000 N   0  0  0  0  0  0  0  0  0  0  0  0
   -0.9125   -2.0201    0.0000 C   0  0  0  0  0  0  0  0  0  0  0  0
   -3.5291   -2.5191    0.0000 C   0  0  0  0  0  0  0  0  0  0  0  0
   -2.2009    1.2108    0.0000 C   0  0  0  0  0  0  0  0  0  0  0  0
   -4.4050   -2.0201    0.0000 C   0  0  0  0  0  0  0  0  0  0  0  0
    0.8550   -0.4501    0.0000 C   0  0  0  0  0  0  0  0  0  0  0  0
   -3.5291   -0.5255    0.0000 C   0  0  0  0  0  0  0  0  0  0  0  0
   -4.4050   -1.0244    0.0000 C   0  0  0  0  0  0  0  0  0  0  0  0
   -3.1655    1.0600    0.0000 C   0  0  0  0  0  0  0  0  0  0  0  0
   -1.8372    2.1311    0.0000 C   0  0  0  0  0  0  0  0  0  0  0  0
    1.4380    0.3636    0.0000 C   0  0  0  0  0  0  0  0  0  0  0  0
    1.2716   -1.3570    0.0000 C   0  0  0  0  0  0  0  0  0  0  0  0
   -3.5291   -3.5169    0.0000 F   0  0  0  0  0  0  0  0  0  0  0  0
   -3.4385    2.7477    0.0000 C   0  0  0  0  0  0  0  0  0  0  0  0
   -5.2745   -0.5255    0.0000 F   0  0  0  0  0  0  0  0  0  0  0  0
    2.8774   -0.6320    0.0000 C   0  0  0  0  0  0  0  0  0  0  0  0
   -3.7952    1.8139    0.0000 C   0  0  0  0  0  0  0  0  0  0  0  0
   -2.4713    2.8983    0.0000 C   0  0  0  0  0  0  0  0  0  0  0  0
    2.2741   -1.4480    0.0000 C   0  0  0  0  0  0  0  0  0  0  0  0
    2.4492    0.2730    0.0000 C   0  0  0  0  0  0  0  0  0  0  0  0
   -4.0726    3.5169    0.0000 F   0  0  0  0  0  0  0  0  0  0  0  0
    3.8687   -0.7229    0.0000 O   0  0  0  0  0  0  0  0  0  0  0  0
    4.2811   -1.6432    0.0000 C   0  0  0  0  0  0  0  0  0  0  0  0
    5.2745   -1.7342    0.0000 C   0  0  0  0  0  0  0  0  0  0  0  0
  2  3  2  0
  1  3  1  0
  1  4  1  0
  4  5  2  0
  2  5  1  0
  3  6  1  0
  6  7  1  0
  7  8  1  0
  8  9  2  0
  2  9  1  0
  7 10  2  0
 10 12  1  0
  1 11  1  0
 12 15  2  0
  5 13  1  0
  6 14  2  0
 14 15  1  0
 11 16  1  0
 11 17  2  0
 13 18  1  0
 13 19  2  0
 10 20  1  0
 21 25  2  0
 21 24  1  0
 15 22  1  0
 23 26  2  0
 23 27  1  0
 16 24  2  0
 17 25  1  0
 19 26  1  0
 18 27  2  0
 21 28  1  0
 23 29  1  0
 29 30  1  0
 30 31  1  0
M  END
>  <IDNUMBER>  (3) 
C350-0829

>  <available>  (3) 
136

>  <H_acceptor>  (3) 
3

>  <H_donor>  (3) 
0

>  <B_rotN>  (3) 
4

>  <N_O>  (3) 
4

>  <logP>  (3) 
5.8247

>  <logD>  (3) 
5.8247

>  <logSw>  (3) 
-5.6284

>  <PSA>  (3) 
30.6039

>  <pKa_ma>  (3) 
29.8521

>  <pKa_mb>  (3) 
2.2647

>  <N_Chirals>  (3) 
0

>  <Name>  (3) 
3-(4-ethoxyphenyl)-6,8-difluoro-1-(4-fluorophenyl)-1H-pyrazolo[4,3-c]quinoline

>  <Smile>  (3) 
CCOc(cc1)ccc1-c(c1cnc2c(F)cc(F)cc2c11)nn1-c(cc1)ccc1F

>  <Color>  (3) 
NOT COLORED

>  <Collection>  (3) 
DC

>  <InChI>  (3) 
InChI=1S/C24H16F3N3O/c1-2-31-18-9-3-14(4-10-18)22-20-13-28-23-19(11-16(26)12-21(23)27)24(20)30(29-22)17-7-5-15(25)6-8-17/h3-13H,2H2,1H3

>  <InChI Key>  (3) 
HRNCXJIVPOGOGJ-UHFFFAOYSA-N

>  <PERCENTSP3>  (3) 
8.3

>  <Link>  (3) 
https://www.chemdiv.com/catalog/screening-compounds/compound-C350-0829/

>  <MFCDNUMBER>  (3) 
MFCD14750695

>  <CLNUMBER>  (3) 
CL4130

>  <STEREO>  (3) 
ACHIRAL

>  <State>  (3) 
Solid

>  <Similarity score>  (3) 
0.23

$$$$
7-methoxy-3-[7-methyl-4-(piperidin-1-yl)-5,6,7,8-tetrahydro[1]benzothieno[2,3-d]
     RDKit          2D

 33 38  0  0  0  0  0  0  0  0999 V2000
   -0.6712   -1.7336    0.0000 C   0  0  0  0  0  0  0  0  0  0  0  0
    1.0701    0.2497    0.0000 C   0  0  0  0  0  0  0  0  0  0  0  0
    1.9433   -0.2451    0.0000 C   0  0  0  0  0  0  0  0  0  0  0  0
    0.2020   -1.2339    0.0000 C   0  0  0  0  0  0  0  0  0  0  0  0
    0.2069   -0.2451    0.0000 N   0  0  0  0  0  0  0  0  0  0  0  0
    1.9330   -1.2492    0.0000 C   0  0  0  0  0  0  0  0  0  0  0  0
    1.0701   -1.7439    0.0000 N   0  0  0  0  0  0  0  0  0  0  0  0
    3.4725   -0.7596    0.0000 C   0  0  0  0  0  0  0  0  0  0  0  0
    2.8969    0.0528    0.0000 C   0  0  0  0  0  0  0  0  0  0  0  0
   -0.6712   -2.7434    0.0000 C   0  0  0  0  0  0  0  0  0  0  0  0
    2.8819   -1.5674    0.0000 S   0  0  0  0  0  0  0  0  0  0  0  0
   -1.5395   -1.2191    0.0000 C   0  0  0  0  0  0  0  0  0  0  0  0
   -1.5496   -3.2427    0.0000 O   0  0  0  0  0  0  0  0  0  0  0  0
    1.0799    1.2492    0.0000 N   0  0  0  0  0  0  0  0  0  0  0  0
   -2.4125   -2.7434    0.0000 C   0  0  0  0  0  0  0  0  0  0  0  0
   -2.4125   -1.7336    0.0000 C   0  0  0  0  0  0  0  0  0  0  0  0
    3.3109    0.9614    0.0000 C   0  0  0  0  0  0  0  0  0  0  0  0
   -3.2757   -3.2330    0.0000 C   0  0  0  0  0  0  0  0  0  0  0  0
    4.4614   -0.6690    0.0000 C   0  0  0  0  0  0  0  0  0  0  0  0
    0.1917   -3.2478    0.0000 O   0  0  0  0  0  0  0  0  0  0  0  0
   -3.2757   -1.2339    0.0000 C   0  0  0  0  0  0  0  0  0  0  0  0
   -4.1386   -2.7331    0.0000 C   0  0  0  0  0  0  0  0  0  0  0  0
    4.3053    1.0520    0.0000 C   0  0  0  0  0  0  0  0  0  0  0  0
   -4.1386   -1.7336    0.0000 C   0  0  0  0  0  0  0  0  0  0  0  0
    4.8804    0.2344    0.0000 C   0  0  0  0  0  0  0  0  0  0  0  0
    0.2221    1.7485    0.0000 C   0  0  0  0  0  0  0  0  0  0  0  0
    1.9583    1.7485    0.0000 C   0  0  0  0  0  0  0  0  0  0  0  0
   -5.0121   -3.2330    0.0000 O   0  0  0  0  0  0  0  0  0  0  0  0
   -5.8698   -2.7331    0.0000 C   0  0  0  0  0  0  0  0  0  0  0  0
    5.8698    0.3254    0.0000 C   0  0  0  0  0  0  0  0  0  0  0  0
    0.2374    2.7531    0.0000 C   0  0  0  0  0  0  0  0  0  0  0  0
    1.9635    2.7379    0.0000 C   0  0  0  0  0  0  0  0  0  0  0  0
    1.1002    3.2478    0.0000 C   0  0  0  0  0  0  0  0  0  0  0  0
  2  5  2  0
  3  6  2  0
  2  3  1  0
  1  4  1  0
  4  5  1  0
  6  7  1  0
  4  7  2  0
  8 11  1  0
  8  9  2  0
  3  9  1  0
  1 10  1  0
  6 11  1  0
  1 12  2  0
 10 13  1  0
 13 15  1  0
  2 14  1  0
 15 16  1  0
 12 16  1  0
  9 17  1  0
 15 18  2  0
  8 19  1  0
 10 20  2  0
 16 21  2  0
 22 24  2  0
 18 22  1  0
 17 23  1  0
 23 25  1  0
 21 24  1  0
 19 25  1  0
 14 26  1  0
 14 27  1  0
 22 28  1  0
 28 29  1  0
 25 30  1  0
 26 31  1  0
 27 32  1  0
 32 33  1  0
 31 33  1  0
M  END
>  <IDNUMBER>  (4) 
C200-4133

>  <available>  (4) 
21

>  <H_acceptor>  (4) 
6

>  <H_donor>  (4) 
0

>  <B_rotN>  (4) 
3

>  <N_O>  (4) 
6

>  <logP>  (4) 
6.578

>  <logD>  (4) 
6.578

>  <logSw>  (4) 
-5.777

>  <PSA>  (4) 
51.414

>  <pKa_ma>  (4) 
21.9462

>  <pKa_mb>  (4) 
2.6836

>  <N_Chirals>  (4) 
1

>  <Name>  (4) 
7-methoxy-3-[7-methyl-4-(piperidin-1-yl)-5,6,7,8-tetrahydro[1]benzothieno[2,3-d]pyrimidin-2-yl]-2H-1-benzopyran-2-one

>  <Smile>  (4) 
CC(CC1)Cc2c1c1c(N3CCCCC3)nc(C3=Cc(ccc(OC)c4)c4OC3=O)nc1s2

>  <Color>  (4) 
ORANGE

>  <Collection>  (4) 
DC

>  <InChI>  (4) 
InChI=1S/C26H27N3O3S/c1-15-6-9-18-21(12-15)33-25-22(18)24(29-10-4-3-5-11-29)27-23(28-25)19-13-16-7-8-17(31-2)14-20(16)32-26(19)30/h7-8,13-15H,3-6,9-12H2,1-2H3/t15-/m1/s1

>  <InChI Key>  (4) 
FVRBIAAARGKAKU-OAHLLOKOSA-N

>  <PERCENTSP3>  (4) 
42.3

>  <Link>  (4) 
https://www.chemdiv.com/catalog/screening-compounds/compound-C200-4133/

>  <MFCDNUMBER>  (4) 
MFCD14727226

>  <CLNUMBER>  (4) 
CL1996

>  <STEREO>  (4) 
RACEMIC MIXTURE

>  <State>  (4) 
Solid

>  <Similarity score>  (4) 
0.23

$$$$
4-(3,5-dimethylpiperidin-1-yl)-2-(4-methylphenyl)quinazoline
     RDKit          2D

 25 28  0  0  0  0  0  0  0  0999 V2000
   -0.8664    0.3019    0.0000 C   0  0  0  0  0  0  0  0  0  0  0  0
   -0.0197   -0.2035    0.0000 N   0  0  0  0  0  0  0  0  0  0  0  0
   -0.8664    1.2733    0.0000 N   0  0  0  0  0  0  0  0  0  0  0  0
   -0.0197   -1.2471    0.0000 C   0  0  0  0  0  0  0  0  0  0  0  0
   -1.7524   -0.2035    0.0000 C   0  0  0  0  0  0  0  0  0  0  0  0
   -0.8664   -1.7198    0.0000 N   0  0  0  0  0  0  0  0  0  0  0  0
   -1.7524   -1.2144    0.0000 C   0  0  0  0  0  0  0  0  0  0  0  0
   -1.7524    1.7787    0.0000 C   0  0  0  0  0  0  0  0  0  0  0  0
   -0.0197    1.7787    0.0000 C   0  0  0  0  0  0  0  0  0  0  0  0
    0.8664   -1.7460    0.0000 C   0  0  0  0  0  0  0  0  0  0  0  0
    1.7131   -1.2471    0.0000 C   0  0  0  0  0  0  0  0  0  0  0  0
    0.8664   -2.7239    0.0000 C   0  0  0  0  0  0  0  0  0  0  0  0
   -0.0197    2.7896    0.0000 C   0  0  0  0  0  0  0  0  0  0  0  0
   -1.7524    2.7896    0.0000 C   0  0  0  0  0  0  0  0  0  0  0  0
   -0.8664    3.2950    0.0000 C   0  0  0  0  0  0  0  0  0  0  0  0
    1.7131   -3.2229    0.0000 C   0  0  0  0  0  0  0  0  0  0  0  0
    2.5728   -1.7198    0.0000 C   0  0  0  0  0  0  0  0  0  0  0  0
   -2.5992    0.3019    0.0000 C   0  0  0  0  0  0  0  0  0  0  0  0
    2.5728   -2.7501    0.0000 C   0  0  0  0  0  0  0  0  0  0  0  0
   -2.5992   -1.7198    0.0000 C   0  0  0  0  0  0  0  0  0  0  0  0
   -2.6189    3.2753    0.0000 C   0  0  0  0  0  0  0  0  0  0  0  0
    0.8400    3.2950    0.0000 C   0  0  0  0  0  0  0  0  0  0  0  0
    3.4459   -3.2950    0.0000 C   0  0  0  0  0  0  0  0  0  0  0  0
   -3.4459   -0.2035    0.0000 C   0  0  0  0  0  0  0  0  0  0  0  0
   -3.4459   -1.2471    0.0000 C   0  0  0  0  0  0  0  0  0  0  0  0
  1  2  2  0
  1  3  1  0
  2  4  1  0
  1  5  1  0
  6  7  1  0
  4  6  2  0
  5  7  2  0
  3  8  1  0
  3  9  1  0
  4 10  1  0
 10 11  1  0
 10 12  2  0
  9 13  1  0
  8 14  1  0
 14 15  1  0
 13 15  1  0
 12 16  1  0
 11 17  2  0
  5 18  1  0
 16 19  2  0
 17 19  1  0
  7 20  1  0
 20 25  2  0
 14 21  1  0
 13 22  1  0
 19 23  1  0
 18 24  2  0
 24 25  1  0
M  END
>  <IDNUMBER>  (5) 
3909-8313

>  <available>  (5) 
4

>  <H_acceptor>  (5) 
2

>  <H_donor>  (5) 
0

>  <B_rotN>  (5) 
2

>  <N_O>  (5) 
3

>  <logP>  (5) 
6.7133

>  <logD>  (5) 
5.4843

>  <logSw>  (5) 
-6.1683

>  <PSA>  (5) 
21.5053

>  <pKa_ma>  (5) 
22.6349

>  <pKa_mb>  (5) 
8.6026

>  <N_Chirals>  (5) 
2

>  <Name>  (5) 
4-(3,5-dimethylpiperidin-1-yl)-2-(4-methylphenyl)quinazoline

>  <Smile>  (5) 
CC(CC(C)C1)CN1c1nc(-c2ccc(C)cc2)nc2ccccc12

>  <Color>  (5) 
NOT COLORED

>  <Collection>  (5) 
NC

>  <InChI>  (5) 
InChI=1S/C22H25N3/c1-15-8-10-18(11-9-15)21-23-20-7-5-4-6-19(20)22(24-21)25-13-16(2)12-17(3)14-25/h4-11,16-17H,12-14H2,1-3H3

>  <InChI Key>  (5) 
SMZDNXOGTFPCGO-UHFFFAOYSA-N

>  <PERCENTSP3>  (5) 
36.4

>  <Link>  (5) 
https://www.chemdiv.com/catalog/screening-compounds/compound-3909-8313/

>  <MFCDNUMBER>  (5) 
MFCD14708941

>  <CLNUMBER>  (5) 
CL2243

>  <STEREO>  (5) 
MIXTURE OF STEREOISOMERS

>  <State>  (5) 
Solid

>  <Similarity score>  (5) 
0.23

$$$$
N-(3,4-difluorophenyl)-4-(morpholin-4-yl)[1]benzofuro[3,2-d]pyrimidine-2-carboxa
     RDKit          2D

 30 34  0  0  0  0  0  0  0  0999 V2000
    2.1206    0.2416    0.0000 C   0  0  0  0  0  0  0  0  0  0  0  0
    2.1206   -0.7333    0.0000 C   0  0  0  0  0  0  0  0  0  0  0  0
    1.2707    0.7333    0.0000 C   0  0  0  0  0  0  0  0  0  0  0  0
    1.2707   -1.2208    0.0000 N   0  0  0  0  0  0  0  0  0  0  0  0
    0.4208    0.2416    0.0000 N   0  0  0  0  0  0  0  0  0  0  0  0
    0.4208   -0.7333    0.0000 C   0  0  0  0  0  0  0  0  0  0  0  0
    2.9704    0.7333    0.0000 O   0  0  0  0  0  0  0  0  0  0  0  0
    2.1206    2.2038    0.0000 C   0  0  0  0  0  0  0  0  0  0  0  0
   -0.4208   -1.2208    0.0000 C   0  0  0  0  0  0  0  0  0  0  0  0
    2.9704    1.7164    0.0000 C   0  0  0  0  0  0  0  0  0  0  0  0
    2.9704   -1.2208    0.0000 N   0  0  0  0  0  0  0  0  0  0  0  0
   -1.2707   -0.7333    0.0000 N   0  0  0  0  0  0  0  0  0  0  0  0
   -2.9662   -2.6955    0.0000 C   0  0  0  0  0  0  0  0  0  0  0  0
   -2.1163   -2.2038    0.0000 C   0  0  0  0  0  0  0  0  0  0  0  0
   -2.1163   -1.2208    0.0000 C   0  0  0  0  0  0  0  0  0  0  0  0
   -3.8161   -2.2038    0.0000 C   0  0  0  0  0  0  0  0  0  0  0  0
   -0.4208   -2.2038    0.0000 O   0  0  0  0  0  0  0  0  0  0  0  0
    4.6577   -2.2038    0.0000 O   0  0  0  0  0  0  0  0  0  0  0  0
   -3.8161   -1.2208    0.0000 C   0  0  0  0  0  0  0  0  0  0  0  0
   -2.9662   -3.6704    0.0000 F   0  0  0  0  0  0  0  0  0  0  0  0
   -2.9662   -0.7333    0.0000 C   0  0  0  0  0  0  0  0  0  0  0  0
   -4.6577   -2.6955    0.0000 F   0  0  0  0  0  0  0  0  0  0  0  0
    2.1206    3.1787    0.0000 C   0  0  0  0  0  0  0  0  0  0  0  0
    2.9704   -2.2038    0.0000 C   0  0  0  0  0  0  0  0  0  0  0  0
    3.8161   -0.7333    0.0000 C   0  0  0  0  0  0  0  0  0  0  0  0
    3.8161    2.2038    0.0000 C   0  0  0  0  0  0  0  0  0  0  0  0
    4.6577   -1.2208    0.0000 C   0  0  0  0  0  0  0  0  0  0  0  0
    3.8161   -2.6955    0.0000 C   0  0  0  0  0  0  0  0  0  0  0  0
    2.9704    3.6704    0.0000 C   0  0  0  0  0  0  0  0  0  0  0  0
    3.8161    3.1787    0.0000 C   0  0  0  0  0  0  0  0  0  0  0  0
  1  2  1  0
  1  3  2  0
  2  4  2  0
  4  6  1  0
  3  5  1  0
  5  6  2  0
  1  7  1  0
  3  8  1  0
  8 10  1  0
  6  9  1  0
  7 10  1  0
  2 11  1  0
  9 12  1  0
 13 14  1  0
 14 15  2  0
 12 15  1  0
 16 19  1  0
 13 16  2  0
  9 17  2  0
 18 27  1  0
 19 21  2  0
 13 20  1  0
 15 21  1  0
 16 22  1  0
  8 23  2  0
 11 24  1  0
 11 25  1  0
 10 26  2  0
 25 27  1  0
 24 28  1  0
 18 28  1  0
 23 29  1  0
 29 30  2  0
 26 30  1  0
M  END
>  <IDNUMBER>  (6) 
L331-0249

>  <available>  (6) 
77

>  <H_acceptor>  (6) 
6

>  <H_donor>  (6) 
1

>  <B_rotN>  (6) 
4

>  <N_O>  (6) 
7

>  <logP>  (6) 
4.3773

>  <logD>  (6) 
4.3687

>  <logSw>  (6) 
-4.4123

>  <PSA>  (6) 
62.1

>  <pKa_ma>  (6) 
9.0982

>  <pKa_mb>  (6) 
8.6338

>  <N_Chirals>  (6) 
0

>  <Name>  (6) 
N-(3,4-difluorophenyl)-4-(morpholin-4-yl)[1]benzofuro[3,2-d]pyrimidine-2-carboxamide

>  <Smile>  (6) 
O=C(c1nc(N2CCOCC2)c2oc(cccc3)c3c2n1)Nc(cc1)cc(F)c1F

>  <Color>  (6) 
NOT COLORED

>  <Collection>  (6) 
NC

>  <InChI>  (6) 
InChI=1S/C21H16F2N4O3/c22-14-6-5-12(11-15(14)23)24-21(28)19-25-17-13-3-1-2-4-16(13)30-18(17)20(26-19)27-7-9-29-10-8-27/h1-6,11H,7-10H2,(H,24,28)

>  <InChI Key>  (6) 
CDUMBZAVWQGPRE-UHFFFAOYSA-N

>  <PERCENTSP3>  (6) 
19

>  <Link>  (6) 
https://www.chemdiv.com/catalog/screening-compounds/compound-L331-0249/

>  <MFCDNUMBER>  (6) 
MFCD27246920

>  <CLNUMBER>  (6) 
CL7949

>  <STEREO>  (6) 
ACHIRAL

>  <State>  (6) 
Solid

>  <Similarity score>  (6) 
0.22

$$$$
3-(4-ethoxyphenyl)-6,8-difluoro-1-phenyl-1H-pyrazolo[4,3-c]quinoline
     RDKit          2D

 30 34  0  0  0  0  0  0  0  0999 V2000
   -1.1698    0.7487    0.0000 N   0  0  0  0  0  0  0  0  0  0  0  0
   -0.5056   -0.7314    0.0000 C   0  0  0  0  0  0  0  0  0  0  0  0
   -1.3809   -0.2283    0.0000 C   0  0  0  0  0  0  0  0  0  0  0  0
   -0.1681    0.8393    0.0000 N   0  0  0  0  0  0  0  0  0  0  0  0
    0.2555   -0.0517    0.0000 C   0  0  0  0  0  0  0  0  0  0  0  0
   -2.2672   -0.7314    0.0000 C   0  0  0  0  0  0  0  0  0  0  0  0
   -2.2672   -1.7239    0.0000 C   0  0  0  0  0  0  0  0  0  0  0  0
   -1.3809   -2.2115    0.0000 N   0  0  0  0  0  0  0  0  0  0  0  0
   -0.5056   -1.7239    0.0000 C   0  0  0  0  0  0  0  0  0  0  0  0
   -3.1280   -2.2115    0.0000 C   0  0  0  0  0  0  0  0  0  0  0  0
   -4.0034   -1.7239    0.0000 C   0  0  0  0  0  0  0  0  0  0  0  0
    1.2621   -0.1532    0.0000 C   0  0  0  0  0  0  0  0  0  0  0  0
   -1.7997    1.5190    0.0000 C   0  0  0  0  0  0  0  0  0  0  0  0
   -3.1280   -0.2283    0.0000 C   0  0  0  0  0  0  0  0  0  0  0  0
   -4.0034   -0.7314    0.0000 C   0  0  0  0  0  0  0  0  0  0  0  0
    1.6747   -1.0489    0.0000 C   0  0  0  0  0  0  0  0  0  0  0  0
    1.8420    0.6626    0.0000 C   0  0  0  0  0  0  0  0  0  0  0  0
   -3.1280   -3.2086    0.0000 F   0  0  0  0  0  0  0  0  0  0  0  0
   -4.8629   -0.2330    0.0000 F   0  0  0  0  0  0  0  0  0  0  0  0
    3.2859   -0.3343    0.0000 C   0  0  0  0  0  0  0  0  0  0  0  0
    2.8530    0.5814    0.0000 C   0  0  0  0  0  0  0  0  0  0  0  0
    2.6826   -1.1549    0.0000 C   0  0  0  0  0  0  0  0  0  0  0  0
    4.2877   -0.4299    0.0000 O   0  0  0  0  0  0  0  0  0  0  0  0
   -1.4371    2.4381    0.0000 C   0  0  0  0  0  0  0  0  0  0  0  0
   -2.7656    1.3517    0.0000 C   0  0  0  0  0  0  0  0  0  0  0  0
    4.8629    0.3860    0.0000 C   0  0  0  0  0  0  0  0  0  0  0  0
    4.4550    1.2926    0.0000 C   0  0  0  0  0  0  0  0  0  0  0  0
   -3.3891    2.1208    0.0000 C   0  0  0  0  0  0  0  0  0  0  0  0
   -2.0702    3.2086    0.0000 C   0  0  0  0  0  0  0  0  0  0  0  0
   -3.0375    3.0477    0.0000 C   0  0  0  0  0  0  0  0  0  0  0  0
  2  3  2  0
  2  5  1  0
  1  3  1  0
  1  4  1  0
  4  5  2  0
  3  6  1  0
  6  7  1  0
  7  8  1  0
  8  9  2  0
  2  9  1  0
  7 10  2  0
 11 15  2  0
 10 11  1  0
  5 12  1  0
  1 13  1  0
  6 14  2  0
 14 15  1  0
 12 16  2  0
 12 17  1  0
 10 18  1  0
 15 19  1  0
 20 21  1  0
 17 21  2  0
 16 22  1  0
 20 22  2  0
 20 23  1  0
 13 24  2  0
 13 25  1  0
 23 26  1  0
 26 27  1  0
 25 28  2  0
 24 29  1  0
 29 30  2  0
 28 30  1  0
M  END
>  <IDNUMBER>  (7) 
C350-0808

>  <available>  (7) 
138

>  <H_acceptor>  (7) 
3

>  <H_donor>  (7) 
0

>  <B_rotN>  (7) 
4

>  <N_O>  (7) 
4

>  <logP>  (7) 
5.6741

>  <logD>  (7) 
5.6741

>  <logSw>  (7) 
-5.6084

>  <PSA>  (7) 
30.6039

>  <pKa_ma>  (7) 
29.8521

>  <pKa_mb>  (7) 
2.2647

>  <N_Chirals>  (7) 
0

>  <Name>  (7) 
3-(4-ethoxyphenyl)-6,8-difluoro-1-phenyl-1H-pyrazolo[4,3-c]quinoline

>  <Smile>  (7) 
CCOc(cc1)ccc1-c(c1cnc2c(F)cc(F)cc2c11)nn1-c1ccccc1

>  <Color>  (7) 
NOT COLORED

>  <Collection>  (7) 
DC

>  <InChI>  (7) 
InChI=1S/C24H17F2N3O/c1-2-30-18-10-8-15(9-11-18)22-20-14-27-23-19(12-16(25)13-21(23)26)24(20)29(28-22)17-6-4-3-5-7-17/h3-14H,2H2,1H3

>  <InChI Key>  (7) 
GGTGWRSYPRCJAS-UHFFFAOYSA-N

>  <PERCENTSP3>  (7) 
8.3

>  <Link>  (7) 
https://www.chemdiv.com/catalog/screening-compounds/compound-C350-0808/

>  <MFCDNUMBER>  (7) 
MFCD14750682

>  <CLNUMBER>  (7) 
CL4130

>  <STEREO>  (7) 
ACHIRAL

>  <State>  (7) 
Solid

>  <Similarity score>  (7) 
0.22

$$$$
2-(3,4-dimethoxyphenyl)-7-ethoxy-4-[4-(2-fluorophenyl)piperazin-1-yl]-6-methoxyq
     RDKit          2D

 38 42  0  0  0  0  0  0  0  0999 V2000
    0.0187    0.5000    0.0000 C   0  0  0  0  0  0  0  0  0  0  0  0
    0.9065    0.9918    0.0000 N   0  0  0  0  0  0  0  0  0  0  0  0
   -0.8479    0.9918    0.0000 C   0  0  0  0  0  0  0  0  0  0  0  0
    0.9065    2.0169    0.0000 C   0  0  0  0  0  0  0  0  0  0  0  0
   -0.8479    2.0169    0.0000 C   0  0  0  0  0  0  0  0  0  0  0  0
    0.0187    2.5085    0.0000 N   0  0  0  0  0  0  0  0  0  0  0  0
    0.0187   -0.5000    0.0000 N   0  0  0  0  0  0  0  0  0  0  0  0
    0.0187   -2.4877    0.0000 N   0  0  0  0  0  0  0  0  0  0  0  0
   -1.7020    0.5000    0.0000 C   0  0  0  0  0  0  0  0  0  0  0  0
   -1.7020    2.5085    0.0000 C   0  0  0  0  0  0  0  0  0  0  0  0
    1.7565    2.5085    0.0000 C   0  0  0  0  0  0  0  0  0  0  0  0
    0.0187   -3.5003    0.0000 C   0  0  0  0  0  0  0  0  0  0  0  0
   -2.5771    0.9918    0.0000 C   0  0  0  0  0  0  0  0  0  0  0  0
   -2.5898    2.0001    0.0000 C   0  0  0  0  0  0  0  0  0  0  0  0
    1.7565    3.5170    0.0000 C   0  0  0  0  0  0  0  0  0  0  0  0
    2.6065    4.0004    0.0000 C   0  0  0  0  0  0  0  0  0  0  0  0
    0.9065   -0.9875    0.0000 C   0  0  0  0  0  0  0  0  0  0  0  0
   -0.8313   -1.0126    0.0000 C   0  0  0  0  0  0  0  0  0  0  0  0
   -0.8479   -1.9834    0.0000 C   0  0  0  0  0  0  0  0  0  0  0  0
    0.8814   -1.9877    0.0000 C   0  0  0  0  0  0  0  0  0  0  0  0
    3.4732    3.5335    0.0000 C   0  0  0  0  0  0  0  0  0  0  0  0
    0.8814   -3.9837    0.0000 C   0  0  0  0  0  0  0  0  0  0  0  0
    2.6108    2.0209    0.0000 C   0  0  0  0  0  0  0  0  0  0  0  0
    3.4732    2.5085    0.0000 C   0  0  0  0  0  0  0  0  0  0  0  0
    1.7565   -3.5003    0.0000 F   0  0  0  0  0  0  0  0  0  0  0  0
   -3.4565    0.5000    0.0000 O   0  0  0  0  0  0  0  0  0  0  0  0
   -3.4565    2.5085    0.0000 O   0  0  0  0  0  0  0  0  0  0  0  0
    2.6065    4.9878    0.0000 O   0  0  0  0  0  0  0  0  0  0  0  0
    4.3400    4.0127    0.0000 O   0  0  0  0  0  0  0  0  0  0  0  0
   -0.8520   -3.9837    0.0000 C   0  0  0  0  0  0  0  0  0  0  0  0
    0.8814   -4.9753    0.0000 C   0  0  0  0  0  0  0  0  0  0  0  0
   -4.3108    2.0169    0.0000 C   0  0  0  0  0  0  0  0  0  0  0  0
   -4.3108    0.9918    0.0000 C   0  0  0  0  0  0  0  0  0  0  0  0
    3.4608    5.5004    0.0000 C   0  0  0  0  0  0  0  0  0  0  0  0
    5.2151    3.5335    0.0000 C   0  0  0  0  0  0  0  0  0  0  0  0
   -5.2151    2.5085    0.0000 C   0  0  0  0  0  0  0  0  0  0  0  0
   -0.8520   -4.9753    0.0000 C   0  0  0  0  0  0  0  0  0  0  0  0
    0.0021   -5.5004    0.0000 C   0  0  0  0  0  0  0  0  0  0  0  0
  1  2  2  0
  1  3  1  0
  2  4  1  0
  3  5  2  0
  5  6  1  0
  4  6  2  0
  1  7  1  0
  8 19  1  0
  8 20  1  0
  3  9  1  0
  5 10  1  0
  4 11  1  0
  8 12  1  0
  9 13  2  0
 13 14  1  0
 10 14  2  0
 11 15  2  0
 15 16  1  0
  7 17  1  0
  7 18  1  0
 18 19  1  0
 17 20  1  0
 21 24  1  0
 16 21  2  0
 12 22  1  0
 11 23  1  0
 23 24  2  0
 22 25  1  0
 13 26  1  0
 14 27  1  0
 16 28  1  0
 21 29  1  0
 12 30  2  0
 22 31  2  0
 27 32  1  0
 26 33  1  0
 28 34  1  0
 29 35  1  0
 32 36  1  0
 30 37  1  0
 37 38  2  0
 31 38  1  0
M  END
>  <IDNUMBER>  (8) 
IB05-8755

>  <available>  (8) 
50

>  <H_acceptor>  (8) 
6

>  <H_donor>  (8) 
0

>  <B_rotN>  (8) 
8

>  <N_O>  (8) 
8

>  <logP>  (8) 
5.91

>  <logD>  (8) 
4.96

>  <logSw>  (8) 
-7

>  <PSA>  (8) 
55.54

>  <pKa_ma>  (8) 
14

>  <pKa_mb>  (8) 
8.3

>  <N_Chirals>  (8) 
0

>  <Name>  (8) 
2-(3,4-dimethoxyphenyl)-7-ethoxy-4-[4-(2-fluorophenyl)piperazin-1-yl]-6-methoxyquinazoline

>  <Smile>  (8) 
CCOc(cc(c1c2)nc(-c(cc3)cc(OC)c3OC)nc1N(CC1)CCN1c(cccc1)c1F)c2OC

>  <Color>  (8) 
NOT COLORED

>  <Collection>  (8) 
DC

>  <InChI>  (8) 
InChI=1S/C29H31FN4O4/c1-5-38-27-18-22-20(17-26(27)37-4)29(32-28(31-22)19-10-11-24(35-2)25(16-19)36-3)34-14-12-33(13-15-34)23-9-7-6-8-21(23)30/h6-11,16-18H,5,12-15H2,1-4H3

>  <InChI Key>  (8) 
GRWGGHSTHKRSQL-UHFFFAOYSA-N

>  <PERCENTSP3>  (8) 
31

>  <Link>  (8) 
https://www.chemdiv.com/catalog/screening-compounds/compound-IB05-8755/

>  <STEREO>  (8) 
ACHIRAL

>  <State>  (8) 
Solid

>  <Similarity score>  (8) 
0.22

$$$$
2-(2-fluorophenyl)-4-[4-(4-methoxyphenyl)piperazin-1-yl]quinazoline
     RDKit          2D

 31 35  0  0  0  0  0  0  0  0999 V2000
    1.9217    0.7342    0.0000 N   0  0  0  0  0  0  0  0  0  0  0  0
    2.7877    1.2356    0.0000 C   0  0  0  0  0  0  0  0  0  0  0  0
    1.9217   -0.2634    0.0000 C   0  0  0  0  0  0  0  0  0  0  0  0
    3.6635    0.7342    0.0000 N   0  0  0  0  0  0  0  0  0  0  0  0
    2.7877   -0.7646    0.0000 C   0  0  0  0  0  0  0  0  0  0  0  0
    2.7978    2.2232    0.0000 C   0  0  0  0  0  0  0  0  0  0  0  0
    1.0559   -0.7594    0.0000 N   0  0  0  0  0  0  0  0  0  0  0  0
   -0.6656   -1.7522    0.0000 N   0  0  0  0  0  0  0  0  0  0  0  0
    3.6534   -0.2634    0.0000 C   0  0  0  0  0  0  0  0  0  0  0  0
   -1.5977   -2.1320    0.0000 C   0  0  0  0  0  0  0  0  0  0  0  0
    3.6635    2.7344    0.0000 C   0  0  0  0  0  0  0  0  0  0  0  0
    0.1851   -0.2580    0.0000 C   0  0  0  0  0  0  0  0  0  0  0  0
    1.0559   -1.7468    0.0000 C   0  0  0  0  0  0  0  0  0  0  0  0
   -0.6709   -0.7496    0.0000 C   0  0  0  0  0  0  0  0  0  0  0  0
    0.1899   -2.2534    0.0000 C   0  0  0  0  0  0  0  0  0  0  0  0
   -2.3878   -1.5090    0.0000 C   0  0  0  0  0  0  0  0  0  0  0  0
   -1.7342   -3.1192    0.0000 C   0  0  0  0  0  0  0  0  0  0  0  0
    4.5446    2.2232    0.0000 F   0  0  0  0  0  0  0  0  0  0  0  0
   -3.4509   -2.8711    0.0000 C   0  0  0  0  0  0  0  0  0  0  0  0
   -2.6610   -3.4941    0.0000 C   0  0  0  0  0  0  0  0  0  0  0  0
   -3.3142   -1.8887    0.0000 C   0  0  0  0  0  0  0  0  0  0  0  0
    2.7877   -1.7522    0.0000 C   0  0  0  0  0  0  0  0  0  0  0  0
    1.9317    2.7243    0.0000 C   0  0  0  0  0  0  0  0  0  0  0  0
   -4.3926   -3.2358    0.0000 O   0  0  0  0  0  0  0  0  0  0  0  0
    4.5195   -0.7496    0.0000 C   0  0  0  0  0  0  0  0  0  0  0  0
    3.6688    3.7269    0.0000 C   0  0  0  0  0  0  0  0  0  0  0  0
   -4.5446   -4.2282    0.0000 C   0  0  0  0  0  0  0  0  0  0  0  0
    3.6534   -2.2534    0.0000 C   0  0  0  0  0  0  0  0  0  0  0  0
    1.9317    3.7269    0.0000 C   0  0  0  0  0  0  0  0  0  0  0  0
    4.5195   -1.7522    0.0000 C   0  0  0  0  0  0  0  0  0  0  0  0
    2.7978    4.2282    0.0000 C   0  0  0  0  0  0  0  0  0  0  0  0
  1  2  1  0
  1  3  2  0
  2  4  2  0
  3  5  1  0
  2  6  1  0
  3  7  1  0
  8 15  1  0
  5  9  1  0
  4  9  1  0
  8 10  1  0
  6 11  2  0
  7 12  1  0
  7 13  1  0
 12 14  1  0
  8 14  1  0
 13 15  1  0
 10 16  2  0
 10 17  1  0
 11 18  1  0
 19 20  1  0
 17 20  2  0
 16 21  1  0
 19 21  2  0
  5 22  2  0
  6 23  1  0
 19 24  1  0
  9 25  2  0
 25 30  1  0
 11 26  1  0
 26 31  2  0
 24 27  1  0
 22 28  1  0
 23 29  2  0
 28 30  2  0
 29 31  1  0
M  END
>  <IDNUMBER>  (9) 
K841-0212

>  <available>  (9) 
1

>  <H_acceptor>  (9) 
3

>  <H_donor>  (9) 
0

>  <B_rotN>  (9) 
4

>  <N_O>  (9) 
5

>  <logP>  (9) 
5.5028

>  <logD>  (9) 
5.2334

>  <logSw>  (9) 
-5.8837

>  <PSA>  (9) 
32.443

>  <pKa_ma>  (9) 
22.2134

>  <pKa_mb>  (9) 
7.3342

>  <N_Chirals>  (9) 
0

>  <Name>  (9) 
2-(2-fluorophenyl)-4-[4-(4-methoxyphenyl)piperazin-1-yl]quinazoline

>  <Smile>  (9) 
COc(cc1)ccc1N(CC1)CCN1c1nc(-c(cccc2)c2F)nc2ccccc12

>  <Color>  (9) 
NOT COLORED

>  <Collection>  (9) 
NC

>  <InChI>  (9) 
InChI=1S/C25H23FN4O/c1-31-19-12-10-18(11-13-19)29-14-16-30(17-15-29)25-21-7-3-5-9-23(21)27-24(28-25)20-6-2-4-8-22(20)26/h2-13H,14-17H2,1H3

>  <InChI Key>  (9) 
MOWURCITASESBF-UHFFFAOYSA-N

>  <PERCENTSP3>  (9) 
20

>  <Link>  (9) 
https://www.chemdiv.com/catalog/screening-compounds/compound-K841-0212/

>  <MFCDNUMBER>  (9) 
MFCD15110571

>  <CLNUMBER>  (9) 
CL2243

>  <STEREO>  (9) 
ACHIRAL

>  <State>  (9) 
Solid

>  <Similarity score>  (9) 
0.22

$$$$
ethyl 4-(3,5-dimethylpiperidin-1-yl)-7-(trifluoromethyl)quinoline-3-carboxylate
     RDKit          2D

 27 29  0  0  0  0  0  0  0  0999 V2000
   -1.2373   -1.1830    0.0000 N   0  0  0  0  0  0  0  0  0  0  0  0
   -0.3616   -0.6811    0.0000 C   0  0  0  0  0  0  0  0  0  0  0  0
   -0.3616    0.2697    0.0000 C   0  0  0  0  0  0  0  0  0  0  0  0
    0.4743   -1.1677    0.0000 C   0  0  0  0  0  0  0  0  0  0  0  0
    2.9821   -2.6094    0.0000 C   0  0  0  0  0  0  0  0  0  0  0  0
    1.3057   -0.6811    0.0000 C   0  0  0  0  0  0  0  0  0  0  0  0
    1.3057    0.2697    0.0000 N   0  0  0  0  0  0  0  0  0  0  0  0
   -1.7437    1.2803    0.0000 C   0  0  0  0  0  0  0  0  0  0  0  0
    0.4743    0.7496    0.0000 C   0  0  0  0  0  0  0  0  0  0  0  0
    2.1307   -2.1252    0.0000 C   0  0  0  0  0  0  0  0  0  0  0  0
    2.1307   -1.1677    0.0000 C   0  0  0  0  0  0  0  0  0  0  0  0
    0.4631   -2.1252    0.0000 C   0  0  0  0  0  0  0  0  0  0  0  0
   -2.0931   -0.6967    0.0000 C   0  0  0  0  0  0  0  0  0  0  0  0
   -1.2373   -2.1960    0.0000 C   0  0  0  0  0  0  0  0  0  0  0  0
    1.3057   -2.6094    0.0000 C   0  0  0  0  0  0  0  0  0  0  0  0
   -2.5728    0.8116    0.0000 O   0  0  0  0  0  0  0  0  0  0  0  0
    3.8267   -3.0938    0.0000 F   0  0  0  0  0  0  0  0  0  0  0  0
    3.4664   -1.7691    0.0000 F   0  0  0  0  0  0  0  0  0  0  0  0
    2.4957   -3.4587    0.0000 F   0  0  0  0  0  0  0  0  0  0  0  0
   -2.9577   -1.1830    0.0000 C   0  0  0  0  0  0  0  0  0  0  0  0
   -2.1018   -2.6845    0.0000 C   0  0  0  0  0  0  0  0  0  0  0  0
   -2.9622   -2.1960    0.0000 C   0  0  0  0  0  0  0  0  0  0  0  0
   -1.7370    2.2422    0.0000 O   0  0  0  0  0  0  0  0  0  0  0  0
   -3.8267   -0.6967    0.0000 C   0  0  0  0  0  0  0  0  0  0  0  0
   -2.1063   -3.6864    0.0000 C   0  0  0  0  0  0  0  0  0  0  0  0
   -0.9033    2.7289    0.0000 C   0  0  0  0  0  0  0  0  0  0  0  0
   -0.9033    3.6864    0.0000 C   0  0  0  0  0  0  0  0  0  0  0  0
  1  2  1  0
  2  3  2  0
  2  4  1  0
  5 10  1  0
  4  6  1  0
  6  7  1  0
  3  8  1  0
  3  9  1  0
  7  9  2  0
 10 15  2  0
  6 11  2  0
 10 11  1  0
  4 12  2  0
  1 13  1  0
  1 14  1  0
 12 15  1  0
  8 16  2  0
  5 17  1  0
  5 18  1  0
  5 19  1  0
 13 20  1  0
 14 21  1  0
 21 22  1  0
 20 22  1  0
  8 23  1  0
 20 24  1  0
 21 25  1  0
 23 26  1  0
 26 27  1  0
M  END
>  <IDNUMBER>  (10) 
C053-0373

>  <available>  (10) 
96

>  <H_acceptor>  (10) 
4

>  <H_donor>  (10) 
0

>  <B_rotN>  (10) 
5

>  <N_O>  (10) 
4

>  <logP>  (10) 
5.5912

>  <logD>  (10) 
5.5911

>  <logSw>  (10) 
-5.6383

>  <PSA>  (10) 
32.562

>  <pKa_ma>  (10) 
24.8321

>  <pKa_mb>  (10) 
3.6214

>  <N_Chirals>  (10) 
2

>  <Name>  (10) 
ethyl 4-(3,5-dimethylpiperidin-1-yl)-7-(trifluoromethyl)quinoline-3-carboxylate

>  <Smile>  (10) 
CCOC(c1cnc(cc(C(F)(F)F)cc2)c2c1N1CC(C)CC(C)C1)=O

>  <Color>  (10) 
YELLOW

>  <Collection>  (10) 
DC

>  <InChI>  (10) 
InChI=1S/C20H23F3N2O2/c1-4-27-19(26)16-9-24-17-8-14(20(21,22)23)5-6-15(17)18(16)25-10-12(2)7-13(3)11-25/h5-6,8-9,12-13H,4,7,10-11H2,1-3H3

>  <InChI Key>  (10) 
WANLVCFJSVAVHO-UHFFFAOYSA-N

>  <PERCENTSP3>  (10) 
50

>  <Link>  (10) 
https://www.chemdiv.com/catalog/screening-compounds/compound-C053-0373/

>  <MFCDNUMBER>  (10) 
MFCD14714068

>  <CLNUMBER>  (10) 
CL1568

>  <STEREO>  (10) 
MIXTURE OF STEREOISOMERS

>  <State>  (10) 
Solid

>  <Similarity score>  (10) 
0.22

$$$$
4-(2-{2-[(2,7-dimethoxynaphthalen-1-yl)methylidene]hydrazinyl}-5-fluoropyrimidin
     RDKit          2D

 30 33  0  0  0  0  0  0  0  0999 V2000
   -0.8632   -0.0960    0.0000 N   0  0  0  0  0  0  0  0  0  0  0  0
   -1.7262    0.4038    0.0000 C   0  0  0  0  0  0  0  0  0  0  0  0
    2.5994   -1.0901    0.0000 C   0  0  0  0  0  0  0  0  0  0  0  0
    0.0102    0.4038    0.0000 C   0  0  0  0  0  0  0  0  0  0  0  0
    2.5893   -0.0656    0.0000 C   0  0  0  0  0  0  0  0  0  0  0  0
   -1.7262    1.3933    0.0000 C   0  0  0  0  0  0  0  0  0  0  0  0
   -2.5944   -0.0960    0.0000 N   0  0  0  0  0  0  0  0  0  0  0  0
    0.0102    1.4082    0.0000 N   0  0  0  0  0  0  0  0  0  0  0  0
    0.8632   -1.0953    0.0000 N   0  0  0  0  0  0  0  0  0  0  0  0
    3.4625   -1.5747    0.0000 C   0  0  0  0  0  0  0  0  0  0  0  0
   -0.8632    1.9029    0.0000 C   0  0  0  0  0  0  0  0  0  0  0  0
    3.4472    0.4241    0.0000 C   0  0  0  0  0  0  0  0  0  0  0  0
    1.7110    0.4187    0.0000 C   0  0  0  0  0  0  0  0  0  0  0  0
    0.8632   -0.0960    0.0000 N   0  0  0  0  0  0  0  0  0  0  0  0
    1.7413   -1.5950    0.0000 C   0  0  0  0  0  0  0  0  0  0  0  0
    4.3307   -1.0499    0.0000 C   0  0  0  0  0  0  0  0  0  0  0  0
    4.3155   -0.0656    0.0000 C   0  0  0  0  0  0  0  0  0  0  0  0
   -4.3307   -1.0901    0.0000 O   0  0  0  0  0  0  0  0  0  0  0  0
   -2.5944    1.9029    0.0000 F   0  0  0  0  0  0  0  0  0  0  0  0
    3.4472    1.4182    0.0000 C   0  0  0  0  0  0  0  0  0  0  0  0
    1.7110    1.4082    0.0000 C   0  0  0  0  0  0  0  0  0  0  0  0
    2.5741    1.9181    0.0000 C   0  0  0  0  0  0  0  0  0  0  0  0
    3.4828   -2.5640    0.0000 O   0  0  0  0  0  0  0  0  0  0  0  0
   -2.5944   -1.0901    0.0000 C   0  0  0  0  0  0  0  0  0  0  0  0
   -3.4675    0.4038    0.0000 C   0  0  0  0  0  0  0  0  0  0  0  0
    1.4636    2.3771    0.0000 O   0  0  0  0  0  0  0  0  0  0  0  0
   -3.4675   -1.5950    0.0000 C   0  0  0  0  0  0  0  0  0  0  0  0
   -4.3307   -0.0808    0.0000 C   0  0  0  0  0  0  0  0  0  0  0  0
    2.6147   -3.0890    0.0000 C   0  0  0  0  0  0  0  0  0  0  0  0
    2.1501    3.0890    0.0000 C   0  0  0  0  0  0  0  0  0  0  0  0
  1  2  1  0
  3 15  1  0
  1  4  2  0
  3  5  2  0
  2  6  2  0
  6 11  1  0
  2  7  1  0
  4  8  1  0
  9 14  1  0
  3 10  1  0
  8 11  2  0
  5 12  1  0
 12 17  2  0
  5 13  1  0
  4 14  1  0
  9 15  2  0
 10 16  2  0
 16 17  1  0
 18 28  1  0
  6 19  1  0
 12 20  1  0
 20 22  2  0
 13 21  2  0
 21 22  1  0
 10 23  1  0
  7 24  1  0
  7 25  1  0
 21 26  1  0
 24 27  1  0
 18 27  1  0
 25 28  1  0
 23 29  1  0
 26 30  1  0
M  END
>  <IDNUMBER>  (11) 
5277-0218

>  <available>  (11) 
6

>  <H_acceptor>  (11) 
6

>  <H_donor>  (11) 
1

>  <B_rotN>  (11) 
6

>  <N_O>  (11) 
8

>  <logP>  (11) 
4.4921

>  <logD>  (11) 
4.4864

>  <logSw>  (11) 
-4.2883

>  <PSA>  (11) 
67.799

>  <pKa_ma>  (11) 
11.9267

>  <pKa_mb>  (11) 
5.5238

>  <N_Chirals>  (11) 
0

>  <Name>  (11) 
4-(2-{2-[(2,7-dimethoxynaphthalen-1-yl)methylidene]hydrazinyl}-5-fluoropyrimidin-4-yl)morpholine

>  <Smile>  (11) 
COc1ccc(ccc(OC)c2/C=N\Nc(nc3)nc(N4CCOCC4)c3F)c2c1

>  <Color>  (11) 
ORANGE

>  <Collection>  (11) 
DC

>  <InChI>  (11) 
InChI=1S/C21H22FN5O3/c1-28-15-5-3-14-4-6-19(29-2)17(16(14)11-15)12-24-26-21-23-13-18(22)20(25-21)27-7-9-30-10-8-27/h3-6,11-13H,7-10H2,1-2H3,(H,23,25,26)

>  <InChI Key>  (11) 
VWHJBZGIZIJXKA-UHFFFAOYSA-N

>  <PERCENTSP3>  (11) 
28.6

>  <Link>  (11) 
https://www.chemdiv.com/catalog/screening-compounds/compound-5277-0218/

>  <MFCDNUMBER>  (11) 
MFCD03448739

>  <STEREO>  (11) 
ACHIRAL

>  <State>  (11) 
Solid

>  <Similarity score>  (11) 
0.22

$$$$
2-(2-fluorophenyl)-4-[4-(4-fluorophenyl)piperazin-1-yl]quinazoline
     RDKit          2D

 30 34  0  0  0  0  0  0  0  0999 V2000
    1.7168    0.5113    0.0000 N   0  0  0  0  0  0  0  0  0  0  0  0
    2.5828    1.0127    0.0000 C   0  0  0  0  0  0  0  0  0  0  0  0
    1.7168   -0.4863    0.0000 C   0  0  0  0  0  0  0  0  0  0  0  0
    3.4589    0.5113    0.0000 N   0  0  0  0  0  0  0  0  0  0  0  0
    2.5828   -0.9877    0.0000 C   0  0  0  0  0  0  0  0  0  0  0  0
    2.5930    2.0000    0.0000 C   0  0  0  0  0  0  0  0  0  0  0  0
    0.8506   -0.9824    0.0000 N   0  0  0  0  0  0  0  0  0  0  0  0
   -0.8711   -1.9902    0.0000 N   0  0  0  0  0  0  0  0  0  0  0  0
    3.4489   -0.4863    0.0000 C   0  0  0  0  0  0  0  0  0  0  0  0
   -1.7421   -2.4916    0.0000 C   0  0  0  0  0  0  0  0  0  0  0  0
    3.4589    2.5114    0.0000 C   0  0  0  0  0  0  0  0  0  0  0  0
   -0.0153   -0.4815    0.0000 C   0  0  0  0  0  0  0  0  0  0  0  0
    0.8506   -1.9752    0.0000 C   0  0  0  0  0  0  0  0  0  0  0  0
   -0.8763   -0.9877    0.0000 C   0  0  0  0  0  0  0  0  0  0  0  0
   -0.0153   -2.4868    0.0000 C   0  0  0  0  0  0  0  0  0  0  0  0
   -1.7370   -3.4944    0.0000 C   0  0  0  0  0  0  0  0  0  0  0  0
   -2.6081   -2.0004    0.0000 C   0  0  0  0  0  0  0  0  0  0  0  0
   -3.4740   -3.5046    0.0000 C   0  0  0  0  0  0  0  0  0  0  0  0
    4.3399    2.0000    0.0000 F   0  0  0  0  0  0  0  0  0  0  0  0
   -3.4740   -2.5018    0.0000 C   0  0  0  0  0  0  0  0  0  0  0  0
   -2.6081   -3.9956    0.0000 C   0  0  0  0  0  0  0  0  0  0  0  0
    2.5828   -1.9752    0.0000 C   0  0  0  0  0  0  0  0  0  0  0  0
   -4.3399   -4.0056    0.0000 F   0  0  0  0  0  0  0  0  0  0  0  0
    1.7270    2.5014    0.0000 C   0  0  0  0  0  0  0  0  0  0  0  0
    4.3147   -0.9724    0.0000 C   0  0  0  0  0  0  0  0  0  0  0  0
    3.4639    3.5042    0.0000 C   0  0  0  0  0  0  0  0  0  0  0  0
    3.4489   -2.4766    0.0000 C   0  0  0  0  0  0  0  0  0  0  0  0
    1.7270    3.5042    0.0000 C   0  0  0  0  0  0  0  0  0  0  0  0
    4.3147   -1.9752    0.0000 C   0  0  0  0  0  0  0  0  0  0  0  0
    2.5930    4.0056    0.0000 C   0  0  0  0  0  0  0  0  0  0  0  0
  1  2  1  0
  1  3  2  0
  2  4  2  0
  3  5  1  0
  2  6  1  0
  3  7  1  0
  8 15  1  0
  5  9  1  0
  4  9  1  0
  8 10  1  0
  6 11  2  0
  7 12  1  0
  7 13  1  0
 12 14  1  0
  8 14  1  0
 13 15  1  0
 10 16  2  0
 10 17  1  0
 18 20  1  0
 18 21  2  0
 11 19  1  0
 17 20  2  0
 16 21  1  0
  5 22  2  0
 18 23  1  0
  6 24  1  0
  9 25  2  0
 25 29  1  0
 11 26  1  0
 26 30  2  0
 22 27  1  0
 24 28  2  0
 27 29  2  0
 28 30  1  0
M  END
>  <IDNUMBER>  (12) 
K841-0206

>  <available>  (12) 
74

>  <H_acceptor>  (12) 
2

>  <H_donor>  (12) 
0

>  <B_rotN>  (12) 
3

>  <N_O>  (12) 
4

>  <logP>  (12) 
5.5495

>  <logD>  (12) 
5.2801

>  <logSw>  (12) 
-6.3354

>  <PSA>  (12) 
24.8988

>  <pKa_ma>  (12) 
22.2134

>  <pKa_mb>  (12) 
7.3342

>  <N_Chirals>  (12) 
0

>  <Name>  (12) 
2-(2-fluorophenyl)-4-[4-(4-fluorophenyl)piperazin-1-yl]quinazoline

>  <Smile>  (12) 
Fc(cc1)ccc1N(CC1)CCN1c1nc(-c(cccc2)c2F)nc2ccccc12

>  <Color>  (12) 
YELLOW

>  <Collection>  (12) 
NC

>  <InChI>  (12) 
InChI=1S/C24H20F2N4/c25-17-9-11-18(12-10-17)29-13-15-30(16-14-29)24-20-6-2-4-8-22(20)27-23(28-24)19-5-1-3-7-21(19)26/h1-12H,13-16H2

>  <InChI Key>  (12) 
ROIPTQGVYBJLHD-UHFFFAOYSA-N

>  <PERCENTSP3>  (12) 
16.7

>  <Link>  (12) 
https://www.chemdiv.com/catalog/screening-compounds/compound-K841-0206/

>  <MFCDNUMBER>  (12) 
MFCD15110567

>  <CLNUMBER>  (12) 
CL2243

>  <STEREO>  (12) 
ACHIRAL

>  <State>  (12) 
Solid

>  <Similarity score>  (12) 
0.22

$$$$
2-(3,4-dimethoxyphenyl)-4-[4-(2-fluorophenyl)piperazin-1-yl]quinazoline
     RDKit          2D

 33 37  0  0  0  0  0  0  0  0999 V2000
   -0.4447   -1.0090    0.0000 N   0  0  0  0  0  0  0  0  0  0  0  0
   -1.3010   -0.4911    0.0000 C   0  0  0  0  0  0  0  0  0  0  0  0
   -0.4447   -1.9977    0.0000 C   0  0  0  0  0  0  0  0  0  0  0  0
   -2.1639   -1.0090    0.0000 C   0  0  0  0  0  0  0  0  0  0  0  0
   -1.3010   -2.5023    0.0000 N   0  0  0  0  0  0  0  0  0  0  0  0
   -1.3010    0.5245    0.0000 N   0  0  0  0  0  0  0  0  0  0  0  0
   -1.3010    2.4957    0.0000 N   0  0  0  0  0  0  0  0  0  0  0  0
   -2.1639   -1.9977    0.0000 C   0  0  0  0  0  0  0  0  0  0  0  0
    0.4117   -2.5023    0.0000 C   0  0  0  0  0  0  0  0  0  0  0  0
   -1.3010    3.5113    0.0000 C   0  0  0  0  0  0  0  0  0  0  0  0
    0.4117   -3.4980    0.0000 C   0  0  0  0  0  0  0  0  0  0  0  0
    1.3075   -4.0089    0.0000 C   0  0  0  0  0  0  0  0  0  0  0  0
   -0.4447    1.0021    0.0000 C   0  0  0  0  0  0  0  0  0  0  0  0
   -2.1639    1.0021    0.0000 C   0  0  0  0  0  0  0  0  0  0  0  0
   -0.4447    2.0179    0.0000 C   0  0  0  0  0  0  0  0  0  0  0  0
   -2.1639    2.0179    0.0000 C   0  0  0  0  0  0  0  0  0  0  0  0
    2.1639   -3.4980    0.0000 C   0  0  0  0  0  0  0  0  0  0  0  0
   -0.4447    3.9891    0.0000 C   0  0  0  0  0  0  0  0  0  0  0  0
    1.3075   -1.9977    0.0000 C   0  0  0  0  0  0  0  0  0  0  0  0
    2.1639   -2.5023    0.0000 C   0  0  0  0  0  0  0  0  0  0  0  0
    0.4049    3.4714    0.0000 F   0  0  0  0  0  0  0  0  0  0  0  0
    1.3075   -4.9914    0.0000 O   0  0  0  0  0  0  0  0  0  0  0  0
   -3.0202   -0.4911    0.0000 C   0  0  0  0  0  0  0  0  0  0  0  0
    3.0332   -4.0089    0.0000 O   0  0  0  0  0  0  0  0  0  0  0  0
   -3.0202   -2.5023    0.0000 C   0  0  0  0  0  0  0  0  0  0  0  0
   -2.1639    3.9891    0.0000 C   0  0  0  0  0  0  0  0  0  0  0  0
   -0.4447    5.0112    0.0000 C   0  0  0  0  0  0  0  0  0  0  0  0
    0.4117   -5.5025    0.0000 C   0  0  0  0  0  0  0  0  0  0  0  0
    3.8896   -3.5310    0.0000 C   0  0  0  0  0  0  0  0  0  0  0  0
   -3.8896   -1.0090    0.0000 C   0  0  0  0  0  0  0  0  0  0  0  0
   -3.8896   -1.9977    0.0000 C   0  0  0  0  0  0  0  0  0  0  0  0
   -2.1639    5.0112    0.0000 C   0  0  0  0  0  0  0  0  0  0  0  0
   -1.3010    5.5025    0.0000 C   0  0  0  0  0  0  0  0  0  0  0  0
  1  2  1  0
  1  3  2  0
  2  4  2  0
  3  5  1  0
  2  6  1  0
  7 16  1  0
  7 15  1  0
  5  8  2  0
  4  8  1  0
  3  9  1  0
  7 10  1  0
  9 11  2  0
 11 12  1  0
 12 17  2  0
  6 13  1  0
  6 14  1  0
 13 15  1  0
 14 16  1  0
 17 20  1  0
 10 18  2  0
  9 19  1  0
 19 20  2  0
 18 21  1  0
 12 22  1  0
  4 23  1  0
 17 24  1  0
  8 25  1  0
 10 26  1  0
 18 27  1  0
 27 33  2  0
 22 28  1  0
 24 29  1  0
 23 30  2  0
 25 31  2  0
 30 31  1  0
 26 32  2  0
 32 33  1  0
M  END
>  <IDNUMBER>  (13) 
3909-7779

>  <available>  (13) 
2

>  <H_acceptor>  (13) 
4

>  <H_donor>  (13) 
0

>  <B_rotN>  (13) 
5

>  <N_O>  (13) 
6

>  <logP>  (13) 
6.0684

>  <logD>  (13) 
4.2857

>  <logSw>  (13) 
-5.9693

>  <PSA>  (13) 
39.859

>  <pKa_ma>  (13) 
22.2134

>  <pKa_mb>  (13) 
9.1755

>  <N_Chirals>  (13) 
0

>  <Name>  (13) 
2-(3,4-dimethoxyphenyl)-4-[4-(2-fluorophenyl)piperazin-1-yl]quinazoline

>  <Smile>  (13) 
COc(ccc(-c1nc2ccccc2c(N(CC2)CCN2c(cccc2)c2F)n1)c1)c1OC

>  <Color>  (13) 
YELLOW

>  <Collection>  (13) 
NC

>  <InChI>  (13) 
InChI=1S/C26H25FN4O2/c1-32-23-12-11-18(17-24(23)33-2)25-28-21-9-5-3-7-19(21)26(29-25)31-15-13-30(14-16-31)22-10-6-4-8-20(22)27/h3-12,17H,13-16H2,1-2H3

>  <InChI Key>  (13) 
CHDMSTYPWGTFER-UHFFFAOYSA-N

>  <PERCENTSP3>  (13) 
23.1

>  <Link>  (13) 
https://www.chemdiv.com/catalog/screening-compounds/compound-3909-7779/

>  <MFCDNUMBER>  (13) 
MFCD14708883

>  <CLNUMBER>  (13) 
CL2243

>  <STEREO>  (13) 
ACHIRAL

>  <State>  (13) 
Solid

>  <Similarity score>  (13) 
0.22

$$$$
4-[4-(4-fluorophenyl)piperazin-1-yl]-2-(3-methylphenyl)quinazoline
     RDKit          2D

 30 34  0  0  0  0  0  0  0  0999 V2000
    0.0067   -2.2723    0.0000 N   0  0  0  0  0  0  0  0  0  0  0  0
   -0.8637   -1.7539    0.0000 C   0  0  0  0  0  0  0  0  0  0  0  0
    0.0067   -3.2622    0.0000 C   0  0  0  0  0  0  0  0  0  0  0  0
   -1.7207   -2.2723    0.0000 C   0  0  0  0  0  0  0  0  0  0  0  0
   -0.8637   -3.7674    0.0000 N   0  0  0  0  0  0  0  0  0  0  0  0
   -0.8637   -0.7375    0.0000 N   0  0  0  0  0  0  0  0  0  0  0  0
   -0.8637    1.2358    0.0000 N   0  0  0  0  0  0  0  0  0  0  0  0
   -1.7207   -3.2622    0.0000 C   0  0  0  0  0  0  0  0  0  0  0  0
    0.8638   -3.7674    0.0000 C   0  0  0  0  0  0  0  0  0  0  0  0
   -0.8637    2.2723    0.0000 C   0  0  0  0  0  0  0  0  0  0  0  0
   -1.7207   -0.2592    0.0000 C   0  0  0  0  0  0  0  0  0  0  0  0
    0.0067   -0.2592    0.0000 C   0  0  0  0  0  0  0  0  0  0  0  0
   -1.7207    0.7574    0.0000 C   0  0  0  0  0  0  0  0  0  0  0  0
    0.0067    0.7574    0.0000 C   0  0  0  0  0  0  0  0  0  0  0  0
    1.7275   -3.2622    0.0000 C   0  0  0  0  0  0  0  0  0  0  0  0
    0.0067    2.7375    0.0000 C   0  0  0  0  0  0  0  0  0  0  0  0
   -1.7207    2.7375    0.0000 C   0  0  0  0  0  0  0  0  0  0  0  0
   -0.8637    4.2323    0.0000 C   0  0  0  0  0  0  0  0  0  0  0  0
    2.5847   -3.7674    0.0000 C   0  0  0  0  0  0  0  0  0  0  0  0
   -1.7207    3.7672    0.0000 C   0  0  0  0  0  0  0  0  0  0  0  0
    0.0067    3.7672    0.0000 C   0  0  0  0  0  0  0  0  0  0  0  0
   -2.5778   -1.7539    0.0000 C   0  0  0  0  0  0  0  0  0  0  0  0
   -0.8637    5.2622    0.0000 F   0  0  0  0  0  0  0  0  0  0  0  0
    0.8638   -4.7573    0.0000 C   0  0  0  0  0  0  0  0  0  0  0  0
   -2.5778   -3.7674    0.0000 C   0  0  0  0  0  0  0  0  0  0  0  0
    1.7275   -5.2622    0.0000 C   0  0  0  0  0  0  0  0  0  0  0  0
    2.5847   -4.7573    0.0000 C   0  0  0  0  0  0  0  0  0  0  0  0
    3.4418   -3.2622    0.0000 C   0  0  0  0  0  0  0  0  0  0  0  0
   -3.4418   -2.2723    0.0000 C   0  0  0  0  0  0  0  0  0  0  0  0
   -3.4418   -3.2622    0.0000 C   0  0  0  0  0  0  0  0  0  0  0  0
  1  2  1  0
  1  3  2  0
  2  4  2  0
  4  8  1  0
  3  5  1  0
  2  6  1  0
  7 14  1  0
  7 13  1  0
  5  8  2  0
  3  9  1  0
  7 10  1  0
  6 11  1  0
  6 12  1  0
 11 13  1  0
 12 14  1  0
  9 15  1  0
 10 16  2  0
 10 17  1  0
 18 20  1  0
 15 19  2  0
 17 20  2  0
 16 21  1  0
 18 21  2  0
  4 22  1  0
 18 23  1  0
  9 24  2  0
  8 25  1  0
 24 26  1  0
 26 27  2  0
 19 27  1  0
 19 28  1  0
 22 29  2  0
 29 30  1  0
 25 30  2  0
M  END
>  <IDNUMBER>  (14) 
3909-7888

>  <available>  (14) 
10

>  <H_acceptor>  (14) 
2

>  <H_donor>  (14) 
0

>  <B_rotN>  (14) 
3

>  <N_O>  (14) 
4

>  <logP>  (14) 
6.7873

>  <logD>  (14) 
5.8891

>  <logSw>  (14) 
-6.2325

>  <PSA>  (14) 
24.8988

>  <pKa_ma>  (14) 
22.2134

>  <pKa_mb>  (14) 
8.2395

>  <N_Chirals>  (14) 
0

>  <Name>  (14) 
4-[4-(4-fluorophenyl)piperazin-1-yl]-2-(3-methylphenyl)quinazoline

>  <Smile>  (14) 
Cc1cccc(-c2nc3ccccc3c(N(CC3)CCN3c(cc3)ccc3F)n2)c1

>  <Color>  (14) 
YELLOW

>  <Collection>  (14) 
NC

>  <InChI>  (14) 
InChI=1S/C25H23FN4/c1-18-5-4-6-19(17-18)24-27-23-8-3-2-7-22(23)25(28-24)30-15-13-29(14-16-30)21-11-9-20(26)10-12-21/h2-12,17H,13-16H2,1H3

>  <InChI Key>  (14) 
OBRCEIRRFGDREA-UHFFFAOYSA-N

>  <PERCENTSP3>  (14) 
20

>  <Link>  (14) 
https://www.chemdiv.com/catalog/screening-compounds/compound-3909-7888/

>  <MFCDNUMBER>  (14) 
MFCD14708905

>  <CLNUMBER>  (14) 
CL2243

>  <STEREO>  (14) 
ACHIRAL

>  <State>  (14) 
Solid

>  <Similarity score>  (14) 
0.22

$$$$
2-(3,4-dimethoxyphenyl)-4-[4-(4-fluorophenyl)piperazin-1-yl]quinazoline
     RDKit          2D

 33 37  0  0  0  0  0  0  0  0999 V2000
   -0.4475   -1.4904    0.0000 N   0  0  0  0  0  0  0  0  0  0  0  0
   -1.3138   -0.9998    0.0000 C   0  0  0  0  0  0  0  0  0  0  0  0
   -0.4475   -2.4938    0.0000 C   0  0  0  0  0  0  0  0  0  0  0  0
   -2.1798   -1.4904    0.0000 C   0  0  0  0  0  0  0  0  0  0  0  0
   -1.3138   -3.0136    0.0000 N   0  0  0  0  0  0  0  0  0  0  0  0
   -1.3138    0.0036    0.0000 N   0  0  0  0  0  0  0  0  0  0  0  0
   -1.3138    2.0103    0.0000 N   0  0  0  0  0  0  0  0  0  0  0  0
   -2.1798   -2.4938    0.0000 C   0  0  0  0  0  0  0  0  0  0  0  0
    0.4187   -3.0136    0.0000 C   0  0  0  0  0  0  0  0  0  0  0  0
    0.4187   -3.9808    0.0000 C   0  0  0  0  0  0  0  0  0  0  0  0
    1.2849   -4.5005    0.0000 C   0  0  0  0  0  0  0  0  0  0  0  0
   -1.3138    2.9846    0.0000 C   0  0  0  0  0  0  0  0  0  0  0  0
   -0.4475    0.5234    0.0000 C   0  0  0  0  0  0  0  0  0  0  0  0
   -2.1798    0.5234    0.0000 C   0  0  0  0  0  0  0  0  0  0  0  0
   -0.4475    1.4906    0.0000 C   0  0  0  0  0  0  0  0  0  0  0  0
   -2.1798    1.4906    0.0000 C   0  0  0  0  0  0  0  0  0  0  0  0
    2.1510   -3.9808    0.0000 C   0  0  0  0  0  0  0  0  0  0  0  0
    1.2849   -2.4938    0.0000 C   0  0  0  0  0  0  0  0  0  0  0  0
    2.1510   -3.0136    0.0000 C   0  0  0  0  0  0  0  0  0  0  0  0
   -0.4475    3.5044    0.0000 C   0  0  0  0  0  0  0  0  0  0  0  0
   -2.1798    3.5044    0.0000 C   0  0  0  0  0  0  0  0  0  0  0  0
   -1.3138    4.9984    0.0000 C   0  0  0  0  0  0  0  0  0  0  0  0
    1.2849   -5.5039    0.0000 O   0  0  0  0  0  0  0  0  0  0  0  0
   -2.1798    4.4788    0.0000 C   0  0  0  0  0  0  0  0  0  0  0  0
   -0.4475    4.4788    0.0000 C   0  0  0  0  0  0  0  0  0  0  0  0
   -3.0460   -0.9998    0.0000 C   0  0  0  0  0  0  0  0  0  0  0  0
   -1.3138    5.9947    0.0000 F   0  0  0  0  0  0  0  0  0  0  0  0
    3.0462   -4.5005    0.0000 O   0  0  0  0  0  0  0  0  0  0  0  0
   -3.0460   -3.0136    0.0000 C   0  0  0  0  0  0  0  0  0  0  0  0
    0.4187   -5.9947    0.0000 C   0  0  0  0  0  0  0  0  0  0  0  0
    3.9123   -3.9808    0.0000 C   0  0  0  0  0  0  0  0  0  0  0  0
   -3.9123   -1.4904    0.0000 C   0  0  0  0  0  0  0  0  0  0  0  0
   -3.9123   -2.4938    0.0000 C   0  0  0  0  0  0  0  0  0  0  0  0
  1  2  1  0
  1  3  2  0
  2  4  2  0
  3  5  1  0
  2  6  1  0
  7 16  1  0
  5  8  2  0
  4  8  1  0
  3  9  1  0
  9 10  2  0
 10 11  1  0
 11 17  2  0
  7 12  1  0
  6 13  1  0
  6 14  1  0
 13 15  1  0
  7 15  1  0
 14 16  1  0
 17 19  1  0
  9 18  1  0
 18 19  2  0
 12 20  2  0
 12 21  1  0
 22 24  1  0
 22 25  2  0
 11 23  1  0
 21 24  2  0
 20 25  1  0
  4 26  1  0
 22 27  1  0
 17 28  1  0
  8 29  1  0
 23 30  1  0
 28 31  1  0
 26 32  2  0
 29 33  2  0
 32 33  1  0
M  END
>  <IDNUMBER>  (15) 
3909-7818

>  <available>  (15) 
1

>  <H_acceptor>  (15) 
4

>  <H_donor>  (15) 
0

>  <B_rotN>  (15) 
5

>  <N_O>  (15) 
6

>  <logP>  (15) 
6.0405

>  <logD>  (15) 
4.2578

>  <logSw>  (15) 
-5.9878

>  <PSA>  (15) 
40.16

>  <pKa_ma>  (15) 
22.2134

>  <pKa_mb>  (15) 
9.1755

>  <N_Chirals>  (15) 
0

>  <Name>  (15) 
2-(3,4-dimethoxyphenyl)-4-[4-(4-fluorophenyl)piperazin-1-yl]quinazoline

>  <Smile>  (15) 
COc(ccc(-c1nc2ccccc2c(N(CC2)CCN2c(cc2)ccc2F)n1)c1)c1OC

>  <Color>  (15) 
YELLOW

>  <Collection>  (15) 
DC

>  <InChI>  (15) 
InChI=1S/C26H25FN4O2/c1-32-23-12-7-18(17-24(23)33-2)25-28-22-6-4-3-5-21(22)26(29-25)31-15-13-30(14-16-31)20-10-8-19(27)9-11-20/h3-12,17H,13-16H2,1-2H3

>  <InChI Key>  (15) 
SDQONDHJBVWTDG-UHFFFAOYSA-N

>  <PERCENTSP3>  (15) 
23.1

>  <Link>  (15) 
https://www.chemdiv.com/catalog/screening-compounds/compound-3909-7818/

>  <MFCDNUMBER>  (15) 
MFCD02644378

>  <CLNUMBER>  (15) 
CL2243

>  <STEREO>  (15) 
ACHIRAL

>  <State>  (15) 
Solid

>  <Similarity score>  (15) 
0.22

$$$$
3-(4-ethoxyphenyl)-6,8-difluoro-1-(4-methylphenyl)-1H-pyrazolo[4,3-c]quinoline
     RDKit          2D

 31 35  0  0  0  0  0  0  0  0999 V2000
   -1.5767    0.4401    0.0000 N   0  0  0  0  0  0  0  0  0  0  0  0
   -0.9116   -1.0289    0.0000 C   0  0  0  0  0  0  0  0  0  0  0  0
   -1.7895   -0.5317    0.0000 C   0  0  0  0  0  0  0  0  0  0  0  0
   -0.5755    0.5409    0.0000 N   0  0  0  0  0  0  0  0  0  0  0  0
   -0.1522   -0.3503    0.0000 C   0  0  0  0  0  0  0  0  0  0  0  0
   -2.6743   -1.0289    0.0000 C   0  0  0  0  0  0  0  0  0  0  0  0
   -2.6743   -2.0258    0.0000 C   0  0  0  0  0  0  0  0  0  0  0  0
   -1.7895   -2.5205    0.0000 N   0  0  0  0  0  0  0  0  0  0  0  0
   -0.9116   -2.0258    0.0000 C   0  0  0  0  0  0  0  0  0  0  0  0
   -3.5364   -2.5205    0.0000 C   0  0  0  0  0  0  0  0  0  0  0  0
   -2.2060    1.2106    0.0000 C   0  0  0  0  0  0  0  0  0  0  0  0
   -4.4121   -2.0258    0.0000 C   0  0  0  0  0  0  0  0  0  0  0  0
    0.8556   -0.4557    0.0000 C   0  0  0  0  0  0  0  0  0  0  0  0
   -3.5364   -0.5317    0.0000 C   0  0  0  0  0  0  0  0  0  0  0  0
   -4.4121   -1.0289    0.0000 C   0  0  0  0  0  0  0  0  0  0  0  0
   -1.8432    2.1332    0.0000 C   0  0  0  0  0  0  0  0  0  0  0  0
   -3.1736    1.0561    0.0000 C   0  0  0  0  0  0  0  0  0  0  0  0
    1.2676   -1.3559    0.0000 C   0  0  0  0  0  0  0  0  0  0  0  0
    1.4333    0.3595    0.0000 C   0  0  0  0  0  0  0  0  0  0  0  0
   -3.5364   -3.5175    0.0000 F   0  0  0  0  0  0  0  0  0  0  0  0
   -5.2721   -0.5317    0.0000 F   0  0  0  0  0  0  0  0  0  0  0  0
    2.8802   -0.6371    0.0000 C   0  0  0  0  0  0  0  0  0  0  0  0
    2.4456    0.2745    0.0000 C   0  0  0  0  0  0  0  0  0  0  0  0
    2.2754   -1.4521    0.0000 C   0  0  0  0  0  0  0  0  0  0  0  0
   -3.7985    1.8152    0.0000 C   0  0  0  0  0  0  0  0  0  0  0  0
   -2.4794    2.9038    0.0000 C   0  0  0  0  0  0  0  0  0  0  0  0
   -3.4446    2.7471    0.0000 C   0  0  0  0  0  0  0  0  0  0  0  0
    3.8657   -0.7266    0.0000 O   0  0  0  0  0  0  0  0  0  0  0  0
    4.2844   -1.6427    0.0000 C   0  0  0  0  0  0  0  0  0  0  0  0
   -4.0786    3.5175    0.0000 C   0  0  0  0  0  0  0  0  0  0  0  0
    5.2721   -1.7390    0.0000 C   0  0  0  0  0  0  0  0  0  0  0  0
  2  3  2  0
  2  5  1  0
  1  3  1  0
  1  4  1  0
  4  5  2  0
  3  6  1  0
  6  7  1  0
  7  8  1  0
  8  9  2  0
  2  9  1  0
  7 10  2  0
  1 11  1  0
 12 15  2  0
 10 12  1  0
  5 13  1  0
  6 14  2  0
 14 15  1  0
 11 16  2  0
 11 17  1  0
 13 18  2  0
 13 19  1  0
 10 20  1  0
 15 21  1  0
 22 23  1  0
 19 23  2  0
 18 24  1  0
 22 24  2  0
 17 25  2  0
 16 26  1  0
 26 27  2  0
 25 27  1  0
 22 28  1  0
 28 29  1  0
 27 30  1  0
 29 31  1  0
M  END
>  <IDNUMBER>  (16) 
C350-0828

>  <available>  (16) 
170

>  <H_acceptor>  (16) 
3

>  <H_donor>  (16) 
0

>  <B_rotN>  (16) 
4

>  <N_O>  (16) 
4

>  <logP>  (16) 
6.219

>  <logD>  (16) 
6.219

>  <logSw>  (16) 
-5.5614

>  <PSA>  (16) 
30.6039

>  <pKa_ma>  (16) 
28.3737

>  <pKa_mb>  (16) 
2.3022

>  <N_Chirals>  (16) 
0

>  <Name>  (16) 
3-(4-ethoxyphenyl)-6,8-difluoro-1-(4-methylphenyl)-1H-pyrazolo[4,3-c]quinoline

>  <Smile>  (16) 
CCOc(cc1)ccc1-c(c1cnc2c(F)cc(F)cc2c11)nn1-c1ccc(C)cc1

>  <Color>  (16) 
NOT COLORED

>  <Collection>  (16) 
DC

>  <InChI>  (16) 
InChI=1S/C25H19F2N3O/c1-3-31-19-10-6-16(7-11-19)23-21-14-28-24-20(12-17(26)13-22(24)27)25(21)30(29-23)18-8-4-15(2)5-9-18/h4-14H,3H2,1-2H3

>  <InChI Key>  (16) 
PZUQLGDLBXFWIG-UHFFFAOYSA-N

>  <PERCENTSP3>  (16) 
12

>  <Link>  (16) 
https://www.chemdiv.com/catalog/screening-compounds/compound-C350-0828/

>  <MFCDNUMBER>  (16) 
MFCD14750694

>  <CLNUMBER>  (16) 
CL4130

>  <STEREO>  (16) 
ACHIRAL

>  <State>  (16) 
Solid

>  <Similarity score>  (16) 
0.22

$$$$
3-(4-ethoxyphenyl)-8-fluoro-1H-pyrazolo[4,3-c]quinoline
     RDKit          2D

 23 26  0  0  0  0  0  0  0  0999 V2000
   -0.4887   -0.0405    0.0000 C   0  0  0  0  0  0  0  0  0  0  0  0
   -0.1412    1.5464    0.0000 N   0  0  0  0  0  0  0  0  0  0  0  0
   -1.3551    0.4735    0.0000 C   0  0  0  0  0  0  0  0  0  0  0  0
   -1.1384    1.4558    0.0000 N   0  0  0  0  0  0  0  0  0  0  0  0
    0.2619    0.6298    0.0000 C   0  0  0  0  0  0  0  0  0  0  0  0
   -2.2265   -0.0405    0.0000 C   0  0  0  0  0  0  0  0  0  0  0  0
   -0.4887   -1.0479    0.0000 C   0  0  0  0  0  0  0  0  0  0  0  0
   -1.3652   -1.5464    0.0000 N   0  0  0  0  0  0  0  0  0  0  0  0
   -2.2265   -1.0479    0.0000 C   0  0  0  0  0  0  0  0  0  0  0  0
    1.2344    0.4181    0.0000 C   0  0  0  0  0  0  0  0  0  0  0  0
   -3.0880    0.4583    0.0000 C   0  0  0  0  0  0  0  0  0  0  0  0
    1.5315   -0.5341    0.0000 C   0  0  0  0  0  0  0  0  0  0  0  0
    1.8993    1.1536    0.0000 C   0  0  0  0  0  0  0  0  0  0  0  0
   -3.0880   -1.5364    0.0000 C   0  0  0  0  0  0  0  0  0  0  0  0
   -3.9645   -0.0254    0.0000 C   0  0  0  0  0  0  0  0  0  0  0  0
    3.1786   -0.0051    0.0000 C   0  0  0  0  0  0  0  0  0  0  0  0
   -3.9645   -1.0329    0.0000 C   0  0  0  0  0  0  0  0  0  0  0  0
    2.8665    0.9471    0.0000 C   0  0  0  0  0  0  0  0  0  0  0  0
    2.5037   -0.7454    0.0000 C   0  0  0  0  0  0  0  0  0  0  0  0
   -4.8159    0.4735    0.0000 F   0  0  0  0  0  0  0  0  0  0  0  0
    4.1460   -0.2164    0.0000 O   0  0  0  0  0  0  0  0  0  0  0  0
    4.8159    0.5188    0.0000 C   0  0  0  0  0  0  0  0  0  0  0  0
    4.5137    1.4710    0.0000 C   0  0  0  0  0  0  0  0  0  0  0  0
  2  5  2  0
  1  3  2  0
  3  4  1  0
  2  4  1  0
  1  5  1  0
  3  6  1  0
  1  7  1  0
  7  8  2  0
  8  9  1  0
  6  9  1  0
  5 10  1  0
  6 11  2  0
 10 12  2  0
 10 13  1  0
  9 14  2  0
 11 15  1  0
 15 17  2  0
 16 18  1  0
 16 19  2  0
 14 17  1  0
 13 18  2  0
 12 19  1  0
 15 20  1  0
 16 21  1  0
 21 22  1  0
 22 23  1  0
M  END
>  <IDNUMBER>  (17) 
C200-5249

>  <available>  (17) 
1

>  <H_acceptor>  (17) 
3

>  <H_donor>  (17) 
1

>  <B_rotN>  (17) 
3

>  <N_O>  (17) 
4

>  <logP>  (17) 
4.2532

>  <logD>  (17) 
4.2522

>  <logSw>  (17) 
-4.077

>  <PSA>  (17) 
39.96

>  <pKa_ma>  (17) 
14.1885

>  <pKa_mb>  (17) 
4.7765

>  <N_Chirals>  (17) 
0

>  <Name>  (17) 
3-(4-ethoxyphenyl)-8-fluoro-1H-pyrazolo[4,3-c]quinoline

>  <Smile>  (17) 
CCOc(cc1)ccc1-c1n[nH]c2c(cc(cc3)F)c3ncc12

>  <Color>  (17) 
YELLOW

>  <Collection>  (17) 
NC

>  <InChI>  (17) 
InChI=1S/C18H14FN3O/c1-2-23-13-6-3-11(4-7-13)17-15-10-20-16-8-5-12(19)9-14(16)18(15)22-21-17/h3-10H,2H2,1H3,(H,21,22)

>  <InChI Key>  (17) 
FLVKOJOMRKNKBG-UHFFFAOYSA-N

>  <PERCENTSP3>  (17) 
11.1

>  <Link>  (17) 
https://www.chemdiv.com/catalog/screening-compounds/compound-C200-5249/

>  <MFCDNUMBER>  (17) 
MFCD14727818

>  <CLNUMBER>  (17) 
CL4130

>  <STEREO>  (17) 
ACHIRAL

>  <State>  (17) 
Solid

>  <Similarity score>  (17) 
0.22

$$$$
1-(4-chlorophenyl)-3-(4-ethoxyphenyl)-6,8-difluoro-1H-pyrazolo[4,3-c]quinoline
     RDKit          2D

 31 35  0  0  0  0  0  0  0  0999 V2000
   -1.5750    0.4378    0.0000 N   0  0  0  0  0  0  0  0  0  0  0  0
   -0.9116   -1.0342    0.0000 C   0  0  0  0  0  0  0  0  0  0  0  0
   -1.7870   -0.5260    0.0000 C   0  0  0  0  0  0  0  0  0  0  0  0
   -0.5799    0.5453    0.0000 N   0  0  0  0  0  0  0  0  0  0  0  0
   -0.1480   -0.3568    0.0000 C   0  0  0  0  0  0  0  0  0  0  0  0
   -2.6675   -1.0342    0.0000 C   0  0  0  0  0  0  0  0  0  0  0  0
   -2.6675   -2.0220    0.0000 C   0  0  0  0  0  0  0  0  0  0  0  0
   -1.7870   -2.5208    0.0000 N   0  0  0  0  0  0  0  0  0  0  0  0
   -0.9116   -2.0220    0.0000 C   0  0  0  0  0  0  0  0  0  0  0  0
   -3.5385   -2.5208    0.0000 C   0  0  0  0  0  0  0  0  0  0  0  0
   -2.1998    1.2087    0.0000 C   0  0  0  0  0  0  0  0  0  0  0  0
   -4.4141   -2.0220    0.0000 C   0  0  0  0  0  0  0  0  0  0  0  0
    0.8542   -0.4616    0.0000 C   0  0  0  0  0  0  0  0  0  0  0  0
   -3.5385   -0.5260    0.0000 C   0  0  0  0  0  0  0  0  0  0  0  0
   -4.4046   -1.0342    0.0000 C   0  0  0  0  0  0  0  0  0  0  0  0
   -1.8469    2.1296    0.0000 C   0  0  0  0  0  0  0  0  0  0  0  0
   -3.1663    1.0488    0.0000 C   0  0  0  0  0  0  0  0  0  0  0  0
    1.2622   -1.3563    0.0000 C   0  0  0  0  0  0  0  0  0  0  0  0
    1.4291    0.3638    0.0000 C   0  0  0  0  0  0  0  0  0  0  0  0
   -3.5291   -3.5158    0.0000 F   0  0  0  0  0  0  0  0  0  0  0  0
   -3.4477    2.7476    0.0000 C   0  0  0  0  0  0  0  0  0  0  0  0
   -5.2730   -0.5380    0.0000 F   0  0  0  0  0  0  0  0  0  0  0  0
    2.8774   -0.6333    0.0000 C   0  0  0  0  0  0  0  0  0  0  0  0
   -3.7939    1.8121    0.0000 C   0  0  0  0  0  0  0  0  0  0  0  0
   -2.4720    2.8978    0.0000 C   0  0  0  0  0  0  0  0  0  0  0  0
    2.2738   -1.4591    0.0000 C   0  0  0  0  0  0  0  0  0  0  0  0
    2.4384    0.2732    0.0000 C   0  0  0  0  0  0  0  0  0  0  0  0
   -4.0704    3.5158    0.0000 Cl  0  0  0  0  0  0  0  0  0  0  0  0
    3.8677   -0.7336    0.0000 O   0  0  0  0  0  0  0  0  0  0  0  0
    4.2803   -1.6452    0.0000 C   0  0  0  0  0  0  0  0  0  0  0  0
    5.2730   -1.7356    0.0000 C   0  0  0  0  0  0  0  0  0  0  0  0
  2  3  2  0
  2  5  1  0
  1  3  1  0
  1  4  1  0
  4  5  2  0
  3  6  1  0
  6  7  1  0
  7  8  1  0
  8  9  2  0
  2  9  1  0
  7 10  2  0
  1 11  1  0
 12 15  2  0
 10 12  1  0
  5 13  1  0
  6 14  2  0
 14 15  1  0
 11 16  2  0
 11 17  1  0
 13 18  2  0
 13 19  1  0
 10 20  1  0
 21 24  1  0
 15 22  1  0
 23 27  1  0
 17 24  2  0
 16 25  1  0
 21 25  2  0
 18 26  1  0
 23 26  2  0
 19 27  2  0
 21 28  1  0
 23 29  1  0
 29 30  1  0
 30 31  1  0
M  END
>  <IDNUMBER>  (18) 
C350-0826

>  <available>  (18) 
83

>  <H_acceptor>  (18) 
3

>  <H_donor>  (18) 
0

>  <B_rotN>  (18) 
4

>  <N_O>  (18) 
4

>  <logP>  (18) 
6.3904

>  <logD>  (18) 
6.3904

>  <logSw>  (18) 
-6.5386

>  <PSA>  (18) 
30.6039

>  <pKa_ma>  (18) 
29.8521

>  <pKa_mb>  (18) 
2.2647

>  <N_Chirals>  (18) 
0

>  <Name>  (18) 
1-(4-chlorophenyl)-3-(4-ethoxyphenyl)-6,8-difluoro-1H-pyrazolo[4,3-c]quinoline

>  <Smile>  (18) 
CCOc(cc1)ccc1-c(c1c2c3cc(F)cc(F)c3nc1)nn2-c(cc1)ccc1Cl

>  <Color>  (18) 
NOT COLORED

>  <Collection>  (18) 
DC

>  <InChI>  (18) 
InChI=1S/C24H16ClF2N3O/c1-2-31-18-9-3-14(4-10-18)22-20-13-28-23-19(11-16(26)12-21(23)27)24(20)30(29-22)17-7-5-15(25)6-8-17/h3-13H,2H2,1H3

>  <InChI Key>  (18) 
LUOLVFPYOSABGR-UHFFFAOYSA-N

>  <PERCENTSP3>  (18) 
8.3

>  <Link>  (18) 
https://www.chemdiv.com/catalog/screening-compounds/compound-C350-0826/

>  <MFCDNUMBER>  (18) 
MFCD14750692

>  <CLNUMBER>  (18) 
CL4130

>  <STEREO>  (18) 
ACHIRAL

>  <State>  (18) 
Solid

>  <Similarity score>  (18) 
0.22

$$$$
4-(azepan-1-yl)-N-(3,4-difluorophenyl)[1]benzofuro[3,2-d]pyrimidine-2-carboxamid
     RDKit          2D

 31 35  0  0  0  0  0  0  0  0999 V2000
    1.9181    0.2415    0.0000 C   0  0  0  0  0  0  0  0  0  0  0  0
    1.9181   -0.7332    0.0000 C   0  0  0  0  0  0  0  0  0  0  0  0
    1.0685    0.7329    0.0000 C   0  0  0  0  0  0  0  0  0  0  0  0
    1.0685   -1.2288    0.0000 N   0  0  0  0  0  0  0  0  0  0  0  0
    0.2187    0.2415    0.0000 N   0  0  0  0  0  0  0  0  0  0  0  0
    0.2187   -0.7332    0.0000 C   0  0  0  0  0  0  0  0  0  0  0  0
    2.7636    0.7329    0.0000 O   0  0  0  0  0  0  0  0  0  0  0  0
    1.9181    2.2032    0.0000 C   0  0  0  0  0  0  0  0  0  0  0  0
   -0.6310   -1.2204    0.0000 C   0  0  0  0  0  0  0  0  0  0  0  0
    2.7636    1.7161    0.0000 C   0  0  0  0  0  0  0  0  0  0  0  0
    2.7636   -1.2288    0.0000 N   0  0  0  0  0  0  0  0  0  0  0  0
   -1.4806   -0.7332    0.0000 N   0  0  0  0  0  0  0  0  0  0  0  0
   -3.1718   -2.6950    0.0000 C   0  0  0  0  0  0  0  0  0  0  0  0
   -2.3222   -2.2077    0.0000 C   0  0  0  0  0  0  0  0  0  0  0  0
   -2.3222   -1.2204    0.0000 C   0  0  0  0  0  0  0  0  0  0  0  0
   -4.0174   -2.2077    0.0000 C   0  0  0  0  0  0  0  0  0  0  0  0
   -0.6310   -2.2077    0.0000 O   0  0  0  0  0  0  0  0  0  0  0  0
   -4.0174   -1.2204    0.0000 C   0  0  0  0  0  0  0  0  0  0  0  0
   -3.1718   -3.6696    0.0000 F   0  0  0  0  0  0  0  0  0  0  0  0
   -3.1718   -0.7332    0.0000 C   0  0  0  0  0  0  0  0  0  0  0  0
   -4.8670   -2.6950    0.0000 F   0  0  0  0  0  0  0  0  0  0  0  0
    1.9181    3.1823    0.0000 C   0  0  0  0  0  0  0  0  0  0  0  0
    3.5674   -0.6706    0.0000 C   0  0  0  0  0  0  0  0  0  0  0  0
    2.6928   -2.2032    0.0000 C   0  0  0  0  0  0  0  0  0  0  0  0
    3.6132    2.2032    0.0000 C   0  0  0  0  0  0  0  0  0  0  0  0
    2.7636    3.6696    0.0000 C   0  0  0  0  0  0  0  0  0  0  0  0
    4.5047   -0.9580    0.0000 C   0  0  0  0  0  0  0  0  0  0  0  0
    3.4051   -2.8699    0.0000 C   0  0  0  0  0  0  0  0  0  0  0  0
    3.6132    3.1782    0.0000 C   0  0  0  0  0  0  0  0  0  0  0  0
    4.8670   -1.8703    0.0000 C   0  0  0  0  0  0  0  0  0  0  0  0
    4.3756   -2.7199    0.0000 C   0  0  0  0  0  0  0  0  0  0  0  0
  1  2  1  0
  1  3  2  0
  2  4  2  0
  4  6  1  0
  3  5  1  0
  5  6  2  0
  1  7  1  0
  3  8  1  0
  8 10  1  0
  6  9  1  0
  7 10  1  0
  2 11  1  0
  9 12  1  0
 13 14  1  0
 14 15  2  0
 12 15  1  0
 16 18  1  0
 13 16  2  0
  9 17  2  0
 18 20  2  0
 13 19  1  0
 15 20  1  0
 16 21  1  0
  8 22  2  0
 11 23  1  0
 11 24  1  0
 10 25  2  0
 22 26  1  0
 26 29  2  0
 23 27  1  0
 24 28  1  0
 25 29  1  0
 27 30  1  0
 30 31  1  0
 28 31  1  0
M  END
>  <IDNUMBER>  (19) 
L331-0713

>  <available>  (19) 
13

>  <H_acceptor>  (19) 
5

>  <H_donor>  (19) 
1

>  <B_rotN>  (19) 
4

>  <N_O>  (19) 
6

>  <logP>  (19) 
6.0319

>  <logD>  (19) 
6.0121

>  <logSw>  (19) 
-6.12

>  <PSA>  (19) 
54.522

>  <pKa_ma>  (19) 
9.0982

>  <pKa_mb>  (19) 
11.0435

>  <N_Chirals>  (19) 
0

>  <Name>  (19) 
4-(azepan-1-yl)-N-(3,4-difluorophenyl)[1]benzofuro[3,2-d]pyrimidine-2-carboxamide

>  <Smile>  (19) 
O=C(c1nc(N2CCCCCC2)c2oc(cccc3)c3c2n1)Nc(cc1)cc(F)c1F

>  <Color>  (19) 
NOT COLORED

>  <Collection>  (19) 
NC

>  <InChI>  (19) 
InChI=1S/C23H20F2N4O2/c24-16-10-9-14(13-17(16)25)26-23(30)21-27-19-15-7-3-4-8-18(15)31-20(19)22(28-21)29-11-5-1-2-6-12-29/h3-4,7-10,13H,1-2,5-6,11-12H2,(H,26,30)

>  <InChI Key>  (19) 
ZOTVQGZMIJVEQN-UHFFFAOYSA-N

>  <PERCENTSP3>  (19) 
26.1

>  <Link>  (19) 
https://www.chemdiv.com/catalog/screening-compounds/compound-L331-0713/

>  <MFCDNUMBER>  (19) 
MFCD27247026

>  <CLNUMBER>  (19) 
CL7949

>  <STEREO>  (19) 
ACHIRAL

>  <State>  (19) 
Solid

>  <Similarity score>  (19) 
0.22

$$$$
N-(3,4-difluorophenyl)-4-(piperidin-1-yl)[1]benzofuro[3,2-d]pyrimidine-2-carboxa
     RDKit          2D

 30 34  0  0  0  0  0  0  0  0999 V2000
    2.1206    0.2416    0.0000 C   0  0  0  0  0  0  0  0  0  0  0  0
    2.1206   -0.7333    0.0000 C   0  0  0  0  0  0  0  0  0  0  0  0
    1.2707    0.7333    0.0000 C   0  0  0  0  0  0  0  0  0  0  0  0
    1.2707   -1.2208    0.0000 N   0  0  0  0  0  0  0  0  0  0  0  0
    0.4208    0.2416    0.0000 N   0  0  0  0  0  0  0  0  0  0  0  0
    0.4208   -0.7333    0.0000 C   0  0  0  0  0  0  0  0  0  0  0  0
    2.9704    0.7333    0.0000 O   0  0  0  0  0  0  0  0  0  0  0  0
    2.1206    2.2038    0.0000 C   0  0  0  0  0  0  0  0  0  0  0  0
   -0.4208   -1.2208    0.0000 C   0  0  0  0  0  0  0  0  0  0  0  0
    2.9704    1.7164    0.0000 C   0  0  0  0  0  0  0  0  0  0  0  0
    2.9704   -1.2208    0.0000 N   0  0  0  0  0  0  0  0  0  0  0  0
   -1.2707   -0.7333    0.0000 N   0  0  0  0  0  0  0  0  0  0  0  0
   -2.9662   -2.6955    0.0000 C   0  0  0  0  0  0  0  0  0  0  0  0
   -2.1163   -2.2038    0.0000 C   0  0  0  0  0  0  0  0  0  0  0  0
   -2.1163   -1.2208    0.0000 C   0  0  0  0  0  0  0  0  0  0  0  0
   -3.8161   -2.2038    0.0000 C   0  0  0  0  0  0  0  0  0  0  0  0
   -0.4208   -2.2038    0.0000 O   0  0  0  0  0  0  0  0  0  0  0  0
   -3.8161   -1.2208    0.0000 C   0  0  0  0  0  0  0  0  0  0  0  0
   -2.9662   -3.6704    0.0000 F   0  0  0  0  0  0  0  0  0  0  0  0
   -2.9662   -0.7333    0.0000 C   0  0  0  0  0  0  0  0  0  0  0  0
   -4.6577   -2.6955    0.0000 F   0  0  0  0  0  0  0  0  0  0  0  0
    2.1206    3.1787    0.0000 C   0  0  0  0  0  0  0  0  0  0  0  0
    2.9704   -2.2038    0.0000 C   0  0  0  0  0  0  0  0  0  0  0  0
    3.8161   -0.7333    0.0000 C   0  0  0  0  0  0  0  0  0  0  0  0
    3.8161    2.2038    0.0000 C   0  0  0  0  0  0  0  0  0  0  0  0
    2.9704    3.6704    0.0000 C   0  0  0  0  0  0  0  0  0  0  0  0
    4.6577   -1.2208    0.0000 C   0  0  0  0  0  0  0  0  0  0  0  0
    3.8161   -2.6955    0.0000 C   0  0  0  0  0  0  0  0  0  0  0  0
    3.8161    3.1787    0.0000 C   0  0  0  0  0  0  0  0  0  0  0  0
    4.6577   -2.2038    0.0000 C   0  0  0  0  0  0  0  0  0  0  0  0
  1  2  1  0
  1  3  2  0
  2  4  2  0
  4  6  1  0
  3  5  1  0
  5  6  2  0
  1  7  1  0
  3  8  1  0
  8 10  1  0
  6  9  1  0
  7 10  1  0
  2 11  1  0
  9 12  1  0
 13 14  1  0
 14 15  2  0
 12 15  1  0
 16 18  1  0
 13 16  2  0
  9 17  2  0
 18 20  2  0
 13 19  1  0
 15 20  1  0
 16 21  1  0
  8 22  2  0
 11 23  1  0
 11 24  1  0
 10 25  2  0
 22 26  1  0
 26 29  2  0
 24 27  1  0
 23 28  1  0
 28 30  1  0
 25 29  1  0
 27 30  1  0
M  END
>  <IDNUMBER>  (20) 
L331-0404

>  <available>  (20) 
15

>  <H_acceptor>  (20) 
5

>  <H_donor>  (20) 
1

>  <B_rotN>  (20) 
4

>  <N_O>  (20) 
6

>  <logP>  (20) 
5.536

>  <logD>  (20) 
5.5262

>  <logSw>  (20) 
-6.0352

>  <PSA>  (20) 
54.191

>  <pKa_ma>  (20) 
9.0982

>  <pKa_mb>  (20) 
4.8079

>  <N_Chirals>  (20) 
0

>  <Name>  (20) 
N-(3,4-difluorophenyl)-4-(piperidin-1-yl)[1]benzofuro[3,2-d]pyrimidine-2-carboxamide

>  <Smile>  (20) 
O=C(c1nc(N2CCCCC2)c2oc(cccc3)c3c2n1)Nc(cc1)cc(F)c1F

>  <Color>  (20) 
NOT COLORED

>  <Collection>  (20) 
NC

>  <InChI>  (20) 
InChI=1S/C22H18F2N4O2/c23-15-9-8-13(12-16(15)24)25-22(29)20-26-18-14-6-2-3-7-17(14)30-19(18)21(27-20)28-10-4-1-5-11-28/h2-3,6-9,12H,1,4-5,10-11H2,(H,25,29)

>  <InChI Key>  (20) 
GZLSVBIFSHTYMF-UHFFFAOYSA-N

>  <PERCENTSP3>  (20) 
22.7

>  <Link>  (20) 
https://www.chemdiv.com/catalog/screening-compounds/compound-L331-0404/

>  <MFCDNUMBER>  (20) 
MFCD27246969

>  <CLNUMBER>  (20) 
CL7949

>  <STEREO>  (20) 
ACHIRAL

>  <State>  (20) 
Solid

>  <Similarity score>  (20) 
0.22

$$$$
8-ethoxy-3-(4-fluorophenyl)-1H-pyrazolo[4,3-c]quinoline
     RDKit          2D

 23 26  0  0  0  0  0  0  0  0999 V2000
    0.2717   -0.2541    0.0000 C   0  0  0  0  0  0  0  0  0  0  0  0
    0.6191    1.3312    0.0000 N   0  0  0  0  0  0  0  0  0  0  0  0
   -0.5988    0.2592    0.0000 C   0  0  0  0  0  0  0  0  0  0  0  0
   -0.3775    1.2404    0.0000 N   0  0  0  0  0  0  0  0  0  0  0  0
    1.0169    0.4151    0.0000 C   0  0  0  0  0  0  0  0  0  0  0  0
   -1.4593   -0.2541    0.0000 C   0  0  0  0  0  0  0  0  0  0  0  0
    0.2768   -1.2607    0.0000 C   0  0  0  0  0  0  0  0  0  0  0  0
   -0.5988   -1.7591    0.0000 N   0  0  0  0  0  0  0  0  0  0  0  0
   -1.4646   -1.2607    0.0000 C   0  0  0  0  0  0  0  0  0  0  0  0
    1.9932    0.2040    0.0000 C   0  0  0  0  0  0  0  0  0  0  0  0
   -2.3252    0.2438    0.0000 C   0  0  0  0  0  0  0  0  0  0  0  0
    2.2849   -0.7474    0.0000 C   0  0  0  0  0  0  0  0  0  0  0  0
    2.6575    0.9383    0.0000 C   0  0  0  0  0  0  0  0  0  0  0  0
   -2.3252   -1.7491    0.0000 C   0  0  0  0  0  0  0  0  0  0  0  0
   -3.1958   -0.2392    0.0000 C   0  0  0  0  0  0  0  0  0  0  0  0
    3.9308   -0.2188    0.0000 C   0  0  0  0  0  0  0  0  0  0  0  0
   -3.2007   -1.2456    0.0000 C   0  0  0  0  0  0  0  0  0  0  0  0
    3.6288    0.7321    0.0000 C   0  0  0  0  0  0  0  0  0  0  0  0
    3.2665   -0.9587    0.0000 C   0  0  0  0  0  0  0  0  0  0  0  0
    4.9071   -0.4304    0.0000 F   0  0  0  0  0  0  0  0  0  0  0  0
   -4.0562    0.2592    0.0000 O   0  0  0  0  0  0  0  0  0  0  0  0
   -4.0464    1.2558    0.0000 C   0  0  0  0  0  0  0  0  0  0  0  0
   -4.9071    1.7591    0.0000 C   0  0  0  0  0  0  0  0  0  0  0  0
  2  5  2  0
  1  3  2  0
  3  4  1  0
  2  4  1  0
  1  5  1  0
  3  6  1  0
  1  7  1  0
  7  8  2  0
  8  9  1  0
  6  9  1  0
  5 10  1  0
  6 11  2  0
 10 12  2  0
 10 13  1  0
  9 14  2  0
 11 15  1  0
 15 17  2  0
 16 18  1  0
 16 19  2  0
 14 17  1  0
 13 18  2  0
 12 19  1  0
 16 20  1  0
 15 21  1  0
 21 22  1  0
 22 23  1  0
M  END
>  <IDNUMBER>  (21) 
C200-5255

>  <available>  (21) 
2

>  <H_acceptor>  (21) 
3

>  <H_donor>  (21) 
1

>  <B_rotN>  (21) 
3

>  <N_O>  (21) 
4

>  <logP>  (21) 
4.2604

>  <logD>  (21) 
4.1716

>  <logSw>  (21) 
-4.1213

>  <PSA>  (21) 
39.96

>  <pKa_ma>  (21) 
14.2047

>  <pKa_mb>  (21) 
6.756

>  <N_Chirals>  (21) 
0

>  <Name>  (21) 
8-ethoxy-3-(4-fluorophenyl)-1H-pyrazolo[4,3-c]quinoline

>  <Smile>  (21) 
CCOc(cc12)ccc1ncc1c2[nH]nc1-c(cc1)ccc1F

>  <Color>  (21) 
NOT COLORED

>  <Collection>  (21) 
NC

>  <InChI>  (21) 
InChI=1S/C18H14FN3O/c1-2-23-13-7-8-16-14(9-13)18-15(10-20-16)17(21-22-18)11-3-5-12(19)6-4-11/h3-10H,2H2,1H3,(H,21,22)

>  <InChI Key>  (21) 
NQONYHUHQYVECA-UHFFFAOYSA-N

>  <PERCENTSP3>  (21) 
11.1

>  <Link>  (21) 
https://www.chemdiv.com/catalog/screening-compounds/compound-C200-5255/

>  <MFCDNUMBER>  (21) 
MFCD14727822

>  <CLNUMBER>  (21) 
CL4130

>  <STEREO>  (21) 
ACHIRAL

>  <State>  (21) 
Solid

>  <Similarity score>  (21) 
0.22

$$$$
6,8-difluoro-3-(4-fluorophenyl)-1-(4-methoxyphenyl)-1H-pyrazolo[4,3-c]quinoline
     RDKit          2D

 30 34  0  0  0  0  0  0  0  0999 V2000
   -0.8589    0.4406    0.0000 N   0  0  0  0  0  0  0  0  0  0  0  0
   -0.2050   -1.0377    0.0000 C   0  0  0  0  0  0  0  0  0  0  0  0
   -1.0708   -0.5388    0.0000 C   0  0  0  0  0  0  0  0  0  0  0  0
    0.1277    0.5455    0.0000 N   0  0  0  0  0  0  0  0  0  0  0  0
    0.5378   -0.3611    0.0000 C   0  0  0  0  0  0  0  0  0  0  0  0
   -1.9340   -1.0377    0.0000 C   0  0  0  0  0  0  0  0  0  0  0  0
   -1.9340   -2.0354    0.0000 C   0  0  0  0  0  0  0  0  0  0  0  0
   -1.0708   -2.5343    0.0000 N   0  0  0  0  0  0  0  0  0  0  0  0
   -0.2050   -2.0354    0.0000 C   0  0  0  0  0  0  0  0  0  0  0  0
   -2.7951   -2.5343    0.0000 C   0  0  0  0  0  0  0  0  0  0  0  0
   -1.4898    1.2107    0.0000 C   0  0  0  0  0  0  0  0  0  0  0  0
   -3.6678   -2.0400    0.0000 C   0  0  0  0  0  0  0  0  0  0  0  0
    1.5355   -0.4614    0.0000 C   0  0  0  0  0  0  0  0  0  0  0  0
   -2.7951   -0.5388    0.0000 C   0  0  0  0  0  0  0  0  0  0  0  0
   -3.6678   -1.0377    0.0000 C   0  0  0  0  0  0  0  0  0  0  0  0
   -1.1323    2.1492    0.0000 C   0  0  0  0  0  0  0  0  0  0  0  0
   -2.4785    1.0513    0.0000 C   0  0  0  0  0  0  0  0  0  0  0  0
    1.9545   -1.3588    0.0000 C   0  0  0  0  0  0  0  0  0  0  0  0
    2.1096    0.3633    0.0000 C   0  0  0  0  0  0  0  0  0  0  0  0
   -2.7951   -3.5389    0.0000 F   0  0  0  0  0  0  0  0  0  0  0  0
    3.5310   -0.6345    0.0000 C   0  0  0  0  0  0  0  0  0  0  0  0
   -4.5309   -0.5388    0.0000 F   0  0  0  0  0  0  0  0  0  0  0  0
   -2.7609    2.7597    0.0000 C   0  0  0  0  0  0  0  0  0  0  0  0
    2.9408   -1.4614    0.0000 C   0  0  0  0  0  0  0  0  0  0  0  0
    3.1073    0.2745    0.0000 C   0  0  0  0  0  0  0  0  0  0  0  0
   -3.1095    1.8211    0.0000 C   0  0  0  0  0  0  0  0  0  0  0  0
   -1.7678    2.9214    0.0000 C   0  0  0  0  0  0  0  0  0  0  0  0
    4.5309   -0.7349    0.0000 F   0  0  0  0  0  0  0  0  0  0  0  0
   -3.3850    3.5389    0.0000 O   0  0  0  0  0  0  0  0  0  0  0  0
   -4.3690    3.3724    0.0000 C   0  0  0  0  0  0  0  0  0  0  0  0
  2  3  2  0
  2  5  1  0
  1  3  1  0
  1  4  1  0
  4  5  2  0
  3  6  1  0
  6  7  1  0
  7  8  1  0
  8  9  2  0
  2  9  1  0
  7 10  2  0
  1 11  1  0
 12 15  2  0
 10 12  1  0
  5 13  1  0
  6 14  2  0
 14 15  1  0
 11 16  2  0
 11 17  1  0
 13 18  2  0
 13 19  1  0
 10 20  1  0
 21 25  1  0
 15 22  1  0
 23 26  1  0
 18 24  1  0
 21 24  2  0
 19 25  2  0
 17 26  2  0
 16 27  1  0
 23 27  2  0
 21 28  1  0
 23 29  1  0
 29 30  1  0
M  END
>  <IDNUMBER>  (22) 
C350-0499

>  <available>  (22) 
111

>  <H_acceptor>  (22) 
3

>  <H_donor>  (22) 
0

>  <B_rotN>  (22) 
3

>  <N_O>  (22) 
4

>  <logP>  (22) 
5.4381

>  <logD>  (22) 
5.4381

>  <logSw>  (22) 
-5.653

>  <PSA>  (22) 
31.0241

>  <pKa_ma>  (22) 
33.286

>  <pKa_mb>  (22) 
2.2647

>  <N_Chirals>  (22) 
0

>  <Name>  (22) 
6,8-difluoro-3-(4-fluorophenyl)-1-(4-methoxyphenyl)-1H-pyrazolo[4,3-c]quinoline

>  <Smile>  (22) 
COc(cc1)ccc1-n(c1c(cc(cc2F)F)c2ncc11)nc1-c(cc1)ccc1F

>  <Color>  (22) 
NOT COLORED

>  <Collection>  (22) 
DC

>  <InChI>  (22) 
InChI=1S/C23H14F3N3O/c1-30-17-8-6-16(7-9-17)29-23-18-10-15(25)11-20(26)22(18)27-12-19(23)21(28-29)13-2-4-14(24)5-3-13/h2-12H,1H3

>  <InChI Key>  (22) 
UOQHYNPURJVFSW-UHFFFAOYSA-N

>  <PERCENTSP3>  (22) 
4.3

>  <Link>  (22) 
https://www.chemdiv.com/catalog/screening-compounds/compound-C350-0499/

>  <MFCDNUMBER>  (22) 
MFCD14750453

>  <CLNUMBER>  (22) 
CL4130

>  <STEREO>  (22) 
ACHIRAL

>  <State>  (22) 
Solid

>  <Similarity score>  (22) 
0.22

$$$$
4-(azepan-1-yl)-N-(2,5-difluorophenyl)[1]benzofuro[3,2-d]pyrimidine-2-carboxamid
     RDKit          2D

 31 35  0  0  0  0  0  0  0  0999 V2000
    0.2041    0.7334    0.0000 C   0  0  0  0  0  0  0  0  0  0  0  0
   -0.6417    0.2416    0.0000 C   0  0  0  0  0  0  0  0  0  0  0  0
    1.0542    0.2416    0.0000 C   0  0  0  0  0  0  0  0  0  0  0  0
   -0.6417   -0.7333    0.0000 N   0  0  0  0  0  0  0  0  0  0  0  0
    1.0542   -0.7333    0.0000 N   0  0  0  0  0  0  0  0  0  0  0  0
    0.2041   -1.2292    0.0000 C   0  0  0  0  0  0  0  0  0  0  0  0
    0.2041    1.7167    0.0000 O   0  0  0  0  0  0  0  0  0  0  0  0
    1.9042    1.7167    0.0000 C   0  0  0  0  0  0  0  0  0  0  0  0
    0.2041   -2.2085    0.0000 C   0  0  0  0  0  0  0  0  0  0  0  0
    1.0542    2.2043    0.0000 C   0  0  0  0  0  0  0  0  0  0  0  0
   -1.4918    0.7334    0.0000 N   0  0  0  0  0  0  0  0  0  0  0  0
    1.0542   -2.6959    0.0000 N   0  0  0  0  0  0  0  0  0  0  0  0
    1.9042   -2.2085    0.0000 C   0  0  0  0  0  0  0  0  0  0  0  0
    1.8960   -1.2292    0.0000 C   0  0  0  0  0  0  0  0  0  0  0  0
    2.7459   -2.6959    0.0000 C   0  0  0  0  0  0  0  0  0  0  0  0
   -0.6417   -2.6959    0.0000 O   0  0  0  0  0  0  0  0  0  0  0  0
    3.5960   -2.2085    0.0000 C   0  0  0  0  0  0  0  0  0  0  0  0
    2.7459   -0.7333    0.0000 C   0  0  0  0  0  0  0  0  0  0  0  0
    2.7459   -3.6710    0.0000 F   0  0  0  0  0  0  0  0  0  0  0  0
    3.5960   -1.2208    0.0000 C   0  0  0  0  0  0  0  0  0  0  0  0
    2.7459    0.2416    0.0000 F   0  0  0  0  0  0  0  0  0  0  0  0
    2.7459    2.2043    0.0000 C   0  0  0  0  0  0  0  0  0  0  0  0
   -1.4168    1.7085    0.0000 C   0  0  0  0  0  0  0  0  0  0  0  0
   -2.3042    0.1792    0.0000 C   0  0  0  0  0  0  0  0  0  0  0  0
    1.0542    3.1835    0.0000 C   0  0  0  0  0  0  0  0  0  0  0  0
    2.7459    3.1835    0.0000 C   0  0  0  0  0  0  0  0  0  0  0  0
   -2.1418    2.3793    0.0000 C   0  0  0  0  0  0  0  0  0  0  0  0
   -3.2418    0.4666    0.0000 C   0  0  0  0  0  0  0  0  0  0  0  0
    1.8960    3.6710    0.0000 C   0  0  0  0  0  0  0  0  0  0  0  0
   -3.1042    2.2292    0.0000 C   0  0  0  0  0  0  0  0  0  0  0  0
   -3.5960    1.3792    0.0000 C   0  0  0  0  0  0  0  0  0  0  0  0
  1  2  1  0
  1  3  2  0
  2  4  2  0
  4  6  1  0
  3  5  1  0
  5  6  2  0
  1  7  1  0
  3  8  1  0
  8 10  1  0
  6  9  1  0
  7 10  1  0
  2 11  1  0
  9 12  1  0
 12 13  1  0
 13 14  1  0
 13 15  2  0
  9 16  2  0
 15 17  1  0
 14 18  2  0
 18 20  1  0
 15 19  1  0
 17 20  2  0
 18 21  1  0
  8 22  2  0
 11 23  1  0
 11 24  1  0
 10 25  2  0
 22 26  1  0
 26 29  2  0
 23 27  1  0
 24 28  1  0
 25 29  1  0
 27 30  1  0
 30 31  1  0
 28 31  1  0
M  END
>  <IDNUMBER>  (23) 
L331-0705

>  <available>  (23) 
1

>  <H_acceptor>  (23) 
5

>  <H_donor>  (23) 
1

>  <B_rotN>  (23) 
4

>  <N_O>  (23) 
6

>  <logP>  (23) 
6.0408

>  <logD>  (23) 
6.0191

>  <logSw>  (23) 
-6.12

>  <PSA>  (23) 
53.824

>  <pKa_ma>  (23) 
9.01

>  <pKa_mb>  (23) 
11.0435

>  <N_Chirals>  (23) 
0

>  <Name>  (23) 
4-(azepan-1-yl)-N-(2,5-difluorophenyl)[1]benzofuro[3,2-d]pyrimidine-2-carboxamide

>  <Smile>  (23) 
O=C(c1nc(N2CCCCCC2)c2oc(cccc3)c3c2n1)Nc(cc(cc1)F)c1F

>  <Color>  (23) 
NOT COLORED

>  <Collection>  (23) 
NC

>  <InChI>  (23) 
InChI=1S/C23H20F2N4O2/c24-14-9-10-16(25)17(13-14)26-23(30)21-27-19-15-7-3-4-8-18(15)31-20(19)22(28-21)29-11-5-1-2-6-12-29/h3-4,7-10,13H,1-2,5-6,11-12H2,(H,26,30)

>  <InChI Key>  (23) 
GQNGLRAKYKJRRY-UHFFFAOYSA-N

>  <PERCENTSP3>  (23) 
26.09

>  <Link>  (23) 
https://www.chemdiv.com/catalog/screening-compounds/compound-L331-0705/

>  <MFCDNUMBER>  (23) 
MFCD27247023

>  <CLNUMBER>  (23) 
CL7949

>  <STEREO>  (23) 
ACHIRAL

>  <State>  (23) 
Solid

>  <Similarity score>  (23) 
0.22

$$$$
N-(2,5-difluorophenyl)-4-(piperidin-1-yl)[1]benzofuro[3,2-d]pyrimidine-2-carboxa
     RDKit          2D

 30 34  0  0  0  0  0  0  0  0999 V2000
   -0.0041    0.7332    0.0000 C   0  0  0  0  0  0  0  0  0  0  0  0
   -0.8456    0.2416    0.0000 C   0  0  0  0  0  0  0  0  0  0  0  0
    0.8456    0.2416    0.0000 C   0  0  0  0  0  0  0  0  0  0  0  0
   -0.8456   -0.7331    0.0000 N   0  0  0  0  0  0  0  0  0  0  0  0
    0.8456   -0.7331    0.0000 N   0  0  0  0  0  0  0  0  0  0  0  0
    0.0041   -1.2205    0.0000 C   0  0  0  0  0  0  0  0  0  0  0  0
    0.0041    1.7163    0.0000 O   0  0  0  0  0  0  0  0  0  0  0  0
    1.6953    1.7163    0.0000 C   0  0  0  0  0  0  0  0  0  0  0  0
    0.0041   -2.2035    0.0000 C   0  0  0  0  0  0  0  0  0  0  0  0
    0.8456    2.2035    0.0000 C   0  0  0  0  0  0  0  0  0  0  0  0
   -1.6913    0.7332    0.0000 N   0  0  0  0  0  0  0  0  0  0  0  0
    0.8456   -2.6951    0.0000 N   0  0  0  0  0  0  0  0  0  0  0  0
    1.6953   -2.2035    0.0000 C   0  0  0  0  0  0  0  0  0  0  0  0
    1.6953   -1.2205    0.0000 C   0  0  0  0  0  0  0  0  0  0  0  0
    2.5452   -2.6951    0.0000 C   0  0  0  0  0  0  0  0  0  0  0  0
   -0.8456   -2.6951    0.0000 O   0  0  0  0  0  0  0  0  0  0  0  0
    3.3908   -2.2035    0.0000 C   0  0  0  0  0  0  0  0  0  0  0  0
    2.5452   -0.7331    0.0000 C   0  0  0  0  0  0  0  0  0  0  0  0
    2.5452   -3.6699    0.0000 F   0  0  0  0  0  0  0  0  0  0  0  0
    3.3908   -1.2205    0.0000 C   0  0  0  0  0  0  0  0  0  0  0  0
    2.5452    0.2416    0.0000 F   0  0  0  0  0  0  0  0  0  0  0  0
    2.5452    2.2035    0.0000 C   0  0  0  0  0  0  0  0  0  0  0  0
   -2.5410    0.2416    0.0000 C   0  0  0  0  0  0  0  0  0  0  0  0
   -1.6913    1.7080    0.0000 C   0  0  0  0  0  0  0  0  0  0  0  0
    0.8456    3.1784    0.0000 C   0  0  0  0  0  0  0  0  0  0  0  0
    2.5452    3.1784    0.0000 C   0  0  0  0  0  0  0  0  0  0  0  0
   -2.5410    2.2035    0.0000 C   0  0  0  0  0  0  0  0  0  0  0  0
   -3.3908    0.7289    0.0000 C   0  0  0  0  0  0  0  0  0  0  0  0
    1.6953    3.6699    0.0000 C   0  0  0  0  0  0  0  0  0  0  0  0
   -3.3908    1.7080    0.0000 C   0  0  0  0  0  0  0  0  0  0  0  0
  1  2  1  0
  1  3  2  0
  2  4  2  0
  4  6  1  0
  3  5  1  0
  5  6  2  0
  1  7  1  0
  3  8  1  0
  8 10  1  0
  6  9  1  0
  7 10  1  0
  2 11  1  0
  9 12  1  0
 12 13  1  0
 13 14  1  0
 13 15  2  0
  9 16  2  0
 15 17  1  0
 14 18  2  0
 18 20  1  0
 15 19  1  0
 17 20  2  0
 18 21  1  0
  8 22  2  0
 11 23  1  0
 11 24  1  0
 10 25  2  0
 22 26  1  0
 26 29  2  0
 24 27  1  0
 23 28  1  0
 28 30  1  0
 25 29  1  0
 27 30  1  0
M  END
>  <IDNUMBER>  (24) 
L331-0396

>  <available>  (24) 
33

>  <H_acceptor>  (24) 
5

>  <H_donor>  (24) 
1

>  <B_rotN>  (24) 
4

>  <N_O>  (24) 
6

>  <logP>  (24) 
5.5449

>  <logD>  (24) 
5.5332

>  <logSw>  (24) 
-6.0131

>  <PSA>  (24) 
53.493

>  <pKa_ma>  (24) 
9.01

>  <pKa_mb>  (24) 
4.8079

>  <N_Chirals>  (24) 
0

>  <Name>  (24) 
N-(2,5-difluorophenyl)-4-(piperidin-1-yl)[1]benzofuro[3,2-d]pyrimidine-2-carboxamide

>  <Smile>  (24) 
O=C(c1nc(N2CCCCC2)c2oc(cccc3)c3c2n1)Nc(cc(cc1)F)c1F

>  <Color>  (24) 
NOT COLORED

>  <Collection>  (24) 
NC

>  <InChI>  (24) 
InChI=1S/C22H18F2N4O2/c23-13-8-9-15(24)16(12-13)25-22(29)20-26-18-14-6-2-3-7-17(14)30-19(18)21(27-20)28-10-4-1-5-11-28/h2-3,6-9,12H,1,4-5,10-11H2,(H,25,29)

>  <InChI Key>  (24) 
UIYAMOFSCWACKH-UHFFFAOYSA-N

>  <PERCENTSP3>  (24) 
22.7

>  <Link>  (24) 
https://www.chemdiv.com/catalog/screening-compounds/compound-L331-0396/

>  <MFCDNUMBER>  (24) 
MFCD27246966

>  <CLNUMBER>  (24) 
CL7949

>  <STEREO>  (24) 
ACHIRAL

>  <State>  (24) 
Solid

>  <Similarity score>  (24) 
0.22

$$$$
1-(3,4-dimethylphenyl)-3-(4-ethoxyphenyl)-6,8-difluoro-1H-pyrazolo[4,3-c]quinoli
     RDKit          2D

 32 36  0  0  0  0  0  0  0  0999 V2000
   -1.1679    0.4407    0.0000 N   0  0  0  0  0  0  0  0  0  0  0  0
   -0.5036   -1.0292    0.0000 C   0  0  0  0  0  0  0  0  0  0  0  0
   -1.3792   -0.5305    0.0000 C   0  0  0  0  0  0  0  0  0  0  0  0
   -0.1665    0.5406    0.0000 N   0  0  0  0  0  0  0  0  0  0  0  0
    0.2561   -0.3491    0.0000 C   0  0  0  0  0  0  0  0  0  0  0  0
   -2.2648   -1.0292    0.0000 C   0  0  0  0  0  0  0  0  0  0  0  0
   -2.2648   -2.0244    0.0000 C   0  0  0  0  0  0  0  0  0  0  0  0
   -1.3792   -2.5189    0.0000 N   0  0  0  0  0  0  0  0  0  0  0  0
   -1.7962    1.2107    0.0000 C   0  0  0  0  0  0  0  0  0  0  0  0
   -0.5036   -2.0244    0.0000 C   0  0  0  0  0  0  0  0  0  0  0  0
   -3.1245   -2.5189    0.0000 C   0  0  0  0  0  0  0  0  0  0  0  0
   -2.7634    1.0551    0.0000 C   0  0  0  0  0  0  0  0  0  0  0  0
   -4.0001   -2.0244    0.0000 C   0  0  0  0  0  0  0  0  0  0  0  0
    1.2636   -0.4546    0.0000 C   0  0  0  0  0  0  0  0  0  0  0  0
   -3.1245   -0.5305    0.0000 C   0  0  0  0  0  0  0  0  0  0  0  0
   -3.3878    1.8151    0.0000 C   0  0  0  0  0  0  0  0  0  0  0  0
   -4.0001   -1.0292    0.0000 C   0  0  0  0  0  0  0  0  0  0  0  0
   -1.4349    2.1321    0.0000 C   0  0  0  0  0  0  0  0  0  0  0  0
   -3.0347    2.7426    0.0000 C   0  0  0  0  0  0  0  0  0  0  0  0
   -2.0692    2.9000    0.0000 C   0  0  0  0  0  0  0  0  0  0  0  0
    1.8418    0.3611    0.0000 C   0  0  0  0  0  0  0  0  0  0  0  0
    1.6744   -1.3563    0.0000 C   0  0  0  0  0  0  0  0  0  0  0  0
   -3.1245   -3.5145    0.0000 F   0  0  0  0  0  0  0  0  0  0  0  0
   -4.8617   -0.5305    0.0000 F   0  0  0  0  0  0  0  0  0  0  0  0
    3.2860   -0.6363    0.0000 C   0  0  0  0  0  0  0  0  0  0  0  0
    2.6818   -1.4520    0.0000 C   0  0  0  0  0  0  0  0  0  0  0  0
    2.8530    0.2754    0.0000 C   0  0  0  0  0  0  0  0  0  0  0  0
    4.2872   -0.7359    0.0000 O   0  0  0  0  0  0  0  0  0  0  0  0
   -4.3790    1.6595    0.0000 C   0  0  0  0  0  0  0  0  0  0  0  0
   -3.6690    3.5145    0.0000 C   0  0  0  0  0  0  0  0  0  0  0  0
    4.8617    0.0779    0.0000 C   0  0  0  0  0  0  0  0  0  0  0  0
    4.4528    0.9934    0.0000 C   0  0  0  0  0  0  0  0  0  0  0  0
  2  3  2  0
  2  5  1  0
  1  3  1  0
  1  4  1  0
  4  5  2  0
  3  6  1  0
  6  7  1  0
  7  8  1  0
  8 10  2  0
  1  9  1  0
  2 10  1  0
  7 11  2  0
  9 12  1  0
 13 17  2  0
 11 13  1  0
  5 14  1  0
  6 15  2  0
 12 16  2  0
 16 19  1  0
 15 17  1  0
  9 18  2  0
 19 20  2  0
 18 20  1  0
 14 21  1  0
 14 22  2  0
 11 23  1  0
 17 24  1  0
 25 26  2  0
 25 27  1  0
 22 26  1  0
 21 27  2  0
 25 28  1  0
 16 29  1  0
 19 30  1  0
 28 31  1  0
 31 32  1  0
M  END
>  <IDNUMBER>  (25) 
C350-0810

>  <available>  (25) 
112

>  <H_acceptor>  (25) 
3

>  <H_donor>  (25) 
0

>  <B_rotN>  (25) 
4

>  <N_O>  (25) 
4

>  <logP>  (25) 
6.9232

>  <logD>  (25) 
6.9231

>  <logSw>  (25) 
-5.7701

>  <PSA>  (25) 
30.6039

>  <pKa_ma>  (25) 
28.0078

>  <pKa_mb>  (25) 
2.6884

>  <N_Chirals>  (25) 
0

>  <Name>  (25) 
1-(3,4-dimethylphenyl)-3-(4-ethoxyphenyl)-6,8-difluoro-1H-pyrazolo[4,3-c]quinoline

>  <Smile>  (25) 
CCOc(cc1)ccc1-c(c1cnc2c(F)cc(F)cc2c11)nn1-c1cc(C)c(C)cc1

>  <Color>  (25) 
NOT COLORED

>  <Collection>  (25) 
DC

>  <InChI>  (25) 
InChI=1S/C26H21F2N3O/c1-4-32-20-9-6-17(7-10-20)24-22-14-29-25-21(12-18(27)13-23(25)28)26(22)31(30-24)19-8-5-15(2)16(3)11-19/h5-14H,4H2,1-3H3

>  <InChI Key>  (25) 
HEAGGNOYTKHCIP-UHFFFAOYSA-N

>  <PERCENTSP3>  (25) 
15.4

>  <Link>  (25) 
https://www.chemdiv.com/catalog/screening-compounds/compound-C350-0810/

>  <MFCDNUMBER>  (25) 
MFCD14750683

>  <CLNUMBER>  (25) 
CL4130

>  <STEREO>  (25) 
ACHIRAL

>  <State>  (25) 
Solid

>  <Similarity score>  (25) 
0.22

$$$$
4-[4-(2-fluorophenyl)piperazin-1-yl]-2-(3-methylphenyl)quinazoline
     RDKit          2D

 30 34  0  0  0  0  0  0  0  0999 V2000
    0.0065   -1.7549    0.0000 N   0  0  0  0  0  0  0  0  0  0  0  0
   -0.8691   -1.2335    0.0000 C   0  0  0  0  0  0  0  0  0  0  0  0
    0.0065   -2.7510    0.0000 C   0  0  0  0  0  0  0  0  0  0  0  0
   -1.7315   -1.7549    0.0000 C   0  0  0  0  0  0  0  0  0  0  0  0
   -0.8691   -3.2590    0.0000 N   0  0  0  0  0  0  0  0  0  0  0  0
   -0.8691   -0.2108    0.0000 N   0  0  0  0  0  0  0  0  0  0  0  0
   -0.8691    1.7750    0.0000 N   0  0  0  0  0  0  0  0  0  0  0  0
   -1.7315   -2.7510    0.0000 C   0  0  0  0  0  0  0  0  0  0  0  0
   -0.8691    2.7776    0.0000 C   0  0  0  0  0  0  0  0  0  0  0  0
    0.8690   -3.2590    0.0000 C   0  0  0  0  0  0  0  0  0  0  0  0
    0.0065    0.2706    0.0000 C   0  0  0  0  0  0  0  0  0  0  0  0
   -1.7315    0.2706    0.0000 C   0  0  0  0  0  0  0  0  0  0  0  0
    0.0065    1.2936    0.0000 C   0  0  0  0  0  0  0  0  0  0  0  0
   -1.7315    1.2936    0.0000 C   0  0  0  0  0  0  0  0  0  0  0  0
   -0.0135    3.2657    0.0000 C   0  0  0  0  0  0  0  0  0  0  0  0
    1.7381   -2.7510    0.0000 C   0  0  0  0  0  0  0  0  0  0  0  0
    0.8358    2.7776    0.0000 F   0  0  0  0  0  0  0  0  0  0  0  0
    2.6005   -3.2590    0.0000 C   0  0  0  0  0  0  0  0  0  0  0  0
   -2.5938   -1.2335    0.0000 C   0  0  0  0  0  0  0  0  0  0  0  0
    0.8690   -4.2551    0.0000 C   0  0  0  0  0  0  0  0  0  0  0  0
   -2.5938   -3.2590    0.0000 C   0  0  0  0  0  0  0  0  0  0  0  0
   -1.7114    3.2657    0.0000 C   0  0  0  0  0  0  0  0  0  0  0  0
    1.7381   -4.7631    0.0000 C   0  0  0  0  0  0  0  0  0  0  0  0
   -0.0135    4.2616    0.0000 C   0  0  0  0  0  0  0  0  0  0  0  0
    2.6005   -4.2551    0.0000 C   0  0  0  0  0  0  0  0  0  0  0  0
    3.4629   -2.7778    0.0000 C   0  0  0  0  0  0  0  0  0  0  0  0
   -3.4629   -1.7549    0.0000 C   0  0  0  0  0  0  0  0  0  0  0  0
   -1.7114    4.2616    0.0000 C   0  0  0  0  0  0  0  0  0  0  0  0
   -3.4629   -2.7510    0.0000 C   0  0  0  0  0  0  0  0  0  0  0  0
   -0.8691    4.7631    0.0000 C   0  0  0  0  0  0  0  0  0  0  0  0
  1  2  1  0
  1  3  2  0
  2  4  2  0
  4  8  1  0
  3  5  1  0
  2  6  1  0
  7 14  1  0
  7 13  1  0
  5  8  2  0
  7  9  1  0
  3 10  1  0
  6 11  1  0
  6 12  1  0
 11 13  1  0
 12 14  1  0
  9 15  2  0
 10 16  1  0
 15 17  1  0
 16 18  2  0
 18 25  1  0
  4 19  1  0
 10 20  2  0
  8 21  1  0
  9 22  1  0
 20 23  1  0
 15 24  1  0
 24 30  2  0
 23 25  2  0
 18 26  1  0
 19 27  2  0
 27 29  1  0
 22 28  2  0
 21 29  2  0
 28 30  1  0
M  END
>  <IDNUMBER>  (26) 
3909-7903

>  <available>  (26) 
5

>  <H_acceptor>  (26) 
2

>  <H_donor>  (26) 
0

>  <B_rotN>  (26) 
3

>  <N_O>  (26) 
4

>  <logP>  (26) 
6.8152

>  <logD>  (26) 
5.917

>  <logSw>  (26) 
-6.2319

>  <PSA>  (26) 
24.5979

>  <pKa_ma>  (26) 
22.2134

>  <pKa_mb>  (26) 
8.2395

>  <N_Chirals>  (26) 
0

>  <Name>  (26) 
4-[4-(2-fluorophenyl)piperazin-1-yl]-2-(3-methylphenyl)quinazoline

>  <Smile>  (26) 
Cc1cccc(-c2nc3ccccc3c(N(CC3)CCN3c(cccc3)c3F)n2)c1

>  <Color>  (26) 
YELLOW

>  <Collection>  (26) 
NC

>  <InChI>  (26) 
InChI=1S/C25H23FN4/c1-18-7-6-8-19(17-18)24-27-22-11-4-2-9-20(22)25(28-24)30-15-13-29(14-16-30)23-12-5-3-10-21(23)26/h2-12,17H,13-16H2,1H3

>  <InChI Key>  (26) 
QOKLMVDOLHYZKV-UHFFFAOYSA-N

>  <PERCENTSP3>  (26) 
20

>  <Link>  (26) 
https://www.chemdiv.com/catalog/screening-compounds/compound-3909-7903/

>  <MFCDNUMBER>  (26) 
MFCD14708909

>  <CLNUMBER>  (26) 
CL2243

>  <STEREO>  (26) 
ACHIRAL

>  <State>  (26) 
Solid

>  <Similarity score>  (26) 
0.22

$$$$
6-ethoxy-4-(morpholin-4-yl)quinoline-3-carbonitrile
     RDKit          2D

 21 23  0  0  0  0  0  0  0  0999 V2000
    0.0278   -0.9928    0.0000 C   0  0  0  0  0  0  0  0  0  0  0  0
   -0.8361   -0.5077    0.0000 C   0  0  0  0  0  0  0  0  0  0  0  0
   -1.7050   -1.0079    0.0000 C   0  0  0  0  0  0  0  0  0  0  0  0
   -0.8411    0.5077    0.0000 N   0  0  0  0  0  0  0  0  0  0  0  0
   -0.8259   -2.5084    0.0000 N   0  0  0  0  0  0  0  0  0  0  0  0
   -2.5688   -0.5077    0.0000 C   0  0  0  0  0  0  0  0  0  0  0  0
   -3.4480   -0.0228    0.0000 N   0  0  0  0  0  0  0  0  0  0  0  0
    0.0278   -1.9929    0.0000 C   0  0  0  0  0  0  0  0  0  0  0  0
    0.8867   -0.4925    0.0000 C   0  0  0  0  0  0  0  0  0  0  0  0
   -1.7000   -2.0081    0.0000 C   0  0  0  0  0  0  0  0  0  0  0  0
   -0.8563    2.5084    0.0000 O   0  0  0  0  0  0  0  0  0  0  0  0
    0.9019   -2.4780    0.0000 C   0  0  0  0  0  0  0  0  0  0  0  0
    1.7506   -0.9776    0.0000 C   0  0  0  0  0  0  0  0  0  0  0  0
    1.7658   -1.9778    0.0000 C   0  0  0  0  0  0  0  0  0  0  0  0
    0.0228    1.0079    0.0000 C   0  0  0  0  0  0  0  0  0  0  0  0
   -1.7202    0.9928    0.0000 C   0  0  0  0  0  0  0  0  0  0  0  0
    2.6044   -0.4622    0.0000 O   0  0  0  0  0  0  0  0  0  0  0  0
    0.0077    2.0081    0.0000 C   0  0  0  0  0  0  0  0  0  0  0  0
   -1.7202    1.9929    0.0000 C   0  0  0  0  0  0  0  0  0  0  0  0
    2.5892    0.5380    0.0000 C   0  0  0  0  0  0  0  0  0  0  0  0
    3.4480    1.0434    0.0000 C   0  0  0  0  0  0  0  0  0  0  0  0
  1  2  1  0
  2  3  2  0
  3 10  1  0
  2  4  1  0
  5  8  1  0
  3  6  1  0
  6  7  3  0
  1  8  1  0
  1  9  2  0
  5 10  2  0
 11 19  1  0
  8 12  2  0
 12 14  1  0
  9 13  1  0
 13 14  2  0
  4 15  1  0
  4 16  1  0
 13 17  1  0
 15 18  1  0
 11 18  1  0
 16 19  1  0
 17 20  1  0
 20 21  1  0
M  END
>  <IDNUMBER>  (27) 
F360-0967

>  <available>  (27) 
1

>  <H_acceptor>  (27) 
4

>  <H_donor>  (27) 
0

>  <B_rotN>  (27) 
4

>  <N_O>  (27) 
5

>  <logP>  (27) 
2.424

>  <logD>  (27) 
2.3953

>  <logSw>  (27) 
-2.7056

>  <PSA>  (27) 
44.03

>  <pKa_ma>  (27) 
26.094

>  <pKa_mb>  (27) 
6.2336

>  <N_Chirals>  (27) 
0

>  <Name>  (27) 
6-ethoxy-4-(morpholin-4-yl)quinoline-3-carbonitrile

>  <Smile>  (27) 
CCOc(cc12)ccc2ncc(C#N)c1N1CCOCC1

>  <Color>  (27) 
NOT COLORED

>  <Collection>  (27) 
DC

>  <InChI>  (27) 
InChI=1S/C16H17N3O2/c1-2-21-13-3-4-15-14(9-13)16(12(10-17)11-18-15)19-5-7-20-8-6-19/h3-4,9,11H,2,5-8H2,1H3

>  <InChI Key>  (27) 
NGTOEXSJCMXQOD-UHFFFAOYSA-N

>  <PERCENTSP3>  (27) 
37.5

>  <Link>  (27) 
https://www.chemdiv.com/catalog/screening-compounds/compound-F360-0967/

>  <MFCDNUMBER>  (27) 
MFCD27119035

>  <CLNUMBER>  (27) 
CL6761

>  <STEREO>  (27) 
ACHIRAL

>  <State>  (27) 
Solid

>  <Similarity score>  (27) 
0.21

$$$$
6,8-difluoro-1,3-bis(4-fluorophenyl)-1H-pyrazolo[4,3-c]quinoline
     RDKit          2D

 29 33  0  0  0  0  0  0  0  0999 V2000
   -0.8194    0.5199    0.0000 N   0  0  0  0  0  0  0  0  0  0  0  0
   -0.1635   -0.9575    0.0000 C   0  0  0  0  0  0  0  0  0  0  0  0
   -1.0314   -0.4582    0.0000 C   0  0  0  0  0  0  0  0  0  0  0  0
    0.1701    0.6259    0.0000 N   0  0  0  0  0  0  0  0  0  0  0  0
    0.5785   -0.2817    0.0000 C   0  0  0  0  0  0  0  0  0  0  0  0
   -1.8883   -0.9617    0.0000 C   0  0  0  0  0  0  0  0  0  0  0  0
   -1.8883   -1.9711    0.0000 C   0  0  0  0  0  0  0  0  0  0  0  0
   -1.0269   -2.4701    0.0000 N   0  0  0  0  0  0  0  0  0  0  0  0
   -0.1545   -1.9621    0.0000 C   0  0  0  0  0  0  0  0  0  0  0  0
   -2.7672   -2.4769    0.0000 C   0  0  0  0  0  0  0  0  0  0  0  0
   -1.4862    1.2620    0.0000 C   0  0  0  0  0  0  0  0  0  0  0  0
   -3.6351   -1.9711    0.0000 C   0  0  0  0  0  0  0  0  0  0  0  0
    1.5614   -0.4892    0.0000 C   0  0  0  0  0  0  0  0  0  0  0  0
   -2.7672   -0.4627    0.0000 C   0  0  0  0  0  0  0  0  0  0  0  0
   -3.6306   -0.9617    0.0000 C   0  0  0  0  0  0  0  0  0  0  0  0
   -1.1772    2.2006    0.0000 C   0  0  0  0  0  0  0  0  0  0  0  0
   -2.4492    1.0500    0.0000 C   0  0  0  0  0  0  0  0  0  0  0  0
    2.2216    0.2639    0.0000 C   0  0  0  0  0  0  0  0  0  0  0  0
    1.8749   -1.4411    0.0000 C   0  0  0  0  0  0  0  0  0  0  0  0
   -2.7672   -3.4705    0.0000 F   0  0  0  0  0  0  0  0  0  0  0  0
    3.5246   -0.8868    0.0000 C   0  0  0  0  0  0  0  0  0  0  0  0
   -2.8112    2.7306    0.0000 C   0  0  0  0  0  0  0  0  0  0  0  0
   -4.4986   -0.4627    0.0000 F   0  0  0  0  0  0  0  0  0  0  0  0
    3.1955    0.0673    0.0000 C   0  0  0  0  0  0  0  0  0  0  0  0
   -3.1161    1.7812    0.0000 C   0  0  0  0  0  0  0  0  0  0  0  0
    2.8576   -1.6441    0.0000 C   0  0  0  0  0  0  0  0  0  0  0  0
   -1.8440    2.9405    0.0000 C   0  0  0  0  0  0  0  0  0  0  0  0
    4.4986   -1.0943    0.0000 F   0  0  0  0  0  0  0  0  0  0  0  0
   -3.4782    3.4705    0.0000 F   0  0  0  0  0  0  0  0  0  0  0  0
  2  3  2  0
  2  5  1  0
  1  3  1  0
  1  4  1  0
  4  5  2  0
  3  6  1  0
  6  7  1  0
  7  8  1  0
  2  9  1  0
  8  9  2  0
  7 10  2  0
  1 11  1  0
 12 15  2  0
 10 12  1  0
  5 13  1  0
  6 14  2  0
 14 15  1  0
 11 16  2  0
 11 17  1  0
 13 18  1  0
 13 19  2  0
 10 20  1  0
 21 26  2  0
 22 25  1  0
 15 23  1  0
 18 24  2  0
 21 24  1  0
 17 25  2  0
 19 26  1  0
 16 27  1  0
 22 27  2  0
 21 28  1  0
 22 29  1  0
M  END
>  <IDNUMBER>  (28) 
C350-0427

>  <available>  (28) 
59

>  <H_acceptor>  (28) 
2

>  <H_donor>  (28) 
0

>  <B_rotN>  (28) 
2

>  <N_O>  (28) 
3

>  <logP>  (28) 
5.4848

>  <logD>  (28) 
5.4848

>  <logSw>  (28) 
-6.1966

>  <PSA>  (28) 
23.4803

>  <pKa_ma>  (28) 
14

>  <pKa_mb>  (28) 
2.2647

>  <N_Chirals>  (28) 
0

>  <Name>  (28) 
6,8-difluoro-1,3-bis(4-fluorophenyl)-1H-pyrazolo[4,3-c]quinoline

>  <Smile>  (28) 
Fc(cc1)ccc1-c(c1cnc2c(F)cc(F)cc2c11)nn1-c(cc1)ccc1F

>  <Color>  (28) 
NOT COLORED

>  <Collection>  (28) 
DC

>  <InChI>  (28) 
InChI=1S/C22H11F4N3/c23-13-3-1-12(2-4-13)20-18-11-27-21-17(9-15(25)10-19(21)26)22(18)29(28-20)16-7-5-14(24)6-8-16/h1-11H

>  <InChI Key>  (28) 
AUWBFDGEWRUDBH-UHFFFAOYSA-N

>  <PERCENTSP3>  (28) 
0

>  <Link>  (28) 
https://www.chemdiv.com/catalog/screening-compounds/compound-C350-0427/

>  <MFCDNUMBER>  (28) 
MFCD14750399

>  <CLNUMBER>  (28) 
CL4130

>  <STEREO>  (28) 
ACHIRAL

>  <State>  (28) 
Solid

>  <Similarity score>  (28) 
0.21

$$$$
2-[4-(4-fluorophenyl)piperazin-1-yl]-8-methyl-3-(5-methyl-1,2,4-oxadiazol-3-yl)q
     RDKit          2D

 30 34  0  0  0  0  0  0  0  0999 V2000
   -0.0040    2.1136    0.0000 C   0  0  0  0  0  0  0  0  0  0  0  0
    0.8089    1.5341    0.0000 C   0  0  0  0  0  0  0  0  0  0  0  0
   -0.9171    1.7091    0.0000 C   0  0  0  0  0  0  0  0  0  0  0  0
    1.7594    1.8384    0.0000 N   0  0  0  0  0  0  0  0  0  0  0  0
   -1.7216    2.2970    0.0000 N   0  0  0  0  0  0  0  0  0  0  0  0
    0.8089    0.5335    0.0000 N   0  0  0  0  0  0  0  0  0  0  0  0
   -1.0172    0.7129    0.0000 N   0  0  0  0  0  0  0  0  0  0  0  0
    0.1042    3.1100    0.0000 C   0  0  0  0  0  0  0  0  0  0  0  0
   -1.6176    3.2934    0.0000 C   0  0  0  0  0  0  0  0  0  0  0  0
   -1.2298   -1.2798    0.0000 N   0  0  0  0  0  0  0  0  0  0  0  0
    2.3472    1.0338    0.0000 C   0  0  0  0  0  0  0  0  0  0  0  0
    1.7594    0.2210    0.0000 O   0  0  0  0  0  0  0  0  0  0  0  0
   -0.7045    3.6977    0.0000 C   0  0  0  0  0  0  0  0  0  0  0  0
   -1.3297   -2.2804    0.0000 C   0  0  0  0  0  0  0  0  0  0  0  0
   -0.2085    0.1250    0.0000 C   0  0  0  0  0  0  0  0  0  0  0  0
   -1.9342    0.3084    0.0000 C   0  0  0  0  0  0  0  0  0  0  0  0
   -0.3167   -0.8754    0.0000 C   0  0  0  0  0  0  0  0  0  0  0  0
   -2.0428   -0.6921    0.0000 C   0  0  0  0  0  0  0  0  0  0  0  0
   -2.4306    3.8770    0.0000 C   0  0  0  0  0  0  0  0  0  0  0  0
   -2.2428   -2.6889    0.0000 C   0  0  0  0  0  0  0  0  0  0  0  0
   -0.5167   -2.8683    0.0000 C   0  0  0  0  0  0  0  0  0  0  0  0
   -1.5343   -4.2690    0.0000 C   0  0  0  0  0  0  0  0  0  0  0  0
   -0.6211   -3.8645    0.0000 C   0  0  0  0  0  0  0  0  0  0  0  0
   -2.3471   -3.6811    0.0000 C   0  0  0  0  0  0  0  0  0  0  0  0
   -1.6424   -5.2695    0.0000 F   0  0  0  0  0  0  0  0  0  0  0  0
   -0.6043    4.6816    0.0000 C   0  0  0  0  0  0  0  0  0  0  0  0
    3.3433    1.0338    0.0000 C   0  0  0  0  0  0  0  0  0  0  0  0
   -1.4089    5.2695    0.0000 C   0  0  0  0  0  0  0  0  0  0  0  0
   -2.3220    4.8610    0.0000 C   0  0  0  0  0  0  0  0  0  0  0  0
   -3.3433    3.4726    0.0000 C   0  0  0  0  0  0  0  0  0  0  0  0
  1  2  1  0
  1  3  1  0
  2  4  1  0
  3  5  2  0
  5  9  1  0
  2  6  2  0
  3  7  1  0
  1  8  2  0
  9 13  1  0
 10 18  1  0
 10 17  1  0
  4 11  2  0
 11 12  1  0
  6 12  1  0
  8 13  1  0
 10 14  1  0
  7 15  1  0
  7 16  1  0
 15 17  1  0
 16 18  1  0
  9 19  2  0
 19 29  1  0
 14 20  2  0
 14 21  1  0
 22 23  1  0
 21 23  2  0
 20 24  1  0
 22 24  2  0
 22 25  1  0
 13 26  2  0
 11 27  1  0
 26 28  1  0
 28 29  2  0
 19 30  1  0
M  END
>  <IDNUMBER>  (29) 
D420-1332

>  <available>  (29) 
223

>  <H_acceptor>  (29) 
4

>  <H_donor>  (29) 
0

>  <B_rotN>  (29) 
3

>  <N_O>  (29) 
6

>  <logP>  (29) 
5.5652

>  <logD>  (29) 
4.9974

>  <logSw>  (29) 
-6.4469

>  <PSA>  (29) 
46.891

>  <pKa_ma>  (29) 
23.536

>  <pKa_mb>  (29) 
7.8308

>  <N_Chirals>  (29) 
0

>  <Name>  (29) 
2-[4-(4-fluorophenyl)piperazin-1-yl]-8-methyl-3-(5-methyl-1,2,4-oxadiazol-3-yl)quinoline

>  <Smile>  (29) 
Cc1nc(-c2cc3cccc(C)c3nc2N(CC2)CCN2c(cc2)ccc2F)no1

>  <Color>  (29) 
NOT COLORED

>  <Collection>  (29) 
NC

>  <InChI>  (29) 
InChI=1S/C23H22FN5O/c1-15-4-3-5-17-14-20(22-25-16(2)30-27-22)23(26-21(15)17)29-12-10-28(11-13-29)19-8-6-18(24)7-9-19/h3-9,14H,10-13H2,1-2H3

>  <InChI Key>  (29) 
VWFALCUOBIPXLE-UHFFFAOYSA-N

>  <PERCENTSP3>  (29) 
26.1

>  <Link>  (29) 
https://www.chemdiv.com/catalog/screening-compounds/compound-D420-1332/

>  <MFCDNUMBER>  (29) 
MFCD27584904

>  <CLNUMBER>  (29) 
CL7646

>  <STEREO>  (29) 
ACHIRAL

>  <State>  (29) 
Solid

>  <Similarity score>  (29) 
0.21

$$$$
6,8-difluoro-1-(4-fluorophenyl)-3-phenyl-1H-pyrazolo[4,3-c]quinoline
     RDKit          2D

 28 32  0  0  0  0  0  0  0  0999 V2000
   -0.3338    0.5198    0.0000 N   0  0  0  0  0  0  0  0  0  0  0  0
    0.3174   -0.9568    0.0000 C   0  0  0  0  0  0  0  0  0  0  0  0
   -0.5462   -0.4591    0.0000 C   0  0  0  0  0  0  0  0  0  0  0  0
    0.6504    0.6256    0.0000 N   0  0  0  0  0  0  0  0  0  0  0  0
    1.0584   -0.2817    0.0000 C   0  0  0  0  0  0  0  0  0  0  0  0
   -1.4079   -0.9623    0.0000 C   0  0  0  0  0  0  0  0  0  0  0  0
   -1.4079   -1.9723    0.0000 C   0  0  0  0  0  0  0  0  0  0  0  0
   -0.5352   -2.4718    0.0000 N   0  0  0  0  0  0  0  0  0  0  0  0
    0.3321   -1.9612    0.0000 C   0  0  0  0  0  0  0  0  0  0  0  0
   -2.2752   -2.4755    0.0000 C   0  0  0  0  0  0  0  0  0  0  0  0
   -1.0000    1.2607    0.0000 C   0  0  0  0  0  0  0  0  0  0  0  0
   -3.1478   -1.9760    0.0000 C   0  0  0  0  0  0  0  0  0  0  0  0
   -2.2752   -0.4627    0.0000 C   0  0  0  0  0  0  0  0  0  0  0  0
   -3.1478   -0.9623    0.0000 C   0  0  0  0  0  0  0  0  0  0  0  0
    2.0409   -0.4886    0.0000 C   0  0  0  0  0  0  0  0  0  0  0  0
   -0.6961    2.1993    0.0000 C   0  0  0  0  0  0  0  0  0  0  0  0
   -1.9677    1.0504    0.0000 C   0  0  0  0  0  0  0  0  0  0  0  0
   -2.2861   -3.4690    0.0000 F   0  0  0  0  0  0  0  0  0  0  0  0
   -2.3318    2.7280    0.0000 C   0  0  0  0  0  0  0  0  0  0  0  0
   -4.0097   -0.4627    0.0000 F   0  0  0  0  0  0  0  0  0  0  0  0
   -2.6337    1.7804    0.0000 C   0  0  0  0  0  0  0  0  0  0  0  0
   -1.3530    2.9386    0.0000 C   0  0  0  0  0  0  0  0  0  0  0  0
   -2.9960    3.4690    0.0000 F   0  0  0  0  0  0  0  0  0  0  0  0
    2.7070    0.2635    0.0000 C   0  0  0  0  0  0  0  0  0  0  0  0
    2.3593   -1.4416    0.0000 C   0  0  0  0  0  0  0  0  0  0  0  0
    3.3438   -1.6430    0.0000 C   0  0  0  0  0  0  0  0  0  0  0  0
    3.6858    0.0659    0.0000 C   0  0  0  0  0  0  0  0  0  0  0  0
    4.0097   -0.8871    0.0000 C   0  0  0  0  0  0  0  0  0  0  0  0
  2  3  2  0
  2  5  1  0
  1  3  1  0
  1  4  1  0
  4  5  2  0
  3  6  1  0
  6  7  1  0
  7  8  1  0
  2  9  1  0
  8  9  2  0
  7 10  2  0
  1 11  1  0
 12 14  2  0
 10 12  1  0
  6 13  2  0
 13 14  1  0
  5 15  1  0
 11 16  2  0
 11 17  1  0
 10 18  1  0
 19 21  1  0
 14 20  1  0
 17 21  2  0
 16 22  1  0
 19 22  2  0
 19 23  1  0
 15 24  1  0
 15 25  2  0
 25 26  1  0
 24 27  2  0
 27 28  1  0
 26 28  2  0
M  END
>  <IDNUMBER>  (30) 
C350-0103

>  <available>  (30) 
67

>  <H_acceptor>  (30) 
2

>  <H_donor>  (30) 
0

>  <B_rotN>  (30) 
2

>  <N_O>  (30) 
3

>  <logP>  (30) 
5.3507

>  <logD>  (30) 
5.3507

>  <logSw>  (30) 
-6.0208

>  <PSA>  (30) 
23.4803

>  <pKa_ma>  (30) 
14

>  <pKa_mb>  (30) 
2.2647

>  <N_Chirals>  (30) 
0

>  <Name>  (30) 
6,8-difluoro-1-(4-fluorophenyl)-3-phenyl-1H-pyrazolo[4,3-c]quinoline

>  <Smile>  (30) 
Fc(cc1)ccc1-n(c1c(cc(cc2F)F)c2ncc11)nc1-c1ccccc1

>  <Color>  (30) 
NOT COLORED

>  <Collection>  (30) 
DC

>  <InChI>  (30) 
InChI=1S/C22H12F3N3/c23-14-6-8-16(9-7-14)28-22-17-10-15(24)11-19(25)21(17)26-12-18(22)20(27-28)13-4-2-1-3-5-13/h1-12H

>  <InChI Key>  (30) 
PMVLNEKUTYXTGW-UHFFFAOYSA-N

>  <PERCENTSP3>  (30) 
0

>  <Link>  (30) 
https://www.chemdiv.com/catalog/screening-compounds/compound-C350-0103/

>  <MFCDNUMBER>  (30) 
MFCD14750130

>  <CLNUMBER>  (30) 
CL4130

>  <STEREO>  (30) 
ACHIRAL

>  <State>  (30) 
Solid

>  <Similarity score>  (30) 
0.21

$$$$
6,8-difluoro-3-(4-fluorophenyl)-1-phenyl-1H-pyrazolo[4,3-c]quinoline
     RDKit          2D

 28 32  0  0  0  0  0  0  0  0999 V2000
   -0.8203    0.7858    0.0000 N   0  0  0  0  0  0  0  0  0  0  0  0
   -0.1637   -0.6932    0.0000 C   0  0  0  0  0  0  0  0  0  0  0  0
   -1.0325   -0.1934    0.0000 C   0  0  0  0  0  0  0  0  0  0  0  0
    0.1703    0.8919    0.0000 N   0  0  0  0  0  0  0  0  0  0  0  0
    0.5791   -0.0167    0.0000 C   0  0  0  0  0  0  0  0  0  0  0  0
   -1.8900   -0.6974    0.0000 C   0  0  0  0  0  0  0  0  0  0  0  0
   -1.8900   -1.7079    0.0000 C   0  0  0  0  0  0  0  0  0  0  0  0
   -1.0280   -2.2074    0.0000 N   0  0  0  0  0  0  0  0  0  0  0  0
   -0.1547   -1.6988    0.0000 C   0  0  0  0  0  0  0  0  0  0  0  0
   -2.7700   -2.2140    0.0000 C   0  0  0  0  0  0  0  0  0  0  0  0
   -3.6388   -1.7079    0.0000 C   0  0  0  0  0  0  0  0  0  0  0  0
    1.5630   -0.2245    0.0000 C   0  0  0  0  0  0  0  0  0  0  0  0
   -1.4877    1.5285    0.0000 C   0  0  0  0  0  0  0  0  0  0  0  0
   -2.7700   -0.1979    0.0000 C   0  0  0  0  0  0  0  0  0  0  0  0
   -3.6343   -0.6974    0.0000 C   0  0  0  0  0  0  0  0  0  0  0  0
    2.2238    0.5295    0.0000 C   0  0  0  0  0  0  0  0  0  0  0  0
    1.8768   -1.1773    0.0000 C   0  0  0  0  0  0  0  0  0  0  0  0
   -2.7700   -3.2088    0.0000 F   0  0  0  0  0  0  0  0  0  0  0  0
    3.5282   -0.6223    0.0000 C   0  0  0  0  0  0  0  0  0  0  0  0
   -4.5031   -0.1979    0.0000 F   0  0  0  0  0  0  0  0  0  0  0  0
    3.1988    0.3327    0.0000 C   0  0  0  0  0  0  0  0  0  0  0  0
    2.8605   -1.3805    0.0000 C   0  0  0  0  0  0  0  0  0  0  0  0
    4.5031   -0.8301    0.0000 F   0  0  0  0  0  0  0  0  0  0  0  0
   -1.1784    2.4683    0.0000 C   0  0  0  0  0  0  0  0  0  0  0  0
   -2.4517    1.3163    0.0000 C   0  0  0  0  0  0  0  0  0  0  0  0
   -1.8459    3.2088    0.0000 C   0  0  0  0  0  0  0  0  0  0  0  0
   -3.0772    2.0326    0.0000 C   0  0  0  0  0  0  0  0  0  0  0  0
   -2.8142    2.9987    0.0000 C   0  0  0  0  0  0  0  0  0  0  0  0
  2  3  2  0
  2  5  1  0
  1  3  1  0
  1  4  1  0
  4  5  2  0
  3  6  1  0
  6  7  1  0
  7  8  1  0
  2  9  1  0
  8  9  2  0
  7 10  2  0
 11 15  2  0
 10 11  1  0
  5 12  1  0
  1 13  1  0
  6 14  2  0
 14 15  1  0
 12 16  1  0
 12 17  2  0
 10 18  1  0
 19 22  2  0
 15 20  1  0
 16 21  2  0
 19 21  1  0
 17 22  1  0
 19 23  1  0
 13 24  2  0
 13 25  1  0
 24 26  1  0
 26 28  2  0
 25 27  2  0
 27 28  1  0
M  END
>  <IDNUMBER>  (31) 
C350-0431

>  <available>  (31) 
98

>  <H_acceptor>  (31) 
2

>  <H_donor>  (31) 
0

>  <B_rotN>  (31) 
2

>  <N_O>  (31) 
3

>  <logP>  (31) 
5.3342

>  <logD>  (31) 
5.3342

>  <logSw>  (31) 
-6.0815

>  <PSA>  (31) 
23.4803

>  <pKa_ma>  (31) 
14

>  <pKa_mb>  (31) 
2.2647

>  <N_Chirals>  (31) 
0

>  <Name>  (31) 
6,8-difluoro-3-(4-fluorophenyl)-1-phenyl-1H-pyrazolo[4,3-c]quinoline

>  <Smile>  (31) 
Fc(cc1)ccc1-c(c1cnc2c(F)cc(F)cc2c11)nn1-c1ccccc1

>  <Color>  (31) 
NOT COLORED

>  <Collection>  (31) 
DC

>  <InChI>  (31) 
InChI=1S/C22H12F3N3/c23-14-8-6-13(7-9-14)20-18-12-26-21-17(10-15(24)11-19(21)25)22(18)28(27-20)16-4-2-1-3-5-16/h1-12H

>  <InChI Key>  (31) 
AIXKVZORJHTYGQ-UHFFFAOYSA-N

>  <PERCENTSP3>  (31) 
0

>  <Link>  (31) 
https://www.chemdiv.com/catalog/screening-compounds/compound-C350-0431/

>  <MFCDNUMBER>  (31) 
MFCD14750403

>  <CLNUMBER>  (31) 
CL4130

>  <STEREO>  (31) 
ACHIRAL

>  <State>  (31) 
Solid

>  <Similarity score>  (31) 
0.21

$$$$
N,N-diethyl-2-(2-fluorophenyl)quinazolin-4-amine
     RDKit          2D

 22 24  0  0  0  0  0  0  0  0999 V2000
   -0.0177   -0.2455    0.0000 N   0  0  0  0  0  0  0  0  0  0  0  0
    0.8482    0.2557    0.0000 C   0  0  0  0  0  0  0  0  0  0  0  0
   -0.0177   -1.2431    0.0000 C   0  0  0  0  0  0  0  0  0  0  0  0
    1.7242   -0.2455    0.0000 N   0  0  0  0  0  0  0  0  0  0  0  0
    0.8482   -1.7444    0.0000 C   0  0  0  0  0  0  0  0  0  0  0  0
    0.8584    1.2431    0.0000 C   0  0  0  0  0  0  0  0  0  0  0  0
    1.7143   -1.2431    0.0000 C   0  0  0  0  0  0  0  0  0  0  0  0
   -0.8835   -1.7394    0.0000 N   0  0  0  0  0  0  0  0  0  0  0  0
    1.7242    1.7546    0.0000 C   0  0  0  0  0  0  0  0  0  0  0  0
    2.6052    1.2431    0.0000 F   0  0  0  0  0  0  0  0  0  0  0  0
    0.8482   -2.7320    0.0000 C   0  0  0  0  0  0  0  0  0  0  0  0
   -0.0074    1.7447    0.0000 C   0  0  0  0  0  0  0  0  0  0  0  0
    2.5801   -1.7292    0.0000 C   0  0  0  0  0  0  0  0  0  0  0  0
   -0.8835   -2.7472    0.0000 C   0  0  0  0  0  0  0  0  0  0  0  0
   -1.7493   -1.2431    0.0000 C   0  0  0  0  0  0  0  0  0  0  0  0
    1.7295    2.7472    0.0000 C   0  0  0  0  0  0  0  0  0  0  0  0
    1.7143   -3.2333    0.0000 C   0  0  0  0  0  0  0  0  0  0  0  0
   -0.0074    2.7472    0.0000 C   0  0  0  0  0  0  0  0  0  0  0  0
   -0.0177   -3.2485    0.0000 C   0  0  0  0  0  0  0  0  0  0  0  0
   -2.6052   -1.7444    0.0000 C   0  0  0  0  0  0  0  0  0  0  0  0
    2.5801   -2.7320    0.0000 C   0  0  0  0  0  0  0  0  0  0  0  0
    0.8584    3.2485    0.0000 C   0  0  0  0  0  0  0  0  0  0  0  0
  1  2  1  0
  1  3  2  0
  2  4  2  0
  3  5  1  0
  2  6  1  0
  5  7  1  0
  4  7  1  0
  3  8  1  0
  6  9  2  0
  9 10  1  0
  5 11  2  0
  6 12  1  0
  7 13  2  0
  8 14  1  0
  8 15  1  0
  9 16  1  0
 16 22  2  0
 11 17  1  0
 12 18  2  0
 14 19  1  0
 15 20  1  0
 17 21  2  0
 13 21  1  0
 18 22  1  0
M  END
>  <IDNUMBER>  (32) 
K841-0217

>  <available>  (32) 
50

>  <H_acceptor>  (32) 
2

>  <H_donor>  (32) 
0

>  <B_rotN>  (32) 
4

>  <N_O>  (32) 
3

>  <logP>  (32) 
4.4238

>  <logD>  (32) 
4.1544

>  <logSw>  (32) 
-4.4328

>  <PSA>  (32) 
20.9222

>  <pKa_ma>  (32) 
22.6824

>  <pKa_mb>  (32) 
7.3342

>  <N_Chirals>  (32) 
0

>  <Name>  (32) 
N,N-diethyl-2-(2-fluorophenyl)quinazolin-4-amine

>  <Smile>  (32) 
CCN(CC)c1nc(-c(cccc2)c2F)nc2ccccc12

>  <Color>  (32) 
NOT COLORED

>  <Collection>  (32) 
NC

>  <InChI>  (32) 
InChI=1S/C18H18FN3/c1-3-22(4-2)18-14-10-6-8-12-16(14)20-17(21-18)13-9-5-7-11-15(13)19/h5-12H,3-4H2,1-2H3

>  <InChI Key>  (32) 
AVUDYWVEIRGGRL-UHFFFAOYSA-N

>  <PERCENTSP3>  (32) 
22.2

>  <Link>  (32) 
https://www.chemdiv.com/catalog/screening-compounds/compound-K841-0217/

>  <MFCDNUMBER>  (32) 
MFCD03672381

>  <CLNUMBER>  (32) 
CL2243

>  <STEREO>  (32) 
ACHIRAL

>  <State>  (32) 
Solid

>  <Similarity score>  (32) 
0.21

$$$$
4-amino-2-(4-fluorophenyl)-6-(morpholin-4-yl)pyridine-3,5-dicarbonitrile
     RDKit          2D

 24 26  0  0  0  0  0  0  0  0999 V2000
    1.3272   -0.2229    0.0000 C   0  0  0  0  0  0  0  0  0  0  0  0
    1.3272    0.7730    0.0000 C   0  0  0  0  0  0  0  0  0  0  0  0
   -0.3980    0.7730    0.0000 C   0  0  0  0  0  0  0  0  0  0  0  0
    0.4647   -0.7229    0.0000 N   0  0  0  0  0  0  0  0  0  0  0  0
   -0.3980   -0.2229    0.0000 C   0  0  0  0  0  0  0  0  0  0  0  0
    0.4647    1.2689    0.0000 C   0  0  0  0  0  0  0  0  0  0  0  0
    2.1898   -0.7229    0.0000 N   0  0  0  0  0  0  0  0  0  0  0  0
    2.1898    1.2689    0.0000 C   0  0  0  0  0  0  0  0  0  0  0  0
   -1.2606    1.2689    0.0000 C   0  0  0  0  0  0  0  0  0  0  0  0
   -2.1231    0.7730    0.0000 N   0  0  0  0  0  0  0  0  0  0  0  0
    3.0523    0.7730    0.0000 N   0  0  0  0  0  0  0  0  0  0  0  0
   -1.2606   -0.7229    0.0000 C   0  0  0  0  0  0  0  0  0  0  0  0
    0.4647    2.2648    0.0000 N   0  0  0  0  0  0  0  0  0  0  0  0
    3.9150   -1.7190    0.0000 O   0  0  0  0  0  0  0  0  0  0  0  0
   -2.1231   -0.2229    0.0000 C   0  0  0  0  0  0  0  0  0  0  0  0
   -1.2606   -1.7190    0.0000 C   0  0  0  0  0  0  0  0  0  0  0  0
   -2.9940   -1.7315    0.0000 C   0  0  0  0  0  0  0  0  0  0  0  0
   -2.1231   -2.2148    0.0000 C   0  0  0  0  0  0  0  0  0  0  0  0
   -2.9940   -0.6896    0.0000 C   0  0  0  0  0  0  0  0  0  0  0  0
   -3.9150   -2.2648    0.0000 F   0  0  0  0  0  0  0  0  0  0  0  0
    2.1898   -1.7190    0.0000 C   0  0  0  0  0  0  0  0  0  0  0  0
    3.0523   -0.2229    0.0000 C   0  0  0  0  0  0  0  0  0  0  0  0
    3.0523   -2.2148    0.0000 C   0  0  0  0  0  0  0  0  0  0  0  0
    3.9150   -0.7229    0.0000 C   0  0  0  0  0  0  0  0  0  0  0  0
  1  2  2  0
  3  5  1  0
  1  4  1  0
  4  5  2  0
  2  6  1  0
  3  6  2  0
  1  7  1  0
  2  8  1  0
  3  9  1  0
  9 10  3  0
  8 11  3  0
  5 12  1  0
  6 13  1  0
 14 23  1  0
 12 15  2  0
 12 16  1  0
 17 19  2  0
 17 18  1  0
 16 18  2  0
 15 19  1  0
 17 20  1  0
  7 21  1  0
  7 22  1  0
 21 23  1  0
 22 24  1  0
 14 24  1  0
M  END
>  <IDNUMBER>  (33) 
8020-7827

>  <available>  (33) 
11

>  <H_acceptor>  (33) 
4

>  <H_donor>  (33) 
2

>  <B_rotN>  (33) 
4

>  <N_O>  (33) 
6

>  <logP>  (33) 
2.3403

>  <logD>  (33) 
2.3403

>  <logSw>  (33) 
-2.5601

>  <PSA>  (33) 
74.146

>  <pKa_ma>  (33) 
16.0033

>  <pKa_mb>  (33) 
2.4004

>  <N_Chirals>  (33) 
0

>  <Name>  (33) 
4-amino-2-(4-fluorophenyl)-6-(morpholin-4-yl)pyridine-3,5-dicarbonitrile

>  <Smile>  (33) 
Nc(c(C#N)c(N1CCOCC1)nc1-c(cc2)ccc2F)c1C#N

>  <Color>  (33) 
NOT COLORED

>  <Collection>  (33) 
DC

>  <InChI>  (33) 
InChI=1S/C17H14FN5O/c18-12-3-1-11(2-4-12)16-13(9-19)15(21)14(10-20)17(22-16)23-5-7-24-8-6-23/h1-4H,5-8H2,(H2,21,22)

>  <InChI Key>  (33) 
LVDCOMJGMOYFFB-UHFFFAOYSA-N

>  <PERCENTSP3>  (33) 
23.53

>  <Link>  (33) 
https://www.chemdiv.com/catalog/screening-compounds/compound-8020-7827/

>  <MFCDNUMBER>  (33) 
MFCD31943784

>  <STEREO>  (33) 
ACHIRAL

>  <State>  (33) 
Solid

>  <Similarity score>  (33) 
0.21

$$$$
6-ethoxy-4-(pyrrolidin-1-yl)quinoline-3-carbonitrile
     RDKit          2D

 20 22  0  0  0  0  0  0  0  0999 V2000
    0.0402   -0.7793    0.0000 C   0  0  0  0  0  0  0  0  0  0  0  0
   -0.8345   -0.2966    0.0000 C   0  0  0  0  0  0  0  0  0  0  0  0
   -1.7092   -0.7943    0.0000 C   0  0  0  0  0  0  0  0  0  0  0  0
   -0.8396    0.7138    0.0000 N   0  0  0  0  0  0  0  0  0  0  0  0
   -0.8246   -2.2975    0.0000 N   0  0  0  0  0  0  0  0  0  0  0  0
   -2.5690   -0.3067    0.0000 C   0  0  0  0  0  0  0  0  0  0  0  0
   -3.4488    0.1860    0.0000 N   0  0  0  0  0  0  0  0  0  0  0  0
    0.0402   -1.7846    0.0000 C   0  0  0  0  0  0  0  0  0  0  0  0
    0.8848   -0.2816    0.0000 C   0  0  0  0  0  0  0  0  0  0  0  0
   -1.6942   -1.8048    0.0000 C   0  0  0  0  0  0  0  0  0  0  0  0
    0.8998   -2.2724    0.0000 C   0  0  0  0  0  0  0  0  0  0  0  0
    1.7546   -0.7641    0.0000 C   0  0  0  0  0  0  0  0  0  0  0  0
    1.7696   -1.7696    0.0000 C   0  0  0  0  0  0  0  0  0  0  0  0
    0.0251    1.2167    0.0000 C   0  0  0  0  0  0  0  0  0  0  0  0
   -1.5887    1.3776    0.0000 C   0  0  0  0  0  0  0  0  0  0  0  0
    2.6041   -0.2515    0.0000 O   0  0  0  0  0  0  0  0  0  0  0  0
    2.5890    0.7440    0.0000 C   0  0  0  0  0  0  0  0  0  0  0  0
   -1.1864    2.2975    0.0000 C   0  0  0  0  0  0  0  0  0  0  0  0
   -0.1860    2.1919    0.0000 C   0  0  0  0  0  0  0  0  0  0  0  0
    3.4488    1.2469    0.0000 C   0  0  0  0  0  0  0  0  0  0  0  0
  1  2  1  0
  2  3  2  0
  3 10  1  0
  2  4  1  0
  5  8  1  0
  3  6  1  0
  6  7  3  0
  1  8  1  0
  1  9  2  0
  5 10  2  0
  8 11  2  0
 11 13  1  0
  9 12  1  0
 12 13  2  0
  4 14  1  0
  4 15  1  0
 12 16  1  0
 16 17  1  0
 15 18  1  0
 14 19  1  0
 18 19  1  0
 17 20  1  0
M  END
>  <IDNUMBER>  (34) 
F360-0965

>  <available>  (34) 
8

>  <H_acceptor>  (34) 
3

>  <H_donor>  (34) 
0

>  <B_rotN>  (34) 
4

>  <N_O>  (34) 
4

>  <logP>  (34) 
3.3086

>  <logD>  (34) 
3.28

>  <logSw>  (34) 
-3.4509

>  <PSA>  (34) 
36.487

>  <pKa_ma>  (34) 
24.9311

>  <pKa_mb>  (34) 
6.2336

>  <N_Chirals>  (34) 
0

>  <Name>  (34) 
6-ethoxy-4-(pyrrolidin-1-yl)quinoline-3-carbonitrile

>  <Smile>  (34) 
CCOc(ccc1ncc2C#N)cc1c2N1CCCC1

>  <Color>  (34) 
NOT COLORED

>  <Collection>  (34) 
NC

>  <InChI>  (34) 
InChI=1S/C16H17N3O/c1-2-20-13-5-6-15-14(9-13)16(12(10-17)11-18-15)19-7-3-4-8-19/h5-6,9,11H,2-4,7-8H2,1H3

>  <InChI Key>  (34) 
RVQZMMKSSMPUPN-UHFFFAOYSA-N

>  <PERCENTSP3>  (34) 
37.5

>  <Link>  (34) 
https://www.chemdiv.com/catalog/screening-compounds/compound-F360-0965/

>  <MFCDNUMBER>  (34) 
MFCD27119033

>  <CLNUMBER>  (34) 
CL6761

>  <STEREO>  (34) 
ACHIRAL

>  <State>  (34) 
Solid

>  <Similarity score>  (34) 
0.21

$$$$
3-(4-ethoxyphenyl)-6,8-difluoro-1-(3-nitrophenyl)-1H-pyrazolo[4,3-c]quinoline
     RDKit          2D

 33 37  0  0  0  0  0  0  0  0999 V2000
   -1.5745   -0.1051    0.0000 N   0  0  0  0  0  0  0  0  0  0  0  0
   -0.9112   -1.5768    0.0000 C   0  0  0  0  0  0  0  0  0  0  0  0
   -1.7867   -1.0686    0.0000 C   0  0  0  0  0  0  0  0  0  0  0  0
   -0.5798    0.0023    0.0000 N   0  0  0  0  0  0  0  0  0  0  0  0
   -0.1479   -0.8995    0.0000 C   0  0  0  0  0  0  0  0  0  0  0  0
   -2.6670   -1.5768    0.0000 C   0  0  0  0  0  0  0  0  0  0  0  0
   -2.1185    3.2898    0.0000 N   0  0  0  0  0  0  0  0  0  0  0  0
   -2.6670   -2.5644    0.0000 C   0  0  0  0  0  0  0  0  0  0  0  0
   -1.7867   -3.0631    0.0000 N   0  0  0  0  0  0  0  0  0  0  0  0
   -2.1996    0.6656    0.0000 C   0  0  0  0  0  0  0  0  0  0  0  0
   -0.9112   -2.5644    0.0000 C   0  0  0  0  0  0  0  0  0  0  0  0
   -3.5379   -3.0631    0.0000 C   0  0  0  0  0  0  0  0  0  0  0  0
   -1.8465    1.5866    0.0000 C   0  0  0  0  0  0  0  0  0  0  0  0
   -2.4714    2.3546    0.0000 C   0  0  0  0  0  0  0  0  0  0  0  0
   -4.4132   -2.5644    0.0000 C   0  0  0  0  0  0  0  0  0  0  0  0
    0.8541   -1.0042    0.0000 C   0  0  0  0  0  0  0  0  0  0  0  0
   -3.5379   -1.0686    0.0000 C   0  0  0  0  0  0  0  0  0  0  0  0
   -1.1238    3.4544    0.0000 O   0  0  0  0  0  0  0  0  0  0  0  0
   -2.7385    4.0578    0.0000 O   0  0  0  0  0  0  0  0  0  0  0  0
   -4.4038   -1.5768    0.0000 C   0  0  0  0  0  0  0  0  0  0  0  0
    1.4289   -0.1789    0.0000 C   0  0  0  0  0  0  0  0  0  0  0  0
    1.2620   -1.8988    0.0000 C   0  0  0  0  0  0  0  0  0  0  0  0
   -3.5283   -4.0578    0.0000 F   0  0  0  0  0  0  0  0  0  0  0  0
   -5.2721   -1.0808    0.0000 F   0  0  0  0  0  0  0  0  0  0  0  0
    2.8769   -1.1760    0.0000 C   0  0  0  0  0  0  0  0  0  0  0  0
    2.2734   -2.0016    0.0000 C   0  0  0  0  0  0  0  0  0  0  0  0
    2.4380   -0.2697    0.0000 C   0  0  0  0  0  0  0  0  0  0  0  0
   -3.1657    0.5058    0.0000 C   0  0  0  0  0  0  0  0  0  0  0  0
    3.8671   -1.2762    0.0000 O   0  0  0  0  0  0  0  0  0  0  0  0
   -3.4471    2.2042    0.0000 C   0  0  0  0  0  0  0  0  0  0  0  0
   -3.7933    1.2689    0.0000 C   0  0  0  0  0  0  0  0  0  0  0  0
    4.2796   -2.1877    0.0000 C   0  0  0  0  0  0  0  0  0  0  0  0
    5.2721   -2.2780    0.0000 C   0  0  0  0  0  0  0  0  0  0  0  0
  2  3  2  0
  2  5  1  0
  1  3  1  0
  1  4  1  0
  4  5  2  0
  3  6  1  0
  7 14  1  0
  6  8  1  0
  8  9  1  0
  9 11  2  0
  1 10  1  0
  2 11  1  0
  8 12  2  0
 10 13  2  0
 13 14  1  0
 14 30  2  0
 15 20  2  0
 12 15  1  0
  5 16  1  0
  6 17  2  0
  7 18  1  0
  7 19  2  0
 17 20  1  0
 16 21  1  0
 16 22  2  0
 12 23  1  0
 20 24  1  0
 25 26  2  0
 22 26  1  0
 21 27  2  0
 25 27  1  0
 10 28  1  0
 25 29  1  0
 30 31  1  0
 28 31  2  0
 29 32  1  0
 32 33  1  0
M  CHG  2   7   1  18  -1
M  END
>  <IDNUMBER>  (35) 
C350-0827

>  <available>  (35) 
103

>  <H_acceptor>  (35) 
7

>  <H_donor>  (35) 
0

>  <B_rotN>  (35) 
5

>  <N_O>  (35) 
7

>  <logP>  (35) 
5.6659

>  <logD>  (35) 
5.6659

>  <logSw>  (35) 
-5.6365

>  <PSA>  (35) 
63.986

>  <pKa_ma>  (35) 
29.8521

>  <pKa_mb>  (35) 
2.2647

>  <N_Chirals>  (35) 
0

>  <Name>  (35) 
3-(4-ethoxyphenyl)-6,8-difluoro-1-(3-nitrophenyl)-1H-pyrazolo[4,3-c]quinoline

>  <Smile>  (35) 
CCOc(cc1)ccc1-c(c1cnc2c(F)cc(F)cc2c11)nn1-c1cc([N+]([O-])=O)ccc1

>  <Color>  (35) 
NOT COLORED

>  <Collection>  (35) 
DC

>  <InChI>  (35) 
InChI=1S/C24H16F2N4O3/c1-2-33-18-8-6-14(7-9-18)22-20-13-27-23-19(10-15(25)11-21(23)26)24(20)29(28-22)16-4-3-5-17(12-16)30(31)32/h3-13H,2H2,1H3

>  <InChI Key>  (35) 
CAJMJTWODBKEDP-UHFFFAOYSA-N

>  <PERCENTSP3>  (35) 
8.3

>  <Link>  (35) 
https://www.chemdiv.com/catalog/screening-compounds/compound-C350-0827/

>  <MFCDNUMBER>  (35) 
MFCD14750693

>  <CLNUMBER>  (35) 
CL4130

>  <STEREO>  (35) 
ACHIRAL

>  <State>  (35) 
Solid

>  <Similarity score>  (35) 
0.21

$$$$
4-(3-methoxy-4-propoxyphenyl)-2-(methylsulfanyl)-6-(pyrrolidin-1-yl)pyrimidine-5
     RDKit          2D

 27 29  0  0  0  0  0  0  0  0999 V2000
   -1.9144    1.2540    0.0000 C   0  0  0  0  0  0  0  0  0  0  0  0
   -1.0394    0.7290    0.0000 C   0  0  0  0  0  0  0  0  0  0  0  0
   -2.7892    0.7290    0.0000 N   0  0  0  0  0  0  0  0  0  0  0  0
   -1.0394   -0.2833    0.0000 C   0  0  0  0  0  0  0  0  0  0  0  0
   -2.7892   -0.2833    0.0000 C   0  0  0  0  0  0  0  0  0  0  0  0
   -1.9144   -0.7957    0.0000 N   0  0  0  0  0  0  0  0  0  0  0  0
   -1.9185    2.2789    0.0000 N   0  0  0  0  0  0  0  0  0  0  0  0
   -0.1396   -0.7957    0.0000 C   0  0  0  0  0  0  0  0  0  0  0  0
   -0.1396    1.2415    0.0000 C   0  0  0  0  0  0  0  0  0  0  0  0
    0.7477    0.7290    0.0000 N   0  0  0  0  0  0  0  0  0  0  0  0
   -0.1396   -1.8332    0.0000 C   0  0  0  0  0  0  0  0  0  0  0  0
    0.7477   -2.3455    0.0000 C   0  0  0  0  0  0  0  0  0  0  0  0
    1.6352   -1.8332    0.0000 C   0  0  0  0  0  0  0  0  0  0  0  0
    0.7477   -0.2833    0.0000 C   0  0  0  0  0  0  0  0  0  0  0  0
   -3.6891   -0.7957    0.0000 S   0  0  0  0  0  0  0  0  0  0  0  0
    1.6228   -0.7957    0.0000 C   0  0  0  0  0  0  0  0  0  0  0  0
    0.7437   -3.3537    0.0000 O   0  0  0  0  0  0  0  0  0  0  0  0
    2.3684   -2.2538    0.0000 O   0  0  0  0  0  0  0  0  0  0  0  0
   -2.7392    2.8912    0.0000 C   0  0  0  0  0  0  0  0  0  0  0  0
   -1.0769    2.8912    0.0000 C   0  0  0  0  0  0  0  0  0  0  0  0
   -4.5724   -0.2833    0.0000 C   0  0  0  0  0  0  0  0  0  0  0  0
    3.0975   -1.8205    0.0000 C   0  0  0  0  0  0  0  0  0  0  0  0
    1.6185   -3.8662    0.0000 C   0  0  0  0  0  0  0  0  0  0  0  0
    3.8432   -2.2538    0.0000 C   0  0  0  0  0  0  0  0  0  0  0  0
   -2.4267    3.8662    0.0000 C   0  0  0  0  0  0  0  0  0  0  0  0
   -1.3934    3.8662    0.0000 C   0  0  0  0  0  0  0  0  0  0  0  0
    4.5724   -1.8332    0.0000 C   0  0  0  0  0  0  0  0  0  0  0  0
  1  2  1  0
  1  3  2  0
  2  4  2  0
  3  5  1  0
  5  6  2  0
  4  6  1  0
  1  7  1  0
  4  8  1  0
  2  9  1  0
  9 10  3  0
  8 11  2  0
 11 12  1  0
 12 13  2  0
 13 16  1  0
  8 14  1  0
  5 15  1  0
 14 16  2  0
 12 17  1  0
 13 18  1  0
  7 19  1  0
  7 20  1  0
 15 21  1  0
 18 22  1  0
 17 23  1  0
 22 24  1  0
 19 25  1  0
 25 26  1  0
 20 26  1  0
 24 27  1  0
M  END
>  <IDNUMBER>  (36) 
D490-0181

>  <available>  (36) 
146

>  <H_acceptor>  (36) 
6

>  <H_donor>  (36) 
0

>  <B_rotN>  (36) 
8

>  <N_O>  (36) 
6

>  <logP>  (36) 
4.7537

>  <logD>  (36) 
4.7537

>  <logSw>  (36) 
-4.718

>  <PSA>  (36) 
53.973

>  <pKa_ma>  (36) 
21.9428

>  <pKa_mb>  (36) 
2.0033

>  <N_Chirals>  (36) 
0

>  <Name>  (36) 
4-(3-methoxy-4-propoxyphenyl)-2-(methylsulfanyl)-6-(pyrrolidin-1-yl)pyrimidine-5-carbonitrile

>  <Smile>  (36) 
CCCOc(ccc(-c1nc(SC)nc(N2CCCC2)c1C#N)c1)c1OC

>  <Color>  (36) 
YELLOW

>  <Collection>  (36) 
DC

>  <InChI>  (36) 
InChI=1S/C20H24N4O2S/c1-4-11-26-16-8-7-14(12-17(16)25-2)18-15(13-21)19(23-20(22-18)27-3)24-9-5-6-10-24/h7-8,12H,4-6,9-11H2,1-3H3

>  <InChI Key>  (36) 
CBSWLMAOUASUMO-UHFFFAOYSA-N

>  <PERCENTSP3>  (36) 
45

>  <Link>  (36) 
https://www.chemdiv.com/catalog/screening-compounds/compound-D490-0181/

>  <MFCDNUMBER>  (36) 
MFCD10090310

>  <CLNUMBER>  (36) 
CL6864

>  <STEREO>  (36) 
ACHIRAL

>  <State>  (36) 
Solid

>  <Similarity score>  (36) 
0.21

$$$$
6,8-difluoro-1-(4-methoxyphenyl)-3-phenyl-1H-pyrazolo[4,3-c]quinoline
     RDKit          2D

 29 33  0  0  0  0  0  0  0  0999 V2000
   -0.3623    0.4408    0.0000 N   0  0  0  0  0  0  0  0  0  0  0  0
    0.2938   -1.0363    0.0000 C   0  0  0  0  0  0  0  0  0  0  0  0
   -0.5742   -0.5379    0.0000 C   0  0  0  0  0  0  0  0  0  0  0  0
    0.6267    0.5457    0.0000 N   0  0  0  0  0  0  0  0  0  0  0  0
    1.0342   -0.3624    0.0000 C   0  0  0  0  0  0  0  0  0  0  0  0
   -1.4358   -1.0363    0.0000 C   0  0  0  0  0  0  0  0  0  0  0  0
   -1.4358   -2.0352    0.0000 C   0  0  0  0  0  0  0  0  0  0  0  0
   -0.5742   -2.5335    0.0000 N   0  0  0  0  0  0  0  0  0  0  0  0
    0.2938   -2.0352    0.0000 C   0  0  0  0  0  0  0  0  0  0  0  0
   -2.2974   -2.5335    0.0000 C   0  0  0  0  0  0  0  0  0  0  0  0
   -0.9919    1.2115    0.0000 C   0  0  0  0  0  0  0  0  0  0  0  0
   -3.1690   -2.0411    0.0000 C   0  0  0  0  0  0  0  0  0  0  0  0
   -2.2974   -0.5379    0.0000 C   0  0  0  0  0  0  0  0  0  0  0  0
   -3.1690   -1.0363    0.0000 C   0  0  0  0  0  0  0  0  0  0  0  0
    2.0331   -0.4630    0.0000 C   0  0  0  0  0  0  0  0  0  0  0  0
   -0.6325    2.1499    0.0000 C   0  0  0  0  0  0  0  0  0  0  0  0
   -1.9806    1.0503    0.0000 C   0  0  0  0  0  0  0  0  0  0  0  0
   -2.2974   -3.5384    0.0000 F   0  0  0  0  0  0  0  0  0  0  0  0
   -4.0309   -0.5278    0.0000 F   0  0  0  0  0  0  0  0  0  0  0  0
   -2.2610    2.7594    0.0000 C   0  0  0  0  0  0  0  0  0  0  0  0
   -2.6101    1.8211    0.0000 C   0  0  0  0  0  0  0  0  0  0  0  0
   -1.2681    2.9187    0.0000 C   0  0  0  0  0  0  0  0  0  0  0  0
   -2.8867    3.5384    0.0000 O   0  0  0  0  0  0  0  0  0  0  0  0
    2.4508   -1.3590    0.0000 C   0  0  0  0  0  0  0  0  0  0  0  0
    2.6082    0.3640    0.0000 C   0  0  0  0  0  0  0  0  0  0  0  0
   -3.8693    3.3728    0.0000 C   0  0  0  0  0  0  0  0  0  0  0  0
    3.4395   -1.4601    0.0000 C   0  0  0  0  0  0  0  0  0  0  0  0
    3.6071    0.2733    0.0000 C   0  0  0  0  0  0  0  0  0  0  0  0
    4.0309   -0.6347    0.0000 C   0  0  0  0  0  0  0  0  0  0  0  0
  2  3  2  0
  2  5  1  0
  1  3  1  0
  1  4  1  0
  4  5  2  0
  3  6  1  0
  6  7  1  0
  7  8  1  0
  8  9  2  0
  2  9  1  0
  7 10  2  0
  1 11  1  0
 12 14  2  0
 10 12  1  0
  6 13  2  0
 13 14  1  0
  5 15  1  0
 11 16  2  0
 11 17  1  0
 10 18  1  0
 14 19  1  0
 20 21  1  0
 17 21  2  0
 16 22  1  0
 20 22  2  0
 20 23  1  0
 15 24  2  0
 15 25  1  0
 23 26  1  0
 24 27  1  0
 27 29  2  0
 25 28  2  0
 28 29  1  0
M  END
>  <IDNUMBER>  (37) 
C350-0482

>  <available>  (37) 
57

>  <H_acceptor>  (37) 
3

>  <H_donor>  (37) 
0

>  <B_rotN>  (37) 
3

>  <N_O>  (37) 
4

>  <logP>  (37) 
5.304

>  <logD>  (37) 
5.304

>  <logSw>  (37) 
-5.5621

>  <PSA>  (37) 
31.0241

>  <pKa_ma>  (37) 
33.286

>  <pKa_mb>  (37) 
2.2647

>  <N_Chirals>  (37) 
0

>  <Name>  (37) 
6,8-difluoro-1-(4-methoxyphenyl)-3-phenyl-1H-pyrazolo[4,3-c]quinoline

>  <Smile>  (37) 
COc(cc1)ccc1-n(c1c(cc(cc2F)F)c2ncc11)nc1-c1ccccc1

>  <Color>  (37) 
NOT COLORED

>  <Collection>  (37) 
DC

>  <InChI>  (37) 
InChI=1S/C23H15F2N3O/c1-29-17-9-7-16(8-10-17)28-23-18-11-15(24)12-20(25)22(18)26-13-19(23)21(27-28)14-5-3-2-4-6-14/h2-13H,1H3

>  <InChI Key>  (37) 
XUBQPZLVDHGWOD-UHFFFAOYSA-N

>  <PERCENTSP3>  (37) 
4.3

>  <Link>  (37) 
https://www.chemdiv.com/catalog/screening-compounds/compound-C350-0482/

>  <MFCDNUMBER>  (37) 
MFCD14750442

>  <CLNUMBER>  (37) 
CL4130

>  <STEREO>  (37) 
ACHIRAL

>  <State>  (37) 
Solid

>  <Similarity score>  (37) 
0.21

$$$$
4-(3-methoxy-4-propoxyphenyl)-2-(methylsulfanyl)-6-(piperidin-1-yl)pyrimidine-5-
     RDKit          2D

 28 30  0  0  0  0  0  0  0  0999 V2000
   -1.9080    1.0269    0.0000 C   0  0  0  0  0  0  0  0  0  0  0  0
   -1.0331    0.5018    0.0000 C   0  0  0  0  0  0  0  0  0  0  0  0
   -2.7913    0.5018    0.0000 N   0  0  0  0  0  0  0  0  0  0  0  0
   -1.0331   -0.5230    0.0000 C   0  0  0  0  0  0  0  0  0  0  0  0
   -2.7913   -0.5230    0.0000 C   0  0  0  0  0  0  0  0  0  0  0  0
   -1.9080   -1.0352    0.0000 N   0  0  0  0  0  0  0  0  0  0  0  0
   -1.9163    2.0476    0.0000 N   0  0  0  0  0  0  0  0  0  0  0  0
   -0.1417   -1.0352    0.0000 C   0  0  0  0  0  0  0  0  0  0  0  0
   -0.1417    0.9978    0.0000 C   0  0  0  0  0  0  0  0  0  0  0  0
    0.7458    0.5018    0.0000 N   0  0  0  0  0  0  0  0  0  0  0  0
   -0.1417   -2.0519    0.0000 C   0  0  0  0  0  0  0  0  0  0  0  0
    0.7458   -2.5642    0.0000 C   0  0  0  0  0  0  0  0  0  0  0  0
    1.6331   -2.0519    0.0000 C   0  0  0  0  0  0  0  0  0  0  0  0
    0.7458   -0.5230    0.0000 C   0  0  0  0  0  0  0  0  0  0  0  0
   -3.6786   -1.0352    0.0000 S   0  0  0  0  0  0  0  0  0  0  0  0
    1.6205   -1.0352    0.0000 C   0  0  0  0  0  0  0  0  0  0  0  0
    0.7333   -3.5849    0.0000 O   0  0  0  0  0  0  0  0  0  0  0  0
    2.3581   -2.4768    0.0000 O   0  0  0  0  0  0  0  0  0  0  0  0
   -2.8038    2.5600    0.0000 C   0  0  0  0  0  0  0  0  0  0  0  0
   -1.0167    2.5600    0.0000 C   0  0  0  0  0  0  0  0  0  0  0  0
   -4.5660   -0.5230    0.0000 C   0  0  0  0  0  0  0  0  0  0  0  0
    3.0955   -2.0519    0.0000 C   0  0  0  0  0  0  0  0  0  0  0  0
    1.6205   -4.0973    0.0000 C   0  0  0  0  0  0  0  0  0  0  0  0
    3.8327   -2.4768    0.0000 C   0  0  0  0  0  0  0  0  0  0  0  0
   -2.8038    3.5973    0.0000 C   0  0  0  0  0  0  0  0  0  0  0  0
   -1.0167    3.5849    0.0000 C   0  0  0  0  0  0  0  0  0  0  0  0
    4.5660   -2.0519    0.0000 C   0  0  0  0  0  0  0  0  0  0  0  0
   -1.8997    4.0973    0.0000 C   0  0  0  0  0  0  0  0  0  0  0  0
  1  2  1  0
  1  3  2  0
  2  4  2  0
  3  5  1  0
  5  6  2  0
  4  6  1  0
  1  7  1  0
  4  8  1  0
  2  9  1  0
  9 10  3  0
  8 11  2  0
 11 12  1  0
 12 13  2  0
 13 16  1  0
  8 14  1  0
  5 15  1  0
 14 16  2  0
 12 17  1  0
 13 18  1  0
  7 19  1  0
  7 20  1  0
 15 21  1  0
 18 22  1  0
 17 23  1  0
 22 24  1  0
 19 25  1  0
 25 28  1  0
 20 26  1  0
 24 27  1  0
 26 28  1  0
M  END
>  <IDNUMBER>  (38) 
D490-0182

>  <available>  (38) 
144

>  <H_acceptor>  (38) 
6

>  <H_donor>  (38) 
0

>  <B_rotN>  (38) 
8

>  <N_O>  (38) 
6

>  <logP>  (38) 
5.1703

>  <logD>  (38) 
5.1703

>  <logSw>  (38) 
-5.2203

>  <PSA>  (38) 
53.607

>  <pKa_ma>  (38) 
22.7151

>  <pKa_mb>  (38) 
2.0033

>  <N_Chirals>  (38) 
0

>  <Name>  (38) 
4-(3-methoxy-4-propoxyphenyl)-2-(methylsulfanyl)-6-(piperidin-1-yl)pyrimidine-5-carbonitrile

>  <Smile>  (38) 
CCCOc(ccc(-c1nc(SC)nc(N2CCCCC2)c1C#N)c1)c1OC

>  <Color>  (38) 
ORANGE

>  <Collection>  (38) 
DC

>  <InChI>  (38) 
InChI=1S/C21H26N4O2S/c1-4-12-27-17-9-8-15(13-18(17)26-2)19-16(14-22)20(24-21(23-19)28-3)25-10-6-5-7-11-25/h8-9,13H,4-7,10-12H2,1-3H3

>  <InChI Key>  (38) 
OOQJUJOCDGLIPK-UHFFFAOYSA-N

>  <PERCENTSP3>  (38) 
47.6

>  <Link>  (38) 
https://www.chemdiv.com/catalog/screening-compounds/compound-D490-0182/

>  <MFCDNUMBER>  (38) 
MFCD10090311

>  <CLNUMBER>  (38) 
CL6864

>  <STEREO>  (38) 
ACHIRAL

>  <State>  (38) 
Solid

>  <Similarity score>  (38) 
0.21

$$$$
1-(3,4-dimethylphenyl)-6,8-difluoro-3-(3-methoxyphenyl)-1H-pyrazolo[4,3-c]quinol
     RDKit          2D

 31 35  0  0  0  0  0  0  0  0999 V2000
   -0.4488    0.2927    0.0000 N   0  0  0  0  0  0  0  0  0  0  0  0
    0.2258   -1.1903    0.0000 C   0  0  0  0  0  0  0  0  0  0  0  0
   -0.6495   -0.6718    0.0000 C   0  0  0  0  0  0  0  0  0  0  0  0
    0.5547    0.3986    0.0000 N   0  0  0  0  0  0  0  0  0  0  0  0
    0.9839   -0.5101    0.0000 C   0  0  0  0  0  0  0  0  0  0  0  0
   -1.5359   -1.1903    0.0000 C   0  0  0  0  0  0  0  0  0  0  0  0
   -1.5359   -2.1659    0.0000 C   0  0  0  0  0  0  0  0  0  0  0  0
   -0.6495   -2.6675    0.0000 N   0  0  0  0  0  0  0  0  0  0  0  0
   -1.0731    1.0620    0.0000 C   0  0  0  0  0  0  0  0  0  0  0  0
    0.2258   -2.1659    0.0000 C   0  0  0  0  0  0  0  0  0  0  0  0
    1.9818   -0.5993    0.0000 C   0  0  0  0  0  0  0  0  0  0  0  0
   -2.3998   -2.6675    0.0000 C   0  0  0  0  0  0  0  0  0  0  0  0
   -0.7331    1.9818    0.0000 C   0  0  0  0  0  0  0  0  0  0  0  0
   -3.2863   -2.1659    0.0000 C   0  0  0  0  0  0  0  0  0  0  0  0
   -2.3998   -0.6718    0.0000 C   0  0  0  0  0  0  0  0  0  0  0  0
   -1.3853    2.7343    0.0000 C   0  0  0  0  0  0  0  0  0  0  0  0
   -3.2752   -1.1903    0.0000 C   0  0  0  0  0  0  0  0  0  0  0  0
    2.5616    0.2147    0.0000 C   0  0  0  0  0  0  0  0  0  0  0  0
   -2.0655    0.8948    0.0000 C   0  0  0  0  0  0  0  0  0  0  0  0
   -2.3721    2.5560    0.0000 C   0  0  0  0  0  0  0  0  0  0  0  0
   -2.7122    1.6306    0.0000 C   0  0  0  0  0  0  0  0  0  0  0  0
   -2.3944   -3.6597    0.0000 F   0  0  0  0  0  0  0  0  0  0  0  0
    3.5762    0.1254    0.0000 C   0  0  0  0  0  0  0  0  0  0  0  0
   -4.1504   -0.6884    0.0000 F   0  0  0  0  0  0  0  0  0  0  0  0
    2.4055   -1.5024    0.0000 C   0  0  0  0  0  0  0  0  0  0  0  0
    4.1504    0.9226    0.0000 O   0  0  0  0  0  0  0  0  0  0  0  0
    3.4090   -1.5973    0.0000 C   0  0  0  0  0  0  0  0  0  0  0  0
   -1.0508    3.6597    0.0000 C   0  0  0  0  0  0  0  0  0  0  0  0
   -3.0186    3.3198    0.0000 C   0  0  0  0  0  0  0  0  0  0  0  0
    4.0000   -0.7833    0.0000 C   0  0  0  0  0  0  0  0  0  0  0  0
    3.7156    1.8202    0.0000 C   0  0  0  0  0  0  0  0  0  0  0  0
  2  3  2  0
  2  5  1  0
  1  3  1  0
  1  4  1  0
  4  5  2  0
  3  6  1  0
  6  7  1  0
  7  8  1  0
  8 10  2  0
  1  9  1  0
  2 10  1  0
  5 11  1  0
  7 12  2  0
 12 14  1  0
  9 13  1  0
 14 17  2  0
  6 15  2  0
 13 16  2  0
 16 20  1  0
 15 17  1  0
 11 18  1  0
  9 19  2  0
 20 21  2  0
 19 21  1  0
 12 22  1  0
 18 23  2  0
 23 30  1  0
 17 24  1  0
 11 25  2  0
 23 26  1  0
 25 27  1  0
 16 28  1  0
 20 29  1  0
 27 30  2  0
 26 31  1  0
M  END
>  <IDNUMBER>  (39) 
C350-0670

>  <available>  (39) 
49

>  <H_acceptor>  (39) 
3

>  <H_donor>  (39) 
0

>  <B_rotN>  (39) 
3

>  <N_O>  (39) 
4

>  <logP>  (39) 
6.7029

>  <logD>  (39) 
6.7024

>  <logSw>  (39) 
-5.9369

>  <PSA>  (39) 
31.0241

>  <pKa_ma>  (39) 
28.0078

>  <pKa_mb>  (39) 
4.4251

>  <N_Chirals>  (39) 
0

>  <Name>  (39) 
1-(3,4-dimethylphenyl)-6,8-difluoro-3-(3-methoxyphenyl)-1H-pyrazolo[4,3-c]quinoline

>  <Smile>  (39) 
Cc(cc1)c(C)cc1-n(c1c(cc(cc2F)F)c2ncc11)nc1-c1cc(OC)ccc1

>  <Color>  (39) 
NOT COLORED

>  <Collection>  (39) 
DC

>  <InChI>  (39) 
InChI=1S/C25H19F2N3O/c1-14-7-8-18(9-15(14)2)30-25-20-11-17(26)12-22(27)24(20)28-13-21(25)23(29-30)16-5-4-6-19(10-16)31-3/h4-13H,1-3H3

>  <InChI Key>  (39) 
OLNNKQODUWNSJF-UHFFFAOYSA-N

>  <PERCENTSP3>  (39) 
12

>  <Link>  (39) 
https://www.chemdiv.com/catalog/screening-compounds/compound-C350-0670/

>  <MFCDNUMBER>  (39) 
MFCD14750567

>  <CLNUMBER>  (39) 
CL4130

>  <STEREO>  (39) 
ACHIRAL

>  <State>  (39) 
Solid

>  <Similarity score>  (39) 
0.21

$$$$
2-(2-fluorophenyl)-4-(4-phenylpiperazin-1-yl)quinazoline
     RDKit          2D

 29 33  0  0  0  0  0  0  0  0999 V2000
    1.5230    0.0960    0.0000 N   0  0  0  0  0  0  0  0  0  0  0  0
    2.4913    0.3530    0.0000 C   0  0  0  0  0  0  0  0  0  0  0  0
    1.2506   -0.8573    0.0000 C   0  0  0  0  0  0  0  0  0  0  0  0
    3.1872   -0.3581    0.0000 N   0  0  0  0  0  0  0  0  0  0  0  0
    1.9619   -1.5483    0.0000 C   0  0  0  0  0  0  0  0  0  0  0  0
    2.7637    1.3061    0.0000 C   0  0  0  0  0  0  0  0  0  0  0  0
    0.2927   -1.0945    0.0000 N   0  0  0  0  0  0  0  0  0  0  0  0
   -1.6388   -1.5936    0.0000 N   0  0  0  0  0  0  0  0  0  0  0  0
    2.9250   -1.3061    0.0000 C   0  0  0  0  0  0  0  0  0  0  0  0
    3.7318    1.5483    0.0000 C   0  0  0  0  0  0  0  0  0  0  0  0
   -0.4135   -0.3884    0.0000 C   0  0  0  0  0  0  0  0  0  0  0  0
    0.0101   -2.0576    0.0000 C   0  0  0  0  0  0  0  0  0  0  0  0
   -0.9429   -2.2994    0.0000 C   0  0  0  0  0  0  0  0  0  0  0  0
   -1.3815   -0.6302    0.0000 C   0  0  0  0  0  0  0  0  0  0  0  0
   -2.6019   -1.8456    0.0000 C   0  0  0  0  0  0  0  0  0  0  0  0
    4.5638    0.8320    0.0000 F   0  0  0  0  0  0  0  0  0  0  0  0
    1.6994   -2.5164    0.0000 C   0  0  0  0  0  0  0  0  0  0  0  0
    2.0675    2.0172    0.0000 C   0  0  0  0  0  0  0  0  0  0  0  0
    3.6259   -2.0021    0.0000 C   0  0  0  0  0  0  0  0  0  0  0  0
    3.9990    2.5164    0.0000 C   0  0  0  0  0  0  0  0  0  0  0  0
   -3.3132   -1.1245    0.0000 C   0  0  0  0  0  0  0  0  0  0  0  0
   -2.8997   -2.8140    0.0000 C   0  0  0  0  0  0  0  0  0  0  0  0
    2.4006   -3.2275    0.0000 C   0  0  0  0  0  0  0  0  0  0  0  0
    2.3250    2.9702    0.0000 C   0  0  0  0  0  0  0  0  0  0  0  0
    3.3687   -2.9702    0.0000 C   0  0  0  0  0  0  0  0  0  0  0  0
    3.2931    3.2275    0.0000 C   0  0  0  0  0  0  0  0  0  0  0  0
   -4.2813   -1.3815    0.0000 C   0  0  0  0  0  0  0  0  0  0  0  0
   -3.8577   -3.0559    0.0000 C   0  0  0  0  0  0  0  0  0  0  0  0
   -4.5638   -2.3350    0.0000 C   0  0  0  0  0  0  0  0  0  0  0  0
  1  2  1  0
  1  3  2  0
  2  4  2  0
  3  5  1  0
  2  6  1  0
  3  7  1  0
  8 13  1  0
  5  9  1  0
  4  9  1  0
  6 10  2  0
  7 11  1  0
  7 12  1  0
 12 13  1  0
 11 14  1  0
  8 14  1  0
  8 15  1  0
 10 16  1  0
  5 17  2  0
  6 18  1  0
  9 19  2  0
 19 25  1  0
 10 20  1  0
 20 26  2  0
 15 21  2  0
 15 22  1  0
 17 23  1  0
 18 24  2  0
 23 25  2  0
 24 26  1  0
 21 27  1  0
 27 29  2  0
 22 28  2  0
 28 29  1  0
M  END
>  <IDNUMBER>  (40) 
K669-0185

>  <available>  (40) 
2

>  <H_acceptor>  (40) 
2

>  <H_donor>  (40) 
0

>  <B_rotN>  (40) 
3

>  <N_O>  (40) 
4

>  <logP>  (40) 
5.3989

>  <logD>  (40) 
5.1295

>  <logSw>  (40) 
-6.2224

>  <PSA>  (40) 
24.8988

>  <pKa_ma>  (40) 
22.2134

>  <pKa_mb>  (40) 
7.3342

>  <N_Chirals>  (40) 
0

>  <Name>  (40) 
2-(2-fluorophenyl)-4-(4-phenylpiperazin-1-yl)quinazoline

>  <Smile>  (40) 
Fc(cccc1)c1-c1nc2ccccc2c(N(CC2)CCN2c2ccccc2)n1

>  <Color>  (40) 
ORANGE

>  <Collection>  (40) 
NC

>  <InChI>  (40) 
InChI=1S/C24H21FN4/c25-21-12-6-4-10-19(21)23-26-22-13-7-5-11-20(22)24(27-23)29-16-14-28(15-17-29)18-8-2-1-3-9-18/h1-13H,14-17H2

>  <InChI Key>  (40) 
RHWPOMMEZPJCJP-UHFFFAOYSA-N

>  <PERCENTSP3>  (40) 
16.7

>  <Link>  (40) 
https://www.chemdiv.com/catalog/screening-compounds/compound-K669-0185/

>  <MFCDNUMBER>  (40) 
MFCD03671775

>  <CLNUMBER>  (40) 
CL2243

>  <STEREO>  (40) 
ACHIRAL

>  <State>  (40) 
Solid

>  <Similarity score>  (40) 
0.21

$$$$
6-ethoxy-4-(piperidin-1-yl)quinoline-3-carbonitrile
     RDKit          2D

 21 23  0  0  0  0  0  0  0  0999 V2000
    0.0278   -0.9923    0.0000 C   0  0  0  0  0  0  0  0  0  0  0  0
   -0.8357   -0.5024    0.0000 C   0  0  0  0  0  0  0  0  0  0  0  0
   -1.7043   -1.0075    0.0000 C   0  0  0  0  0  0  0  0  0  0  0  0
   -0.8408    0.5075    0.0000 N   0  0  0  0  0  0  0  0  0  0  0  0
   -0.8257   -2.5073    0.0000 N   0  0  0  0  0  0  0  0  0  0  0  0
   -2.5678   -0.5075    0.0000 C   0  0  0  0  0  0  0  0  0  0  0  0
   -3.4465   -0.0177    0.0000 N   0  0  0  0  0  0  0  0  0  0  0  0
    0.0278   -1.9923    0.0000 C   0  0  0  0  0  0  0  0  0  0  0  0
    0.8863   -0.4925    0.0000 C   0  0  0  0  0  0  0  0  0  0  0  0
   -1.6992   -2.0072    0.0000 C   0  0  0  0  0  0  0  0  0  0  0  0
    0.9015   -2.4770    0.0000 C   0  0  0  0  0  0  0  0  0  0  0  0
    1.7499   -0.9772    0.0000 C   0  0  0  0  0  0  0  0  0  0  0  0
    1.7650   -1.9771    0.0000 C   0  0  0  0  0  0  0  0  0  0  0  0
    0.0228    1.0074    0.0000 C   0  0  0  0  0  0  0  0  0  0  0  0
   -1.7195    0.9923    0.0000 C   0  0  0  0  0  0  0  0  0  0  0  0
    2.6032   -0.4620    0.0000 O   0  0  0  0  0  0  0  0  0  0  0  0
    2.5881    0.5378    0.0000 C   0  0  0  0  0  0  0  0  0  0  0  0
   -1.7195    1.9971    0.0000 C   0  0  0  0  0  0  0  0  0  0  0  0
    0.0076    2.0072    0.0000 C   0  0  0  0  0  0  0  0  0  0  0  0
    3.4465    1.0529    0.0000 C   0  0  0  0  0  0  0  0  0  0  0  0
   -0.8559    2.5073    0.0000 C   0  0  0  0  0  0  0  0  0  0  0  0
  1  2  1  0
  2  3  2  0
  3 10  1  0
  2  4  1  0
  5  8  1  0
  3  6  1  0
  6  7  3  0
  1  8  1  0
  1  9  2  0
  5 10  2  0
  8 11  2  0
 11 13  1  0
  9 12  1  0
 12 13  2  0
  4 14  1  0
  4 15  1  0
 12 16  1  0
 16 17  1  0
 15 18  1  0
 14 19  1  0
 19 21  1  0
 17 20  1  0
 18 21  1  0
M  END
>  <IDNUMBER>  (41) 
F360-0966

>  <available>  (41) 
32

>  <H_acceptor>  (41) 
3

>  <H_donor>  (41) 
0

>  <B_rotN>  (41) 
4

>  <N_O>  (41) 
4

>  <logP>  (41) 
3.5826

>  <logD>  (41) 
3.554

>  <logSw>  (41) 
-3.6327

>  <PSA>  (41) 
36.121

>  <pKa_ma>  (41) 
25.7034

>  <pKa_mb>  (41) 
6.2336

>  <N_Chirals>  (41) 
0

>  <Name>  (41) 
6-ethoxy-4-(piperidin-1-yl)quinoline-3-carbonitrile

>  <Smile>  (41) 
CCOc(ccc1ncc2C#N)cc1c2N1CCCCC1

>  <Color>  (41) 
NOT COLORED

>  <Collection>  (41) 
NC

>  <InChI>  (41) 
InChI=1S/C17H19N3O/c1-2-21-14-6-7-16-15(10-14)17(13(11-18)12-19-16)20-8-4-3-5-9-20/h6-7,10,12H,2-5,8-9H2,1H3

>  <InChI Key>  (41) 
GARRQDDQGGOIGD-UHFFFAOYSA-N

>  <PERCENTSP3>  (41) 
41.2

>  <Link>  (41) 
https://www.chemdiv.com/catalog/screening-compounds/compound-F360-0966/

>  <MFCDNUMBER>  (41) 
MFCD27119034

>  <CLNUMBER>  (41) 
CL6761

>  <STEREO>  (41) 
ACHIRAL

>  <State>  (41) 
Solid

>  <Similarity score>  (41) 
0.21

$$$$
3-(3-bromophenyl)-6-fluoro-1-(4-fluorophenyl)-1H-pyrazolo[4,3-c]quinoline
     RDKit          2D

 28 32  0  0  0  0  0  0  0  0999 V2000
   -0.8724    0.4389    0.0000 N   0  0  0  0  0  0  0  0  0  0  0  0
   -0.2097   -1.0286    0.0000 C   0  0  0  0  0  0  0  0  0  0  0  0
    0.1207    0.5385    0.0000 N   0  0  0  0  0  0  0  0  0  0  0  0
   -1.0839   -0.5329    0.0000 C   0  0  0  0  0  0  0  0  0  0  0  0
    0.5455   -0.3517    0.0000 C   0  0  0  0  0  0  0  0  0  0  0  0
   -1.9651   -1.0286    0.0000 C   0  0  0  0  0  0  0  0  0  0  0  0
   -1.0839   -2.5194    0.0000 N   0  0  0  0  0  0  0  0  0  0  0  0
   -1.9651   -2.0254    0.0000 C   0  0  0  0  0  0  0  0  0  0  0  0
   -0.2097   -2.0254    0.0000 C   0  0  0  0  0  0  0  0  0  0  0  0
    1.5583   -0.4567    0.0000 C   0  0  0  0  0  0  0  0  0  0  0  0
   -1.4960    1.2101    0.0000 C   0  0  0  0  0  0  0  0  0  0  0  0
   -2.8375   -2.5194    0.0000 C   0  0  0  0  0  0  0  0  0  0  0  0
    2.1303    0.3589    0.0000 C   0  0  0  0  0  0  0  0  0  0  0  0
   -1.1442    2.1249    0.0000 C   0  0  0  0  0  0  0  0  0  0  0  0
   -2.4751    1.0519    0.0000 C   0  0  0  0  0  0  0  0  0  0  0  0
   -2.8375   -0.5329    0.0000 C   0  0  0  0  0  0  0  0  0  0  0  0
    3.1430    0.2720    0.0000 C   0  0  0  0  0  0  0  0  0  0  0  0
   -2.7469    2.7415    0.0000 C   0  0  0  0  0  0  0  0  0  0  0  0
   -2.8375   -3.5162    0.0000 F   0  0  0  0  0  0  0  0  0  0  0  0
   -1.7678    2.8979    0.0000 C   0  0  0  0  0  0  0  0  0  0  0  0
   -3.0933    1.8105    0.0000 C   0  0  0  0  0  0  0  0  0  0  0  0
    3.7117    1.0981    0.0000 Br  0  0  0  0  0  0  0  0  0  0  0  0
   -3.3812    3.5162    0.0000 F   0  0  0  0  0  0  0  0  0  0  0  0
    1.9651   -1.3574    0.0000 C   0  0  0  0  0  0  0  0  0  0  0  0
   -3.7010   -1.0286    0.0000 C   0  0  0  0  0  0  0  0  0  0  0  0
    2.9761   -1.4534    0.0000 C   0  0  0  0  0  0  0  0  0  0  0  0
   -3.7117   -2.0254    0.0000 C   0  0  0  0  0  0  0  0  0  0  0  0
    3.5800   -0.6378    0.0000 C   0  0  0  0  0  0  0  0  0  0  0  0
  2  4  2  0
  2  5  1  0
  1  3  1  0
  1  4  1  0
  3  5  2  0
  4  6  1  0
  7  8  1  0
  7  9  2  0
  6  8  1  0
  2  9  1  0
  5 10  1  0
  1 11  1  0
  8 12  2  0
 10 13  1  0
 11 14  2  0
 11 15  1  0
  6 16  2  0
 13 17  2  0
 18 21  1  0
 18 20  2  0
 12 19  1  0
 14 20  1  0
 15 21  2  0
 17 22  1  0
 18 23  1  0
 10 24  2  0
 16 25  1  0
 24 26  1  0
 25 27  2  0
 12 27  1  0
 26 28  2  0
 17 28  1  0
M  END
>  <IDNUMBER>  (42) 
C350-0859

>  <available>  (42) 
109

>  <H_acceptor>  (42) 
2

>  <H_donor>  (42) 
0

>  <B_rotN>  (42) 
2

>  <N_O>  (42) 
3

>  <logP>  (42) 
6.1773

>  <logD>  (42) 
6.1773

>  <logSw>  (42) 
-6.6124

>  <PSA>  (42) 
23.4803

>  <pKa_ma>  (42) 
14

>  <pKa_mb>  (42) 
2.6131

>  <N_Chirals>  (42) 
0

>  <Name>  (42) 
3-(3-bromophenyl)-6-fluoro-1-(4-fluorophenyl)-1H-pyrazolo[4,3-c]quinoline

>  <Smile>  (42) 
Fc(cc1)ccc1-n(c(c1ccc2)c3cnc1c2F)nc3-c1cccc(Br)c1

>  <Color>  (42) 
NOT COLORED

>  <Collection>  (42) 
DC

>  <InChI>  (42) 
InChI=1S/C22H12BrF2N3/c23-14-4-1-3-13(11-14)20-18-12-26-21-17(5-2-6-19(21)25)22(18)28(27-20)16-9-7-15(24)8-10-16/h1-12H

>  <InChI Key>  (42) 
PLWYDPINYRKPOI-UHFFFAOYSA-N

>  <PERCENTSP3>  (42) 
0

>  <Link>  (42) 
https://www.chemdiv.com/catalog/screening-compounds/compound-C350-0859/

>  <MFCDNUMBER>  (42) 
MFCD14750713

>  <CLNUMBER>  (42) 
CL4130

>  <STEREO>  (42) 
ACHIRAL

>  <State>  (42) 
Solid

>  <Similarity score>  (42) 
0.21

$$$$
1-(3-chloro-4-fluorophenyl)-6,8-difluoro-3-phenyl-1H-pyrazolo[4,3-c]quinoline
     RDKit          2D

 29 33  0  0  0  0  0  0  0  0999 V2000
   -0.3339    0.5180    0.0000 N   0  0  0  0  0  0  0  0  0  0  0  0
    0.3171   -0.9549    0.0000 C   0  0  0  0  0  0  0  0  0  0  0  0
   -0.5463   -0.4563    0.0000 C   0  0  0  0  0  0  0  0  0  0  0  0
    0.6510    0.6242    0.0000 N   0  0  0  0  0  0  0  0  0  0  0  0
    1.0588   -0.2901    0.0000 C   0  0  0  0  0  0  0  0  0  0  0  0
   -1.4082   -0.9704    0.0000 C   0  0  0  0  0  0  0  0  0  0  0  0
   -1.4082   -1.9707    0.0000 C   0  0  0  0  0  0  0  0  0  0  0  0
   -0.5356   -2.4695    0.0000 N   0  0  0  0  0  0  0  0  0  0  0  0
   -1.0004    1.2597    0.0000 C   0  0  0  0  0  0  0  0  0  0  0  0
    0.3324   -1.9707    0.0000 C   0  0  0  0  0  0  0  0  0  0  0  0
   -2.2764   -2.4804    0.0000 C   0  0  0  0  0  0  0  0  0  0  0  0
   -1.9684    1.0473    0.0000 C   0  0  0  0  0  0  0  0  0  0  0  0
   -2.6333    1.7845    0.0000 C   0  0  0  0  0  0  0  0  0  0  0  0
   -3.1489   -1.9800    0.0000 C   0  0  0  0  0  0  0  0  0  0  0  0
   -2.2764   -0.4656    0.0000 C   0  0  0  0  0  0  0  0  0  0  0  0
   -3.1489   -0.9704    0.0000 C   0  0  0  0  0  0  0  0  0  0  0  0
    2.0439   -0.4871    0.0000 C   0  0  0  0  0  0  0  0  0  0  0  0
   -2.3317    2.7279    0.0000 C   0  0  0  0  0  0  0  0  0  0  0  0
   -0.6973    2.1986    0.0000 C   0  0  0  0  0  0  0  0  0  0  0  0
   -1.3528    2.9358    0.0000 C   0  0  0  0  0  0  0  0  0  0  0  0
   -2.2870   -3.4698    0.0000 F   0  0  0  0  0  0  0  0  0  0  0  0
   -3.6076    1.5722    0.0000 Cl  0  0  0  0  0  0  0  0  0  0  0  0
   -2.9966    3.4698    0.0000 F   0  0  0  0  0  0  0  0  0  0  0  0
   -4.0123   -0.4718    0.0000 F   0  0  0  0  0  0  0  0  0  0  0  0
    2.3609   -1.4397    0.0000 C   0  0  0  0  0  0  0  0  0  0  0  0
    2.7103    0.2609    0.0000 C   0  0  0  0  0  0  0  0  0  0  0  0
    3.6891    0.0638    0.0000 C   0  0  0  0  0  0  0  0  0  0  0  0
    3.3460   -1.6476    0.0000 C   0  0  0  0  0  0  0  0  0  0  0  0
    4.0123   -0.8949    0.0000 C   0  0  0  0  0  0  0  0  0  0  0  0
  2  3  2  0
  2  5  1  0
  1  3  1  0
  1  4  1  0
  4  5  2  0
  3  6  1  0
  6  7  1  0
  7  8  1  0
  1  9  1  0
  2 10  1  0
  8 10  2  0
  7 11  2  0
  9 12  1  0
 12 13  2  0
 14 16  2  0
 11 14  1  0
  6 15  2  0
 15 16  1  0
  5 17  1  0
 18 20  2  0
 13 18  1  0
  9 19  2  0
 19 20  1  0
 11 21  1  0
 13 22  1  0
 18 23  1  0
 16 24  1  0
 17 25  2  0
 17 26  1  0
 26 27  2  0
 25 28  1  0
 28 29  2  0
 27 29  1  0
M  END
>  <IDNUMBER>  (43) 
C350-0098

>  <available>  (43) 
56

>  <H_acceptor>  (43) 
2

>  <H_donor>  (43) 
0

>  <B_rotN>  (43) 
2

>  <N_O>  (43) 
3

>  <logP>  (43) 
5.9114

>  <logD>  (43) 
5.9114

>  <logSw>  (43) 
-6.4075

>  <PSA>  (43) 
23.4803

>  <pKa_ma>  (43) 
14

>  <pKa_mb>  (43) 
2.2647

>  <N_Chirals>  (43) 
0

>  <Name>  (43) 
1-(3-chloro-4-fluorophenyl)-6,8-difluoro-3-phenyl-1H-pyrazolo[4,3-c]quinoline

>  <Smile>  (43) 
Fc(cc12)cc(F)c1ncc1c2n(-c(cc2)cc(Cl)c2F)nc1-c1ccccc1

>  <Color>  (43) 
NOT COLORED

>  <Collection>  (43) 
DC

>  <InChI>  (43) 
InChI=1S/C22H11ClF3N3/c23-17-10-14(6-7-18(17)25)29-22-15-8-13(24)9-19(26)21(15)27-11-16(22)20(28-29)12-4-2-1-3-5-12/h1-11H

>  <InChI Key>  (43) 
OKMBUHWMGSXEED-UHFFFAOYSA-N

>  <PERCENTSP3>  (43) 
0

>  <Link>  (43) 
https://www.chemdiv.com/catalog/screening-compounds/compound-C350-0098/

>  <MFCDNUMBER>  (43) 
MFCD14750125

>  <CLNUMBER>  (43) 
CL4130

>  <STEREO>  (43) 
ACHIRAL

>  <State>  (43) 
Solid

>  <Similarity score>  (43) 
0.21

$$$$
2-(2-fluorophenyl)-N,N-dipropylquinazolin-4-amine
     RDKit          2D

 24 26  0  0  0  0  0  0  0  0999 V2000
    0.4507   -0.2455    0.0000 N   0  0  0  0  0  0  0  0  0  0  0  0
    0.4302   -1.2476    0.0000 C   0  0  0  0  0  0  0  0  0  0  0  0
   -0.4149    0.2556    0.0000 C   0  0  0  0  0  0  0  0  0  0  0  0
   -0.4350   -1.7435    0.0000 N   0  0  0  0  0  0  0  0  0  0  0  0
   -1.2853   -0.2455    0.0000 C   0  0  0  0  0  0  0  0  0  0  0  0
    1.2857   -1.7640    0.0000 C   0  0  0  0  0  0  0  0  0  0  0  0
   -1.3006   -1.2323    0.0000 C   0  0  0  0  0  0  0  0  0  0  0  0
   -0.4149    1.2577    0.0000 N   0  0  0  0  0  0  0  0  0  0  0  0
    2.1509   -1.2730    0.0000 C   0  0  0  0  0  0  0  0  0  0  0  0
    2.1509   -0.2709    0.0000 F   0  0  0  0  0  0  0  0  0  0  0  0
   -2.1356    0.2709    0.0000 C   0  0  0  0  0  0  0  0  0  0  0  0
    1.2704   -2.7658    0.0000 C   0  0  0  0  0  0  0  0  0  0  0  0
   -2.1610   -1.7181    0.0000 C   0  0  0  0  0  0  0  0  0  0  0  0
    0.4656    1.7588    0.0000 C   0  0  0  0  0  0  0  0  0  0  0  0
   -1.2805    1.7588    0.0000 C   0  0  0  0  0  0  0  0  0  0  0  0
    3.0165   -1.7789    0.0000 C   0  0  0  0  0  0  0  0  0  0  0  0
    0.4757    2.7609    0.0000 C   0  0  0  0  0  0  0  0  0  0  0  0
   -1.2704    2.7658    0.0000 C   0  0  0  0  0  0  0  0  0  0  0  0
   -3.0012   -0.2153    0.0000 C   0  0  0  0  0  0  0  0  0  0  0  0
    2.1308   -3.2769    0.0000 C   0  0  0  0  0  0  0  0  0  0  0  0
   -3.0165   -1.2170    0.0000 C   0  0  0  0  0  0  0  0  0  0  0  0
    1.3465    3.2519    0.0000 C   0  0  0  0  0  0  0  0  0  0  0  0
   -2.1356    3.2769    0.0000 C   0  0  0  0  0  0  0  0  0  0  0  0
    3.0012   -2.7811    0.0000 C   0  0  0  0  0  0  0  0  0  0  0  0
  1  2  1  0
  1  3  2  0
  2  4  2  0
  4  7  1  0
  3  5  1  0
  2  6  1  0
  5  7  1  0
  3  8  1  0
  6  9  1  0
  9 10  1  0
  5 11  2  0
  6 12  2  0
  7 13  2  0
 13 21  1  0
  8 14  1  0
  8 15  1  0
  9 16  2  0
 14 17  1  0
 15 18  1  0
 11 19  1  0
 12 20  1  0
 19 21  2  0
 17 22  1  0
 18 23  1  0
 20 24  2  0
 16 24  1  0
M  END
>  <IDNUMBER>  (44) 
3909-9057

>  <available>  (44) 
1

>  <H_acceptor>  (44) 
2

>  <H_donor>  (44) 
0

>  <B_rotN>  (44) 
6

>  <N_O>  (44) 
3

>  <logP>  (44) 
5.5423

>  <logD>  (44) 
5.2729

>  <logSw>  (44) 
-5.998

>  <PSA>  (44) 
21.4295

>  <pKa_ma>  (44) 
23.0057

>  <pKa_mb>  (44) 
7.3342

>  <N_Chirals>  (44) 
0

>  <Name>  (44) 
2-(2-fluorophenyl)-N,N-dipropylquinazolin-4-amine

>  <Smile>  (44) 
CCCN(CCC)c1nc(-c(cccc2)c2F)nc2ccccc12

>  <Color>  (44) 
NOT COLORED

>  <Collection>  (44) 
NC

>  <InChI>  (44) 
InChI=1S/C20H22FN3/c1-3-13-24(14-4-2)20-16-10-6-8-12-18(16)22-19(23-20)15-9-5-7-11-17(15)21/h5-12H,3-4,13-14H2,1-2H3

>  <InChI Key>  (44) 
CERZUSYCGVPYPZ-UHFFFAOYSA-N

>  <PERCENTSP3>  (44) 
30

>  <Link>  (44) 
https://www.chemdiv.com/catalog/screening-compounds/compound-3909-9057/

>  <MFCDNUMBER>  (44) 
MFCD03675480

>  <CLNUMBER>  (44) 
CL2243

>  <STEREO>  (44) 
ACHIRAL

>  <State>  (44) 
Solid

>  <Similarity score>  (44) 
0.21

$$$$
3-(4-chlorophenyl)-6,8-difluoro-1-(4-fluorophenyl)-1H-pyrazolo[4,3-c]quinoline
     RDKit          2D

 29 33  0  0  0  0  0  0  0  0999 V2000
   -0.8749    0.4623    0.0000 N   0  0  0  0  0  0  0  0  0  0  0  0
   -0.2127   -1.0172    0.0000 C   0  0  0  0  0  0  0  0  0  0  0  0
   -1.0873   -0.5034    0.0000 C   0  0  0  0  0  0  0  0  0  0  0  0
    0.1197    0.5571    0.0000 N   0  0  0  0  0  0  0  0  0  0  0  0
    0.5530   -0.3362    0.0000 C   0  0  0  0  0  0  0  0  0  0  0  0
   -1.9664   -1.0172    0.0000 C   0  0  0  0  0  0  0  0  0  0  0  0
   -1.9664   -2.0075    0.0000 C   0  0  0  0  0  0  0  0  0  0  0  0
   -1.0873   -2.4945    0.0000 N   0  0  0  0  0  0  0  0  0  0  0  0
   -0.2127   -2.0075    0.0000 C   0  0  0  0  0  0  0  0  0  0  0  0
   -2.8371   -2.4945    0.0000 C   0  0  0  0  0  0  0  0  0  0  0  0
   -1.5082    1.2298    0.0000 C   0  0  0  0  0  0  0  0  0  0  0  0
   -3.7099   -2.0075    0.0000 C   0  0  0  0  0  0  0  0  0  0  0  0
    1.5516   -0.4395    0.0000 C   0  0  0  0  0  0  0  0  0  0  0  0
   -2.8371   -0.5034    0.0000 C   0  0  0  0  0  0  0  0  0  0  0  0
   -3.7099   -1.0172    0.0000 C   0  0  0  0  0  0  0  0  0  0  0  0
   -2.4904    1.0647    0.0000 C   0  0  0  0  0  0  0  0  0  0  0  0
   -1.1783    2.1522    0.0000 C   0  0  0  0  0  0  0  0  0  0  0  0
    1.9601   -1.3328    0.0000 C   0  0  0  0  0  0  0  0  0  0  0  0
    2.1252    0.3880    0.0000 C   0  0  0  0  0  0  0  0  0  0  0  0
   -2.8267   -3.4911    0.0000 F   0  0  0  0  0  0  0  0  0  0  0  0
   -2.8061    2.7256    0.0000 C   0  0  0  0  0  0  0  0  0  0  0  0
    3.5738   -0.6086    0.0000 C   0  0  0  0  0  0  0  0  0  0  0  0
   -4.5703   -0.5200    0.0000 F   0  0  0  0  0  0  0  0  0  0  0  0
    3.1362    0.2951    0.0000 C   0  0  0  0  0  0  0  0  0  0  0  0
   -3.1425    1.8055    0.0000 C   0  0  0  0  0  0  0  0  0  0  0  0
    2.9691   -1.4318    0.0000 C   0  0  0  0  0  0  0  0  0  0  0  0
   -1.8097    2.9031    0.0000 C   0  0  0  0  0  0  0  0  0  0  0  0
    4.5703   -0.7138    0.0000 Cl  0  0  0  0  0  0  0  0  0  0  0  0
   -3.4396    3.4911    0.0000 F   0  0  0  0  0  0  0  0  0  0  0  0
  2  3  2  0
  1  3  1  0
  1  4  1  0
  4  5  2  0
  2  5  1  0
  3  6  1  0
  6  7  1  0
  7  8  1  0
  2  9  1  0
  8  9  2  0
  7 10  2  0
  1 11  1  0
 12 15  2  0
 10 12  1  0
  5 13  1  0
  6 14  2  0
 14 15  1  0
 11 16  2  0
 11 17  1  0
 13 18  2  0
 13 19  1  0
 10 20  1  0
 21 27  1  0
 22 24  1  0
 22 26  2  0
 15 23  1  0
 19 24  2  0
 16 25  1  0
 21 25  2  0
 18 26  1  0
 17 27  2  0
 22 28  1  0
 21 29  1  0
M  END
>  <IDNUMBER>  (45) 
C350-0760

>  <available>  (45) 
103

>  <H_acceptor>  (45) 
2

>  <H_donor>  (45) 
0

>  <B_rotN>  (45) 
2

>  <N_O>  (45) 
3

>  <logP>  (45) 
6.0505

>  <logD>  (45) 
6.0505

>  <logSw>  (45) 
-6.6598

>  <PSA>  (45) 
23.4803

>  <pKa_ma>  (45) 
14

>  <pKa_mb>  (45) 
2.2647

>  <N_Chirals>  (45) 
0

>  <Name>  (45) 
3-(4-chlorophenyl)-6,8-difluoro-1-(4-fluorophenyl)-1H-pyrazolo[4,3-c]quinoline

>  <Smile>  (45) 
Fc(cc1)ccc1-n(c(c1cc(F)c2)c3cnc1c2F)nc3-c(cc1)ccc1Cl

>  <Color>  (45) 
NOT COLORED

>  <Collection>  (45) 
DC

>  <InChI>  (45) 
InChI=1S/C22H11ClF3N3/c23-13-3-1-12(2-4-13)20-18-11-27-21-17(9-15(25)10-19(21)26)22(18)29(28-20)16-7-5-14(24)6-8-16/h1-11H

>  <InChI Key>  (45) 
LMXRSQUMJOHGTP-UHFFFAOYSA-N

>  <PERCENTSP3>  (45) 
0

>  <Link>  (45) 
https://www.chemdiv.com/catalog/screening-compounds/compound-C350-0760/

>  <MFCDNUMBER>  (45) 
MFCD14750652

>  <CLNUMBER>  (45) 
CL4130

>  <STEREO>  (45) 
ACHIRAL

>  <State>  (45) 
Solid

>  <Similarity score>  (45) 
0.21

$$$$
6,8-difluoro-3-(4-fluorophenyl)-1-(4-methylphenyl)-1H-pyrazolo[4,3-c]quinoline
     RDKit          2D

 29 33  0  0  0  0  0  0  0  0999 V2000
   -0.8203    0.5260    0.0000 N   0  0  0  0  0  0  0  0  0  0  0  0
   -0.1637   -0.9529    0.0000 C   0  0  0  0  0  0  0  0  0  0  0  0
   -1.0325   -0.4531    0.0000 C   0  0  0  0  0  0  0  0  0  0  0  0
    0.1703    0.6321    0.0000 N   0  0  0  0  0  0  0  0  0  0  0  0
    0.5791   -0.2764    0.0000 C   0  0  0  0  0  0  0  0  0  0  0  0
   -1.8901   -0.9571    0.0000 C   0  0  0  0  0  0  0  0  0  0  0  0
   -1.8901   -1.9676    0.0000 C   0  0  0  0  0  0  0  0  0  0  0  0
   -1.0280   -2.4671    0.0000 N   0  0  0  0  0  0  0  0  0  0  0  0
   -0.1547   -1.9586    0.0000 C   0  0  0  0  0  0  0  0  0  0  0  0
   -2.7701   -2.4738    0.0000 C   0  0  0  0  0  0  0  0  0  0  0  0
   -1.4878    1.2688    0.0000 C   0  0  0  0  0  0  0  0  0  0  0  0
   -3.6389   -1.9676    0.0000 C   0  0  0  0  0  0  0  0  0  0  0  0
    1.5630   -0.4841    0.0000 C   0  0  0  0  0  0  0  0  0  0  0  0
   -2.7701   -0.4576    0.0000 C   0  0  0  0  0  0  0  0  0  0  0  0
   -3.6344   -0.9571    0.0000 C   0  0  0  0  0  0  0  0  0  0  0  0
   -1.1784    2.2086    0.0000 C   0  0  0  0  0  0  0  0  0  0  0  0
   -2.4517    1.0566    0.0000 C   0  0  0  0  0  0  0  0  0  0  0  0
    2.2239    0.2698    0.0000 C   0  0  0  0  0  0  0  0  0  0  0  0
    1.8769   -1.4370    0.0000 C   0  0  0  0  0  0  0  0  0  0  0  0
   -2.7701   -3.4686    0.0000 F   0  0  0  0  0  0  0  0  0  0  0  0
    3.5283   -0.8821    0.0000 C   0  0  0  0  0  0  0  0  0  0  0  0
   -4.5032   -0.4576    0.0000 F   0  0  0  0  0  0  0  0  0  0  0  0
    3.1988    0.0730    0.0000 C   0  0  0  0  0  0  0  0  0  0  0  0
    2.8605   -1.6402    0.0000 C   0  0  0  0  0  0  0  0  0  0  0  0
   -1.8458    2.9492    0.0000 C   0  0  0  0  0  0  0  0  0  0  0  0
   -3.0773    1.7729    0.0000 C   0  0  0  0  0  0  0  0  0  0  0  0
   -2.8141    2.7390    0.0000 C   0  0  0  0  0  0  0  0  0  0  0  0
    4.5032   -1.0898    0.0000 F   0  0  0  0  0  0  0  0  0  0  0  0
   -3.4972    3.4686    0.0000 C   0  0  0  0  0  0  0  0  0  0  0  0
  2  3  2  0
  2  5  1  0
  1  3  1  0
  1  4  1  0
  4  5  2  0
  3  6  1  0
  6  7  1  0
  7  8  1  0
  2  9  1  0
  8  9  2  0
  7 10  2  0
  1 11  1  0
 12 15  2  0
 10 12  1  0
  5 13  1  0
  6 14  2  0
 14 15  1  0
 11 16  2  0
 11 17  1  0
 13 18  1  0
 13 19  2  0
 10 20  1  0
 21 24  2  0
 15 22  1  0
 18 23  2  0
 21 23  1  0
 19 24  1  0
 16 25  1  0
 25 27  2  0
 17 26  2  0
 26 27  1  0
 21 28  1  0
 27 29  1  0
M  END
>  <IDNUMBER>  (46) 
C350-0429

>  <available>  (46) 
80

>  <H_acceptor>  (46) 
2

>  <H_donor>  (46) 
0

>  <B_rotN>  (46) 
2

>  <N_O>  (46) 
3

>  <logP>  (46) 
5.8792

>  <logD>  (46) 
5.8791

>  <logSw>  (46) 
-5.6923

>  <PSA>  (46) 
23.4803

>  <pKa_ma>  (46) 
28.3737

>  <pKa_mb>  (46) 
2.2647

>  <N_Chirals>  (46) 
0

>  <Name>  (46) 
6,8-difluoro-3-(4-fluorophenyl)-1-(4-methylphenyl)-1H-pyrazolo[4,3-c]quinoline

>  <Smile>  (46) 
Cc(cc1)ccc1-n(c1c(cc(cc2F)F)c2ncc11)nc1-c(cc1)ccc1F

>  <Color>  (46) 
NOT COLORED

>  <Collection>  (46) 
DC

>  <InChI>  (46) 
InChI=1S/C23H14F3N3/c1-13-2-8-17(9-3-13)29-23-18-10-16(25)11-20(26)22(18)27-12-19(23)21(28-29)14-4-6-15(24)7-5-14/h2-12H,1H3

>  <InChI Key>  (46) 
GUACDNVINLDAQX-UHFFFAOYSA-N

>  <PERCENTSP3>  (46) 
4.3

>  <Link>  (46) 
https://www.chemdiv.com/catalog/screening-compounds/compound-C350-0429/

>  <MFCDNUMBER>  (46) 
MFCD14750401

>  <CLNUMBER>  (46) 
CL4130

>  <STEREO>  (46) 
ACHIRAL

>  <State>  (46) 
Solid

>  <Similarity score>  (46) 
0.21

$$$$
1-(4-chlorophenyl)-6,8-difluoro-3-(4-fluorophenyl)-1H-pyrazolo[4,3-c]quinoline
     RDKit          2D

 29 33  0  0  0  0  0  0  0  0999 V2000
   -0.8194    0.5200    0.0000 N   0  0  0  0  0  0  0  0  0  0  0  0
   -0.1635   -0.9574    0.0000 C   0  0  0  0  0  0  0  0  0  0  0  0
   -1.0313   -0.4582    0.0000 C   0  0  0  0  0  0  0  0  0  0  0  0
    0.1701    0.6259    0.0000 N   0  0  0  0  0  0  0  0  0  0  0  0
    0.5786   -0.2817    0.0000 C   0  0  0  0  0  0  0  0  0  0  0  0
   -1.8880   -0.9616    0.0000 C   0  0  0  0  0  0  0  0  0  0  0  0
   -1.8880   -1.9709    0.0000 C   0  0  0  0  0  0  0  0  0  0  0  0
   -1.0268   -2.4699    0.0000 N   0  0  0  0  0  0  0  0  0  0  0  0
   -0.1545   -1.9619    0.0000 C   0  0  0  0  0  0  0  0  0  0  0  0
   -2.7671   -2.4765    0.0000 C   0  0  0  0  0  0  0  0  0  0  0  0
   -1.4861    1.2619    0.0000 C   0  0  0  0  0  0  0  0  0  0  0  0
   -3.6348   -1.9709    0.0000 C   0  0  0  0  0  0  0  0  0  0  0  0
    1.5613   -0.4892    0.0000 C   0  0  0  0  0  0  0  0  0  0  0  0
   -2.7671   -0.4627    0.0000 C   0  0  0  0  0  0  0  0  0  0  0  0
   -3.6303   -0.9616    0.0000 C   0  0  0  0  0  0  0  0  0  0  0  0
   -1.1771    2.2004    0.0000 C   0  0  0  0  0  0  0  0  0  0  0  0
   -2.4490    1.0499    0.0000 C   0  0  0  0  0  0  0  0  0  0  0  0
    2.2214    0.2638    0.0000 C   0  0  0  0  0  0  0  0  0  0  0  0
    1.8749   -1.4410    0.0000 C   0  0  0  0  0  0  0  0  0  0  0  0
   -2.7671   -3.4702    0.0000 F   0  0  0  0  0  0  0  0  0  0  0  0
    3.5243   -0.8866    0.0000 C   0  0  0  0  0  0  0  0  0  0  0  0
   -2.8109    2.7304    0.0000 C   0  0  0  0  0  0  0  0  0  0  0  0
   -4.4982   -0.4627    0.0000 F   0  0  0  0  0  0  0  0  0  0  0  0
    3.1952    0.0673    0.0000 C   0  0  0  0  0  0  0  0  0  0  0  0
   -3.1157    1.7810    0.0000 C   0  0  0  0  0  0  0  0  0  0  0  0
    2.8573   -1.6441    0.0000 C   0  0  0  0  0  0  0  0  0  0  0  0
   -1.8438    2.9404    0.0000 C   0  0  0  0  0  0  0  0  0  0  0  0
    4.4982   -1.0942    0.0000 F   0  0  0  0  0  0  0  0  0  0  0  0
   -3.4824    3.4702    0.0000 Cl  0  0  0  0  0  0  0  0  0  0  0  0
  2  3  2  0
  2  5  1  0
  1  3  1  0
  1  4  1  0
  4  5  2  0
  3  6  1  0
  6  7  1  0
  7  8  1  0
  2  9  1  0
  8  9  2  0
  7 10  2  0
  1 11  1  0
 12 15  2  0
 10 12  1  0
  5 13  1  0
  6 14  2  0
 14 15  1  0
 11 16  2  0
 11 17  1  0
 13 18  1  0
 13 19  2  0
 10 20  1  0
 21 26  2  0
 22 25  1  0
 15 23  1  0
 18 24  2  0
 21 24  1  0
 17 25  2  0
 19 26  1  0
 16 27  1  0
 22 27  2  0
 21 28  1  0
 22 29  1  0
M  END
>  <IDNUMBER>  (47) 
C350-0428

>  <available>  (47) 
97

>  <H_acceptor>  (47) 
2

>  <H_donor>  (47) 
0

>  <B_rotN>  (47) 
2

>  <N_O>  (47) 
3

>  <logP>  (47) 
6.0505

>  <logD>  (47) 
6.0505

>  <logSw>  (47) 
-6.6598

>  <PSA>  (47) 
23.4803

>  <pKa_ma>  (47) 
14

>  <pKa_mb>  (47) 
2.2647

>  <N_Chirals>  (47) 
0

>  <Name>  (47) 
1-(4-chlorophenyl)-6,8-difluoro-3-(4-fluorophenyl)-1H-pyrazolo[4,3-c]quinoline

>  <Smile>  (47) 
Fc(cc1)ccc1-c(c1c2c3cc(F)cc(F)c3nc1)nn2-c(cc1)ccc1Cl

>  <Color>  (47) 
NOT COLORED

>  <Collection>  (47) 
DC

>  <InChI>  (47) 
InChI=1S/C22H11ClF3N3/c23-13-3-7-16(8-4-13)29-22-17-9-15(25)10-19(26)21(17)27-11-18(22)20(28-29)12-1-5-14(24)6-2-12/h1-11H

>  <InChI Key>  (47) 
OFETZQWCIWAGBD-UHFFFAOYSA-N

>  <PERCENTSP3>  (47) 
0

>  <Link>  (47) 
https://www.chemdiv.com/catalog/screening-compounds/compound-C350-0428/

>  <MFCDNUMBER>  (47) 
MFCD14750400

>  <CLNUMBER>  (47) 
CL4130

>  <STEREO>  (47) 
ACHIRAL

>  <State>  (47) 
Solid

>  <Similarity score>  (47) 
0.21

$$$$
4-(3-methoxy-4-propoxyphenyl)-6-(4-methylpiperazin-1-yl)-2-(methylsulfanyl)pyrim
     RDKit          2D

 29 31  0  0  0  0  0  0  0  0999 V2000
   -1.9136    0.5148    0.0000 C   0  0  0  0  0  0  0  0  0  0  0  0
   -1.0380   -0.0104    0.0000 C   0  0  0  0  0  0  0  0  0  0  0  0
   -2.7891   -0.0104    0.0000 N   0  0  0  0  0  0  0  0  0  0  0  0
   -1.0380   -1.0278    0.0000 C   0  0  0  0  0  0  0  0  0  0  0  0
   -2.7891   -1.0278    0.0000 C   0  0  0  0  0  0  0  0  0  0  0  0
   -1.9136   -1.5405    0.0000 N   0  0  0  0  0  0  0  0  0  0  0  0
   -1.9219    1.5405    0.0000 N   0  0  0  0  0  0  0  0  0  0  0  0
   -0.1458   -1.5405    0.0000 C   0  0  0  0  0  0  0  0  0  0  0  0
   -0.1458    0.5023    0.0000 C   0  0  0  0  0  0  0  0  0  0  0  0
    0.7380   -0.0104    0.0000 N   0  0  0  0  0  0  0  0  0  0  0  0
   -0.1458   -2.5660    0.0000 C   0  0  0  0  0  0  0  0  0  0  0  0
   -1.8969    3.6000    0.0000 N   0  0  0  0  0  0  0  0  0  0  0  0
    0.7380   -3.0789    0.0000 C   0  0  0  0  0  0  0  0  0  0  0  0
    1.6302   -2.5660    0.0000 C   0  0  0  0  0  0  0  0  0  0  0  0
   -1.0215    2.0533    0.0000 C   0  0  0  0  0  0  0  0  0  0  0  0
   -2.8016    2.0491    0.0000 C   0  0  0  0  0  0  0  0  0  0  0  0
    0.7380   -1.0278    0.0000 C   0  0  0  0  0  0  0  0  0  0  0  0
   -3.6855   -1.5405    0.0000 S   0  0  0  0  0  0  0  0  0  0  0  0
    1.6177   -1.5405    0.0000 C   0  0  0  0  0  0  0  0  0  0  0  0
   -2.8016    3.0871    0.0000 C   0  0  0  0  0  0  0  0  0  0  0  0
   -1.0215    3.0871    0.0000 C   0  0  0  0  0  0  0  0  0  0  0  0
    0.7298   -4.0879    0.0000 O   0  0  0  0  0  0  0  0  0  0  0  0
    2.3555   -2.9789    0.0000 O   0  0  0  0  0  0  0  0  0  0  0  0
   -1.8969    4.6006    0.0000 C   0  0  0  0  0  0  0  0  0  0  0  0
   -4.5652   -1.0278    0.0000 C   0  0  0  0  0  0  0  0  0  0  0  0
    3.0935   -2.5536    0.0000 C   0  0  0  0  0  0  0  0  0  0  0  0
    1.6177   -4.6006    0.0000 C   0  0  0  0  0  0  0  0  0  0  0  0
    3.8314   -2.9789    0.0000 C   0  0  0  0  0  0  0  0  0  0  0  0
    4.5652   -2.5619    0.0000 C   0  0  0  0  0  0  0  0  0  0  0  0
  1  2  1  0
  1  3  2  0
  2  4  2  0
  3  5  1  0
  5  6  2  0
  4  6  1  0
  1  7  1  0
  4  8  1  0
  2  9  1  0
  9 10  3  0
  8 11  2  0
 12 20  1  0
 12 21  1  0
 11 13  1  0
 13 14  2  0
 14 19  1  0
  7 15  1  0
  7 16  1  0
  8 17  1  0
  5 18  1  0
 17 19  2  0
 16 20  1  0
 15 21  1  0
 13 22  1  0
 14 23  1  0
 12 24  1  0
 18 25  1  0
 23 26  1  0
 22 27  1  0
 26 28  1  0
 28 29  1  0
M  END
>  <IDNUMBER>  (48) 
D490-0162

>  <available>  (48) 
82

>  <H_acceptor>  (48) 
7

>  <H_donor>  (48) 
0

>  <B_rotN>  (48) 
8

>  <N_O>  (48) 
7

>  <logP>  (48) 
3.9884

>  <logD>  (48) 
3.7177

>  <logSw>  (48) 
-4.2962

>  <PSA>  (48) 
57.084

>  <pKa_ma>  (48) 
22.8179

>  <pKa_mb>  (48) 
7.337

>  <N_Chirals>  (48) 
0

>  <Name>  (48) 
4-(3-methoxy-4-propoxyphenyl)-6-(4-methylpiperazin-1-yl)-2-(methylsulfanyl)pyrimidine-5-carbonitrile

>  <Smile>  (48) 
CCCOc(ccc(-c1nc(SC)nc(N2CCN(C)CC2)c1C#N)c1)c1OC

>  <Color>  (48) 
NOT COLORED

>  <Collection>  (48) 
DC

>  <InChI>  (48) 
InChI=1S/C21H27N5O2S/c1-5-12-28-17-7-6-15(13-18(17)27-3)19-16(14-22)20(24-21(23-19)29-4)26-10-8-25(2)9-11-26/h6-7,13H,5,8-12H2,1-4H3

>  <InChI Key>  (48) 
OIBHQODDBBWDKC-UHFFFAOYSA-N

>  <PERCENTSP3>  (48) 
47.6

>  <Link>  (48) 
https://www.chemdiv.com/catalog/screening-compounds/compound-D490-0162/

>  <MFCDNUMBER>  (48) 
MFCD10090309

>  <CLNUMBER>  (48) 
CL6864

>  <STEREO>  (48) 
ACHIRAL

>  <State>  (48) 
Solid

>  <Similarity score>  (48) 
0.21

$$$$
3-(benzenesulfonyl)-4-(3,5-dimethylpiperidin-1-yl)-6-ethoxyquinoline
     RDKit          2D

 30 33  0  0  0  0  0  0  0  0999 V2000
    2.1511   -0.5032    0.0000 S   0  0  0  0  0  0  0  0  0  0  0  0
    1.2748   -1.0022    0.0000 C   0  0  0  0  0  0  0  0  0  0  0  0
    0.4123   -0.5032    0.0000 C   0  0  0  0  0  0  0  0  0  0  0  0
    0.4123    0.4977    0.0000 N   0  0  0  0  0  0  0  0  0  0  0  0
   -0.4503   -1.0022    0.0000 C   0  0  0  0  0  0  0  0  0  0  0  0
    1.2748   -2.0005    0.0000 C   0  0  0  0  0  0  0  0  0  0  0  0
    0.4123   -2.4995    0.0000 N   0  0  0  0  0  0  0  0  0  0  0  0
   -0.4503   -2.0005    0.0000 C   0  0  0  0  0  0  0  0  0  0  0  0
    1.6490    0.3648    0.0000 O   0  0  0  0  0  0  0  0  0  0  0  0
    2.6499   -1.3765    0.0000 O   0  0  0  0  0  0  0  0  0  0  0  0
   -0.4503    0.9996    0.0000 C   0  0  0  0  0  0  0  0  0  0  0  0
    1.2829    0.9996    0.0000 C   0  0  0  0  0  0  0  0  0  0  0  0
    3.0299   -0.0013    0.0000 C   0  0  0  0  0  0  0  0  0  0  0  0
   -1.3128   -0.5032    0.0000 C   0  0  0  0  0  0  0  0  0  0  0  0
    1.2829    1.9950    0.0000 C   0  0  0  0  0  0  0  0  0  0  0  0
   -0.4503    1.9950    0.0000 C   0  0  0  0  0  0  0  0  0  0  0  0
   -1.3128   -2.4995    0.0000 C   0  0  0  0  0  0  0  0  0  0  0  0
   -2.1754   -1.0022    0.0000 C   0  0  0  0  0  0  0  0  0  0  0  0
    0.4123    2.4968    0.0000 C   0  0  0  0  0  0  0  0  0  0  0  0
   -2.1754   -2.0005    0.0000 C   0  0  0  0  0  0  0  0  0  0  0  0
   -3.0381   -0.5032    0.0000 O   0  0  0  0  0  0  0  0  0  0  0  0
    3.8924   -0.5139    0.0000 C   0  0  0  0  0  0  0  0  0  0  0  0
    3.0299    0.9996    0.0000 C   0  0  0  0  0  0  0  0  0  0  0  0
   -1.3128    2.4968    0.0000 C   0  0  0  0  0  0  0  0  0  0  0  0
    2.1455    2.4995    0.0000 C   0  0  0  0  0  0  0  0  0  0  0  0
   -3.9086   -1.0022    0.0000 C   0  0  0  0  0  0  0  0  0  0  0  0
   -4.7712   -0.5032    0.0000 C   0  0  0  0  0  0  0  0  0  0  0  0
    3.8924    1.4961    0.0000 C   0  0  0  0  0  0  0  0  0  0  0  0
    4.7549   -0.0176    0.0000 C   0  0  0  0  0  0  0  0  0  0  0  0
    4.7712    0.9833    0.0000 C   0  0  0  0  0  0  0  0  0  0  0  0
  1  2  1  0
  2  3  2  0
  3  4  1  0
  3  5  1  0
  2  6  1  0
  6  7  2  0
  7  8  1  0
  5  8  1  0
  1  9  2  0
  1 10  2  0
  4 11  1  0
  4 12  1  0
  1 13  1  0
  5 14  2  0
 12 15  1  0
 11 16  1  0
 16 19  1  0
  8 17  2  0
 14 18  1  0
 18 20  2  0
 15 19  1  0
 17 20  1  0
 18 21  1  0
 13 22  2  0
 13 23  1  0
 16 24  1  0
 15 25  1  0
 21 26  1  0
 26 27  1  0
 23 28  2  0
 22 29  1  0
 28 30  1  0
 29 30  2  0
M  END
>  <IDNUMBER>  (49) 
C769-0060

>  <available>  (49) 
46

>  <H_acceptor>  (49) 
6

>  <H_donor>  (49) 
0

>  <B_rotN>  (49) 
5

>  <N_O>  (49) 
5

>  <logP>  (49) 
5.4472

>  <logD>  (49) 
5.4471

>  <logSw>  (49) 
-5.5339

>  <PSA>  (49) 
48.433

>  <pKa_ma>  (49) 
24.8321

>  <pKa_mb>  (49) 
3.6445

>  <N_Chirals>  (49) 
2

>  <Name>  (49) 
3-(benzenesulfonyl)-4-(3,5-dimethylpiperidin-1-yl)-6-ethoxyquinoline

>  <Smile>  (49) 
CCOc(cc12)ccc2ncc(S(c2ccccc2)(=O)=O)c1N1CC(C)CC(C)C1

>  <Color>  (49) 
ORANGE

>  <Collection>  (49) 
NC

>  <InChI>  (49) 
InChI=1S/C24H28N2O3S/c1-4-29-19-10-11-22-21(13-19)24(26-15-17(2)12-18(3)16-26)23(14-25-22)30(27,28)20-8-6-5-7-9-20/h5-11,13-14,17-18H,4,12,15-16H2,1-3H3

>  <InChI Key>  (49) 
FASFXZWYPVOGDV-UHFFFAOYSA-N

>  <PERCENTSP3>  (49) 
37.5

>  <Link>  (49) 
https://www.chemdiv.com/catalog/screening-compounds/compound-C769-0060/

>  <MFCDNUMBER>  (49) 
MFCD07655061

>  <CLNUMBER>  (49) 
CL3582

>  <STEREO>  (49) 
MIXTURE OF STEREOISOMERS

>  <State>  (49) 
Solid

>  <Similarity score>  (49) 
0.21

$$$$
N-(2,5-difluorophenyl)-1-(morpholin-4-yl)isoquinoline-4-carboxamide
     RDKit          2D

 27 30  0  0  0  0  0  0  0  0999 V2000
    0.0000   -0.0000    0.0000 C   0  0  0  0  0  0  0  0  0  0  0  0
   -1.0001    1.7333    0.0000 C   0  0  0  0  0  0  0  0  0  0  0  0
    0.5000   -0.8625    0.0000 C   0  0  0  0  0  0  0  0  0  0  0  0
    0.0000    1.7333    0.0000 N   0  0  0  0  0  0  0  0  0  0  0  0
   -1.0001   -0.0000    0.0000 C   0  0  0  0  0  0  0  0  0  0  0  0
   -1.4999    0.8709    0.0000 C   0  0  0  0  0  0  0  0  0  0  0  0
    0.0000   -1.7293    0.0000 N   0  0  0  0  0  0  0  0  0  0  0  0
   -1.4999    2.6000    0.0000 N   0  0  0  0  0  0  0  0  0  0  0  0
    0.5000   -2.5917    0.0000 C   0  0  0  0  0  0  0  0  0  0  0  0
    0.5000    0.8709    0.0000 C   0  0  0  0  0  0  0  0  0  0  0  0
    1.4999   -2.5917    0.0000 C   0  0  0  0  0  0  0  0  0  0  0  0
    0.0000   -3.4626    0.0000 C   0  0  0  0  0  0  0  0  0  0  0  0
    1.4999   -0.8625    0.0000 O   0  0  0  0  0  0  0  0  0  0  0  0
   -2.5000    4.3292    0.0000 O   0  0  0  0  0  0  0  0  0  0  0  0
    0.5000   -4.3292    0.0000 C   0  0  0  0  0  0  0  0  0  0  0  0
    2.0000   -3.4626    0.0000 C   0  0  0  0  0  0  0  0  0  0  0  0
   -1.0001   -3.4626    0.0000 F   0  0  0  0  0  0  0  0  0  0  0  0
    1.4999   -4.3292    0.0000 C   0  0  0  0  0  0  0  0  0  0  0  0
    3.0000   -3.4626    0.0000 F   0  0  0  0  0  0  0  0  0  0  0  0
   -2.5000    2.6000    0.0000 C   0  0  0  0  0  0  0  0  0  0  0  0
   -1.0001    3.4708    0.0000 C   0  0  0  0  0  0  0  0  0  0  0  0
   -1.4999   -0.8625    0.0000 C   0  0  0  0  0  0  0  0  0  0  0  0
   -2.5000    0.8709    0.0000 C   0  0  0  0  0  0  0  0  0  0  0  0
   -1.4999    4.3292    0.0000 C   0  0  0  0  0  0  0  0  0  0  0  0
   -3.0000    3.4708    0.0000 C   0  0  0  0  0  0  0  0  0  0  0  0
   -2.5000   -0.8625    0.0000 C   0  0  0  0  0  0  0  0  0  0  0  0
   -3.0000   -0.0000    0.0000 C   0  0  0  0  0  0  0  0  0  0  0  0
  2  4  2  0
  2  6  1  0
  1  3  1  0
  4 10  1  0
  1  5  1  0
  5  6  1  0
  3  7  1  0
  2  8  1  0
  7  9  1  0
  1 10  2  0
  9 11  1  0
  9 12  2  0
  3 13  2  0
 14 24  1  0
 12 15  1  0
 11 16  2  0
 16 18  1  0
 12 17  1  0
 15 18  2  0
 16 19  1  0
  8 20  1  0
  8 21  1  0
  5 22  2  0
  6 23  2  0
 23 27  1  0
 21 24  1  0
 20 25  1  0
 14 25  1  0
 22 26  1  0
 26 27  2  0
M  END
>  <IDNUMBER>  (50) 
G817-0416

>  <available>  (50) 
103

>  <H_acceptor>  (50) 
4

>  <H_donor>  (50) 
1

>  <B_rotN>  (50) 
4

>  <N_O>  (50) 
5

>  <logP>  (50) 
3.9358

>  <logD>  (50) 
3.9249

>  <logSw>  (50) 
-3.907

>  <PSA>  (50) 
42.792

>  <pKa_ma>  (50) 
9.0788

>  <pKa_mb>  (50) 
5.0343

>  <N_Chirals>  (50) 
0

>  <Name>  (50) 
N-(2,5-difluorophenyl)-1-(morpholin-4-yl)isoquinoline-4-carboxamide

>  <Smile>  (50) 
O=C(c(c1ccccc11)cnc1N1CCOCC1)Nc(cc(cc1)F)c1F

>  <Color>  (50) 
BROWN

>  <Collection>  (50) 
DC

>  <InChI>  (50) 
InChI=1S/C20H17F2N3O2/c21-13-5-6-17(22)18(11-13)24-20(26)16-12-23-19(25-7-9-27-10-8-25)15-4-2-1-3-14(15)16/h1-6,11-12H,7-10H2,(H,24,26)

>  <InChI Key>  (50) 
IPEQIYPMUJCUKW-UHFFFAOYSA-N

>  <PERCENTSP3>  (50) 
20

>  <Link>  (50) 
https://www.chemdiv.com/catalog/screening-compounds/compound-G817-0416/

>  <MFCDNUMBER>  (50) 
MFCD15038786

>  <CLNUMBER>  (50) 
CL1054

>  <STEREO>  (50) 
ACHIRAL

>  <State>  (50) 
Solid

>  <Similarity score>  (50) 
0.21

$$$$
N-(3-cyano-4-fluorophenyl)-1-(3-cyano-6-fluoroquinolin-4-yl)piperidine-4-carboxa
     RDKit          2D

 31 34  0  0  0  0  0  0  0  0999 V2000
   -0.8522   -3.7366    0.0000 C   0  0  0  0  0  0  0  0  0  0  0  0
    0.0228   -3.2286    0.0000 C   0  0  0  0  0  0  0  0  0  0  0  0
    0.0228   -2.2330    0.0000 N   0  0  0  0  0  0  0  0  0  0  0  0
    0.8928   -3.7366    0.0000 C   0  0  0  0  0  0  0  0  0  0  0  0
    0.0327    0.7695    0.0000 C   0  0  0  0  0  0  0  0  0  0  0  0
    1.7276    3.7469    0.0000 C   0  0  0  0  0  0  0  0  0  0  0  0
    0.0176   -5.2505    0.0000 N   0  0  0  0  0  0  0  0  0  0  0  0
    0.8928    1.2677    0.0000 N   0  0  0  0  0  0  0  0  0  0  0  0
    1.7576   -3.2437    0.0000 C   0  0  0  0  0  0  0  0  0  0  0  0
    2.6177   -2.7308    0.0000 N   0  0  0  0  0  0  0  0  0  0  0  0
    3.4475    4.7527    0.0000 N   0  0  0  0  0  0  0  0  0  0  0  0
    2.5875    4.2546    0.0000 C   0  0  0  0  0  0  0  0  0  0  0  0
   -0.8522   -4.7475    0.0000 C   0  0  0  0  0  0  0  0  0  0  0  0
   -1.7173   -3.2437    0.0000 C   0  0  0  0  0  0  0  0  0  0  0  0
    0.8928   -4.7475    0.0000 C   0  0  0  0  0  0  0  0  0  0  0  0
    0.8526    4.2447    0.0000 C   0  0  0  0  0  0  0  0  0  0  0  0
    0.0327   -0.2363    0.0000 C   0  0  0  0  0  0  0  0  0  0  0  0
    0.8827    2.2631    0.0000 C   0  0  0  0  0  0  0  0  0  0  0  0
    1.7376    2.7511    0.0000 C   0  0  0  0  0  0  0  0  0  0  0  0
   -0.8425   -1.7299    0.0000 C   0  0  0  0  0  0  0  0  0  0  0  0
    0.8827   -1.7299    0.0000 C   0  0  0  0  0  0  0  0  0  0  0  0
   -0.8371    1.2828    0.0000 O   0  0  0  0  0  0  0  0  0  0  0  0
   -0.8371   -0.7242    0.0000 C   0  0  0  0  0  0  0  0  0  0  0  0
    0.8928   -0.7339    0.0000 C   0  0  0  0  0  0  0  0  0  0  0  0
    0.0025    3.7169    0.0000 C   0  0  0  0  0  0  0  0  0  0  0  0
   -1.7173   -5.2505    0.0000 C   0  0  0  0  0  0  0  0  0  0  0  0
   -2.5875   -3.7417    0.0000 C   0  0  0  0  0  0  0  0  0  0  0  0
    0.0228    2.7311    0.0000 C   0  0  0  0  0  0  0  0  0  0  0  0
    0.8375    5.2505    0.0000 F   0  0  0  0  0  0  0  0  0  0  0  0
   -2.5875   -4.7373    0.0000 C   0  0  0  0  0  0  0  0  0  0  0  0
   -3.4475   -3.2286    0.0000 F   0  0  0  0  0  0  0  0  0  0  0  0
  1  2  1  0
  2  3  1  0
  2  4  2  0
  5 17  1  0
  6 19  1  0
  7 13  1  0
  5  8  1  0
  4  9  1  0
  9 10  3  0
 11 12  3  0
  6 12  1  0
  1 13  1  0
  1 14  2  0
  7 15  2  0
  4 15  1  0
 16 25  1  0
  6 16  2  0
 17 24  1  0
  8 18  1  0
 18 19  2  0
  3 20  1  0
  3 21  1  0
  5 22  2  0
 20 23  1  0
 17 23  1  0
 21 24  1  0
 25 28  2  0
 13 26  2  0
 26 30  1  0
 14 27  1  0
 18 28  1  0
 16 29  1  0
 27 30  2  0
 27 31  1  0
M  END
>  <IDNUMBER>  (51) 
L483-0477

>  <available>  (51) 
43

>  <H_acceptor>  (51) 
5

>  <H_donor>  (51) 
1

>  <B_rotN>  (51) 
6

>  <N_O>  (51) 
6

>  <logP>  (51) 
3.4836

>  <logD>  (51) 
3.4473

>  <logSw>  (51) 
-3.6507

>  <PSA>  (51) 
69.145

>  <pKa_ma>  (51) 
8.4639

>  <pKa_mb>  (51) 
4.2541

>  <N_Chirals>  (51) 
0

>  <Name>  (51) 
N-(3-cyano-4-fluorophenyl)-1-(3-cyano-6-fluoroquinolin-4-yl)piperidine-4-carboxamide

>  <Smile>  (51) 
N#Cc(cc(cc1)NC(C(CC2)CCN2c(c2cc(F)ccc2nc2)c2C#N)=O)c1F

>  <Color>  (51) 
ORANGE

>  <Collection>  (51) 
NC

>  <InChI>  (51) 
InChI=1S/C23H17F2N5O/c24-17-1-4-21-19(10-17)22(16(12-27)13-28-21)30-7-5-14(6-8-30)23(31)29-18-2-3-20(25)15(9-18)11-26/h1-4,9-10,13-14H,5-8H2,(H,29,31)

>  <InChI Key>  (51) 
YFEBRPONRHXDER-UHFFFAOYSA-N

>  <PERCENTSP3>  (51) 
21.7

>  <Link>  (51) 
https://www.chemdiv.com/catalog/screening-compounds/compound-L483-0477/

>  <MFCDNUMBER>  (51) 
MFCD27456466

>  <CLNUMBER>  (51) 
CL6761A

>  <STEREO>  (51) 
ACHIRAL

>  <State>  (51) 
Solid

>  <Similarity score>  (51) 
0.21

$$$$
N-(3-cyano-4-fluorophenyl)-1-(3-cyanoquinolin-4-yl)piperidine-4-carboxamide
     RDKit          2D

 30 33  0  0  0  0  0  0  0  0999 V2000
   -0.4075   -3.2297    0.0000 C   0  0  0  0  0  0  0  0  0  0  0  0
   -0.4075   -2.2339    0.0000 N   0  0  0  0  0  0  0  0  0  0  0  0
    0.4629   -3.7282    0.0000 C   0  0  0  0  0  0  0  0  0  0  0  0
   -0.3974    0.7749    0.0000 C   0  0  0  0  0  0  0  0  0  0  0  0
   -1.2827   -3.7282    0.0000 C   0  0  0  0  0  0  0  0  0  0  0  0
    1.2981    3.7581    0.0000 C   0  0  0  0  0  0  0  0  0  0  0  0
   -0.4123   -5.2523    0.0000 N   0  0  0  0  0  0  0  0  0  0  0  0
    0.4629    1.2729    0.0000 N   0  0  0  0  0  0  0  0  0  0  0  0
    1.3285   -3.2451    0.0000 C   0  0  0  0  0  0  0  0  0  0  0  0
    2.1887   -2.7319    0.0000 N   0  0  0  0  0  0  0  0  0  0  0  0
    3.0186    4.7593    0.0000 N   0  0  0  0  0  0  0  0  0  0  0  0
    2.1584    4.2560    0.0000 C   0  0  0  0  0  0  0  0  0  0  0  0
    0.4629   -4.7389    0.0000 C   0  0  0  0  0  0  0  0  0  0  0  0
   -1.2827   -4.7389    0.0000 C   0  0  0  0  0  0  0  0  0  0  0  0
    0.4228    4.2560    0.0000 C   0  0  0  0  0  0  0  0  0  0  0  0
   -0.3974   -0.2263    0.0000 C   0  0  0  0  0  0  0  0  0  0  0  0
    0.4529    2.2692    0.0000 C   0  0  0  0  0  0  0  0  0  0  0  0
    1.3082    2.7617    0.0000 C   0  0  0  0  0  0  0  0  0  0  0  0
    0.4529   -1.7205    0.0000 C   0  0  0  0  0  0  0  0  0  0  0  0
   -1.2725   -1.7205    0.0000 C   0  0  0  0  0  0  0  0  0  0  0  0
   -1.2678    1.2829    0.0000 O   0  0  0  0  0  0  0  0  0  0  0  0
    0.4629   -0.7247    0.0000 C   0  0  0  0  0  0  0  0  0  0  0  0
   -1.2678   -0.7247    0.0000 C   0  0  0  0  0  0  0  0  0  0  0  0
   -0.4277    3.7277    0.0000 C   0  0  0  0  0  0  0  0  0  0  0  0
   -0.4075    2.7368    0.0000 C   0  0  0  0  0  0  0  0  0  0  0  0
    0.4075    5.2523    0.0000 F   0  0  0  0  0  0  0  0  0  0  0  0
   -2.1482   -3.2399    0.0000 C   0  0  0  0  0  0  0  0  0  0  0  0
   -2.1482   -5.2471    0.0000 C   0  0  0  0  0  0  0  0  0  0  0  0
   -3.0186   -3.7379    0.0000 C   0  0  0  0  0  0  0  0  0  0  0  0
   -3.0186   -4.7389    0.0000 C   0  0  0  0  0  0  0  0  0  0  0  0
  1  2  1  0
  1  3  2  0
  4 16  1  0
  1  5  1  0
  6 18  1  0
  6 15  2  0
  7 14  1  0
  4  8  1  0
  3  9  1  0
  9 10  3  0
 11 12  3  0
  6 12  1  0
  3 13  1  0
  7 13  2  0
  5 14  1  0
 15 24  1  0
 16 23  1  0
  8 17  1  0
 17 18  2  0
  2 19  1  0
  2 20  1  0
  4 21  2  0
 19 22  1  0
 16 22  1  0
 20 23  1  0
 24 25  2  0
 17 25  1  0
 15 26  1  0
  5 27  2  0
 14 28  2  0
 27 29  1  0
 29 30  2  0
 28 30  1  0
M  END
>  <IDNUMBER>  (52) 
L483-0093

>  <available>  (52) 
79

>  <H_acceptor>  (52) 
5

>  <H_donor>  (52) 
1

>  <B_rotN>  (52) 
6

>  <N_O>  (52) 
6

>  <logP>  (52) 
3.2256

>  <logD>  (52) 
3.189

>  <logSw>  (52) 
-3.4013

>  <PSA>  (52) 
69.145

>  <pKa_ma>  (52) 
8.4639

>  <pKa_mb>  (52) 
4.6025

>  <N_Chirals>  (52) 
0

>  <Name>  (52) 
N-(3-cyano-4-fluorophenyl)-1-(3-cyanoquinolin-4-yl)piperidine-4-carboxamide

>  <Smile>  (52) 
N#Cc(cc(cc1)NC(C(CC2)CCN2c(c2ccccc2nc2)c2C#N)=O)c1F

>  <Color>  (52) 
ORANGE

>  <Collection>  (52) 
NC

>  <InChI>  (52) 
InChI=1S/C23H18FN5O/c24-20-6-5-18(11-16(20)12-25)28-23(30)15-7-9-29(10-8-15)22-17(13-26)14-27-21-4-2-1-3-19(21)22/h1-6,11,14-15H,7-10H2,(H,28,30)

>  <InChI Key>  (52) 
PWJOILWUJOXPPX-UHFFFAOYSA-N

>  <PERCENTSP3>  (52) 
21.7

>  <Link>  (52) 
https://www.chemdiv.com/catalog/screening-compounds/compound-L483-0093/

>  <MFCDNUMBER>  (52) 
MFCD27456325

>  <CLNUMBER>  (52) 
CL6761A

>  <STEREO>  (52) 
ACHIRAL

>  <State>  (52) 
Solid

>  <Similarity score>  (52) 
0.21

$$$$
6,8-difluoro-1-(3-fluorophenyl)-3-phenyl-1H-pyrazolo[4,3-c]quinoline
     RDKit          2D

 28 32  0  0  0  0  0  0  0  0999 V2000
   -0.3340    0.3084    0.0000 N   0  0  0  0  0  0  0  0  0  0  0  0
    0.3174   -1.1652    0.0000 C   0  0  0  0  0  0  0  0  0  0  0  0
   -0.5464   -0.6653    0.0000 C   0  0  0  0  0  0  0  0  0  0  0  0
    0.6508    0.4149    0.0000 N   0  0  0  0  0  0  0  0  0  0  0  0
    1.0590   -0.4989    0.0000 C   0  0  0  0  0  0  0  0  0  0  0  0
   -1.4087   -1.1799    0.0000 C   0  0  0  0  0  0  0  0  0  0  0  0
   -1.4087   -2.1793    0.0000 C   0  0  0  0  0  0  0  0  0  0  0  0
   -0.5355   -2.6792    0.0000 N   0  0  0  0  0  0  0  0  0  0  0  0
   -1.0005    1.0497    0.0000 C   0  0  0  0  0  0  0  0  0  0  0  0
    0.3324   -2.1793    0.0000 C   0  0  0  0  0  0  0  0  0  0  0  0
   -2.2764   -2.6882    0.0000 C   0  0  0  0  0  0  0  0  0  0  0  0
   -3.1496   -2.1884    0.0000 C   0  0  0  0  0  0  0  0  0  0  0  0
   -0.6964    1.9890    0.0000 C   0  0  0  0  0  0  0  0  0  0  0  0
   -2.2764   -0.6746    0.0000 C   0  0  0  0  0  0  0  0  0  0  0  0
   -3.1496   -1.1799    0.0000 C   0  0  0  0  0  0  0  0  0  0  0  0
    2.0421   -0.6946    0.0000 C   0  0  0  0  0  0  0  0  0  0  0  0
   -2.2874   -3.6787    0.0000 F   0  0  0  0  0  0  0  0  0  0  0  0
   -1.3538    2.7250    0.0000 C   0  0  0  0  0  0  0  0  0  0  0  0
   -4.0119   -0.6801    0.0000 F   0  0  0  0  0  0  0  0  0  0  0  0
   -1.0462    3.6787    0.0000 F   0  0  0  0  0  0  0  0  0  0  0  0
   -1.9688    0.8486    0.0000 C   0  0  0  0  0  0  0  0  0  0  0  0
   -2.6351    1.5753    0.0000 C   0  0  0  0  0  0  0  0  0  0  0  0
    2.7085    0.0523    0.0000 C   0  0  0  0  0  0  0  0  0  0  0  0
    2.3605   -1.6485    0.0000 C   0  0  0  0  0  0  0  0  0  0  0  0
   -2.3330    2.5199    0.0000 C   0  0  0  0  0  0  0  0  0  0  0  0
    3.3455   -1.8554    0.0000 C   0  0  0  0  0  0  0  0  0  0  0  0
    3.6878   -0.1454    0.0000 C   0  0  0  0  0  0  0  0  0  0  0  0
    4.0119   -1.1048    0.0000 C   0  0  0  0  0  0  0  0  0  0  0  0
  2  3  2  0
  2  5  1  0
  1  3  1  0
  1  4  1  0
  4  5  2  0
  3  6  1  0
  6  7  1  0
  7  8  1  0
  1  9  1  0
  2 10  1  0
  8 10  2  0
  7 11  2  0
 12 15  2  0
 11 12  1  0
  9 13  2  0
  6 14  2  0
 14 15  1  0
  5 16  1  0
 11 17  1  0
 13 18  1  0
 18 25  2  0
 15 19  1  0
 18 20  1  0
  9 21  1  0
 21 22  2  0
 16 23  1  0
 16 24  2  0
 22 25  1  0
 24 26  1  0
 23 27  2  0
 27 28  1  0
 26 28  2  0
M  END
>  <IDNUMBER>  (53) 
C350-0107

>  <available>  (53) 
57

>  <H_acceptor>  (53) 
2

>  <H_donor>  (53) 
0

>  <B_rotN>  (53) 
2

>  <N_O>  (53) 
3

>  <logP>  (53) 
5.3921

>  <logD>  (53) 
5.3921

>  <logSw>  (53) 
-6.1008

>  <PSA>  (53) 
23.4803

>  <pKa_ma>  (53) 
14

>  <pKa_mb>  (53) 
2.2647

>  <N_Chirals>  (53) 
0

>  <Name>  (53) 
6,8-difluoro-1-(3-fluorophenyl)-3-phenyl-1H-pyrazolo[4,3-c]quinoline

>  <Smile>  (53) 
Fc1cccc(-n(c2c(cc(cc3F)F)c3ncc22)nc2-c2ccccc2)c1

>  <Color>  (53) 
NOT COLORED

>  <Collection>  (53) 
DC

>  <InChI>  (53) 
InChI=1S/C22H12F3N3/c23-14-7-4-8-16(9-14)28-22-17-10-15(24)11-19(25)21(17)26-12-18(22)20(27-28)13-5-2-1-3-6-13/h1-12H

>  <InChI Key>  (53) 
ZUWMCINFEVOKCL-UHFFFAOYSA-N

>  <PERCENTSP3>  (53) 
0

>  <Link>  (53) 
https://www.chemdiv.com/catalog/screening-compounds/compound-C350-0107/

>  <MFCDNUMBER>  (53) 
MFCD14750134

>  <CLNUMBER>  (53) 
CL4130

>  <STEREO>  (53) 
ACHIRAL

>  <State>  (53) 
Solid

>  <Similarity score>  (53) 
0.21

$$$$
5-(naphthalen-2-yl)-2-(piperidin-1-yl)pyrido[2,3-d]pyrimidin-4(3H)-one
     RDKit          2D

 27 31  0  0  0  0  0  0  0  0999 V2000
   -0.4229    2.5229    0.0000 N   0  0  0  0  0  0  0  0  0  0  0  0
    0.4395    2.0060    0.0000 C   0  0  0  0  0  0  0  0  0  0  0  0
    0.4228    1.0062    0.0000 N   0  0  0  0  0  0  0  0  0  0  0  0
   -0.4522    0.5229    0.0000 C   0  0  0  0  0  0  0  0  0  0  0  0
   -1.2896    2.0354    0.0000 C   0  0  0  0  0  0  0  0  0  0  0  0
   -1.3062    1.0354    0.0000 C   0  0  0  0  0  0  0  0  0  0  0  0
    1.3145    2.4896    0.0000 N   0  0  0  0  0  0  0  0  0  0  0  0
   -2.1772    0.5437    0.0000 C   0  0  0  0  0  0  0  0  0  0  0  0
   -2.1897   -0.4521    0.0000 C   0  0  0  0  0  0  0  0  0  0  0  0
   -2.1522    2.5479    0.0000 N   0  0  0  0  0  0  0  0  0  0  0  0
   -1.3312   -0.9563    0.0000 C   0  0  0  0  0  0  0  0  0  0  0  0
   -0.4688   -0.4854    0.0000 O   0  0  0  0  0  0  0  0  0  0  0  0
   -1.3312   -1.9564    0.0000 C   0  0  0  0  0  0  0  0  0  0  0  0
   -3.0563   -0.9438    0.0000 C   0  0  0  0  0  0  0  0  0  0  0  0
   -2.2063   -2.4520    0.0000 C   0  0  0  0  0  0  0  0  0  0  0  0
   -3.0688   -1.9479    0.0000 C   0  0  0  0  0  0  0  0  0  0  0  0
   -3.0230    2.0479    0.0000 C   0  0  0  0  0  0  0  0  0  0  0  0
   -3.0272    1.0520    0.0000 C   0  0  0  0  0  0  0  0  0  0  0  0
    2.1688    1.9604    0.0000 C   0  0  0  0  0  0  0  0  0  0  0  0
    1.3312    3.4854    0.0000 C   0  0  0  0  0  0  0  0  0  0  0  0
   -0.4688   -2.4645    0.0000 C   0  0  0  0  0  0  0  0  0  0  0  0
   -2.2063   -3.4521    0.0000 C   0  0  0  0  0  0  0  0  0  0  0  0
    2.2146    3.9604    0.0000 C   0  0  0  0  0  0  0  0  0  0  0  0
    3.0477    2.4437    0.0000 C   0  0  0  0  0  0  0  0  0  0  0  0
   -0.4730   -3.4604    0.0000 C   0  0  0  0  0  0  0  0  0  0  0  0
   -1.3437   -3.9604    0.0000 C   0  0  0  0  0  0  0  0  0  0  0  0
    3.0688    3.4396    0.0000 C   0  0  0  0  0  0  0  0  0  0  0  0
  1  2  2  0
  2  3  1  0
  3  4  1  0
  4  6  1  0
  1  5  1  0
  5  6  2  0
  2  7  1  0
  6  8  1  0
  8 18  2  0
  8  9  1  0
  5 10  1  0
  9 11  1  0
  4 12  2  0
 11 13  2  0
 13 15  1  0
  9 14  2  0
 15 16  2  0
 14 16  1  0
 10 17  2  0
 17 18  1  0
  7 19  1  0
  7 20  1  0
 13 21  1  0
 15 22  1  0
 20 23  1  0
 19 24  1  0
 24 27  1  0
 21 25  2  0
 22 26  2  0
 25 26  1  0
 23 27  1  0
M  END
>  <IDNUMBER>  (54) 
Y020-2847

>  <available>  (54) 
26

>  <H_acceptor>  (54) 
4

>  <H_donor>  (54) 
1

>  <B_rotN>  (54) 
2

>  <N_O>  (54) 
5

>  <logP>  (54) 
4.5263

>  <logD>  (54) 
4.5212

>  <logSw>  (54) 
-4.2873

>  <PSA>  (54) 
47.037

>  <pKa_ma>  (54) 
9.4303

>  <pKa_mb>  (54) 
4.8093

>  <N_Chirals>  (54) 
0

>  <Name>  (54) 
5-(naphthalen-2-yl)-2-(piperidin-1-yl)pyrido[2,3-d]pyrimidin-4(3H)-one

>  <Smile>  (54) 
O=C1NC(N2CCCCC2)=Nc2c1c(-c1cc3ccccc3cc1)ccn2

>  <Color>  (54) 
YELLOW

>  <Collection>  (54) 
DC

>  <InChI>  (54) 
InChI=1S/C22H20N4O/c27-21-19-18(17-9-8-15-6-2-3-7-16(15)14-17)10-11-23-20(19)24-22(25-21)26-12-4-1-5-13-26/h2-3,6-11,14H,1,4-5,12-13H2,(H,23,24,25,27)

>  <InChI Key>  (54) 
KWCMRSUZGHHSLJ-UHFFFAOYSA-N

>  <PERCENTSP3>  (54) 
22.7

>  <Link>  (54) 
https://www.chemdiv.com/catalog/screening-compounds/compound-Y020-2847/

>  <MFCDNUMBER>  (54) 
MFCD09463074

>  <STEREO>  (54) 
ACHIRAL

>  <State>  (54) 
Solid

>  <Similarity score>  (54) 
0.21

$$$$
N-(4-fluorophenyl)-4-(morpholin-4-yl)[1]benzofuro[3,2-d]pyrimidine-2-carboxamide
     RDKit          2D

 29 33  0  0  0  0  0  0  0  0999 V2000
    0.4210    0.2436    0.0000 C   0  0  0  0  0  0  0  0  0  0  0  0
    1.2711   -0.2439    0.0000 C   0  0  0  0  0  0  0  0  0  0  0  0
   -0.4209   -0.2439    0.0000 C   0  0  0  0  0  0  0  0  0  0  0  0
    1.2711   -1.2188    0.0000 N   0  0  0  0  0  0  0  0  0  0  0  0
   -0.4209   -1.2188    0.0000 N   0  0  0  0  0  0  0  0  0  0  0  0
    0.4210   -1.7149    0.0000 C   0  0  0  0  0  0  0  0  0  0  0  0
    0.4210    1.2231    0.0000 O   0  0  0  0  0  0  0  0  0  0  0  0
   -1.2711    1.2231    0.0000 C   0  0  0  0  0  0  0  0  0  0  0  0
    0.4210   -2.6900    0.0000 C   0  0  0  0  0  0  0  0  0  0  0  0
   -0.4209    1.7106    0.0000 C   0  0  0  0  0  0  0  0  0  0  0  0
    2.1211    0.2436    0.0000 N   0  0  0  0  0  0  0  0  0  0  0  0
   -0.4209   -3.1817    0.0000 N   0  0  0  0  0  0  0  0  0  0  0  0
    1.2711   -3.1817    0.0000 O   0  0  0  0  0  0  0  0  0  0  0  0
    3.8088    1.2231    0.0000 O   0  0  0  0  0  0  0  0  0  0  0  0
   -1.2711   -2.6900    0.0000 C   0  0  0  0  0  0  0  0  0  0  0  0
   -2.9671   -1.7065    0.0000 C   0  0  0  0  0  0  0  0  0  0  0  0
   -3.8088   -1.2188    0.0000 F   0  0  0  0  0  0  0  0  0  0  0  0
   -2.1170    1.7106    0.0000 C   0  0  0  0  0  0  0  0  0  0  0  0
   -2.1170   -3.1817    0.0000 C   0  0  0  0  0  0  0  0  0  0  0  0
   -1.2711   -1.7065    0.0000 C   0  0  0  0  0  0  0  0  0  0  0  0
   -2.9671   -2.6900    0.0000 C   0  0  0  0  0  0  0  0  0  0  0  0
   -2.1170   -1.2188    0.0000 C   0  0  0  0  0  0  0  0  0  0  0  0
    2.1211    1.2231    0.0000 C   0  0  0  0  0  0  0  0  0  0  0  0
    2.9672   -0.2439    0.0000 C   0  0  0  0  0  0  0  0  0  0  0  0
   -0.4209    2.6940    0.0000 C   0  0  0  0  0  0  0  0  0  0  0  0
    3.8088    0.2436    0.0000 C   0  0  0  0  0  0  0  0  0  0  0  0
    2.9672    1.7106    0.0000 C   0  0  0  0  0  0  0  0  0  0  0  0
   -2.1170    2.6940    0.0000 C   0  0  0  0  0  0  0  0  0  0  0  0
   -1.2711    3.1817    0.0000 C   0  0  0  0  0  0  0  0  0  0  0  0
  1  2  1  0
  1  3  2  0
  2  4  2  0
  4  6  1  0
  3  5  1  0
  5  6  2  0
  1  7  1  0
  3  8  1  0
  8 10  1  0
  6  9  1  0
  7 10  1  0
  2 11  1  0
  9 12  1  0
  9 13  2  0
 14 26  1  0
 12 15  1  0
 16 22  2  0
 16 17  1  0
  8 18  2  0
 15 19  1  0
 15 20  2  0
 19 21  2  0
 16 21  1  0
 20 22  1  0
 11 23  1  0
 11 24  1  0
 10 25  2  0
 24 26  1  0
 23 27  1  0
 14 27  1  0
 18 28  1  0
 28 29  2  0
 25 29  1  0
M  END
>  <IDNUMBER>  (55) 
L331-0190

>  <available>  (55) 
21

>  <H_acceptor>  (55) 
6

>  <H_donor>  (55) 
1

>  <B_rotN>  (55) 
4

>  <N_O>  (55) 
7

>  <logP>  (55) 
4.0497

>  <logD>  (55) 
4.0496

>  <logSw>  (55) 
-4.2276

>  <PSA>  (55) 
62.1

>  <pKa_ma>  (55) 
10.9771

>  <pKa_mb>  (55) 
8.6338

>  <N_Chirals>  (55) 
0

>  <Name>  (55) 
N-(4-fluorophenyl)-4-(morpholin-4-yl)[1]benzofuro[3,2-d]pyrimidine-2-carboxamide

>  <Smile>  (55) 
O=C(c1nc(N2CCOCC2)c2oc(cccc3)c3c2n1)Nc(cc1)ccc1F

>  <Color>  (55) 
NOT COLORED

>  <Collection>  (55) 
NC

>  <InChI>  (55) 
InChI=1S/C21H17FN4O3/c22-13-5-7-14(8-6-13)23-21(27)19-24-17-15-3-1-2-4-16(15)29-18(17)20(25-19)26-9-11-28-12-10-26/h1-8H,9-12H2,(H,23,27)

>  <InChI Key>  (55) 
FEODUOXVTZFYSA-UHFFFAOYSA-N

>  <PERCENTSP3>  (55) 
19

>  <Link>  (55) 
https://www.chemdiv.com/catalog/screening-compounds/compound-L331-0190/

>  <MFCDNUMBER>  (55) 
MFCD27246893

>  <CLNUMBER>  (55) 
CL7949

>  <STEREO>  (55) 
ACHIRAL

>  <State>  (55) 
Solid

>  <Similarity score>  (55) 
0.21

$$$$
4-(4-benzylpiperazin-1-yl)-2-(2-fluorophenyl)quinazoline
     RDKit          2D

 30 34  0  0  0  0  0  0  0  0999 V2000
    0.8379    1.2544    0.0000 N   0  0  0  0  0  0  0  0  0  0  0  0
    1.7062    1.7569    0.0000 C   0  0  0  0  0  0  0  0  0  0  0  0
    0.8379    0.2540    0.0000 C   0  0  0  0  0  0  0  0  0  0  0  0
    2.5847    1.2544    0.0000 N   0  0  0  0  0  0  0  0  0  0  0  0
    1.7062   -0.2488    0.0000 C   0  0  0  0  0  0  0  0  0  0  0  0
    1.7163    2.7471    0.0000 C   0  0  0  0  0  0  0  0  0  0  0  0
   -0.0303   -0.2437    0.0000 N   0  0  0  0  0  0  0  0  0  0  0  0
    2.5747    0.2540    0.0000 C   0  0  0  0  0  0  0  0  0  0  0  0
   -1.7516   -1.2390    0.0000 N   0  0  0  0  0  0  0  0  0  0  0  0
    2.5847    3.2600    0.0000 C   0  0  0  0  0  0  0  0  0  0  0  0
   -0.8886    0.2540    0.0000 C   0  0  0  0  0  0  0  0  0  0  0  0
   -0.0303   -1.2390    0.0000 C   0  0  0  0  0  0  0  0  0  0  0  0
   -2.6152   -1.7517    0.0000 C   0  0  0  0  0  0  0  0  0  0  0  0
   -0.8886   -1.7418    0.0000 C   0  0  0  0  0  0  0  0  0  0  0  0
   -1.7516   -0.2437    0.0000 C   0  0  0  0  0  0  0  0  0  0  0  0
    3.4682    2.7471    0.0000 F   0  0  0  0  0  0  0  0  0  0  0  0
    1.7062   -1.2390    0.0000 C   0  0  0  0  0  0  0  0  0  0  0  0
    0.8481    3.2501    0.0000 C   0  0  0  0  0  0  0  0  0  0  0  0
   -2.6152   -2.7572    0.0000 C   0  0  0  0  0  0  0  0  0  0  0  0
    3.4429   -0.2334    0.0000 C   0  0  0  0  0  0  0  0  0  0  0  0
    2.5900    4.2554    0.0000 C   0  0  0  0  0  0  0  0  0  0  0  0
   -3.4682   -3.2600    0.0000 C   0  0  0  0  0  0  0  0  0  0  0  0
   -1.7569   -3.2600    0.0000 C   0  0  0  0  0  0  0  0  0  0  0  0
    2.5747   -1.7418    0.0000 C   0  0  0  0  0  0  0  0  0  0  0  0
    0.8481    4.2554    0.0000 C   0  0  0  0  0  0  0  0  0  0  0  0
    3.4429   -1.2390    0.0000 C   0  0  0  0  0  0  0  0  0  0  0  0
    1.7163    4.7581    0.0000 C   0  0  0  0  0  0  0  0  0  0  0  0
   -3.4682   -4.2551    0.0000 C   0  0  0  0  0  0  0  0  0  0  0  0
   -1.7569   -4.2551    0.0000 C   0  0  0  0  0  0  0  0  0  0  0  0
   -2.6152   -4.7581    0.0000 C   0  0  0  0  0  0  0  0  0  0  0  0
  1  2  1  0
  1  3  2  0
  2  4  2  0
  3  5  1  0
  2  6  1  0
  3  7  1  0
  5  8  1  0
  4  8  1  0
  9 14  1  0
  6 10  2  0
  7 11  1  0
  7 12  1  0
  9 13  1  0
 12 14  1  0
 11 15  1  0
  9 15  1  0
 10 16  1  0
  5 17  2  0
  6 18  1  0
 13 19  1  0
  8 20  2  0
 20 26  1  0
 10 21  1  0
 21 27  2  0
 19 22  2  0
 19 23  1  0
 17 24  1  0
 18 25  2  0
 24 26  2  0
 25 27  1  0
 22 28  1  0
 23 29  2  0
 29 30  1  0
 28 30  2  0
M  END
>  <IDNUMBER>  (56) 
K841-0197

>  <available>  (56) 
1

>  <H_acceptor>  (56) 
3

>  <H_donor>  (56) 
0

>  <B_rotN>  (56) 
4

>  <N_O>  (56) 
4

>  <logP>  (56) 
5.0799

>  <logD>  (56) 
4.8106

>  <logSw>  (56) 
-5.3831

>  <PSA>  (56) 
25.1789

>  <pKa_ma>  (56) 
22.1102

>  <pKa_mb>  (56) 
7.3342

>  <N_Chirals>  (56) 
0

>  <Name>  (56) 
4-(4-benzylpiperazin-1-yl)-2-(2-fluorophenyl)quinazoline

>  <Smile>  (56) 
Fc(cccc1)c1-c1nc2ccccc2c(N2CCN(Cc3ccccc3)CC2)n1

>  <Color>  (56) 
NOT COLORED

>  <Collection>  (56) 
NC

>  <InChI>  (56) 
InChI=1S/C25H23FN4/c26-22-12-6-4-10-20(22)24-27-23-13-7-5-11-21(23)25(28-24)30-16-14-29(15-17-30)18-19-8-2-1-3-9-19/h1-13H,14-18H2

>  <InChI Key>  (56) 
QYHBYHLILDBRAT-UHFFFAOYSA-N

>  <PERCENTSP3>  (56) 
20

>  <Link>  (56) 
https://www.chemdiv.com/catalog/screening-compounds/compound-K841-0197/

>  <MFCDNUMBER>  (56) 
MFCD03670673

>  <CLNUMBER>  (56) 
CL2243

>  <STEREO>  (56) 
ACHIRAL

>  <State>  (56) 
Solid

>  <Similarity score>  (56) 
0.21

$$$$
N-(2-chloro-4-fluorophenyl)-4-(morpholin-4-yl)[1]benzofuro[3,2-d]pyrimidine-2-ca
     RDKit          2D

 30 34  0  0  0  0  0  0  0  0999 V2000
    2.1201   -0.2437    0.0000 C   0  0  0  0  0  0  0  0  0  0  0  0
    2.1201   -1.2183    0.0000 C   0  0  0  0  0  0  0  0  0  0  0  0
    1.2704    0.2437    0.0000 C   0  0  0  0  0  0  0  0  0  0  0  0
    1.2704   -1.7138    0.0000 N   0  0  0  0  0  0  0  0  0  0  0  0
    0.4207   -0.2437    0.0000 N   0  0  0  0  0  0  0  0  0  0  0  0
    0.4207   -1.2183    0.0000 C   0  0  0  0  0  0  0  0  0  0  0  0
    2.9697    0.2437    0.0000 O   0  0  0  0  0  0  0  0  0  0  0  0
    2.1201    1.7181    0.0000 C   0  0  0  0  0  0  0  0  0  0  0  0
   -0.4207   -1.7138    0.0000 C   0  0  0  0  0  0  0  0  0  0  0  0
    2.9697    1.2226    0.0000 C   0  0  0  0  0  0  0  0  0  0  0  0
    2.9697   -1.7138    0.0000 N   0  0  0  0  0  0  0  0  0  0  0  0
   -1.2704   -1.2183    0.0000 N   0  0  0  0  0  0  0  0  0  0  0  0
   -2.1158   -1.7138    0.0000 C   0  0  0  0  0  0  0  0  0  0  0  0
   -2.9655   -1.2183    0.0000 C   0  0  0  0  0  0  0  0  0  0  0  0
   -3.8152   -1.7138    0.0000 C   0  0  0  0  0  0  0  0  0  0  0  0
   -0.4207   -2.6927    0.0000 O   0  0  0  0  0  0  0  0  0  0  0  0
   -2.1158   -2.6927    0.0000 C   0  0  0  0  0  0  0  0  0  0  0  0
    4.6566   -2.6927    0.0000 O   0  0  0  0  0  0  0  0  0  0  0  0
   -3.8152   -2.6927    0.0000 C   0  0  0  0  0  0  0  0  0  0  0  0
   -2.9655   -0.2437    0.0000 Cl  0  0  0  0  0  0  0  0  0  0  0  0
   -2.9655   -3.1802    0.0000 C   0  0  0  0  0  0  0  0  0  0  0  0
   -4.6566   -3.1802    0.0000 F   0  0  0  0  0  0  0  0  0  0  0  0
    2.1201    2.6927    0.0000 C   0  0  0  0  0  0  0  0  0  0  0  0
    2.9697   -2.6927    0.0000 C   0  0  0  0  0  0  0  0  0  0  0  0
    3.8152   -1.2183    0.0000 C   0  0  0  0  0  0  0  0  0  0  0  0
    3.8152    1.7181    0.0000 C   0  0  0  0  0  0  0  0  0  0  0  0
    4.6566   -1.7138    0.0000 C   0  0  0  0  0  0  0  0  0  0  0  0
    3.8152   -3.1802    0.0000 C   0  0  0  0  0  0  0  0  0  0  0  0
    2.9697    3.1802    0.0000 C   0  0  0  0  0  0  0  0  0  0  0  0
    3.8152    2.6927    0.0000 C   0  0  0  0  0  0  0  0  0  0  0  0
  1  2  1  0
  1  3  2  0
  2  4  2  0
  4  6  1  0
  3  5  1  0
  5  6  2  0
  1  7  1  0
  3  8  1  0
  8 10  1  0
  6  9  1  0
  7 10  1  0
  2 11  1  0
  9 12  1  0
 12 13  1  0
 13 14  1  0
 14 15  2  0
  9 16  2  0
 13 17  2  0
 18 27  1  0
 19 21  2  0
 15 19  1  0
 14 20  1  0
 17 21  1  0
 19 22  1  0
  8 23  2  0
 11 24  1  0
 11 25  1  0
 10 26  2  0
 25 27  1  0
 24 28  1  0
 18 28  1  0
 23 29  1  0
 29 30  2  0
 26 30  1  0
M  END
>  <IDNUMBER>  (57) 
L331-0256

>  <available>  (57) 
72

>  <H_acceptor>  (57) 
6

>  <H_donor>  (57) 
1

>  <B_rotN>  (57) 
4

>  <N_O>  (57) 
7

>  <logP>  (57) 
4.652

>  <logD>  (57) 
4.6433

>  <logSw>  (57) 
-4.9805

>  <PSA>  (57) 
61.402

>  <pKa_ma>  (57) 
9.092

>  <pKa_mb>  (57) 
8.6338

>  <N_Chirals>  (57) 
0

>  <Name>  (57) 
N-(2-chloro-4-fluorophenyl)-4-(morpholin-4-yl)[1]benzofuro[3,2-d]pyrimidine-2-carboxamide

>  <Smile>  (57) 
O=C(c1nc(N2CCOCC2)c2oc(cccc3)c3c2n1)Nc(ccc(F)c1)c1Cl

>  <Color>  (57) 
NOT COLORED

>  <Collection>  (57) 
NC

>  <InChI>  (57) 
InChI=1S/C21H16ClFN4O3/c22-14-11-12(23)5-6-15(14)24-21(28)19-25-17-13-3-1-2-4-16(13)30-18(17)20(26-19)27-7-9-29-10-8-27/h1-6,11H,7-10H2,(H,24,28)

>  <InChI Key>  (57) 
SDECTUCHLLRUEC-UHFFFAOYSA-N

>  <PERCENTSP3>  (57) 
19

>  <Link>  (57) 
https://www.chemdiv.com/catalog/screening-compounds/compound-L331-0256/

>  <MFCDNUMBER>  (57) 
MFCD27246923

>  <CLNUMBER>  (57) 
CL7949

>  <STEREO>  (57) 
ACHIRAL

>  <State>  (57) 
Solid

>  <Similarity score>  (57) 
0.21

$$$$
2-[4-(2-fluorophenyl)piperazin-1-yl]-8-methyl-3-(5-methyl-1,2,4-oxadiazol-3-yl)q
     RDKit          2D

 30 34  0  0  0  0  0  0  0  0999 V2000
   -0.0042    1.6219    0.0000 C   0  0  0  0  0  0  0  0  0  0  0  0
    0.8048    1.0340    0.0000 C   0  0  0  0  0  0  0  0  0  0  0  0
   -0.9175    1.2217    0.0000 C   0  0  0  0  0  0  0  0  0  0  0  0
    1.7553    1.3468    0.0000 N   0  0  0  0  0  0  0  0  0  0  0  0
   -1.7220    1.8013    0.0000 N   0  0  0  0  0  0  0  0  0  0  0  0
    0.8048    0.0334    0.0000 N   0  0  0  0  0  0  0  0  0  0  0  0
   -1.0173    0.2209    0.0000 N   0  0  0  0  0  0  0  0  0  0  0  0
    0.1040    2.6142    0.0000 C   0  0  0  0  0  0  0  0  0  0  0  0
   -1.6178    2.7977    0.0000 C   0  0  0  0  0  0  0  0  0  0  0  0
   -1.2219   -1.7762    0.0000 N   0  0  0  0  0  0  0  0  0  0  0  0
    2.3432    0.5378    0.0000 C   0  0  0  0  0  0  0  0  0  0  0  0
    1.7553   -0.2752    0.0000 O   0  0  0  0  0  0  0  0  0  0  0  0
   -0.7048    3.2065    0.0000 C   0  0  0  0  0  0  0  0  0  0  0  0
   -1.3301   -2.7769    0.0000 C   0  0  0  0  0  0  0  0  0  0  0  0
   -0.2044   -0.3670    0.0000 C   0  0  0  0  0  0  0  0  0  0  0  0
   -1.9347   -0.1918    0.0000 C   0  0  0  0  0  0  0  0  0  0  0  0
   -0.3045   -1.3676    0.0000 C   0  0  0  0  0  0  0  0  0  0  0  0
   -2.0348   -1.1925    0.0000 C   0  0  0  0  0  0  0  0  0  0  0  0
   -0.5087   -3.3649    0.0000 C   0  0  0  0  0  0  0  0  0  0  0  0
   -2.4309    3.3856    0.0000 C   0  0  0  0  0  0  0  0  0  0  0  0
    0.4043   -2.9520    0.0000 F   0  0  0  0  0  0  0  0  0  0  0  0
   -0.6047    4.1822    0.0000 C   0  0  0  0  0  0  0  0  0  0  0  0
    3.3357    0.5378    0.0000 C   0  0  0  0  0  0  0  0  0  0  0  0
   -1.4094    4.7700    0.0000 C   0  0  0  0  0  0  0  0  0  0  0  0
   -2.2434   -3.1896    0.0000 C   0  0  0  0  0  0  0  0  0  0  0  0
   -2.3224    4.3697    0.0000 C   0  0  0  0  0  0  0  0  0  0  0  0
   -3.3357    2.9812    0.0000 C   0  0  0  0  0  0  0  0  0  0  0  0
   -0.6173   -4.3572    0.0000 C   0  0  0  0  0  0  0  0  0  0  0  0
   -2.3434   -4.1822    0.0000 C   0  0  0  0  0  0  0  0  0  0  0  0
   -1.5303   -4.7700    0.0000 C   0  0  0  0  0  0  0  0  0  0  0  0
  1  2  1  0
  1  3  1  0
  2  4  1  0
  3  5  2  0
  5  9  1  0
  2  6  2  0
  3  7  1  0
  1  8  2  0
  9 13  1  0
 10 18  1  0
 10 17  1  0
  4 11  2  0
 11 12  1  0
  6 12  1  0
  8 13  1  0
 10 14  1  0
  7 15  1  0
  7 16  1  0
 15 17  1  0
 16 18  1  0
 14 19  1  0
  9 20  2  0
 20 26  1  0
 19 21  1  0
 13 22  2  0
 11 23  1  0
 22 24  1  0
 14 25  2  0
 24 26  2  0
 20 27  1  0
 19 28  2  0
 25 29  1  0
 29 30  2  0
 28 30  1  0
M  END
>  <IDNUMBER>  (58) 
D420-1292

>  <available>  (58) 
173

>  <H_acceptor>  (58) 
4

>  <H_donor>  (58) 
0

>  <B_rotN>  (58) 
3

>  <N_O>  (58) 
6

>  <logP>  (58) 
5.5931

>  <logD>  (58) 
5.0253

>  <logSw>  (58) 
-6.3988

>  <PSA>  (58) 
46.59

>  <pKa_ma>  (58) 
23.536

>  <pKa_mb>  (58) 
7.8308

>  <N_Chirals>  (58) 
0

>  <Name>  (58) 
2-[4-(2-fluorophenyl)piperazin-1-yl]-8-methyl-3-(5-methyl-1,2,4-oxadiazol-3-yl)quinoline

>  <Smile>  (58) 
Cc1nc(-c2cc3cccc(C)c3nc2N(CC2)CCN2c(cccc2)c2F)no1

>  <Color>  (58) 
NOT COLORED

>  <Collection>  (58) 
NC

>  <InChI>  (58) 
InChI=1S/C23H22FN5O/c1-15-6-5-7-17-14-18(22-25-16(2)30-27-22)23(26-21(15)17)29-12-10-28(11-13-29)20-9-4-3-8-19(20)24/h3-9,14H,10-13H2,1-2H3

>  <InChI Key>  (58) 
RCTVXZOERYVTFC-UHFFFAOYSA-N

>  <PERCENTSP3>  (58) 
26.1

>  <Link>  (58) 
https://www.chemdiv.com/catalog/screening-compounds/compound-D420-1292/

>  <MFCDNUMBER>  (58) 
MFCD27584902

>  <CLNUMBER>  (58) 
CL7646

>  <STEREO>  (58) 
ACHIRAL

>  <State>  (58) 
Solid

>  <Similarity score>  (58) 
0.21

$$$$
8-methyl-2-(morpholin-4-yl)-3-(5-phenyl-1,2,4-oxadiazol-3-yl)quinoline
     RDKit          2D

 28 32  0  0  0  0  0  0  0  0999 V2000
   -1.0037    0.1188    0.0000 C   0  0  0  0  0  0  0  0  0  0  0  0
   -0.1916   -0.4685    0.0000 C   0  0  0  0  0  0  0  0  0  0  0  0
    0.7578   -0.1561    0.0000 N   0  0  0  0  0  0  0  0  0  0  0  0
   -1.9155   -0.2894    0.0000 C   0  0  0  0  0  0  0  0  0  0  0  0
   -2.7191    0.2978    0.0000 N   0  0  0  0  0  0  0  0  0  0  0  0
   -0.1916   -1.4678    0.0000 N   0  0  0  0  0  0  0  0  0  0  0  0
    1.3451   -0.9681    0.0000 C   0  0  0  0  0  0  0  0  0  0  0  0
    0.7578   -1.7759    0.0000 O   0  0  0  0  0  0  0  0  0  0  0  0
   -0.8953    1.1098    0.0000 C   0  0  0  0  0  0  0  0  0  0  0  0
   -2.6151    1.2930    0.0000 C   0  0  0  0  0  0  0  0  0  0  0  0
   -2.0155   -1.2804    0.0000 N   0  0  0  0  0  0  0  0  0  0  0  0
   -1.7031    1.6970    0.0000 C   0  0  0  0  0  0  0  0  0  0  0  0
    2.3444   -0.9681    0.0000 C   0  0  0  0  0  0  0  0  0  0  0  0
   -3.4271    1.8801    0.0000 C   0  0  0  0  0  0  0  0  0  0  0  0
   -2.2195   -3.2792    0.0000 O   0  0  0  0  0  0  0  0  0  0  0  0
   -2.9315   -1.6928    0.0000 C   0  0  0  0  0  0  0  0  0  0  0  0
   -1.2034   -1.8675    0.0000 C   0  0  0  0  0  0  0  0  0  0  0  0
   -1.6033    2.6921    0.0000 C   0  0  0  0  0  0  0  0  0  0  0  0
   -2.4068    3.2792    0.0000 C   0  0  0  0  0  0  0  0  0  0  0  0
   -3.3188    2.8712    0.0000 C   0  0  0  0  0  0  0  0  0  0  0  0
   -1.3035   -2.8670    0.0000 C   0  0  0  0  0  0  0  0  0  0  0  0
   -3.0399   -2.6921    0.0000 C   0  0  0  0  0  0  0  0  0  0  0  0
   -4.3390    1.4721    0.0000 C   0  0  0  0  0  0  0  0  0  0  0  0
    2.8399   -0.0978    0.0000 C   0  0  0  0  0  0  0  0  0  0  0  0
    2.8399   -1.8301    0.0000 C   0  0  0  0  0  0  0  0  0  0  0  0
    3.8393   -0.0978    0.0000 C   0  0  0  0  0  0  0  0  0  0  0  0
    3.8393   -1.8301    0.0000 C   0  0  0  0  0  0  0  0  0  0  0  0
    4.3390   -0.9681    0.0000 C   0  0  0  0  0  0  0  0  0  0  0  0
  1  2  1  0
  2  3  1  0
  1  4  1  0
  4  5  2  0
  5 10  1  0
  2  6  2  0
  3  7  2  0
  7  8  1  0
  6  8  1  0
  1  9  2  0
 10 12  1  0
  4 11  1  0
  9 12  1  0
  7 13  1  0
 10 14  2  0
 14 20  1  0
 15 21  1  0
 11 16  1  0
 11 17  1  0
 12 18  2  0
 18 19  1  0
 19 20  2  0
 17 21  1  0
 16 22  1  0
 15 22  1  0
 14 23  1  0
 13 24  1  0
 13 25  2  0
 24 26  2  0
 26 28  1  0
 25 27  1  0
 27 28  2  0
M  END
>  <IDNUMBER>  (59) 
D420-0998

>  <available>  (59) 
96

>  <H_acceptor>  (59) 
5

>  <H_donor>  (59) 
0

>  <B_rotN>  (59) 
3

>  <N_O>  (59) 
6

>  <logP>  (59) 
5.2063

>  <logD>  (59) 
5.1296

>  <logSw>  (59) 
-5.9336

>  <PSA>  (59) 
52.039

>  <pKa_ma>  (59) 
23.7205

>  <pKa_mb>  (59) 
6.6859

>  <N_Chirals>  (59) 
0

>  <Name>  (59) 
8-methyl-2-(morpholin-4-yl)-3-(5-phenyl-1,2,4-oxadiazol-3-yl)quinoline

>  <Smile>  (59) 
Cc(cccc1cc2-c3noc(-c4ccccc4)n3)c1nc2N1CCOCC1

>  <Color>  (59) 
NOT COLORED

>  <Collection>  (59) 
NC

>  <InChI>  (59) 
InChI=1S/C22H20N4O2/c1-15-6-5-9-17-14-18(21(23-19(15)17)26-10-12-27-13-11-26)20-24-22(28-25-20)16-7-3-2-4-8-16/h2-9,14H,10-13H2,1H3

>  <InChI Key>  (59) 
RHQZTBDZZSMHFS-UHFFFAOYSA-N

>  <PERCENTSP3>  (59) 
22.7

>  <Link>  (59) 
https://www.chemdiv.com/catalog/screening-compounds/compound-D420-0998/

>  <MFCDNUMBER>  (59) 
MFCD21611688

>  <CLNUMBER>  (59) 
CL7646

>  <STEREO>  (59) 
ACHIRAL

>  <State>  (59) 
Solid

>  <Similarity score>  (59) 
0.21

$$$$
4-amino-2-(morpholin-4-yl)-6-(3-nitrophenyl)pyridine-3,5-dicarbonitrile
     RDKit          2D

 26 28  0  0  0  0  0  0  0  0999 V2000
    1.7693   -0.2479    0.0000 C   0  0  0  0  0  0  0  0  0  0  0  0
    1.7693    0.7439    0.0000 C   0  0  0  0  0  0  0  0  0  0  0  0
    0.0521    0.7439    0.0000 C   0  0  0  0  0  0  0  0  0  0  0  0
    0.9108   -0.7439    0.0000 N   0  0  0  0  0  0  0  0  0  0  0  0
    0.0521   -0.2479    0.0000 C   0  0  0  0  0  0  0  0  0  0  0  0
    0.9108    1.2401    0.0000 C   0  0  0  0  0  0  0  0  0  0  0  0
   -3.4447   -0.1896    0.0000 N   0  0  0  0  0  0  0  0  0  0  0  0
    2.6321   -0.7439    0.0000 N   0  0  0  0  0  0  0  0  0  0  0  0
    2.6321    1.2401    0.0000 C   0  0  0  0  0  0  0  0  0  0  0  0
   -0.8064    1.2401    0.0000 C   0  0  0  0  0  0  0  0  0  0  0  0
   -0.8064   -0.7439    0.0000 C   0  0  0  0  0  0  0  0  0  0  0  0
   -2.5363   -0.7106    0.0000 C   0  0  0  0  0  0  0  0  0  0  0  0
    3.4907    0.7439    0.0000 N   0  0  0  0  0  0  0  0  0  0  0  0
   -1.6692    0.7439    0.0000 N   0  0  0  0  0  0  0  0  0  0  0  0
   -1.6692   -0.2479    0.0000 C   0  0  0  0  0  0  0  0  0  0  0  0
   -4.3492   -0.7106    0.0000 O   0  0  0  0  0  0  0  0  0  0  0  0
   -3.4447    0.8607    0.0000 O   0  0  0  0  0  0  0  0  0  0  0  0
    0.9108    2.2320    0.0000 N   0  0  0  0  0  0  0  0  0  0  0  0
    4.3492   -1.7359    0.0000 O   0  0  0  0  0  0  0  0  0  0  0  0
    2.6321   -1.7359    0.0000 C   0  0  0  0  0  0  0  0  0  0  0  0
    3.4907   -0.2479    0.0000 C   0  0  0  0  0  0  0  0  0  0  0  0
   -0.8064   -1.7359    0.0000 C   0  0  0  0  0  0  0  0  0  0  0  0
   -2.5404   -1.7609    0.0000 C   0  0  0  0  0  0  0  0  0  0  0  0
   -1.6692   -2.2320    0.0000 C   0  0  0  0  0  0  0  0  0  0  0  0
    3.4907   -2.2320    0.0000 C   0  0  0  0  0  0  0  0  0  0  0  0
    4.3492   -0.7439    0.0000 C   0  0  0  0  0  0  0  0  0  0  0  0
  1  2  2  0
  3  5  1  0
  1  4  1  0
  4  5  2  0
  2  6  1  0
  3  6  2  0
  7 12  1  0
  1  8  1  0
  2  9  1  0
  3 10  1  0
  5 11  1  0
 12 15  1  0
  9 13  3  0
 10 14  3  0
 11 15  2  0
  7 16  1  0
  7 17  2  0
  6 18  1  0
 19 25  1  0
  8 20  1  0
  8 21  1  0
 11 22  1  0
 12 23  2  0
 23 24  1  0
 22 24  2  0
 20 25  1  0
 21 26  1  0
 19 26  1  0
M  CHG  2   7   1  16  -1
M  END
>  <IDNUMBER>  (60) 
8020-7826

>  <available>  (60) 
18

>  <H_acceptor>  (60) 
8

>  <H_donor>  (60) 
2

>  <B_rotN>  (60) 
5

>  <N_O>  (60) 
9

>  <logP>  (60) 
2.3436

>  <logD>  (60) 
2.3436

>  <logSw>  (60) 
-2.648

>  <PSA>  (60) 
107.527

>  <pKa_ma>  (60) 
16.0033

>  <pKa_mb>  (60) 
1.8535

>  <N_Chirals>  (60) 
0

>  <Name>  (60) 
4-amino-2-(morpholin-4-yl)-6-(3-nitrophenyl)pyridine-3,5-dicarbonitrile

>  <Smile>  (60) 
Nc(c(C#N)c(N1CCOCC1)nc1-c2cccc([N+]([O-])=O)c2)c1C#N

>  <Color>  (60) 
NOT COLORED

>  <Collection>  (60) 
DC

>  <InChI>  (60) 
InChI=1S/C17H14N6O3/c18-9-13-15(20)14(10-19)17(22-4-6-26-7-5-22)21-16(13)11-2-1-3-12(8-11)23(24)25/h1-3,8H,4-7H2,(H2,20,21)

>  <InChI Key>  (60) 
OMWHHCKHWCPLHL-UHFFFAOYSA-N

>  <PERCENTSP3>  (60) 
23.53

>  <Link>  (60) 
https://www.chemdiv.com/catalog/screening-compounds/compound-8020-7826/

>  <MFCDNUMBER>  (60) 
MFCD30711407

>  <STEREO>  (60) 
ACHIRAL

>  <State>  (60) 
Solid

>  <Similarity score>  (60) 
0.21

$$$$
3-(3-bromophenyl)-6-fluoro-1-phenyl-1H-pyrazolo[4,3-c]quinoline
     RDKit          2D

 27 31  0  0  0  0  0  0  0  0999 V2000
   -0.8745    0.7497    0.0000 N   0  0  0  0  0  0  0  0  0  0  0  0
   -0.2078   -0.7199    0.0000 C   0  0  0  0  0  0  0  0  0  0  0  0
    0.1231    0.8503    0.0000 N   0  0  0  0  0  0  0  0  0  0  0  0
   -1.0862   -0.2227    0.0000 C   0  0  0  0  0  0  0  0  0  0  0  0
    0.5466   -0.0392    0.0000 C   0  0  0  0  0  0  0  0  0  0  0  0
   -1.9661   -0.7199    0.0000 C   0  0  0  0  0  0  0  0  0  0  0  0
   -1.0862   -2.2083    0.0000 N   0  0  0  0  0  0  0  0  0  0  0  0
   -1.9661   -1.7174    0.0000 C   0  0  0  0  0  0  0  0  0  0  0  0
   -0.2078   -1.7174    0.0000 C   0  0  0  0  0  0  0  0  0  0  0  0
    1.5553   -0.1474    0.0000 C   0  0  0  0  0  0  0  0  0  0  0  0
   -1.4971    1.5167    0.0000 C   0  0  0  0  0  0  0  0  0  0  0  0
   -2.8367   -2.2083    0.0000 C   0  0  0  0  0  0  0  0  0  0  0  0
    2.1309    0.6683    0.0000 C   0  0  0  0  0  0  0  0  0  0  0  0
   -2.8367   -0.2227    0.0000 C   0  0  0  0  0  0  0  0  0  0  0  0
    3.1426    0.5850    0.0000 C   0  0  0  0  0  0  0  0  0  0  0  0
   -2.8367   -3.2060    0.0000 F   0  0  0  0  0  0  0  0  0  0  0  0
    3.7119    1.4070    0.0000 Br  0  0  0  0  0  0  0  0  0  0  0  0
    1.9630   -1.0461    0.0000 C   0  0  0  0  0  0  0  0  0  0  0  0
   -3.7025   -0.7199    0.0000 C   0  0  0  0  0  0  0  0  0  0  0  0
    2.9747   -1.1434    0.0000 C   0  0  0  0  0  0  0  0  0  0  0  0
   -3.7119   -1.7174    0.0000 C   0  0  0  0  0  0  0  0  0  0  0  0
   -2.4744    1.3615    0.0000 C   0  0  0  0  0  0  0  0  0  0  0  0
   -1.1442    2.4374    0.0000 C   0  0  0  0  0  0  0  0  0  0  0  0
    3.5802   -0.3262    0.0000 C   0  0  0  0  0  0  0  0  0  0  0  0
   -1.7685    3.2060    0.0000 C   0  0  0  0  0  0  0  0  0  0  0  0
   -3.0922    2.1190    0.0000 C   0  0  0  0  0  0  0  0  0  0  0  0
   -2.7441    3.0507    0.0000 C   0  0  0  0  0  0  0  0  0  0  0  0
  2  4  2  0
  2  5  1  0
  1  3  1  0
  1  4  1  0
  3  5  2  0
  4  6  1  0
  7  8  1  0
  7  9  2  0
  6  8  1  0
  2  9  1  0
  5 10  1  0
  1 11  1  0
  8 12  2  0
 10 13  1  0
  6 14  2  0
 13 15  2  0
 12 16  1  0
 15 17  1  0
 10 18  2  0
 14 19  1  0
 18 20  1  0
 19 21  2  0
 12 21  1  0
 11 22  1  0
 11 23  2  0
 20 24  2  0
 15 24  1  0
 23 25  1  0
 22 26  2  0
 26 27  1  0
 25 27  2  0
M  END
>  <IDNUMBER>  (61) 
C350-0857

>  <available>  (61) 
72

>  <H_acceptor>  (61) 
2

>  <H_donor>  (61) 
0

>  <B_rotN>  (61) 
2

>  <N_O>  (61) 
3

>  <logP>  (61) 
6.0267

>  <logD>  (61) 
6.0267

>  <logSw>  (61) 
-6.5063

>  <PSA>  (61) 
23.4803

>  <pKa_ma>  (61) 
14

>  <pKa_mb>  (61) 
2.6131

>  <N_Chirals>  (61) 
0

>  <Name>  (61) 
3-(3-bromophenyl)-6-fluoro-1-phenyl-1H-pyrazolo[4,3-c]quinoline

>  <Smile>  (61) 
Fc(cccc12)c1ncc1c2n(-c2ccccc2)nc1-c1cccc(Br)c1

>  <Color>  (61) 
NOT COLORED

>  <Collection>  (61) 
DC

>  <InChI>  (61) 
InChI=1S/C22H13BrFN3/c23-15-7-4-6-14(12-15)20-18-13-25-21-17(10-5-11-19(21)24)22(18)27(26-20)16-8-2-1-3-9-16/h1-13H

>  <InChI Key>  (61) 
YVCHCCNIMXOLDO-UHFFFAOYSA-N

>  <PERCENTSP3>  (61) 
0

>  <Link>  (61) 
https://www.chemdiv.com/catalog/screening-compounds/compound-C350-0857/

>  <MFCDNUMBER>  (61) 
MFCD14750711

>  <CLNUMBER>  (61) 
CL4130

>  <STEREO>  (61) 
ACHIRAL

>  <State>  (61) 
Solid

>  <Similarity score>  (61) 
0.21

$$$$
2-(2-fluorophenyl)-4-(4-methylpiperidin-1-yl)quinazoline
     RDKit          2D

 24 27  0  0  0  0  0  0  0  0999 V2000
    0.5423    0.0959    0.0000 N   0  0  0  0  0  0  0  0  0  0  0  0
    1.5107    0.3530    0.0000 C   0  0  0  0  0  0  0  0  0  0  0  0
    0.2699   -0.8575    0.0000 C   0  0  0  0  0  0  0  0  0  0  0  0
    2.2068   -0.3581    0.0000 N   0  0  0  0  0  0  0  0  0  0  0  0
    0.9810   -1.5484    0.0000 C   0  0  0  0  0  0  0  0  0  0  0  0
    1.7831    1.3064    0.0000 C   0  0  0  0  0  0  0  0  0  0  0  0
   -0.6884   -1.0947    0.0000 N   0  0  0  0  0  0  0  0  0  0  0  0
    1.9443   -1.3064    0.0000 C   0  0  0  0  0  0  0  0  0  0  0  0
    2.7515    1.5484    0.0000 C   0  0  0  0  0  0  0  0  0  0  0  0
   -1.3999   -0.3884    0.0000 C   0  0  0  0  0  0  0  0  0  0  0  0
   -0.9711   -2.0631    0.0000 C   0  0  0  0  0  0  0  0  0  0  0  0
    3.5839    0.8323    0.0000 F   0  0  0  0  0  0  0  0  0  0  0  0
    0.7186   -2.5171    0.0000 C   0  0  0  0  0  0  0  0  0  0  0  0
   -1.9395   -2.3051    0.0000 C   0  0  0  0  0  0  0  0  0  0  0  0
   -2.3783   -0.6456    0.0000 C   0  0  0  0  0  0  0  0  0  0  0  0
    1.0870    2.0177    0.0000 C   0  0  0  0  0  0  0  0  0  0  0  0
   -2.6254   -1.5941    0.0000 C   0  0  0  0  0  0  0  0  0  0  0  0
    2.6455   -2.0024    0.0000 C   0  0  0  0  0  0  0  0  0  0  0  0
    3.0187    2.5171    0.0000 C   0  0  0  0  0  0  0  0  0  0  0  0
   -3.5839   -1.8511    0.0000 C   0  0  0  0  0  0  0  0  0  0  0  0
    1.4197   -3.2282    0.0000 C   0  0  0  0  0  0  0  0  0  0  0  0
    1.3441    2.9708    0.0000 C   0  0  0  0  0  0  0  0  0  0  0  0
    2.3885   -2.9708    0.0000 C   0  0  0  0  0  0  0  0  0  0  0  0
    2.3129    3.2282    0.0000 C   0  0  0  0  0  0  0  0  0  0  0  0
  1  2  1  0
  1  3  2  0
  2  4  2  0
  3  5  1  0
  2  6  1  0
  3  7  1  0
  5  8  1  0
  4  8  1  0
  6  9  2  0
  7 10  1  0
  7 11  1  0
  9 12  1  0
  5 13  2  0
 11 14  1  0
 10 15  1  0
  6 16  1  0
 14 17  1  0
 15 17  1  0
  8 18  2  0
  9 19  1  0
 19 24  2  0
 17 20  1  0
 13 21  1  0
 16 22  2  0
 21 23  2  0
 18 23  1  0
 22 24  1  0
M  END
>  <IDNUMBER>  (62) 
K669-0177

>  <available>  (62) 
1

>  <H_acceptor>  (62) 
2

>  <H_donor>  (62) 
0

>  <B_rotN>  (62) 
2

>  <N_O>  (62) 
3

>  <logP>  (62) 
5.094

>  <logD>  (62) 
4.8246

>  <logSw>  (62) 
-5.1663

>  <PSA>  (62) 
21.6385

>  <pKa_ma>  (62) 
21.7195

>  <pKa_mb>  (62) 
7.3342

>  <N_Chirals>  (62) 
0

>  <Name>  (62) 
2-(2-fluorophenyl)-4-(4-methylpiperidin-1-yl)quinazoline

>  <Smile>  (62) 
CC(CC1)CCN1c1nc(-c(cccc2)c2F)nc2ccccc12

>  <Color>  (62) 
ORANGE

>  <Collection>  (62) 
DC

>  <InChI>  (62) 
InChI=1S/C20H20FN3/c1-14-10-12-24(13-11-14)20-16-7-3-5-9-18(16)22-19(23-20)15-6-2-4-8-17(15)21/h2-9,14H,10-13H2,1H3

>  <InChI Key>  (62) 
QLWQYQSKIFKLDI-UHFFFAOYSA-N

>  <PERCENTSP3>  (62) 
30

>  <Link>  (62) 
https://www.chemdiv.com/catalog/screening-compounds/compound-K669-0177/

>  <MFCDNUMBER>  (62) 
MFCD03675268

>  <CLNUMBER>  (62) 
CL2243

>  <STEREO>  (62) 
ACHIRAL

>  <State>  (62) 
Solid

>  <Similarity score>  (62) 
0.21

$$$$
4-[4-(2-fluorophenyl)piperazin-1-yl]-2-(4-methoxyphenyl)quinazoline
     RDKit          2D

 31 35  0  0  0  0  0  0  0  0999 V2000
    0.0098   -1.2068    0.0000 N   0  0  0  0  0  0  0  0  0  0  0  0
   -0.8614   -0.7160    0.0000 C   0  0  0  0  0  0  0  0  0  0  0  0
    0.0098   -2.2181    0.0000 C   0  0  0  0  0  0  0  0  0  0  0  0
   -1.7226   -1.2068    0.0000 C   0  0  0  0  0  0  0  0  0  0  0  0
   -0.8614   -2.7090    0.0000 N   0  0  0  0  0  0  0  0  0  0  0  0
   -0.8614    0.2955    0.0000 N   0  0  0  0  0  0  0  0  0  0  0  0
   -0.8514    2.3084    0.0000 N   0  0  0  0  0  0  0  0  0  0  0  0
   -1.7226   -2.2181    0.0000 C   0  0  0  0  0  0  0  0  0  0  0  0
   -0.8514    3.2898    0.0000 C   0  0  0  0  0  0  0  0  0  0  0  0
    0.8611   -2.7090    0.0000 C   0  0  0  0  0  0  0  0  0  0  0  0
    0.0098    0.8063    0.0000 C   0  0  0  0  0  0  0  0  0  0  0  0
   -1.7226    0.8063    0.0000 C   0  0  0  0  0  0  0  0  0  0  0  0
   -1.7226    1.7975    0.0000 C   0  0  0  0  0  0  0  0  0  0  0  0
    0.0098    1.7975    0.0000 C   0  0  0  0  0  0  0  0  0  0  0  0
    0.1102    3.5903    0.0000 C   0  0  0  0  0  0  0  0  0  0  0  0
    0.8611   -3.7203    0.0000 C   0  0  0  0  0  0  0  0  0  0  0  0
    1.7323   -2.2181    0.0000 C   0  0  0  0  0  0  0  0  0  0  0  0
    0.8611    2.8991    0.0000 F   0  0  0  0  0  0  0  0  0  0  0  0
    2.5935   -3.7203    0.0000 C   0  0  0  0  0  0  0  0  0  0  0  0
    1.7223   -4.2112    0.0000 C   0  0  0  0  0  0  0  0  0  0  0  0
    2.6037   -2.7090    0.0000 C   0  0  0  0  0  0  0  0  0  0  0  0
   -2.5935   -0.7160    0.0000 C   0  0  0  0  0  0  0  0  0  0  0  0
    3.4648   -4.2312    0.0000 O   0  0  0  0  0  0  0  0  0  0  0  0
   -2.5935   -2.7090    0.0000 C   0  0  0  0  0  0  0  0  0  0  0  0
   -1.5722    3.9506    0.0000 C   0  0  0  0  0  0  0  0  0  0  0  0
    0.3205    4.5515    0.0000 C   0  0  0  0  0  0  0  0  0  0  0  0
    3.4448   -5.2325    0.0000 C   0  0  0  0  0  0  0  0  0  0  0  0
   -3.4648   -1.2068    0.0000 C   0  0  0  0  0  0  0  0  0  0  0  0
   -3.4648   -2.2181    0.0000 C   0  0  0  0  0  0  0  0  0  0  0  0
   -1.3421    4.9320    0.0000 C   0  0  0  0  0  0  0  0  0  0  0  0
   -0.4008    5.2325    0.0000 C   0  0  0  0  0  0  0  0  0  0  0  0
  1  2  2  0
  1  3  1  0
  2  4  1  0
  3  5  2  0
  2  6  1  0
  7 13  1  0
  7 14  1  0
  5  8  1  0
  4  8  1  0
  7  9  1  0
  3 10  1  0
  6 11  1  0
  6 12  1  0
 12 13  1  0
 11 14  1  0
  9 15  2  0
 10 16  2  0
 10 17  1  0
 15 18  1  0
 19 21  1  0
 19 20  2  0
 16 20  1  0
 17 21  2  0
  4 22  2  0
 19 23  1  0
  8 24  2  0
  9 25  1  0
 15 26  1  0
 26 31  2  0
 23 27  1  0
 22 28  1  0
 24 29  1  0
 28 29  2  0
 25 30  2  0
 30 31  1  0
M  END
>  <IDNUMBER>  (63) 
G516-0035

>  <available>  (63) 
216

>  <H_acceptor>  (63) 
3

>  <H_donor>  (63) 
0

>  <B_rotN>  (63) 
4

>  <N_O>  (63) 
5

>  <logP>  (63) 
6.4283

>  <logD>  (63) 
5.9871

>  <logSw>  (63) 
-6.1757

>  <PSA>  (63) 
32.142

>  <pKa_ma>  (63) 
22.2134

>  <pKa_mb>  (63) 
7.6461

>  <N_Chirals>  (63) 
0

>  <Name>  (63) 
4-[4-(2-fluorophenyl)piperazin-1-yl]-2-(4-methoxyphenyl)quinazoline

>  <Smile>  (63) 
COc(cc1)ccc1-c1nc2ccccc2c(N(CC2)CCN2c(cccc2)c2F)n1

>  <Color>  (63) 
YELLOW

>  <Collection>  (63) 
NC

>  <InChI>  (63) 
InChI=1S/C25H23FN4O/c1-31-19-12-10-18(11-13-19)24-27-22-8-4-2-6-20(22)25(28-24)30-16-14-29(15-17-30)23-9-5-3-7-21(23)26/h2-13H,14-17H2,1H3

>  <InChI Key>  (63) 
BSYVVVYSHHYOHE-UHFFFAOYSA-N

>  <PERCENTSP3>  (63) 
20

>  <Link>  (63) 
https://www.chemdiv.com/catalog/screening-compounds/compound-G516-0035/

>  <MFCDNUMBER>  (63) 
MFCD15014993

>  <CLNUMBER>  (63) 
CL2243

>  <STEREO>  (63) 
ACHIRAL

>  <State>  (63) 
Solid

>  <Similarity score>  (63) 
0.21

$$$$
1-(3,4-dimethylphenyl)-6,8-difluoro-3-(4-fluorophenyl)-1H-pyrazolo[4,3-c]quinoli
     RDKit          2D

 30 34  0  0  0  0  0  0  0  0999 V2000
   -0.8194    0.3091    0.0000 N   0  0  0  0  0  0  0  0  0  0  0  0
   -0.1635   -1.1683    0.0000 C   0  0  0  0  0  0  0  0  0  0  0  0
   -1.0314   -0.6690    0.0000 C   0  0  0  0  0  0  0  0  0  0  0  0
    0.1701    0.4151    0.0000 N   0  0  0  0  0  0  0  0  0  0  0  0
    0.5784   -0.4926    0.0000 C   0  0  0  0  0  0  0  0  0  0  0  0
   -1.8881   -1.1725    0.0000 C   0  0  0  0  0  0  0  0  0  0  0  0
   -1.8881   -2.1818    0.0000 C   0  0  0  0  0  0  0  0  0  0  0  0
   -1.0269   -2.6808    0.0000 N   0  0  0  0  0  0  0  0  0  0  0  0
   -1.4861    1.0510    0.0000 C   0  0  0  0  0  0  0  0  0  0  0  0
   -0.1545   -2.1728    0.0000 C   0  0  0  0  0  0  0  0  0  0  0  0
   -2.7671   -2.6874    0.0000 C   0  0  0  0  0  0  0  0  0  0  0  0
   -1.1771    1.9898    0.0000 C   0  0  0  0  0  0  0  0  0  0  0  0
   -3.6350   -2.1818    0.0000 C   0  0  0  0  0  0  0  0  0  0  0  0
    1.5613   -0.7000    0.0000 C   0  0  0  0  0  0  0  0  0  0  0  0
   -2.7671   -0.6735    0.0000 C   0  0  0  0  0  0  0  0  0  0  0  0
   -1.8438    2.7296    0.0000 C   0  0  0  0  0  0  0  0  0  0  0  0
   -3.6305   -1.1725    0.0000 C   0  0  0  0  0  0  0  0  0  0  0  0
   -2.4491    0.8391    0.0000 C   0  0  0  0  0  0  0  0  0  0  0  0
   -2.8110    2.5197    0.0000 C   0  0  0  0  0  0  0  0  0  0  0  0
   -3.1159    1.5702    0.0000 C   0  0  0  0  0  0  0  0  0  0  0  0
    1.8748   -1.6518    0.0000 C   0  0  0  0  0  0  0  0  0  0  0  0
    2.2214    0.0531    0.0000 C   0  0  0  0  0  0  0  0  0  0  0  0
   -2.7671   -3.6811    0.0000 F   0  0  0  0  0  0  0  0  0  0  0  0
    3.5244   -1.0976    0.0000 C   0  0  0  0  0  0  0  0  0  0  0  0
   -4.4982   -0.6735    0.0000 F   0  0  0  0  0  0  0  0  0  0  0  0
    3.1953   -0.1435    0.0000 C   0  0  0  0  0  0  0  0  0  0  0  0
    2.8574   -1.8548    0.0000 C   0  0  0  0  0  0  0  0  0  0  0  0
    4.4982   -1.3050    0.0000 F   0  0  0  0  0  0  0  0  0  0  0  0
   -1.5302    3.6811    0.0000 C   0  0  0  0  0  0  0  0  0  0  0  0
   -3.4780    3.2595    0.0000 C   0  0  0  0  0  0  0  0  0  0  0  0
  2  3  2  0
  2  5  1  0
  1  3  1  0
  1  4  1  0
  4  5  2  0
  3  6  1  0
  6  7  1  0
  7  8  1  0
  1  9  1  0
  2 10  1  0
  8 10  2  0
  7 11  2  0
  9 12  2  0
 13 17  2  0
 11 13  1  0
  5 14  1  0
  6 15  2  0
 12 16  1  0
 16 19  2  0
 15 17  1  0
  9 18  1  0
 19 20  1  0
 18 20  2  0
 14 21  2  0
 14 22  1  0
 11 23  1  0
 24 26  1  0
 17 25  1  0
 22 26  2  0
 21 27  1  0
 24 27  2  0
 24 28  1  0
 16 29  1  0
 19 30  1  0
M  END
>  <IDNUMBER>  (64) 
C350-0426

>  <available>  (64) 
73

>  <H_acceptor>  (64) 
2

>  <H_donor>  (64) 
0

>  <B_rotN>  (64) 
2

>  <N_O>  (64) 
3

>  <logP>  (64) 
6.5833

>  <logD>  (64) 
6.5833

>  <logSw>  (64) 
-5.9041

>  <PSA>  (64) 
23.4803

>  <pKa_ma>  (64) 
28.0078

>  <pKa_mb>  (64) 
2.3765

>  <N_Chirals>  (64) 
0

>  <Name>  (64) 
1-(3,4-dimethylphenyl)-6,8-difluoro-3-(4-fluorophenyl)-1H-pyrazolo[4,3-c]quinoline

>  <Smile>  (64) 
Cc(cc1)c(C)cc1-n(c1c(cc(cc2F)F)c2ncc11)nc1-c(cc1)ccc1F

>  <Color>  (64) 
NOT COLORED

>  <Collection>  (64) 
DC

>  <InChI>  (64) 
InChI=1S/C24H16F3N3/c1-13-3-8-18(9-14(13)2)30-24-19-10-17(26)11-21(27)23(19)28-12-20(24)22(29-30)15-4-6-16(25)7-5-15/h3-12H,1-2H3

>  <InChI Key>  (64) 
LANGNRBUBYUVAX-UHFFFAOYSA-N

>  <PERCENTSP3>  (64) 
8.3

>  <Link>  (64) 
https://www.chemdiv.com/catalog/screening-compounds/compound-C350-0426/

>  <MFCDNUMBER>  (64) 
MFCD14750398

>  <CLNUMBER>  (64) 
CL4130

>  <STEREO>  (64) 
ACHIRAL

>  <State>  (64) 
Solid

>  <Similarity score>  (64) 
0.21

$$$$
4-(3-methoxy-4-propoxyphenyl)-6-(4-methylpiperidin-1-yl)-2-(methylsulfanyl)pyrim
     RDKit          2D

 29 31  0  0  0  0  0  0  0  0999 V2000
   -1.7315    0.5084    0.0000 C   0  0  0  0  0  0  0  0  0  0  0  0
   -0.8691   -0.0042    0.0000 C   0  0  0  0  0  0  0  0  0  0  0  0
   -2.5942   -0.0042    0.0000 N   0  0  0  0  0  0  0  0  0  0  0  0
   -0.8691   -1.0044    0.0000 C   0  0  0  0  0  0  0  0  0  0  0  0
   -2.5942   -1.0044    0.0000 C   0  0  0  0  0  0  0  0  0  0  0  0
   -1.7315   -1.5046    0.0000 N   0  0  0  0  0  0  0  0  0  0  0  0
   -1.7315    1.5210    0.0000 N   0  0  0  0  0  0  0  0  0  0  0  0
    0.0063   -1.5046    0.0000 C   0  0  0  0  0  0  0  0  0  0  0  0
    0.0063    0.4958    0.0000 C   0  0  0  0  0  0  0  0  0  0  0  0
    0.8688   -0.0042    0.0000 N   0  0  0  0  0  0  0  0  0  0  0  0
    0.0063   -2.5172    0.0000 C   0  0  0  0  0  0  0  0  0  0  0  0
    0.8688   -3.0173    0.0000 C   0  0  0  0  0  0  0  0  0  0  0  0
    1.7442   -2.5172    0.0000 C   0  0  0  0  0  0  0  0  0  0  0  0
   -0.8691    2.0212    0.0000 C   0  0  0  0  0  0  0  0  0  0  0  0
   -2.5942    2.0087    0.0000 C   0  0  0  0  0  0  0  0  0  0  0  0
    0.8688   -1.0044    0.0000 C   0  0  0  0  0  0  0  0  0  0  0  0
   -3.4693   -1.5046    0.0000 S   0  0  0  0  0  0  0  0  0  0  0  0
    1.7315   -1.5046    0.0000 C   0  0  0  0  0  0  0  0  0  0  0  0
    0.8688   -4.0050    0.0000 O   0  0  0  0  0  0  0  0  0  0  0  0
   -0.8691    3.0214    0.0000 C   0  0  0  0  0  0  0  0  0  0  0  0
   -2.5942    3.0005    0.0000 C   0  0  0  0  0  0  0  0  0  0  0  0
    2.6066   -3.0131    0.0000 O   0  0  0  0  0  0  0  0  0  0  0  0
   -1.7315    3.5214    0.0000 C   0  0  0  0  0  0  0  0  0  0  0  0
   -4.3321   -1.0044    0.0000 C   0  0  0  0  0  0  0  0  0  0  0  0
    3.4693   -2.5047    0.0000 C   0  0  0  0  0  0  0  0  0  0  0  0
    1.7315   -4.5051    0.0000 C   0  0  0  0  0  0  0  0  0  0  0  0
   -1.7484    4.5051    0.0000 C   0  0  0  0  0  0  0  0  0  0  0  0
    3.4693   -1.5046    0.0000 C   0  0  0  0  0  0  0  0  0  0  0  0
    4.3321   -1.0127    0.0000 C   0  0  0  0  0  0  0  0  0  0  0  0
  1  2  1  0
  1  3  2  0
  2  4  2  0
  4  6  1  0
  3  5  1  0
  5  6  2  0
  1  7  1  0
  4  8  1  0
  2  9  1  0
  9 10  3  0
  8 11  2  0
 11 12  1  0
 12 13  2  0
 13 18  1  0
  7 14  1  0
  7 15  1  0
  8 16  1  0
  5 17  1  0
 16 18  2  0
 12 19  1  0
 14 20  1  0
 20 23  1  0
 15 21  1  0
 13 22  1  0
 21 23  1  0
 17 24  1  0
 22 25  1  0
 19 26  1  0
 23 27  1  0
 25 28  1  0
 28 29  1  0
M  END
>  <IDNUMBER>  (65) 
D287-0168

>  <available>  (65) 
179

>  <H_acceptor>  (65) 
6

>  <H_donor>  (65) 
0

>  <B_rotN>  (65) 
8

>  <N_O>  (65) 
6

>  <logP>  (65) 
5.5007

>  <logD>  (65) 
5.5007

>  <logSw>  (65) 
-5.6446

>  <PSA>  (65) 
53.607

>  <pKa_ma>  (65) 
22.4272

>  <pKa_mb>  (65) 
2.0033

>  <N_Chirals>  (65) 
0

>  <Name>  (65) 
4-(3-methoxy-4-propoxyphenyl)-6-(4-methylpiperidin-1-yl)-2-(methylsulfanyl)pyrimidine-5-carbonitrile

>  <Smile>  (65) 
CCCOc(ccc(-c1nc(SC)nc(N2CCC(C)CC2)c1C#N)c1)c1OC

>  <Color>  (65) 
YELLOW

>  <Collection>  (65) 
DC

>  <InChI>  (65) 
InChI=1S/C22H28N4O2S/c1-5-12-28-18-7-6-16(13-19(18)27-3)20-17(14-23)21(25-22(24-20)29-4)26-10-8-15(2)9-11-26/h6-7,13,15H,5,8-12H2,1-4H3

>  <InChI Key>  (65) 
MVOOZPDUOMIHKA-UHFFFAOYSA-N

>  <PERCENTSP3>  (65) 
50

>  <Link>  (65) 
https://www.chemdiv.com/catalog/screening-compounds/compound-D287-0168/

>  <MFCDNUMBER>  (65) 
MFCD08154858

>  <CLNUMBER>  (65) 
CL6864

>  <STEREO>  (65) 
ACHIRAL

>  <State>  (65) 
Solid

>  <Similarity score>  (65) 
0.21

$$$$
N-(3-cyano-4-fluorophenyl)-1-(3-cyano-6-methylquinolin-4-yl)piperidine-4-carboxa
     RDKit          2D

 31 34  0  0  0  0  0  0  0  0999 V2000
   -0.8525   -3.7370    0.0000 C   0  0  0  0  0  0  0  0  0  0  0  0
    0.0228   -3.2291    0.0000 C   0  0  0  0  0  0  0  0  0  0  0  0
    0.0228   -2.2333    0.0000 N   0  0  0  0  0  0  0  0  0  0  0  0
    0.8927   -3.7370    0.0000 C   0  0  0  0  0  0  0  0  0  0  0  0
    0.0327    0.7696    0.0000 C   0  0  0  0  0  0  0  0  0  0  0  0
    1.7277    3.7475    0.0000 C   0  0  0  0  0  0  0  0  0  0  0  0
    0.0176   -5.2513    0.0000 N   0  0  0  0  0  0  0  0  0  0  0  0
    0.8927    1.2679    0.0000 N   0  0  0  0  0  0  0  0  0  0  0  0
    1.7579   -3.2442    0.0000 C   0  0  0  0  0  0  0  0  0  0  0  0
    2.6181   -2.7312    0.0000 N   0  0  0  0  0  0  0  0  0  0  0  0
    3.4481    4.7534    0.0000 N   0  0  0  0  0  0  0  0  0  0  0  0
    2.5879    4.2552    0.0000 C   0  0  0  0  0  0  0  0  0  0  0  0
   -0.8525   -4.7482    0.0000 C   0  0  0  0  0  0  0  0  0  0  0  0
   -1.7177   -3.2442    0.0000 C   0  0  0  0  0  0  0  0  0  0  0  0
    0.8927   -4.7482    0.0000 C   0  0  0  0  0  0  0  0  0  0  0  0
    0.8528    4.2454    0.0000 C   0  0  0  0  0  0  0  0  0  0  0  0
    0.0327   -0.2363    0.0000 C   0  0  0  0  0  0  0  0  0  0  0  0
    0.8830    2.2635    0.0000 C   0  0  0  0  0  0  0  0  0  0  0  0
    1.7379    2.7515    0.0000 C   0  0  0  0  0  0  0  0  0  0  0  0
   -0.8427   -1.7301    0.0000 C   0  0  0  0  0  0  0  0  0  0  0  0
    0.8830   -1.7301    0.0000 C   0  0  0  0  0  0  0  0  0  0  0  0
   -0.8374    1.2830    0.0000 O   0  0  0  0  0  0  0  0  0  0  0  0
   -0.8374   -0.7244    0.0000 C   0  0  0  0  0  0  0  0  0  0  0  0
    0.8927   -0.7342    0.0000 C   0  0  0  0  0  0  0  0  0  0  0  0
    0.0025    3.7173    0.0000 C   0  0  0  0  0  0  0  0  0  0  0  0
   -1.7177   -5.2513    0.0000 C   0  0  0  0  0  0  0  0  0  0  0  0
   -2.5879   -3.7424    0.0000 C   0  0  0  0  0  0  0  0  0  0  0  0
    0.0228    2.7315    0.0000 C   0  0  0  0  0  0  0  0  0  0  0  0
    0.8377    5.2513    0.0000 F   0  0  0  0  0  0  0  0  0  0  0  0
   -2.5879   -4.7380    0.0000 C   0  0  0  0  0  0  0  0  0  0  0  0
   -3.4481   -3.2392    0.0000 C   0  0  0  0  0  0  0  0  0  0  0  0
  1  2  1  0
  2  3  1  0
  2  4  2  0
  5 17  1  0
  6 19  1  0
  7 13  1  0
  5  8  1  0
  4  9  1  0
  9 10  3  0
 11 12  3  0
  6 12  1  0
  1 13  1  0
  1 14  2  0
  7 15  2  0
  4 15  1  0
 16 25  1  0
  6 16  2  0
 17 24  1  0
  8 18  1  0
 18 19  2  0
  3 20  1  0
  3 21  1  0
  5 22  2  0
 20 23  1  0
 17 23  1  0
 21 24  1  0
 25 28  2  0
 13 26  2  0
 26 30  1  0
 14 27  1  0
 18 28  1  0
 16 29  1  0
 27 30  2  0
 27 31  1  0
M  END
>  <IDNUMBER>  (66) 
L483-0669

>  <available>  (66) 
56

>  <H_acceptor>  (66) 
5

>  <H_donor>  (66) 
1

>  <B_rotN>  (66) 
6

>  <N_O>  (66) 
6

>  <logP>  (66) 
3.8729

>  <logD>  (66) 
3.8331

>  <logSw>  (66) 
-3.7904

>  <PSA>  (66) 
69.145

>  <pKa_ma>  (66) 
8.4639

>  <pKa_mb>  (66) 
5.3498

>  <N_Chirals>  (66) 
0

>  <Name>  (66) 
N-(3-cyano-4-fluorophenyl)-1-(3-cyano-6-methylquinolin-4-yl)piperidine-4-carboxamide

>  <Smile>  (66) 
Cc(cc12)ccc2ncc(C#N)c1N(CC1)CCC1C(Nc(cc1)cc(C#N)c1F)=O

>  <Color>  (66) 
ORANGE

>  <Collection>  (66) 
NC

>  <InChI>  (66) 
InChI=1S/C24H20FN5O/c1-15-2-5-22-20(10-15)23(18(13-27)14-28-22)30-8-6-16(7-9-30)24(31)29-19-3-4-21(25)17(11-19)12-26/h2-5,10-11,14,16H,6-9H2,1H3,(H,29,31)

>  <InChI Key>  (66) 
DIRABTLXBZEJFV-UHFFFAOYSA-N

>  <PERCENTSP3>  (66) 
25

>  <Link>  (66) 
https://www.chemdiv.com/catalog/screening-compounds/compound-L483-0669/

>  <MFCDNUMBER>  (66) 
MFCD27456594

>  <CLNUMBER>  (66) 
CL6761A

>  <STEREO>  (66) 
ACHIRAL

>  <State>  (66) 
Solid

>  <Similarity score>  (66) 
0.21

$$$$
2-(3,4-dimethoxyphenyl)-7-ethoxy-6-methoxy-4-{4-[3-(trifluoromethyl)phenyl]piper
     RDKit          2D

 41 45  0  0  0  0  0  0  0  0999 V2000
    0.0189    1.6586    0.0000 C   0  0  0  0  0  0  0  0  0  0  0  0
    0.9065    2.1755    0.0000 N   0  0  0  0  0  0  0  0  0  0  0  0
   -0.8522    2.1755    0.0000 C   0  0  0  0  0  0  0  0  0  0  0  0
    0.8814    3.1881    0.0000 C   0  0  0  0  0  0  0  0  0  0  0  0
   -0.8522    3.1714    0.0000 C   0  0  0  0  0  0  0  0  0  0  0  0
    0.0021    3.6881    0.0000 N   0  0  0  0  0  0  0  0  0  0  0  0
    0.0189    0.6627    0.0000 N   0  0  0  0  0  0  0  0  0  0  0  0
   -1.6939   -4.3175    0.0000 C   0  0  0  0  0  0  0  0  0  0  0  0
   -1.7232    1.6586    0.0000 C   0  0  0  0  0  0  0  0  0  0  0  0
    0.0314   -1.3336    0.0000 N   0  0  0  0  0  0  0  0  0  0  0  0
   -1.7399    3.6714    0.0000 C   0  0  0  0  0  0  0  0  0  0  0  0
    1.7526    3.6923    0.0000 C   0  0  0  0  0  0  0  0  0  0  0  0
   -0.8313   -3.8133    0.0000 C   0  0  0  0  0  0  0  0  0  0  0  0
   -2.6067    2.1755    0.0000 C   0  0  0  0  0  0  0  0  0  0  0  0
    0.0314   -2.3212    0.0000 C   0  0  0  0  0  0  0  0  0  0  0  0
   -2.6067    3.1714    0.0000 C   0  0  0  0  0  0  0  0  0  0  0  0
   -0.8313   -2.8213    0.0000 C   0  0  0  0  0  0  0  0  0  0  0  0
    2.6069    3.2047    0.0000 C   0  0  0  0  0  0  0  0  0  0  0  0
    3.4694    3.6923    0.0000 C   0  0  0  0  0  0  0  0  0  0  0  0
   -0.8439    0.1624    0.0000 C   0  0  0  0  0  0  0  0  0  0  0  0
    0.8814    0.1750    0.0000 C   0  0  0  0  0  0  0  0  0  0  0  0
   -0.8439   -0.8502    0.0000 C   0  0  0  0  0  0  0  0  0  0  0  0
    0.9065   -0.8209    0.0000 C   0  0  0  0  0  0  0  0  0  0  0  0
    3.4694    4.6967    0.0000 C   0  0  0  0  0  0  0  0  0  0  0  0
    1.7526    4.6841    0.0000 C   0  0  0  0  0  0  0  0  0  0  0  0
   -2.5441   -4.8050    0.0000 F   0  0  0  0  0  0  0  0  0  0  0  0
   -1.1939   -5.1841    0.0000 F   0  0  0  0  0  0  0  0  0  0  0  0
   -2.1817   -3.4507    0.0000 F   0  0  0  0  0  0  0  0  0  0  0  0
    2.6025    5.1675    0.0000 C   0  0  0  0  0  0  0  0  0  0  0  0
   -3.4527    1.6586    0.0000 O   0  0  0  0  0  0  0  0  0  0  0  0
   -3.4527    3.6714    0.0000 O   0  0  0  0  0  0  0  0  0  0  0  0
    4.3570    3.2088    0.0000 O   0  0  0  0  0  0  0  0  0  0  0  0
    4.3321    5.1841    0.0000 O   0  0  0  0  0  0  0  0  0  0  0  0
    0.0563   -4.3175    0.0000 C   0  0  0  0  0  0  0  0  0  0  0  0
    0.9065   -2.8047    0.0000 C   0  0  0  0  0  0  0  0  0  0  0  0
    0.9065   -3.8133    0.0000 C   0  0  0  0  0  0  0  0  0  0  0  0
   -4.3404    3.1714    0.0000 C   0  0  0  0  0  0  0  0  0  0  0  0
    5.2030    3.6923    0.0000 C   0  0  0  0  0  0  0  0  0  0  0  0
   -4.3279    2.1755    0.0000 C   0  0  0  0  0  0  0  0  0  0  0  0
    5.2030    4.7134    0.0000 C   0  0  0  0  0  0  0  0  0  0  0  0
   -5.2030    3.6714    0.0000 C   0  0  0  0  0  0  0  0  0  0  0  0
  1  2  2  0
  1  3  1  0
  2  4  1  0
  4  6  2  0
  3  5  2  0
  5  6  1  0
  1  7  1  0
  8 13  1  0
  3  9  1  0
 10 23  1  0
  5 11  1  0
 11 16  2  0
  4 12  1  0
 13 17  2  0
 13 34  1  0
  9 14  2  0
 10 15  1  0
 14 16  1  0
 15 17  1  0
 12 18  1  0
 18 19  2  0
 19 24  1  0
  7 20  1  0
  7 21  1  0
 20 22  1  0
 10 22  1  0
 21 23  1  0
 24 29  2  0
 12 25  2  0
  8 26  1  0
  8 27  1  0
  8 28  1  0
 25 29  1  0
 14 30  1  0
 16 31  1  0
 19 32  1  0
 24 33  1  0
 34 36  2  0
 15 35  2  0
 35 36  1  0
 31 37  1  0
 32 38  1  0
 30 39  1  0
 33 40  1  0
 37 41  1  0
M  END
>  <IDNUMBER>  (67) 
IB02-2513

>  <available>  (67) 
50

>  <H_acceptor>  (67) 
6

>  <H_donor>  (67) 
0

>  <B_rotN>  (67) 
9

>  <N_O>  (67) 
8

>  <logP>  (67) 
6.53

>  <logD>  (67) 
5.58

>  <logSw>  (67) 
-7.81

>  <PSA>  (67) 
57.38

>  <pKa_ma>  (67) 
14

>  <pKa_mb>  (67) 
8.3

>  <N_Chirals>  (67) 
0

>  <Name>  (67) 
2-(3,4-dimethoxyphenyl)-7-ethoxy-6-methoxy-4-{4-[3-(trifluoromethyl)phenyl]piperazin-1-yl}quinazoline

>  <Smile>  (67) 
CCOc(cc(c1c2)nc(-c(cc3)cc(OC)c3OC)nc1N(CC1)CCN1c1cccc(C(F)(F)F)c1)c2OC

>  <Color>  (67) 
NOT COLORED

>  <Collection>  (67) 
DC

>  <InChI>  (67) 
InChI=1S/C30H31F3N4O4/c1-5-41-27-18-23-22(17-26(27)40-4)29(35-28(34-23)19-9-10-24(38-2)25(15-19)39-3)37-13-11-36(12-14-37)21-8-6-7-20(16-21)30(31,32)33/h6-10,15-18H,5,11-14H2,1-4H3

>  <InChI Key>  (67) 
GRKYKENRTLMKPY-UHFFFAOYSA-N

>  <PERCENTSP3>  (67) 
33.3

>  <Link>  (67) 
https://www.chemdiv.com/catalog/screening-compounds/compound-IB02-2513/

>  <STEREO>  (67) 
ACHIRAL

>  <State>  (67) 
Solid

>  <Similarity score>  (67) 
0.21

$$$$
4-[4-(4-fluorophenyl)piperazin-1-yl]-2-(4-methoxyphenyl)quinazoline
     RDKit          2D

 31 35  0  0  0  0  0  0  0  0999 V2000
    0.0097   -1.7367    0.0000 N   0  0  0  0  0  0  0  0  0  0  0  0
   -0.8611   -1.2463    0.0000 C   0  0  0  0  0  0  0  0  0  0  0  0
    0.0097   -2.7479    0.0000 C   0  0  0  0  0  0  0  0  0  0  0  0
   -1.7218   -1.7367    0.0000 C   0  0  0  0  0  0  0  0  0  0  0  0
   -0.8611   -3.2385    0.0000 N   0  0  0  0  0  0  0  0  0  0  0  0
   -0.8611   -0.2351    0.0000 N   0  0  0  0  0  0  0  0  0  0  0  0
   -0.8807    1.7765    0.0000 N   0  0  0  0  0  0  0  0  0  0  0  0
   -1.7218   -2.7479    0.0000 C   0  0  0  0  0  0  0  0  0  0  0  0
    0.8611   -3.2385    0.0000 C   0  0  0  0  0  0  0  0  0  0  0  0
   -0.8807    2.7580    0.0000 C   0  0  0  0  0  0  0  0  0  0  0  0
   -0.0097    0.2751    0.0000 C   0  0  0  0  0  0  0  0  0  0  0  0
   -1.7319    0.2751    0.0000 C   0  0  0  0  0  0  0  0  0  0  0  0
   -0.0097    1.2659    0.0000 C   0  0  0  0  0  0  0  0  0  0  0  0
   -1.7319    1.2659    0.0000 C   0  0  0  0  0  0  0  0  0  0  0  0
    1.7319   -2.7479    0.0000 C   0  0  0  0  0  0  0  0  0  0  0  0
    0.8611   -4.2492    0.0000 C   0  0  0  0  0  0  0  0  0  0  0  0
   -1.7515    3.2385    0.0000 C   0  0  0  0  0  0  0  0  0  0  0  0
   -0.0200    3.2385    0.0000 C   0  0  0  0  0  0  0  0  0  0  0  0
   -0.8908    4.7398    0.0000 C   0  0  0  0  0  0  0  0  0  0  0  0
    2.5926   -4.2492    0.0000 C   0  0  0  0  0  0  0  0  0  0  0  0
   -0.0400    4.2593    0.0000 C   0  0  0  0  0  0  0  0  0  0  0  0
   -1.7515    4.2593    0.0000 C   0  0  0  0  0  0  0  0  0  0  0  0
    2.6027   -3.2385    0.0000 C   0  0  0  0  0  0  0  0  0  0  0  0
    1.7218   -4.7401    0.0000 C   0  0  0  0  0  0  0  0  0  0  0  0
   -2.5926   -1.2463    0.0000 C   0  0  0  0  0  0  0  0  0  0  0  0
   -0.8908    5.7609    0.0000 F   0  0  0  0  0  0  0  0  0  0  0  0
    3.4634   -4.7597    0.0000 O   0  0  0  0  0  0  0  0  0  0  0  0
   -2.5926   -3.2385    0.0000 C   0  0  0  0  0  0  0  0  0  0  0  0
    3.4437   -5.7609    0.0000 C   0  0  0  0  0  0  0  0  0  0  0  0
   -3.4634   -1.7367    0.0000 C   0  0  0  0  0  0  0  0  0  0  0  0
   -3.4634   -2.7479    0.0000 C   0  0  0  0  0  0  0  0  0  0  0  0
  1  2  2  0
  1  3  1  0
  2  4  1  0
  3  5  2  0
  2  6  1  0
  7 14  1  0
  7 13  1  0
  5  8  1  0
  4  8  1  0
  3  9  1  0
  7 10  1  0
  6 11  1  0
  6 12  1  0
 11 13  1  0
 12 14  1  0
  9 15  1  0
  9 16  2  0
 10 17  2  0
 10 18  1  0
 19 21  1  0
 19 22  2  0
 20 24  2  0
 18 21  2  0
 17 22  1  0
 15 23  2  0
 20 23  1  0
 16 24  1  0
  4 25  2  0
 19 26  1  0
 20 27  1  0
  8 28  2  0
 27 29  1  0
 25 30  1  0
 28 31  1  0
 30 31  2  0
M  END
>  <IDNUMBER>  (68) 
G516-0073

>  <available>  (68) 
95

>  <H_acceptor>  (68) 
3

>  <H_donor>  (68) 
0

>  <B_rotN>  (68) 
4

>  <N_O>  (68) 
5

>  <logP>  (68) 
6.4004

>  <logD>  (68) 
5.9592

>  <logSw>  (68) 
-6.1865

>  <PSA>  (68) 
32.443

>  <pKa_ma>  (68) 
22.2134

>  <pKa_mb>  (68) 
7.6461

>  <N_Chirals>  (68) 
0

>  <Name>  (68) 
4-[4-(4-fluorophenyl)piperazin-1-yl]-2-(4-methoxyphenyl)quinazoline

>  <Smile>  (68) 
COc(cc1)ccc1-c1nc2ccccc2c(N(CC2)CCN2c(cc2)ccc2F)n1

>  <Color>  (68) 
YELLOW

>  <Collection>  (68) 
NC

>  <InChI>  (68) 
InChI=1S/C25H23FN4O/c1-31-21-12-6-18(7-13-21)24-27-23-5-3-2-4-22(23)25(28-24)30-16-14-29(15-17-30)20-10-8-19(26)9-11-20/h2-13H,14-17H2,1H3

>  <InChI Key>  (68) 
DEIYRUOEGMADCH-UHFFFAOYSA-N

>  <PERCENTSP3>  (68) 
20

>  <Link>  (68) 
https://www.chemdiv.com/catalog/screening-compounds/compound-G516-0073/

>  <MFCDNUMBER>  (68) 
MFCD15015016

>  <CLNUMBER>  (68) 
CL2243

>  <STEREO>  (68) 
ACHIRAL

>  <State>  (68) 
Solid

>  <Similarity score>  (68) 
0.21

$$$$
2-(4-chlorophenyl)-4-(piperidin-1-yl)[1]benzofuro[3,2-d]pyrimidine
     RDKit          2D

 26 30  0  0  0  0  0  0  0  0999 V2000
   -0.1369   -2.0507    0.0000 C   0  0  0  0  0  0  0  0  0  0  0  0
    0.7298   -1.5542    0.0000 C   0  0  0  0  0  0  0  0  0  0  0  0
   -1.0006   -1.5542    0.0000 C   0  0  0  0  0  0  0  0  0  0  0  0
    0.7298   -0.5521    0.0000 N   0  0  0  0  0  0  0  0  0  0  0  0
   -1.0006   -0.5521    0.0000 N   0  0  0  0  0  0  0  0  0  0  0  0
   -0.3445   -3.0317    0.0000 O   0  0  0  0  0  0  0  0  0  0  0  0
   -0.1369   -0.0527    0.0000 C   0  0  0  0  0  0  0  0  0  0  0  0
   -1.7438   -2.2222    0.0000 C   0  0  0  0  0  0  0  0  0  0  0  0
   -1.3375   -3.1340    0.0000 C   0  0  0  0  0  0  0  0  0  0  0  0
    1.5963   -2.0507    0.0000 N   0  0  0  0  0  0  0  0  0  0  0  0
   -0.1369    0.9464    0.0000 C   0  0  0  0  0  0  0  0  0  0  0  0
   -1.0006    1.4458    0.0000 C   0  0  0  0  0  0  0  0  0  0  0  0
    0.7298    1.4458    0.0000 C   0  0  0  0  0  0  0  0  0  0  0  0
   -0.1369    2.9444    0.0000 C   0  0  0  0  0  0  0  0  0  0  0  0
    0.7298    2.4450    0.0000 C   0  0  0  0  0  0  0  0  0  0  0  0
   -1.0006    2.4450    0.0000 C   0  0  0  0  0  0  0  0  0  0  0  0
   -0.1369    3.9465    0.0000 Cl  0  0  0  0  0  0  0  0  0  0  0  0
   -2.7429   -2.1200    0.0000 C   0  0  0  0  0  0  0  0  0  0  0  0
    2.4631   -1.5542    0.0000 C   0  0  0  0  0  0  0  0  0  0  0  0
    1.5963   -3.0527    0.0000 C   0  0  0  0  0  0  0  0  0  0  0  0
   -1.9304   -3.9465    0.0000 C   0  0  0  0  0  0  0  0  0  0  0  0
   -3.3297   -2.9264    0.0000 C   0  0  0  0  0  0  0  0  0  0  0  0
    3.3297   -2.0507    0.0000 C   0  0  0  0  0  0  0  0  0  0  0  0
    2.4631   -3.5554    0.0000 C   0  0  0  0  0  0  0  0  0  0  0  0
   -2.9235   -3.8381    0.0000 C   0  0  0  0  0  0  0  0  0  0  0  0
    3.3297   -3.0527    0.0000 C   0  0  0  0  0  0  0  0  0  0  0  0
  1  2  1  0
  1  3  2  0
  2  4  2  0
  4  7  1  0
  3  5  1  0
  1  6  1  0
  5  7  2  0
  3  8  1  0
  6  9  1  0
  8  9  2  0
  2 10  1  0
  7 11  1  0
 11 12  1  0
 11 13  2  0
 14 15  2  0
 13 15  1  0
 12 16  2  0
 14 16  1  0
 14 17  1  0
  8 18  1  0
 10 19  1  0
 10 20  1  0
  9 21  1  0
 18 22  2  0
 19 23  1  0
 20 24  1  0
 21 25  2  0
 22 25  1  0
 24 26  1  0
 23 26  1  0
M  END
>  <IDNUMBER>  (69) 
4237-0557

>  <available>  (69) 
74

>  <H_acceptor>  (69) 
3

>  <H_donor>  (69) 
0

>  <B_rotN>  (69) 
2

>  <N_O>  (69) 
4

>  <logP>  (69) 
6.826

>  <logD>  (69) 
6.6055

>  <logSw>  (69) 
-6.7996

>  <PSA>  (69) 
30.8283

>  <pKa_ma>  (69) 
22.8374

>  <pKa_mb>  (69) 
7.2207

>  <N_Chirals>  (69) 
0

>  <Name>  (69) 
2-(4-chlorophenyl)-4-(piperidin-1-yl)[1]benzofuro[3,2-d]pyrimidine

>  <Smile>  (69) 
Clc(cc1)ccc1-c1nc(N2CCCCC2)c2oc(cccc3)c3c2n1

>  <Color>  (69) 
ORANGE

>  <Collection>  (69) 
DC

>  <InChI>  (69) 
InChI=1S/C21H18ClN3O/c22-15-10-8-14(9-11-15)20-23-18-16-6-2-3-7-17(16)26-19(18)21(24-20)25-12-4-1-5-13-25/h2-3,6-11H,1,4-5,12-13H2

>  <InChI Key>  (69) 
WQDHJJIGUHPVNY-UHFFFAOYSA-N

>  <PERCENTSP3>  (69) 
23.8

>  <Link>  (69) 
https://www.chemdiv.com/catalog/screening-compounds/compound-4237-0557/

>  <MFCDNUMBER>  (69) 
MFCD01872129

>  <CLNUMBER>  (69) 
CL1503

>  <STEREO>  (69) 
ACHIRAL

>  <State>  (69) 
Solid

>  <Similarity score>  (69) 
0.21

$$$$
4-amino-2-(3,4-dichlorophenyl)-6-(diethylamino)pyridine-3,5-dicarbonitrile
     RDKit          2D

 24 25  0  0  0  0  0  0  0  0999 V2000
    1.3150    0.7648    0.0000 C   0  0  0  0  0  0  0  0  0  0  0  0
   -0.4064    0.7648    0.0000 C   0  0  0  0  0  0  0  0  0  0  0  0
    1.3150   -0.2314    0.0000 C   0  0  0  0  0  0  0  0  0  0  0  0
    0.4564   -0.7273    0.0000 N   0  0  0  0  0  0  0  0  0  0  0  0
   -0.4064   -0.2314    0.0000 C   0  0  0  0  0  0  0  0  0  0  0  0
    0.4564    1.2608    0.0000 C   0  0  0  0  0  0  0  0  0  0  0  0
   -1.2690   -0.7273    0.0000 C   0  0  0  0  0  0  0  0  0  0  0  0
    2.1777    1.2608    0.0000 C   0  0  0  0  0  0  0  0  0  0  0  0
   -1.2690    1.2608    0.0000 C   0  0  0  0  0  0  0  0  0  0  0  0
   -2.1319    0.7648    0.0000 N   0  0  0  0  0  0  0  0  0  0  0  0
    3.0405    0.7648    0.0000 N   0  0  0  0  0  0  0  0  0  0  0  0
   -2.1319   -0.2314    0.0000 C   0  0  0  0  0  0  0  0  0  0  0  0
   -2.9989   -0.6939    0.0000 C   0  0  0  0  0  0  0  0  0  0  0  0
    2.1777   -0.7273    0.0000 N   0  0  0  0  0  0  0  0  0  0  0  0
   -2.9989   -1.7359    0.0000 C   0  0  0  0  0  0  0  0  0  0  0  0
   -1.2690   -1.7234    0.0000 C   0  0  0  0  0  0  0  0  0  0  0  0
    0.4564    2.2568    0.0000 N   0  0  0  0  0  0  0  0  0  0  0  0
   -2.1319   -2.2195    0.0000 C   0  0  0  0  0  0  0  0  0  0  0  0
   -3.9033   -0.1771    0.0000 Cl  0  0  0  0  0  0  0  0  0  0  0  0
   -3.8991   -2.2568    0.0000 Cl  0  0  0  0  0  0  0  0  0  0  0  0
    2.1777   -1.7234    0.0000 C   0  0  0  0  0  0  0  0  0  0  0  0
    3.0405   -0.2314    0.0000 C   0  0  0  0  0  0  0  0  0  0  0  0
    3.0405   -2.2195    0.0000 C   0  0  0  0  0  0  0  0  0  0  0  0
    3.9033   -0.7273    0.0000 C   0  0  0  0  0  0  0  0  0  0  0  0
  2  6  2  0
  1  3  2  0
  3  4  1  0
  4  5  2  0
  2  5  1  0
  1  6  1  0
  5  7  1  0
  1  8  1  0
  2  9  1  0
  9 10  3  0
  8 11  3  0
  7 12  2  0
 12 13  1  0
  3 14  1  0
 13 15  2  0
 15 18  1  0
  7 16  1  0
  6 17  1  0
 16 18  2  0
 13 19  1  0
 15 20  1  0
 14 21  1  0
 14 22  1  0
 21 23  1  0
 22 24  1  0
M  END
>  <IDNUMBER>  (70) 
8020-7829

>  <available>  (70) 
8

>  <H_acceptor>  (70) 
3

>  <H_donor>  (70) 
2

>  <B_rotN>  (70) 
6

>  <N_O>  (70) 
5

>  <logP>  (70) 
4.5006

>  <logD>  (70) 
4.5005

>  <logSw>  (70) 
-4.9199

>  <PSA>  (70) 
65.521

>  <pKa_ma>  (70) 
16.0033

>  <pKa_mb>  (70) 
3.7815

>  <N_Chirals>  (70) 
0

>  <Name>  (70) 
4-amino-2-(3,4-dichlorophenyl)-6-(diethylamino)pyridine-3,5-dicarbonitrile

>  <Smile>  (70) 
CCN(CC)c(nc(-c(cc1)cc(Cl)c1Cl)c(C#N)c1N)c1C#N

>  <Color>  (70) 
NOT COLORED

>  <Collection>  (70) 
DC

>  <InChI>  (70) 
InChI=1S/C17H15Cl2N5/c1-3-24(4-2)17-12(9-21)15(22)11(8-20)16(23-17)10-5-6-13(18)14(19)7-10/h5-7H,3-4H2,1-2H3,(H2,22,23)

>  <InChI Key>  (70) 
MIIYVXJNTLTMJH-UHFFFAOYSA-N

>  <PERCENTSP3>  (70) 
23.53

>  <Link>  (70) 
https://www.chemdiv.com/catalog/screening-compounds/compound-8020-7829/

>  <MFCDNUMBER>  (70) 
MFCD31943786

>  <STEREO>  (70) 
ACHIRAL

>  <State>  (70) 
Solid

>  <Similarity score>  (70) 
0.21

$$$$
6-ethoxy-4-(4-methylpiperidin-1-yl)quinoline-3-carbonitrile
     RDKit          2D

 22 24  0  0  0  0  0  0  0  0999 V2000
    0.0278   -1.4922    0.0000 C   0  0  0  0  0  0  0  0  0  0  0  0
   -0.8357   -0.9923    0.0000 C   0  0  0  0  0  0  0  0  0  0  0  0
   -0.8408    0.0076    0.0000 N   0  0  0  0  0  0  0  0  0  0  0  0
   -1.7043   -1.5074    0.0000 C   0  0  0  0  0  0  0  0  0  0  0  0
   -0.8257   -3.0072    0.0000 N   0  0  0  0  0  0  0  0  0  0  0  0
   -2.5678   -1.0075    0.0000 C   0  0  0  0  0  0  0  0  0  0  0  0
   -3.4465   -0.5176    0.0000 N   0  0  0  0  0  0  0  0  0  0  0  0
    0.0278   -2.4921    0.0000 C   0  0  0  0  0  0  0  0  0  0  0  0
    0.8863   -0.9923    0.0000 C   0  0  0  0  0  0  0  0  0  0  0  0
   -1.6992   -2.5073    0.0000 C   0  0  0  0  0  0  0  0  0  0  0  0
   -1.7195    0.4923    0.0000 C   0  0  0  0  0  0  0  0  0  0  0  0
    0.0228    0.5075    0.0000 C   0  0  0  0  0  0  0  0  0  0  0  0
    0.9015   -2.9768    0.0000 C   0  0  0  0  0  0  0  0  0  0  0  0
    1.7499   -1.4770    0.0000 C   0  0  0  0  0  0  0  0  0  0  0  0
    1.7650   -2.4770    0.0000 C   0  0  0  0  0  0  0  0  0  0  0  0
   -1.7195    1.4973    0.0000 C   0  0  0  0  0  0  0  0  0  0  0  0
    0.0076    1.5074    0.0000 C   0  0  0  0  0  0  0  0  0  0  0  0
   -0.8559    2.0073    0.0000 C   0  0  0  0  0  0  0  0  0  0  0  0
    2.6032   -0.9620    0.0000 O   0  0  0  0  0  0  0  0  0  0  0  0
    2.5881    0.0379    0.0000 C   0  0  0  0  0  0  0  0  0  0  0  0
   -0.8559    3.0072    0.0000 C   0  0  0  0  0  0  0  0  0  0  0  0
    3.4465    0.5529    0.0000 C   0  0  0  0  0  0  0  0  0  0  0  0
  1  2  1  0
  2  3  1  0
  2  4  2  0
  5  8  1  0
  4  6  1  0
  6  7  3  0
  1  8  1  0
  1  9  2  0
  5 10  2  0
  4 10  1  0
  3 11  1  0
  3 12  1  0
  8 13  2  0
 13 15  1  0
  9 14  1  0
 14 15  2  0
 11 16  1  0
 16 18  1  0
 12 17  1  0
 17 18  1  0
 14 19  1  0
 19 20  1  0
 18 21  1  0
 20 22  1  0
M  END
>  <IDNUMBER>  (71) 
F360-0969

>  <available>  (71) 
58

>  <H_acceptor>  (71) 
3

>  <H_donor>  (71) 
0

>  <B_rotN>  (71) 
4

>  <N_O>  (71) 
4

>  <logP>  (71) 
3.913

>  <logD>  (71) 
3.8844

>  <logSw>  (71) 
-3.8897

>  <PSA>  (71) 
36.121

>  <pKa_ma>  (71) 
25.4155

>  <pKa_mb>  (71) 
6.2336

>  <N_Chirals>  (71) 
0

>  <Name>  (71) 
6-ethoxy-4-(4-methylpiperidin-1-yl)quinoline-3-carbonitrile

>  <Smile>  (71) 
CCOc(ccc1ncc2C#N)cc1c2N1CCC(C)CC1

>  <Color>  (71) 
NOT COLORED

>  <Collection>  (71) 
NC

>  <InChI>  (71) 
InChI=1S/C18H21N3O/c1-3-22-15-4-5-17-16(10-15)18(14(11-19)12-20-17)21-8-6-13(2)7-9-21/h4-5,10,12-13H,3,6-9H2,1-2H3

>  <InChI Key>  (71) 
SRRPIRUMBZEWSL-UHFFFAOYSA-N

>  <PERCENTSP3>  (71) 
44.4

>  <Link>  (71) 
https://www.chemdiv.com/catalog/screening-compounds/compound-F360-0969/

>  <MFCDNUMBER>  (71) 
MFCD11995798

>  <CLNUMBER>  (71) 
CL6761

>  <STEREO>  (71) 
ACHIRAL

>  <State>  (71) 
Solid

>  <Similarity score>  (71) 
0.21

$$$$
4-(2,6-dimethylmorpholin-4-yl)-2-(4-nitrophenyl)quinazoline
     RDKit          2D

 27 30  0  0  0  0  0  0  0  0999 V2000
   -1.3229    0.7686    0.0000 C   0  0  0  0  0  0  0  0  0  0  0  0
   -0.4642    0.2747    0.0000 N   0  0  0  0  0  0  0  0  0  0  0  0
   -1.3229    1.7661    0.0000 N   0  0  0  0  0  0  0  0  0  0  0  0
   -0.4364   -0.7274    0.0000 C   0  0  0  0  0  0  0  0  0  0  0  0
    3.0545   -2.7222    0.0000 N   0  0  0  0  0  0  0  0  0  0  0  0
   -2.1819    0.2563    0.0000 C   0  0  0  0  0  0  0  0  0  0  0  0
   -1.3229   -1.2538    0.0000 N   0  0  0  0  0  0  0  0  0  0  0  0
   -2.1819   -0.7274    0.0000 C   0  0  0  0  0  0  0  0  0  0  0  0
    2.1771   -2.2188    0.0000 C   0  0  0  0  0  0  0  0  0  0  0  0
   -0.4642    2.2510    0.0000 C   0  0  0  0  0  0  0  0  0  0  0  0
   -2.1819    2.2510    0.0000 C   0  0  0  0  0  0  0  0  0  0  0  0
   -1.3229    3.7333    0.0000 O   0  0  0  0  0  0  0  0  0  0  0  0
    0.4226   -1.2261    0.0000 C   0  0  0  0  0  0  0  0  0  0  0  0
    3.0777   -3.7333    0.0000 O   0  0  0  0  0  0  0  0  0  0  0  0
    3.9273   -2.2049    0.0000 O   0  0  0  0  0  0  0  0  0  0  0  0
   -2.1819    3.2346    0.0000 C   0  0  0  0  0  0  0  0  0  0  0  0
   -0.4642    3.2346    0.0000 C   0  0  0  0  0  0  0  0  0  0  0  0
    2.1543   -1.2214    0.0000 C   0  0  0  0  0  0  0  0  0  0  0  0
    1.3045   -2.7222    0.0000 C   0  0  0  0  0  0  0  0  0  0  0  0
    1.2675   -0.7227    0.0000 C   0  0  0  0  0  0  0  0  0  0  0  0
    0.4226   -2.2372    0.0000 C   0  0  0  0  0  0  0  0  0  0  0  0
   -3.0685    0.7549    0.0000 C   0  0  0  0  0  0  0  0  0  0  0  0
   -3.0685   -1.2538    0.0000 C   0  0  0  0  0  0  0  0  0  0  0  0
    0.3809    3.7333    0.0000 C   0  0  0  0  0  0  0  0  0  0  0  0
   -3.0407    3.7333    0.0000 C   0  0  0  0  0  0  0  0  0  0  0  0
   -3.9273    0.2563    0.0000 C   0  0  0  0  0  0  0  0  0  0  0  0
   -3.9273   -0.7274    0.0000 C   0  0  0  0  0  0  0  0  0  0  0  0
  1  2  2  0
  1  3  1  0
  2  4  1  0
  5  9  1  0
  1  6  1  0
  7  8  1  0
  4  7  2  0
  6  8  1  0
  9 19  2  0
  9 18  1  0
  3 10  1  0
  3 11  1  0
 12 16  1  0
  4 13  1  0
  5 14  1  0
  5 15  2  0
 11 16  1  0
 10 17  1  0
 12 17  1  0
 18 20  2  0
 19 21  1  0
 13 20  1  0
 13 21  2  0
  6 22  2  0
  8 23  2  0
 17 24  1  0
 16 25  1  0
 22 26  1  0
 26 27  2  0
 23 27  1  0
M  CHG  2   5   1  14  -1
M  END
>  <IDNUMBER>  (72) 
4358-4653

>  <available>  (72) 
1

>  <H_acceptor>  (72) 
7

>  <H_donor>  (72) 
0

>  <B_rotN>  (72) 
3

>  <N_O>  (72) 
7

>  <logP>  (72) 
4.6803

>  <logD>  (72) 
4.0959

>  <logSw>  (72) 
-4.5853

>  <PSA>  (72) 
61.952

>  <pKa_ma>  (72) 
23.0256

>  <pKa_mb>  (72) 
7.8534

>  <N_Chirals>  (72) 
2

>  <Name>  (72) 
4-(2,6-dimethylmorpholin-4-yl)-2-(4-nitrophenyl)quinazoline

>  <Smile>  (72) 
CC(C1)OC(C)CN1c1nc(-c(cc2)ccc2[N+]([O-])=O)nc2ccccc12

>  <Color>  (72) 
YELLOW

>  <Collection>  (72) 
NC

>  <InChI>  (72) 
InChI=1S/C20H20N4O3/c1-13-11-23(12-14(2)27-13)20-17-5-3-4-6-18(17)21-19(22-20)15-7-9-16(10-8-15)24(25)26/h3-10,13-14H,11-12H2,1-2H3

>  <InChI Key>  (72) 
MQCJWTDNHBARFK-UHFFFAOYSA-N

>  <PERCENTSP3>  (72) 
30

>  <Link>  (72) 
https://www.chemdiv.com/catalog/screening-compounds/compound-4358-4653/

>  <MFCDNUMBER>  (72) 
MFCD03293730

>  <CLNUMBER>  (72) 
CL2243

>  <STEREO>  (72) 
MIXTURE OF STEREOISOMERS

>  <State>  (72) 
Solid

>  <Similarity score>  (72) 
0.21

$$$$
6,8-difluoro-1,3-diphenyl-1H-pyrazolo[4,3-c]quinoline
     RDKit          2D

 27 31  0  0  0  0  0  0  0  0999 V2000
   -0.3338    0.7848    0.0000 N   0  0  0  0  0  0  0  0  0  0  0  0
    0.3170   -0.6877    0.0000 C   0  0  0  0  0  0  0  0  0  0  0  0
   -0.5462   -0.1892    0.0000 C   0  0  0  0  0  0  0  0  0  0  0  0
    0.6509    0.8911    0.0000 N   0  0  0  0  0  0  0  0  0  0  0  0
    1.0587   -0.0229    0.0000 C   0  0  0  0  0  0  0  0  0  0  0  0
   -1.4079   -0.7031    0.0000 C   0  0  0  0  0  0  0  0  0  0  0  0
   -1.4079   -1.7033    0.0000 C   0  0  0  0  0  0  0  0  0  0  0  0
   -0.5355   -2.2018    0.0000 N   0  0  0  0  0  0  0  0  0  0  0  0
    0.3325   -1.7033    0.0000 C   0  0  0  0  0  0  0  0  0  0  0  0
   -2.2758   -2.2127    0.0000 C   0  0  0  0  0  0  0  0  0  0  0  0
   -3.1482   -1.7125    0.0000 C   0  0  0  0  0  0  0  0  0  0  0  0
   -1.0002    1.5264    0.0000 C   0  0  0  0  0  0  0  0  0  0  0  0
   -2.2758   -0.1984    0.0000 C   0  0  0  0  0  0  0  0  0  0  0  0
   -3.1482   -0.7031    0.0000 C   0  0  0  0  0  0  0  0  0  0  0  0
    2.0435   -0.2200    0.0000 C   0  0  0  0  0  0  0  0  0  0  0  0
   -2.2866   -3.2021    0.0000 F   0  0  0  0  0  0  0  0  0  0  0  0
   -4.0115   -0.2047    0.0000 F   0  0  0  0  0  0  0  0  0  0  0  0
   -0.6970    2.4651    0.0000 C   0  0  0  0  0  0  0  0  0  0  0  0
   -1.9680    1.3140    0.0000 C   0  0  0  0  0  0  0  0  0  0  0  0
    2.3603   -1.1724    0.0000 C   0  0  0  0  0  0  0  0  0  0  0  0
    2.7096    0.5278    0.0000 C   0  0  0  0  0  0  0  0  0  0  0  0
    3.6883    0.3308    0.0000 C   0  0  0  0  0  0  0  0  0  0  0  0
   -1.3525    3.2021    0.0000 C   0  0  0  0  0  0  0  0  0  0  0  0
   -2.6327    2.0513    0.0000 C   0  0  0  0  0  0  0  0  0  0  0  0
    3.3453   -1.3801    0.0000 C   0  0  0  0  0  0  0  0  0  0  0  0
   -2.3312    2.9943    0.0000 C   0  0  0  0  0  0  0  0  0  0  0  0
    4.0115   -0.6277    0.0000 C   0  0  0  0  0  0  0  0  0  0  0  0
  2  3  2  0
  2  5  1  0
  1  3  1  0
  1  4  1  0
  4  5  2  0
  3  6  1  0
  6  7  1  0
  7  8  1  0
  2  9  1  0
  8  9  2  0
  7 10  2  0
 11 14  2  0
 10 11  1  0
  1 12  1  0
  6 13  2  0
 13 14  1  0
  5 15  1  0
 10 16  1  0
 14 17  1  0
 12 18  2  0
 12 19  1  0
 15 20  2  0
 15 21  1  0
 21 22  2  0
 18 23  1  0
 23 26  2  0
 19 24  2  0
 20 25  1  0
 25 27  2  0
 24 26  1  0
 22 27  1  0
M  END
>  <IDNUMBER>  (73) 
C350-0099

>  <available>  (73) 
40

>  <H_acceptor>  (73) 
2

>  <H_donor>  (73) 
0

>  <B_rotN>  (73) 
2

>  <N_O>  (73) 
3

>  <logP>  (73) 
5.2001

>  <logD>  (73) 
5.2001

>  <logSw>  (73) 
-5.5426

>  <PSA>  (73) 
23.4803

>  <pKa_ma>  (73) 
14

>  <pKa_mb>  (73) 
2.2647

>  <N_Chirals>  (73) 
0

>  <Name>  (73) 
6,8-difluoro-1,3-diphenyl-1H-pyrazolo[4,3-c]quinoline

>  <Smile>  (73) 
Fc(cc(c1ncc23)F)cc1c3n(-c1ccccc1)nc2-c1ccccc1

>  <Color>  (73) 
NOT COLORED

>  <Collection>  (73) 
DC

>  <InChI>  (73) 
InChI=1S/C22H13F2N3/c23-15-11-17-21(19(24)12-15)25-13-18-20(14-7-3-1-4-8-14)26-27(22(17)18)16-9-5-2-6-10-16/h1-13H

>  <InChI Key>  (73) 
MJMLASBHGHYTLB-UHFFFAOYSA-N

>  <PERCENTSP3>  (73) 
0

>  <Link>  (73) 
https://www.chemdiv.com/catalog/screening-compounds/compound-C350-0099/

>  <MFCDNUMBER>  (73) 
MFCD14750126

>  <CLNUMBER>  (73) 
CL4130

>  <STEREO>  (73) 
ACHIRAL

>  <State>  (73) 
Solid

>  <Similarity score>  (73) 
0.21

$$$$
1-(3-cyano-6-fluoroquinolin-4-yl)-N-(4-ethoxyphenyl)piperidine-4-carboxamide
     RDKit          2D

 31 34  0  0  0  0  0  0  0  0999 V2000
   -0.4368   -4.4872    0.0000 C   0  0  0  0  0  0  0  0  0  0  0  0
    0.4316   -3.9775    0.0000 C   0  0  0  0  0  0  0  0  0  0  0  0
    0.4316   -2.9781    0.0000 N   0  0  0  0  0  0  0  0  0  0  0  0
    1.3097   -4.4872    0.0000 C   0  0  0  0  0  0  0  0  0  0  0  0
    0.4415    0.0202    0.0000 C   0  0  0  0  0  0  0  0  0  0  0  0
    0.4263   -5.9917    0.0000 N   0  0  0  0  0  0  0  0  0  0  0  0
    2.1729   -3.9927    0.0000 C   0  0  0  0  0  0  0  0  0  0  0  0
    3.0361   -3.4778    0.0000 N   0  0  0  0  0  0  0  0  0  0  0  0
    1.3097    0.5100    0.0000 N   0  0  0  0  0  0  0  0  0  0  0  0
   -0.4468   -5.4919    0.0000 C   0  0  0  0  0  0  0  0  0  0  0  0
   -1.3099   -3.9877    0.0000 C   0  0  0  0  0  0  0  0  0  0  0  0
    1.3097   -5.4919    0.0000 C   0  0  0  0  0  0  0  0  0  0  0  0
    0.4415   -0.9791    0.0000 C   0  0  0  0  0  0  0  0  0  0  0  0
   -0.4318   -2.4785    0.0000 C   0  0  0  0  0  0  0  0  0  0  0  0
    1.3047   -2.4785    0.0000 C   0  0  0  0  0  0  0  0  0  0  0  0
   -0.4217    0.5202    0.0000 O   0  0  0  0  0  0  0  0  0  0  0  0
   -0.4318   -1.4788    0.0000 C   0  0  0  0  0  0  0  0  0  0  0  0
    1.3097   -1.4889    0.0000 C   0  0  0  0  0  0  0  0  0  0  0  0
    1.2948    1.5043    0.0000 C   0  0  0  0  0  0  0  0  0  0  0  0
   -1.3099   -5.9917    0.0000 C   0  0  0  0  0  0  0  0  0  0  0  0
   -2.1729   -4.4923    0.0000 C   0  0  0  0  0  0  0  0  0  0  0  0
    1.2644    3.4879    0.0000 C   0  0  0  0  0  0  0  0  0  0  0  0
   -2.1729   -5.4919    0.0000 C   0  0  0  0  0  0  0  0  0  0  0  0
   -3.0361   -3.9927    0.0000 F   0  0  0  0  0  0  0  0  0  0  0  0
    2.1529    2.0040    0.0000 C   0  0  0  0  0  0  0  0  0  0  0  0
    0.4316    1.9788    0.0000 C   0  0  0  0  0  0  0  0  0  0  0  0
    0.4164    2.9734    0.0000 C   0  0  0  0  0  0  0  0  0  0  0  0
    2.1428    2.9934    0.0000 C   0  0  0  0  0  0  0  0  0  0  0  0
    1.2495    4.4874    0.0000 O   0  0  0  0  0  0  0  0  0  0  0  0
    1.2339    5.4867    0.0000 C   0  0  0  0  0  0  0  0  0  0  0  0
    2.0922    5.9917    0.0000 C   0  0  0  0  0  0  0  0  0  0  0  0
  1  2  1  0
  2  3  1  0
  2  4  2  0
  5 13  1  0
  6 10  1  0
  4  7  1  0
  7  8  3  0
  5  9  1  0
  1 10  1  0
  1 11  2  0
  6 12  2  0
  4 12  1  0
 13 18  1  0
  3 14  1  0
  3 15  1  0
  5 16  2  0
 14 17  1  0
 13 17  1  0
 15 18  1  0
  9 19  1  0
 10 20  2  0
 20 23  1  0
 11 21  1  0
 22 27  1  0
 21 23  2  0
 21 24  1  0
 19 25  2  0
 19 26  1  0
 26 27  2  0
 25 28  1  0
 22 28  2  0
 22 29  1  0
 29 30  1  0
 30 31  1  0
M  END
>  <IDNUMBER>  (74) 
L483-0445

>  <available>  (74) 
88

>  <H_acceptor>  (74) 
5

>  <H_donor>  (74) 
1

>  <B_rotN>  (74) 
7

>  <N_O>  (74) 
6

>  <logP>  (74) 
3.9199

>  <logD>  (74) 
3.9196

>  <logSw>  (74) 
-3.7934

>  <PSA>  (74) 
59.213

>  <pKa_ma>  (74) 
11.7513

>  <pKa_mb>  (74) 
4.2541

>  <N_Chirals>  (74) 
0

>  <Name>  (74) 
1-(3-cyano-6-fluoroquinolin-4-yl)-N-(4-ethoxyphenyl)piperidine-4-carboxamide

>  <Smile>  (74) 
CCOc(cc1)ccc1NC(C(CC1)CCN1c1c(cc(cc2)F)c2ncc1C#N)=O

>  <Color>  (74) 
BROWN

>  <Collection>  (74) 
NC

>  <InChI>  (74) 
InChI=1S/C24H23FN4O2/c1-2-31-20-6-4-19(5-7-20)28-24(30)16-9-11-29(12-10-16)23-17(14-26)15-27-22-8-3-18(25)13-21(22)23/h3-8,13,15-16H,2,9-12H2,1H3,(H,28,30)

>  <InChI Key>  (74) 
XEHCNWUPEAJDRL-UHFFFAOYSA-N

>  <PERCENTSP3>  (74) 
29.2

>  <Link>  (74) 
https://www.chemdiv.com/catalog/screening-compounds/compound-L483-0445/

>  <MFCDNUMBER>  (74) 
MFCD16638914

>  <CLNUMBER>  (74) 
CL6761A

>  <STEREO>  (74) 
ACHIRAL

>  <State>  (74) 
Solid

>  <Similarity score>  (74) 
0.21

$$$$
1-(3-cyano-6-fluoroquinolin-4-yl)-N-[4-(trifluoromethoxy)phenyl]piperidine-4-car
     RDKit          2D

 33 36  0  0  0  0  0  0  0  0999 V2000
   -0.4327   -4.4931    0.0000 C   0  0  0  0  0  0  0  0  0  0  0  0
    0.4327   -3.9849    0.0000 C   0  0  0  0  0  0  0  0  0  0  0  0
    0.4327   -2.9886    0.0000 N   0  0  0  0  0  0  0  0  0  0  0  0
    1.3082   -4.4931    0.0000 C   0  0  0  0  0  0  0  0  0  0  0  0
    0.4478    0.0154    0.0000 C   0  0  0  0  0  0  0  0  0  0  0  0
    2.1083    5.0015    0.0000 C   0  0  0  0  0  0  0  0  0  0  0  0
    0.4327   -6.0076    0.0000 N   0  0  0  0  0  0  0  0  0  0  0  0
    2.1785   -4.0000    0.0000 C   0  0  0  0  0  0  0  0  0  0  0  0
    3.0389   -3.4869    0.0000 N   0  0  0  0  0  0  0  0  0  0  0  0
    1.3082    0.5133    0.0000 N   0  0  0  0  0  0  0  0  0  0  0  0
   -0.4429   -5.5045    0.0000 C   0  0  0  0  0  0  0  0  0  0  0  0
   -1.3033   -4.0000    0.0000 C   0  0  0  0  0  0  0  0  0  0  0  0
    1.3082   -5.5045    0.0000 C   0  0  0  0  0  0  0  0  0  0  0  0
    0.4478   -0.9911    0.0000 C   0  0  0  0  0  0  0  0  0  0  0  0
    1.2477    4.4884    0.0000 O   0  0  0  0  0  0  0  0  0  0  0  0
   -0.4277   -2.4753    0.0000 C   0  0  0  0  0  0  0  0  0  0  0  0
    1.3029   -2.4753    0.0000 C   0  0  0  0  0  0  0  0  0  0  0  0
   -0.4177    0.5287    0.0000 O   0  0  0  0  0  0  0  0  0  0  0  0
   -0.4277   -1.4792    0.0000 C   0  0  0  0  0  0  0  0  0  0  0  0
    1.3082   -1.4891    0.0000 C   0  0  0  0  0  0  0  0  0  0  0  0
    1.2930    1.5096    0.0000 C   0  0  0  0  0  0  0  0  0  0  0  0
    2.0882    6.0076    0.0000 F   0  0  0  0  0  0  0  0  0  0  0  0
    2.3798    4.0456    0.0000 F   0  0  0  0  0  0  0  0  0  0  0  0
    2.9788    4.5185    0.0000 F   0  0  0  0  0  0  0  0  0  0  0  0
   -1.3033   -6.0076    0.0000 C   0  0  0  0  0  0  0  0  0  0  0  0
   -2.1688   -4.4931    0.0000 C   0  0  0  0  0  0  0  0  0  0  0  0
    1.2629    3.4921    0.0000 C   0  0  0  0  0  0  0  0  0  0  0  0
   -2.1688   -5.4943    0.0000 C   0  0  0  0  0  0  0  0  0  0  0  0
   -3.0389   -3.9849    0.0000 F   0  0  0  0  0  0  0  0  0  0  0  0
    0.4429    1.9774    0.0000 C   0  0  0  0  0  0  0  0  0  0  0  0
    2.1534    1.9977    0.0000 C   0  0  0  0  0  0  0  0  0  0  0  0
    0.4177    2.9638    0.0000 C   0  0  0  0  0  0  0  0  0  0  0  0
    2.1383    2.9940    0.0000 C   0  0  0  0  0  0  0  0  0  0  0  0
  1  2  1  0
  2  3  1  0
  2  4  2  0
  5 14  1  0
  6 15  1  0
  7 11  1  0
  4  8  1  0
  8  9  3  0
  5 10  1  0
  1 11  1  0
  1 12  2  0
  7 13  2  0
  4 13  1  0
 14 20  1  0
 15 27  1  0
  3 16  1  0
  3 17  1  0
  5 18  2  0
 16 19  1  0
 14 19  1  0
 17 20  1  0
 10 21  1  0
  6 22  1  0
  6 23  1  0
  6 24  1  0
 11 25  2  0
 25 28  1  0
 12 26  1  0
 27 33  2  0
 26 28  2  0
 26 29  1  0
 21 30  1  0
 21 31  2  0
 30 32  2  0
 27 32  1  0
 31 33  1  0
M  END
>  <IDNUMBER>  (75) 
L483-0472

>  <available>  (75) 
54

>  <H_acceptor>  (75) 
5

>  <H_donor>  (75) 
1

>  <B_rotN>  (75) 
7

>  <N_O>  (75) 
6

>  <logP>  (75) 
4.7422

>  <logD>  (75) 
4.7419

>  <logSw>  (75) 
-4.7161

>  <PSA>  (75) 
58.026

>  <pKa_ma>  (75) 
11.7513

>  <pKa_mb>  (75) 
4.2541

>  <N_Chirals>  (75) 
0

>  <Name>  (75) 
1-(3-cyano-6-fluoroquinolin-4-yl)-N-[4-(trifluoromethoxy)phenyl]piperidine-4-carboxamide

>  <Smile>  (75) 
N#Cc1cnc(ccc(F)c2)c2c1N(CC1)CCC1C(Nc(cc1)ccc1OC(F)(F)F)=O

>  <Color>  (75) 
NOT COLORED

>  <Collection>  (75) 
NC

>  <InChI>  (75) 
InChI=1S/C23H18F4N4O2/c24-16-1-6-20-19(11-16)21(15(12-28)13-29-20)31-9-7-14(8-10-31)22(32)30-17-2-4-18(5-3-17)33-23(25,26)27/h1-6,11,13-14H,7-10H2,(H,30,32)

>  <InChI Key>  (75) 
ZRAXHVMZOHXYBH-UHFFFAOYSA-N

>  <PERCENTSP3>  (75) 
26.1

>  <Link>  (75) 
https://www.chemdiv.com/catalog/screening-compounds/compound-L483-0472/

>  <MFCDNUMBER>  (75) 
MFCD27456462

>  <CLNUMBER>  (75) 
CL6761A

>  <STEREO>  (75) 
ACHIRAL

>  <State>  (75) 
Solid

>  <Similarity score>  (75) 
0.21

$$$$
1-(3-cyano-6-ethoxyquinolin-4-yl)-N-(3,5-difluorophenyl)piperidine-4-carboxamide
     RDKit          2D

 32 35  0  0  0  0  0  0  0  0999 V2000
    0.4279   -3.2363    0.0000 C   0  0  0  0  0  0  0  0  0  0  0  0
    1.2936   -2.7330    0.0000 C   0  0  0  0  0  0  0  0  0  0  0  0
    1.2936   -1.7364    0.0000 N   0  0  0  0  0  0  0  0  0  0  0  0
    2.1694   -3.2363    0.0000 C   0  0  0  0  0  0  0  0  0  0  0  0
    1.3088    1.2783    0.0000 C   0  0  0  0  0  0  0  0  0  0  0  0
    1.2936   -4.7564    0.0000 N   0  0  0  0  0  0  0  0  0  0  0  0
    2.1694    1.7767    0.0000 N   0  0  0  0  0  0  0  0  0  0  0  0
    2.1541    2.7731    0.0000 C   0  0  0  0  0  0  0  0  0  0  0  0
    3.0399   -2.7482    0.0000 C   0  0  0  0  0  0  0  0  0  0  0  0
    3.9007   -2.2348    0.0000 N   0  0  0  0  0  0  0  0  0  0  0  0
    0.4178   -4.2481    0.0000 C   0  0  0  0  0  0  0  0  0  0  0  0
   -0.4429   -2.7381    0.0000 C   0  0  0  0  0  0  0  0  0  0  0  0
    2.1694   -4.2481    0.0000 C   0  0  0  0  0  0  0  0  0  0  0  0
    1.3088    0.2667    0.0000 C   0  0  0  0  0  0  0  0  0  0  0  0
    1.3037    3.2413    0.0000 C   0  0  0  0  0  0  0  0  0  0  0  0
    3.0148    3.2564    0.0000 C   0  0  0  0  0  0  0  0  0  0  0  0
    2.1642   -1.2280    0.0000 C   0  0  0  0  0  0  0  0  0  0  0  0
    0.4328   -1.2280    0.0000 C   0  0  0  0  0  0  0  0  0  0  0  0
    1.2786    4.2227    0.0000 C   0  0  0  0  0  0  0  0  0  0  0  0
    2.9997    4.2531    0.0000 C   0  0  0  0  0  0  0  0  0  0  0  0
    0.4429    1.7816    0.0000 O   0  0  0  0  0  0  0  0  0  0  0  0
    2.1239    4.7514    0.0000 C   0  0  0  0  0  0  0  0  0  0  0  0
    0.4328   -0.2264    0.0000 C   0  0  0  0  0  0  0  0  0  0  0  0
    2.1694   -0.2314    0.0000 C   0  0  0  0  0  0  0  0  0  0  0  0
   -0.4429   -4.7463    0.0000 C   0  0  0  0  0  0  0  0  0  0  0  0
   -1.3088   -3.2363    0.0000 C   0  0  0  0  0  0  0  0  0  0  0  0
    0.4028    4.7059    0.0000 F   0  0  0  0  0  0  0  0  0  0  0  0
    3.8606    4.7564    0.0000 F   0  0  0  0  0  0  0  0  0  0  0  0
   -1.3088   -4.2430    0.0000 C   0  0  0  0  0  0  0  0  0  0  0  0
   -2.1694   -2.7381    0.0000 O   0  0  0  0  0  0  0  0  0  0  0  0
   -3.0399   -3.2312    0.0000 C   0  0  0  0  0  0  0  0  0  0  0  0
   -3.9007   -2.7330    0.0000 C   0  0  0  0  0  0  0  0  0  0  0  0
  1  2  1  0
  2  3  1  0
  2  4  2  0
  5 14  1  0
  6 11  1  0
  5  7  1  0
  7  8  1  0
  4  9  1  0
  9 10  3  0
  1 11  1  0
  1 12  2  0
  6 13  2  0
  4 13  1  0
 14 23  1  0
  8 15  1  0
  8 16  2  0
  3 17  1  0
  3 18  1  0
 15 19  2  0
 19 22  1  0
 16 20  1  0
  5 21  2  0
 20 22  2  0
 18 23  1  0
 17 24  1  0
 14 24  1  0
 11 25  2  0
 25 29  1  0
 12 26  1  0
 19 27  1  0
 20 28  1  0
 26 29  2  0
 26 30  1  0
 30 31  1  0
 31 32  1  0
M  END
>  <IDNUMBER>  (76) 
L483-0759

>  <available>  (76) 
5

>  <H_acceptor>  (76) 
5

>  <H_donor>  (76) 
1

>  <B_rotN>  (76) 
7

>  <N_O>  (76) 
6

>  <logP>  (76) 
4.3605

>  <logD>  (76) 
4.2823

>  <logSw>  (76) 
-4.0791

>  <PSA>  (76) 
59.213

>  <pKa_ma>  (76) 
8.3176

>  <pKa_mb>  (76) 
6.2336

>  <N_Chirals>  (76) 
0

>  <Name>  (76) 
1-(3-cyano-6-ethoxyquinolin-4-yl)-N-(3,5-difluorophenyl)piperidine-4-carboxamide

>  <Smile>  (76) 
CCOc(cc12)ccc2ncc(C#N)c1N(CC1)CCC1C(Nc1cc(F)cc(F)c1)=O

>  <Color>  (76) 
BROWN

>  <Collection>  (76) 
NC

>  <InChI>  (76) 
InChI=1S/C24H22F2N4O2/c1-2-32-20-3-4-22-21(12-20)23(16(13-27)14-28-22)30-7-5-15(6-8-30)24(31)29-19-10-17(25)9-18(26)11-19/h3-4,9-12,14-15H,2,5-8H2,1H3,(H,29,31)

>  <InChI Key>  (76) 
OHCHUUNUOQPUPC-UHFFFAOYSA-N

>  <PERCENTSP3>  (76) 
29.2

>  <Link>  (76) 
https://www.chemdiv.com/catalog/screening-compounds/compound-L483-0759/

>  <MFCDNUMBER>  (76) 
MFCD27456619

>  <CLNUMBER>  (76) 
CL6761A

>  <STEREO>  (76) 
ACHIRAL

>  <State>  (76) 
Solid

>  <Similarity score>  (76) 
0.21

$$$$
1-(3-cyano-6-ethoxyquinolin-4-yl)-N-[(4-fluorophenyl)methyl]piperidine-4-carboxa
     RDKit          2D

 32 35  0  0  0  0  0  0  0  0999 V2000
   -0.4266   -3.2461    0.0000 C   0  0  0  0  0  0  0  0  0  0  0  0
    0.4417   -2.7361    0.0000 C   0  0  0  0  0  0  0  0  0  0  0  0
    0.4417   -1.7365    0.0000 N   0  0  0  0  0  0  0  0  0  0  0  0
    1.3151   -3.2461    0.0000 C   0  0  0  0  0  0  0  0  0  0  0  0
    0.4370   -4.7506    0.0000 N   0  0  0  0  0  0  0  0  0  0  0  0
    0.4517    1.2621    0.0000 C   0  0  0  0  0  0  0  0  0  0  0  0
    2.1834   -2.7514    0.0000 C   0  0  0  0  0  0  0  0  0  0  0  0
    3.0468   -2.2465    0.0000 N   0  0  0  0  0  0  0  0  0  0  0  0
   -0.4365   -4.2505    0.0000 C   0  0  0  0  0  0  0  0  0  0  0  0
    1.3151    1.7518    0.0000 N   0  0  0  0  0  0  0  0  0  0  0  0
   -1.2999   -2.7462    0.0000 C   0  0  0  0  0  0  0  0  0  0  0  0
    1.3151   -4.2505    0.0000 C   0  0  0  0  0  0  0  0  0  0  0  0
    0.4517    0.2625    0.0000 C   0  0  0  0  0  0  0  0  0  0  0  0
   -0.4214   -1.2368    0.0000 C   0  0  0  0  0  0  0  0  0  0  0  0
    1.3051   -1.2368    0.0000 C   0  0  0  0  0  0  0  0  0  0  0  0
   -0.4114    1.7617    0.0000 O   0  0  0  0  0  0  0  0  0  0  0  0
   -0.4214   -0.2372    0.0000 C   0  0  0  0  0  0  0  0  0  0  0  0
    1.3151   -0.2472    0.0000 C   0  0  0  0  0  0  0  0  0  0  0  0
   -1.2999   -4.7506    0.0000 C   0  0  0  0  0  0  0  0  0  0  0  0
   -2.1630   -3.2461    0.0000 C   0  0  0  0  0  0  0  0  0  0  0  0
    1.3051    2.7462    0.0000 C   0  0  0  0  0  0  0  0  0  0  0  0
    3.8796    4.2505    0.0000 C   0  0  0  0  0  0  0  0  0  0  0  0
    2.1682    3.2461    0.0000 C   0  0  0  0  0  0  0  0  0  0  0  0
   -2.1630   -4.2505    0.0000 C   0  0  0  0  0  0  0  0  0  0  0  0
    4.7530    4.7506    0.0000 F   0  0  0  0  0  0  0  0  0  0  0  0
    3.0165    4.7454    0.0000 C   0  0  0  0  0  0  0  0  0  0  0  0
    3.8898    3.2509    0.0000 C   0  0  0  0  0  0  0  0  0  0  0  0
    2.1531    4.2454    0.0000 C   0  0  0  0  0  0  0  0  0  0  0  0
    3.0316    2.7514    0.0000 C   0  0  0  0  0  0  0  0  0  0  0  0
   -3.0264   -2.7462    0.0000 O   0  0  0  0  0  0  0  0  0  0  0  0
   -3.8895   -3.2461    0.0000 C   0  0  0  0  0  0  0  0  0  0  0  0
   -4.7530   -2.7462    0.0000 C   0  0  0  0  0  0  0  0  0  0  0  0
  1  2  1  0
  2  3  1  0
  2  4  2  0
  5  9  1  0
  6 13  1  0
  4  7  1  0
  7  8  3  0
  1  9  1  0
  6 10  1  0
  1 11  2  0
  5 12  2  0
  4 12  1  0
 13 18  1  0
  3 14  1  0
  3 15  1  0
  6 16  2  0
 14 17  1  0
 13 17  1  0
 15 18  1  0
  9 19  2  0
 19 24  1  0
 11 20  1  0
 10 21  1  0
 22 27  2  0
 22 26  1  0
 21 23  1  0
 20 24  2  0
 22 25  1  0
 26 28  2  0
 27 29  1  0
 23 28  1  0
 23 29  2  0
 20 30  1  0
 30 31  1  0
 31 32  1  0
M  END
>  <IDNUMBER>  (77) 
L483-0684

>  <available>  (77) 
133

>  <H_acceptor>  (77) 
5

>  <H_donor>  (77) 
1

>  <B_rotN>  (77) 
8

>  <N_O>  (77) 
6

>  <logP>  (77) 
3.616

>  <logD>  (77) 
3.5874

>  <logSw>  (77) 
-3.6555

>  <PSA>  (77) 
60.535

>  <pKa_ma>  (77) 
12.1429

>  <pKa_mb>  (77) 
6.2336

>  <N_Chirals>  (77) 
0

>  <Name>  (77) 
1-(3-cyano-6-ethoxyquinolin-4-yl)-N-[(4-fluorophenyl)methyl]piperidine-4-carboxamide

>  <Smile>  (77) 
CCOc(cc12)ccc2ncc(C#N)c1N(CC1)CCC1C(NCc(cc1)ccc1F)=O

>  <Color>  (77) 
NOT COLORED

>  <Collection>  (77) 
NC

>  <InChI>  (77) 
InChI=1S/C25H25FN4O2/c1-2-32-21-7-8-23-22(13-21)24(19(14-27)16-28-23)30-11-9-18(10-12-30)25(31)29-15-17-3-5-20(26)6-4-17/h3-8,13,16,18H,2,9-12,15H2,1H3,(H,29,31)

>  <InChI Key>  (77) 
KZVLCDPHSPICTR-UHFFFAOYSA-N

>  <PERCENTSP3>  (77) 
32

>  <Link>  (77) 
https://www.chemdiv.com/catalog/screening-compounds/compound-L483-0684/

>  <MFCDNUMBER>  (77) 
MFCD27456605

>  <CLNUMBER>  (77) 
CL6761A

>  <STEREO>  (77) 
ACHIRAL

>  <State>  (77) 
Solid

>  <Similarity score>  (77) 
0.21

$$$$
1-[5-(naphthalen-2-yl)-4-oxo-3,4-dihydropyrido[2,3-d]pyrimidin-2-yl]piperidine-4
     RDKit          2D

 30 34  0  0  0  0  0  0  0  0999 V2000
    1.3060    0.0147    0.0000 C   0  0  0  0  0  0  0  0  0  0  0  0
    0.4394   -0.4853    0.0000 N   0  0  0  0  0  0  0  0  0  0  0  0
    1.3143    1.0144    0.0000 N   0  0  0  0  0  0  0  0  0  0  0  0
    0.4561    1.5102    0.0000 C   0  0  0  0  0  0  0  0  0  0  0  0
   -0.4147    1.0062    0.0000 C   0  0  0  0  0  0  0  0  0  0  0  0
   -0.4314    0.0147    0.0000 C   0  0  0  0  0  0  0  0  0  0  0  0
    2.1642   -0.5019    0.0000 N   0  0  0  0  0  0  0  0  0  0  0  0
   -1.2811    1.5229    0.0000 C   0  0  0  0  0  0  0  0  0  0  0  0
   -2.1477    1.0144    0.0000 C   0  0  0  0  0  0  0  0  0  0  0  0
    4.7598   -2.0102    0.0000 C   0  0  0  0  0  0  0  0  0  0  0  0
    0.4437    2.5185    0.0000 N   0  0  0  0  0  0  0  0  0  0  0  0
   -3.0143    1.5229    0.0000 C   0  0  0  0  0  0  0  0  0  0  0  0
   -3.8849    1.0144    0.0000 C   0  0  0  0  0  0  0  0  0  0  0  0
    2.1642   -1.4893    0.0000 C   0  0  0  0  0  0  0  0  0  0  0  0
    3.0392    0.0147    0.0000 C   0  0  0  0  0  0  0  0  0  0  0  0
    3.8934   -1.5062    0.0000 C   0  0  0  0  0  0  0  0  0  0  0  0
   -2.1477    0.0147    0.0000 C   0  0  0  0  0  0  0  0  0  0  0  0
    5.6181   -1.5102    0.0000 O   0  0  0  0  0  0  0  0  0  0  0  0
   -1.2895   -0.4688    0.0000 O   0  0  0  0  0  0  0  0  0  0  0  0
    3.0268   -1.9936    0.0000 C   0  0  0  0  0  0  0  0  0  0  0  0
    3.9099   -0.5019    0.0000 C   0  0  0  0  0  0  0  0  0  0  0  0
   -3.8891    0.0147    0.0000 C   0  0  0  0  0  0  0  0  0  0  0  0
   -3.0143   -0.4853    0.0000 C   0  0  0  0  0  0  0  0  0  0  0  0
    4.7433   -3.0143    0.0000 N   0  0  0  0  0  0  0  0  0  0  0  0
   -0.4147    3.0143    0.0000 C   0  0  0  0  0  0  0  0  0  0  0  0
   -1.2811    2.5185    0.0000 C   0  0  0  0  0  0  0  0  0  0  0  0
   -4.7433    1.5102    0.0000 C   0  0  0  0  0  0  0  0  0  0  0  0
   -4.7433   -0.4811    0.0000 C   0  0  0  0  0  0  0  0  0  0  0  0
   -5.6057    1.0144    0.0000 C   0  0  0  0  0  0  0  0  0  0  0  0
   -5.6181    0.0147    0.0000 C   0  0  0  0  0  0  0  0  0  0  0  0
  1  2  1  0
  1  3  2  0
  3  4  1  0
  4  5  1  0
  2  6  2  0
  5  6  1  0
  1  7  1  0
  5  8  2  0
  8  9  1  0
 10 16  1  0
  4 11  2  0
  9 12  2  0
 12 13  1  0
  7 14  1  0
  7 15  1  0
 16 21  1  0
  9 17  1  0
 10 18  2  0
  6 19  1  0
 14 20  1  0
 16 20  1  0
 15 21  1  0
 22 23  1  0
 13 22  1  0
 17 23  2  0
 10 24  1  0
 11 25  1  0
 25 26  2  0
  8 26  1  0
 13 27  2  0
 22 28  2  0
 27 29  1  0
 29 30  2  0
 28 30  1  0
M  END
>  <IDNUMBER>  (78) 
IB05-7741

>  <available>  (78) 
50

>  <H_acceptor>  (78) 
6

>  <H_donor>  (78) 
3

>  <B_rotN>  (78) 
3

>  <N_O>  (78) 
7

>  <logP>  (78) 
3.38

>  <logD>  (78) 
3.3

>  <logSw>  (78) 
-4.07

>  <PSA>  (78) 
156.9

>  <pKa_ma>  (78) 
8.18

>  <pKa_mb>  (78) 
5.73

>  <N_Chirals>  (78) 
0

>  <Name>  (78) 
1-[5-(naphthalen-2-yl)-4-oxo-3,4-dihydropyrido[2,3-d]pyrimidin-2-yl]piperidine-4-carboxamide

>  <Smile>  (78) 
NC(C(CC1)CCN1c1nc2nccc(-c3cc4ccccc4cc3)c2c(O)n1)=O

>  <Color>  (78) 
NOT COLORED

>  <Collection>  (78) 
DC

>  <InChI>  (78) 
InChI=1S/C23H21N5O2/c24-20(29)15-8-11-28(12-9-15)23-26-21-19(22(30)27-23)18(7-10-25-21)17-6-5-14-3-1-2-4-16(14)13-17/h1-7,10,13,15H,8-9,11-12H2,(H2,24,29)(H,25,26,27,30)

>  <InChI Key>  (78) 
PSTFZJDWRDLOPZ-UHFFFAOYSA-N

>  <PERCENTSP3>  (78) 
21.7

>  <Link>  (78) 
https://www.chemdiv.com/catalog/screening-compounds/compound-IB05-7741/

>  <STEREO>  (78) 
ACHIRAL

>  <State>  (78) 
Solid

>  <Similarity score>  (78) 
0.21

$$$$
1-(3-cyano-6-ethoxyquinolin-4-yl)-N-[(2-fluorophenyl)methyl]piperidine-4-carboxa
     RDKit          2D

 32 35  0  0  0  0  0  0  0  0999 V2000
    0.0076   -3.2345    0.0000 C   0  0  0  0  0  0  0  0  0  0  0  0
    0.8706   -2.7302    0.0000 C   0  0  0  0  0  0  0  0  0  0  0  0
    0.8706   -1.7358    0.0000 N   0  0  0  0  0  0  0  0  0  0  0  0
    1.7486   -3.2345    0.0000 C   0  0  0  0  0  0  0  0  0  0  0  0
    0.8706   -4.7484    0.0000 N   0  0  0  0  0  0  0  0  0  0  0  0
    0.8857    1.2666    0.0000 C   0  0  0  0  0  0  0  0  0  0  0  0
    2.6214   -2.7453    0.0000 C   0  0  0  0  0  0  0  0  0  0  0  0
    3.4743   -2.2356    0.0000 N   0  0  0  0  0  0  0  0  0  0  0  0
    0.0024   -4.2489    0.0000 C   0  0  0  0  0  0  0  0  0  0  0  0
    1.7486    1.7612    0.0000 N   0  0  0  0  0  0  0  0  0  0  0  0
   -0.8603   -2.7351    0.0000 C   0  0  0  0  0  0  0  0  0  0  0  0
    1.7486   -4.2489    0.0000 C   0  0  0  0  0  0  0  0  0  0  0  0
    2.6064    3.2497    0.0000 C   0  0  0  0  0  0  0  0  0  0  0  0
    0.8857    0.2623    0.0000 C   0  0  0  0  0  0  0  0  0  0  0  0
    1.7486   -1.2364    0.0000 C   0  0  0  0  0  0  0  0  0  0  0  0
    0.0076   -1.2364    0.0000 C   0  0  0  0  0  0  0  0  0  0  0  0
    1.7434    2.7502    0.0000 C   0  0  0  0  0  0  0  0  0  0  0  0
    0.0227    1.7661    0.0000 O   0  0  0  0  0  0  0  0  0  0  0  0
    2.5962    4.2440    0.0000 C   0  0  0  0  0  0  0  0  0  0  0  0
    1.7486   -0.2371    0.0000 C   0  0  0  0  0  0  0  0  0  0  0  0
    0.0175   -0.2371    0.0000 C   0  0  0  0  0  0  0  0  0  0  0  0
   -0.8603   -4.7435    0.0000 C   0  0  0  0  0  0  0  0  0  0  0  0
   -1.7232   -3.2448    0.0000 C   0  0  0  0  0  0  0  0  0  0  0  0
    1.7183    4.7435    0.0000 F   0  0  0  0  0  0  0  0  0  0  0  0
   -1.7232   -4.2437    0.0000 C   0  0  0  0  0  0  0  0  0  0  0  0
   -2.5965   -2.7502    0.0000 O   0  0  0  0  0  0  0  0  0  0  0  0
    3.4590    2.7502    0.0000 C   0  0  0  0  0  0  0  0  0  0  0  0
    3.4439    4.7484    0.0000 C   0  0  0  0  0  0  0  0  0  0  0  0
   -3.4590   -3.2497    0.0000 C   0  0  0  0  0  0  0  0  0  0  0  0
   -4.3219   -2.7502    0.0000 C   0  0  0  0  0  0  0  0  0  0  0  0
    4.3219    3.2599    0.0000 C   0  0  0  0  0  0  0  0  0  0  0  0
    4.3170    4.2587    0.0000 C   0  0  0  0  0  0  0  0  0  0  0  0
  1  2  1  0
  2  3  1  0
  2  4  2  0
  5  9  1  0
  6 14  1  0
  4  7  1  0
  7  8  3  0
  1  9  1  0
  6 10  1  0
  1 11  2  0
  5 12  2  0
  4 12  1  0
 13 17  1  0
 14 21  1  0
  3 15  1  0
  3 16  1  0
 10 17  1  0
  6 18  2  0
 13 19  1  0
 15 20  1  0
 14 20  1  0
 16 21  1  0
  9 22  2  0
 22 25  1  0
 11 23  1  0
 19 24  1  0
 23 25  2  0
 23 26  1  0
 13 27  2  0
 19 28  2  0
 26 29  1  0
 29 30  1  0
 27 31  1  0
 31 32  2  0
 28 32  1  0
M  END
>  <IDNUMBER>  (79) 
L483-0693

>  <available>  (79) 
132

>  <H_acceptor>  (79) 
5

>  <H_donor>  (79) 
1

>  <B_rotN>  (79) 
8

>  <N_O>  (79) 
6

>  <logP>  (79) 
3.9613

>  <logD>  (79) 
3.9327

>  <logSw>  (79) 
-3.7869

>  <PSA>  (79) 
60.535

>  <pKa_ma>  (79) 
12.563

>  <pKa_mb>  (79) 
6.2336

>  <N_Chirals>  (79) 
0

>  <Name>  (79) 
1-(3-cyano-6-ethoxyquinolin-4-yl)-N-[(2-fluorophenyl)methyl]piperidine-4-carboxamide

>  <Smile>  (79) 
CCOc(cc12)ccc2ncc(C#N)c1N(CC1)CCC1C(NCc(cccc1)c1F)=O

>  <Color>  (79) 
NOT COLORED

>  <Collection>  (79) 
NC

>  <InChI>  (79) 
InChI=1S/C25H25FN4O2/c1-2-32-20-7-8-23-21(13-20)24(19(14-27)16-28-23)30-11-9-17(10-12-30)25(31)29-15-18-5-3-4-6-22(18)26/h3-8,13,16-17H,2,9-12,15H2,1H3,(H,29,31)

>  <InChI Key>  (79) 
BLVHEBGAZOCVKU-UHFFFAOYSA-N

>  <PERCENTSP3>  (79) 
32

>  <Link>  (79) 
https://www.chemdiv.com/catalog/screening-compounds/compound-L483-0693/

>  <MFCDNUMBER>  (79) 
MFCD16639823

>  <CLNUMBER>  (79) 
CL6761A

>  <STEREO>  (79) 
ACHIRAL

>  <State>  (79) 
Solid

>  <Similarity score>  (79) 
0.21

$$$$
1-(furan-2-yl)-3-methoxy-13,14-dihydronaphtho[1,2-i][1,9]phenanthroline-2-carbon
     RDKit          2D

 31 36  0  0  0  0  0  0  0  0999 V2000
    0.4706    0.2293    0.0000 C   0  0  0  0  0  0  0  0  0  0  0  0
    0.4706   -0.7684    0.0000 C   0  0  0  0  0  0  0  0  0  0  0  0
    1.3079    0.7471    0.0000 N   0  0  0  0  0  0  0  0  0  0  0  0
   -0.3975    0.7330    0.0000 C   0  0  0  0  0  0  0  0  0  0  0  0
    0.4566    2.2189    0.0000 C   0  0  0  0  0  0  0  0  0  0  0  0
   -0.3806   -1.2509    0.0000 C   0  0  0  0  0  0  0  0  0  0  0  0
   -0.3975    1.7195    0.0000 C   0  0  0  0  0  0  0  0  0  0  0  0
    1.2938    1.7336    0.0000 C   0  0  0  0  0  0  0  0  0  0  0  0
   -0.3806   -2.2232    0.0000 C   0  0  0  0  0  0  0  0  0  0  0  0
   -1.2502    2.2050    0.0000 C   0  0  0  0  0  0  0  0  0  0  0  0
    1.3220   -2.2232    0.0000 N   0  0  0  0  0  0  0  0  0  0  0  0
    1.3220   -1.2509    0.0000 C   0  0  0  0  0  0  0  0  0  0  0  0
    0.4566    3.1912    0.0000 C   0  0  0  0  0  0  0  0  0  0  0  0
   -1.2502    0.2293    0.0000 C   0  0  0  0  0  0  0  0  0  0  0  0
   -1.2502   -0.7684    0.0000 C   0  0  0  0  0  0  0  0  0  0  0  0
   -1.2332   -2.7073    0.0000 C   0  0  0  0  0  0  0  0  0  0  0  0
    0.4566    4.1650    0.0000 N   0  0  0  0  0  0  0  0  0  0  0  0
    0.4706   -2.7073    0.0000 C   0  0  0  0  0  0  0  0  0  0  0  0
   -2.0889    1.7195    0.0000 O   0  0  0  0  0  0  0  0  0  0  0  0
   -1.2332    3.1618    0.0000 C   0  0  0  0  0  0  0  0  0  0  0  0
   -2.9430    2.2050    0.0000 C   0  0  0  0  0  0  0  0  0  0  0  0
   -2.9556    3.1744    0.0000 C   0  0  0  0  0  0  0  0  0  0  0  0
   -1.2332   -3.6797    0.0000 C   0  0  0  0  0  0  0  0  0  0  0  0
    0.4706   -3.6797    0.0000 C   0  0  0  0  0  0  0  0  0  0  0  0
   -0.3806   -4.1650    0.0000 C   0  0  0  0  0  0  0  0  0  0  0  0
    2.1184    2.2330    0.0000 O   0  0  0  0  0  0  0  0  0  0  0  0
   -2.0889   -2.2232    0.0000 C   0  0  0  0  0  0  0  0  0  0  0  0
   -2.0889   -4.1650    0.0000 C   0  0  0  0  0  0  0  0  0  0  0  0
    2.9556    1.7631    0.0000 C   0  0  0  0  0  0  0  0  0  0  0  0
   -2.9430   -2.7073    0.0000 C   0  0  0  0  0  0  0  0  0  0  0  0
   -2.9430   -3.6797    0.0000 C   0  0  0  0  0  0  0  0  0  0  0  0
  1  2  1  0
  1  3  2  0
  1  4  1  0
  5  7  1  0
  5  8  2  0
  2  6  2  0
  4  7  2  0
  3  8  1  0
  6  9  1  0
  7 10  1  0
 11 12  2  0
  2 12  1  0
  5 13  1  0
  4 14  1  0
 14 15  1  0
  6 15  1  0
  9 16  1  0
 13 17  3  0
 11 18  1  0
  9 18  2  0
 10 19  1  0
 10 20  2  0
 19 21  1  0
 21 22  2  0
 20 22  1  0
 16 23  2  0
 23 25  1  0
 18 24  1  0
 24 25  2  0
  8 26  1  0
 16 27  1  0
 23 28  1  0
 26 29  1  0
 27 30  2  0
 30 31  1  0
 28 31  2  0
M  END
>  <IDNUMBER>  (80) 
8014-2314

>  <available>  (80) 
25

>  <H_acceptor>  (80) 
5

>  <H_donor>  (80) 
0

>  <B_rotN>  (80) 
3

>  <N_O>  (80) 
5

>  <logP>  (80) 
5.8241

>  <logD>  (80) 
5.8239

>  <logSw>  (80) 
-6.8337

>  <PSA>  (80) 
51.61

>  <pKa_ma>  (80) 
20.0087

>  <pKa_mb>  (80) 
3.9944

>  <N_Chirals>  (80) 
0

>  <Name>  (80) 
1-(furan-2-yl)-3-methoxy-13,14-dihydronaphtho[1,2-i][1,9]phenanthroline-2-carbonitrile

>  <Smile>  (80) 
COc1nc(-c2c(CC3)c4c(cccc5)c5ccc4nc2)c3c(-c2ccco2)c1C#N

>  <Color>  (80) 
YELLOW

>  <Collection>  (80) 
DC

>  <InChI>  (80) 
InChI=1S/C26H17N3O2/c1-30-26-19(13-27)24(22-7-4-12-31-22)18-10-9-17-20(25(18)29-26)14-28-21-11-8-15-5-2-3-6-16(15)23(17)21/h2-8,11-12,14H,9-10H2,1H3

>  <InChI Key>  (80) 
MQQTZAXBKOITDA-UHFFFAOYSA-N

>  <PERCENTSP3>  (80) 
11.5

>  <Link>  (80) 
https://www.chemdiv.com/catalog/screening-compounds/compound-8014-2314/

>  <MFCDNUMBER>  (80) 
MFCD03768261

>  <STEREO>  (80) 
ACHIRAL

>  <State>  (80) 
Solid

>  <Similarity score>  (80) 
0.21

$$$$
4-(azepan-1-yl)-7-methoxyquinoline-3-carbonitrile
     RDKit          2D

 21 23  0  0  0  0  0  0  0  0999 V2000
   -0.8551   -0.5423    0.0000 C   0  0  0  0  0  0  0  0  0  0  0  0
    0.0227   -1.0418    0.0000 C   0  0  0  0  0  0  0  0  0  0  0  0
   -1.7381   -1.0468    0.0000 C   0  0  0  0  0  0  0  0  0  0  0  0
    0.0328   -2.0559    0.0000 C   0  0  0  0  0  0  0  0  0  0  0  0
   -0.8702    0.4818    0.0000 N   0  0  0  0  0  0  0  0  0  0  0  0
   -0.8451   -2.5756    0.0000 N   0  0  0  0  0  0  0  0  0  0  0  0
   -2.6159   -0.5475    0.0000 C   0  0  0  0  0  0  0  0  0  0  0  0
   -3.5037   -0.0480    0.0000 N   0  0  0  0  0  0  0  0  0  0  0  0
    0.8855   -0.5323    0.0000 C   0  0  0  0  0  0  0  0  0  0  0  0
    0.9005   -2.5452    0.0000 C   0  0  0  0  0  0  0  0  0  0  0  0
   -1.7329   -2.0761    0.0000 C   0  0  0  0  0  0  0  0  0  0  0  0
    1.7784   -2.0407    0.0000 C   0  0  0  0  0  0  0  0  0  0  0  0
    1.7632   -1.0267    0.0000 C   0  0  0  0  0  0  0  0  0  0  0  0
    0.0076    0.9964    0.0000 C   0  0  0  0  0  0  0  0  0  0  0  0
   -1.7178    0.7138    0.0000 C   0  0  0  0  0  0  0  0  0  0  0  0
    2.6411   -2.5301    0.0000 O   0  0  0  0  0  0  0  0  0  0  0  0
    3.5037   -2.0155    0.0000 C   0  0  0  0  0  0  0  0  0  0  0  0
   -2.0507    1.6471    0.0000 C   0  0  0  0  0  0  0  0  0  0  0  0
    0.2143    1.8188    0.0000 C   0  0  0  0  0  0  0  0  0  0  0  0
   -0.4213    2.5756    0.0000 C   0  0  0  0  0  0  0  0  0  0  0  0
   -1.4505    2.5149    0.0000 C   0  0  0  0  0  0  0  0  0  0  0  0
  1  2  1  0
  1  3  2  0
  2  4  1  0
  4  6  1  0
  1  5  1  0
  6 11  2  0
  3  7  1  0
  7  8  3  0
  2  9  2  0
  4 10  2  0
 10 12  1  0
  3 11  1  0
 12 13  2  0
  9 13  1  0
  5 14  1  0
  5 15  1  0
 12 16  1  0
 16 17  1  0
 15 18  1  0
 14 19  1  0
 19 20  1  0
 20 21  1  0
 18 21  1  0
M  END
>  <IDNUMBER>  (81) 
F360-0697

>  <available>  (81) 
1

>  <H_acceptor>  (81) 
3

>  <H_donor>  (81) 
0

>  <B_rotN>  (81) 
3

>  <N_O>  (81) 
4

>  <logP>  (81) 
3.6312

>  <logD>  (81) 
3.6299

>  <logSw>  (81) 
-3.9936

>  <PSA>  (81) 
36.873

>  <pKa_ma>  (81) 
26.4994

>  <pKa_mb>  (81) 
4.8836

>  <N_Chirals>  (81) 
0

>  <Name>  (81) 
4-(azepan-1-yl)-7-methoxyquinoline-3-carbonitrile

>  <Smile>  (81) 
COc(ccc1c2N3CCCCCC3)cc1ncc2C#N

>  <Color>  (81) 
YELLOW

>  <Collection>  (81) 
DC

>  <InChI>  (81) 
InChI=1S/C17H19N3O/c1-21-14-6-7-15-16(10-14)19-12-13(11-18)17(15)20-8-4-2-3-5-9-20/h6-7,10,12H,2-5,8-9H2,1H3

>  <InChI Key>  (81) 
QQOXEHQATFUBMS-UHFFFAOYSA-N

>  <PERCENTSP3>  (81) 
41.2

>  <Link>  (81) 
https://www.chemdiv.com/catalog/screening-compounds/compound-F360-0697/

>  <MFCDNUMBER>  (81) 
MFCD27118984

>  <CLNUMBER>  (81) 
CL6761

>  <STEREO>  (81) 
ACHIRAL

>  <State>  (81) 
Solid

>  <Similarity score>  (81) 
0.21

$$$$
6-fluoro-4-(4-methylpiperidin-1-yl)quinoline-3-carbonitrile
     RDKit          2D

 20 22  0  0  0  0  0  0  0  0999 V2000
    0.4569   -1.4890    0.0000 C   0  0  0  0  0  0  0  0  0  0  0  0
   -0.4117   -0.9969    0.0000 C   0  0  0  0  0  0  0  0  0  0  0  0
   -0.4268    0.0125    0.0000 N   0  0  0  0  0  0  0  0  0  0  0  0
   -1.2856   -1.5040    0.0000 C   0  0  0  0  0  0  0  0  0  0  0  0
   -0.4018   -3.0007    0.0000 N   0  0  0  0  0  0  0  0  0  0  0  0
   -2.1494   -1.0120    0.0000 C   0  0  0  0  0  0  0  0  0  0  0  0
   -3.0233   -0.5148    0.0000 N   0  0  0  0  0  0  0  0  0  0  0  0
    0.4621   -2.4884    0.0000 C   0  0  0  0  0  0  0  0  0  0  0  0
    1.3058   -0.9818    0.0000 C   0  0  0  0  0  0  0  0  0  0  0  0
   -1.2756   -2.5035    0.0000 C   0  0  0  0  0  0  0  0  0  0  0  0
   -1.3006    0.4946    0.0000 C   0  0  0  0  0  0  0  0  0  0  0  0
    0.4419    0.5097    0.0000 C   0  0  0  0  0  0  0  0  0  0  0  0
    1.3208   -2.9805    0.0000 C   0  0  0  0  0  0  0  0  0  0  0  0
    2.1745   -1.4739    0.0000 C   0  0  0  0  0  0  0  0  0  0  0  0
    2.1895   -2.4734    0.0000 C   0  0  0  0  0  0  0  0  0  0  0  0
   -1.3006    1.5040    0.0000 C   0  0  0  0  0  0  0  0  0  0  0  0
    0.4319    1.5040    0.0000 C   0  0  0  0  0  0  0  0  0  0  0  0
    3.0233   -0.9617    0.0000 F   0  0  0  0  0  0  0  0  0  0  0  0
   -0.4319    2.0012    0.0000 C   0  0  0  0  0  0  0  0  0  0  0  0
   -0.4419    3.0007    0.0000 C   0  0  0  0  0  0  0  0  0  0  0  0
  1  2  1  0
  2  3  1  0
  2  4  2  0
  4 10  1  0
  5  8  1  0
  4  6  1  0
  6  7  3  0
  1  8  1  0
  1  9  2  0
  5 10  2  0
  3 11  1  0
  3 12  1  0
  8 13  2  0
 13 15  1  0
  9 14  1  0
 14 15  2  0
 11 16  1  0
 12 17  1  0
 14 18  1  0
 17 19  1  0
 16 19  1  0
 19 20  1  0
M  END
>  <IDNUMBER>  (82) 
F360-0332

>  <available>  (82) 
16

>  <H_acceptor>  (82) 
2

>  <H_donor>  (82) 
0

>  <B_rotN>  (82) 
2

>  <N_O>  (82) 
3

>  <logP>  (82) 
3.5659

>  <logD>  (82) 
3.5656

>  <logSw>  (82) 
-3.7284

>  <PSA>  (82) 
28.9977

>  <pKa_ma>  (82) 
25.4155

>  <pKa_mb>  (82) 
4.2541

>  <N_Chirals>  (82) 
0

>  <Name>  (82) 
6-fluoro-4-(4-methylpiperidin-1-yl)quinoline-3-carbonitrile

>  <Smile>  (82) 
CC(CC1)CCN1c1c(cc(cc2)F)c2ncc1C#N

>  <Color>  (82) 
NOT COLORED

>  <Collection>  (82) 
DC

>  <InChI>  (82) 
InChI=1S/C16H16FN3/c1-11-4-6-20(7-5-11)16-12(9-18)10-19-15-3-2-13(17)8-14(15)16/h2-3,8,10-11H,4-7H2,1H3

>  <InChI Key>  (82) 
UKEBPHPTAFJLJT-UHFFFAOYSA-N

>  <PERCENTSP3>  (82) 
37.5

>  <Link>  (82) 
https://www.chemdiv.com/catalog/screening-compounds/compound-F360-0332/

>  <MFCDNUMBER>  (82) 
MFCD27118916

>  <CLNUMBER>  (82) 
CL6761

>  <STEREO>  (82) 
ACHIRAL

>  <State>  (82) 
Solid

>  <Similarity score>  (82) 
0.21

$$$$
1-(3-cyano-6-ethoxyquinolin-4-yl)-N-(4-fluorophenyl)piperidine-4-carboxamide
     RDKit          2D

 31 34  0  0  0  0  0  0  0  0999 V2000
    0.4172   -3.7321    0.0000 C   0  0  0  0  0  0  0  0  0  0  0  0
    1.2916   -3.2194    0.0000 C   0  0  0  0  0  0  0  0  0  0  0  0
    1.2916   -2.2242    0.0000 N   0  0  0  0  0  0  0  0  0  0  0  0
    2.1665   -3.7321    0.0000 C   0  0  0  0  0  0  0  0  0  0  0  0
    1.3016    0.7816    0.0000 C   0  0  0  0  0  0  0  0  0  0  0  0
    1.2867   -5.2399    0.0000 N   0  0  0  0  0  0  0  0  0  0  0  0
    3.0409   -3.2345    0.0000 C   0  0  0  0  0  0  0  0  0  0  0  0
    3.9004   -2.7218    0.0000 N   0  0  0  0  0  0  0  0  0  0  0  0
    2.1665    1.2741    0.0000 N   0  0  0  0  0  0  0  0  0  0  0  0
    0.4172   -4.7422    0.0000 C   0  0  0  0  0  0  0  0  0  0  0  0
   -0.4474   -3.2294    0.0000 C   0  0  0  0  0  0  0  0  0  0  0  0
    2.1665   -4.7422    0.0000 C   0  0  0  0  0  0  0  0  0  0  0  0
    1.3016   -0.2188    0.0000 C   0  0  0  0  0  0  0  0  0  0  0  0
    0.4272   -1.7265    0.0000 C   0  0  0  0  0  0  0  0  0  0  0  0
    2.1665   -1.7265    0.0000 C   0  0  0  0  0  0  0  0  0  0  0  0
    0.4321    1.2790    0.0000 O   0  0  0  0  0  0  0  0  0  0  0  0
    0.4321   -0.7264    0.0000 C   0  0  0  0  0  0  0  0  0  0  0  0
    2.1665   -0.7315    0.0000 C   0  0  0  0  0  0  0  0  0  0  0  0
    2.1611    2.2694    0.0000 C   0  0  0  0  0  0  0  0  0  0  0  0
   -0.4474   -5.2348    0.0000 C   0  0  0  0  0  0  0  0  0  0  0  0
   -1.3168   -3.7321    0.0000 C   0  0  0  0  0  0  0  0  0  0  0  0
    2.1361    4.2446    0.0000 C   0  0  0  0  0  0  0  0  0  0  0  0
   -1.3168   -4.7373    0.0000 C   0  0  0  0  0  0  0  0  0  0  0  0
    2.1210    5.2399    0.0000 F   0  0  0  0  0  0  0  0  0  0  0  0
    1.2916    2.7419    0.0000 C   0  0  0  0  0  0  0  0  0  0  0  0
    3.0110    2.7670    0.0000 C   0  0  0  0  0  0  0  0  0  0  0  0
    3.0056    3.7622    0.0000 C   0  0  0  0  0  0  0  0  0  0  0  0
    1.2766    3.7321    0.0000 C   0  0  0  0  0  0  0  0  0  0  0  0
   -2.1765   -3.2445    0.0000 O   0  0  0  0  0  0  0  0  0  0  0  0
   -3.0360   -3.7421    0.0000 C   0  0  0  0  0  0  0  0  0  0  0  0
   -3.9004   -3.2495    0.0000 C   0  0  0  0  0  0  0  0  0  0  0  0
  1  2  1  0
  2  3  1  0
  2  4  2  0
  5 13  1  0
  6 10  1  0
  4  7  1  0
  7  8  3  0
  5  9  1  0
  1 10  1  0
  1 11  2  0
  6 12  2  0
  4 12  1  0
 13 18  1  0
  3 14  1  0
  3 15  1  0
  5 16  2  0
 14 17  1  0
 13 17  1  0
 15 18  1  0
  9 19  1  0
 10 20  2  0
 20 23  1  0
 11 21  1  0
 22 27  2  0
 22 28  1  0
 21 23  2  0
 22 24  1  0
 19 25  1  0
 19 26  2  0
 26 27  1  0
 25 28  2  0
 21 29  1  0
 29 30  1  0
 30 31  1  0
M  END
>  <IDNUMBER>  (83) 
L483-0704

>  <available>  (83) 
103

>  <H_acceptor>  (83) 
5

>  <H_donor>  (83) 
1

>  <B_rotN>  (83) 
7

>  <N_O>  (83) 
6

>  <logP>  (83) 
3.9272

>  <logD>  (83) 
3.898

>  <logSw>  (83) 
-3.8132

>  <PSA>  (83) 
59.213

>  <pKa_ma>  (83) 
10.2785

>  <pKa_mb>  (83) 
6.2336

>  <N_Chirals>  (83) 
0

>  <Name>  (83) 
1-(3-cyano-6-ethoxyquinolin-4-yl)-N-(4-fluorophenyl)piperidine-4-carboxamide

>  <Smile>  (83) 
CCOc(cc12)ccc2ncc(C#N)c1N(CC1)CCC1C(Nc(cc1)ccc1F)=O

>  <Color>  (83) 
ORANGE

>  <Collection>  (83) 
NC

>  <InChI>  (83) 
InChI=1S/C24H23FN4O2/c1-2-31-20-7-8-22-21(13-20)23(17(14-26)15-27-22)29-11-9-16(10-12-29)24(30)28-19-5-3-18(25)4-6-19/h3-8,13,15-16H,2,9-12H2,1H3,(H,28,30)

>  <InChI Key>  (83) 
JURIHDFRFHYZID-UHFFFAOYSA-N

>  <PERCENTSP3>  (83) 
29.2

>  <Link>  (83) 
https://www.chemdiv.com/catalog/screening-compounds/compound-L483-0704/

>  <MFCDNUMBER>  (83) 
MFCD27456610

>  <CLNUMBER>  (83) 
CL6761A

>  <STEREO>  (83) 
ACHIRAL

>  <State>  (83) 
Solid

>  <Similarity score>  (83) 
0.21

$$$$
6,8-difluoro-3-(4-fluorophenyl)-1-(3-nitrophenyl)-1H-pyrazolo[4,3-c]quinoline
     RDKit          2D

 31 35  0  0  0  0  0  0  0  0999 V2000
   -0.8202   -0.0619    0.0000 N   0  0  0  0  0  0  0  0  0  0  0  0
   -0.1636   -1.5407    0.0000 C   0  0  0  0  0  0  0  0  0  0  0  0
   -1.0324   -1.0409    0.0000 C   0  0  0  0  0  0  0  0  0  0  0  0
    0.1703    0.0442    0.0000 N   0  0  0  0  0  0  0  0  0  0  0  0
    0.5790   -0.8644    0.0000 C   0  0  0  0  0  0  0  0  0  0  0  0
   -1.8900   -1.5449    0.0000 C   0  0  0  0  0  0  0  0  0  0  0  0
   -1.5319    3.3133    0.0000 N   0  0  0  0  0  0  0  0  0  0  0  0
   -1.8900   -2.5553    0.0000 C   0  0  0  0  0  0  0  0  0  0  0  0
   -1.0279   -3.0547    0.0000 N   0  0  0  0  0  0  0  0  0  0  0  0
   -1.4875    0.6807    0.0000 C   0  0  0  0  0  0  0  0  0  0  0  0
   -0.1546   -2.5463    0.0000 C   0  0  0  0  0  0  0  0  0  0  0  0
   -2.7698   -3.0613    0.0000 C   0  0  0  0  0  0  0  0  0  0  0  0
   -1.1781    1.6202    0.0000 C   0  0  0  0  0  0  0  0  0  0  0  0
   -1.8456    2.3609    0.0000 C   0  0  0  0  0  0  0  0  0  0  0  0
   -3.6385   -2.5553    0.0000 C   0  0  0  0  0  0  0  0  0  0  0  0
    1.5630   -1.0720    0.0000 C   0  0  0  0  0  0  0  0  0  0  0  0
   -2.7698   -1.0454    0.0000 C   0  0  0  0  0  0  0  0  0  0  0  0
   -0.5571    3.5168    0.0000 O   0  0  0  0  0  0  0  0  0  0  0  0
   -2.2082    4.0561    0.0000 O   0  0  0  0  0  0  0  0  0  0  0  0
   -3.6338   -1.5449    0.0000 C   0  0  0  0  0  0  0  0  0  0  0  0
    2.2236   -0.3181    0.0000 C   0  0  0  0  0  0  0  0  0  0  0  0
    1.8767   -2.0247    0.0000 C   0  0  0  0  0  0  0  0  0  0  0  0
   -2.7698   -4.0561    0.0000 F   0  0  0  0  0  0  0  0  0  0  0  0
    3.5278   -1.4699    0.0000 C   0  0  0  0  0  0  0  0  0  0  0  0
   -4.5026   -1.0454    0.0000 F   0  0  0  0  0  0  0  0  0  0  0  0
    2.8601   -2.2279    0.0000 C   0  0  0  0  0  0  0  0  0  0  0  0
    3.1984   -0.5150    0.0000 C   0  0  0  0  0  0  0  0  0  0  0  0
    4.5026   -1.6776    0.0000 F   0  0  0  0  0  0  0  0  0  0  0  0
   -2.4515    0.4685    0.0000 C   0  0  0  0  0  0  0  0  0  0  0  0
   -2.8138    2.1508    0.0000 C   0  0  0  0  0  0  0  0  0  0  0  0
   -3.0769    1.1847    0.0000 C   0  0  0  0  0  0  0  0  0  0  0  0
  2  3  2  0
  2  5  1  0
  1  3  1  0
  1  4  1  0
  4  5  2  0
  3  6  1  0
  7 14  1  0
  6  8  1  0
  8  9  1  0
  1 10  1  0
  2 11  1  0
  9 11  2  0
  8 12  2  0
 10 13  2  0
 13 14  1  0
 14 30  2  0
 15 20  2  0
 12 15  1  0
  5 16  1  0
  6 17  2  0
  7 18  1  0
  7 19  2  0
 17 20  1  0
 16 21  1  0
 16 22  2  0
 12 23  1  0
 24 26  2  0
 20 25  1  0
 22 26  1  0
 21 27  2  0
 24 27  1  0
 24 28  1  0
 10 29  1  0
 30 31  1  0
 29 31  2  0
M  CHG  2   7   1  18  -1
M  END
>  <IDNUMBER>  (84) 
C350-0430

>  <available>  (84) 
53

>  <H_acceptor>  (84) 
6

>  <H_donor>  (84) 
0

>  <B_rotN>  (84) 
3

>  <N_O>  (84) 
6

>  <logP>  (84) 
5.326

>  <logD>  (84) 
5.326

>  <logSw>  (84) 
-5.9593

>  <PSA>  (84) 
56.862

>  <pKa_ma>  (84) 
14

>  <pKa_mb>  (84) 
2.2647

>  <N_Chirals>  (84) 
0

>  <Name>  (84) 
6,8-difluoro-3-(4-fluorophenyl)-1-(3-nitrophenyl)-1H-pyrazolo[4,3-c]quinoline

>  <Smile>  (84) 
[O-][N+](c1cccc(-n(c2c(cc(cc3F)F)c3ncc22)nc2-c(cc2)ccc2F)c1)=O

>  <Color>  (84) 
NOT COLORED

>  <Collection>  (84) 
DC

>  <InChI>  (84) 
InChI=1S/C22H11F3N4O2/c23-13-6-4-12(5-7-13)20-18-11-26-21-17(8-14(24)9-19(21)25)22(18)28(27-20)15-2-1-3-16(10-15)29(30)31/h1-11H

>  <InChI Key>  (84) 
ULKSZAFQOSYQAY-UHFFFAOYSA-N

>  <PERCENTSP3>  (84) 
0

>  <Link>  (84) 
https://www.chemdiv.com/catalog/screening-compounds/compound-C350-0430/

>  <MFCDNUMBER>  (84) 
MFCD14750402

>  <CLNUMBER>  (84) 
CL4130

>  <STEREO>  (84) 
ACHIRAL

>  <State>  (84) 
Solid

>  <Similarity score>  (84) 
0.21

$$$$
6-chloro-2-phenyl-4-(piperidin-1-yl)quinazoline
     RDKit          2D

 23 26  0  0  0  0  0  0  0  0999 V2000
    0.0089   -0.2596    0.0000 C   0  0  0  0  0  0  0  0  0  0  0  0
    0.8862    0.2560    0.0000 N   0  0  0  0  0  0  0  0  0  0  0  0
   -0.8504    0.2560    0.0000 C   0  0  0  0  0  0  0  0  0  0  0  0
    0.8862    1.2512    0.0000 C   0  0  0  0  0  0  0  0  0  0  0  0
    0.0089    1.7491    0.0000 N   0  0  0  0  0  0  0  0  0  0  0  0
   -0.8504    1.2512    0.0000 C   0  0  0  0  0  0  0  0  0  0  0  0
    0.0089   -1.2584    0.0000 N   0  0  0  0  0  0  0  0  0  0  0  0
   -1.7097   -0.2596    0.0000 C   0  0  0  0  0  0  0  0  0  0  0  0
    1.7453    1.7491    0.0000 C   0  0  0  0  0  0  0  0  0  0  0  0
   -1.7097    1.7491    0.0000 C   0  0  0  0  0  0  0  0  0  0  0  0
   -2.5904    0.2560    0.0000 C   0  0  0  0  0  0  0  0  0  0  0  0
   -2.5904    1.2512    0.0000 C   0  0  0  0  0  0  0  0  0  0  0  0
   -3.4640   -0.2596    0.0000 Cl  0  0  0  0  0  0  0  0  0  0  0  0
    0.8683   -1.7562    0.0000 C   0  0  0  0  0  0  0  0  0  0  0  0
   -0.8504   -1.7562    0.0000 C   0  0  0  0  0  0  0  0  0  0  0  0
    2.6047    1.2512    0.0000 C   0  0  0  0  0  0  0  0  0  0  0  0
    1.7275    2.7551    0.0000 C   0  0  0  0  0  0  0  0  0  0  0  0
   -0.8504   -2.7515    0.0000 C   0  0  0  0  0  0  0  0  0  0  0  0
    0.8683   -2.7515    0.0000 C   0  0  0  0  0  0  0  0  0  0  0  0
    2.5868    3.2492    0.0000 C   0  0  0  0  0  0  0  0  0  0  0  0
    3.4640    1.7491    0.0000 C   0  0  0  0  0  0  0  0  0  0  0  0
    0.0089   -3.2492    0.0000 C   0  0  0  0  0  0  0  0  0  0  0  0
    3.4640    2.7551    0.0000 C   0  0  0  0  0  0  0  0  0  0  0  0
  1  2  2  0
  1  3  1  0
  2  4  1  0
  4  5  2  0
  5  6  1  0
  3  6  2  0
  1  7  1  0
  3  8  1  0
  4  9  1  0
  6 10  1  0
 10 12  2  0
  8 11  2  0
 11 12  1  0
 11 13  1  0
  7 14  1  0
  7 15  1  0
  9 16  2  0
  9 17  1  0
 15 18  1  0
 14 19  1  0
 19 22  1  0
 17 20  2  0
 16 21  1  0
 18 22  1  0
 20 23  1  0
 21 23  2  0
M  END
>  <IDNUMBER>  (85) 
3497-0078

>  <available>  (85) 
1

>  <H_acceptor>  (85) 
2

>  <H_donor>  (85) 
0

>  <B_rotN>  (85) 
2

>  <N_O>  (85) 
3

>  <logP>  (85) 
6.3264

>  <logD>  (85) 
5.742

>  <logSw>  (85) 
-6.556

>  <PSA>  (85) 
21.6385

>  <pKa_ma>  (85) 
21.6185

>  <pKa_mb>  (85) 
7.8534

>  <N_Chirals>  (85) 
0

>  <Name>  (85) 
6-chloro-2-phenyl-4-(piperidin-1-yl)quinazoline

>  <Smile>  (85) 
Clc1cc2c(N3CCCCC3)nc(-c3ccccc3)nc2cc1

>  <Color>  (85) 
NOT COLORED

>  <Collection>  (85) 
NC

>  <InChI>  (85) 
InChI=1S/C19H18ClN3/c20-15-9-10-17-16(13-15)19(23-11-5-2-6-12-23)22-18(21-17)14-7-3-1-4-8-14/h1,3-4,7-10,13H,2,5-6,11-12H2

>  <InChI Key>  (85) 
RACDUDJYCUWVRR-UHFFFAOYSA-N

>  <PERCENTSP3>  (85) 
26.3

>  <Link>  (85) 
https://www.chemdiv.com/catalog/screening-compounds/compound-3497-0078/

>  <MFCDNUMBER>  (85) 
MFCD00823083

>  <CLNUMBER>  (85) 
CL2243

>  <STEREO>  (85) 
ACHIRAL

>  <State>  (85) 
Solid

>  <Similarity score>  (85) 
0.21

$$$$
3-(3-bromophenyl)-6-fluoro-1-(4-methylphenyl)-1H-pyrazolo[4,3-c]quinoline
     RDKit          2D

 28 32  0  0  0  0  0  0  0  0999 V2000
   -0.8733    0.4380    0.0000 N   0  0  0  0  0  0  0  0  0  0  0  0
   -0.2085   -1.0328    0.0000 C   0  0  0  0  0  0  0  0  0  0  0  0
    0.1212    0.5443    0.0000 N   0  0  0  0  0  0  0  0  0  0  0  0
   -1.0843   -0.5251    0.0000 C   0  0  0  0  0  0  0  0  0  0  0  0
    0.5452   -0.3454    0.0000 C   0  0  0  0  0  0  0  0  0  0  0  0
   -1.9653   -1.0328    0.0000 C   0  0  0  0  0  0  0  0  0  0  0  0
   -1.0843   -2.5193    0.0000 N   0  0  0  0  0  0  0  0  0  0  0  0
   -1.9653   -2.0204    0.0000 C   0  0  0  0  0  0  0  0  0  0  0  0
   -0.2085   -2.0204    0.0000 C   0  0  0  0  0  0  0  0  0  0  0  0
    1.5553   -0.4518    0.0000 C   0  0  0  0  0  0  0  0  0  0  0  0
   -1.4961    1.2074    0.0000 C   0  0  0  0  0  0  0  0  0  0  0  0
   -2.8360   -2.5193    0.0000 C   0  0  0  0  0  0  0  0  0  0  0  0
    2.1294    0.3648    0.0000 C   0  0  0  0  0  0  0  0  0  0  0  0
   -1.1454    2.1267    0.0000 C   0  0  0  0  0  0  0  0  0  0  0  0
   -2.4713    1.0468    0.0000 C   0  0  0  0  0  0  0  0  0  0  0  0
   -2.8360   -0.5251    0.0000 C   0  0  0  0  0  0  0  0  0  0  0  0
    3.1413    0.2722    0.0000 C   0  0  0  0  0  0  0  0  0  0  0  0
   -2.8360   -3.5137    0.0000 F   0  0  0  0  0  0  0  0  0  0  0  0
   -1.7683    2.8961    0.0000 C   0  0  0  0  0  0  0  0  0  0  0  0
   -3.0925    1.8074    0.0000 C   0  0  0  0  0  0  0  0  0  0  0  0
   -2.7435    2.7443    0.0000 C   0  0  0  0  0  0  0  0  0  0  0  0
    3.7101    1.0922    0.0000 Br  0  0  0  0  0  0  0  0  0  0  0  0
    1.9636   -1.3573    0.0000 C   0  0  0  0  0  0  0  0  0  0  0  0
   -3.6997   -1.0328    0.0000 C   0  0  0  0  0  0  0  0  0  0  0  0
    2.9738   -1.4568    0.0000 C   0  0  0  0  0  0  0  0  0  0  0  0
   -3.7101   -2.0204    0.0000 C   0  0  0  0  0  0  0  0  0  0  0  0
    3.5793   -0.6333    0.0000 C   0  0  0  0  0  0  0  0  0  0  0  0
   -3.3768    3.5137    0.0000 C   0  0  0  0  0  0  0  0  0  0  0  0
  2  4  2  0
  2  5  1  0
  1  3  1  0
  1  4  1  0
  3  5  2  0
  4  6  1  0
  7  8  1  0
  7  9  2  0
  6  8  1  0
  2  9  1  0
  5 10  1  0
  1 11  1  0
  8 12  2  0
 10 13  1  0
 11 14  2  0
 11 15  1  0
  6 16  2  0
 13 17  2  0
 12 18  1  0
 14 19  1  0
 15 20  2  0
 20 21  1  0
 19 21  2  0
 17 22  1  0
 10 23  2  0
 16 24  1  0
 23 25  1  0
 24 26  2  0
 12 26  1  0
 25 27  2  0
 17 27  1  0
 21 28  1  0
M  END
>  <IDNUMBER>  (86) 
C350-0858

>  <available>  (86) 
91

>  <H_acceptor>  (86) 
2

>  <H_donor>  (86) 
0

>  <B_rotN>  (86) 
2

>  <N_O>  (86) 
3

>  <logP>  (86) 
6.5716

>  <logD>  (86) 
6.5716

>  <logSw>  (86) 
-6.139

>  <PSA>  (86) 
23.4803

>  <pKa_ma>  (86) 
28.3737

>  <pKa_mb>  (86) 
3.0286

>  <N_Chirals>  (86) 
0

>  <Name>  (86) 
3-(3-bromophenyl)-6-fluoro-1-(4-methylphenyl)-1H-pyrazolo[4,3-c]quinoline

>  <Smile>  (86) 
Cc(cc1)ccc1-n(c(c1ccc2)c3cnc1c2F)nc3-c1cccc(Br)c1

>  <Color>  (86) 
NOT COLORED

>  <Collection>  (86) 
DC

>  <InChI>  (86) 
InChI=1S/C23H15BrFN3/c1-14-8-10-17(11-9-14)28-23-18-6-3-7-20(25)22(18)26-13-19(23)21(27-28)15-4-2-5-16(24)12-15/h2-13H,1H3

>  <InChI Key>  (86) 
IWQGJRRPIZTRCC-UHFFFAOYSA-N

>  <PERCENTSP3>  (86) 
4.3

>  <Link>  (86) 
https://www.chemdiv.com/catalog/screening-compounds/compound-C350-0858/

>  <MFCDNUMBER>  (86) 
MFCD14750712

>  <CLNUMBER>  (86) 
CL4130

>  <STEREO>  (86) 
ACHIRAL

>  <State>  (86) 
Solid

>  <Similarity score>  (86) 
0.21

$$$$
1-(3-cyano-6-fluoroquinolin-4-yl)-N-(3,5-difluorophenyl)piperidine-4-carboxamide
     RDKit          2D

 30 33  0  0  0  0  0  0  0  0999 V2000
   -0.4326   -3.2342    0.0000 C   0  0  0  0  0  0  0  0  0  0  0  0
    0.4326   -2.7313    0.0000 C   0  0  0  0  0  0  0  0  0  0  0  0
    0.4326   -1.7353    0.0000 N   0  0  0  0  0  0  0  0  0  0  0  0
    1.3079   -3.2342    0.0000 C   0  0  0  0  0  0  0  0  0  0  0  0
    0.4477    1.2775    0.0000 C   0  0  0  0  0  0  0  0  0  0  0  0
    0.4326   -4.7534    0.0000 N   0  0  0  0  0  0  0  0  0  0  0  0
    1.3079    1.7754    0.0000 N   0  0  0  0  0  0  0  0  0  0  0  0
    1.2925    2.7714    0.0000 C   0  0  0  0  0  0  0  0  0  0  0  0
    2.1778   -2.7463    0.0000 C   0  0  0  0  0  0  0  0  0  0  0  0
    3.0380   -2.2333    0.0000 N   0  0  0  0  0  0  0  0  0  0  0  0
   -0.4427   -4.2452    0.0000 C   0  0  0  0  0  0  0  0  0  0  0  0
   -1.3027   -2.7363    0.0000 C   0  0  0  0  0  0  0  0  0  0  0  0
    1.3079   -4.2452    0.0000 C   0  0  0  0  0  0  0  0  0  0  0  0
    0.4477    0.2663    0.0000 C   0  0  0  0  0  0  0  0  0  0  0  0
    0.4427    3.2393    0.0000 C   0  0  0  0  0  0  0  0  0  0  0  0
    2.1527    3.2544    0.0000 C   0  0  0  0  0  0  0  0  0  0  0  0
    1.3024   -1.2273    0.0000 C   0  0  0  0  0  0  0  0  0  0  0  0
   -0.4277   -1.2273    0.0000 C   0  0  0  0  0  0  0  0  0  0  0  0
    0.4176    4.2200    0.0000 C   0  0  0  0  0  0  0  0  0  0  0  0
    2.1377    4.2504    0.0000 C   0  0  0  0  0  0  0  0  0  0  0  0
   -0.4176    1.7804    0.0000 O   0  0  0  0  0  0  0  0  0  0  0  0
    1.2625    4.7483    0.0000 C   0  0  0  0  0  0  0  0  0  0  0  0
   -0.4277   -0.2262    0.0000 C   0  0  0  0  0  0  0  0  0  0  0  0
    1.3079   -0.2313    0.0000 C   0  0  0  0  0  0  0  0  0  0  0  0
   -1.3027   -4.7433    0.0000 C   0  0  0  0  0  0  0  0  0  0  0  0
   -2.1681   -3.2342    0.0000 C   0  0  0  0  0  0  0  0  0  0  0  0
   -0.4577    4.7029    0.0000 F   0  0  0  0  0  0  0  0  0  0  0  0
    2.9979    4.7534    0.0000 F   0  0  0  0  0  0  0  0  0  0  0  0
   -2.1681   -4.2403    0.0000 C   0  0  0  0  0  0  0  0  0  0  0  0
   -3.0380   -2.7213    0.0000 F   0  0  0  0  0  0  0  0  0  0  0  0
  1  2  1  0
  2  3  1  0
  2  4  2  0
  5 14  1  0
  6 11  1  0
  5  7  1  0
  7  8  1  0
  4  9  1  0
  9 10  3  0
  1 11  1  0
  1 12  2  0
  6 13  2  0
  4 13  1  0
 14 23  1  0
  8 15  1  0
  8 16  2  0
  3 17  1  0
  3 18  1  0
 15 19  2  0
 19 22  1  0
 16 20  1  0
  5 21  2  0
 20 22  2  0
 18 23  1  0
 17 24  1  0
 14 24  1  0
 11 25  2  0
 25 29  1  0
 12 26  1  0
 19 27  1  0
 20 28  1  0
 26 29  2  0
 26 30  1  0
M  END
>  <IDNUMBER>  (87) 
L483-0471

>  <available>  (87) 
23

>  <H_acceptor>  (87) 
4

>  <H_donor>  (87) 
1

>  <B_rotN>  (87) 
5

>  <N_O>  (87) 
5

>  <logP>  (87) 
4.0133

>  <logD>  (87) 
3.9635

>  <logSw>  (87) 
-4.0652

>  <PSA>  (87) 
52.089

>  <pKa_ma>  (87) 
8.3176

>  <pKa_mb>  (87) 
4.2541

>  <N_Chirals>  (87) 
0

>  <Name>  (87) 
1-(3-cyano-6-fluoroquinolin-4-yl)-N-(3,5-difluorophenyl)piperidine-4-carboxamide

>  <Smile>  (87) 
N#Cc(cnc(c1c2)ccc2F)c1N(CC1)CCC1C(Nc1cc(F)cc(F)c1)=O

>  <Color>  (87) 
YELLOW

>  <Collection>  (87) 
NC

>  <InChI>  (87) 
InChI=1S/C22H17F3N4O/c23-15-1-2-20-19(10-15)21(14(11-26)12-27-20)29-5-3-13(4-6-29)22(30)28-18-8-16(24)7-17(25)9-18/h1-2,7-10,12-13H,3-6H2,(H,28,30)

>  <InChI Key>  (87) 
HTDWMGWUGCIELU-UHFFFAOYSA-N

>  <PERCENTSP3>  (87) 
22.7

>  <Link>  (87) 
https://www.chemdiv.com/catalog/screening-compounds/compound-L483-0471/

>  <MFCDNUMBER>  (87) 
MFCD27456461

>  <CLNUMBER>  (87) 
CL6761A

>  <STEREO>  (87) 
ACHIRAL

>  <State>  (87) 
Solid

>  <Similarity score>  (87) 
0.21

$$$$
1-(4-chlorophenyl)-6,8-difluoro-3-phenyl-1H-pyrazolo[4,3-c]quinoline
     RDKit          2D

 28 32  0  0  0  0  0  0  0  0999 V2000
   -0.3341    0.5182    0.0000 N   0  0  0  0  0  0  0  0  0  0  0  0
    0.3176   -0.9558    0.0000 C   0  0  0  0  0  0  0  0  0  0  0  0
   -0.5466   -0.4560    0.0000 C   0  0  0  0  0  0  0  0  0  0  0  0
    0.6510    0.6245    0.0000 N   0  0  0  0  0  0  0  0  0  0  0  0
    1.0593   -0.2894    0.0000 C   0  0  0  0  0  0  0  0  0  0  0  0
   -1.4090   -0.9706    0.0000 C   0  0  0  0  0  0  0  0  0  0  0  0
   -1.4090   -1.9703    0.0000 C   0  0  0  0  0  0  0  0  0  0  0  0
   -0.5356   -2.4703    0.0000 N   0  0  0  0  0  0  0  0  0  0  0  0
    0.3323   -1.9703    0.0000 C   0  0  0  0  0  0  0  0  0  0  0  0
   -2.2770   -2.4792    0.0000 C   0  0  0  0  0  0  0  0  0  0  0  0
   -1.0008    1.2597    0.0000 C   0  0  0  0  0  0  0  0  0  0  0  0
   -3.1504   -1.9793    0.0000 C   0  0  0  0  0  0  0  0  0  0  0  0
   -2.2770   -0.4652    0.0000 C   0  0  0  0  0  0  0  0  0  0  0  0
   -3.1504   -0.9706    0.0000 C   0  0  0  0  0  0  0  0  0  0  0  0
    2.0425   -0.4852    0.0000 C   0  0  0  0  0  0  0  0  0  0  0  0
   -0.6967    2.1992    0.0000 C   0  0  0  0  0  0  0  0  0  0  0  0
   -1.9693    1.0584    0.0000 C   0  0  0  0  0  0  0  0  0  0  0  0
   -2.2881   -3.4700    0.0000 F   0  0  0  0  0  0  0  0  0  0  0  0
   -2.3337    2.7302    0.0000 C   0  0  0  0  0  0  0  0  0  0  0  0
   -4.0128   -0.4708    0.0000 F   0  0  0  0  0  0  0  0  0  0  0  0
   -2.6358    1.7853    0.0000 C   0  0  0  0  0  0  0  0  0  0  0  0
   -1.3541    2.9353    0.0000 C   0  0  0  0  0  0  0  0  0  0  0  0
   -2.9983    3.4700    0.0000 Cl  0  0  0  0  0  0  0  0  0  0  0  0
    2.7092    0.2620    0.0000 C   0  0  0  0  0  0  0  0  0  0  0  0
    2.3612   -1.4392    0.0000 C   0  0  0  0  0  0  0  0  0  0  0  0
    3.3464   -1.6463    0.0000 C   0  0  0  0  0  0  0  0  0  0  0  0
    3.6887    0.0642    0.0000 C   0  0  0  0  0  0  0  0  0  0  0  0
    4.0128   -0.8954    0.0000 C   0  0  0  0  0  0  0  0  0  0  0  0
  2  3  2  0
  2  5  1  0
  1  3  1  0
  1  4  1  0
  4  5  2  0
  3  6  1  0
  6  7  1  0
  7  8  1  0
  2  9  1  0
  8  9  2  0
  7 10  2  0
  1 11  1  0
 12 14  2  0
 10 12  1  0
  6 13  2  0
 13 14  1  0
  5 15  1  0
 11 16  2  0
 11 17  1  0
 10 18  1  0
 19 21  1  0
 14 20  1  0
 17 21  2  0
 16 22  1  0
 19 22  2  0
 19 23  1  0
 15 24  1  0
 15 25  2  0
 25 26  1  0
 24 27  2  0
 27 28  1  0
 26 28  2  0
M  END
>  <IDNUMBER>  (88) 
C350-0109

>  <available>  (88) 
60

>  <H_acceptor>  (88) 
2

>  <H_donor>  (88) 
0

>  <B_rotN>  (88) 
2

>  <N_O>  (88) 
3

>  <logP>  (88) 
5.9164

>  <logD>  (88) 
5.9164

>  <logSw>  (88) 
-6.47

>  <PSA>  (88) 
23.4803

>  <pKa_ma>  (88) 
14

>  <pKa_mb>  (88) 
2.2647

>  <N_Chirals>  (88) 
0

>  <Name>  (88) 
1-(4-chlorophenyl)-6,8-difluoro-3-phenyl-1H-pyrazolo[4,3-c]quinoline

>  <Smile>  (88) 
Fc(cc12)cc(F)c1ncc1c2n(-c(cc2)ccc2Cl)nc1-c1ccccc1

>  <Color>  (88) 
NOT COLORED

>  <Collection>  (88) 
DC

>  <InChI>  (88) 
InChI=1S/C22H12ClF2N3/c23-14-6-8-16(9-7-14)28-22-17-10-15(24)11-19(25)21(17)26-12-18(22)20(27-28)13-4-2-1-3-5-13/h1-12H

>  <InChI Key>  (88) 
YPZVVCJTJLRYSZ-UHFFFAOYSA-N

>  <PERCENTSP3>  (88) 
0

>  <Link>  (88) 
https://www.chemdiv.com/catalog/screening-compounds/compound-C350-0109/

>  <MFCDNUMBER>  (88) 
MFCD14750136

>  <CLNUMBER>  (88) 
CL4130

>  <STEREO>  (88) 
ACHIRAL

>  <State>  (88) 
Solid

>  <Similarity score>  (88) 
0.21

$$$$
1-(4-bromophenyl)-6,8-difluoro-3-phenyl-1H-pyrazolo[4,3-c]quinoline
     RDKit          2D

 28 32  0  0  0  0  0  0  0  0999 V2000
   -0.3341    0.5182    0.0000 N   0  0  0  0  0  0  0  0  0  0  0  0
    0.3176   -0.9558    0.0000 C   0  0  0  0  0  0  0  0  0  0  0  0
   -0.5466   -0.4560    0.0000 C   0  0  0  0  0  0  0  0  0  0  0  0
    0.6510    0.6245    0.0000 N   0  0  0  0  0  0  0  0  0  0  0  0
    1.0593   -0.2894    0.0000 C   0  0  0  0  0  0  0  0  0  0  0  0
   -1.4090   -0.9706    0.0000 C   0  0  0  0  0  0  0  0  0  0  0  0
   -1.4090   -1.9703    0.0000 C   0  0  0  0  0  0  0  0  0  0  0  0
   -0.5356   -2.4703    0.0000 N   0  0  0  0  0  0  0  0  0  0  0  0
    0.3323   -1.9703    0.0000 C   0  0  0  0  0  0  0  0  0  0  0  0
   -2.2770   -2.4792    0.0000 C   0  0  0  0  0  0  0  0  0  0  0  0
   -1.0008    1.2597    0.0000 C   0  0  0  0  0  0  0  0  0  0  0  0
   -3.1504   -1.9793    0.0000 C   0  0  0  0  0  0  0  0  0  0  0  0
   -2.2770   -0.4652    0.0000 C   0  0  0  0  0  0  0  0  0  0  0  0
   -3.1504   -0.9706    0.0000 C   0  0  0  0  0  0  0  0  0  0  0  0
    2.0425   -0.4852    0.0000 C   0  0  0  0  0  0  0  0  0  0  0  0
   -0.6967    2.1992    0.0000 C   0  0  0  0  0  0  0  0  0  0  0  0
   -1.9693    1.0584    0.0000 C   0  0  0  0  0  0  0  0  0  0  0  0
   -2.2881   -3.4700    0.0000 F   0  0  0  0  0  0  0  0  0  0  0  0
   -2.3337    2.7302    0.0000 C   0  0  0  0  0  0  0  0  0  0  0  0
   -4.0128   -0.4708    0.0000 F   0  0  0  0  0  0  0  0  0  0  0  0
   -2.6358    1.7853    0.0000 C   0  0  0  0  0  0  0  0  0  0  0  0
   -1.3541    2.9353    0.0000 C   0  0  0  0  0  0  0  0  0  0  0  0
   -2.9983    3.4700    0.0000 Br  0  0  0  0  0  0  0  0  0  0  0  0
    2.7092    0.2620    0.0000 C   0  0  0  0  0  0  0  0  0  0  0  0
    2.3612   -1.4392    0.0000 C   0  0  0  0  0  0  0  0  0  0  0  0
    3.3464   -1.6463    0.0000 C   0  0  0  0  0  0  0  0  0  0  0  0
    3.6887    0.0642    0.0000 C   0  0  0  0  0  0  0  0  0  0  0  0
    4.0128   -0.8954    0.0000 C   0  0  0  0  0  0  0  0  0  0  0  0
  2  3  2  0
  2  5  1  0
  1  3  1  0
  1  4  1  0
  4  5  2  0
  3  6  1  0
  6  7  1  0
  7  8  1  0
  2  9  1  0
  8  9  2  0
  7 10  2  0
  1 11  1  0
 12 14  2  0
 10 12  1  0
  6 13  2  0
 13 14  1  0
  5 15  1  0
 11 16  2  0
 11 17  1  0
 10 18  1  0
 19 21  1  0
 14 20  1  0
 17 21  2  0
 16 22  1  0
 19 22  2  0
 19 23  1  0
 15 24  1  0
 15 25  2  0
 25 26  1  0
 24 27  2  0
 27 28  1  0
 26 28  2  0
M  END
>  <IDNUMBER>  (89) 
C350-0108

>  <available>  (89) 
67

>  <H_acceptor>  (89) 
2

>  <H_donor>  (89) 
0

>  <B_rotN>  (89) 
2

>  <N_O>  (89) 
3

>  <logP>  (89) 
6.1555

>  <logD>  (89) 
6.1555

>  <logSw>  (89) 
-6.3292

>  <PSA>  (89) 
23.4803

>  <pKa_ma>  (89) 
14

>  <pKa_mb>  (89) 
2.2647

>  <N_Chirals>  (89) 
0

>  <Name>  (89) 
1-(4-bromophenyl)-6,8-difluoro-3-phenyl-1H-pyrazolo[4,3-c]quinoline

>  <Smile>  (89) 
Fc(cc12)cc(F)c1ncc1c2n(-c(cc2)ccc2Br)nc1-c1ccccc1

>  <Color>  (89) 
NOT COLORED

>  <Collection>  (89) 
DC

>  <InChI>  (89) 
InChI=1S/C22H12BrF2N3/c23-14-6-8-16(9-7-14)28-22-17-10-15(24)11-19(25)21(17)26-12-18(22)20(27-28)13-4-2-1-3-5-13/h1-12H

>  <InChI Key>  (89) 
IQJFCCRKYOCKAH-UHFFFAOYSA-N

>  <PERCENTSP3>  (89) 
0

>  <Link>  (89) 
https://www.chemdiv.com/catalog/screening-compounds/compound-C350-0108/

>  <MFCDNUMBER>  (89) 
MFCD14750135

>  <CLNUMBER>  (89) 
CL4130

>  <STEREO>  (89) 
ACHIRAL

>  <State>  (89) 
Solid

>  <Similarity score>  (89) 
0.21

$$$$
6,8-difluoro-1-(4-methylphenyl)-3-phenyl-1H-pyrazolo[4,3-c]quinoline
     RDKit          2D

 28 32  0  0  0  0  0  0  0  0999 V2000
   -0.3339    0.5179    0.0000 N   0  0  0  0  0  0  0  0  0  0  0  0
    0.3171   -0.9549    0.0000 C   0  0  0  0  0  0  0  0  0  0  0  0
   -0.5463   -0.4562    0.0000 C   0  0  0  0  0  0  0  0  0  0  0  0
    0.6509    0.6241    0.0000 N   0  0  0  0  0  0  0  0  0  0  0  0
    1.0587   -0.2900    0.0000 C   0  0  0  0  0  0  0  0  0  0  0  0
   -1.4081   -0.9704    0.0000 C   0  0  0  0  0  0  0  0  0  0  0  0
   -1.4081   -1.9705    0.0000 C   0  0  0  0  0  0  0  0  0  0  0  0
   -0.5355   -2.4691    0.0000 N   0  0  0  0  0  0  0  0  0  0  0  0
    0.3324   -1.9705    0.0000 C   0  0  0  0  0  0  0  0  0  0  0  0
   -2.2761   -2.4800    0.0000 C   0  0  0  0  0  0  0  0  0  0  0  0
   -1.0004    1.2595    0.0000 C   0  0  0  0  0  0  0  0  0  0  0  0
   -3.1485   -1.9798    0.0000 C   0  0  0  0  0  0  0  0  0  0  0  0
   -2.2761   -0.4655    0.0000 C   0  0  0  0  0  0  0  0  0  0  0  0
   -3.1485   -0.9704    0.0000 C   0  0  0  0  0  0  0  0  0  0  0  0
    2.0437   -0.4871    0.0000 C   0  0  0  0  0  0  0  0  0  0  0  0
   -0.6971    2.1985    0.0000 C   0  0  0  0  0  0  0  0  0  0  0  0
   -1.9683    1.0473    0.0000 C   0  0  0  0  0  0  0  0  0  0  0  0
   -2.2868   -3.4695    0.0000 F   0  0  0  0  0  0  0  0  0  0  0  0
   -4.0120   -0.4717    0.0000 F   0  0  0  0  0  0  0  0  0  0  0  0
   -2.6330    1.7845    0.0000 C   0  0  0  0  0  0  0  0  0  0  0  0
   -1.3527    2.9354    0.0000 C   0  0  0  0  0  0  0  0  0  0  0  0
   -2.3315    2.7277    0.0000 C   0  0  0  0  0  0  0  0  0  0  0  0
    2.3606   -1.4396    0.0000 C   0  0  0  0  0  0  0  0  0  0  0  0
    2.7100    0.2608    0.0000 C   0  0  0  0  0  0  0  0  0  0  0  0
   -2.9963    3.4695    0.0000 C   0  0  0  0  0  0  0  0  0  0  0  0
    3.3458   -1.6474    0.0000 C   0  0  0  0  0  0  0  0  0  0  0  0
    3.6888    0.0638    0.0000 C   0  0  0  0  0  0  0  0  0  0  0  0
    4.0120   -0.8948    0.0000 C   0  0  0  0  0  0  0  0  0  0  0  0
  2  3  2  0
  2  5  1  0
  1  3  1  0
  1  4  1  0
  4  5  2  0
  3  6  1  0
  6  7  1  0
  7  8  1  0
  2  9  1  0
  8  9  2  0
  7 10  2  0
  1 11  1  0
 12 14  2  0
 10 12  1  0
  6 13  2  0
 13 14  1  0
  5 15  1  0
 11 16  2  0
 11 17  1  0
 10 18  1  0
 14 19  1  0
 17 20  2  0
 16 21  1  0
 21 22  2  0
 20 22  1  0
 15 23  2  0
 15 24  1  0
 22 25  1  0
 23 26  1  0
 26 28  2  0
 24 27  2  0
 27 28  1  0
M  END
>  <IDNUMBER>  (90) 
C350-0100

>  <available>  (90) 
68

>  <H_acceptor>  (90) 
2

>  <H_donor>  (90) 
0

>  <B_rotN>  (90) 
2

>  <N_O>  (90) 
3

>  <logP>  (90) 
5.745

>  <logD>  (90) 
5.745

>  <logSw>  (90) 
-5.7314

>  <PSA>  (90) 
23.4803

>  <pKa_ma>  (90) 
28.3737

>  <pKa_mb>  (90) 
2.5095

>  <N_Chirals>  (90) 
0

>  <Name>  (90) 
6,8-difluoro-1-(4-methylphenyl)-3-phenyl-1H-pyrazolo[4,3-c]quinoline

>  <Smile>  (90) 
Cc(cc1)ccc1-n(c1c(cc(cc2F)F)c2ncc11)nc1-c1ccccc1

>  <Color>  (90) 
NOT COLORED

>  <Collection>  (90) 
DC

>  <InChI>  (90) 
InChI=1S/C23H15F2N3/c1-14-7-9-17(10-8-14)28-23-18-11-16(24)12-20(25)22(18)26-13-19(23)21(27-28)15-5-3-2-4-6-15/h2-13H,1H3

>  <InChI Key>  (90) 
NVLCCVUWOYLQAN-UHFFFAOYSA-N

>  <PERCENTSP3>  (90) 
4.3

>  <Link>  (90) 
https://www.chemdiv.com/catalog/screening-compounds/compound-C350-0100/

>  <MFCDNUMBER>  (90) 
MFCD14750127

>  <CLNUMBER>  (90) 
CL4130

>  <STEREO>  (90) 
ACHIRAL

>  <State>  (90) 
Solid

>  <Similarity score>  (90) 
0.21

$$$$
4-(3,5-dimethylpiperidin-1-yl)-3-(4-fluorophenyl)[1,2]oxazolo[5,4-d]pyrimidine
     RDKit          2D

 24 27  0  0  0  0  0  0  0  0999 V2000
    0.3880   -1.0151    0.0000 C   0  0  0  0  0  0  0  0  0  0  0  0
    1.2392    0.4911    0.0000 N   0  0  0  0  0  0  0  0  0  0  0  0
    1.2491   -0.5062    0.0000 C   0  0  0  0  0  0  0  0  0  0  0  0
   -1.1536   -1.5186    0.0000 N   0  0  0  0  0  0  0  0  0  0  0  0
   -0.5642   -0.7127    0.0000 C   0  0  0  0  0  0  0  0  0  0  0  0
    0.3880   -2.0175    0.0000 C   0  0  0  0  0  0  0  0  0  0  0  0
   -0.5591   -2.3347    0.0000 O   0  0  0  0  0  0  0  0  0  0  0  0
    2.1257   -1.0048    0.0000 N   0  0  0  0  0  0  0  0  0  0  0  0
    1.2642   -2.5161    0.0000 N   0  0  0  0  0  0  0  0  0  0  0  0
    2.1003    0.9897    0.0000 C   0  0  0  0  0  0  0  0  0  0  0  0
    0.3777    0.9897    0.0000 C   0  0  0  0  0  0  0  0  0  0  0  0
   -1.1636    0.0983    0.0000 C   0  0  0  0  0  0  0  0  0  0  0  0
    2.1306   -2.0024    0.0000 C   0  0  0  0  0  0  0  0  0  0  0  0
   -2.1508   -0.0076    0.0000 C   0  0  0  0  0  0  0  0  0  0  0  0
   -0.7605    1.0199    0.0000 C   0  0  0  0  0  0  0  0  0  0  0  0
    2.0955    1.9869    0.0000 C   0  0  0  0  0  0  0  0  0  0  0  0
    0.3629    1.9721    0.0000 C   0  0  0  0  0  0  0  0  0  0  0  0
    1.2240    2.4707    0.0000 C   0  0  0  0  0  0  0  0  0  0  0  0
   -2.3474    1.7051    0.0000 C   0  0  0  0  0  0  0  0  0  0  0  0
   -2.7501    0.7934    0.0000 C   0  0  0  0  0  0  0  0  0  0  0  0
   -1.3498    1.8209    0.0000 C   0  0  0  0  0  0  0  0  0  0  0  0
   -2.9618    2.5161    0.0000 F   0  0  0  0  0  0  0  0  0  0  0  0
    2.9618    2.4907    0.0000 C   0  0  0  0  0  0  0  0  0  0  0  0
   -0.4986    2.4556    0.0000 C   0  0  0  0  0  0  0  0  0  0  0  0
  2  3  1  0
  1  3  1  0
  4  5  2  0
  1  5  1  0
  1  6  2  0
  6  7  1  0
  4  7  1  0
  3  8  2  0
  8 13  1  0
  6  9  1  0
  2 10  1  0
  2 11  1  0
  5 12  1  0
  9 13  2  0
 12 14  1  0
 12 15  2  0
 10 16  1  0
 11 17  1  0
 17 18  1  0
 16 18  1  0
 19 21  2  0
 14 20  2  0
 19 20  1  0
 15 21  1  0
 19 22  1  0
 16 23  1  0
 17 24  1  0
M  END
>  <IDNUMBER>  (91) 
E899-0074

>  <available>  (91) 
100

>  <H_acceptor>  (91) 
4

>  <H_donor>  (91) 
0

>  <B_rotN>  (91) 
2

>  <N_O>  (91) 
5

>  <logP>  (91) 
4.2941

>  <logD>  (91) 
4.2941

>  <logSw>  (91) 
-4.5221

>  <PSA>  (91) 
45.401

>  <pKa_ma>  (91) 
21.6325

>  <pKa_mb>  (91) 
2.7118

>  <N_Chirals>  (91) 
2

>  <Name>  (91) 
4-(3,5-dimethylpiperidin-1-yl)-3-(4-fluorophenyl)[1,2]oxazolo[5,4-d]pyrimidine

>  <Smile>  (91) 
CC(CC(C)C1)CN1c1c(c(-c(cc2)ccc2F)no2)c2ncn1

>  <Color>  (91) 
NOT COLORED

>  <Collection>  (91) 
DC

>  <InChI>  (91) 
InChI=1S/C18H19FN4O/c1-11-7-12(2)9-23(8-11)17-15-16(13-3-5-14(19)6-4-13)22-24-18(15)21-10-20-17/h3-6,10-12H,7-9H2,1-2H3

>  <InChI Key>  (91) 
ANSNSLYKFXSGIO-UHFFFAOYSA-N

>  <PERCENTSP3>  (91) 
38.9

>  <Link>  (91) 
https://www.chemdiv.com/catalog/screening-compounds/compound-E899-0074/

>  <MFCDNUMBER>  (91) 
MFCD14926671

>  <CLNUMBER>  (91) 
CL5509

>  <STEREO>  (91) 
MIXTURE OF STEREOISOMERS

>  <State>  (91) 
Solid

>  <Similarity score>  (91) 
0.21

$$$$
N-(3-chloro-4-fluorophenyl)-1-(morpholin-4-yl)isoquinoline-4-carboxamide
     RDKit          2D

 27 30  0  0  0  0  0  0  0  0999 V2000
   -0.2501   -1.2940    0.0000 C   0  0  0  0  0  0  0  0  0  0  0  0
   -1.2503    0.4313    0.0000 C   0  0  0  0  0  0  0  0  0  0  0  0
    0.2501   -2.1650    0.0000 C   0  0  0  0  0  0  0  0  0  0  0  0
   -0.2501    0.4313    0.0000 N   0  0  0  0  0  0  0  0  0  0  0  0
   -1.2503   -1.2940    0.0000 C   0  0  0  0  0  0  0  0  0  0  0  0
   -1.7504   -0.4313    0.0000 C   0  0  0  0  0  0  0  0  0  0  0  0
   -1.7504    1.2984    0.0000 N   0  0  0  0  0  0  0  0  0  0  0  0
    0.2501   -0.4313    0.0000 C   0  0  0  0  0  0  0  0  0  0  0  0
    1.2503   -2.1650    0.0000 N   0  0  0  0  0  0  0  0  0  0  0  0
    1.7504    0.4313    0.0000 C   0  0  0  0  0  0  0  0  0  0  0  0
    1.2503   -0.4313    0.0000 C   0  0  0  0  0  0  0  0  0  0  0  0
    1.7504   -1.2940    0.0000 C   0  0  0  0  0  0  0  0  0  0  0  0
   -0.2501   -3.0319    0.0000 O   0  0  0  0  0  0  0  0  0  0  0  0
    2.7506    0.4313    0.0000 C   0  0  0  0  0  0  0  0  0  0  0  0
   -2.7506    3.0319    0.0000 O   0  0  0  0  0  0  0  0  0  0  0  0
    3.2507   -0.4313    0.0000 C   0  0  0  0  0  0  0  0  0  0  0  0
    1.2503    1.2984    0.0000 Cl  0  0  0  0  0  0  0  0  0  0  0  0
    2.7506   -1.2940    0.0000 C   0  0  0  0  0  0  0  0  0  0  0  0
    3.2507    1.2984    0.0000 F   0  0  0  0  0  0  0  0  0  0  0  0
   -2.7506    1.2984    0.0000 C   0  0  0  0  0  0  0  0  0  0  0  0
   -1.2503    2.1692    0.0000 C   0  0  0  0  0  0  0  0  0  0  0  0
   -1.7504   -2.1650    0.0000 C   0  0  0  0  0  0  0  0  0  0  0  0
   -2.7506   -0.4313    0.0000 C   0  0  0  0  0  0  0  0  0  0  0  0
   -1.7504    3.0319    0.0000 C   0  0  0  0  0  0  0  0  0  0  0  0
   -3.2507    2.1692    0.0000 C   0  0  0  0  0  0  0  0  0  0  0  0
   -2.7506   -2.1650    0.0000 C   0  0  0  0  0  0  0  0  0  0  0  0
   -3.2507   -1.2940    0.0000 C   0  0  0  0  0  0  0  0  0  0  0  0
  2  4  2  0
  2  6  1  0
  1  3  1  0
  4  8  1  0
  1  5  1  0
  5  6  1  0
  2  7  1  0
  1  8  2  0
  3  9  1  0
 10 11  2  0
 11 12  1  0
  9 12  1  0
  3 13  2  0
 14 16  2  0
 10 14  1  0
 15 24  1  0
 16 18  1  0
 10 17  1  0
 12 18  2  0
 14 19  1  0
  7 20  1  0
  7 21  1  0
  5 22  2  0
  6 23  2  0
 23 27  1  0
 21 24  1  0
 20 25  1  0
 15 25  1  0
 22 26  1  0
 26 27  2  0
M  END
>  <IDNUMBER>  (92) 
G817-0245

>  <available>  (92) 
139

>  <H_acceptor>  (92) 
4

>  <H_donor>  (92) 
1

>  <B_rotN>  (92) 
4

>  <N_O>  (92) 
5

>  <logP>  (92) 
4.3004

>  <logD>  (92) 
4.2912

>  <logSw>  (92) 
-4.547

>  <PSA>  (92) 
43.489

>  <pKa_ma>  (92) 
9.1669

>  <pKa_mb>  (92) 
5.0343

>  <N_Chirals>  (92) 
0

>  <Name>  (92) 
N-(3-chloro-4-fluorophenyl)-1-(morpholin-4-yl)isoquinoline-4-carboxamide

>  <Smile>  (92) 
O=C(c(c1ccccc11)cnc1N1CCOCC1)Nc(cc1)cc(Cl)c1F

>  <Color>  (92) 
NOT COLORED

>  <Collection>  (92) 
DC

>  <InChI>  (92) 
InChI=1S/C20H17ClFN3O2/c21-17-11-13(5-6-18(17)22)24-20(26)16-12-23-19(25-7-9-27-10-8-25)15-4-2-1-3-14(15)16/h1-6,11-12H,7-10H2,(H,24,26)

>  <InChI Key>  (92) 
YVIKZHVUFPYMKD-UHFFFAOYSA-N

>  <PERCENTSP3>  (92) 
20

>  <Link>  (92) 
https://www.chemdiv.com/catalog/screening-compounds/compound-G817-0245/

>  <MFCDNUMBER>  (92) 
MFCD15038704

>  <CLNUMBER>  (92) 
CL1054

>  <STEREO>  (92) 
ACHIRAL

>  <State>  (92) 
Solid

>  <Similarity score>  (92) 
0.21

$$$$
1-(3-cyano-6-ethoxyquinolin-4-yl)-N-(3,4-difluorophenyl)piperidine-4-carboxamide
     RDKit          2D

 32 35  0  0  0  0  0  0  0  0999 V2000
    0.4173   -3.7329    0.0000 C   0  0  0  0  0  0  0  0  0  0  0  0
    1.2921   -3.2201    0.0000 C   0  0  0  0  0  0  0  0  0  0  0  0
    1.2921   -2.2246    0.0000 N   0  0  0  0  0  0  0  0  0  0  0  0
    2.1671   -3.7329    0.0000 C   0  0  0  0  0  0  0  0  0  0  0  0
    1.3021    0.7767    0.0000 C   0  0  0  0  0  0  0  0  0  0  0  0
    1.2872   -5.2412    0.0000 N   0  0  0  0  0  0  0  0  0  0  0  0
    2.1671    1.2744    0.0000 N   0  0  0  0  0  0  0  0  0  0  0  0
    3.0366   -3.2351    0.0000 C   0  0  0  0  0  0  0  0  0  0  0  0
    3.8964   -2.7223    0.0000 N   0  0  0  0  0  0  0  0  0  0  0  0
    0.4173   -4.7435    0.0000 C   0  0  0  0  0  0  0  0  0  0  0  0
    2.9965    3.7532    0.0000 C   0  0  0  0  0  0  0  0  0  0  0  0
    3.0114    2.7577    0.0000 C   0  0  0  0  0  0  0  0  0  0  0  0
   -0.4475   -3.2351    0.0000 C   0  0  0  0  0  0  0  0  0  0  0  0
    2.1671   -4.7435    0.0000 C   0  0  0  0  0  0  0  0  0  0  0  0
    2.1517    2.2699    0.0000 C   0  0  0  0  0  0  0  0  0  0  0  0
    1.3021   -0.2285    0.0000 C   0  0  0  0  0  0  0  0  0  0  0  0
    2.1216    4.2459    0.0000 C   0  0  0  0  0  0  0  0  0  0  0  0
    0.4273   -1.7268    0.0000 C   0  0  0  0  0  0  0  0  0  0  0  0
    2.1617   -1.7268    0.0000 C   0  0  0  0  0  0  0  0  0  0  0  0
    0.4324    1.2798    0.0000 O   0  0  0  0  0  0  0  0  0  0  0  0
    0.4324   -0.7262    0.0000 C   0  0  0  0  0  0  0  0  0  0  0  0
    2.1671   -0.7313    0.0000 C   0  0  0  0  0  0  0  0  0  0  0  0
    1.2718    3.7332    0.0000 C   0  0  0  0  0  0  0  0  0  0  0  0
   -0.4475   -5.2412    0.0000 C   0  0  0  0  0  0  0  0  0  0  0  0
   -1.3173   -3.7329    0.0000 C   0  0  0  0  0  0  0  0  0  0  0  0
    3.8562    4.2611    0.0000 F   0  0  0  0  0  0  0  0  0  0  0  0
    1.2921    2.7377    0.0000 C   0  0  0  0  0  0  0  0  0  0  0  0
    2.1166    5.2412    0.0000 F   0  0  0  0  0  0  0  0  0  0  0  0
   -1.3173   -4.7384    0.0000 C   0  0  0  0  0  0  0  0  0  0  0  0
   -2.1767   -3.2351    0.0000 O   0  0  0  0  0  0  0  0  0  0  0  0
   -3.0366   -3.7329    0.0000 C   0  0  0  0  0  0  0  0  0  0  0  0
   -3.8964   -3.2351    0.0000 C   0  0  0  0  0  0  0  0  0  0  0  0
  1  2  1  0
  2  3  1  0
  2  4  2  0
  5 16  1  0
  6 10  1  0
  5  7  1  0
  4  8  1  0
  8  9  3  0
  1 10  1  0
 11 12  1  0
 12 15  2  0
  1 13  2  0
  6 14  2  0
  4 14  1  0
  7 15  1  0
 16 22  1  0
 17 23  1  0
 11 17  2  0
  3 18  1  0
  3 19  1  0
  5 20  2  0
 18 21  1  0
 16 21  1  0
 19 22  1  0
 23 27  2  0
 10 24  2  0
 24 29  1  0
 13 25  1  0
 11 26  1  0
 15 27  1  0
 17 28  1  0
 25 29  2  0
 25 30  1  0
 30 31  1  0
 31 32  1  0
M  END
>  <IDNUMBER>  (93) 
L483-0739

>  <available>  (93) 
77

>  <H_acceptor>  (93) 
5

>  <H_donor>  (93) 
1

>  <B_rotN>  (93) 
7

>  <N_O>  (93) 
6

>  <logP>  (93) 
4.2547

>  <logD>  (93) 
4.1847

>  <logSw>  (93) 
-4.0722

>  <PSA>  (93) 
59.213

>  <pKa_ma>  (93) 
8.3996

>  <pKa_mb>  (93) 
6.2336

>  <N_Chirals>  (93) 
0

>  <Name>  (93) 
1-(3-cyano-6-ethoxyquinolin-4-yl)-N-(3,4-difluorophenyl)piperidine-4-carboxamide

>  <Smile>  (93) 
CCOc(cc12)ccc2ncc(C#N)c1N(CC1)CCC1C(Nc(cc1)cc(F)c1F)=O

>  <Color>  (93) 
YELLOW

>  <Collection>  (93) 
NC

>  <InChI>  (93) 
InChI=1S/C24H22F2N4O2/c1-2-32-18-4-6-22-19(12-18)23(16(13-27)14-28-22)30-9-7-15(8-10-30)24(31)29-17-3-5-20(25)21(26)11-17/h3-6,11-12,14-15H,2,7-10H2,1H3,(H,29,31)

>  <InChI Key>  (93) 
URNJEEHERHANOM-UHFFFAOYSA-N

>  <PERCENTSP3>  (93) 
29.2

>  <Link>  (93) 
https://www.chemdiv.com/catalog/screening-compounds/compound-L483-0739/

>  <MFCDNUMBER>  (93) 
MFCD16639839

>  <CLNUMBER>  (93) 
CL6761A

>  <STEREO>  (93) 
ACHIRAL

>  <State>  (93) 
Solid

>  <Similarity score>  (93) 
0.21

$$$$
4-(azepan-1-yl)-N-(4-chloro-2-fluorophenyl)[1]benzofuro[3,2-d]pyrimidine-2-carbo
     RDKit          2D

 31 35  0  0  0  0  0  0  0  0999 V2000
    1.9194   -0.1563    0.0000 C   0  0  0  0  0  0  0  0  0  0  0  0
    1.9194   -1.1399    0.0000 C   0  0  0  0  0  0  0  0  0  0  0  0
    1.0692    0.3314    0.0000 C   0  0  0  0  0  0  0  0  0  0  0  0
    1.0692   -1.6278    0.0000 N   0  0  0  0  0  0  0  0  0  0  0  0
    0.2189   -0.1563    0.0000 N   0  0  0  0  0  0  0  0  0  0  0  0
    0.2189   -1.1399    0.0000 C   0  0  0  0  0  0  0  0  0  0  0  0
    2.7657    0.3314    0.0000 O   0  0  0  0  0  0  0  0  0  0  0  0
    1.9194    1.8069    0.0000 C   0  0  0  0  0  0  0  0  0  0  0  0
   -0.6315   -1.6278    0.0000 C   0  0  0  0  0  0  0  0  0  0  0  0
    2.7657    1.3110    0.0000 C   0  0  0  0  0  0  0  0  0  0  0  0
    2.7657   -1.6278    0.0000 N   0  0  0  0  0  0  0  0  0  0  0  0
   -1.4820   -1.1399    0.0000 N   0  0  0  0  0  0  0  0  0  0  0  0
   -2.3240   -1.6278    0.0000 C   0  0  0  0  0  0  0  0  0  0  0  0
   -3.1743   -1.1399    0.0000 C   0  0  0  0  0  0  0  0  0  0  0  0
   -4.0204   -1.6278    0.0000 C   0  0  0  0  0  0  0  0  0  0  0  0
   -0.6315   -2.6074    0.0000 O   0  0  0  0  0  0  0  0  0  0  0  0
   -2.3240   -2.6074    0.0000 C   0  0  0  0  0  0  0  0  0  0  0  0
   -4.0204   -2.6074    0.0000 C   0  0  0  0  0  0  0  0  0  0  0  0
   -3.1743   -0.1563    0.0000 F   0  0  0  0  0  0  0  0  0  0  0  0
   -3.1743   -3.0951    0.0000 C   0  0  0  0  0  0  0  0  0  0  0  0
   -4.8709   -3.0951    0.0000 Cl  0  0  0  0  0  0  0  0  0  0  0  0
    1.9194    2.7825    0.0000 C   0  0  0  0  0  0  0  0  0  0  0  0
    3.5703   -1.0774    0.0000 C   0  0  0  0  0  0  0  0  0  0  0  0
    2.6950   -2.6074    0.0000 C   0  0  0  0  0  0  0  0  0  0  0  0
    3.6160    1.8069    0.0000 C   0  0  0  0  0  0  0  0  0  0  0  0
    2.7657    3.2700    0.0000 C   0  0  0  0  0  0  0  0  0  0  0  0
    4.5083   -1.3651    0.0000 C   0  0  0  0  0  0  0  0  0  0  0  0
    3.4078   -3.2700    0.0000 C   0  0  0  0  0  0  0  0  0  0  0  0
    3.6160    2.7825    0.0000 C   0  0  0  0  0  0  0  0  0  0  0  0
    4.8709   -2.2780    0.0000 C   0  0  0  0  0  0  0  0  0  0  0  0
    4.3789   -3.1201    0.0000 C   0  0  0  0  0  0  0  0  0  0  0  0
  1  2  1  0
  1  3  2  0
  2  4  2  0
  4  6  1  0
  3  5  1  0
  5  6  2  0
  1  7  1  0
  3  8  1  0
  8 10  1  0
  6  9  1  0
  7 10  1  0
  2 11  1  0
  9 12  1  0
 12 13  1  0
 13 14  1  0
 14 15  2  0
  9 16  2  0
 13 17  2  0
 18 20  2  0
 15 18  1  0
 14 19  1  0
 17 20  1  0
 18 21  1  0
  8 22  2  0
 11 23  1  0
 11 24  1  0
 10 25  2  0
 22 26  1  0
 26 29  2  0
 23 27  1  0
 24 28  1  0
 25 29  1  0
 27 30  1  0
 30 31  1  0
 28 31  1  0
M  END
>  <IDNUMBER>  (94) 
L331-0715

>  <available>  (94) 
18

>  <H_acceptor>  (94) 
5

>  <H_donor>  (94) 
1

>  <B_rotN>  (94) 
4

>  <N_O>  (94) 
6

>  <logP>  (94) 
6.4953

>  <logD>  (94) 
6.4754

>  <logSw>  (94) 
-6.4906

>  <PSA>  (94) 
53.824

>  <pKa_ma>  (94) 
9.092

>  <pKa_mb>  (94) 
11.0435

>  <N_Chirals>  (94) 
0

>  <Name>  (94) 
4-(azepan-1-yl)-N-(4-chloro-2-fluorophenyl)[1]benzofuro[3,2-d]pyrimidine-2-carboxamide

>  <Smile>  (94) 
O=C(c1nc(N2CCCCCC2)c2oc(cccc3)c3c2n1)Nc(ccc(Cl)c1)c1F

>  <Color>  (94) 
NOT COLORED

>  <Collection>  (94) 
NC

>  <InChI>  (94) 
InChI=1S/C23H20ClFN4O2/c24-14-9-10-17(16(25)13-14)26-23(30)21-27-19-15-7-3-4-8-18(15)31-20(19)22(28-21)29-11-5-1-2-6-12-29/h3-4,7-10,13H,1-2,5-6,11-12H2,(H,26,30)

>  <InChI Key>  (94) 
NMJNQRPBTVKIQZ-UHFFFAOYSA-N

>  <PERCENTSP3>  (94) 
26.1

>  <Link>  (94) 
https://www.chemdiv.com/catalog/screening-compounds/compound-L331-0715/

>  <MFCDNUMBER>  (94) 
MFCD27247027

>  <CLNUMBER>  (94) 
CL7949

>  <STEREO>  (94) 
ACHIRAL

>  <State>  (94) 
Solid

>  <Similarity score>  (94) 
0.21

$$$$
N,N-diethyl-2-(4-propoxyphenyl)quinazolin-4-amine
     RDKit          2D

 25 27  0  0  0  0  0  0  0  0999 V2000
   -1.3140    0.0079    0.0000 N   0  0  0  0  0  0  0  0  0  0  0  0
   -2.1745    0.4989    0.0000 C   0  0  0  0  0  0  0  0  0  0  0  0
   -1.3140   -0.9978    0.0000 C   0  0  0  0  0  0  0  0  0  0  0  0
   -3.0425    0.0079    0.0000 C   0  0  0  0  0  0  0  0  0  0  0  0
   -2.1745   -1.4928    0.0000 N   0  0  0  0  0  0  0  0  0  0  0  0
   -3.0425   -0.9978    0.0000 C   0  0  0  0  0  0  0  0  0  0  0  0
   -2.1745    1.5046    0.0000 N   0  0  0  0  0  0  0  0  0  0  0  0
   -0.4498   -1.4928    0.0000 C   0  0  0  0  0  0  0  0  0  0  0  0
    0.4106   -0.9978    0.0000 C   0  0  0  0  0  0  0  0  0  0  0  0
   -0.4498   -2.5024    0.0000 C   0  0  0  0  0  0  0  0  0  0  0  0
    1.2785   -2.5024    0.0000 C   0  0  0  0  0  0  0  0  0  0  0  0
    0.4106   -2.9896    0.0000 C   0  0  0  0  0  0  0  0  0  0  0  0
    1.2785   -1.4928    0.0000 C   0  0  0  0  0  0  0  0  0  0  0  0
   -3.9030    0.4989    0.0000 C   0  0  0  0  0  0  0  0  0  0  0  0
    2.1548   -3.0091    0.0000 O   0  0  0  0  0  0  0  0  0  0  0  0
   -3.9030   -1.4928    0.0000 C   0  0  0  0  0  0  0  0  0  0  0  0
   -1.3140    1.9957    0.0000 C   0  0  0  0  0  0  0  0  0  0  0  0
   -3.0425    1.9957    0.0000 C   0  0  0  0  0  0  0  0  0  0  0  0
    3.0269   -2.5024    0.0000 C   0  0  0  0  0  0  0  0  0  0  0  0
    3.9069   -3.0091    0.0000 C   0  0  0  0  0  0  0  0  0  0  0  0
   -4.7712    0.0079    0.0000 C   0  0  0  0  0  0  0  0  0  0  0  0
   -3.0425    3.0091    0.0000 C   0  0  0  0  0  0  0  0  0  0  0  0
   -0.4498    1.5046    0.0000 C   0  0  0  0  0  0  0  0  0  0  0  0
   -4.7712   -0.9978    0.0000 C   0  0  0  0  0  0  0  0  0  0  0  0
    4.7712   -2.5182    0.0000 C   0  0  0  0  0  0  0  0  0  0  0  0
  1  2  2  0
  1  3  1  0
  2  4  1  0
  3  5  2  0
  5  6  1  0
  4  6  1  0
  2  7  1  0
  3  8  1  0
  8  9  1  0
  8 10  2  0
 11 12  2  0
 11 13  1  0
 10 12  1  0
  9 13  2  0
  4 14  2  0
 11 15  1  0
  6 16  2  0
  7 17  1  0
  7 18  1  0
 15 19  1  0
 19 20  1  0
 14 21  1  0
 18 22  1  0
 17 23  1  0
 16 24  1  0
 21 24  2  0
 20 25  1  0
M  END
>  <IDNUMBER>  (95) 
4229-0098

>  <available>  (95) 
5

>  <H_acceptor>  (95) 
3

>  <H_donor>  (95) 
0

>  <B_rotN>  (95) 
7

>  <N_O>  (95) 
4

>  <logP>  (95) 
6.2517

>  <logD>  (95) 
5.8104

>  <logSw>  (95) 
-6.0218

>  <PSA>  (95) 
28.34

>  <pKa_ma>  (95) 
22.6824

>  <pKa_mb>  (95) 
7.6461

>  <N_Chirals>  (95) 
0

>  <Name>  (95) 
N,N-diethyl-2-(4-propoxyphenyl)quinazolin-4-amine

>  <Smile>  (95) 
CCCOc(cc1)ccc1-c1nc2ccccc2c(N(CC)CC)n1

>  <Color>  (95) 
YELLOW

>  <Collection>  (95) 
NC

>  <InChI>  (95) 
InChI=1S/C21H25N3O/c1-4-15-25-17-13-11-16(12-14-17)20-22-19-10-8-7-9-18(19)21(23-20)24(5-2)6-3/h7-14H,4-6,15H2,1-3H3

>  <InChI Key>  (95) 
TYAMZBWDFBINGV-UHFFFAOYSA-N

>  <PERCENTSP3>  (95) 
33.3

>  <Link>  (95) 
https://www.chemdiv.com/catalog/screening-compounds/compound-4229-0098/

>  <MFCDNUMBER>  (95) 
MFCD02988445

>  <CLNUMBER>  (95) 
CL2243

>  <STEREO>  (95) 
ACHIRAL

>  <State>  (95) 
Solid

>  <Similarity score>  (95) 
0.21

$$$$
4-(azepan-1-yl)-2-(3-methylphenyl)quinazoline
     RDKit          2D

 24 27  0  0  0  0  0  0  0  0999 V2000
   -0.0040   -0.3477    0.0000 N   0  0  0  0  0  0  0  0  0  0  0  0
   -0.8478    0.1585    0.0000 C   0  0  0  0  0  0  0  0  0  0  0  0
   -0.0040   -1.3848    0.0000 C   0  0  0  0  0  0  0  0  0  0  0  0
   -1.6997   -0.3477    0.0000 C   0  0  0  0  0  0  0  0  0  0  0  0
   -0.8478   -1.8581    0.0000 N   0  0  0  0  0  0  0  0  0  0  0  0
   -0.8478    1.1339    0.0000 N   0  0  0  0  0  0  0  0  0  0  0  0
   -1.6997   -1.3519    0.0000 C   0  0  0  0  0  0  0  0  0  0  0  0
    0.8849   -1.8952    0.0000 C   0  0  0  0  0  0  0  0  0  0  0  0
    1.7696   -1.3848    0.0000 C   0  0  0  0  0  0  0  0  0  0  0  0
    2.6133   -1.8581    0.0000 C   0  0  0  0  0  0  0  0  0  0  0  0
   -2.5886    0.1585    0.0000 C   0  0  0  0  0  0  0  0  0  0  0  0
   -1.6997    1.6731    0.0000 C   0  0  0  0  0  0  0  0  0  0  0  0
    0.0947    1.5495    0.0000 C   0  0  0  0  0  0  0  0  0  0  0  0
    0.8849   -2.8704    0.0000 C   0  0  0  0  0  0  0  0  0  0  0  0
   -2.5886   -1.8581    0.0000 C   0  0  0  0  0  0  0  0  0  0  0  0
    1.7696   -3.3767    0.0000 C   0  0  0  0  0  0  0  0  0  0  0  0
    2.6133   -2.9034    0.0000 C   0  0  0  0  0  0  0  0  0  0  0  0
    3.4363   -1.3025    0.0000 C   0  0  0  0  0  0  0  0  0  0  0  0
   -3.4363   -0.3477    0.0000 C   0  0  0  0  0  0  0  0  0  0  0  0
   -1.8560    2.6606    0.0000 C   0  0  0  0  0  0  0  0  0  0  0  0
    0.3745    2.5001    0.0000 C   0  0  0  0  0  0  0  0  0  0  0  0
   -3.4363   -1.3848    0.0000 C   0  0  0  0  0  0  0  0  0  0  0  0
   -0.1893    3.3273    0.0000 C   0  0  0  0  0  0  0  0  0  0  0  0
   -1.1400    3.3767    0.0000 C   0  0  0  0  0  0  0  0  0  0  0  0
  1  2  2  0
  1  3  1  0
  2  4  1  0
  3  5  2  0
  2  6  1  0
  5  7  1  0
  4  7  1  0
  3  8  1  0
  8  9  1  0
  9 10  2  0
 10 17  1  0
  4 11  2  0
  6 12  1  0
  6 13  1  0
  8 14  2  0
  7 15  2  0
 14 16  1  0
 16 17  2  0
 10 18  1  0
 11 19  1  0
 12 20  1  0
 13 21  1  0
 15 22  1  0
 19 22  2  0
 21 23  1  0
 20 24  1  0
 23 24  1  0
M  END
>  <IDNUMBER>  (96) 
3909-7945

>  <available>  (96) 
4

>  <H_acceptor>  (96) 
2

>  <H_donor>  (96) 
0

>  <B_rotN>  (96) 
2

>  <N_O>  (96) 
3

>  <logP>  (96) 
6.4974

>  <logD>  (96) 
5.5991

>  <logSw>  (96) 
-6.0824

>  <PSA>  (96) 
21.9695

>  <pKa_ma>  (96) 
22.8034

>  <pKa_mb>  (96) 
8.2395

>  <N_Chirals>  (96) 
0

>  <Name>  (96) 
4-(azepan-1-yl)-2-(3-methylphenyl)quinazoline

>  <Smile>  (96) 
Cc1cccc(-c2nc3ccccc3c(N3CCCCCC3)n2)c1

>  <Color>  (96) 
NOT COLORED

>  <Collection>  (96) 
NC

>  <InChI>  (96) 
InChI=1S/C21H23N3/c1-16-9-8-10-17(15-16)20-22-19-12-5-4-11-18(19)21(23-20)24-13-6-2-3-7-14-24/h4-5,8-12,15H,2-3,6-7,13-14H2,1H3

>  <InChI Key>  (96) 
QJSLAHHBSQSQBF-UHFFFAOYSA-N

>  <PERCENTSP3>  (96) 
33.3

>  <Link>  (96) 
https://www.chemdiv.com/catalog/screening-compounds/compound-3909-7945/

>  <MFCDNUMBER>  (96) 
MFCD08052400

>  <CLNUMBER>  (96) 
CL2243

>  <STEREO>  (96) 
ACHIRAL

>  <State>  (96) 
Solid

>  <Similarity score>  (96) 
0.21

$$$$
3-(1-phenyl-4,7-phenanthrolin-3-yl)phenol
     RDKit          2D

 27 31  0  0  0  0  0  0  0  0999 V2000
   -1.2906    0.4839    0.0000 C   0  0  0  0  0  0  0  0  0  0  0  0
   -1.2906   -0.5091    0.0000 C   0  0  0  0  0  0  0  0  0  0  0  0
    0.4459   -0.5091    0.0000 N   0  0  0  0  0  0  0  0  0  0  0  0
   -0.4303   -1.0070    0.0000 C   0  0  0  0  0  0  0  0  0  0  0  0
    0.4459    0.4839    0.0000 C   0  0  0  0  0  0  0  0  0  0  0  0
   -0.4303    0.9726    0.0000 C   0  0  0  0  0  0  0  0  0  0  0  0
   -2.1601   -1.0070    0.0000 C   0  0  0  0  0  0  0  0  0  0  0  0
    1.3142    0.9726    0.0000 C   0  0  0  0  0  0  0  0  0  0  0  0
   -2.1601   -1.9895    0.0000 C   0  0  0  0  0  0  0  0  0  0  0  0
   -2.1601    0.9726    0.0000 C   0  0  0  0  0  0  0  0  0  0  0  0
   -3.0352   -2.4887    0.0000 N   0  0  0  0  0  0  0  0  0  0  0  0
   -0.4303   -1.9895    0.0000 C   0  0  0  0  0  0  0  0  0  0  0  0
    2.1866    0.4839    0.0000 C   0  0  0  0  0  0  0  0  0  0  0  0
   -1.2906   -2.4887    0.0000 C   0  0  0  0  0  0  0  0  0  0  0  0
    3.0574    0.9726    0.0000 C   0  0  0  0  0  0  0  0  0  0  0  0
    3.9140    0.4667    0.0000 O   0  0  0  0  0  0  0  0  0  0  0  0
    1.3142    1.9829    0.0000 C   0  0  0  0  0  0  0  0  0  0  0  0
   -3.0352   -0.5091    0.0000 C   0  0  0  0  0  0  0  0  0  0  0  0
    2.1866    2.4887    0.0000 C   0  0  0  0  0  0  0  0  0  0  0  0
   -3.9021   -1.9895    0.0000 C   0  0  0  0  0  0  0  0  0  0  0  0
   -3.0352    0.4667    0.0000 C   0  0  0  0  0  0  0  0  0  0  0  0
   -2.1601    1.9829    0.0000 C   0  0  0  0  0  0  0  0  0  0  0  0
    3.0695    1.9829    0.0000 C   0  0  0  0  0  0  0  0  0  0  0  0
   -3.9021   -1.0070    0.0000 C   0  0  0  0  0  0  0  0  0  0  0  0
   -3.9021    0.9606    0.0000 C   0  0  0  0  0  0  0  0  0  0  0  0
   -3.0591    2.4568    0.0000 C   0  0  0  0  0  0  0  0  0  0  0  0
   -3.9140    1.9629    0.0000 C   0  0  0  0  0  0  0  0  0  0  0  0
  1  2  1  0
  3  5  2  0
  3  4  1  0
  2  4  2  0
  5  6  1  0
  1  6  2  0
  2  7  1  0
  5  8  1  0
  7  9  2  0
  1 10  1  0
  9 11  1  0
 11 20  2  0
  4 12  1  0
 12 14  2  0
  8 13  2  0
  9 14  1  0
 13 15  1  0
 15 16  1  0
  8 17  1  0
  7 18  1  0
 17 19  2  0
 20 24  1  0
 10 21  1  0
 10 22  2  0
 19 23  1  0
 15 23  2  0
 18 24  2  0
 21 25  2  0
 25 27  1  0
 22 26  1  0
 26 27  2  0
M  END
>  <IDNUMBER>  (97) 
8011-4043

>  <available>  (97) 
47

>  <H_acceptor>  (97) 
3

>  <H_donor>  (97) 
1

>  <B_rotN>  (97) 
2

>  <N_O>  (97) 
3

>  <logP>  (97) 
6.047

>  <logD>  (97) 
6.0019

>  <logSw>  (97) 
-6.5766

>  <PSA>  (97) 
34.406

>  <pKa_ma>  (97) 
8.5171

>  <pKa_mb>  (97) 
5.8879

>  <N_Chirals>  (97) 
0

>  <Name>  (97) 
3-(1-phenyl-4,7-phenanthrolin-3-yl)phenol

>  <Smile>  (97) 
Oc1cc(-c2nc3ccc4ncccc4c3c(-c3ccccc3)c2)ccc1

>  <Color>  (97) 
NOT COLORED

>  <Collection>  (97) 
DC

>  <InChI>  (97) 
InChI=1S/C24H16N2O/c27-18-9-4-8-17(14-18)23-15-20(16-6-2-1-3-7-16)24-19-10-5-13-25-21(19)11-12-22(24)26-23/h1-15,27H

>  <InChI Key>  (97) 
OAZXIPGHYAIEQW-UHFFFAOYSA-N

>  <PERCENTSP3>  (97) 
0

>  <Link>  (97) 
https://www.chemdiv.com/catalog/screening-compounds/compound-8011-4043/

>  <MFCDNUMBER>  (97) 
MFCD02641288

>  <STEREO>  (97) 
ACHIRAL

>  <State>  (97) 
Solid

>  <Similarity score>  (97) 
0.20

$$$$
N-(4-fluorophenyl)-4-(piperidin-1-yl)[1]benzofuro[3,2-d]pyrimidine-2-carboxamide
     RDKit          2D

 29 33  0  0  0  0  0  0  0  0999 V2000
    0.4210    0.2436    0.0000 C   0  0  0  0  0  0  0  0  0  0  0  0
    1.2711   -0.2439    0.0000 C   0  0  0  0  0  0  0  0  0  0  0  0
   -0.4209   -0.2439    0.0000 C   0  0  0  0  0  0  0  0  0  0  0  0
    1.2711   -1.2188    0.0000 N   0  0  0  0  0  0  0  0  0  0  0  0
   -0.4209   -1.2188    0.0000 N   0  0  0  0  0  0  0  0  0  0  0  0
    0.4210   -1.7149    0.0000 C   0  0  0  0  0  0  0  0  0  0  0  0
    0.4210    1.2231    0.0000 O   0  0  0  0  0  0  0  0  0  0  0  0
   -1.2711    1.2231    0.0000 C   0  0  0  0  0  0  0  0  0  0  0  0
    0.4210   -2.6900    0.0000 C   0  0  0  0  0  0  0  0  0  0  0  0
   -0.4209    1.7106    0.0000 C   0  0  0  0  0  0  0  0  0  0  0  0
    2.1211    0.2436    0.0000 N   0  0  0  0  0  0  0  0  0  0  0  0
   -0.4209   -3.1817    0.0000 N   0  0  0  0  0  0  0  0  0  0  0  0
    1.2711   -3.1817    0.0000 O   0  0  0  0  0  0  0  0  0  0  0  0
   -1.2711   -2.6900    0.0000 C   0  0  0  0  0  0  0  0  0  0  0  0
   -2.9671   -1.7065    0.0000 C   0  0  0  0  0  0  0  0  0  0  0  0
   -3.8088   -1.2188    0.0000 F   0  0  0  0  0  0  0  0  0  0  0  0
   -2.1170    1.7106    0.0000 C   0  0  0  0  0  0  0  0  0  0  0  0
   -2.1170   -3.1817    0.0000 C   0  0  0  0  0  0  0  0  0  0  0  0
   -1.2711   -1.7065    0.0000 C   0  0  0  0  0  0  0  0  0  0  0  0
   -2.9671   -2.6900    0.0000 C   0  0  0  0  0  0  0  0  0  0  0  0
   -2.1170   -1.2188    0.0000 C   0  0  0  0  0  0  0  0  0  0  0  0
    2.1211    1.2231    0.0000 C   0  0  0  0  0  0  0  0  0  0  0  0
    2.9672   -0.2439    0.0000 C   0  0  0  0  0  0  0  0  0  0  0  0
   -0.4209    2.6940    0.0000 C   0  0  0  0  0  0  0  0  0  0  0  0
   -2.1170    2.6940    0.0000 C   0  0  0  0  0  0  0  0  0  0  0  0
    3.8088    0.2436    0.0000 C   0  0  0  0  0  0  0  0  0  0  0  0
    2.9672    1.7106    0.0000 C   0  0  0  0  0  0  0  0  0  0  0  0
   -1.2711    3.1817    0.0000 C   0  0  0  0  0  0  0  0  0  0  0  0
    3.8088    1.2231    0.0000 C   0  0  0  0  0  0  0  0  0  0  0  0
  1  2  1  0
  1  3  2  0
  2  4  2  0
  4  6  1  0
  3  5  1  0
  5  6  2  0
  1  7  1  0
  3  8  1  0
  8 10  1  0
  6  9  1  0
  7 10  1  0
  2 11  1  0
  9 12  1  0
  9 13  2  0
 12 14  1  0
 15 21  2  0
 15 16  1  0
  8 17  2  0
 14 18  1  0
 14 19  2  0
 18 20  2  0
 15 20  1  0
 19 21  1  0
 11 22  1  0
 11 23  1  0
 10 24  2  0
 17 25  1  0
 25 28  2  0
 23 26  1  0
 22 27  1  0
 27 29  1  0
 24 28  1  0
 26 29  1  0
M  END
>  <IDNUMBER>  (98) 
L331-0345

>  <available>  (98) 
63

>  <H_acceptor>  (98) 
5

>  <H_donor>  (98) 
1

>  <B_rotN>  (98) 
4

>  <N_O>  (98) 
6

>  <logP>  (98) 
5.2084

>  <logD>  (98) 
5.2072

>  <logSw>  (98) 
-5.4822

>  <PSA>  (98) 
54.191

>  <pKa_ma>  (98) 
10.9771

>  <pKa_mb>  (98) 
4.8079

>  <N_Chirals>  (98) 
0

>  <Name>  (98) 
N-(4-fluorophenyl)-4-(piperidin-1-yl)[1]benzofuro[3,2-d]pyrimidine-2-carboxamide

>  <Smile>  (98) 
O=C(c1nc(N2CCCCC2)c2oc(cccc3)c3c2n1)Nc(cc1)ccc1F

>  <Color>  (98) 
NOT COLORED

>  <Collection>  (98) 
NC

>  <InChI>  (98) 
InChI=1S/C22H19FN4O2/c23-14-8-10-15(11-9-14)24-22(28)20-25-18-16-6-2-3-7-17(16)29-19(18)21(26-20)27-12-4-1-5-13-27/h2-3,6-11H,1,4-5,12-13H2,(H,24,28)

>  <InChI Key>  (98) 
ZJYZQSNFYXQUNQ-UHFFFAOYSA-N

>  <PERCENTSP3>  (98) 
22.7

>  <Link>  (98) 
https://www.chemdiv.com/catalog/screening-compounds/compound-L331-0345/

>  <MFCDNUMBER>  (98) 
MFCD27246950

>  <CLNUMBER>  (98) 
CL7949

>  <STEREO>  (98) 
ACHIRAL

>  <State>  (98) 
Solid

>  <Similarity score>  (98) 
0.20

$$$$
ethyl 4-(3,5-dimethylpiperidin-1-yl)-8-methoxyquinoline-3-carboxylate
     RDKit          2D

 25 27  0  0  0  0  0  0  0  0999 V2000
   -0.7731   -1.3092    0.0000 N   0  0  0  0  0  0  0  0  0  0  0  0
    0.1012   -0.8081    0.0000 C   0  0  0  0  0  0  0  0  0  0  0  0
    0.1012    0.1115    0.0000 C   0  0  0  0  0  0  0  0  0  0  0  0
    0.9118   -1.2909    0.0000 C   0  0  0  0  0  0  0  0  0  0  0  0
    1.7382    0.1115    0.0000 N   0  0  0  0  0  0  0  0  0  0  0  0
    1.7292   -0.8081    0.0000 C   0  0  0  0  0  0  0  0  0  0  0  0
   -1.4104    1.4479    0.0000 C   0  0  0  0  0  0  0  0  0  0  0  0
    0.9118    0.5827    0.0000 C   0  0  0  0  0  0  0  0  0  0  0  0
   -1.6289   -0.8242    0.0000 C   0  0  0  0  0  0  0  0  0  0  0  0
   -0.7731   -2.3222    0.0000 C   0  0  0  0  0  0  0  0  0  0  0  0
    2.5488   -1.2909    0.0000 C   0  0  0  0  0  0  0  0  0  0  0  0
   -2.2300    0.9882    0.0000 O   0  0  0  0  0  0  0  0  0  0  0  0
   -2.4943   -1.3092    0.0000 C   0  0  0  0  0  0  0  0  0  0  0  0
   -1.6381   -2.8093    0.0000 C   0  0  0  0  0  0  0  0  0  0  0  0
   -2.4985   -2.3222    0.0000 C   0  0  0  0  0  0  0  0  0  0  0  0
    0.9118   -2.2312    0.0000 C   0  0  0  0  0  0  0  0  0  0  0  0
   -1.4104    2.3883    0.0000 O   0  0  0  0  0  0  0  0  0  0  0  0
    3.3524   -0.8081    0.0000 O   0  0  0  0  0  0  0  0  0  0  0  0
    1.7292   -2.7068    0.0000 C   0  0  0  0  0  0  0  0  0  0  0  0
    2.5488   -2.2356    0.0000 C   0  0  0  0  0  0  0  0  0  0  0  0
   -3.3637   -0.8242    0.0000 C   0  0  0  0  0  0  0  0  0  0  0  0
   -1.6426   -3.8111    0.0000 C   0  0  0  0  0  0  0  0  0  0  0  0
   -0.5908    2.8686    0.0000 C   0  0  0  0  0  0  0  0  0  0  0  0
    3.3637    0.1276    0.0000 C   0  0  0  0  0  0  0  0  0  0  0  0
   -0.5818    3.8111    0.0000 C   0  0  0  0  0  0  0  0  0  0  0  0
  1  2  1  0
  2  3  2  0
  2  4  1  0
  5  6  1  0
  4  6  1  0
  3  7  1  0
  3  8  1  0
  5  8  2  0
  1  9  1  0
  1 10  1  0
  6 11  2  0
 11 20  1  0
  7 12  2  0
  9 13  1  0
 10 14  1  0
 14 15  1  0
 13 15  1  0
  4 16  2  0
  7 17  1  0
 11 18  1  0
 16 19  1  0
 19 20  2  0
 13 21  1  0
 14 22  1  0
 17 23  1  0
 18 24  1  0
 23 25  1  0
M  END
>  <IDNUMBER>  (99) 
C053-0511

>  <available>  (99) 
1

>  <H_acceptor>  (99) 
5

>  <H_donor>  (99) 
0

>  <B_rotN>  (99) 
5

>  <N_O>  (99) 
5

>  <logP>  (99) 
4.573

>  <logD>  (99) 
4.5721

>  <logSw>  (99) 
-4.3448

>  <PSA>  (99) 
40.963

>  <pKa_ma>  (99) 
24.8321

>  <pKa_mb>  (99) 
4.6974

>  <N_Chirals>  (99) 
2

>  <Name>  (99) 
ethyl 4-(3,5-dimethylpiperidin-1-yl)-8-methoxyquinoline-3-carboxylate

>  <Smile>  (99) 
CCOC(c(cnc(c1ccc2)c2OC)c1N1CC(C)CC(C)C1)=O

>  <Color>  (99) 
YELLOW

>  <Collection>  (99) 
DC

>  <InChI>  (99) 
InChI=1S/C20H26N2O3/c1-5-25-20(23)16-10-21-18-15(7-6-8-17(18)24-4)19(16)22-11-13(2)9-14(3)12-22/h6-8,10,13-14H,5,9,11-12H2,1-4H3

>  <InChI Key>  (99) 
CEIWOYOCFQOHOE-UHFFFAOYSA-N

>  <PERCENTSP3>  (99) 
50

>  <Link>  (99) 
https://www.chemdiv.com/catalog/screening-compounds/compound-C053-0511/

>  <MFCDNUMBER>  (99) 
MFCD14714100

>  <CLNUMBER>  (99) 
CL1568

>  <STEREO>  (99) 
MIXTURE OF STEREOISOMERS

>  <State>  (99) 
Solid

>  <Similarity score>  (99) 
0.20

$$$$
4-(azepan-1-yl)-N-(4-fluorophenyl)[1]benzofuro[3,2-d]pyrimidine-2-carboxamide
     RDKit          2D

 30 34  0  0  0  0  0  0  0  0999 V2000
    0.2189    0.2437    0.0000 C   0  0  0  0  0  0  0  0  0  0  0  0
    1.0685   -0.2438    0.0000 C   0  0  0  0  0  0  0  0  0  0  0  0
   -0.6311   -0.2438    0.0000 C   0  0  0  0  0  0  0  0  0  0  0  0
    1.0685   -1.2184    0.0000 N   0  0  0  0  0  0  0  0  0  0  0  0
   -0.6311   -1.2184    0.0000 N   0  0  0  0  0  0  0  0  0  0  0  0
    0.2189   -1.7142    0.0000 C   0  0  0  0  0  0  0  0  0  0  0  0
    0.2189    1.2227    0.0000 O   0  0  0  0  0  0  0  0  0  0  0  0
   -1.4810    1.2227    0.0000 C   0  0  0  0  0  0  0  0  0  0  0  0
    0.2189   -2.6933    0.0000 C   0  0  0  0  0  0  0  0  0  0  0  0
   -0.6311    1.7184    0.0000 C   0  0  0  0  0  0  0  0  0  0  0  0
    1.9142    0.2437    0.0000 N   0  0  0  0  0  0  0  0  0  0  0  0
   -0.6311   -3.1807    0.0000 N   0  0  0  0  0  0  0  0  0  0  0  0
    1.0685   -3.1807    0.0000 O   0  0  0  0  0  0  0  0  0  0  0  0
   -1.4810   -2.6933    0.0000 C   0  0  0  0  0  0  0  0  0  0  0  0
   -3.1680   -1.7142    0.0000 C   0  0  0  0  0  0  0  0  0  0  0  0
   -4.0180   -1.2184    0.0000 F   0  0  0  0  0  0  0  0  0  0  0  0
   -2.3225    1.7184    0.0000 C   0  0  0  0  0  0  0  0  0  0  0  0
   -2.3225   -3.1807    0.0000 C   0  0  0  0  0  0  0  0  0  0  0  0
   -1.4727   -1.7142    0.0000 C   0  0  0  0  0  0  0  0  0  0  0  0
   -3.1680   -2.6933    0.0000 C   0  0  0  0  0  0  0  0  0  0  0  0
   -2.3225   -1.2184    0.0000 C   0  0  0  0  0  0  0  0  0  0  0  0
    2.7266   -0.3062    0.0000 C   0  0  0  0  0  0  0  0  0  0  0  0
    1.8434    1.2184    0.0000 C   0  0  0  0  0  0  0  0  0  0  0  0
   -0.6311    2.6933    0.0000 C   0  0  0  0  0  0  0  0  0  0  0  0
   -2.3225    2.6933    0.0000 C   0  0  0  0  0  0  0  0  0  0  0  0
    3.6556   -0.0188    0.0000 C   0  0  0  0  0  0  0  0  0  0  0  0
    2.5558    1.8892    0.0000 C   0  0  0  0  0  0  0  0  0  0  0  0
   -1.4727    3.1807    0.0000 C   0  0  0  0  0  0  0  0  0  0  0  0
    4.0180    0.8935    0.0000 C   0  0  0  0  0  0  0  0  0  0  0  0
    3.5264    1.7434    0.0000 C   0  0  0  0  0  0  0  0  0  0  0  0
  1  2  1  0
  1  3  2  0
  2  4  2  0
  4  6  1  0
  3  5  1  0
  5  6  2  0
  1  7  1  0
  3  8  1  0
  8 10  1  0
  6  9  1  0
  7 10  1  0
  2 11  1  0
  9 12  1  0
  9 13  2  0
 12 14  1  0
 15 21  2  0
 15 16  1  0
  8 17  2  0
 14 18  1  0
 14 19  2  0
 18 20  2  0
 15 20  1  0
 19 21  1  0
 11 22  1  0
 11 23  1  0
 10 24  2  0
 17 25  1  0
 25 28  2  0
 22 26  1  0
 23 27  1  0
 24 28  1  0
 26 29  1  0
 27 30  1  0
 29 30  1  0
M  END
>  <IDNUMBER>  (100) 
L331-0654

>  <available>  (100) 
1

>  <H_acceptor>  (100) 
5

>  <H_donor>  (100) 
1

>  <B_rotN>  (100) 
4

>  <N_O>  (100) 
6

>  <logP>  (100) 
5.7043

>  <logD>  (100) 
5.693

>  <logSw>  (100) 
-6.0192

>  <PSA>  (100) 
54.522

>  <pKa_ma>  (100) 
10.9771

>  <pKa_mb>  (100) 
11.0435

>  <N_Chirals>  (100) 
0

>  <Name>  (100) 
4-(azepan-1-yl)-N-(4-fluorophenyl)[1]benzofuro[3,2-d]pyrimidine-2-carboxamide

>  <Smile>  (100) 
O=C(c1nc(N2CCCCCC2)c2oc(cccc3)c3c2n1)Nc(cc1)ccc1F

>  <Color>  (100) 
NOT COLORED

>  <Collection>  (100) 
NC

>  <InChI>  (100) 
InChI=1S/C23H21FN4O2/c24-15-9-11-16(12-10-15)25-23(29)21-26-19-17-7-3-4-8-18(17)30-20(19)22(27-21)28-13-5-1-2-6-14-28/h3-4,7-12H,1-2,5-6,13-14H2,(H,25,29)

>  <InChI Key>  (100) 
VYMURXXSSOVYST-UHFFFAOYSA-N

>  <PERCENTSP3>  (100) 
26.1

>  <Link>  (100) 
https://www.chemdiv.com/catalog/screening-compounds/compound-L331-0654/

>  <MFCDNUMBER>  (100) 
MFCD27247004

>  <CLNUMBER>  (100) 
CL7949

>  <STEREO>  (100) 
ACHIRAL

>  <State>  (100) 
Solid

>  <Similarity score>  (100) 
0.20

$$$$
4-({1-[(2,6-difluorophenyl)methyl]-3-methylpiperidin-3-yl}methoxy)pyridine
     RDKit          2D

 24 26  0  0  0  0  0  0  0  0999 V2000
    2.2314   -1.7521    0.0000 C   0  0  0  0  0  0  0  0  0  0  0  0
    0.7312   -0.8813    0.0000 N   0  0  0  0  0  0  0  0  0  0  0  0
    1.2314   -1.7521    0.0000 C   0  0  0  0  0  0  0  0  0  0  0  0
   -0.7688   -0.0186    0.0000 C   0  0  0  0  0  0  0  0  0  0  0  0
    2.7313   -0.8813    0.0000 C   0  0  0  0  0  0  0  0  0  0  0  0
    2.7313   -2.6146    0.0000 C   0  0  0  0  0  0  0  0  0  0  0  0
   -0.2688   -0.8813    0.0000 C   0  0  0  0  0  0  0  0  0  0  0  0
   -4.2314    2.9813    0.0000 N   0  0  0  0  0  0  0  0  0  0  0  0
   -1.6355    0.4812    0.0000 C   0  0  0  0  0  0  0  0  0  0  0  0
   -1.6355    1.4813    0.0000 O   0  0  0  0  0  0  0  0  0  0  0  0
   -2.4981    1.9814    0.0000 C   0  0  0  0  0  0  0  0  0  0  0  0
    2.2314   -3.4814    0.0000 F   0  0  0  0  0  0  0  0  0  0  0  0
    2.2314   -0.0186    0.0000 F   0  0  0  0  0  0  0  0  0  0  0  0
    1.2314   -0.0186    0.0000 C   0  0  0  0  0  0  0  0  0  0  0  0
   -3.3689    1.4813    0.0000 C   0  0  0  0  0  0  0  0  0  0  0  0
   -2.4981    2.9813    0.0000 C   0  0  0  0  0  0  0  0  0  0  0  0
   -0.2688    0.8479    0.0000 C   0  0  0  0  0  0  0  0  0  0  0  0
   -3.3689    3.4814    0.0000 C   0  0  0  0  0  0  0  0  0  0  0  0
   -4.2314    1.9814    0.0000 C   0  0  0  0  0  0  0  0  0  0  0  0
    0.7312    0.8479    0.0000 C   0  0  0  0  0  0  0  0  0  0  0  0
   -1.6355   -0.5187    0.0000 C   0  0  0  0  0  0  0  0  0  0  0  0
    4.2314   -1.7521    0.0000 C   0  0  0  0  0  0  0  0  0  0  0  0
    3.7313   -0.8813    0.0000 C   0  0  0  0  0  0  0  0  0  0  0  0
    3.7313   -2.6146    0.0000 C   0  0  0  0  0  0  0  0  0  0  0  0
  2  3  1  0
  1  3  1  0
  4  7  1  0
  1  5  1  0
  1  6  2  0
  2  7  1  0
  8 18  1  0
  8 19  2  0
  4  9  1  0
  9 10  1  0
 10 11  1  0
  6 12  1  0
  5 13  1  0
  2 14  1  0
 11 15  2  0
 11 16  1  0
 17 20  1  0
  4 17  1  0
 16 18  2  0
 15 19  1  0
 14 20  1  0
  4 21  1  0
 22 24  2  0
 22 23  1  0
  5 23  2  0
  6 24  1  0
M  END
>  <IDNUMBER>  (101) 
CM2933-4392

>  <available>  (101) 
1

>  <H_acceptor>  (101) 
3

>  <H_donor>  (101) 
0

>  <B_rotN>  (101) 
5

>  <N_O>  (101) 
3

>  <logP>  (101) 
2.9136

>  <logD>  (101) 
2.3662

>  <logSw>  (101) 
-2.913

>  <PSA>  (101) 
20.5602

>  <pKa_ma>  (101) 
27.1681

>  <pKa_mb>  (101) 
7.8027

>  <N_Chirals>  (101) 
1

>  <Name>  (101) 
4-({1-[(2,6-difluorophenyl)methyl]-3-methylpiperidin-3-yl}methoxy)pyridine

>  <Smile>  (101) 
CC1(COc2ccncc2)CN(Cc(c(F)ccc2)c2F)CCC1

>  <Color>  (101) 
ORANGE

>  <Collection>  (101) 
IC

>  <InChI>  (101) 
InChI=1S/C19H22F2N2O/c1-19(14-24-15-6-9-22-10-7-15)8-3-11-23(13-19)12-16-17(20)4-2-5-18(16)21/h2,4-7,9-10H,3,8,11-14H2,1H3/t19-/m0/s1

>  <InChI Key>  (101) 
WSESRWUBFQCIHJ-IBGZPJMESA-N

>  <PERCENTSP3>  (101) 
42.1

>  <Link>  (101) 
https://www.chemdiv.com/catalog/screening-compounds/compound-CM2933-4392/

>  <MFCDNUMBER>  (101) 
MFCD30467073

>  <CLNUMBER>  (101) 
CM2933

>  <STEREO>  (101) 
RACEMIC MIXTURE

>  <State>  (101) 
Solid

>  <Similarity score>  (101) 
0.24

$$$$
N-butyl-N-ethyl-2-(2-fluorophenyl)quinazolin-4-amine
     RDKit          2D

 24 26  0  0  0  0  0  0  0  0999 V2000
    0.8508   -0.2482    0.0000 N   0  0  0  0  0  0  0  0  0  0  0  0
    1.7165    0.2531    0.0000 C   0  0  0  0  0  0  0  0  0  0  0  0
    0.8508   -1.2456    0.0000 C   0  0  0  0  0  0  0  0  0  0  0  0
    2.5926   -0.2482    0.0000 N   0  0  0  0  0  0  0  0  0  0  0  0
    1.7165   -1.7470    0.0000 C   0  0  0  0  0  0  0  0  0  0  0  0
    1.7267    1.2405    0.0000 C   0  0  0  0  0  0  0  0  0  0  0  0
    2.5827   -1.2456    0.0000 C   0  0  0  0  0  0  0  0  0  0  0  0
   -0.0150   -1.7419    0.0000 N   0  0  0  0  0  0  0  0  0  0  0  0
    2.5926    1.7519    0.0000 C   0  0  0  0  0  0  0  0  0  0  0  0
    3.4737    1.2405    0.0000 F   0  0  0  0  0  0  0  0  0  0  0  0
    1.7165   -2.7345    0.0000 C   0  0  0  0  0  0  0  0  0  0  0  0
    0.8610    1.7419    0.0000 C   0  0  0  0  0  0  0  0  0  0  0  0
    3.4485   -1.7317    0.0000 C   0  0  0  0  0  0  0  0  0  0  0  0
   -0.0150   -2.7345    0.0000 C   0  0  0  0  0  0  0  0  0  0  0  0
   -0.8809   -1.2406    0.0000 C   0  0  0  0  0  0  0  0  0  0  0  0
    2.5979    2.7445    0.0000 C   0  0  0  0  0  0  0  0  0  0  0  0
   -1.7368   -1.7470    0.0000 C   0  0  0  0  0  0  0  0  0  0  0  0
   -2.6025   -1.2456    0.0000 C   0  0  0  0  0  0  0  0  0  0  0  0
    2.5827   -3.2358    0.0000 C   0  0  0  0  0  0  0  0  0  0  0  0
    0.8610    2.7445    0.0000 C   0  0  0  0  0  0  0  0  0  0  0  0
    0.8508   -3.2458    0.0000 C   0  0  0  0  0  0  0  0  0  0  0  0
    3.4485   -2.7345    0.0000 C   0  0  0  0  0  0  0  0  0  0  0  0
   -3.4737   -1.7470    0.0000 C   0  0  0  0  0  0  0  0  0  0  0  0
    1.7267    3.2458    0.0000 C   0  0  0  0  0  0  0  0  0  0  0  0
  1  2  1  0
  1  3  2  0
  2  4  2  0
  3  5  1  0
  2  6  1  0
  5  7  1  0
  4  7  1  0
  3  8  1  0
  6  9  2  0
  9 10  1  0
  5 11  2  0
  6 12  1  0
  7 13  2  0
  8 14  1  0
  8 15  1  0
  9 16  1  0
 16 24  2  0
 15 17  1  0
 17 18  1  0
 11 19  1  0
 12 20  2  0
 14 21  1  0
 19 22  2  0
 13 22  1  0
 18 23  1  0
 20 24  1  0
M  END
>  <IDNUMBER>  (102) 
K841-0196

>  <available>  (102) 
15

>  <H_acceptor>  (102) 
2

>  <H_donor>  (102) 
0

>  <B_rotN>  (102) 
6

>  <N_O>  (102) 
3

>  <logP>  (102) 
5.4403

>  <logD>  (102) 
5.1709

>  <logSw>  (102) 
-5.7522

>  <PSA>  (102) 
21.1759

>  <pKa_ma>  (102) 
22.6496

>  <pKa_mb>  (102) 
7.3342

>  <N_Chirals>  (102) 
0

>  <Name>  (102) 
N-butyl-N-ethyl-2-(2-fluorophenyl)quinazolin-4-amine

>  <Smile>  (102) 
CCCCN(CC)c1nc(-c(cccc2)c2F)nc2ccccc12

>  <Color>  (102) 
YELLOW

>  <Collection>  (102) 
NC

>  <InChI>  (102) 
InChI=1S/C20H22FN3/c1-3-5-14-24(4-2)20-16-11-7-9-13-18(16)22-19(23-20)15-10-6-8-12-17(15)21/h6-13H,3-5,14H2,1-2H3

>  <InChI Key>  (102) 
GUFJSCQFOOTDAE-UHFFFAOYSA-N

>  <PERCENTSP3>  (102) 
30

>  <Link>  (102) 
https://www.chemdiv.com/catalog/screening-compounds/compound-K841-0196/

>  <MFCDNUMBER>  (102) 
MFCD15110565

>  <CLNUMBER>  (102) 
CL2243

>  <STEREO>  (102) 
ACHIRAL

>  <State>  (102) 
Solid

>  <Similarity score>  (102) 
0.23

$$$$
2-(2-fluorophenyl)-4-(3-methylpiperidin-1-yl)quinazoline
     RDKit          2D

 24 27  0  0  0  0  0  0  0  0999 V2000
    0.0935    0.0961    0.0000 N   0  0  0  0  0  0  0  0  0  0  0  0
   -0.1792   -0.8585    0.0000 C   0  0  0  0  0  0  0  0  0  0  0  0
    1.0631    0.3534    0.0000 C   0  0  0  0  0  0  0  0  0  0  0  0
   -1.1389   -1.0960    0.0000 N   0  0  0  0  0  0  0  0  0  0  0  0
    1.7601   -0.3585    0.0000 N   0  0  0  0  0  0  0  0  0  0  0  0
    0.5328   -1.5504    0.0000 C   0  0  0  0  0  0  0  0  0  0  0  0
    1.3358    1.3080    0.0000 C   0  0  0  0  0  0  0  0  0  0  0  0
    1.4973   -1.3080    0.0000 C   0  0  0  0  0  0  0  0  0  0  0  0
   -1.6188   -1.9746    0.0000 C   0  0  0  0  0  0  0  0  0  0  0  0
    2.3055    1.5504    0.0000 C   0  0  0  0  0  0  0  0  0  0  0  0
   -1.6792   -0.2677    0.0000 C   0  0  0  0  0  0  0  0  0  0  0  0
    3.1389    0.8333    0.0000 F   0  0  0  0  0  0  0  0  0  0  0  0
    0.2700   -2.5203    0.0000 C   0  0  0  0  0  0  0  0  0  0  0  0
    0.6389    2.0203    0.0000 C   0  0  0  0  0  0  0  0  0  0  0  0
   -2.6034   -2.0203    0.0000 C   0  0  0  0  0  0  0  0  0  0  0  0
    2.1993   -2.0050    0.0000 C   0  0  0  0  0  0  0  0  0  0  0  0
   -2.6792   -0.2978    0.0000 C   0  0  0  0  0  0  0  0  0  0  0  0
    2.5731    2.5203    0.0000 C   0  0  0  0  0  0  0  0  0  0  0  0
   -3.1389   -1.1718    0.0000 C   0  0  0  0  0  0  0  0  0  0  0  0
   -3.0579   -2.8988    0.0000 C   0  0  0  0  0  0  0  0  0  0  0  0
    0.9720   -3.2323    0.0000 C   0  0  0  0  0  0  0  0  0  0  0  0
    0.8963    2.9746    0.0000 C   0  0  0  0  0  0  0  0  0  0  0  0
    1.9420   -2.9746    0.0000 C   0  0  0  0  0  0  0  0  0  0  0  0
    1.8662    3.2323    0.0000 C   0  0  0  0  0  0  0  0  0  0  0  0
  1  2  2  0
  1  3  1  0
  2  4  1  0
  3  5  2  0
  2  6  1  0
  6  8  1  0
  3  7  1  0
  5  8  1  0
  4  9  1  0
  7 10  2  0
  4 11  1  0
 10 12  1  0
  6 13  2  0
  7 14  1  0
  9 15  1  0
  8 16  2  0
 11 17  1  0
 10 18  1  0
 18 24  2  0
 17 19  1  0
 15 19  1  0
 15 20  1  0
 13 21  1  0
 21 23  2  0
 14 22  2  0
 16 23  1  0
 22 24  1  0
M  END
>  <IDNUMBER>  (103) 
K669-0188

>  <available>  (103) 
1

>  <H_acceptor>  (103) 
2

>  <H_donor>  (103) 
0

>  <B_rotN>  (103) 
2

>  <N_O>  (103) 
3

>  <logP>  (103) 
4.8539

>  <logD>  (103) 
4.5845

>  <logSw>  (103) 
-4.7947

>  <PSA>  (103) 
21.5719

>  <pKa_ma>  (103) 
22.2789

>  <pKa_mb>  (103) 
7.3342

>  <N_Chirals>  (103) 
1

>  <Name>  (103) 
2-(2-fluorophenyl)-4-(3-methylpiperidin-1-yl)quinazoline

>  <Smile>  (103) 
CC(CCC1)CN1c1nc(-c(cccc2)c2F)nc2ccccc12

>  <Color>  (103) 
YELLOW

>  <Collection>  (103) 
NC

>  <InChI>  (103) 
InChI=1S/C20H20FN3/c1-14-7-6-12-24(13-14)20-16-9-3-5-11-18(16)22-19(23-20)15-8-2-4-10-17(15)21/h2-5,8-11,14H,6-7,12-13H2,1H3/t14-/m0/s1

>  <InChI Key>  (103) 
KTDUKSHBYNRJOX-AWEZNQCLSA-N

>  <PERCENTSP3>  (103) 
30

>  <Link>  (103) 
https://www.chemdiv.com/catalog/screening-compounds/compound-K669-0188/

>  <MFCDNUMBER>  (103) 
MFCD03683352

>  <CLNUMBER>  (103) 
CL2243

>  <STEREO>  (103) 
RACEMIC MIXTURE

>  <State>  (103) 
Solid

>  <Similarity score>  (103) 
0.23

$$$$
4-({1-[(2,4-difluorophenyl)methyl]-3-methylpiperidin-3-yl}methoxy)pyridine
     RDKit          2D

 24 26  0  0  0  0  0  0  0  0999 V2000
    0.2314   -1.3211    0.0000 N   0  0  0  0  0  0  0  0  0  0  0  0
    1.7315   -2.1838    0.0000 C   0  0  0  0  0  0  0  0  0  0  0  0
    2.2316   -1.3211    0.0000 C   0  0  0  0  0  0  0  0  0  0  0  0
    0.7314   -2.1838    0.0000 C   0  0  0  0  0  0  0  0  0  0  0  0
   -1.2689   -0.4541    0.0000 C   0  0  0  0  0  0  0  0  0  0  0  0
    3.2317   -1.3211    0.0000 C   0  0  0  0  0  0  0  0  0  0  0  0
   -0.7689   -1.3211    0.0000 C   0  0  0  0  0  0  0  0  0  0  0  0
   -4.7320    2.5464    0.0000 N   0  0  0  0  0  0  0  0  0  0  0  0
    2.2316   -3.0464    0.0000 C   0  0  0  0  0  0  0  0  0  0  0  0
    3.7319   -2.1838    0.0000 C   0  0  0  0  0  0  0  0  0  0  0  0
   -2.1358    0.0458    0.0000 C   0  0  0  0  0  0  0  0  0  0  0  0
   -2.1358    1.0461    0.0000 O   0  0  0  0  0  0  0  0  0  0  0  0
    1.7315   -0.4541    0.0000 F   0  0  0  0  0  0  0  0  0  0  0  0
   -2.9985    1.5460    0.0000 C   0  0  0  0  0  0  0  0  0  0  0  0
    3.2317   -3.0464    0.0000 C   0  0  0  0  0  0  0  0  0  0  0  0
    4.7320   -2.1838    0.0000 F   0  0  0  0  0  0  0  0  0  0  0  0
    0.7314   -0.4541    0.0000 C   0  0  0  0  0  0  0  0  0  0  0  0
   -2.9985    2.5464    0.0000 C   0  0  0  0  0  0  0  0  0  0  0  0
   -3.8693    1.0461    0.0000 C   0  0  0  0  0  0  0  0  0  0  0  0
   -0.7689    0.4169    0.0000 C   0  0  0  0  0  0  0  0  0  0  0  0
   -4.7320    1.5460    0.0000 C   0  0  0  0  0  0  0  0  0  0  0  0
   -3.8693    3.0464    0.0000 C   0  0  0  0  0  0  0  0  0  0  0  0
    0.2314    0.4169    0.0000 C   0  0  0  0  0  0  0  0  0  0  0  0
   -2.1358   -0.9544    0.0000 C   0  0  0  0  0  0  0  0  0  0  0  0
  2  4  1  0
  2  3  2  0
  1  4  1  0
  5  7  1  0
  3  6  1  0
  6 10  2  0
  1  7  1  0
  8 21  2  0
  8 22  1  0
  2  9  1  0
 10 15  1  0
  5 11  1  0
 11 12  1  0
  3 13  1  0
 12 14  1  0
  9 15  2  0
 10 16  1  0
  1 17  1  0
 14 18  1  0
 14 19  2  0
 20 23  1  0
  5 20  1  0
 19 21  1  0
 18 22  2  0
 17 23  1  0
  5 24  1  0
M  END
>  <IDNUMBER>  (104) 
CM2933-4435

>  <available>  (104) 
1

>  <H_acceptor>  (104) 
3

>  <H_donor>  (104) 
0

>  <B_rotN>  (104) 
5

>  <N_O>  (104) 
3

>  <logP>  (104) 
3.1032

>  <logD>  (104) 
2.5558

>  <logSw>  (104) 
-2.8407

>  <PSA>  (104) 
20.5602

>  <pKa_ma>  (104) 
27.1681

>  <pKa_mb>  (104) 
7.8027

>  <N_Chirals>  (104) 
1

>  <Name>  (104) 
4-({1-[(2,4-difluorophenyl)methyl]-3-methylpiperidin-3-yl}methoxy)pyridine

>  <Smile>  (104) 
CC1(COc2ccncc2)CN(Cc(ccc(F)c2)c2F)CCC1

>  <Color>  (104) 
YELLOW

>  <Collection>  (104) 
IC

>  <InChI>  (104) 
InChI=1S/C19H22F2N2O/c1-19(14-24-17-5-8-22-9-6-17)7-2-10-23(13-19)12-15-3-4-16(20)11-18(15)21/h3-6,8-9,11H,2,7,10,12-14H2,1H3/t19-/m0/s1

>  <InChI Key>  (104) 
JAQLUZHPNIKWFT-IBGZPJMESA-N

>  <PERCENTSP3>  (104) 
42.1

>  <Link>  (104) 
https://www.chemdiv.com/catalog/screening-compounds/compound-CM2933-4435/

>  <MFCDNUMBER>  (104) 
MFCD30467078

>  <CLNUMBER>  (104) 
CM2933

>  <STEREO>  (104) 
RACEMIC MIXTURE

>  <State>  (104) 
Liquid

>  <Similarity score>  (104) 
0.23

$$$$
1-(furan-2-yl)-3-methoxy-13,14-dihydronaphtho[1,2-i][1,9]phenanthroline-2-carbon
     RDKit          2D

 31 36  0  0  0  0  0  0  0  0999 V2000
    0.4706    0.2293    0.0000 C   0  0  0  0  0  0  0  0  0  0  0  0
    0.4706   -0.7684    0.0000 C   0  0  0  0  0  0  0  0  0  0  0  0
    1.3079    0.7471    0.0000 N   0  0  0  0  0  0  0  0  0  0  0  0
   -0.3975    0.7330    0.0000 C   0  0  0  0  0  0  0  0  0  0  0  0
    0.4566    2.2189    0.0000 C   0  0  0  0  0  0  0  0  0  0  0  0
   -0.3806   -1.2509    0.0000 C   0  0  0  0  0  0  0  0  0  0  0  0
   -0.3975    1.7195    0.0000 C   0  0  0  0  0  0  0  0  0  0  0  0
    1.2938    1.7336    0.0000 C   0  0  0  0  0  0  0  0  0  0  0  0
   -0.3806   -2.2232    0.0000 C   0  0  0  0  0  0  0  0  0  0  0  0
   -1.2502    2.2050    0.0000 C   0  0  0  0  0  0  0  0  0  0  0  0
    1.3220   -2.2232    0.0000 N   0  0  0  0  0  0  0  0  0  0  0  0
    1.3220   -1.2509    0.0000 C   0  0  0  0  0  0  0  0  0  0  0  0
    0.4566    3.1912    0.0000 C   0  0  0  0  0  0  0  0  0  0  0  0
   -1.2502    0.2293    0.0000 C   0  0  0  0  0  0  0  0  0  0  0  0
   -1.2502   -0.7684    0.0000 C   0  0  0  0  0  0  0  0  0  0  0  0
   -1.2332   -2.7073    0.0000 C   0  0  0  0  0  0  0  0  0  0  0  0
    0.4566    4.1650    0.0000 N   0  0  0  0  0  0  0  0  0  0  0  0
    0.4706   -2.7073    0.0000 C   0  0  0  0  0  0  0  0  0  0  0  0
   -2.0889    1.7195    0.0000 O   0  0  0  0  0  0  0  0  0  0  0  0
   -1.2332    3.1618    0.0000 C   0  0  0  0  0  0  0  0  0  0  0  0
   -2.9430    2.2050    0.0000 C   0  0  0  0  0  0  0  0  0  0  0  0
   -2.9556    3.1744    0.0000 C   0  0  0  0  0  0  0  0  0  0  0  0
   -1.2332   -3.6797    0.0000 C   0  0  0  0  0  0  0  0  0  0  0  0
    0.4706   -3.6797    0.0000 C   0  0  0  0  0  0  0  0  0  0  0  0
   -0.3806   -4.1650    0.0000 C   0  0  0  0  0  0  0  0  0  0  0  0
    2.1184    2.2330    0.0000 O   0  0  0  0  0  0  0  0  0  0  0  0
   -2.0889   -2.2232    0.0000 C   0  0  0  0  0  0  0  0  0  0  0  0
   -2.0889   -4.1650    0.0000 C   0  0  0  0  0  0  0  0  0  0  0  0
    2.9556    1.7631    0.0000 C   0  0  0  0  0  0  0  0  0  0  0  0
   -2.9430   -2.7073    0.0000 C   0  0  0  0  0  0  0  0  0  0  0  0
   -2.9430   -3.6797    0.0000 C   0  0  0  0  0  0  0  0  0  0  0  0
  1  2  1  0
  1  3  2  0
  1  4  1  0
  5  7  1  0
  5  8  2  0
  2  6  2  0
  4  7  2  0
  3  8  1  0
  6  9  1  0
  7 10  1  0
 11 12  2  0
  2 12  1  0
  5 13  1  0
  4 14  1  0
 14 15  1  0
  6 15  1  0
  9 16  1  0
 13 17  3  0
 11 18  1  0
  9 18  2  0
 10 19  1  0
 10 20  2  0
 19 21  1  0
 21 22  2  0
 20 22  1  0
 16 23  2  0
 23 25  1  0
 18 24  1  0
 24 25  2  0
  8 26  1  0
 16 27  1  0
 23 28  1  0
 26 29  1  0
 27 30  2  0
 30 31  1  0
 28 31  2  0
M  END
>  <IDNUMBER>  (105) 
8014-2314

>  <available>  (105) 
25

>  <H_acceptor>  (105) 
5

>  <H_donor>  (105) 
0

>  <B_rotN>  (105) 
3

>  <N_O>  (105) 
5

>  <logP>  (105) 
5.8241

>  <logD>  (105) 
5.8239

>  <logSw>  (105) 
-6.8337

>  <PSA>  (105) 
51.61

>  <pKa_ma>  (105) 
20.0087

>  <pKa_mb>  (105) 
3.9944

>  <N_Chirals>  (105) 
0

>  <Name>  (105) 
1-(furan-2-yl)-3-methoxy-13,14-dihydronaphtho[1,2-i][1,9]phenanthroline-2-carbonitrile

>  <Smile>  (105) 
COc1nc(-c2c(CC3)c4c(cccc5)c5ccc4nc2)c3c(-c2ccco2)c1C#N

>  <Color>  (105) 
YELLOW

>  <Collection>  (105) 
DC

>  <InChI>  (105) 
InChI=1S/C26H17N3O2/c1-30-26-19(13-27)24(22-7-4-12-31-22)18-10-9-17-20(25(18)29-26)14-28-21-11-8-15-5-2-3-6-16(15)23(17)21/h2-8,11-12,14H,9-10H2,1H3

>  <InChI Key>  (105) 
MQQTZAXBKOITDA-UHFFFAOYSA-N

>  <PERCENTSP3>  (105) 
11.5

>  <Link>  (105) 
https://www.chemdiv.com/catalog/screening-compounds/compound-8014-2314/

>  <MFCDNUMBER>  (105) 
MFCD03768261

>  <STEREO>  (105) 
ACHIRAL

>  <State>  (105) 
Solid

>  <Similarity score>  (105) 
0.22

$$$$
N-butyl-N-ethyl-9-(methylsulfanyl)-4-phenyl-2,3-dihydro-1H-cyclopenta[4',5']pyri
     RDKit          2D

 31 35  0  0  0  0  0  0  0  0999 V2000
    1.4149    0.3854    0.0000 C   0  0  0  0  0  0  0  0  0  0  0  0
   -0.0979    0.9606    0.0000 C   0  0  0  0  0  0  0  0  0  0  0  0
   -0.0979   -0.0395    0.0000 C   0  0  0  0  0  0  0  0  0  0  0  0
    0.8690    1.2148    0.0000 C   0  0  0  0  0  0  0  0  0  0  0  0
    0.8523   -0.3397    0.0000 S   0  0  0  0  0  0  0  0  0  0  0  0
    2.4108    0.4438    0.0000 C   0  0  0  0  0  0  0  0  0  0  0  0
    2.8651    1.3233    0.0000 N   0  0  0  0  0  0  0  0  0  0  0  0
   -0.9606   -0.5355    0.0000 N   0  0  0  0  0  0  0  0  0  0  0  0
   -0.9606    1.4649    0.0000 C   0  0  0  0  0  0  0  0  0  0  0  0
   -1.8233   -0.0395    0.0000 C   0  0  0  0  0  0  0  0  0  0  0  0
    2.3317    2.1691    0.0000 C   0  0  0  0  0  0  0  0  0  0  0  0
    1.3233    2.1067    0.0000 N   0  0  0  0  0  0  0  0  0  0  0  0
   -1.8233    0.9606    0.0000 C   0  0  0  0  0  0  0  0  0  0  0  0
    2.9651   -0.3939    0.0000 N   0  0  0  0  0  0  0  0  0  0  0  0
   -2.6984   -0.5480    0.0000 C   0  0  0  0  0  0  0  0  0  0  0  0
    2.7818    3.0610    0.0000 S   0  0  0  0  0  0  0  0  0  0  0  0
   -1.1731    2.4401    0.0000 C   0  0  0  0  0  0  0  0  0  0  0  0
   -2.5776    1.6400    0.0000 C   0  0  0  0  0  0  0  0  0  0  0  0
   -2.1526    2.5484    0.0000 C   0  0  0  0  0  0  0  0  0  0  0  0
    3.9820   -0.3397    0.0000 C   0  0  0  0  0  0  0  0  0  0  0  0
    2.5108   -1.3023    0.0000 C   0  0  0  0  0  0  0  0  0  0  0  0
   -2.6984   -1.5441    0.0000 C   0  0  0  0  0  0  0  0  0  0  0  0
   -3.5611   -0.0395    0.0000 C   0  0  0  0  0  0  0  0  0  0  0  0
    2.2400    3.8945    0.0000 C   0  0  0  0  0  0  0  0  0  0  0  0
    3.0609   -2.1524    0.0000 C   0  0  0  0  0  0  0  0  0  0  0  0
    2.6067   -3.0444    0.0000 C   0  0  0  0  0  0  0  0  0  0  0  0
    4.4363    0.5648    0.0000 C   0  0  0  0  0  0  0  0  0  0  0  0
    3.1651   -3.8945    0.0000 C   0  0  0  0  0  0  0  0  0  0  0  0
   -3.5611   -2.0442    0.0000 C   0  0  0  0  0  0  0  0  0  0  0  0
   -4.4363   -0.5355    0.0000 C   0  0  0  0  0  0  0  0  0  0  0  0
   -4.4363   -1.5441    0.0000 C   0  0  0  0  0  0  0  0  0  0  0  0
  2  4  1  0
  3  5  1  0
  2  3  2  0
  1  4  2  0
  1  5  1  0
  1  6  1  0
  6  7  2  0
  3  8  1  0
  2  9  1  0
  8 10  2  0
 10 13  1  0
  7 11  1  0
 11 12  2  0
  4 12  1  0
  9 13  2  0
  6 14  1  0
 10 15  1  0
 11 16  1  0
  9 17  1  0
 13 18  1  0
 18 19  1  0
 17 19  1  0
 14 20  1  0
 14 21  1  0
 15 22  1  0
 15 23  2  0
 16 24  1  0
 21 25  1  0
 25 26  1  0
 20 27  1  0
 26 28  1  0
 22 29  2  0
 23 30  1  0
 30 31  2  0
 29 31  1  0
M  END
>  <IDNUMBER>  (106) 
IB05-6144

>  <available>  (106) 
50

>  <H_acceptor>  (106) 
4

>  <H_donor>  (106) 
0

>  <B_rotN>  (106) 
7

>  <N_O>  (106) 
4

>  <logP>  (106) 
7.69

>  <logD>  (106) 
7.69

>  <logSw>  (106) 
-7.29

>  <PSA>  (106) 
63.06

>  <pKa_ma>  (106) 
14

>  <pKa_mb>  (106) 
2.82

>  <N_Chirals>  (106) 
0

>  <Name>  (106) 
N-butyl-N-ethyl-9-(methylsulfanyl)-4-phenyl-2,3-dihydro-1H-cyclopenta[4',5']pyrido[3',2':4,5]thieno[3,2-d]pyrimidin-7-amine

>  <Smile>  (106) 
CCCCN(CC)c1c2sc3nc(-c4ccccc4)c(CCC4)c4c3c2nc(SC)n1

>  <Color>  (106) 
NOT COLORED

>  <Collection>  (106) 
DC

>  <InChI>  (106) 
InChI=1S/C25H28N4S2/c1-4-6-15-29(5-2)23-22-21(27-25(28-23)30-3)19-17-13-10-14-18(17)20(26-24(19)31-22)16-11-8-7-9-12-16/h7-9,11-12H,4-6,10,13-15H2,1-3H3

>  <InChI Key>  (106) 
JEBKFTFONSZVJG-UHFFFAOYSA-N

>  <PERCENTSP3>  (106) 
40

>  <Link>  (106) 
https://www.chemdiv.com/catalog/screening-compounds/compound-IB05-6144/

>  <STEREO>  (106) 
ACHIRAL

>  <State>  (106) 
Solid

>  <Similarity score>  (106) 
0.22

$$$$
4-(2,3-dihydro-1H-benzo[f]cyclopenta[c]quinolin-4-yl)benzene-1,3-diol
     RDKit          2D

 25 29  0  0  0  0  0  0  0  0999 V2000
    0.4730    0.4679    0.0000 C   0  0  0  0  0  0  0  0  0  0  0  0
    0.4730   -0.5598    0.0000 N   0  0  0  0  0  0  0  0  0  0  0  0
   -1.2856    0.4430    0.0000 C   0  0  0  0  0  0  0  0  0  0  0  0
    1.3246    1.0170    0.0000 C   0  0  0  0  0  0  0  0  0  0  0  0
   -0.4046    0.9533    0.0000 C   0  0  0  0  0  0  0  0  0  0  0  0
   -1.2467   -0.5598    0.0000 C   0  0  0  0  0  0  0  0  0  0  0  0
   -0.3798   -1.0700    0.0000 C   0  0  0  0  0  0  0  0  0  0  0  0
    2.2317    0.5387    0.0000 C   0  0  0  0  0  0  0  0  0  0  0  0
   -2.1254   -1.0700    0.0000 C   0  0  0  0  0  0  0  0  0  0  0  0
    1.2856    2.0115    0.0000 C   0  0  0  0  0  0  0  0  0  0  0  0
    3.0468    1.0737    0.0000 C   0  0  0  0  0  0  0  0  0  0  0  0
   -0.3798   -2.0752    0.0000 C   0  0  0  0  0  0  0  0  0  0  0  0
   -2.0972   -2.1048    0.0000 C   0  0  0  0  0  0  0  0  0  0  0  0
   -1.2467   -2.5607    0.0000 C   0  0  0  0  0  0  0  0  0  0  0  0
    3.0208    2.0752    0.0000 C   0  0  0  0  0  0  0  0  0  0  0  0
    2.3085   -0.4464    0.0000 O   0  0  0  0  0  0  0  0  0  0  0  0
    2.1385    2.5607    0.0000 C   0  0  0  0  0  0  0  0  0  0  0  0
   -2.0049    1.1446    0.0000 C   0  0  0  0  0  0  0  0  0  0  0  0
   -0.6137    1.9230    0.0000 C   0  0  0  0  0  0  0  0  0  0  0  0
    3.8606    2.5855    0.0000 O   0  0  0  0  0  0  0  0  0  0  0  0
   -1.5868    2.0115    0.0000 C   0  0  0  0  0  0  0  0  0  0  0  0
   -3.0077   -0.5918    0.0000 C   0  0  0  0  0  0  0  0  0  0  0  0
   -2.9758   -2.5855    0.0000 C   0  0  0  0  0  0  0  0  0  0  0  0
   -3.8606   -1.1020    0.0000 C   0  0  0  0  0  0  0  0  0  0  0  0
   -3.8606   -2.0752    0.0000 C   0  0  0  0  0  0  0  0  0  0  0  0
  1  2  2  0
  3  5  2  0
  1  4  1  0
  1  5  1  0
  3  6  1  0
  2  7  1  0
  6  7  2  0
  4  8  1  0
  6  9  1  0
  4 10  2  0
  8 11  2  0
 11 15  1  0
  7 12  1  0
  9 13  2  0
 12 14  2  0
 13 14  1  0
 15 17  2  0
  8 16  1  0
 10 17  1  0
  3 18  1  0
  5 19  1  0
 15 20  1  0
 19 21  1  0
 18 21  1  0
  9 22  1  0
 13 23  1  0
 22 24  2  0
 24 25  1  0
 23 25  2  0
M  END
>  <IDNUMBER>  (107) 
8006-2755

>  <available>  (107) 
3

>  <H_acceptor>  (107) 
3

>  <H_donor>  (107) 
2

>  <B_rotN>  (107) 
1

>  <N_O>  (107) 
3

>  <logP>  (107) 
5.5787

>  <logD>  (107) 
5.5692

>  <logSw>  (107) 
-6.9082

>  <PSA>  (107) 
43.248

>  <pKa_ma>  (107) 
9.0688

>  <pKa_mb>  (107) 
4.2266

>  <N_Chirals>  (107) 
0

>  <Name>  (107) 
4-(2,3-dihydro-1H-benzo[f]cyclopenta[c]quinolin-4-yl)benzene-1,3-diol

>  <Smile>  (107) 
Oc(cc1)cc(O)c1-c1nc2ccc(cccc3)c3c2c2c1CCC2

>  <Color>  (107) 
BROWN

>  <Collection>  (107) 
DC

>  <InChI>  (107) 
InChI=1S/C22H17NO2/c24-14-9-10-18(20(25)12-14)22-17-7-3-6-16(17)21-15-5-2-1-4-13(15)8-11-19(21)23-22/h1-2,4-5,8-12,24-25H,3,6-7H2

>  <InChI Key>  (107) 
NBKDZHMKLVUYCC-UHFFFAOYSA-N

>  <PERCENTSP3>  (107) 
13.64

>  <Link>  (107) 
https://www.chemdiv.com/catalog/screening-compounds/compound-8006-2755/

>  <MFCDNUMBER>  (107) 
MFCD00373604

>  <STEREO>  (107) 
ACHIRAL

>  <State>  (107) 
Solid

>  <Similarity score>  (107) 
0.22

$$$$
2-(2,3-dihydro-1H-benzo[f]cyclopenta[c]quinolin-4-yl)-4-nitrophenol
     RDKit          2D

 27 31  0  0  0  0  0  0  0  0999 V2000
    0.8781   -0.2288    0.0000 C   0  0  0  0  0  0  0  0  0  0  0  0
    0.8781   -1.2497    0.0000 N   0  0  0  0  0  0  0  0  0  0  0  0
    1.7504    0.2679    0.0000 C   0  0  0  0  0  0  0  0  0  0  0  0
    2.6148    2.7438    0.0000 N   0  0  0  0  0  0  0  0  0  0  0  0
   -0.8898   -0.2288    0.0000 C   0  0  0  0  0  0  0  0  0  0  0  0
   -0.0137    0.2679    0.0000 C   0  0  0  0  0  0  0  0  0  0  0  0
   -0.8898   -1.2497    0.0000 C   0  0  0  0  0  0  0  0  0  0  0  0
   -0.0137   -1.7502    0.0000 C   0  0  0  0  0  0  0  0  0  0  0  0
    1.7504    1.2614    0.0000 C   0  0  0  0  0  0  0  0  0  0  0  0
    2.6148    1.7544    0.0000 C   0  0  0  0  0  0  0  0  0  0  0  0
   -1.7503   -1.7502    0.0000 C   0  0  0  0  0  0  0  0  0  0  0  0
    2.6148   -0.2288    0.0000 C   0  0  0  0  0  0  0  0  0  0  0  0
    3.4869    3.2326    0.0000 O   0  0  0  0  0  0  0  0  0  0  0  0
    1.7504    3.2132    0.0000 O   0  0  0  0  0  0  0  0  0  0  0  0
   -0.0137   -2.7477    0.0000 C   0  0  0  0  0  0  0  0  0  0  0  0
    3.4869    1.2614    0.0000 C   0  0  0  0  0  0  0  0  0  0  0  0
   -1.7503   -2.7477    0.0000 C   0  0  0  0  0  0  0  0  0  0  0  0
    3.4869    0.2992    0.0000 C   0  0  0  0  0  0  0  0  0  0  0  0
   -0.8898   -3.2326    0.0000 C   0  0  0  0  0  0  0  0  0  0  0  0
   -1.6292    0.4557    0.0000 C   0  0  0  0  0  0  0  0  0  0  0  0
   -0.2328    1.2614    0.0000 C   0  0  0  0  0  0  0  0  0  0  0  0
    2.6148   -1.2262    0.0000 O   0  0  0  0  0  0  0  0  0  0  0  0
   -1.1989    1.3475    0.0000 C   0  0  0  0  0  0  0  0  0  0  0  0
   -2.6264   -1.2497    0.0000 C   0  0  0  0  0  0  0  0  0  0  0  0
   -2.6264   -3.2326    0.0000 C   0  0  0  0  0  0  0  0  0  0  0  0
   -3.4869   -1.7502    0.0000 C   0  0  0  0  0  0  0  0  0  0  0  0
   -3.4869   -2.7477    0.0000 C   0  0  0  0  0  0  0  0  0  0  0  0
  1  2  2  0
  1  3  1  0
  4 10  1  0
  5  6  2  0
  1  6  1  0
  5  7  1  0
  2  8  1  0
  7  8  2  0
  3  9  1  0
  9 10  2  0
  7 11  1  0
  3 12  2  0
  4 13  1  0
  4 14  2  0
  8 15  1  0
 16 18  2  0
 10 16  1  0
 11 17  2  0
 12 18  1  0
 15 19  2  0
 17 19  1  0
  5 20  1  0
 20 23  1  0
  6 21  1  0
 12 22  1  0
 21 23  1  0
 11 24  1  0
 17 25  1  0
 25 27  2  0
 24 26  2  0
 26 27  1  0
M  CHG  2   4   1  13  -1
M  END
>  <IDNUMBER>  (108) 
2268-1391

>  <available>  (108) 
1

>  <H_acceptor>  (108) 
6

>  <H_donor>  (108) 
1

>  <B_rotN>  (108) 
2

>  <N_O>  (108) 
5

>  <logP>  (108) 
6.1957

>  <logD>  (108) 
5.4682

>  <logSw>  (108) 
-6.9126

>  <PSA>  (108) 
59.013

>  <pKa_ma>  (108) 
6.7625

>  <pKa_mb>  (108) 
3.3679

>  <N_Chirals>  (108) 
0

>  <Name>  (108) 
2-(2,3-dihydro-1H-benzo[f]cyclopenta[c]quinolin-4-yl)-4-nitrophenol

>  <Smile>  (108) 
[O-][N+](c(cc1)cc(-c2nc3ccc(cccc4)c4c3c3c2CCC3)c1O)=O

>  <Color>  (108) 
YELLOW

>  <Collection>  (108) 
DC

>  <InChI>  (108) 
InChI=1S/C22H16N2O3/c25-20-11-9-14(24(26)27)12-18(20)22-17-7-3-6-16(17)21-15-5-2-1-4-13(15)8-10-19(21)23-22/h1-2,4-5,8-12,25H,3,6-7H2

>  <InChI Key>  (108) 
AEYYPDZVPRHNLC-UHFFFAOYSA-N

>  <PERCENTSP3>  (108) 
13.6

>  <Link>  (108) 
https://www.chemdiv.com/catalog/screening-compounds/compound-2268-1391/

>  <MFCDNUMBER>  (108) 
MFCD01815799

>  <STEREO>  (108) 
ACHIRAL

>  <State>  (108) 
Solid

>  <Similarity score>  (108) 
0.22

$$$$
3-(2,3-dihydro-1H-benzo[f]cyclopenta[c]quinolin-4-yl)phenol
     RDKit          2D

 24 28  0  0  0  0  0  0  0  0999 V2000
    0.4264   -0.5176    0.0000 N   0  0  0  0  0  0  0  0  0  0  0  0
    0.4264    0.4982    0.0000 C   0  0  0  0  0  0  0  0  0  0  0  0
   -1.2950    0.4982    0.0000 C   0  0  0  0  0  0  0  0  0  0  0  0
   -1.2950   -0.5176    0.0000 C   0  0  0  0  0  0  0  0  0  0  0  0
   -0.4304    1.0099    0.0000 C   0  0  0  0  0  0  0  0  0  0  0  0
   -0.4304   -1.0021    0.0000 C   0  0  0  0  0  0  0  0  0  0  0  0
    1.2911    1.0099    0.0000 C   0  0  0  0  0  0  0  0  0  0  0  0
   -2.1633   -1.0021    0.0000 C   0  0  0  0  0  0  0  0  0  0  0  0
   -0.4304   -2.0258    0.0000 C   0  0  0  0  0  0  0  0  0  0  0  0
    2.1750    0.4982    0.0000 C   0  0  0  0  0  0  0  0  0  0  0  0
   -2.1633   -2.0258    0.0000 C   0  0  0  0  0  0  0  0  0  0  0  0
   -1.2950   -2.5064    0.0000 C   0  0  0  0  0  0  0  0  0  0  0  0
    3.0317    1.0099    0.0000 C   0  0  0  0  0  0  0  0  0  0  0  0
   -2.0354    1.1844    0.0000 C   0  0  0  0  0  0  0  0  0  0  0  0
   -0.6553    2.0063    0.0000 C   0  0  0  0  0  0  0  0  0  0  0  0
    3.8847    0.5292    0.0000 O   0  0  0  0  0  0  0  0  0  0  0  0
    1.2911    2.0063    0.0000 C   0  0  0  0  0  0  0  0  0  0  0  0
   -1.6323    2.0799    0.0000 C   0  0  0  0  0  0  0  0  0  0  0  0
   -3.0164   -0.5176    0.0000 C   0  0  0  0  0  0  0  0  0  0  0  0
    2.1750    2.5064    0.0000 C   0  0  0  0  0  0  0  0  0  0  0  0
    3.0317    2.0063    0.0000 C   0  0  0  0  0  0  0  0  0  0  0  0
   -3.0164   -2.5064    0.0000 C   0  0  0  0  0  0  0  0  0  0  0  0
   -3.8847   -1.0021    0.0000 C   0  0  0  0  0  0  0  0  0  0  0  0
   -3.8847   -2.0258    0.0000 C   0  0  0  0  0  0  0  0  0  0  0  0
  1  2  2  0
  3  4  1  0
  4  6  2  0
  2  5  1  0
  3  5  2  0
  1  6  1  0
  2  7  1  0
  4  8  1  0
  6  9  1  0
  7 10  2  0
 11 12  1  0
  8 11  2  0
  9 12  2  0
 10 13  1  0
  3 14  1  0
 14 18  1  0
  5 15  1  0
 13 16  1  0
  7 17  1  0
 15 18  1  0
  8 19  1  0
 17 20  2  0
 20 21  1  0
 13 21  2  0
 11 22  1  0
 19 23  2  0
 22 24  2  0
 23 24  1  0
M  END
>  <IDNUMBER>  (109) 
1661-1363

>  <available>  (109) 
7

>  <H_acceptor>  (109) 
2

>  <H_donor>  (109) 
1

>  <B_rotN>  (109) 
1

>  <N_O>  (109) 
2

>  <logP>  (109) 
5.6888

>  <logD>  (109) 
5.6628

>  <logSw>  (109) 
-6.9719

>  <PSA>  (109) 
26.7001

>  <pKa_ma>  (109) 
8.7181

>  <pKa_mb>  (109) 
5.5099

>  <N_Chirals>  (109) 
0

>  <Name>  (109) 
3-(2,3-dihydro-1H-benzo[f]cyclopenta[c]quinolin-4-yl)phenol

>  <Smile>  (109) 
Oc1cc(-c2nc3ccc(cccc4)c4c3c3c2CCC3)ccc1

>  <Color>  (109) 
NOT COLORED

>  <Collection>  (109) 
DC

>  <InChI>  (109) 
InChI=1S/C22H17NO/c24-16-7-3-6-15(13-16)22-19-10-4-9-18(19)21-17-8-2-1-5-14(17)11-12-20(21)23-22/h1-3,5-8,11-13,24H,4,9-10H2

>  <InChI Key>  (109) 
XVUVVFWKJOVPBV-UHFFFAOYSA-N

>  <PERCENTSP3>  (109) 
13.6

>  <Link>  (109) 
https://www.chemdiv.com/catalog/screening-compounds/compound-1661-1363/

>  <MFCDNUMBER>  (109) 
MFCD01030344

>  <STEREO>  (109) 
ACHIRAL

>  <State>  (109) 
Solid

>  <Similarity score>  (109) 
0.22

$$$$
3-(4-chlorophenyl)-4-{3-[(2-fluorophenyl)methyl]-1,3-diazinan-1-yl}[1,2]oxazolo[
     RDKit          2D

 30 34  0  0  0  0  0  0  0  0999 V2000
   -0.7241   -2.4997    0.0000 C   0  0  0  0  0  0  0  0  0  0  0  0
    0.1416   -2.0005    0.0000 C   0  0  0  0  0  0  0  0  0  0  0  0
    0.1416   -1.0016    0.0000 N   0  0  0  0  0  0  0  0  0  0  0  0
   -2.2556   -3.0104    0.0000 N   0  0  0  0  0  0  0  0  0  0  0  0
   -1.6730   -2.1945    0.0000 C   0  0  0  0  0  0  0  0  0  0  0  0
   -0.7241   -3.4987    0.0000 C   0  0  0  0  0  0  0  0  0  0  0  0
   -1.6730   -3.7983    0.0000 O   0  0  0  0  0  0  0  0  0  0  0  0
    1.0072   -0.5022    0.0000 C   0  0  0  0  0  0  0  0  0  0  0  0
    1.0072    0.4966    0.0000 N   0  0  0  0  0  0  0  0  0  0  0  0
    1.0072   -2.4997    0.0000 N   0  0  0  0  0  0  0  0  0  0  0  0
    0.1416   -3.9980    0.0000 N   0  0  0  0  0  0  0  0  0  0  0  0
    1.8729    2.0005    0.0000 C   0  0  0  0  0  0  0  0  0  0  0  0
    1.8729    1.0016    0.0000 C   0  0  0  0  0  0  0  0  0  0  0  0
   -2.1281   -1.3122    0.0000 C   0  0  0  0  0  0  0  0  0  0  0  0
    1.0072   -3.4987    0.0000 C   0  0  0  0  0  0  0  0  0  0  0  0
    2.7383    2.4997    0.0000 C   0  0  0  0  0  0  0  0  0  0  0  0
   -0.7241   -0.5022    0.0000 C   0  0  0  0  0  0  0  0  0  0  0  0
   -3.1379   -1.2680    0.0000 C   0  0  0  0  0  0  0  0  0  0  0  0
   -1.5900   -0.4690    0.0000 C   0  0  0  0  0  0  0  0  0  0  0  0
   -0.7241    0.4966    0.0000 C   0  0  0  0  0  0  0  0  0  0  0  0
   -3.0546    0.4800    0.0000 C   0  0  0  0  0  0  0  0  0  0  0  0
    3.6039    1.9893    0.0000 F   0  0  0  0  0  0  0  0  0  0  0  0
    0.1416    0.9960    0.0000 C   0  0  0  0  0  0  0  0  0  0  0  0
   -3.6039   -0.3857    0.0000 C   0  0  0  0  0  0  0  0  0  0  0  0
   -2.0558    0.4189    0.0000 C   0  0  0  0  0  0  0  0  0  0  0  0
   -3.5041    1.3789    0.0000 Cl  0  0  0  0  0  0  0  0  0  0  0  0
    1.0072    2.4997    0.0000 C   0  0  0  0  0  0  0  0  0  0  0  0
    2.7383    3.4987    0.0000 C   0  0  0  0  0  0  0  0  0  0  0  0
    1.0072    3.4987    0.0000 C   0  0  0  0  0  0  0  0  0  0  0  0
    1.8729    3.9980    0.0000 C   0  0  0  0  0  0  0  0  0  0  0  0
  1  2  1  0
  2  3  1  0
  4  5  2  0
  1  5  1  0
  1  6  2  0
  6  7  1  0
  4  7  1  0
  3  8  1  0
  8  9  1  0
  9 23  1  0
  2 10  2  0
 10 15  1  0
  6 11  1  0
 12 13  1  0
  9 13  1  0
  5 14  1  0
 11 15  2  0
 12 16  2  0
  3 17  1  0
 14 18  1  0
 14 19  2  0
 17 20  1  0
 21 25  2  0
 16 22  1  0
 20 23  1  0
 18 24  2  0
 21 24  1  0
 19 25  1  0
 21 26  1  0
 12 27  1  0
 16 28  1  0
 28 30  2  0
 27 29  2  0
 29 30  1  0
M  END
>  <IDNUMBER>  (110) 
E939-0286

>  <available>  (110) 
26

>  <H_acceptor>  (110) 
5

>  <H_donor>  (110) 
0

>  <B_rotN>  (110) 
4

>  <N_O>  (110) 
6

>  <logP>  (110) 
5.1001

>  <logD>  (110) 
5.1

>  <logSw>  (110) 
-5.7668

>  <PSA>  (110) 
49.815

>  <pKa_ma>  (110) 
21.573

>  <pKa_mb>  (110) 
3.7444

>  <N_Chirals>  (110) 
0

>  <Name>  (110) 
3-(4-chlorophenyl)-4-{3-[(2-fluorophenyl)methyl]-1,3-diazinan-1-yl}[1,2]oxazolo[5,4-d]pyrimidine

>  <Smile>  (110) 
Fc1c(CN(CCC2)CN2c2c(c(-c(cc3)ccc3Cl)no3)c3ncn2)cccc1

>  <Color>  (110) 
NOT COLORED

>  <Collection>  (110) 
DC

>  <InChI>  (110) 
InChI=1S/C22H19ClFN5O/c23-17-8-6-15(7-9-17)20-19-21(25-13-26-22(19)30-27-20)29-11-3-10-28(14-29)12-16-4-1-2-5-18(16)24/h1-2,4-9,13H,3,10-12,14H2

>  <InChI Key>  (110) 
BCXGEOFHIFFFFC-UHFFFAOYSA-N

>  <PERCENTSP3>  (110) 
22.7

>  <Link>  (110) 
https://www.chemdiv.com/catalog/screening-compounds/compound-E939-0286/

>  <MFCDNUMBER>  (110) 
MFCD14928776

>  <CLNUMBER>  (110) 
CL5509

>  <STEREO>  (110) 
ACHIRAL

>  <State>  (110) 
Solid

>  <Similarity score>  (110) 
0.22

$$$$
1-(2-chloro-9H-purin-6-yl)-N-[2-(6-methoxy-1H-indol-3-yl)ethyl]piperidine-3-carb
     RDKit          2D

 32 36  0  0  0  0  0  0  0  0999 V2000
   -3.6371    1.0143    0.0000 C   0  0  0  0  0  0  0  0  0  0  0  0
   -4.5160    1.5101    0.0000 C   0  0  0  0  0  0  0  0  0  0  0  0
   -2.7746    1.5184    0.0000 N   0  0  0  0  0  0  0  0  0  0  0  0
   -4.5160    2.5099    0.0000 C   0  0  0  0  0  0  0  0  0  0  0  0
   -3.6537    3.0098    0.0000 N   0  0  0  0  0  0  0  0  0  0  0  0
   -3.6371    0.0145    0.0000 N   0  0  0  0  0  0  0  0  0  0  0  0
   -2.7746    2.5143    0.0000 C   0  0  0  0  0  0  0  0  0  0  0  0
   -5.4534    2.8101    0.0000 N   0  0  0  0  0  0  0  0  0  0  0  0
    2.7871   -3.0393    0.0000 N   0  0  0  0  0  0  0  0  0  0  0  0
    3.1913   -2.1436    0.0000 C   0  0  0  0  0  0  0  0  0  0  0  0
   -2.7622   -1.4812    0.0000 C   0  0  0  0  0  0  0  0  0  0  0  0
    2.4415   -1.4646    0.0000 C   0  0  0  0  0  0  0  0  0  0  0  0
   -5.4534    1.1975    0.0000 N   0  0  0  0  0  0  0  0  0  0  0  0
   -2.7622   -0.4773    0.0000 C   0  0  0  0  0  0  0  0  0  0  0  0
   -1.8831   -1.9812    0.0000 C   0  0  0  0  0  0  0  0  0  0  0  0
    1.7872   -2.9474    0.0000 C   0  0  0  0  0  0  0  0  0  0  0  0
   -6.0367    2.0100    0.0000 C   0  0  0  0  0  0  0  0  0  0  0  0
    1.5790   -1.9646    0.0000 C   0  0  0  0  0  0  0  0  0  0  0  0
    4.1287   -1.8310    0.0000 C   0  0  0  0  0  0  0  0  0  0  0  0
    2.6371   -0.4978    0.0000 C   0  0  0  0  0  0  0  0  0  0  0  0
   -1.8872   -2.9891    0.0000 O   0  0  0  0  0  0  0  0  0  0  0  0
   -1.0291   -1.4812    0.0000 N   0  0  0  0  0  0  0  0  0  0  0  0
   -1.9123    3.0393    0.0000 Cl  0  0  0  0  0  0  0  0  0  0  0  0
    4.3453   -0.8563    0.0000 C   0  0  0  0  0  0  0  0  0  0  0  0
   -4.4994   -0.4856    0.0000 C   0  0  0  0  0  0  0  0  0  0  0  0
    3.5869   -0.1815    0.0000 C   0  0  0  0  0  0  0  0  0  0  0  0
   -3.6245   -1.9812    0.0000 C   0  0  0  0  0  0  0  0  0  0  0  0
   -0.1500   -1.9812    0.0000 C   0  0  0  0  0  0  0  0  0  0  0  0
    0.6999   -1.4769    0.0000 C   0  0  0  0  0  0  0  0  0  0  0  0
    5.3117   -0.5605    0.0000 O   0  0  0  0  0  0  0  0  0  0  0  0
   -4.4869   -1.4935    0.0000 C   0  0  0  0  0  0  0  0  0  0  0  0
    6.0367   -1.2564    0.0000 C   0  0  0  0  0  0  0  0  0  0  0  0
  1  2  2  0
  1  3  1  0
  2  4  1  0
  5  7  1  0
  4  5  2  0
  1  6  1  0
  3  7  2  0
  4  8  1  0
  9 16  1  0
  9 10  1  0
 10 12  1  0
 11 14  1  0
 12 18  1  0
  2 13  1  0
  6 14  1  0
 11 15  1  0
 16 18  2  0
 13 17  1  0
  8 17  2  0
 18 29  1  0
 10 19  2  0
 19 24  1  0
 12 20  2  0
 15 21  2  0
 15 22  1  0
  7 23  1  0
 24 26  2  0
  6 25  1  0
 20 26  1  0
 27 31  1  0
 11 27  1  0
 22 28  1  0
 28 29  1  0
 24 30  1  0
 25 31  1  0
 30 32  1  0
M  END
>  <IDNUMBER>  (111) 
IB03-5578

>  <available>  (111) 
50

>  <H_acceptor>  (111) 
6

>  <H_donor>  (111) 
3

>  <B_rotN>  (111) 
7

>  <N_O>  (111) 
9

>  <logP>  (111) 
2.91

>  <logD>  (111) 
2.85

>  <logSw>  (111) 
-3.71

>  <PSA>  (111) 
129.71

>  <pKa_ma>  (111) 
8.29

>  <pKa_mb>  (111) 
4.6

>  <N_Chirals>  (111) 
1

>  <Name>  (111) 
1-(2-chloro-9H-purin-6-yl)-N-[2-(6-methoxy-1H-indol-3-yl)ethyl]piperidine-3-carboxamide

>  <Smile>  (111) 
COc(cc1)cc2c1c(CCNC(C(CCC1)CN1c1c3[nH]cnc3nc(Cl)n1)=O)c[nH]2

>  <Color>  (111) 
NOT COLORED

>  <Collection>  (111) 
DC

>  <InChI>  (111) 
InChI=1S/C22H24ClN7O2/c1-32-15-4-5-16-13(10-25-17(16)9-15)6-7-24-21(31)14-3-2-8-30(11-14)20-18-19(27-12-26-18)28-22(23)29-20/h4-5,9-10,12,14,25H,2-3,6-8,11H2,1H3,(H,24,31)(H,26,27,28,29)/t14-/m0/s1

>  <InChI Key>  (111) 
LUJYONXRXAPVOH-AWEZNQCLSA-N

>  <PERCENTSP3>  (111) 
36.4

>  <Link>  (111) 
https://www.chemdiv.com/catalog/screening-compounds/compound-IB03-5578/

>  <STEREO>  (111) 
RACEMIC MIXTURE

>  <State>  (111) 
Solid

>  <Similarity score>  (111) 
0.22

$$$$
2-(4-methoxyphenyl)-4-(3-methylpiperidin-1-yl)quinazoline
     RDKit          2D

 25 28  0  0  0  0  0  0  0  0999 V2000
   -0.8603    0.7452    0.0000 C   0  0  0  0  0  0  0  0  0  0  0  0
    0.0099    0.2553    0.0000 N   0  0  0  0  0  0  0  0  0  0  0  0
    0.0099   -0.7552    0.0000 C   0  0  0  0  0  0  0  0  0  0  0  0
   -0.8603    1.7555    0.0000 N   0  0  0  0  0  0  0  0  0  0  0  0
   -1.7205    0.2553    0.0000 C   0  0  0  0  0  0  0  0  0  0  0  0
   -0.8603   -1.2452    0.0000 N   0  0  0  0  0  0  0  0  0  0  0  0
   -1.7205   -0.7552    0.0000 C   0  0  0  0  0  0  0  0  0  0  0  0
    0.8603   -1.2452    0.0000 C   0  0  0  0  0  0  0  0  0  0  0  0
   -1.7305    2.2655    0.0000 C   0  0  0  0  0  0  0  0  0  0  0  0
    0.8603   -2.2555    0.0000 C   0  0  0  0  0  0  0  0  0  0  0  0
    1.7305   -0.7552    0.0000 C   0  0  0  0  0  0  0  0  0  0  0  0
   -0.0099    2.2655    0.0000 C   0  0  0  0  0  0  0  0  0  0  0  0
    2.5905   -2.2555    0.0000 C   0  0  0  0  0  0  0  0  0  0  0  0
    1.7202   -2.7455    0.0000 C   0  0  0  0  0  0  0  0  0  0  0  0
    2.6005   -1.2452    0.0000 C   0  0  0  0  0  0  0  0  0  0  0  0
   -2.5905    0.7452    0.0000 C   0  0  0  0  0  0  0  0  0  0  0  0
   -1.7305    3.2558    0.0000 C   0  0  0  0  0  0  0  0  0  0  0  0
    3.4608   -2.7655    0.0000 O   0  0  0  0  0  0  0  0  0  0  0  0
   -2.5905   -1.2452    0.0000 C   0  0  0  0  0  0  0  0  0  0  0  0
   -0.0099    3.2558    0.0000 C   0  0  0  0  0  0  0  0  0  0  0  0
   -0.8803    3.7658    0.0000 C   0  0  0  0  0  0  0  0  0  0  0  0
    3.4408   -3.7658    0.0000 C   0  0  0  0  0  0  0  0  0  0  0  0
   -2.6005    3.7658    0.0000 C   0  0  0  0  0  0  0  0  0  0  0  0
   -3.4608    0.2553    0.0000 C   0  0  0  0  0  0  0  0  0  0  0  0
   -3.4608   -0.7552    0.0000 C   0  0  0  0  0  0  0  0  0  0  0  0
  1  2  2  0
  2  3  1  0
  1  4  1  0
  1  5  1  0
  6  7  1  0
  3  6  2  0
  5  7  1  0
  3  8  1  0
  4  9  1  0
  8 10  2  0
  8 11  1  0
  4 12  1  0
 13 15  1  0
 13 14  2  0
 10 14  1  0
 11 15  2  0
  5 16  2  0
  9 17  1  0
 17 21  1  0
 13 18  1  0
  7 19  2  0
 12 20  1  0
 20 21  1  0
 18 22  1  0
 17 23  1  0
 16 24  1  0
 24 25  2  0
 19 25  1  0
M  END
>  <IDNUMBER>  (112) 
G516-0043

>  <available>  (112) 
26

>  <H_acceptor>  (112) 
3

>  <H_donor>  (112) 
0

>  <B_rotN>  (112) 
3

>  <N_O>  (112) 
4

>  <logP>  (112) 
5.7048

>  <logD>  (112) 
5.2636

>  <logSw>  (112) 
-5.873

>  <PSA>  (112) 
29.1157

>  <pKa_ma>  (112) 
22.2789

>  <pKa_mb>  (112) 
7.6461

>  <N_Chirals>  (112) 
1

>  <Name>  (112) 
2-(4-methoxyphenyl)-4-(3-methylpiperidin-1-yl)quinazoline

>  <Smile>  (112) 
CC(CCC1)CN1c1nc(-c(cc2)ccc2OC)nc2ccccc12

>  <Color>  (112) 
NOT COLORED

>  <Collection>  (112) 
NC

>  <InChI>  (112) 
InChI=1S/C21H23N3O/c1-15-6-5-13-24(14-15)21-18-7-3-4-8-19(18)22-20(23-21)16-9-11-17(25-2)12-10-16/h3-4,7-12,15H,5-6,13-14H2,1-2H3/t15-/m0/s1

>  <InChI Key>  (112) 
WQJICBFJIWOZSB-HNNXBMFYSA-N

>  <PERCENTSP3>  (112) 
33.3

>  <Link>  (112) 
https://www.chemdiv.com/catalog/screening-compounds/compound-G516-0043/

>  <MFCDNUMBER>  (112) 
MFCD15014999

>  <CLNUMBER>  (112) 
CL2243

>  <STEREO>  (112) 
RACEMIC MIXTURE

>  <State>  (112) 
Solid

>  <Similarity score>  (112) 
0.22

$$$$
N-butyl-N-ethyl-2-(4-methoxyphenyl)quinazolin-4-amine
     RDKit          2D

 25 27  0  0  0  0  0  0  0  0999 V2000
    0.0101   -0.2355    0.0000 N   0  0  0  0  0  0  0  0  0  0  0  0
   -0.8614    0.2553    0.0000 C   0  0  0  0  0  0  0  0  0  0  0  0
    0.0101   -1.2468    0.0000 C   0  0  0  0  0  0  0  0  0  0  0  0
   -1.7225   -0.2355    0.0000 C   0  0  0  0  0  0  0  0  0  0  0  0
   -0.8614   -1.7378    0.0000 N   0  0  0  0  0  0  0  0  0  0  0  0
   -1.7225   -1.2468    0.0000 C   0  0  0  0  0  0  0  0  0  0  0  0
   -0.8614    1.2669    0.0000 N   0  0  0  0  0  0  0  0  0  0  0  0
    0.8614   -1.7378    0.0000 C   0  0  0  0  0  0  0  0  0  0  0  0
    1.7326   -1.2468    0.0000 C   0  0  0  0  0  0  0  0  0  0  0  0
    0.8614   -2.7493    0.0000 C   0  0  0  0  0  0  0  0  0  0  0  0
    2.5940   -2.7493    0.0000 C   0  0  0  0  0  0  0  0  0  0  0  0
    1.7225   -3.2402    0.0000 C   0  0  0  0  0  0  0  0  0  0  0  0
    2.6041   -1.7378    0.0000 C   0  0  0  0  0  0  0  0  0  0  0  0
   -2.5940    0.2553    0.0000 C   0  0  0  0  0  0  0  0  0  0  0  0
    3.4652   -3.2600    0.0000 O   0  0  0  0  0  0  0  0  0  0  0  0
   -2.5940   -1.7378    0.0000 C   0  0  0  0  0  0  0  0  0  0  0  0
   -1.7326    1.7775    0.0000 C   0  0  0  0  0  0  0  0  0  0  0  0
   -0.0101    1.7775    0.0000 C   0  0  0  0  0  0  0  0  0  0  0  0
    3.4454   -4.2616    0.0000 C   0  0  0  0  0  0  0  0  0  0  0  0
   -0.0101    2.7693    0.0000 C   0  0  0  0  0  0  0  0  0  0  0  0
    0.8315    3.2798    0.0000 C   0  0  0  0  0  0  0  0  0  0  0  0
   -3.4652   -0.2355    0.0000 C   0  0  0  0  0  0  0  0  0  0  0  0
   -2.5940    1.2669    0.0000 C   0  0  0  0  0  0  0  0  0  0  0  0
   -3.4652   -1.2468    0.0000 C   0  0  0  0  0  0  0  0  0  0  0  0
    0.8315    4.2616    0.0000 C   0  0  0  0  0  0  0  0  0  0  0  0
  1  2  2  0
  1  3  1  0
  2  4  1  0
  3  5  2  0
  5  6  1  0
  4  6  1  0
  2  7  1  0
  3  8  1  0
  8  9  1  0
  8 10  2  0
 11 12  2  0
 10 12  1  0
  9 13  2  0
 11 13  1  0
  4 14  2  0
 11 15  1  0
  6 16  2  0
  7 17  1  0
  7 18  1  0
 15 19  1  0
 18 20  1  0
 20 21  1  0
 14 22  1  0
 17 23  1  0
 16 24  1  0
 22 24  2  0
 21 25  1  0
M  END
>  <IDNUMBER>  (113) 
G516-0066

>  <available>  (113) 
91

>  <H_acceptor>  (113) 
3

>  <H_donor>  (113) 
0

>  <B_rotN>  (113) 
7

>  <N_O>  (113) 
4

>  <logP>  (113) 
6.2912

>  <logD>  (113) 
5.85

>  <logSw>  (113) 
-5.8986

>  <PSA>  (113) 
28.7197

>  <pKa_ma>  (113) 
22.6496

>  <pKa_mb>  (113) 
7.6461

>  <N_Chirals>  (113) 
0

>  <Name>  (113) 
N-butyl-N-ethyl-2-(4-methoxyphenyl)quinazolin-4-amine

>  <Smile>  (113) 
CCCCN(CC)c1nc(-c(cc2)ccc2OC)nc2ccccc12

>  <Color>  (113) 
ORANGE

>  <Collection>  (113) 
NC

>  <InChI>  (113) 
InChI=1S/C21H25N3O/c1-4-6-15-24(5-2)21-18-9-7-8-10-19(18)22-20(23-21)16-11-13-17(25-3)14-12-16/h7-14H,4-6,15H2,1-3H3

>  <InChI Key>  (113) 
JBTVHQCJLQUMQD-UHFFFAOYSA-N

>  <PERCENTSP3>  (113) 
33.3

>  <Link>  (113) 
https://www.chemdiv.com/catalog/screening-compounds/compound-G516-0066/

>  <MFCDNUMBER>  (113) 
MFCD15015011

>  <CLNUMBER>  (113) 
CL2243

>  <STEREO>  (113) 
ACHIRAL

>  <State>  (113) 
Liquid

>  <Similarity score>  (113) 
0.22

$$$$
4-bromo-2-(2,3-dihydro-1H-benzo[f]cyclopenta[c]quinolin-4-yl)phenol
     RDKit          2D

 25 29  0  0  0  0  0  0  0  0999 V2000
    0.8799   -0.0118    0.0000 C   0  0  0  0  0  0  0  0  0  0  0  0
    0.8799   -1.0393    0.0000 N   0  0  0  0  0  0  0  0  0  0  0  0
   -0.8787   -0.0366    0.0000 C   0  0  0  0  0  0  0  0  0  0  0  0
    1.7314    0.5375    0.0000 C   0  0  0  0  0  0  0  0  0  0  0  0
    0.0023    0.4737    0.0000 C   0  0  0  0  0  0  0  0  0  0  0  0
   -0.8397   -1.0393    0.0000 C   0  0  0  0  0  0  0  0  0  0  0  0
    0.0271   -1.5496    0.0000 C   0  0  0  0  0  0  0  0  0  0  0  0
   -1.7185   -1.5496    0.0000 C   0  0  0  0  0  0  0  0  0  0  0  0
    2.6385    0.0591    0.0000 C   0  0  0  0  0  0  0  0  0  0  0  0
    1.6926    1.5319    0.0000 C   0  0  0  0  0  0  0  0  0  0  0  0
    0.0271   -2.5547    0.0000 C   0  0  0  0  0  0  0  0  0  0  0  0
   -1.6901   -2.5842    0.0000 C   0  0  0  0  0  0  0  0  0  0  0  0
   -0.8397   -3.0401    0.0000 C   0  0  0  0  0  0  0  0  0  0  0  0
    3.4535    0.5941    0.0000 C   0  0  0  0  0  0  0  0  0  0  0  0
    2.5454    2.0810    0.0000 C   0  0  0  0  0  0  0  0  0  0  0  0
   -1.5979    0.6650    0.0000 C   0  0  0  0  0  0  0  0  0  0  0  0
   -0.2067    1.4433    0.0000 C   0  0  0  0  0  0  0  0  0  0  0  0
    3.4275    1.5956    0.0000 C   0  0  0  0  0  0  0  0  0  0  0  0
    2.7153   -0.9259    0.0000 O   0  0  0  0  0  0  0  0  0  0  0  0
    2.5251    3.0649    0.0000 Br  0  0  0  0  0  0  0  0  0  0  0  0
   -1.1798    1.5319    0.0000 C   0  0  0  0  0  0  0  0  0  0  0  0
   -2.6007   -1.0712    0.0000 C   0  0  0  0  0  0  0  0  0  0  0  0
   -2.5688   -3.0649    0.0000 C   0  0  0  0  0  0  0  0  0  0  0  0
   -3.4535   -1.5814    0.0000 C   0  0  0  0  0  0  0  0  0  0  0  0
   -3.4535   -2.5547    0.0000 C   0  0  0  0  0  0  0  0  0  0  0  0
  1  2  2  0
  3  5  2  0
  1  4  1  0
  1  5  1  0
  3  6  1  0
  2  7  1  0
  6  7  2  0
  6  8  1  0
  4  9  1  0
  4 10  2  0
  7 11  1  0
  8 12  2  0
 11 13  2  0
 12 13  1  0
  9 14  2  0
 14 18  1  0
 10 15  1  0
  3 16  1  0
  5 17  1  0
 15 18  2  0
  9 19  1  0
 15 20  1  0
 17 21  1  0
 16 21  1  0
  8 22  1  0
 12 23  1  0
 22 24  2  0
 24 25  1  0
 23 25  2  0
M  END
>  <IDNUMBER>  (114) 
8002-4828

>  <available>  (114) 
34

>  <H_acceptor>  (114) 
2

>  <H_donor>  (114) 
1

>  <B_rotN>  (114) 
1

>  <N_O>  (114) 
2

>  <logP>  (114) 
7.1535

>  <logD>  (114) 
7.1488

>  <logSw>  (114) 
-7.1947

>  <PSA>  (114) 
25.6312

>  <pKa_ma>  (114) 
9.4175

>  <pKa_mb>  (114) 
4.4339

>  <N_Chirals>  (114) 
0

>  <Name>  (114) 
4-bromo-2-(2,3-dihydro-1H-benzo[f]cyclopenta[c]quinolin-4-yl)phenol

>  <Smile>  (114) 
Oc(ccc(Br)c1)c1-c1nc2ccc(cccc3)c3c2c2c1CCC2

>  <Color>  (114) 
ORANGE

>  <Collection>  (114) 
DC

>  <InChI>  (114) 
InChI=1S/C22H16BrNO/c23-14-9-11-20(25)18(12-14)22-17-7-3-6-16(17)21-15-5-2-1-4-13(15)8-10-19(21)24-22/h1-2,4-5,8-12,25H,3,6-7H2

>  <InChI Key>  (114) 
AYBVWQFBEMASNE-UHFFFAOYSA-N

>  <PERCENTSP3>  (114) 
13.64

>  <Link>  (114) 
https://www.chemdiv.com/catalog/screening-compounds/compound-8002-4828/

>  <MFCDNUMBER>  (114) 
MFCD00373602

>  <STEREO>  (114) 
ACHIRAL

>  <State>  (114) 
Solid

>  <Similarity score>  (114) 
0.22

$$$$
N-[(2,4-difluorophenyl)methyl]-1-[2-(4-fluorophenyl)-2H-pyrazolo[3,4-d]pyrimidin
     RDKit          2D

 34 38  0  0  0  0  0  0  0  0999 V2000
    3.1537   -1.2715    0.0000 C   0  0  0  0  0  0  0  0  0  0  0  0
    2.2909   -1.7718    0.0000 C   0  0  0  0  0  0  0  0  0  0  0  0
    4.0249   -1.7718    0.0000 C   0  0  0  0  0  0  0  0  0  0  0  0
    4.7669   -1.1090    0.0000 N   0  0  0  0  0  0  0  0  0  0  0  0
    4.3626   -0.1917    0.0000 N   0  0  0  0  0  0  0  0  0  0  0  0
    3.3663   -0.2959    0.0000 C   0  0  0  0  0  0  0  0  0  0  0  0
    1.4278   -1.2715    0.0000 N   0  0  0  0  0  0  0  0  0  0  0  0
    2.2909   -2.7723    0.0000 N   0  0  0  0  0  0  0  0  0  0  0  0
    4.0249   -2.7723    0.0000 N   0  0  0  0  0  0  0  0  0  0  0  0
   -0.3106   -1.2715    0.0000 C   0  0  0  0  0  0  0  0  0  0  0  0
   -1.1737   -1.7718    0.0000 C   0  0  0  0  0  0  0  0  0  0  0  0
    3.1537   -3.2726    0.0000 C   0  0  0  0  0  0  0  0  0  0  0  0
    0.5608   -1.7718    0.0000 C   0  0  0  0  0  0  0  0  0  0  0  0
   -3.7747   -0.2708    0.0000 C   0  0  0  0  0  0  0  0  0  0  0  0
   -3.7747   -1.2715    0.0000 C   0  0  0  0  0  0  0  0  0  0  0  0
   -2.0407   -1.2715    0.0000 N   0  0  0  0  0  0  0  0  0  0  0  0
    4.8629    0.6795    0.0000 C   0  0  0  0  0  0  0  0  0  0  0  0
   -4.6376    0.2293    0.0000 C   0  0  0  0  0  0  0  0  0  0  0  0
   -2.9117   -1.7718    0.0000 C   0  0  0  0  0  0  0  0  0  0  0  0
   -1.1737   -2.7723    0.0000 O   0  0  0  0  0  0  0  0  0  0  0  0
   -4.6376   -1.7718    0.0000 C   0  0  0  0  0  0  0  0  0  0  0  0
    4.3626    1.5426    0.0000 C   0  0  0  0  0  0  0  0  0  0  0  0
    5.8632    0.6795    0.0000 C   0  0  0  0  0  0  0  0  0  0  0  0
   -5.5048   -0.2708    0.0000 C   0  0  0  0  0  0  0  0  0  0  0  0
   -2.9117    0.2293    0.0000 F   0  0  0  0  0  0  0  0  0  0  0  0
    1.4278   -0.2708    0.0000 C   0  0  0  0  0  0  0  0  0  0  0  0
    5.8632    2.4052    0.0000 C   0  0  0  0  0  0  0  0  0  0  0  0
   -5.5048   -1.2715    0.0000 C   0  0  0  0  0  0  0  0  0  0  0  0
    4.8629    2.4052    0.0000 C   0  0  0  0  0  0  0  0  0  0  0  0
    6.3635    1.5426    0.0000 C   0  0  0  0  0  0  0  0  0  0  0  0
   -6.3635    0.2293    0.0000 F   0  0  0  0  0  0  0  0  0  0  0  0
    6.3635    3.2726    0.0000 F   0  0  0  0  0  0  0  0  0  0  0  0
   -0.3106   -0.2708    0.0000 C   0  0  0  0  0  0  0  0  0  0  0  0
    0.5608    0.2293    0.0000 C   0  0  0  0  0  0  0  0  0  0  0  0
  1  2  1  0
  1  3  1  0
  3  4  2  0
  5  6  1  0
  4  5  1  0
  1  6  2  0
  2  7  1  0
  2  8  2  0
  8 12  1  0
  3  9  1  0
 10 13  1  0
 10 33  1  0
 10 11  1  0
  9 12  2  0
  7 13  1  0
 14 15  2  0
 15 19  1  0
 11 16  1  0
  5 17  1  0
 14 18  1  0
 16 19  1  0
 11 20  2  0
 15 21  1  0
 17 22  2  0
 17 23  1  0
 24 28  1  0
 18 24  2  0
 14 25  1  0
  7 26  1  0
 27 30  1  0
 27 29  2  0
 21 28  2  0
 22 29  1  0
 23 30  2  0
 24 31  1  0
 27 32  1  0
 33 34  1  0
 26 34  1  0
M  END
>  <IDNUMBER>  (115) 
L094-3489

>  <available>  (115) 
29

>  <H_acceptor>  (115) 
5

>  <H_donor>  (115) 
1

>  <B_rotN>  (115) 
6

>  <N_O>  (115) 
7

>  <logP>  (115) 
3.7477

>  <logD>  (115) 
3.7403

>  <logSw>  (115) 
-3.8449

>  <PSA>  (115) 
62.955

>  <pKa_ma>  (115) 
11.9359

>  <pKa_mb>  (115) 
5.6357

>  <N_Chirals>  (115) 
1

>  <Name>  (115) 
N-[(2,4-difluorophenyl)methyl]-1-[2-(4-fluorophenyl)-2H-pyrazolo[3,4-d]pyrimidin-4-yl]piperidine-3-carboxamide

>  <Smile>  (115) 
O=C(C(CCC1)CN1c(c1c2)ncnc1nn2-c(cc1)ccc1F)NCc(ccc(F)c1)c1F

>  <Color>  (115) 
NOT COLORED

>  <Collection>  (115) 
NC

>  <InChI>  (115) 
InChI=1S/C24H21F3N6O/c25-17-5-7-19(8-6-17)33-13-20-22(31-33)29-14-30-23(20)32-9-1-2-16(12-32)24(34)28-11-15-3-4-18(26)10-21(15)27/h3-8,10,13-14,16H,1-2,9,11-12H2,(H,28,34)/t16-/m0/s1

>  <InChI Key>  (115) 
MIALPBIMYHFVJL-INIZCTEOSA-N

>  <PERCENTSP3>  (115) 
25

>  <Link>  (115) 
https://www.chemdiv.com/catalog/screening-compounds/compound-L094-3489/

>  <MFCDNUMBER>  (115) 
MFCD27232011

>  <CLNUMBER>  (115) 
CL8543

>  <STEREO>  (115) 
RACEMIC MIXTURE

>  <State>  (115) 
Solid

>  <Similarity score>  (115) 
0.22

$$$$
N-[(2,4-difluorophenyl)methyl]-1-[2-(4-methylphenyl)-2H-pyrazolo[3,4-d]pyrimidin
     RDKit          2D

 34 38  0  0  0  0  0  0  0  0999 V2000
    3.1537   -1.2715    0.0000 C   0  0  0  0  0  0  0  0  0  0  0  0
    2.2909   -1.7718    0.0000 C   0  0  0  0  0  0  0  0  0  0  0  0
    4.0249   -1.7718    0.0000 C   0  0  0  0  0  0  0  0  0  0  0  0
    4.7669   -1.1090    0.0000 N   0  0  0  0  0  0  0  0  0  0  0  0
    4.3626   -0.1917    0.0000 N   0  0  0  0  0  0  0  0  0  0  0  0
    3.3663   -0.2959    0.0000 C   0  0  0  0  0  0  0  0  0  0  0  0
    1.4278   -1.2715    0.0000 N   0  0  0  0  0  0  0  0  0  0  0  0
    2.2909   -2.7723    0.0000 N   0  0  0  0  0  0  0  0  0  0  0  0
    4.0249   -2.7723    0.0000 N   0  0  0  0  0  0  0  0  0  0  0  0
   -0.3106   -1.2715    0.0000 C   0  0  0  0  0  0  0  0  0  0  0  0
   -1.1737   -1.7718    0.0000 C   0  0  0  0  0  0  0  0  0  0  0  0
    3.1537   -3.2726    0.0000 C   0  0  0  0  0  0  0  0  0  0  0  0
    0.5608   -1.7718    0.0000 C   0  0  0  0  0  0  0  0  0  0  0  0
   -3.7747   -0.2708    0.0000 C   0  0  0  0  0  0  0  0  0  0  0  0
   -3.7747   -1.2715    0.0000 C   0  0  0  0  0  0  0  0  0  0  0  0
   -2.0407   -1.2715    0.0000 N   0  0  0  0  0  0  0  0  0  0  0  0
    4.8629    0.6795    0.0000 C   0  0  0  0  0  0  0  0  0  0  0  0
   -4.6376    0.2293    0.0000 C   0  0  0  0  0  0  0  0  0  0  0  0
   -2.9117   -1.7718    0.0000 C   0  0  0  0  0  0  0  0  0  0  0  0
   -1.1737   -2.7723    0.0000 O   0  0  0  0  0  0  0  0  0  0  0  0
   -4.6376   -1.7718    0.0000 C   0  0  0  0  0  0  0  0  0  0  0  0
    4.3626    1.5426    0.0000 C   0  0  0  0  0  0  0  0  0  0  0  0
    5.8632    0.6795    0.0000 C   0  0  0  0  0  0  0  0  0  0  0  0
   -5.5048   -0.2708    0.0000 C   0  0  0  0  0  0  0  0  0  0  0  0
   -2.9117    0.2293    0.0000 F   0  0  0  0  0  0  0  0  0  0  0  0
    1.4278   -0.2708    0.0000 C   0  0  0  0  0  0  0  0  0  0  0  0
   -5.5048   -1.2715    0.0000 C   0  0  0  0  0  0  0  0  0  0  0  0
    4.8629    2.4052    0.0000 C   0  0  0  0  0  0  0  0  0  0  0  0
    6.3635    1.5426    0.0000 C   0  0  0  0  0  0  0  0  0  0  0  0
   -6.3635    0.2293    0.0000 F   0  0  0  0  0  0  0  0  0  0  0  0
    5.8632    2.4052    0.0000 C   0  0  0  0  0  0  0  0  0  0  0  0
   -0.3106   -0.2708    0.0000 C   0  0  0  0  0  0  0  0  0  0  0  0
    0.5608    0.2293    0.0000 C   0  0  0  0  0  0  0  0  0  0  0  0
    6.3635    3.2726    0.0000 C   0  0  0  0  0  0  0  0  0  0  0  0
  1  2  1  0
  1  3  1  0
  3  4  2  0
  5  6  1  0
  4  5  1  0
  1  6  2  0
  2  7  1  0
  2  8  2  0
  8 12  1  0
  3  9  1  0
 10 13  1  0
 10 32  1  0
 10 11  1  0
  9 12  2  0
  7 13  1  0
 14 15  2  0
 15 19  1  0
 11 16  1  0
  5 17  1  0
 14 18  1  0
 16 19  1  0
 11 20  2  0
 15 21  1  0
 17 22  2  0
 17 23  1  0
 24 27  1  0
 18 24  2  0
 14 25  1  0
  7 26  1  0
 21 27  2  0
 22 28  1  0
 23 29  2  0
 24 30  1  0
 29 31  1  0
 28 31  2  0
 32 33  1  0
 26 33  1  0
 31 34  1  0
M  END
>  <IDNUMBER>  (116) 
L094-3692

>  <available>  (116) 
7

>  <H_acceptor>  (116) 
5

>  <H_donor>  (116) 
1

>  <B_rotN>  (116) 
6

>  <N_O>  (116) 
7

>  <logP>  (116) 
4.142

>  <logD>  (116) 
4.1346

>  <logSw>  (116) 
-4.0957

>  <PSA>  (116) 
62.955

>  <pKa_ma>  (116) 
11.9359

>  <pKa_mb>  (116) 
5.6357

>  <N_Chirals>  (116) 
1

>  <Name>  (116) 
N-[(2,4-difluorophenyl)methyl]-1-[2-(4-methylphenyl)-2H-pyrazolo[3,4-d]pyrimidin-4-yl]piperidine-3-carboxamide

>  <Smile>  (116) 
Cc(cc1)ccc1-n(cc12)nc2ncnc1N(CCC1)CC1C(NCc(ccc(F)c1)c1F)=O

>  <Color>  (116) 
NOT COLORED

>  <Collection>  (116) 
NC

>  <InChI>  (116) 
InChI=1S/C25H24F2N6O/c1-16-4-8-20(9-5-16)33-14-21-23(31-33)29-15-30-24(21)32-10-2-3-18(13-32)25(34)28-12-17-6-7-19(26)11-22(17)27/h4-9,11,14-15,18H,2-3,10,12-13H2,1H3,(H,28,34)/t18-/m0/s1

>  <InChI Key>  (116) 
JYCUTZNIOGCBCR-SFHVURJKSA-N

>  <PERCENTSP3>  (116) 
28

>  <Link>  (116) 
https://www.chemdiv.com/catalog/screening-compounds/compound-L094-3692/

>  <MFCDNUMBER>  (116) 
MFCD27232025

>  <CLNUMBER>  (116) 
CL8543

>  <STEREO>  (116) 
RACEMIC MIXTURE

>  <State>  (116) 
Solid

>  <Similarity score>  (116) 
0.22

$$$$
1-([1]benzofuro[3,2-d]pyrimidin-4-yl)-N-[(2,4-difluorophenyl)methyl]piperidine-3
     RDKit          2D

 31 35  0  0  0  0  0  0  0  0999 V2000
   -2.1176   -1.1981    0.0000 C   0  0  0  0  0  0  0  0  0  0  0  0
   -1.1449   -0.9906    0.0000 C   0  0  0  0  0  0  0  0  0  0  0  0
   -2.9283   -0.6106    0.0000 O   0  0  0  0  0  0  0  0  0  0  0  0
   -2.4369   -2.1454    0.0000 C   0  0  0  0  0  0  0  0  0  0  0  0
   -0.8256   -0.0429    0.0000 N   0  0  0  0  0  0  0  0  0  0  0  0
   -3.4298   -2.1555    0.0000 C   0  0  0  0  0  0  0  0  0  0  0  0
   -3.7438   -1.2031    0.0000 C   0  0  0  0  0  0  0  0  0  0  0  0
    0.4662    1.1121    0.0000 C   0  0  0  0  0  0  0  0  0  0  0  0
    1.4490    1.3197    0.0000 C   0  0  0  0  0  0  0  0  0  0  0  0
   -0.4763   -1.7351    0.0000 N   0  0  0  0  0  0  0  0  0  0  0  0
    0.1570    0.1648    0.0000 C   0  0  0  0  0  0  0  0  0  0  0  0
   -1.7681   -2.8902    0.0000 N   0  0  0  0  0  0  0  0  0  0  0  0
    4.3721    1.9429    0.0000 C   0  0  0  0  0  0  0  0  0  0  0  0
    3.3945    1.7454    0.0000 C   0  0  0  0  0  0  0  0  0  0  0  0
    1.7580    2.2773    0.0000 N   0  0  0  0  0  0  0  0  0  0  0  0
    5.0257    1.2033    0.0000 C   0  0  0  0  0  0  0  0  0  0  0  0
   -0.7853   -2.6927    0.0000 C   0  0  0  0  0  0  0  0  0  0  0  0
    2.7307    2.4800    0.0000 C   0  0  0  0  0  0  0  0  0  0  0  0
    2.1178    0.5751    0.0000 O   0  0  0  0  0  0  0  0  0  0  0  0
    3.0803    0.8031    0.0000 C   0  0  0  0  0  0  0  0  0  0  0  0
    4.7218    0.2560    0.0000 C   0  0  0  0  0  0  0  0  0  0  0  0
    4.6762    2.8902    0.0000 F   0  0  0  0  0  0  0  0  0  0  0  0
   -1.4995    0.7018    0.0000 C   0  0  0  0  0  0  0  0  0  0  0  0
    3.7440    0.0431    0.0000 C   0  0  0  0  0  0  0  0  0  0  0  0
    5.3853   -0.4988    0.0000 F   0  0  0  0  0  0  0  0  0  0  0  0
   -0.2026    1.8670    0.0000 C   0  0  0  0  0  0  0  0  0  0  0  0
   -4.0986   -2.8902    0.0000 C   0  0  0  0  0  0  0  0  0  0  0  0
   -4.7167   -0.9906    0.0000 C   0  0  0  0  0  0  0  0  0  0  0  0
   -1.1806    1.6592    0.0000 C   0  0  0  0  0  0  0  0  0  0  0  0
   -5.0764   -2.6876    0.0000 C   0  0  0  0  0  0  0  0  0  0  0  0
   -5.3853   -1.7351    0.0000 C   0  0  0  0  0  0  0  0  0  0  0  0
  1  2  1  0
  1  3  1  0
  1  4  2  0
  2  5  1  0
  4  6  1  0
  6  7  2  0
  3  7  1  0
  8 11  1  0
  8 26  1  0
  8  9  1  0
  2 10  2  0
 10 17  1  0
  5 11  1  0
  4 12  1  0
 13 14  2  0
 14 18  1  0
  9 15  1  0
 13 16  1  0
 12 17  2  0
 15 18  1  0
  9 19  2  0
 14 20  1  0
 21 24  1  0
 16 21  2  0
 13 22  1  0
  5 23  1  0
 20 24  2  0
 21 25  1  0
 26 29  1  0
  6 27  1  0
  7 28  1  0
 23 29  1  0
 27 30  2  0
 28 31  2  0
 30 31  1  0
M  END
>  <IDNUMBER>  (117) 
L928-0406

>  <available>  (117) 
34

>  <H_acceptor>  (117) 
5

>  <H_donor>  (117) 
1

>  <B_rotN>  (117) 
5

>  <N_O>  (117) 
6

>  <logP>  (117) 
4.0923

>  <logD>  (117) 
4.0818

>  <logSw>  (117) 
-4.2624

>  <PSA>  (117) 
56.685

>  <pKa_ma>  (117) 
11.9359

>  <pKa_mb>  (117) 
5.7848

>  <N_Chirals>  (117) 
1

>  <Name>  (117) 
1-([1]benzofuro[3,2-d]pyrimidin-4-yl)-N-[(2,4-difluorophenyl)methyl]piperidine-3-carboxamide

>  <Smile>  (117) 
O=C(C(CCC1)CN1c1ncnc2c1oc1c2cccc1)NCc(ccc(F)c1)c1F

>  <Color>  (117) 
NOT COLORED

>  <Collection>  (117) 
NC

>  <InChI>  (117) 
InChI=1S/C23H20F2N4O2/c24-16-8-7-14(18(25)10-16)11-26-23(30)15-4-3-9-29(12-15)22-21-20(27-13-28-22)17-5-1-2-6-19(17)31-21/h1-2,5-8,10,13,15H,3-4,9,11-12H2,(H,26,30)/t15-/m0/s1

>  <InChI Key>  (117) 
JFAFIZULRMNDPG-HNNXBMFYSA-N

>  <PERCENTSP3>  (117) 
26.1

>  <Link>  (117) 
https://www.chemdiv.com/catalog/screening-compounds/compound-L928-0406/

>  <MFCDNUMBER>  (117) 
MFCD20750400

>  <CLNUMBER>  (117) 
CL1503

>  <STEREO>  (117) 
RACEMIC MIXTURE

>  <State>  (117) 
Solid

>  <Similarity score>  (117) 
0.22

$$$$
3-(3-methyl-1,2,3,4-tetrahydrobenzo[a]phenanthridin-5-yl)phenol
     RDKit          2D

 26 30  0  0  0  0  0  0  0  0999 V2000
   -1.3085    0.0050    0.0000 C   0  0  0  0  0  0  0  0  0  0  0  0
   -0.4312    0.5095    0.0000 C   0  0  0  0  0  0  0  0  0  0  0  0
    0.4412   -0.9934    0.0000 N   0  0  0  0  0  0  0  0  0  0  0  0
    0.4412    0.0050    0.0000 C   0  0  0  0  0  0  0  0  0  0  0  0
   -1.3085   -1.0187    0.0000 C   0  0  0  0  0  0  0  0  0  0  0  0
   -0.4312   -1.5027    0.0000 C   0  0  0  0  0  0  0  0  0  0  0  0
    1.3085    0.5095    0.0000 C   0  0  0  0  0  0  0  0  0  0  0  0
   -2.1558   -1.5027    0.0000 C   0  0  0  0  0  0  0  0  0  0  0  0
   -2.1760    0.5095    0.0000 C   0  0  0  0  0  0  0  0  0  0  0  0
   -0.4312    1.5027    0.0000 C   0  0  0  0  0  0  0  0  0  0  0  0
   -0.4312   -2.5163    0.0000 C   0  0  0  0  0  0  0  0  0  0  0  0
    2.1558    0.0050    0.0000 C   0  0  0  0  0  0  0  0  0  0  0  0
   -2.1558   -2.5163    0.0000 C   0  0  0  0  0  0  0  0  0  0  0  0
   -1.3085   -3.0004    0.0000 C   0  0  0  0  0  0  0  0  0  0  0  0
    3.0280    0.5095    0.0000 C   0  0  0  0  0  0  0  0  0  0  0  0
   -2.1760    1.5027    0.0000 C   0  0  0  0  0  0  0  0  0  0  0  0
   -1.3085    2.0070    0.0000 C   0  0  0  0  0  0  0  0  0  0  0  0
    3.8955    0.0252    0.0000 O   0  0  0  0  0  0  0  0  0  0  0  0
    1.3085    1.5027    0.0000 C   0  0  0  0  0  0  0  0  0  0  0  0
   -3.0232   -1.0187    0.0000 C   0  0  0  0  0  0  0  0  0  0  0  0
    2.1558    2.0070    0.0000 C   0  0  0  0  0  0  0  0  0  0  0  0
    3.0280    1.5027    0.0000 C   0  0  0  0  0  0  0  0  0  0  0  0
   -3.0232   -3.0004    0.0000 C   0  0  0  0  0  0  0  0  0  0  0  0
   -1.2783    3.0004    0.0000 C   0  0  0  0  0  0  0  0  0  0  0  0
   -3.8955   -1.5027    0.0000 C   0  0  0  0  0  0  0  0  0  0  0  0
   -3.8955   -2.5163    0.0000 C   0  0  0  0  0  0  0  0  0  0  0  0
  1  2  2  0
  3  6  1  0
  2  4  1  0
  3  4  2  0
  1  5  1  0
  5  6  2  0
  4  7  1  0
  5  8  1  0
  1  9  1  0
  2 10  1  0
 10 17  1  0
  6 11  1  0
  7 12  2  0
  8 13  2  0
 13 14  1  0
 11 14  2  0
 12 15  1  0
  9 16  1  0
 16 17  1  0
 15 18  1  0
  7 19  1  0
  8 20  1  0
 19 21  2  0
 21 22  1  0
 15 22  2  0
 13 23  1  0
 23 26  2  0
 17 24  1  0
 20 25  2  0
 25 26  1  0
M  END
>  <IDNUMBER>  (118) 
4558-1727

>  <available>  (118) 
128

>  <H_acceptor>  (118) 
2

>  <H_donor>  (118) 
1

>  <B_rotN>  (118) 
1

>  <N_O>  (118) 
2

>  <logP>  (118) 
6.533

>  <logD>  (118) 
6.511

>  <logSw>  (118) 
-6.9211

>  <PSA>  (118) 
26.3341

>  <pKa_ma>  (118) 
8.7181

>  <pKa_mb>  (118) 
4.9706

>  <N_Chirals>  (118) 
1

>  <Name>  (118) 
3-(3-methyl-1,2,3,4-tetrahydrobenzo[a]phenanthridin-5-yl)phenol

>  <Smile>  (118) 
CC(CC1)Cc2c1c1c(cccc3)c3ccc1nc2-c1cccc(O)c1

>  <Color>  (118) 
NOT COLORED

>  <Collection>  (118) 
DC

>  <InChI>  (118) 
InChI=1S/C24H21NO/c1-15-9-11-20-21(13-15)24(17-6-4-7-18(26)14-17)25-22-12-10-16-5-2-3-8-19(16)23(20)22/h2-8,10,12,14-15,26H,9,11,13H2,1H3/t15-/m1/s1

>  <InChI Key>  (118) 
BMYRPKVFXFHLPH-OAHLLOKOSA-N

>  <PERCENTSP3>  (118) 
20.8

>  <Link>  (118) 
https://www.chemdiv.com/catalog/screening-compounds/compound-4558-1727/

>  <MFCDNUMBER>  (118) 
MFCD03447822

>  <Saltdata>  (118) 
HCl

>  <Saltdata_MW>  (118) 
36.461

>  <STEREO>  (118) 
RACEMIC MIXTURE

>  <State>  (118) 
Solid

>  <Similarity score>  (118) 
0.22

$$$$
3-(2-methyl-1,2,3,4-tetrahydrobenzo[a]phenanthridin-5-yl)phenol
     RDKit          2D

 26 30  0  0  0  0  0  0  0  0999 V2000
    0.4412   -0.4966    0.0000 N   0  0  0  0  0  0  0  0  0  0  0  0
   -1.3084    0.5017    0.0000 C   0  0  0  0  0  0  0  0  0  0  0  0
    0.4412    0.5017    0.0000 C   0  0  0  0  0  0  0  0  0  0  0  0
   -0.4311    1.0060    0.0000 C   0  0  0  0  0  0  0  0  0  0  0  0
   -1.3084   -0.5219    0.0000 C   0  0  0  0  0  0  0  0  0  0  0  0
   -0.4311   -1.0058    0.0000 C   0  0  0  0  0  0  0  0  0  0  0  0
    1.3084    1.0060    0.0000 C   0  0  0  0  0  0  0  0  0  0  0  0
   -2.1555   -1.0058    0.0000 C   0  0  0  0  0  0  0  0  0  0  0  0
   -0.4311    1.9991    0.0000 C   0  0  0  0  0  0  0  0  0  0  0  0
   -2.1757    1.0060    0.0000 C   0  0  0  0  0  0  0  0  0  0  0  0
   -0.4311   -2.0193    0.0000 C   0  0  0  0  0  0  0  0  0  0  0  0
    2.1555    0.5017    0.0000 C   0  0  0  0  0  0  0  0  0  0  0  0
   -2.1555   -2.0193    0.0000 C   0  0  0  0  0  0  0  0  0  0  0  0
   -1.3084   -2.5034    0.0000 C   0  0  0  0  0  0  0  0  0  0  0  0
    3.0277    1.0060    0.0000 C   0  0  0  0  0  0  0  0  0  0  0  0
   -1.3084    2.5034    0.0000 C   0  0  0  0  0  0  0  0  0  0  0  0
   -2.1757    1.9991    0.0000 C   0  0  0  0  0  0  0  0  0  0  0  0
    3.8950    0.5219    0.0000 O   0  0  0  0  0  0  0  0  0  0  0  0
    1.3084    1.9991    0.0000 C   0  0  0  0  0  0  0  0  0  0  0  0
   -3.0226   -0.5219    0.0000 C   0  0  0  0  0  0  0  0  0  0  0  0
    2.1555    2.5034    0.0000 C   0  0  0  0  0  0  0  0  0  0  0  0
    3.0277    1.9991    0.0000 C   0  0  0  0  0  0  0  0  0  0  0  0
   -3.0226   -2.5034    0.0000 C   0  0  0  0  0  0  0  0  0  0  0  0
   -3.0480    2.4832    0.0000 C   0  0  0  0  0  0  0  0  0  0  0  0
   -3.8950   -1.0058    0.0000 C   0  0  0  0  0  0  0  0  0  0  0  0
   -3.8950   -2.0193    0.0000 C   0  0  0  0  0  0  0  0  0  0  0  0
  2  5  1  0
  2  4  2  0
  1  3  2  0
  3  4  1  0
  5  6  2  0
  1  6  1  0
  3  7  1  0
  5  8  1  0
  8 13  2  0
  4  9  1  0
  2 10  1  0
  6 11  1  0
  7 12  2  0
 13 14  1  0
 11 14  2  0
 12 15  1  0
  9 16  1  0
 10 17  1  0
 16 17  1  0
 15 18  1  0
  7 19  1  0
  8 20  1  0
 19 21  2  0
 21 22  1  0
 15 22  2  0
 13 23  1  0
 17 24  1  0
 20 25  2  0
 25 26  1  0
 23 26  2  0
M  END
>  <IDNUMBER>  (119) 
4558-1729

>  <available>  (119) 
170

>  <H_acceptor>  (119) 
2

>  <H_donor>  (119) 
1

>  <B_rotN>  (119) 
1

>  <N_O>  (119) 
2

>  <logP>  (119) 
6.533

>  <logD>  (119) 
6.4887

>  <logSw>  (119) 
-6.9211

>  <PSA>  (119) 
26.3341

>  <pKa_ma>  (119) 
8.7181

>  <pKa_mb>  (119) 
6.1523

>  <N_Chirals>  (119) 
1

>  <Name>  (119) 
3-(2-methyl-1,2,3,4-tetrahydrobenzo[a]phenanthridin-5-yl)phenol

>  <Smile>  (119) 
CC(CC1)Cc2c1c(-c1cccc(O)c1)nc1ccc(cccc3)c3c12

>  <Color>  (119) 
NOT COLORED

>  <Collection>  (119) 
DC

>  <InChI>  (119) 
InChI=1S/C24H21NO/c1-15-9-11-20-21(13-15)23-19-8-3-2-5-16(19)10-12-22(23)25-24(20)17-6-4-7-18(26)14-17/h2-8,10,12,14-15,26H,9,11,13H2,1H3/t15-/m1/s1

>  <InChI Key>  (119) 
HYTLAZBGJUJKDY-OAHLLOKOSA-N

>  <PERCENTSP3>  (119) 
20.8

>  <Link>  (119) 
https://www.chemdiv.com/catalog/screening-compounds/compound-4558-1729/

>  <MFCDNUMBER>  (119) 
MFCD03447824

>  <Saltdata>  (119) 
HCl

>  <Saltdata_MW>  (119) 
36.461

>  <STEREO>  (119) 
RACEMIC MIXTURE

>  <State>  (119) 
Solid

>  <Similarity score>  (119) 
0.22

$$$$
6,8-difluoro-1-(4-fluorophenyl)-3-(3-methoxyphenyl)-1H-pyrazolo[4,3-c]quinoline
     RDKit          2D

 30 34  0  0  0  0  0  0  0  0999 V2000
   -0.4486    0.4624    0.0000 N   0  0  0  0  0  0  0  0  0  0  0  0
    0.2257   -1.0142    0.0000 C   0  0  0  0  0  0  0  0  0  0  0  0
   -0.6493   -0.5127    0.0000 C   0  0  0  0  0  0  0  0  0  0  0  0
    0.5544    0.5572    0.0000 N   0  0  0  0  0  0  0  0  0  0  0  0
    0.9835   -0.3344    0.0000 C   0  0  0  0  0  0  0  0  0  0  0  0
   -1.5352   -1.0142    0.0000 C   0  0  0  0  0  0  0  0  0  0  0  0
   -1.5352   -2.0060    0.0000 C   0  0  0  0  0  0  0  0  0  0  0  0
   -0.6493   -2.4908    0.0000 N   0  0  0  0  0  0  0  0  0  0  0  0
    0.2257   -2.0060    0.0000 C   0  0  0  0  0  0  0  0  0  0  0  0
    1.9810   -0.4346    0.0000 C   0  0  0  0  0  0  0  0  0  0  0  0
   -2.3989   -2.4908    0.0000 C   0  0  0  0  0  0  0  0  0  0  0  0
   -1.0727    1.2315    0.0000 C   0  0  0  0  0  0  0  0  0  0  0  0
   -3.2849   -2.0060    0.0000 C   0  0  0  0  0  0  0  0  0  0  0  0
   -2.3989   -0.5127    0.0000 C   0  0  0  0  0  0  0  0  0  0  0  0
   -3.2738   -1.0142    0.0000 C   0  0  0  0  0  0  0  0  0  0  0  0
    2.5605    0.3845    0.0000 C   0  0  0  0  0  0  0  0  0  0  0  0
   -2.0644    1.0532    0.0000 C   0  0  0  0  0  0  0  0  0  0  0  0
   -0.7327    2.1509    0.0000 C   0  0  0  0  0  0  0  0  0  0  0  0
   -2.3934   -3.4883    0.0000 F   0  0  0  0  0  0  0  0  0  0  0  0
   -2.3711    2.7249    0.0000 C   0  0  0  0  0  0  0  0  0  0  0  0
    3.5745    0.2953    0.0000 C   0  0  0  0  0  0  0  0  0  0  0  0
   -4.1486   -0.5182    0.0000 F   0  0  0  0  0  0  0  0  0  0  0  0
   -1.3847    2.9032    0.0000 C   0  0  0  0  0  0  0  0  0  0  0  0
   -2.7108    1.8054    0.0000 C   0  0  0  0  0  0  0  0  0  0  0  0
   -3.0175    3.4883    0.0000 F   0  0  0  0  0  0  0  0  0  0  0  0
    2.4044   -1.3428    0.0000 C   0  0  0  0  0  0  0  0  0  0  0  0
    4.1486    1.0977    0.0000 O   0  0  0  0  0  0  0  0  0  0  0  0
    3.4076   -1.4320    0.0000 C   0  0  0  0  0  0  0  0  0  0  0  0
    3.9981   -0.6074    0.0000 C   0  0  0  0  0  0  0  0  0  0  0  0
    3.7139    1.9837    0.0000 C   0  0  0  0  0  0  0  0  0  0  0  0
  2  3  2  0
  2  5  1  0
  1  3  1  0
  1  4  1  0
  4  5  2  0
  3  6  1  0
  6  7  1  0
  7  8  1  0
  8  9  2  0
  2  9  1  0
  5 10  1  0
  7 11  2  0
  1 12  1  0
 13 15  2  0
 11 13  1  0
  6 14  2  0
 14 15  1  0
 10 16  1  0
 12 17  2  0
 12 18  1  0
 11 19  1  0
 20 23  1  0
 20 24  2  0
 16 21  2  0
 21 29  1  0
 15 22  1  0
 18 23  2  0
 17 24  1  0
 20 25  1  0
 10 26  2  0
 21 27  1  0
 26 28  1  0
 28 29  2  0
 27 30  1  0
M  END
>  <IDNUMBER>  (120) 
C350-0671

>  <available>  (120) 
81

>  <H_acceptor>  (120) 
3

>  <H_donor>  (120) 
0

>  <B_rotN>  (120) 
3

>  <N_O>  (120) 
4

>  <logP>  (120) 
5.6044

>  <logD>  (120) 
5.6044

>  <logSw>  (120) 
-5.7434

>  <PSA>  (120) 
31.0241

>  <pKa_ma>  (120) 
32.859

>  <pKa_mb>  (120) 
2.7705

>  <N_Chirals>  (120) 
0

>  <Name>  (120) 
6,8-difluoro-1-(4-fluorophenyl)-3-(3-methoxyphenyl)-1H-pyrazolo[4,3-c]quinoline

>  <Smile>  (120) 
COc1cccc(-c(c2cnc3c(F)cc(F)cc3c22)nn2-c(cc2)ccc2F)c1

>  <Color>  (120) 
NOT COLORED

>  <Collection>  (120) 
DC

>  <InChI>  (120) 
InChI=1S/C23H14F3N3O/c1-30-17-4-2-3-13(9-17)21-19-12-27-22-18(10-15(25)11-20(22)26)23(19)29(28-21)16-7-5-14(24)6-8-16/h2-12H,1H3

>  <InChI Key>  (120) 
FJPLPDZRGWLLHS-UHFFFAOYSA-N

>  <PERCENTSP3>  (120) 
4.3

>  <Link>  (120) 
https://www.chemdiv.com/catalog/screening-compounds/compound-C350-0671/

>  <MFCDNUMBER>  (120) 
MFCD14750568

>  <CLNUMBER>  (120) 
CL4130

>  <STEREO>  (120) 
ACHIRAL

>  <State>  (120) 
Solid

>  <Similarity score>  (120) 
0.22

$$$$
5-(2,5-dimethoxyphenyl)-1,2,3,4-tetrahydrobenzo[a]phenanthridine
     RDKit          2D

 28 32  0  0  0  0  0  0  0  0999 V2000
    0.8384   -0.2343    0.0000 C   0  0  0  0  0  0  0  0  0  0  0  0
    0.8384   -1.2489    0.0000 N   0  0  0  0  0  0  0  0  0  0  0  0
   -0.8810   -0.2343    0.0000 C   0  0  0  0  0  0  0  0  0  0  0  0
    1.7021    0.2769    0.0000 C   0  0  0  0  0  0  0  0  0  0  0  0
   -0.0174    0.2769    0.0000 C   0  0  0  0  0  0  0  0  0  0  0  0
   -0.8810   -1.2489    0.0000 C   0  0  0  0  0  0  0  0  0  0  0  0
   -0.0174   -1.7329    0.0000 C   0  0  0  0  0  0  0  0  0  0  0  0
   -1.7485   -1.7329    0.0000 C   0  0  0  0  0  0  0  0  0  0  0  0
    2.5850   -0.2343    0.0000 C   0  0  0  0  0  0  0  0  0  0  0  0
    1.7021    1.2722    0.0000 C   0  0  0  0  0  0  0  0  0  0  0  0
   -0.0174   -2.7554    0.0000 C   0  0  0  0  0  0  0  0  0  0  0  0
   -1.7485   -2.7554    0.0000 C   0  0  0  0  0  0  0  0  0  0  0  0
   -0.8810   -3.2356    0.0000 C   0  0  0  0  0  0  0  0  0  0  0  0
    3.4408    0.2769    0.0000 C   0  0  0  0  0  0  0  0  0  0  0  0
    2.5850    1.7717    0.0000 C   0  0  0  0  0  0  0  0  0  0  0  0
   -1.7601    0.2653    0.0000 C   0  0  0  0  0  0  0  0  0  0  0  0
    3.4408    1.2722    0.0000 C   0  0  0  0  0  0  0  0  0  0  0  0
    2.6043   -1.2257    0.0000 O   0  0  0  0  0  0  0  0  0  0  0  0
   -0.0174    1.2838    0.0000 C   0  0  0  0  0  0  0  0  0  0  0  0
    2.6043    2.7709    0.0000 O   0  0  0  0  0  0  0  0  0  0  0  0
   -2.6005   -1.2489    0.0000 C   0  0  0  0  0  0  0  0  0  0  0  0
   -2.6005   -3.2356    0.0000 C   0  0  0  0  0  0  0  0  0  0  0  0
    1.7678   -1.7485    0.0000 C   0  0  0  0  0  0  0  0  0  0  0  0
    3.4679    3.2356    0.0000 C   0  0  0  0  0  0  0  0  0  0  0  0
   -1.7601    1.2722    0.0000 C   0  0  0  0  0  0  0  0  0  0  0  0
   -0.8927    1.7833    0.0000 C   0  0  0  0  0  0  0  0  0  0  0  0
   -3.4679   -1.7329    0.0000 C   0  0  0  0  0  0  0  0  0  0  0  0
   -3.4679   -2.7554    0.0000 C   0  0  0  0  0  0  0  0  0  0  0  0
  1  2  2  0
  3  5  2  0
  1  4  1  0
  1  5  1  0
  3  6  1  0
  6  7  2  0
  2  7  1  0
  6  8  1  0
  4  9  2  0
  4 10  1  0
  7 11  1  0
  8 12  2  0
 12 13  1  0
 11 13  2  0
  9 14  1  0
 10 15  2  0
  3 16  1  0
 16 25  1  0
 15 17  1  0
 14 17  2  0
  9 18  1  0
  5 19  1  0
 15 20  1  0
  8 21  1  0
 12 22  1  0
 22 28  2  0
 18 23  1  0
 20 24  1  0
 25 26  1  0
 19 26  1  0
 21 27  2  0
 27 28  1  0
M  END
>  <IDNUMBER>  (121) 
1661-1344

>  <available>  (121) 
5

>  <H_acceptor>  (121) 
3

>  <H_donor>  (121) 
0

>  <B_rotN>  (121) 
3

>  <N_O>  (121) 
3

>  <logP>  (121) 
6.4761

>  <logD>  (121) 
6.4221

>  <logSw>  (121) 
-7.0714

>  <PSA>  (121) 
23.8913

>  <pKa_ma>  (121) 
20.4288

>  <pKa_mb>  (121) 
6.5215

>  <N_Chirals>  (121) 
0

>  <Name>  (121) 
5-(2,5-dimethoxyphenyl)-1,2,3,4-tetrahydrobenzo[a]phenanthridine

>  <Smile>  (121) 
COc(cc1)cc(-c2nc3ccc(cccc4)c4c3c3c2CCCC3)c1OC

>  <Color>  (121) 
NOT COLORED

>  <Collection>  (121) 
DC

>  <InChI>  (121) 
InChI=1S/C25H23NO2/c1-27-17-12-14-23(28-2)21(15-17)25-20-10-6-5-9-19(20)24-18-8-4-3-7-16(18)11-13-22(24)26-25/h3-4,7-8,11-15H,5-6,9-10H2,1-2H3

>  <InChI Key>  (121) 
QAGPQWXZLLRCLC-UHFFFAOYSA-N

>  <PERCENTSP3>  (121) 
24

>  <Link>  (121) 
https://www.chemdiv.com/catalog/screening-compounds/compound-1661-1344/

>  <MFCDNUMBER>  (121) 
MFCD01030328

>  <STEREO>  (121) 
ACHIRAL

>  <State>  (121) 
Solid

>  <Similarity score>  (121) 
0.22

$$$$
2-(3-methylphenyl)-4-(1,3,3-trimethyl-6-azabicyclo[3.2.1]octan-6-yl)quinazoline
     RDKit          2D

 28 32  0  0  0  0  0  0  0  0999 V2000
   -0.8736   -0.2752    0.0000 C   0  0  0  0  0  0  0  0  0  0  0  0
   -0.8736    0.7303    0.0000 N   0  0  0  0  0  0  0  0  0  0  0  0
   -0.0183   -0.7712    0.0000 N   0  0  0  0  0  0  0  0  0  0  0  0
   -0.0136   -1.7814    0.0000 C   0  0  0  0  0  0  0  0  0  0  0  0
   -1.7336   -0.7985    0.0000 C   0  0  0  0  0  0  0  0  0  0  0  0
   -0.8736   -2.2955    0.0000 N   0  0  0  0  0  0  0  0  0  0  0  0
   -0.0410    1.1444    0.0000 C   0  0  0  0  0  0  0  0  0  0  0  0
   -1.9657    2.0727    0.0000 C   0  0  0  0  0  0  0  0  0  0  0  0
   -1.7336   -1.7814    0.0000 C   0  0  0  0  0  0  0  0  0  0  0  0
   -1.7609    1.1444    0.0000 C   0  0  0  0  0  0  0  0  0  0  0  0
    0.8737   -2.2819    0.0000 C   0  0  0  0  0  0  0  0  0  0  0  0
   -0.7780    1.7677    0.0000 C   0  0  0  0  0  0  0  0  0  0  0  0
   -0.4141    2.8189    0.0000 C   0  0  0  0  0  0  0  0  0  0  0  0
    0.1638    2.0727    0.0000 C   0  0  0  0  0  0  0  0  0  0  0  0
   -1.3651    2.8189    0.0000 C   0  0  0  0  0  0  0  0  0  0  0  0
    1.7064   -1.7541    0.0000 C   0  0  0  0  0  0  0  0  0  0  0  0
    2.6027   -2.2729    0.0000 C   0  0  0  0  0  0  0  0  0  0  0  0
   -2.6209   -0.2798    0.0000 C   0  0  0  0  0  0  0  0  0  0  0  0
   -2.8939    2.3094    0.0000 C   0  0  0  0  0  0  0  0  0  0  0  0
    0.8737   -3.2967    0.0000 C   0  0  0  0  0  0  0  0  0  0  0  0
   -2.6209   -2.2955    0.0000 C   0  0  0  0  0  0  0  0  0  0  0  0
    0.5872    3.2330    0.0000 C   0  0  0  0  0  0  0  0  0  0  0  0
   -0.5050    3.7881    0.0000 C   0  0  0  0  0  0  0  0  0  0  0  0
    1.7336   -3.7881    0.0000 C   0  0  0  0  0  0  0  0  0  0  0  0
    2.6027   -3.2830    0.0000 C   0  0  0  0  0  0  0  0  0  0  0  0
    3.4810   -1.7359    0.0000 C   0  0  0  0  0  0  0  0  0  0  0  0
   -3.4810   -0.7985    0.0000 C   0  0  0  0  0  0  0  0  0  0  0  0
   -3.4810   -1.7814    0.0000 C   0  0  0  0  0  0  0  0  0  0  0  0
  1  2  1  0
  1  3  2  0
  3  4  1  0
  1  5  1  0
  6  9  1  0
  4  6  2  0
  2  7  1  0
  8 10  1  0
  5  9  1  0
  2 10  1  0
  4 11  1  0
  7 12  1  0
  8 12  1  0
 13 14  1  0
  7 14  1  0
  8 15  1  0
 13 15  1  0
 11 16  1  0
 16 17  2  0
  5 18  2  0
  8 19  1  0
 11 20  2  0
  9 21  2  0
 13 22  1  0
 13 23  1  0
 20 24  1  0
 24 25  2  0
 17 25  1  0
 17 26  1  0
 18 27  1  0
 27 28  2  0
 21 28  1  0
M  END
>  <IDNUMBER>  (122) 
4593-2959

>  <available>  (122) 
9

>  <H_acceptor>  (122) 
2

>  <H_donor>  (122) 
0

>  <B_rotN>  (122) 
2

>  <N_O>  (122) 
3

>  <logP>  (122) 
6.9304

>  <logD>  (122) 
6.1622

>  <logSw>  (122) 
-6.2009

>  <PSA>  (122) 
21.3242

>  <pKa_ma>  (122) 
18.1908

>  <pKa_mb>  (122) 
8.0871

>  <N_Chirals>  (122) 
2

>  <Name>  (122) 
2-(3-methylphenyl)-4-(1,3,3-trimethyl-6-azabicyclo[3.2.1]octan-6-yl)quinazoline

>  <Smile>  (122) 
CC(C1)(C2)CC(C)(C)CC1N2c1nc(-c2cc(C)ccc2)nc2ccccc12

>  <Color>  (122) 
BROWN

>  <Collection>  (122) 
NC

>  <InChI>  (122) 
InChI=1S/C25H29N3/c1-17-8-7-9-18(12-17)22-26-21-11-6-5-10-20(21)23(27-22)28-16-25(4)14-19(28)13-24(2,3)15-25/h5-12,19H,13-16H2,1-4H3

>  <InChI Key>  (122) 
NQADYZGRIYSBSE-UHFFFAOYSA-N

>  <PERCENTSP3>  (122) 
44

>  <Link>  (122) 
https://www.chemdiv.com/catalog/screening-compounds/compound-4593-2959/

>  <MFCDNUMBER>  (122) 
MFCD08337606

>  <CLNUMBER>  (122) 
CL2243

>  <STEREO>  (122) 
MIXTURE OF STEREOISOMERS

>  <State>  (122) 
Solid

>  <Similarity score>  (122) 
0.22

$$$$
3-(1,2,3,4-tetrahydrobenzo[a]phenanthridin-5-yl)phenol
     RDKit          2D

 25 29  0  0  0  0  0  0  0  0999 V2000
    0.4263   -0.5175    0.0000 N   0  0  0  0  0  0  0  0  0  0  0  0
    0.4263    0.4981    0.0000 C   0  0  0  0  0  0  0  0  0  0  0  0
   -1.2945    0.4981    0.0000 C   0  0  0  0  0  0  0  0  0  0  0  0
   -1.2945   -0.5175    0.0000 C   0  0  0  0  0  0  0  0  0  0  0  0
   -0.4302    1.0096    0.0000 C   0  0  0  0  0  0  0  0  0  0  0  0
   -0.4302   -1.0018    0.0000 C   0  0  0  0  0  0  0  0  0  0  0  0
    1.2907    1.0096    0.0000 C   0  0  0  0  0  0  0  0  0  0  0  0
   -2.1627   -1.0018    0.0000 C   0  0  0  0  0  0  0  0  0  0  0  0
   -0.4302   -2.0251    0.0000 C   0  0  0  0  0  0  0  0  0  0  0  0
    2.1741    0.4981    0.0000 C   0  0  0  0  0  0  0  0  0  0  0  0
   -2.1627   -2.0251    0.0000 C   0  0  0  0  0  0  0  0  0  0  0  0
   -1.2945   -2.5057    0.0000 C   0  0  0  0  0  0  0  0  0  0  0  0
    3.0307    1.0096    0.0000 C   0  0  0  0  0  0  0  0  0  0  0  0
   -2.1627    1.0096    0.0000 C   0  0  0  0  0  0  0  0  0  0  0  0
   -0.4302    2.0056    0.0000 C   0  0  0  0  0  0  0  0  0  0  0  0
    3.8835    0.5290    0.0000 O   0  0  0  0  0  0  0  0  0  0  0  0
    1.2907    2.0056    0.0000 C   0  0  0  0  0  0  0  0  0  0  0  0
   -3.0154   -0.5175    0.0000 C   0  0  0  0  0  0  0  0  0  0  0  0
    2.1741    2.5057    0.0000 C   0  0  0  0  0  0  0  0  0  0  0  0
    3.0307    2.0056    0.0000 C   0  0  0  0  0  0  0  0  0  0  0  0
   -3.0154   -2.5057    0.0000 C   0  0  0  0  0  0  0  0  0  0  0  0
   -2.1627    2.0056    0.0000 C   0  0  0  0  0  0  0  0  0  0  0  0
   -1.2945    2.5057    0.0000 C   0  0  0  0  0  0  0  0  0  0  0  0
   -3.8835   -1.0018    0.0000 C   0  0  0  0  0  0  0  0  0  0  0  0
   -3.8835   -2.0251    0.0000 C   0  0  0  0  0  0  0  0  0  0  0  0
  1  2  2  0
  3  4  1  0
  3  5  2  0
  4  6  2  0
  2  5  1  0
  1  6  1  0
  2  7  1  0
  4  8  1  0
  6  9  1  0
  7 10  2  0
 11 12  1  0
  8 11  2  0
  9 12  2  0
 10 13  1  0
  3 14  1  0
  5 15  1  0
 13 16  1  0
  7 17  1  0
  8 18  1  0
 17 19  2  0
 19 20  1  0
 13 20  2  0
 11 21  1  0
 14 22  1  0
 22 23  1  0
 15 23  1  0
 18 24  2  0
 21 25  2  0
 24 25  1  0
M  END
>  <IDNUMBER>  (123) 
1661-1364

>  <available>  (123) 
36

>  <H_acceptor>  (123) 
2

>  <H_donor>  (123) 
1

>  <B_rotN>  (123) 
1

>  <N_O>  (123) 
2

>  <logP>  (123) 
6.1799

>  <logD>  (123) 
6.1475

>  <logSw>  (123) 
-7.0376

>  <PSA>  (123) 
26.3341

>  <pKa_ma>  (123) 
8.7181

>  <pKa_mb>  (123) 
5.8466

>  <N_Chirals>  (123) 
0

>  <Name>  (123) 
3-(1,2,3,4-tetrahydrobenzo[a]phenanthridin-5-yl)phenol

>  <Smile>  (123) 
Oc1cc(-c2nc3ccc(cccc4)c4c3c3c2CCCC3)ccc1

>  <Color>  (123) 
NOT COLORED

>  <Collection>  (123) 
DC

>  <InChI>  (123) 
InChI=1S/C23H19NO/c25-17-8-5-7-16(14-17)23-20-11-4-3-10-19(20)22-18-9-2-1-6-15(18)12-13-21(22)24-23/h1-2,5-9,12-14,25H,3-4,10-11H2

>  <InChI Key>  (123) 
RIVDNMVHQJCAMC-UHFFFAOYSA-N

>  <PERCENTSP3>  (123) 
17.4

>  <Link>  (123) 
https://www.chemdiv.com/catalog/screening-compounds/compound-1661-1364/

>  <MFCDNUMBER>  (123) 
MFCD01030345

>  <STEREO>  (123) 
ACHIRAL

>  <State>  (123) 
Solid

>  <Similarity score>  (123) 
0.22

$$$$
3-(4-ethoxyphenyl)-6,8-difluoro-1-(4-fluorophenyl)-1H-pyrazolo[4,3-c]quinoline
     RDKit          2D

 31 35  0  0  0  0  0  0  0  0999 V2000
   -1.5756    0.4393    0.0000 N   0  0  0  0  0  0  0  0  0  0  0  0
   -0.9125   -1.0244    0.0000 C   0  0  0  0  0  0  0  0  0  0  0  0
   -1.7885   -0.5255    0.0000 C   0  0  0  0  0  0  0  0  0  0  0  0
   -0.5687    0.5457    0.0000 N   0  0  0  0  0  0  0  0  0  0  0  0
   -0.1474   -0.3458    0.0000 C   0  0  0  0  0  0  0  0  0  0  0  0
   -2.6687   -1.0244    0.0000 C   0  0  0  0  0  0  0  0  0  0  0  0
   -2.6687   -2.0201    0.0000 C   0  0  0  0  0  0  0  0  0  0  0  0
   -1.7885   -2.5191    0.0000 N   0  0  0  0  0  0  0  0  0  0  0  0
   -0.9125   -2.0201    0.0000 C   0  0  0  0  0  0  0  0  0  0  0  0
   -3.5291   -2.5191    0.0000 C   0  0  0  0  0  0  0  0  0  0  0  0
   -2.2009    1.2108    0.0000 C   0  0  0  0  0  0  0  0  0  0  0  0
   -4.4050   -2.0201    0.0000 C   0  0  0  0  0  0  0  0  0  0  0  0
    0.8550   -0.4501    0.0000 C   0  0  0  0  0  0  0  0  0  0  0  0
   -3.5291   -0.5255    0.0000 C   0  0  0  0  0  0  0  0  0  0  0  0
   -4.4050   -1.0244    0.0000 C   0  0  0  0  0  0  0  0  0  0  0  0
   -3.1655    1.0600    0.0000 C   0  0  0  0  0  0  0  0  0  0  0  0
   -1.8372    2.1311    0.0000 C   0  0  0  0  0  0  0  0  0  0  0  0
    1.4380    0.3636    0.0000 C   0  0  0  0  0  0  0  0  0  0  0  0
    1.2716   -1.3570    0.0000 C   0  0  0  0  0  0  0  0  0  0  0  0
   -3.5291   -3.5169    0.0000 F   0  0  0  0  0  0  0  0  0  0  0  0
   -3.4385    2.7477    0.0000 C   0  0  0  0  0  0  0  0  0  0  0  0
   -5.2745   -0.5255    0.0000 F   0  0  0  0  0  0  0  0  0  0  0  0
    2.8774   -0.6320    0.0000 C   0  0  0  0  0  0  0  0  0  0  0  0
   -3.7952    1.8139    0.0000 C   0  0  0  0  0  0  0  0  0  0  0  0
   -2.4713    2.8983    0.0000 C   0  0  0  0  0  0  0  0  0  0  0  0
    2.2741   -1.4480    0.0000 C   0  0  0  0  0  0  0  0  0  0  0  0
    2.4492    0.2730    0.0000 C   0  0  0  0  0  0  0  0  0  0  0  0
   -4.0726    3.5169    0.0000 F   0  0  0  0  0  0  0  0  0  0  0  0
    3.8687   -0.7229    0.0000 O   0  0  0  0  0  0  0  0  0  0  0  0
    4.2811   -1.6432    0.0000 C   0  0  0  0  0  0  0  0  0  0  0  0
    5.2745   -1.7342    0.0000 C   0  0  0  0  0  0  0  0  0  0  0  0
  2  3  2  0
  1  3  1  0
  1  4  1  0
  4  5  2  0
  2  5  1  0
  3  6  1  0
  6  7  1  0
  7  8  1  0
  8  9  2  0
  2  9  1  0
  7 10  2  0
 10 12  1  0
  1 11  1  0
 12 15  2  0
  5 13  1  0
  6 14  2  0
 14 15  1  0
 11 16  1  0
 11 17  2  0
 13 18  1  0
 13 19  2  0
 10 20  1  0
 21 25  2  0
 21 24  1  0
 15 22  1  0
 23 26  2  0
 23 27  1  0
 16 24  2  0
 17 25  1  0
 19 26  1  0
 18 27  2  0
 21 28  1  0
 23 29  1  0
 29 30  1  0
 30 31  1  0
M  END
>  <IDNUMBER>  (124) 
C350-0829

>  <available>  (124) 
136

>  <H_acceptor>  (124) 
3

>  <H_donor>  (124) 
0

>  <B_rotN>  (124) 
4

>  <N_O>  (124) 
4

>  <logP>  (124) 
5.8247

>  <logD>  (124) 
5.8247

>  <logSw>  (124) 
-5.6284

>  <PSA>  (124) 
30.6039

>  <pKa_ma>  (124) 
29.8521

>  <pKa_mb>  (124) 
2.2647

>  <N_Chirals>  (124) 
0

>  <Name>  (124) 
3-(4-ethoxyphenyl)-6,8-difluoro-1-(4-fluorophenyl)-1H-pyrazolo[4,3-c]quinoline

>  <Smile>  (124) 
CCOc(cc1)ccc1-c(c1cnc2c(F)cc(F)cc2c11)nn1-c(cc1)ccc1F

>  <Color>  (124) 
NOT COLORED

>  <Collection>  (124) 
DC

>  <InChI>  (124) 
InChI=1S/C24H16F3N3O/c1-2-31-18-9-3-14(4-10-18)22-20-13-28-23-19(11-16(26)12-21(23)27)24(20)30(29-22)17-7-5-15(25)6-8-17/h3-13H,2H2,1H3

>  <InChI Key>  (124) 
HRNCXJIVPOGOGJ-UHFFFAOYSA-N

>  <PERCENTSP3>  (124) 
8.3

>  <Link>  (124) 
https://www.chemdiv.com/catalog/screening-compounds/compound-C350-0829/

>  <MFCDNUMBER>  (124) 
MFCD14750695

>  <CLNUMBER>  (124) 
CL4130

>  <STEREO>  (124) 
ACHIRAL

>  <State>  (124) 
Solid

>  <Similarity score>  (124) 
0.22

$$$$
4-bromo-2-(3-methyl-1,2,3,4-tetrahydrobenzo[a]phenanthridin-5-yl)phenol
     RDKit          2D

 27 31  0  0  0  0  0  0  0  0999 V2000
    0.8691   -0.0296    0.0000 C   0  0  0  0  0  0  0  0  0  0  0  0
    0.0296    0.4674    0.0000 C   0  0  0  0  0  0  0  0  0  0  0  0
    0.8691   -1.0053    0.0000 N   0  0  0  0  0  0  0  0  0  0  0  0
   -0.8784   -0.0296    0.0000 C   0  0  0  0  0  0  0  0  0  0  0  0
    1.7422    0.4674    0.0000 C   0  0  0  0  0  0  0  0  0  0  0  0
   -0.8784   -1.0053    0.0000 C   0  0  0  0  0  0  0  0  0  0  0  0
   -0.0042   -1.5023    0.0000 C   0  0  0  0  0  0  0  0  0  0  0  0
   -1.7422   -1.5023    0.0000 C   0  0  0  0  0  0  0  0  0  0  0  0
   -1.7422    0.4674    0.0000 C   0  0  0  0  0  0  0  0  0  0  0  0
    2.5985   -0.0211    0.0000 C   0  0  0  0  0  0  0  0  0  0  0  0
    0.0296    1.4853    0.0000 C   0  0  0  0  0  0  0  0  0  0  0  0
    1.7422    1.4853    0.0000 C   0  0  0  0  0  0  0  0  0  0  0  0
   -0.0042   -2.4959    0.0000 C   0  0  0  0  0  0  0  0  0  0  0  0
   -1.7422   -2.4959    0.0000 C   0  0  0  0  0  0  0  0  0  0  0  0
   -0.8784   -2.9929    0.0000 C   0  0  0  0  0  0  0  0  0  0  0  0
    3.4812    0.4588    0.0000 C   0  0  0  0  0  0  0  0  0  0  0  0
    2.6503    1.9740    0.0000 C   0  0  0  0  0  0  0  0  0  0  0  0
   -1.7422    1.4938    0.0000 C   0  0  0  0  0  0  0  0  0  0  0  0
    3.4812    1.4346    0.0000 C   0  0  0  0  0  0  0  0  0  0  0  0
   -0.8616    1.9991    0.0000 C   0  0  0  0  0  0  0  0  0  0  0  0
    2.5985   -1.0053    0.0000 O   0  0  0  0  0  0  0  0  0  0  0  0
    2.6588    2.9421    0.0000 Br  0  0  0  0  0  0  0  0  0  0  0  0
   -2.6154   -1.0053    0.0000 C   0  0  0  0  0  0  0  0  0  0  0  0
   -2.6154   -2.9929    0.0000 C   0  0  0  0  0  0  0  0  0  0  0  0
   -0.8616    2.9929    0.0000 C   0  0  0  0  0  0  0  0  0  0  0  0
   -3.4812   -1.5023    0.0000 C   0  0  0  0  0  0  0  0  0  0  0  0
   -3.4812   -2.4959    0.0000 C   0  0  0  0  0  0  0  0  0  0  0  0
  1  2  1  0
  1  3  2  0
  2  4  2  0
  4  6  1  0
  1  5  1  0
  6  7  2  0
  3  7  1  0
  6  8  1  0
  8 14  2  0
  4  9  1  0
  9 18  1  0
  5 10  1  0
  2 11  1  0
  5 12  2  0
  7 13  1  0
 14 15  1  0
 13 15  2  0
 10 16  2  0
 12 17  1  0
 18 20  1  0
 17 19  2  0
 16 19  1  0
 11 20  1  0
 20 25  1  0
 10 21  1  0
 17 22  1  0
  8 23  1  0
 14 24  1  0
 23 26  2  0
 26 27  1  0
 24 27  2  0
M  END
>  <IDNUMBER>  (125) 
8013-9905

>  <available>  (125) 
3

>  <H_acceptor>  (125) 
2

>  <H_donor>  (125) 
1

>  <B_rotN>  (125) 
1

>  <N_O>  (125) 
2

>  <logP>  (125) 
7.9977

>  <logD>  (125) 
7.9934

>  <logSw>  (125) 
-6.9891

>  <PSA>  (125) 
25.2652

>  <pKa_ma>  (125) 
9.4175

>  <pKa_mb>  (125) 
3.8946

>  <N_Chirals>  (125) 
1

>  <Name>  (125) 
4-bromo-2-(3-methyl-1,2,3,4-tetrahydrobenzo[a]phenanthridin-5-yl)phenol

>  <Smile>  (125) 
CC(CC1)Cc2c1c1c(cccc3)c3ccc1nc2-c(cc(cc1)Br)c1O

>  <Color>  (125) 
ORANGE

>  <Collection>  (125) 
DC

>  <InChI>  (125) 
InChI=1S/C24H20BrNO/c1-14-6-9-18-19(12-14)24(20-13-16(25)8-11-22(20)27)26-21-10-7-15-4-2-3-5-17(15)23(18)21/h2-5,7-8,10-11,13-14,27H,6,9,12H2,1H3/t14-/m1/s1

>  <InChI Key>  (125) 
ITNNZGDNIQSBEQ-CQSZACIVSA-N

>  <PERCENTSP3>  (125) 
20.83

>  <Link>  (125) 
https://www.chemdiv.com/catalog/screening-compounds/compound-8013-9905/

>  <MFCDNUMBER>  (125) 
MFCD03764925

>  <STEREO>  (125) 
RACEMIC MIXTURE

>  <State>  (125) 
Solid

>  <Similarity score>  (125) 
0.22

$$$$
4-bromo-2-(2-methyl-1,2,3,4-tetrahydrobenzo[a]phenanthridin-5-yl)phenol
     RDKit          2D

 27 31  0  0  0  0  0  0  0  0999 V2000
    0.8653   -0.0036    0.0000 C   0  0  0  0  0  0  0  0  0  0  0  0
    0.8653   -0.9810    0.0000 N   0  0  0  0  0  0  0  0  0  0  0  0
   -0.8744   -0.0036    0.0000 C   0  0  0  0  0  0  0  0  0  0  0  0
    0.0001    0.4937    0.0000 C   0  0  0  0  0  0  0  0  0  0  0  0
    1.7395    0.4937    0.0000 C   0  0  0  0  0  0  0  0  0  0  0  0
   -0.8744   -0.9810    0.0000 C   0  0  0  0  0  0  0  0  0  0  0  0
    0.0001   -1.4783    0.0000 C   0  0  0  0  0  0  0  0  0  0  0  0
   -1.7395   -1.4783    0.0000 C   0  0  0  0  0  0  0  0  0  0  0  0
    0.0083    1.5130    0.0000 C   0  0  0  0  0  0  0  0  0  0  0  0
    2.5969    0.0046    0.0000 C   0  0  0  0  0  0  0  0  0  0  0  0
    1.7395    1.5130    0.0000 C   0  0  0  0  0  0  0  0  0  0  0  0
   -1.7395    0.4937    0.0000 C   0  0  0  0  0  0  0  0  0  0  0  0
    0.0001   -2.4730    0.0000 C   0  0  0  0  0  0  0  0  0  0  0  0
   -1.7395   -2.4730    0.0000 C   0  0  0  0  0  0  0  0  0  0  0  0
   -0.8744   -2.9704    0.0000 C   0  0  0  0  0  0  0  0  0  0  0  0
    3.4804    0.4845    0.0000 C   0  0  0  0  0  0  0  0  0  0  0  0
    2.6488    2.0012    0.0000 C   0  0  0  0  0  0  0  0  0  0  0  0
   -0.8744    2.0275    0.0000 C   0  0  0  0  0  0  0  0  0  0  0  0
    3.4804    1.4611    0.0000 C   0  0  0  0  0  0  0  0  0  0  0  0
   -1.7395    1.5211    0.0000 C   0  0  0  0  0  0  0  0  0  0  0  0
    2.5969   -0.9810    0.0000 O   0  0  0  0  0  0  0  0  0  0  0  0
    2.6488    2.9704    0.0000 Br  0  0  0  0  0  0  0  0  0  0  0  0
   -2.6142   -0.9810    0.0000 C   0  0  0  0  0  0  0  0  0  0  0  0
   -2.6142   -2.9704    0.0000 C   0  0  0  0  0  0  0  0  0  0  0  0
   -2.5969    2.0358    0.0000 C   0  0  0  0  0  0  0  0  0  0  0  0
   -3.4804   -1.4783    0.0000 C   0  0  0  0  0  0  0  0  0  0  0  0
   -3.4804   -2.4730    0.0000 C   0  0  0  0  0  0  0  0  0  0  0  0
  1  2  2  0
  3  4  2  0
  1  4  1  0
  1  5  1  0
  3  6  1  0
  6  7  2  0
  2  7  1  0
  6  8  1  0
  4  9  1  0
  5 10  1  0
  5 11  2  0
  3 12  1  0
 12 20  1  0
  7 13  1  0
  8 14  2  0
 14 15  1  0
 13 15  2  0
 10 16  2  0
 16 19  1  0
 11 17  1  0
  9 18  1  0
 17 19  2  0
 18 20  1  0
 20 25  1  0
 10 21  1  0
 17 22  1  0
  8 23  1  0
 14 24  1  0
 24 27  2  0
 23 26  2  0
 26 27  1  0
M  END
>  <IDNUMBER>  (126) 
8013-9899

>  <available>  (126) 
5

>  <H_acceptor>  (126) 
2

>  <H_donor>  (126) 
1

>  <B_rotN>  (126) 
1

>  <N_O>  (126) 
2

>  <logP>  (126) 
7.9977

>  <logD>  (126) 
7.9921

>  <logSw>  (126) 
-6.9891

>  <PSA>  (126) 
25.2652

>  <pKa_ma>  (126) 
9.4175

>  <pKa_mb>  (126) 
4.9116

>  <N_Chirals>  (126) 
1

>  <Name>  (126) 
4-bromo-2-(2-methyl-1,2,3,4-tetrahydrobenzo[a]phenanthridin-5-yl)phenol

>  <Smile>  (126) 
CC(CC1)Cc2c1c(-c(cc(cc1)Br)c1O)nc1ccc(cccc3)c3c12

>  <Color>  (126) 
NOT COLORED

>  <Collection>  (126) 
DC

>  <InChI>  (126) 
InChI=1S/C24H20BrNO/c1-14-6-9-18-19(12-14)23-17-5-3-2-4-15(17)7-10-21(23)26-24(18)20-13-16(25)8-11-22(20)27/h2-5,7-8,10-11,13-14,27H,6,9,12H2,1H3/t14-/m1/s1

>  <InChI Key>  (126) 
RENXPLYJQBTTFQ-CQSZACIVSA-N

>  <PERCENTSP3>  (126) 
20.83

>  <Link>  (126) 
https://www.chemdiv.com/catalog/screening-compounds/compound-8013-9899/

>  <MFCDNUMBER>  (126) 
MFCD03764921

>  <STEREO>  (126) 
RACEMIC MIXTURE

>  <State>  (126) 
Solid

>  <Similarity score>  (126) 
0.22

$$$$
4-({1-[(4-chloro-2-fluorophenyl)methyl]-3-methylpiperidin-3-yl}methoxy)pyridine
     RDKit          2D

 24 26  0  0  0  0  0  0  0  0999 V2000
    0.2314   -1.3211    0.0000 N   0  0  0  0  0  0  0  0  0  0  0  0
    1.7315   -2.1838    0.0000 C   0  0  0  0  0  0  0  0  0  0  0  0
    2.2316   -1.3211    0.0000 C   0  0  0  0  0  0  0  0  0  0  0  0
    0.7314   -2.1838    0.0000 C   0  0  0  0  0  0  0  0  0  0  0  0
   -1.2689   -0.4541    0.0000 C   0  0  0  0  0  0  0  0  0  0  0  0
    3.2317   -1.3211    0.0000 C   0  0  0  0  0  0  0  0  0  0  0  0
   -0.7689   -1.3211    0.0000 C   0  0  0  0  0  0  0  0  0  0  0  0
   -4.7320    2.5464    0.0000 N   0  0  0  0  0  0  0  0  0  0  0  0
    2.2316   -3.0464    0.0000 C   0  0  0  0  0  0  0  0  0  0  0  0
    3.7319   -2.1838    0.0000 C   0  0  0  0  0  0  0  0  0  0  0  0
   -2.1358    0.0458    0.0000 C   0  0  0  0  0  0  0  0  0  0  0  0
   -2.1358    1.0461    0.0000 O   0  0  0  0  0  0  0  0  0  0  0  0
    1.7315   -0.4541    0.0000 F   0  0  0  0  0  0  0  0  0  0  0  0
   -2.9985    1.5460    0.0000 C   0  0  0  0  0  0  0  0  0  0  0  0
    3.2317   -3.0464    0.0000 C   0  0  0  0  0  0  0  0  0  0  0  0
    4.7320   -2.1838    0.0000 Cl  0  0  0  0  0  0  0  0  0  0  0  0
    0.7314   -0.4541    0.0000 C   0  0  0  0  0  0  0  0  0  0  0  0
   -2.9985    2.5464    0.0000 C   0  0  0  0  0  0  0  0  0  0  0  0
   -3.8693    1.0461    0.0000 C   0  0  0  0  0  0  0  0  0  0  0  0
   -0.7689    0.4169    0.0000 C   0  0  0  0  0  0  0  0  0  0  0  0
   -4.7320    1.5460    0.0000 C   0  0  0  0  0  0  0  0  0  0  0  0
   -3.8693    3.0464    0.0000 C   0  0  0  0  0  0  0  0  0  0  0  0
    0.2314    0.4169    0.0000 C   0  0  0  0  0  0  0  0  0  0  0  0
   -2.1358   -0.9544    0.0000 C   0  0  0  0  0  0  0  0  0  0  0  0
  2  4  1  0
  2  3  2  0
  1  4  1  0
  5  7  1  0
  3  6  1  0
  6 10  2  0
  1  7  1  0
  8 21  2  0
  8 22  1  0
  2  9  1  0
 10 15  1  0
  5 11  1  0
 11 12  1  0
  3 13  1  0
 12 14  1  0
  9 15  2  0
 10 16  1  0
  1 17  1  0
 14 18  1  0
 14 19  2  0
 20 23  1  0
  5 20  1  0
 19 21  1  0
 18 22  2  0
 17 23  1  0
  5 24  1  0
M  END
>  <IDNUMBER>  (127) 
CM2933-4408

>  <available>  (127) 
1

>  <H_acceptor>  (127) 
3

>  <H_donor>  (127) 
0

>  <B_rotN>  (127) 
5

>  <N_O>  (127) 
3

>  <logP>  (127) 
3.8092

>  <logD>  (127) 
3.3676

>  <logSw>  (127) 
-4.244

>  <PSA>  (127) 
20.5602

>  <pKa_ma>  (127) 
27.1681

>  <pKa_mb>  (127) 
7.6466

>  <N_Chirals>  (127) 
1

>  <Name>  (127) 
4-({1-[(4-chloro-2-fluorophenyl)methyl]-3-methylpiperidin-3-yl}methoxy)pyridine

>  <Smile>  (127) 
CC1(COc2ccncc2)CN(Cc(ccc(Cl)c2)c2F)CCC1

>  <Color>  (127) 
YELLOW

>  <Collection>  (127) 
IC

>  <InChI>  (127) 
InChI=1S/C19H22ClFN2O/c1-19(14-24-17-5-8-22-9-6-17)7-2-10-23(13-19)12-15-3-4-16(20)11-18(15)21/h3-6,8-9,11H,2,7,10,12-14H2,1H3/t19-/m0/s1

>  <InChI Key>  (127) 
YXHNAFWIKGJCRX-IBGZPJMESA-N

>  <PERCENTSP3>  (127) 
42.1

>  <Link>  (127) 
https://www.chemdiv.com/catalog/screening-compounds/compound-CM2933-4408/

>  <MFCDNUMBER>  (127) 
MFCD30467076

>  <CLNUMBER>  (127) 
CM2933

>  <STEREO>  (127) 
RACEMIC MIXTURE

>  <State>  (127) 
Liquid

>  <Similarity score>  (127) 
0.22

$$$$
ethyl 4-(1,3,3-trimethyl-6-azabicyclo[3.2.1]octan-6-yl)benzo[h]quinoline-3-carbo
     RDKit          2D

 30 34  0  0  0  0  0  0  0  0999 V2000
   -0.4277    0.7189    0.0000 N   0  0  0  0  0  0  0  0  0  0  0  0
   -0.4277   -0.2732    0.0000 C   0  0  0  0  0  0  0  0  0  0  0  0
   -1.2933   -0.7745    0.0000 C   0  0  0  0  0  0  0  0  0  0  0  0
    0.4279   -0.7745    0.0000 C   0  0  0  0  0  0  0  0  0  0  0  0
   -1.2933   -1.7866    0.0000 C   0  0  0  0  0  0  0  0  0  0  0  0
    0.4226    1.1290    0.0000 C   0  0  0  0  0  0  0  0  0  0  0  0
   -0.4226   -2.2780    0.0000 N   0  0  0  0  0  0  0  0  0  0  0  0
   -1.5212    2.0654    0.0000 C   0  0  0  0  0  0  0  0  0  0  0  0
    1.2933   -0.2682    0.0000 C   0  0  0  0  0  0  0  0  0  0  0  0
    0.4279   -1.7866    0.0000 C   0  0  0  0  0  0  0  0  0  0  0  0
   -1.3033    1.1290    0.0000 C   0  0  0  0  0  0  0  0  0  0  0  0
   -2.1688   -2.2929    0.0000 C   0  0  0  0  0  0  0  0  0  0  0  0
   -2.1688   -0.2732    0.0000 C   0  0  0  0  0  0  0  0  0  0  0  0
   -0.3063    1.7615    0.0000 C   0  0  0  0  0  0  0  0  0  0  0  0
    0.0432    2.8245    0.0000 C   0  0  0  0  0  0  0  0  0  0  0  0
    0.6251    2.0803    0.0000 C   0  0  0  0  0  0  0  0  0  0  0  0
   -0.9390    2.8245    0.0000 C   0  0  0  0  0  0  0  0  0  0  0  0
    1.2780    0.7442    0.0000 O   0  0  0  0  0  0  0  0  0  0  0  0
   -3.0346   -0.7896    0.0000 C   0  0  0  0  0  0  0  0  0  0  0  0
   -3.0346   -1.7920    0.0000 C   0  0  0  0  0  0  0  0  0  0  0  0
    2.1691   -0.7592    0.0000 O   0  0  0  0  0  0  0  0  0  0  0  0
   -2.4726    2.2982    0.0000 C   0  0  0  0  0  0  0  0  0  0  0  0
   -2.1539   -3.2899    0.0000 C   0  0  0  0  0  0  0  0  0  0  0  0
    1.0302    3.2550    0.0000 C   0  0  0  0  0  0  0  0  0  0  0  0
   -0.0428    3.7962    0.0000 C   0  0  0  0  0  0  0  0  0  0  0  0
   -3.8900   -2.2929    0.0000 C   0  0  0  0  0  0  0  0  0  0  0  0
    3.0245   -0.2682    0.0000 C   0  0  0  0  0  0  0  0  0  0  0  0
   -3.0193   -3.7962    0.0000 C   0  0  0  0  0  0  0  0  0  0  0  0
    3.8900   -0.7542    0.0000 C   0  0  0  0  0  0  0  0  0  0  0  0
   -3.8900   -3.3052    0.0000 C   0  0  0  0  0  0  0  0  0  0  0  0
  1  2  1  0
  2  3  1  0
  2  4  2  0
  3  5  1  0
  1  6  1  0
  7 10  2  0
  5  7  1  0
  8 11  1  0
  8 14  1  0
  4  9  1  0
  4 10  1  0
  1 11  1  0
  5 12  2  0
  3 13  2  0
  6 14  1  0
 15 16  1  0
 15 17  1  0
  6 16  1  0
  8 17  1  0
  9 18  2  0
 13 19  1  0
 19 20  2  0
 12 20  1  0
  9 21  1  0
  8 22  1  0
 12 23  1  0
 15 24  1  0
 15 25  1  0
 20 26  1  0
 21 27  1  0
 23 28  2  0
 28 30  1  0
 27 29  1  0
 26 30  2  0
M  END
>  <IDNUMBER>  (128) 
4789-4706

>  <available>  (128) 
28

>  <H_acceptor>  (128) 
4

>  <H_donor>  (128) 
0

>  <B_rotN>  (128) 
4

>  <N_O>  (128) 
4

>  <logP>  (128) 
6.1641

>  <logD>  (128) 
6.1636

>  <logSw>  (128) 
-6.5727

>  <PSA>  (128) 
32.88

>  <pKa_ma>  (128) 
21.8868

>  <pKa_mb>  (128) 
4.463

>  <N_Chirals>  (128) 
2

>  <Name>  (128) 
ethyl 4-(1,3,3-trimethyl-6-azabicyclo[3.2.1]octan-6-yl)benzo[h]quinoline-3-carboxylate

>  <Smile>  (128) 
CCOC(c(cnc1c(cccc2)c2ccc11)c1N1C(C2)CC(C)(C)CC2(C)C1)=O

>  <Color>  (128) 
NOT COLORED

>  <Collection>  (128) 
DC

>  <InChI>  (128) 
InChI=1S/C26H30N2O2/c1-5-30-24(29)21-14-27-22-19-9-7-6-8-17(19)10-11-20(22)23(21)28-16-26(4)13-18(28)12-25(2,3)15-26/h6-11,14,18H,5,12-13,15-16H2,1-4H3

>  <InChI Key>  (128) 
UFYAETATUWMPOE-UHFFFAOYSA-N

>  <PERCENTSP3>  (128) 
46.2

>  <Link>  (128) 
https://www.chemdiv.com/catalog/screening-compounds/compound-4789-4706/

>  <MFCDNUMBER>  (128) 
MFCD02968898

>  <CLNUMBER>  (128) 
CL1568

>  <STEREO>  (128) 
MIXTURE OF STEREOISOMERS

>  <State>  (128) 
Solid

>  <Similarity score>  (128) 
0.22

$$$$
N-[2-(3,4-dimethoxyphenyl)ethyl]-1-(9-fluoro[1]benzothieno[3,2-d]pyrimidin-4-yl)
     RDKit          2D

 35 39  0  0  0  0  0  0  0  0999 V2000
   -3.8025    0.7665    0.0000 C   0  0  0  0  0  0  0  0  0  0  0  0
   -4.4026    1.5783    0.0000 C   0  0  0  0  0  0  0  0  0  0  0  0
   -4.3876   -0.0504    0.0000 S   0  0  0  0  0  0  0  0  0  0  0  0
   -2.8141    0.8723    0.0000 C   0  0  0  0  0  0  0  0  0  0  0  0
   -5.3559    1.2555    0.0000 C   0  0  0  0  0  0  0  0  0  0  0  0
   -2.2240    0.0604    0.0000 N   0  0  0  0  0  0  0  0  0  0  0  0
   -5.3457    0.2520    0.0000 C   0  0  0  0  0  0  0  0  0  0  0  0
   -0.6505   -0.6406    0.0000 C   0  0  0  0  0  0  0  0  0  0  0  0
   -2.4054    1.7850    0.0000 N   0  0  0  0  0  0  0  0  0  0  0  0
   -1.2404    0.1764    0.0000 C   0  0  0  0  0  0  0  0  0  0  0  0
    0.3432   -0.5346    0.0000 C   0  0  0  0  0  0  0  0  0  0  0  0
   -3.9944    2.4911    0.0000 N   0  0  0  0  0  0  0  0  0  0  0  0
    4.9122   -0.9280    0.0000 C   0  0  0  0  0  0  0  0  0  0  0  0
   -6.2182    1.7600    0.0000 C   0  0  0  0  0  0  0  0  0  0  0  0
   -2.9956    2.5973    0.0000 C   0  0  0  0  0  0  0  0  0  0  0  0
    5.5021   -1.7449    0.0000 C   0  0  0  0  0  0  0  0  0  0  0  0
    0.7514    0.3731    0.0000 O   0  0  0  0  0  0  0  0  0  0  0  0
    3.9034   -1.0340    0.0000 C   0  0  0  0  0  0  0  0  0  0  0  0
    0.9229   -1.3467    0.0000 N   0  0  0  0  0  0  0  0  0  0  0  0
    5.0835   -2.6477    0.0000 C   0  0  0  0  0  0  0  0  0  0  0  0
   -2.6325   -0.8472    0.0000 C   0  0  0  0  0  0  0  0  0  0  0  0
    3.4950   -1.9567    0.0000 C   0  0  0  0  0  0  0  0  0  0  0  0
   -6.2232    2.7535    0.0000 F   0  0  0  0  0  0  0  0  0  0  0  0
   -6.2182   -0.2472    0.0000 C   0  0  0  0  0  0  0  0  0  0  0  0
    4.0999   -2.7535    0.0000 C   0  0  0  0  0  0  0  0  0  0  0  0
    5.3256   -0.0204    0.0000 O   0  0  0  0  0  0  0  0  0  0  0  0
   -1.0590   -1.5485    0.0000 C   0  0  0  0  0  0  0  0  0  0  0  0
    6.4905   -1.6392    0.0000 O   0  0  0  0  0  0  0  0  0  0  0  0
    1.9215   -1.2460    0.0000 C   0  0  0  0  0  0  0  0  0  0  0  0
   -2.0576   -1.6542    0.0000 C   0  0  0  0  0  0  0  0  0  0  0  0
   -7.0807    0.2520    0.0000 C   0  0  0  0  0  0  0  0  0  0  0  0
   -7.0807    1.2555    0.0000 C   0  0  0  0  0  0  0  0  0  0  0  0
    2.5066   -2.0479    0.0000 C   0  0  0  0  0  0  0  0  0  0  0  0
    6.3193    0.0905    0.0000 C   0  0  0  0  0  0  0  0  0  0  0  0
    7.0807   -2.4411    0.0000 C   0  0  0  0  0  0  0  0  0  0  0  0
  1  2  2  0
  1  3  1  0
  1  4  1  0
  2  5  1  0
  5  7  1  0
  4  6  1  0
  3  7  1  0
  8 10  1  0
  4  9  2  0
  6 10  1  0
  8 11  1  0
  2 12  1  0
 12 15  2  0
 13 18  1  0
  5 14  2  0
  9 15  1  0
 16 20  1  0
 13 16  2  0
 11 17  2  0
 18 22  2  0
 11 19  1  0
 20 25  2  0
  6 21  1  0
 22 33  1  0
 14 23  1  0
  7 24  2  0
 22 25  1  0
 13 26  1  0
 27 30  1  0
  8 27  1  0
 16 28  1  0
 19 29  1  0
 21 30  1  0
 24 31  1  0
 14 32  1  0
 31 32  2  0
 29 33  1  0
 26 34  1  0
 28 35  1  0
M  END
>  <IDNUMBER>  (129) 
C860-0997

>  <available>  (129) 
6

>  <H_acceptor>  (129) 
6

>  <H_donor>  (129) 
1

>  <B_rotN>  (129) 
8

>  <N_O>  (129) 
7

>  <logP>  (129) 
4.0851

>  <logD>  (129) 
4.0481

>  <logSw>  (129) 
-4.4591

>  <PSA>  (129) 
64.115

>  <pKa_ma>  (129) 
13.7295

>  <pKa_mb>  (129) 
6.3482

>  <N_Chirals>  (129) 
1

>  <Name>  (129) 
N-[2-(3,4-dimethoxyphenyl)ethyl]-1-(9-fluoro[1]benzothieno[3,2-d]pyrimidin-4-yl)piperidine-3-carboxamide

>  <Smile>  (129) 
COc(ccc(CCNC(C(CCC1)CN1c(ncnc12)c1sc1c2c(F)ccc1)=O)c1)c1OC

>  <Color>  (129) 
NOT COLORED

>  <Collection>  (129) 
DC

>  <InChI>  (129) 
InChI=1S/C26H27FN4O3S/c1-33-19-9-8-16(13-20(19)34-2)10-11-28-26(32)17-5-4-12-31(14-17)25-24-23(29-15-30-25)22-18(27)6-3-7-21(22)35-24/h3,6-9,13,15,17H,4-5,10-12,14H2,1-2H3,(H,28,32)/t17-/m0/s1

>  <InChI Key>  (129) 
KJYODNDVAAANNY-KRWDZBQOSA-N

>  <PERCENTSP3>  (129) 
34.6

>  <Link>  (129) 
https://www.chemdiv.com/catalog/screening-compounds/compound-C860-0997/

>  <MFCDNUMBER>  (129) 
MFCD14801703

>  <CLNUMBER>  (129) 
CL4052B

>  <STEREO>  (129) 
RACEMIC MIXTURE

>  <State>  (129) 
Solid

>  <Similarity score>  (129) 
0.22

$$$$
1-(2-chloro-9H-purin-6-yl)-N-[2-(5-methoxy-1H-indol-3-yl)ethyl]piperidine-3-carb
     RDKit          2D

 32 36  0  0  0  0  0  0  0  0999 V2000
    2.1603   -2.1833    0.0000 C   0  0  0  0  0  0  0  0  0  0  0  0
    3.0313   -2.6708    0.0000 C   0  0  0  0  0  0  0  0  0  0  0  0
    2.1563   -1.1875    0.0000 N   0  0  0  0  0  0  0  0  0  0  0  0
    3.8980   -2.1667    0.0000 C   0  0  0  0  0  0  0  0  0  0  0  0
    3.8812   -1.1624    0.0000 N   0  0  0  0  0  0  0  0  0  0  0  0
    1.2979   -2.6958    0.0000 N   0  0  0  0  0  0  0  0  0  0  0  0
    3.0061   -0.6792    0.0000 C   0  0  0  0  0  0  0  0  0  0  0  0
    4.6521   -2.8375    0.0000 N   0  0  0  0  0  0  0  0  0  0  0  0
   -0.4271   -2.7000    0.0000 C   0  0  0  0  0  0  0  0  0  0  0  0
   -4.6521    1.0874    0.0000 N   0  0  0  0  0  0  0  0  0  0  0  0
   -3.1854    1.7541    0.0000 C   0  0  0  0  0  0  0  0  0  0  0  0
    3.2481   -3.6627    0.0000 N   0  0  0  0  0  0  0  0  0  0  0  0
    0.4313   -2.1875    0.0000 C   0  0  0  0  0  0  0  0  0  0  0  0
   -1.2979   -2.2167    0.0000 C   0  0  0  0  0  0  0  0  0  0  0  0
   -3.9771    0.3541    0.0000 C   0  0  0  0  0  0  0  0  0  0  0  0
   -3.0646    0.7709    0.0000 C   0  0  0  0  0  0  0  0  0  0  0  0
    4.2522   -3.7583    0.0000 C   0  0  0  0  0  0  0  0  0  0  0  0
   -4.1561    1.9500    0.0000 C   0  0  0  0  0  0  0  0  0  0  0  0
   -2.5273    2.5084    0.0000 C   0  0  0  0  0  0  0  0  0  0  0  0
   -2.1645   -2.7167    0.0000 O   0  0  0  0  0  0  0  0  0  0  0  0
   -1.3147   -1.2042    0.0000 N   0  0  0  0  0  0  0  0  0  0  0  0
    2.9897    0.3251    0.0000 Cl  0  0  0  0  0  0  0  0  0  0  0  0
   -4.4854    2.9000    0.0000 C   0  0  0  0  0  0  0  0  0  0  0  0
   -2.8561    3.4584    0.0000 C   0  0  0  0  0  0  0  0  0  0  0  0
    1.3104   -3.6835    0.0000 C   0  0  0  0  0  0  0  0  0  0  0  0
   -3.8187    3.6583    0.0000 C   0  0  0  0  0  0  0  0  0  0  0  0
   -0.4229   -3.7124    0.0000 C   0  0  0  0  0  0  0  0  0  0  0  0
   -2.1811   -0.7167    0.0000 C   0  0  0  0  0  0  0  0  0  0  0  0
   -2.1895    0.2751    0.0000 C   0  0  0  0  0  0  0  0  0  0  0  0
   -2.1895    4.1958    0.0000 O   0  0  0  0  0  0  0  0  0  0  0  0
    0.4521   -4.1958    0.0000 C   0  0  0  0  0  0  0  0  0  0  0  0
   -1.2231    4.0042    0.0000 C   0  0  0  0  0  0  0  0  0  0  0  0
  1  2  2  0
  1  3  1  0
  2  4  1  0
  5  7  1  0
  4  5  2  0
  1  6  1  0
  3  7  2  0
  4  8  1  0
  9 13  1  0
 10 15  1  0
 10 18  1  0
 11 16  1  0
  2 12  1  0
  6 13  1  0
  9 14  1  0
 15 16  2  0
 16 29  1  0
 12 17  1  0
  8 17  2  0
 11 18  1  0
 11 19  2  0
 14 20  2  0
 14 21  1  0
  7 22  1  0
 18 23  2  0
 19 24  1  0
  6 25  1  0
 24 26  2  0
 23 26  1  0
 27 31  1  0
  9 27  1  0
 21 28  1  0
 28 29  1  0
 24 30  1  0
 25 31  1  0
 30 32  1  0
M  END
>  <IDNUMBER>  (130) 
IB03-7469

>  <available>  (130) 
50

>  <H_acceptor>  (130) 
6

>  <H_donor>  (130) 
3

>  <B_rotN>  (130) 
7

>  <N_O>  (130) 
9

>  <logP>  (130) 
2.72

>  <logD>  (130) 
2.67

>  <logSw>  (130) 
-3.5

>  <PSA>  (130) 
128.03

>  <pKa_ma>  (130) 
8.29

>  <pKa_mb>  (130) 
4.6

>  <N_Chirals>  (130) 
1

>  <Name>  (130) 
1-(2-chloro-9H-purin-6-yl)-N-[2-(5-methoxy-1H-indol-3-yl)ethyl]piperidine-3-carboxamide

>  <Smile>  (130) 
COc(cc1)cc2c1[nH]cc2CCNC(C(CCC1)CN1c1c2[nH]cnc2nc(Cl)n1)=O

>  <Color>  (130) 
NOT COLORED

>  <Collection>  (130) 
DC

>  <InChI>  (130) 
InChI=1S/C22H24ClN7O2/c1-32-15-4-5-17-16(9-15)13(10-25-17)6-7-24-21(31)14-3-2-8-30(11-14)20-18-19(27-12-26-18)28-22(23)29-20/h4-5,9-10,12,14,25H,2-3,6-8,11H2,1H3,(H,24,31)(H,26,27,28,29)/t14-/m0/s1

>  <InChI Key>  (130) 
ZDMMGPGNXLEIBH-AWEZNQCLSA-N

>  <PERCENTSP3>  (130) 
36.4

>  <Link>  (130) 
https://www.chemdiv.com/catalog/screening-compounds/compound-IB03-7469/

>  <STEREO>  (130) 
RACEMIC MIXTURE

>  <State>  (130) 
Solid

>  <Similarity score>  (130) 
0.22

$$$$
4-bromo-2-(1,2,3,4-tetrahydrobenzo[a]phenanthridin-5-yl)phenol
     RDKit          2D

 26 30  0  0  0  0  0  0  0  0999 V2000
    0.8398    0.0255    0.0000 C   0  0  0  0  0  0  0  0  0  0  0  0
    0.8652   -0.9825    0.0000 N   0  0  0  0  0  0  0  0  0  0  0  0
   -0.8652   -0.0128    0.0000 C   0  0  0  0  0  0  0  0  0  0  0  0
    1.7208    0.5071    0.0000 C   0  0  0  0  0  0  0  0  0  0  0  0
    0.0222    0.5071    0.0000 C   0  0  0  0  0  0  0  0  0  0  0  0
   -0.8652   -0.9825    0.0000 C   0  0  0  0  0  0  0  0  0  0  0  0
    0.0222   -1.4959    0.0000 C   0  0  0  0  0  0  0  0  0  0  0  0
   -1.7208   -1.4959    0.0000 C   0  0  0  0  0  0  0  0  0  0  0  0
    2.5765    0.0255    0.0000 C   0  0  0  0  0  0  0  0  0  0  0  0
    1.7208    1.5085    0.0000 C   0  0  0  0  0  0  0  0  0  0  0  0
    0.0222   -2.5036    0.0000 C   0  0  0  0  0  0  0  0  0  0  0  0
   -1.7208   -2.5036    0.0000 C   0  0  0  0  0  0  0  0  0  0  0  0
   -0.8652   -2.9916    0.0000 C   0  0  0  0  0  0  0  0  0  0  0  0
    3.4257    0.5071    0.0000 C   0  0  0  0  0  0  0  0  0  0  0  0
    2.6081    2.0283    0.0000 C   0  0  0  0  0  0  0  0  0  0  0  0
   -1.7273    0.5071    0.0000 C   0  0  0  0  0  0  0  0  0  0  0  0
    3.4512    1.5085    0.0000 C   0  0  0  0  0  0  0  0  0  0  0  0
    2.5765   -0.9635    0.0000 O   0  0  0  0  0  0  0  0  0  0  0  0
    2.6145    3.0170    0.0000 Br  0  0  0  0  0  0  0  0  0  0  0  0
    0.0030    1.5275    0.0000 C   0  0  0  0  0  0  0  0  0  0  0  0
   -2.5955   -0.9825    0.0000 C   0  0  0  0  0  0  0  0  0  0  0  0
   -2.5638   -3.0170    0.0000 C   0  0  0  0  0  0  0  0  0  0  0  0
   -1.7463    1.5085    0.0000 C   0  0  0  0  0  0  0  0  0  0  0  0
   -0.8841    2.0283    0.0000 C   0  0  0  0  0  0  0  0  0  0  0  0
   -3.4512   -1.4959    0.0000 C   0  0  0  0  0  0  0  0  0  0  0  0
   -3.4196   -2.5036    0.0000 C   0  0  0  0  0  0  0  0  0  0  0  0
  1  2  2  0
  3  5  2  0
  1  4  1  0
  1  5  1  0
  3  6  1  0
  2  7  1  0
  6  7  2  0
  6  8  1  0
  4  9  1  0
  4 10  2  0
  7 11  1  0
  8 12  2  0
 11 13  2  0
 12 13  1  0
  9 14  2  0
 14 17  1  0
 10 15  1  0
  3 16  1  0
 15 17  2  0
  9 18  1  0
 15 19  1  0
  5 20  1  0
  8 21  1  0
 12 22  1  0
 23 24  1  0
 16 23  1  0
 20 24  1  0
 21 25  2  0
 25 26  1  0
 22 26  2  0
M  END
>  <IDNUMBER>  (131) 
0820-0874

>  <available>  (131) 
90

>  <H_acceptor>  (131) 
2

>  <H_donor>  (131) 
1

>  <B_rotN>  (131) 
1

>  <N_O>  (131) 
2

>  <logP>  (131) 
7.6446

>  <logD>  (131) 
7.6397

>  <logSw>  (131) 
-7.2274

>  <PSA>  (131) 
25.2652

>  <pKa_ma>  (131) 
9.4175

>  <pKa_mb>  (131) 
4.6059

>  <N_Chirals>  (131) 
0

>  <Name>  (131) 
4-bromo-2-(1,2,3,4-tetrahydrobenzo[a]phenanthridin-5-yl)phenol

>  <Smile>  (131) 
Oc(ccc(Br)c1)c1-c1nc2ccc(cccc3)c3c2c2c1CCCC2

>  <Color>  (131) 
NOT COLORED

>  <Collection>  (131) 
DC

>  <InChI>  (131) 
InChI=1S/C23H18BrNO/c24-15-10-12-21(26)19(13-15)23-18-8-4-3-7-17(18)22-16-6-2-1-5-14(16)9-11-20(22)25-23/h1-2,5-6,9-13,26H,3-4,7-8H2

>  <InChI Key>  (131) 
VYCBOSNMZXCYER-UHFFFAOYSA-N

>  <PERCENTSP3>  (131) 
17.4

>  <Link>  (131) 
https://www.chemdiv.com/catalog/screening-compounds/compound-0820-0874/

>  <MFCDNUMBER>  (131) 
MFCD00363361

>  <STEREO>  (131) 
ACHIRAL

>  <State>  (131) 
Solid

>  <Similarity score>  (131) 
0.22

$$$$
ethyl 1-[2-(4-methoxyphenyl)quinazolin-4-yl]piperidine-3-carboxylate
     RDKit          2D

 29 32  0  0  0  0  0  0  0  0999 V2000
    0.0099    0.2551    0.0000 C   0  0  0  0  0  0  0  0  0  0  0  0
    0.8801   -0.2352    0.0000 N   0  0  0  0  0  0  0  0  0  0  0  0
    0.0099    1.2652    0.0000 N   0  0  0  0  0  0  0  0  0  0  0  0
    0.8801   -1.2453    0.0000 C   0  0  0  0  0  0  0  0  0  0  0  0
   -0.8502   -0.2352    0.0000 C   0  0  0  0  0  0  0  0  0  0  0  0
    0.0099   -1.7356    0.0000 N   0  0  0  0  0  0  0  0  0  0  0  0
   -0.8602    2.7656    0.0000 C   0  0  0  0  0  0  0  0  0  0  0  0
   -0.8502   -1.2453    0.0000 C   0  0  0  0  0  0  0  0  0  0  0  0
   -0.8602    1.7754    0.0000 C   0  0  0  0  0  0  0  0  0  0  0  0
   -1.7308    3.2758    0.0000 C   0  0  0  0  0  0  0  0  0  0  0  0
    1.7304   -1.7356    0.0000 C   0  0  0  0  0  0  0  0  0  0  0  0
   -1.7206    4.2563    0.0000 O   0  0  0  0  0  0  0  0  0  0  0  0
    2.6008   -1.2453    0.0000 C   0  0  0  0  0  0  0  0  0  0  0  0
    1.7304   -2.7458    0.0000 C   0  0  0  0  0  0  0  0  0  0  0  0
    0.8602    1.7754    0.0000 C   0  0  0  0  0  0  0  0  0  0  0  0
   -2.5907    2.7656    0.0000 O   0  0  0  0  0  0  0  0  0  0  0  0
    3.4609   -2.7458    0.0000 C   0  0  0  0  0  0  0  0  0  0  0  0
    2.5907   -3.2362    0.0000 C   0  0  0  0  0  0  0  0  0  0  0  0
    3.4709   -1.7356    0.0000 C   0  0  0  0  0  0  0  0  0  0  0  0
   -1.7206    0.2551    0.0000 C   0  0  0  0  0  0  0  0  0  0  0  0
   -0.0099    3.2758    0.0000 C   0  0  0  0  0  0  0  0  0  0  0  0
    4.3313   -3.2561    0.0000 O   0  0  0  0  0  0  0  0  0  0  0  0
    0.8602    2.7656    0.0000 C   0  0  0  0  0  0  0  0  0  0  0  0
   -1.7206   -1.7356    0.0000 C   0  0  0  0  0  0  0  0  0  0  0  0
   -3.4613    3.2758    0.0000 C   0  0  0  0  0  0  0  0  0  0  0  0
    4.3112   -4.2563    0.0000 C   0  0  0  0  0  0  0  0  0  0  0  0
   -2.5907   -0.2352    0.0000 C   0  0  0  0  0  0  0  0  0  0  0  0
   -4.3313    2.7656    0.0000 C   0  0  0  0  0  0  0  0  0  0  0  0
   -2.5907   -1.2453    0.0000 C   0  0  0  0  0  0  0  0  0  0  0  0
  1  2  2  0
  1  3  1  0
  2  4  1  0
  1  5  1  0
  6  8  1  0
  4  6  2  0
  7  9  1  0
  7 21  1  0
  5  8  1  0
  3  9  1  0
  7 10  1  0
  4 11  1  0
 10 12  2  0
 11 13  1  0
 11 14  2  0
  3 15  1  0
 10 16  1  0
 17 18  2  0
 14 18  1  0
 13 19  2  0
 17 19  1  0
  5 20  2  0
 21 23  1  0
 17 22  1  0
 15 23  1  0
  8 24  2  0
 24 29  1  0
 16 25  1  0
 22 26  1  0
 20 27  1  0
 25 28  1  0
 27 29  2  0
M  END
>  <IDNUMBER>  (132) 
G516-0074

>  <available>  (132) 
104

>  <H_acceptor>  (132) 
6

>  <H_donor>  (132) 
0

>  <B_rotN>  (132) 
6

>  <N_O>  (132) 
6

>  <logP>  (132) 
5.3182

>  <logD>  (132) 
4.8769

>  <logSw>  (132) 
-5.4967

>  <PSA>  (132) 
49.869

>  <pKa_ma>  (132) 
21.7963

>  <pKa_mb>  (132) 
7.6461

>  <N_Chirals>  (132) 
1

>  <Name>  (132) 
ethyl 1-[2-(4-methoxyphenyl)quinazolin-4-yl]piperidine-3-carboxylate

>  <Smile>  (132) 
CCOC(C(CCC1)CN1c1nc(-c(cc2)ccc2OC)nc2ccccc12)=O

>  <Color>  (132) 
YELLOW

>  <Collection>  (132) 
NC

>  <InChI>  (132) 
InChI=1S/C23H25N3O3/c1-3-29-23(27)17-7-6-14-26(15-17)22-19-8-4-5-9-20(19)24-21(25-22)16-10-12-18(28-2)13-11-16/h4-5,8-13,17H,3,6-7,14-15H2,1-2H3/t17-/m0/s1

>  <InChI Key>  (132) 
AWUZWUKXPBFSLP-KRWDZBQOSA-N

>  <PERCENTSP3>  (132) 
34.8

>  <Link>  (132) 
https://www.chemdiv.com/catalog/screening-compounds/compound-G516-0074/

>  <MFCDNUMBER>  (132) 
MFCD15015017

>  <CLNUMBER>  (132) 
CL2243

>  <STEREO>  (132) 
RACEMIC MIXTURE

>  <State>  (132) 
Liquid

>  <Similarity score>  (132) 
0.22

$$$$
2-{benzyl[9-(methylsulfanyl)-4-phenyl-2,3-dihydro-1H-cyclopenta[4',5']pyrido[3',
     RDKit          2D

 35 40  0  0  0  0  0  0  0  0999 V2000
    0.7019   -0.0520    0.0000 C   0  0  0  0  0  0  0  0  0  0  0  0
   -0.8104    0.5228    0.0000 C   0  0  0  0  0  0  0  0  0  0  0  0
   -0.8104   -0.4852    0.0000 C   0  0  0  0  0  0  0  0  0  0  0  0
    0.1603    0.7810    0.0000 C   0  0  0  0  0  0  0  0  0  0  0  0
    1.7017   -0.0021    0.0000 C   0  0  0  0  0  0  0  0  0  0  0  0
    0.1395   -0.7936    0.0000 S   0  0  0  0  0  0  0  0  0  0  0  0
    2.1557    0.8853    0.0000 N   0  0  0  0  0  0  0  0  0  0  0  0
   -1.6727   -0.9851    0.0000 N   0  0  0  0  0  0  0  0  0  0  0  0
   -1.6727    1.0228    0.0000 C   0  0  0  0  0  0  0  0  0  0  0  0
   -2.5351   -0.4852    0.0000 C   0  0  0  0  0  0  0  0  0  0  0  0
    1.6143    1.7351    0.0000 C   0  0  0  0  0  0  0  0  0  0  0  0
    0.6144    1.6726    0.0000 N   0  0  0  0  0  0  0  0  0  0  0  0
   -2.5351    0.5228    0.0000 C   0  0  0  0  0  0  0  0  0  0  0  0
    2.2474   -0.8395    0.0000 N   0  0  0  0  0  0  0  0  0  0  0  0
    3.2472   -0.7812    0.0000 C   0  0  0  0  0  0  0  0  0  0  0  0
   -3.4141   -0.9893    0.0000 C   0  0  0  0  0  0  0  0  0  0  0  0
    2.0682    2.6265    0.0000 S   0  0  0  0  0  0  0  0  0  0  0  0
   -1.8851    1.9975    0.0000 C   0  0  0  0  0  0  0  0  0  0  0  0
    3.7096    0.1145    0.0000 C   0  0  0  0  0  0  0  0  0  0  0  0
   -3.2933    1.1935    0.0000 C   0  0  0  0  0  0  0  0  0  0  0  0
    1.7892   -1.7351    0.0000 C   0  0  0  0  0  0  0  0  0  0  0  0
   -2.8725    2.0976    0.0000 C   0  0  0  0  0  0  0  0  0  0  0  0
    1.8849   -3.4597    0.0000 O   0  0  0  0  0  0  0  0  0  0  0  0
   -3.4141   -1.9893    0.0000 C   0  0  0  0  0  0  0  0  0  0  0  0
   -4.2929   -0.4852    0.0000 C   0  0  0  0  0  0  0  0  0  0  0  0
    1.5224    3.4597    0.0000 C   0  0  0  0  0  0  0  0  0  0  0  0
    2.3391   -2.5641    0.0000 C   0  0  0  0  0  0  0  0  0  0  0  0
    4.7012    0.1729    0.0000 C   0  0  0  0  0  0  0  0  0  0  0  0
    3.1555    0.9518    0.0000 C   0  0  0  0  0  0  0  0  0  0  0  0
   -4.2763   -2.5016    0.0000 C   0  0  0  0  0  0  0  0  0  0  0  0
   -5.1553   -0.9893    0.0000 C   0  0  0  0  0  0  0  0  0  0  0  0
    3.6095    1.8433    0.0000 C   0  0  0  0  0  0  0  0  0  0  0  0
    5.1553    1.0684    0.0000 C   0  0  0  0  0  0  0  0  0  0  0  0
    4.6093    1.9018    0.0000 C   0  0  0  0  0  0  0  0  0  0  0  0
   -5.1553   -2.0017    0.0000 C   0  0  0  0  0  0  0  0  0  0  0  0
  2  4  1  0
  3  6  1  0
  2  3  2  0
  1  4  2  0
  1  5  1  0
  1  6  1  0
  5  7  2  0
  3  8  1  0
  2  9  1  0
  8 10  2  0
 10 13  1  0
  7 11  1  0
  4 12  1  0
 11 12  2  0
  9 13  2  0
  5 14  1  0
 14 15  1  0
 10 16  1  0
 11 17  1  0
  9 18  1  0
 15 19  1  0
 13 20  1  0
 20 22  1  0
 14 21  1  0
 18 22  1  0
 23 27  1  0
 16 24  1  0
 16 25  2  0
 17 26  1  0
 21 27  1  0
 19 28  1  0
 19 29  2  0
 24 30  2  0
 25 31  1  0
 29 32  1  0
 28 33  2  0
 32 34  2  0
 33 34  1  0
 31 35  2  0
 30 35  1  0
M  END
>  <IDNUMBER>  (133) 
IB08-5510

>  <available>  (133) 
50

>  <H_acceptor>  (133) 
5

>  <H_donor>  (133) 
1

>  <B_rotN>  (133) 
7

>  <N_O>  (133) 
5

>  <logP>  (133) 
6.83

>  <logD>  (133) 
6.83

>  <logSw>  (133) 
-6.5

>  <PSA>  (133) 
100.67

>  <pKa_ma>  (133) 
14

>  <pKa_mb>  (133) 
2.82

>  <N_Chirals>  (133) 
0

>  <Name>  (133) 
2-{benzyl[9-(methylsulfanyl)-4-phenyl-2,3-dihydro-1H-cyclopenta[4',5']pyrido[3',2':4,5]thieno[3,2-d]pyrimidin-7-yl]amino}ethan-1-ol

>  <Smile>  (133) 
CSc1nc(N(CCO)Cc2ccccc2)c2sc3nc(-c4ccccc4)c(CCC4)c4c3c2n1

>  <Color>  (133) 
NOT COLORED

>  <Collection>  (133) 
DC

>  <InChI>  (133) 
InChI=1S/C28H26N4OS2/c1-34-28-30-24-22-20-13-8-14-21(20)23(19-11-6-3-7-12-19)29-27(22)35-25(24)26(31-28)32(15-16-33)17-18-9-4-2-5-10-18/h2-7,9-12,33H,8,13-17H2,1H3

>  <InChI Key>  (133) 
IDOTUVDTJFFWRS-UHFFFAOYSA-N

>  <PERCENTSP3>  (133) 
25

>  <Link>  (133) 
https://www.chemdiv.com/catalog/screening-compounds/compound-IB08-5510/

>  <STEREO>  (133) 
ACHIRAL

>  <State>  (133) 
Solid

>  <Similarity score>  (133) 
0.22

$$$$
4-(2,3-dihydro-1H-benzo[f]cyclopenta[c]quinolin-4-yl)benzene-1,2-diol
     RDKit          2D

 25 29  0  0  0  0  0  0  0  0999 V2000
    0.4544   -0.5618    0.0000 N   0  0  0  0  0  0  0  0  0  0  0  0
    0.4544    0.4669    0.0000 C   0  0  0  0  0  0  0  0  0  0  0  0
   -1.3062    0.4417    0.0000 C   0  0  0  0  0  0  0  0  0  0  0  0
   -1.2684   -0.5618    0.0000 C   0  0  0  0  0  0  0  0  0  0  0  0
   -0.4229    0.9528    0.0000 C   0  0  0  0  0  0  0  0  0  0  0  0
   -0.3976   -1.0729    0.0000 C   0  0  0  0  0  0  0  0  0  0  0  0
    1.3064    1.0159    0.0000 C   0  0  0  0  0  0  0  0  0  0  0  0
   -2.1456   -1.0729    0.0000 C   0  0  0  0  0  0  0  0  0  0  0  0
    2.2151    0.5364    0.0000 C   0  0  0  0  0  0  0  0  0  0  0  0
    3.0291    1.0729    0.0000 C   0  0  0  0  0  0  0  0  0  0  0  0
    3.0039    2.0762    0.0000 C   0  0  0  0  0  0  0  0  0  0  0  0
   -0.3976   -2.0762    0.0000 C   0  0  0  0  0  0  0  0  0  0  0  0
    1.2685    2.0130    0.0000 C   0  0  0  0  0  0  0  0  0  0  0  0
   -2.1204   -2.1077    0.0000 C   0  0  0  0  0  0  0  0  0  0  0  0
    2.1204    2.5619    0.0000 C   0  0  0  0  0  0  0  0  0  0  0  0
   -1.2684   -2.5621    0.0000 C   0  0  0  0  0  0  0  0  0  0  0  0
   -2.0256    1.1421    0.0000 C   0  0  0  0  0  0  0  0  0  0  0  0
    3.8810    0.6183    0.0000 O   0  0  0  0  0  0  0  0  0  0  0  0
   -0.6310    1.9247    0.0000 C   0  0  0  0  0  0  0  0  0  0  0  0
    3.8432    2.5874    0.0000 O   0  0  0  0  0  0  0  0  0  0  0  0
   -1.6092    2.0130    0.0000 C   0  0  0  0  0  0  0  0  0  0  0  0
   -3.0291   -0.5932    0.0000 C   0  0  0  0  0  0  0  0  0  0  0  0
   -2.9975   -2.5874    0.0000 C   0  0  0  0  0  0  0  0  0  0  0  0
   -3.8810   -1.1044    0.0000 C   0  0  0  0  0  0  0  0  0  0  0  0
   -3.8810   -2.0762    0.0000 C   0  0  0  0  0  0  0  0  0  0  0  0
  1  2  2  0
  3  4  1  0
  3  5  2  0
  4  6  2  0
  2  5  1  0
  1  6  1  0
  2  7  1  0
  4  8  1  0
  8 14  2  0
  7  9  1  0
  9 10  2  0
 11 15  2  0
 10 11  1  0
  6 12  1  0
  7 13  2  0
 14 16  1  0
 13 15  1  0
 12 16  2  0
  3 17  1  0
 17 21  1  0
 10 18  1  0
  5 19  1  0
 11 20  1  0
 19 21  1  0
  8 22  1  0
 14 23  1  0
 22 24  2  0
 24 25  1  0
 23 25  2  0
M  END
>  <IDNUMBER>  (134) 
0820-0892

>  <available>  (134) 
2

>  <H_acceptor>  (134) 
3

>  <H_donor>  (134) 
2

>  <B_rotN>  (134) 
1

>  <N_O>  (134) 
3

>  <logP>  (134) 
5.177

>  <logD>  (134) 
5.13

>  <logSw>  (134) 
-6.118

>  <PSA>  (134) 
42.18

>  <pKa_ma>  (134) 
8.376

>  <pKa_mb>  (134) 
5.303

>  <N_Chirals>  (134) 
0

>  <Name>  (134) 
4-(2,3-dihydro-1H-benzo[f]cyclopenta[c]quinolin-4-yl)benzene-1,2-diol

>  <Smile>  (134) 
Oc(ccc(-c1nc2ccc(cccc3)c3c2c2c1CCC2)c1)c1O

>  <Color>  (134) 
NOT COLORED

>  <Collection>  (134) 
DC

>  <InChI>  (134) 
InChI=1S/C22H17NO2/c24-19-11-9-14(12-20(19)25)22-17-7-3-6-16(17)21-15-5-2-1-4-13(15)8-10-18(21)23-22/h1-2,4-5,8-12,24-25H,3,6-7H2

>  <InChI Key>  (134) 
OGERJCPZFKTIGD-UHFFFAOYSA-N

>  <PERCENTSP3>  (134) 
13.6

>  <Link>  (134) 
https://www.chemdiv.com/catalog/screening-compounds/compound-0820-0892/

>  <MFCDNUMBER>  (134) 
MFCD00373616

>  <STEREO>  (134) 
ACHIRAL

>  <State>  (134) 
Solid

>  <Similarity score>  (134) 
0.22

$$$$
2-(4-methylphenyl)-4-(3-methylpiperidin-1-yl)quinazoline
     RDKit          2D

 24 27  0  0  0  0  0  0  0  0999 V2000
   -0.8648   -0.2272    0.0000 C   0  0  0  0  0  0  0  0  0  0  0  0
    0.0063    0.2729    0.0000 N   0  0  0  0  0  0  0  0  0  0  0  0
    0.0063    1.2733    0.0000 C   0  0  0  0  0  0  0  0  0  0  0  0
   -0.8648   -1.2276    0.0000 N   0  0  0  0  0  0  0  0  0  0  0  0
   -1.7317    0.2729    0.0000 C   0  0  0  0  0  0  0  0  0  0  0  0
   -0.8648    1.7775    0.0000 N   0  0  0  0  0  0  0  0  0  0  0  0
   -1.7317    1.2733    0.0000 C   0  0  0  0  0  0  0  0  0  0  0  0
    0.8731    1.7775    0.0000 C   0  0  0  0  0  0  0  0  0  0  0  0
   -1.7358   -1.7276    0.0000 C   0  0  0  0  0  0  0  0  0  0  0  0
    1.7192    1.2690    0.0000 C   0  0  0  0  0  0  0  0  0  0  0  0
    0.8816    2.7569    0.0000 C   0  0  0  0  0  0  0  0  0  0  0  0
    0.0063   -1.7276    0.0000 C   0  0  0  0  0  0  0  0  0  0  0  0
    1.7401    3.2405    0.0000 C   0  0  0  0  0  0  0  0  0  0  0  0
    2.5863    1.7566    0.0000 C   0  0  0  0  0  0  0  0  0  0  0  0
   -2.5986   -0.2272    0.0000 C   0  0  0  0  0  0  0  0  0  0  0  0
    2.5986    2.7361    0.0000 C   0  0  0  0  0  0  0  0  0  0  0  0
   -1.7442   -2.7237    0.0000 C   0  0  0  0  0  0  0  0  0  0  0  0
   -2.5986    1.7775    0.0000 C   0  0  0  0  0  0  0  0  0  0  0  0
   -0.0062   -2.7487    0.0000 C   0  0  0  0  0  0  0  0  0  0  0  0
   -0.8774   -3.2405    0.0000 C   0  0  0  0  0  0  0  0  0  0  0  0
    3.4655    3.2363    0.0000 C   0  0  0  0  0  0  0  0  0  0  0  0
   -2.6278   -3.2238    0.0000 C   0  0  0  0  0  0  0  0  0  0  0  0
   -3.4655    0.2729    0.0000 C   0  0  0  0  0  0  0  0  0  0  0  0
   -3.4655    1.2733    0.0000 C   0  0  0  0  0  0  0  0  0  0  0  0
  1  2  2  0
  2  3  1  0
  1  4  1  0
  1  5  1  0
  3  6  2  0
  6  7  1  0
  5  7  2  0
  3  8  1  0
  4  9  1  0
  8 10  2  0
  8 11  1  0
  4 12  1  0
 11 13  2  0
 10 14  1  0
  5 15  1  0
 14 16  2  0
 13 16  1  0
  9 17  1  0
  7 18  1  0
 12 19  1  0
 19 20  1  0
 17 20  1  0
 16 21  1  0
 17 22  1  0
 15 23  2  0
 23 24  1  0
 18 24  2  0
M  END
>  <IDNUMBER>  (135) 
V008-4958

>  <available>  (135) 
4

>  <H_acceptor>  (135) 
2

>  <H_donor>  (135) 
0

>  <B_rotN>  (135) 
2

>  <N_O>  (135) 
3

>  <logP>  (135) 
6.1459

>  <logD>  (135) 
4.9168

>  <logSw>  (135) 
-5.9258

>  <PSA>  (135) 
21.5719

>  <pKa_ma>  (135) 
22.2789

>  <pKa_mb>  (135) 
8.6026

>  <N_Chirals>  (135) 
1

>  <Name>  (135) 
2-(4-methylphenyl)-4-(3-methylpiperidin-1-yl)quinazoline

>  <Smile>  (135) 
CC(CCC1)CN1c1nc(-c2ccc(C)cc2)nc2ccccc12

>  <Color>  (135) 
NOT COLORED

>  <Collection>  (135) 
DC

>  <InChI>  (135) 
InChI=1S/C21H23N3/c1-15-9-11-17(12-10-15)20-22-19-8-4-3-7-18(19)21(23-20)24-13-5-6-16(2)14-24/h3-4,7-12,16H,5-6,13-14H2,1-2H3/t16-/m0/s1

>  <InChI Key>  (135) 
LJZSJQRATDDPHQ-INIZCTEOSA-N

>  <PERCENTSP3>  (135) 
33.33

>  <Link>  (135) 
https://www.chemdiv.com/catalog/screening-compounds/compound-V008-4958/

>  <MFCDNUMBER>  (135) 
MFCD08052376

>  <STEREO>  (135) 
RACEMIC MIXTURE

>  <State>  (135) 
Solid

>  <Similarity score>  (135) 
0.22

$$$$
2-(2-amino-5-phenylpyrimidin-4-yl)-5-[(2-chloro-6-fluorophenyl)methoxy]phenol
     RDKit          2D

 30 33  0  0  0  0  0  0  0  0999 V2000
    2.5890   -0.5020    0.0000 C   0  0  0  0  0  0  0  0  0  0  0  0
    1.7268    0.0022    0.0000 C   0  0  0  0  0  0  0  0  0  0  0  0
    3.4512    0.0022    0.0000 C   0  0  0  0  0  0  0  0  0  0  0  0
    2.5890   -1.5017    0.0000 N   0  0  0  0  0  0  0  0  0  0  0  0
   -2.5972    1.5018    0.0000 C   0  0  0  0  0  0  0  0  0  0  0  0
    3.4638   -2.0016    0.0000 C   0  0  0  0  0  0  0  0  0  0  0  0
    0.8601   -0.5020    0.0000 C   0  0  0  0  0  0  0  0  0  0  0  0
    4.3260   -1.5017    0.0000 N   0  0  0  0  0  0  0  0  0  0  0  0
    4.3136   -0.4936    0.0000 C   0  0  0  0  0  0  0  0  0  0  0  0
   -1.7350    1.0019    0.0000 C   0  0  0  0  0  0  0  0  0  0  0  0
    1.7268    1.0019    0.0000 C   0  0  0  0  0  0  0  0  0  0  0  0
   -0.0022    0.0022    0.0000 C   0  0  0  0  0  0  0  0  0  0  0  0
   -2.5931    2.5015    0.0000 C   0  0  0  0  0  0  0  0  0  0  0  0
   -3.4554    1.0019    0.0000 C   0  0  0  0  0  0  0  0  0  0  0  0
    3.4470    1.0019    0.0000 C   0  0  0  0  0  0  0  0  0  0  0  0
   -0.8643    1.5018    0.0000 O   0  0  0  0  0  0  0  0  0  0  0  0
   -0.0022    1.0019    0.0000 C   0  0  0  0  0  0  0  0  0  0  0  0
    3.4638   -3.0013    0.0000 N   0  0  0  0  0  0  0  0  0  0  0  0
    0.8601    1.5018    0.0000 C   0  0  0  0  0  0  0  0  0  0  0  0
    0.8601   -1.5017    0.0000 O   0  0  0  0  0  0  0  0  0  0  0  0
   -3.4554    0.0022    0.0000 Cl  0  0  0  0  0  0  0  0  0  0  0  0
   -1.7308    3.0013    0.0000 F   0  0  0  0  0  0  0  0  0  0  0  0
   -4.3260    2.5015    0.0000 C   0  0  0  0  0  0  0  0  0  0  0  0
   -4.3260    1.4892    0.0000 C   0  0  0  0  0  0  0  0  0  0  0  0
   -3.4638    3.0013    0.0000 C   0  0  0  0  0  0  0  0  0  0  0  0
    4.3136    1.5018    0.0000 C   0  0  0  0  0  0  0  0  0  0  0  0
    2.5848    1.4850    0.0000 C   0  0  0  0  0  0  0  0  0  0  0  0
    2.5722    2.4848    0.0000 C   0  0  0  0  0  0  0  0  0  0  0  0
    4.3094    2.5015    0.0000 C   0  0  0  0  0  0  0  0  0  0  0  0
    3.4346    3.0013    0.0000 C   0  0  0  0  0  0  0  0  0  0  0  0
  1  2  1  0
  1  3  1  0
  1  4  2  0
  5 10  1  0
  4  6  1  0
  2  7  2  0
  6  8  2  0
  3  9  2  0
  8  9  1  0
 10 16  1  0
  2 11  1  0
  7 12  1  0
 12 17  2  0
  5 13  2  0
  5 14  1  0
  3 15  1  0
 16 17  1  0
 17 19  1  0
  6 18  1  0
 11 19  2  0
  7 20  1  0
 14 21  1  0
 13 22  1  0
 23 24  1  0
 23 25  2  0
 14 24  2  0
 13 25  1  0
 15 26  2  0
 15 27  1  0
 27 28  2  0
 26 29  1  0
 28 30  1  0
 29 30  2  0
M  END
>  <IDNUMBER>  (136) 
Y041-2664

>  <available>  (136) 
49

>  <H_acceptor>  (136) 
4

>  <H_donor>  (136) 
3

>  <B_rotN>  (136) 
5

>  <N_O>  (136) 
5

>  <logP>  (136) 
5.6598

>  <logD>  (136) 
5.6583

>  <logSw>  (136) 
-5.645

>  <PSA>  (136) 
63.8

>  <pKa_ma>  (136) 
9.88

>  <pKa_mb>  (136) 
3.0878

>  <N_Chirals>  (136) 
0

>  <Name>  (136) 
2-(2-amino-5-phenylpyrimidin-4-yl)-5-[(2-chloro-6-fluorophenyl)methoxy]phenol

>  <Smile>  (136) 
Nc1ncc(-c2ccccc2)c(-c(ccc(OCc(c(F)ccc2)c2Cl)c2)c2O)n1

>  <Color>  (136) 
BROWN

>  <Collection>  (136) 
DC

>  <InChI>  (136) 
InChI=1S/C23H17ClFN3O2/c24-19-7-4-8-20(25)18(19)13-30-15-9-10-16(21(29)11-15)22-17(12-27-23(26)28-22)14-5-2-1-3-6-14/h1-12,29H,13H2,(H2,26,27,28)

>  <InChI Key>  (136) 
RPCBRFDUSCLSAE-UHFFFAOYSA-N

>  <PERCENTSP3>  (136) 
4.3

>  <Link>  (136) 
https://www.chemdiv.com/catalog/screening-compounds/compound-Y041-2664/

>  <MFCDNUMBER>  (136) 
MFCD06606355

>  <STEREO>  (136) 
ACHIRAL

>  <State>  (136) 
Solid

>  <Similarity score>  (136) 
0.21

$$$$
N-butyl-N-ethyl-2-(4-methylphenyl)quinazolin-4-amine
     RDKit          2D

 24 26  0  0  0  0  0  0  0  0999 V2000
   -0.0173    0.4926    0.0000 N   0  0  0  0  0  0  0  0  0  0  0  0
   -0.8902    0.9896    0.0000 C   0  0  0  0  0  0  0  0  0  0  0  0
   -0.0173   -0.5012    0.0000 C   0  0  0  0  0  0  0  0  0  0  0  0
   -1.7413    0.4926    0.0000 C   0  0  0  0  0  0  0  0  0  0  0  0
   -0.8902   -0.9982    0.0000 N   0  0  0  0  0  0  0  0  0  0  0  0
   -1.7413   -0.5012    0.0000 C   0  0  0  0  0  0  0  0  0  0  0  0
   -0.8902    1.9878    0.0000 N   0  0  0  0  0  0  0  0  0  0  0  0
    0.8513   -0.9982    0.0000 C   0  0  0  0  0  0  0  0  0  0  0  0
    0.8513   -1.9963    0.0000 C   0  0  0  0  0  0  0  0  0  0  0  0
    1.7199   -0.5012    0.0000 C   0  0  0  0  0  0  0  0  0  0  0  0
    2.5970   -0.9982    0.0000 C   0  0  0  0  0  0  0  0  0  0  0  0
    1.7026   -2.4890    0.0000 C   0  0  0  0  0  0  0  0  0  0  0  0
   -2.6099    0.9896    0.0000 C   0  0  0  0  0  0  0  0  0  0  0  0
    2.5970   -1.9963    0.0000 C   0  0  0  0  0  0  0  0  0  0  0  0
   -2.6099   -0.9982    0.0000 C   0  0  0  0  0  0  0  0  0  0  0  0
   -1.7413    2.4890    0.0000 C   0  0  0  0  0  0  0  0  0  0  0  0
   -0.0173    2.4890    0.0000 C   0  0  0  0  0  0  0  0  0  0  0  0
    3.4829   -2.4890    0.0000 C   0  0  0  0  0  0  0  0  0  0  0  0
    0.8513    1.9878    0.0000 C   0  0  0  0  0  0  0  0  0  0  0  0
    1.7199    2.4890    0.0000 C   0  0  0  0  0  0  0  0  0  0  0  0
   -3.4829    0.4926    0.0000 C   0  0  0  0  0  0  0  0  0  0  0  0
   -2.6014    1.9878    0.0000 C   0  0  0  0  0  0  0  0  0  0  0  0
   -3.4829   -0.5012    0.0000 C   0  0  0  0  0  0  0  0  0  0  0  0
    2.5970    1.9878    0.0000 C   0  0  0  0  0  0  0  0  0  0  0  0
  1  2  2  0
  1  3  1  0
  2  4  1  0
  4  6  2  0
  3  5  2  0
  5  6  1  0
  2  7  1  0
  3  8  1  0
  8  9  2  0
  8 10  1  0
 10 11  2  0
  9 12  1  0
  4 13  1  0
 11 14  1  0
 12 14  2  0
  6 15  1  0
  7 16  1  0
  7 17  1  0
 14 18  1  0
 17 19  1  0
 19 20  1  0
 13 21  2  0
 21 23  1  0
 16 22  1  0
 15 23  2  0
 20 24  1  0
M  END
>  <IDNUMBER>  (137) 
3909-8322

>  <available>  (137) 
3

>  <H_acceptor>  (137) 
2

>  <H_donor>  (137) 
0

>  <B_rotN>  (137) 
6

>  <N_O>  (137) 
3

>  <logP>  (137) 
6.7322

>  <logD>  (137) 
5.5032

>  <logSw>  (137) 
-6.1014

>  <PSA>  (137) 
21.1759

>  <pKa_ma>  (137) 
22.6496

>  <pKa_mb>  (137) 
8.6026

>  <N_Chirals>  (137) 
0

>  <Name>  (137) 
N-butyl-N-ethyl-2-(4-methylphenyl)quinazolin-4-amine

>  <Smile>  (137) 
CCCCN(CC)c1nc(-c2ccc(C)cc2)nc2ccccc12

>  <Color>  (137) 
NOT COLORED

>  <Collection>  (137) 
NC

>  <InChI>  (137) 
InChI=1S/C21H25N3/c1-4-6-15-24(5-2)21-18-9-7-8-10-19(18)22-20(23-21)17-13-11-16(3)12-14-17/h7-14H,4-6,15H2,1-3H3

>  <InChI Key>  (137) 
OSUTWCIGCBAWBI-UHFFFAOYSA-N

>  <PERCENTSP3>  (137) 
33.3

>  <Link>  (137) 
https://www.chemdiv.com/catalog/screening-compounds/compound-3909-8322/

>  <MFCDNUMBER>  (137) 
MFCD14708947

>  <CLNUMBER>  (137) 
CL2243

>  <STEREO>  (137) 
ACHIRAL

>  <State>  (137) 
Solid

>  <Similarity score>  (137) 
0.21

$$$$
2-(4-chlorophenyl)-4-(3-methylpiperidin-1-yl)quinazoline
     RDKit          2D

 24 27  0  0  0  0  0  0  0  0999 V2000
   -0.8603    0.2450    0.0000 C   0  0  0  0  0  0  0  0  0  0  0  0
    0.0100   -0.2450    0.0000 N   0  0  0  0  0  0  0  0  0  0  0  0
    0.0100   -1.2553    0.0000 C   0  0  0  0  0  0  0  0  0  0  0  0
   -0.8603    1.2553    0.0000 N   0  0  0  0  0  0  0  0  0  0  0  0
   -1.7205   -0.2450    0.0000 C   0  0  0  0  0  0  0  0  0  0  0  0
   -0.8603   -1.7454    0.0000 N   0  0  0  0  0  0  0  0  0  0  0  0
   -1.7205   -1.2553    0.0000 C   0  0  0  0  0  0  0  0  0  0  0  0
    0.8603   -1.7454    0.0000 C   0  0  0  0  0  0  0  0  0  0  0  0
   -1.7305    1.7654    0.0000 C   0  0  0  0  0  0  0  0  0  0  0  0
    0.8603   -2.7558    0.0000 C   0  0  0  0  0  0  0  0  0  0  0  0
    1.7305   -1.2553    0.0000 C   0  0  0  0  0  0  0  0  0  0  0  0
   -0.0100    1.7654    0.0000 C   0  0  0  0  0  0  0  0  0  0  0  0
    2.5906   -2.7558    0.0000 C   0  0  0  0  0  0  0  0  0  0  0  0
    1.7202   -3.2457    0.0000 C   0  0  0  0  0  0  0  0  0  0  0  0
    2.6007   -1.7454    0.0000 C   0  0  0  0  0  0  0  0  0  0  0  0
   -2.5906    0.2450    0.0000 C   0  0  0  0  0  0  0  0  0  0  0  0
    3.4609   -3.2657    0.0000 Cl  0  0  0  0  0  0  0  0  0  0  0  0
   -1.7305    2.7558    0.0000 C   0  0  0  0  0  0  0  0  0  0  0  0
   -2.5906   -1.7454    0.0000 C   0  0  0  0  0  0  0  0  0  0  0  0
   -0.0100    2.7558    0.0000 C   0  0  0  0  0  0  0  0  0  0  0  0
   -0.8802    3.2657    0.0000 C   0  0  0  0  0  0  0  0  0  0  0  0
   -2.6007    3.2657    0.0000 C   0  0  0  0  0  0  0  0  0  0  0  0
   -3.4609   -0.2450    0.0000 C   0  0  0  0  0  0  0  0  0  0  0  0
   -3.4609   -1.2553    0.0000 C   0  0  0  0  0  0  0  0  0  0  0  0
  1  2  2  0
  2  3  1  0
  1  4  1  0
  1  5  1  0
  6  7  1  0
  3  6  2  0
  5  7  1  0
  3  8  1  0
  4  9  1  0
  8 10  2  0
  8 11  1  0
  4 12  1  0
 13 15  1  0
 13 14  2  0
 10 14  1  0
 11 15  2  0
  5 16  2  0
 13 17  1  0
  9 18  1  0
 18 21  1  0
  7 19  2  0
 12 20  1  0
 20 21  1  0
 18 22  1  0
 16 23  1  0
 23 24  2  0
 19 24  1  0
M  END
>  <IDNUMBER>  (138) 
G516-1252

>  <available>  (138) 
105

>  <H_acceptor>  (138) 
2

>  <H_donor>  (138) 
0

>  <B_rotN>  (138) 
2

>  <N_O>  (138) 
3

>  <logP>  (138) 
6.3172

>  <logD>  (138) 
5.7328

>  <logSw>  (138) 
-6.5903

>  <PSA>  (138) 
21.5719

>  <pKa_ma>  (138) 
22.2789

>  <pKa_mb>  (138) 
7.8534

>  <N_Chirals>  (138) 
1

>  <Name>  (138) 
2-(4-chlorophenyl)-4-(3-methylpiperidin-1-yl)quinazoline

>  <Smile>  (138) 
CC(CCC1)CN1c1nc(-c(cc2)ccc2Cl)nc2ccccc12

>  <Color>  (138) 
NOT COLORED

>  <Collection>  (138) 
NC

>  <InChI>  (138) 
InChI=1S/C20H20ClN3/c1-14-5-4-12-24(13-14)20-17-6-2-3-7-18(17)22-19(23-20)15-8-10-16(21)11-9-15/h2-3,6-11,14H,4-5,12-13H2,1H3/t14-/m0/s1

>  <InChI Key>  (138) 
BMXNJNXHOXAUJB-AWEZNQCLSA-N

>  <PERCENTSP3>  (138) 
30

>  <Link>  (138) 
https://www.chemdiv.com/catalog/screening-compounds/compound-G516-1252/

>  <MFCDNUMBER>  (138) 
MFCD15015115

>  <CLNUMBER>  (138) 
CL2243

>  <STEREO>  (138) 
RACEMIC MIXTURE

>  <State>  (138) 
Solid

>  <Similarity score>  (138) 
0.21

$$$$
1-(2-ethylphenyl)-6,8-difluoro-3-phenyl-1H-pyrazolo[4,3-c]quinoline
     RDKit          2D

 29 33  0  0  0  0  0  0  0  0999 V2000
   -0.3324    0.5831    0.0000 N   0  0  0  0  0  0  0  0  0  0  0  0
    0.3180   -0.8993    0.0000 C   0  0  0  0  0  0  0  0  0  0  0  0
   -0.5447   -0.3996    0.0000 C   0  0  0  0  0  0  0  0  0  0  0  0
    0.6506    0.6894    0.0000 N   0  0  0  0  0  0  0  0  0  0  0  0
    1.0605   -0.2283    0.0000 C   0  0  0  0  0  0  0  0  0  0  0  0
   -1.4072   -0.9096    0.0000 C   0  0  0  0  0  0  0  0  0  0  0  0
   -1.4072   -1.9149    0.0000 C   0  0  0  0  0  0  0  0  0  0  0  0
   -0.5343   -2.4145    0.0000 N   0  0  0  0  0  0  0  0  0  0  0  0
   -0.9993    1.3256    0.0000 C   0  0  0  0  0  0  0  0  0  0  0  0
    0.3344   -1.9087    0.0000 C   0  0  0  0  0  0  0  0  0  0  0  0
   -2.2760   -2.4145    0.0000 C   0  0  0  0  0  0  0  0  0  0  0  0
   -3.1487   -1.9149    0.0000 C   0  0  0  0  0  0  0  0  0  0  0  0
   -2.2760   -0.3996    0.0000 C   0  0  0  0  0  0  0  0  0  0  0  0
   -3.1487   -0.9096    0.0000 C   0  0  0  0  0  0  0  0  0  0  0  0
    2.0433   -0.4302    0.0000 C   0  0  0  0  0  0  0  0  0  0  0  0
   -0.6955    2.2636    0.0000 C   0  0  0  0  0  0  0  0  0  0  0  0
   -2.2859   -3.4137    0.0000 F   0  0  0  0  0  0  0  0  0  0  0  0
   -4.0113   -0.3996    0.0000 F   0  0  0  0  0  0  0  0  0  0  0  0
   -1.9679    1.1135    0.0000 C   0  0  0  0  0  0  0  0  0  0  0  0
    0.2874    2.4654    0.0000 C   0  0  0  0  0  0  0  0  0  0  0  0
    2.3614   -1.3846    0.0000 C   0  0  0  0  0  0  0  0  0  0  0  0
    2.7101    0.3262    0.0000 C   0  0  0  0  0  0  0  0  0  0  0  0
   -1.3522    2.9958    0.0000 C   0  0  0  0  0  0  0  0  0  0  0  0
    0.6016    3.4137    0.0000 C   0  0  0  0  0  0  0  0  0  0  0  0
   -2.5880    1.8251    0.0000 C   0  0  0  0  0  0  0  0  0  0  0  0
    3.6890    0.1285    0.0000 C   0  0  0  0  0  0  0  0  0  0  0  0
    3.3464   -1.5804    0.0000 C   0  0  0  0  0  0  0  0  0  0  0  0
   -2.3311    2.7939    0.0000 C   0  0  0  0  0  0  0  0  0  0  0  0
    4.0113   -0.8340    0.0000 C   0  0  0  0  0  0  0  0  0  0  0  0
  2  3  2  0
  2  5  1  0
  1  3  1  0
  1  4  1  0
  4  5  2  0
  3  6  1  0
  6  7  1  0
  7  8  1  0
  1  9  1  0
  2 10  1  0
  8 10  2  0
  7 11  2  0
 12 14  2  0
 11 12  1  0
  6 13  2  0
 13 14  1  0
  5 15  1  0
  9 16  2  0
 11 17  1  0
 14 18  1  0
  9 19  1  0
 16 20  1  0
 15 21  2  0
 15 22  1  0
 16 23  1  0
 23 28  2  0
 20 24  1  0
 19 25  2  0
 22 26  2  0
 21 27  1  0
 27 29  2  0
 25 28  1  0
 26 29  1  0
M  END
>  <IDNUMBER>  (139) 
C350-0435

>  <available>  (139) 
51

>  <H_acceptor>  (139) 
2

>  <H_donor>  (139) 
0

>  <B_rotN>  (139) 
3

>  <N_O>  (139) 
3

>  <logP>  (139) 
6.0774

>  <logD>  (139) 
6.0774

>  <logSw>  (139) 
-5.7486

>  <PSA>  (139) 
23.1794

>  <pKa_ma>  (139) 
25.3659

>  <pKa_mb>  (139) 
2.2647

>  <N_Chirals>  (139) 
0

>  <Name>  (139) 
1-(2-ethylphenyl)-6,8-difluoro-3-phenyl-1H-pyrazolo[4,3-c]quinoline

>  <Smile>  (139) 
CCc(cccc1)c1-n(c1c(cc(cc2F)F)c2ncc11)nc1-c1ccccc1

>  <Color>  (139) 
NOT COLORED

>  <Collection>  (139) 
DC

>  <InChI>  (139) 
InChI=1S/C24H17F2N3/c1-2-15-8-6-7-11-21(15)29-24-18-12-17(25)13-20(26)23(18)27-14-19(24)22(28-29)16-9-4-3-5-10-16/h3-14H,2H2,1H3

>  <InChI Key>  (139) 
RRHZGUQZWQGPAY-UHFFFAOYSA-N

>  <PERCENTSP3>  (139) 
8.3

>  <Link>  (139) 
https://www.chemdiv.com/catalog/screening-compounds/compound-C350-0435/

>  <MFCDNUMBER>  (139) 
MFCD14750407

>  <CLNUMBER>  (139) 
CL4130

>  <STEREO>  (139) 
ACHIRAL

>  <State>  (139) 
Solid

>  <Similarity score>  (139) 
0.21

$$$$
4-{3-[(2,5-dimethylphenyl)methyl]-1,3-diazinan-1-yl}-3-(4-fluorophenyl)[1,2]oxaz
     RDKit          2D

 31 35  0  0  0  0  0  0  0  0999 V2000
   -1.9318   -1.3756    0.0000 C   0  0  0  0  0  0  0  0  0  0  0  0
   -1.0647   -0.8745    0.0000 C   0  0  0  0  0  0  0  0  0  0  0  0
   -0.4735    0.1630    0.0000 N   0  0  0  0  0  0  0  0  0  0  0  0
   -3.4655   -1.8716    0.0000 N   0  0  0  0  0  0  0  0  0  0  0  0
   -2.8792   -1.0598    0.0000 C   0  0  0  0  0  0  0  0  0  0  0  0
   -1.9318   -2.3679    0.0000 C   0  0  0  0  0  0  0  0  0  0  0  0
   -2.8792   -2.6787    0.0000 O   0  0  0  0  0  0  0  0  0  0  0  0
    0.3085    0.7793    0.0000 C   0  0  0  0  0  0  0  0  0  0  0  0
    0.1680    1.7564    0.0000 N   0  0  0  0  0  0  0  0  0  0  0  0
   -0.2030   -1.3756    0.0000 N   0  0  0  0  0  0  0  0  0  0  0  0
   -1.0647   -2.8640    0.0000 N   0  0  0  0  0  0  0  0  0  0  0  0
    1.8716    2.0072    0.0000 C   0  0  0  0  0  0  0  0  0  0  0  0
    0.9549    2.3732    0.0000 C   0  0  0  0  0  0  0  0  0  0  0  0
   -3.1344   -0.0976    0.0000 C   0  0  0  0  0  0  0  0  0  0  0  0
   -0.2030   -2.3679    0.0000 C   0  0  0  0  0  0  0  0  0  0  0  0
    2.0223    1.0297    0.0000 C   0  0  0  0  0  0  0  0  0  0  0  0
    2.6536    2.6235    0.0000 C   0  0  0  0  0  0  0  0  0  0  0  0
   -1.3908    0.5237    0.0000 C   0  0  0  0  0  0  0  0  0  0  0  0
   -2.4733    0.5090    0.0000 C   0  0  0  0  0  0  0  0  0  0  0  0
   -4.0966    0.1478    0.0000 C   0  0  0  0  0  0  0  0  0  0  0  0
    2.9343    0.6592    0.0000 C   0  0  0  0  0  0  0  0  0  0  0  0
   -1.5259    1.5110    0.0000 C   0  0  0  0  0  0  0  0  0  0  0  0
    3.5858    2.2475    0.0000 C   0  0  0  0  0  0  0  0  0  0  0  0
   -3.6660    1.8170    0.0000 C   0  0  0  0  0  0  0  0  0  0  0  0
   -0.7493    2.1274    0.0000 C   0  0  0  0  0  0  0  0  0  0  0  0
   -2.6985    1.5559    0.0000 C   0  0  0  0  0  0  0  0  0  0  0  0
   -4.3676    1.1100    0.0000 C   0  0  0  0  0  0  0  0  0  0  0  0
    3.7163    1.2706    0.0000 C   0  0  0  0  0  0  0  0  0  0  0  0
   -3.9464    2.7891    0.0000 F   0  0  0  0  0  0  0  0  0  0  0  0
    1.2504    0.4134    0.0000 C   0  0  0  0  0  0  0  0  0  0  0  0
    4.3676    2.8640    0.0000 C   0  0  0  0  0  0  0  0  0  0  0  0
  1  2  1  0
  2  3  1  0
  4  5  2  0
  1  5  1  0
  1  6  2  0
  6  7  1  0
  4  7  1  0
  3  8  1  0
  8  9  1  0
  9 25  1  0
  2 10  2  0
  6 11  1  0
 12 13  1  0
  9 13  1  0
  5 14  1  0
 11 15  2  0
 10 15  1  0
 12 16  2  0
 12 17  1  0
  3 18  1  0
 14 19  2  0
 14 20  1  0
 16 21  1  0
 21 28  2  0
 18 22  1  0
 17 23  2  0
 24 27  1  0
 24 26  2  0
 22 25  1  0
 19 26  1  0
 20 27  2  0
 23 28  1  0
 24 29  1  0
 16 30  1  0
 23 31  1  0
M  END
>  <IDNUMBER>  (140) 
E899-0293

>  <available>  (140) 
45

>  <H_acceptor>  (140) 
5

>  <H_donor>  (140) 
0

>  <B_rotN>  (140) 
4

>  <N_O>  (140) 
6

>  <logP>  (140) 
5.4401

>  <logD>  (140) 
5.4398

>  <logSw>  (140) 
-5.5943

>  <PSA>  (140) 
49.815

>  <pKa_ma>  (140) 
21.573

>  <pKa_mb>  (140) 
4.2371

>  <N_Chirals>  (140) 
0

>  <Name>  (140) 
4-{3-[(2,5-dimethylphenyl)methyl]-1,3-diazinan-1-yl}-3-(4-fluorophenyl)[1,2]oxazolo[5,4-d]pyrimidine

>  <Smile>  (140) 
Cc1cc(CN(CCC2)CN2c2c(c(-c(cc3)ccc3F)no3)c3ncn2)c(C)cc1

>  <Color>  (140) 
NOT COLORED

>  <Collection>  (140) 
DC

>  <InChI>  (140) 
InChI=1S/C24H24FN5O/c1-16-4-5-17(2)19(12-16)13-29-10-3-11-30(15-29)23-21-22(18-6-8-20(25)9-7-18)28-31-24(21)27-14-26-23/h4-9,12,14H,3,10-11,13,15H2,1-2H3

>  <InChI Key>  (140) 
UJVFZMGEFNADLZ-UHFFFAOYSA-N

>  <PERCENTSP3>  (140) 
29.2

>  <Link>  (140) 
https://www.chemdiv.com/catalog/screening-compounds/compound-E899-0293/

>  <MFCDNUMBER>  (140) 
MFCD14926751

>  <CLNUMBER>  (140) 
CL5509

>  <STEREO>  (140) 
ACHIRAL

>  <State>  (140) 
Solid

>  <Similarity score>  (140) 
0.21

$$$$
3-(4-ethoxyphenyl)-6,8-difluoro-1-phenyl-1H-pyrazolo[4,3-c]quinoline
     RDKit          2D

 30 34  0  0  0  0  0  0  0  0999 V2000
   -1.1698    0.7487    0.0000 N   0  0  0  0  0  0  0  0  0  0  0  0
   -0.5056   -0.7314    0.0000 C   0  0  0  0  0  0  0  0  0  0  0  0
   -1.3809   -0.2283    0.0000 C   0  0  0  0  0  0  0  0  0  0  0  0
   -0.1681    0.8393    0.0000 N   0  0  0  0  0  0  0  0  0  0  0  0
    0.2555   -0.0517    0.0000 C   0  0  0  0  0  0  0  0  0  0  0  0
   -2.2672   -0.7314    0.0000 C   0  0  0  0  0  0  0  0  0  0  0  0
   -2.2672   -1.7239    0.0000 C   0  0  0  0  0  0  0  0  0  0  0  0
   -1.3809   -2.2115    0.0000 N   0  0  0  0  0  0  0  0  0  0  0  0
   -0.5056   -1.7239    0.0000 C   0  0  0  0  0  0  0  0  0  0  0  0
   -3.1280   -2.2115    0.0000 C   0  0  0  0  0  0  0  0  0  0  0  0
   -4.0034   -1.7239    0.0000 C   0  0  0  0  0  0  0  0  0  0  0  0
    1.2621   -0.1532    0.0000 C   0  0  0  0  0  0  0  0  0  0  0  0
   -1.7997    1.5190    0.0000 C   0  0  0  0  0  0  0  0  0  0  0  0
   -3.1280   -0.2283    0.0000 C   0  0  0  0  0  0  0  0  0  0  0  0
   -4.0034   -0.7314    0.0000 C   0  0  0  0  0  0  0  0  0  0  0  0
    1.6747   -1.0489    0.0000 C   0  0  0  0  0  0  0  0  0  0  0  0
    1.8420    0.6626    0.0000 C   0  0  0  0  0  0  0  0  0  0  0  0
   -3.1280   -3.2086    0.0000 F   0  0  0  0  0  0  0  0  0  0  0  0
   -4.8629   -0.2330    0.0000 F   0  0  0  0  0  0  0  0  0  0  0  0
    3.2859   -0.3343    0.0000 C   0  0  0  0  0  0  0  0  0  0  0  0
    2.8530    0.5814    0.0000 C   0  0  0  0  0  0  0  0  0  0  0  0
    2.6826   -1.1549    0.0000 C   0  0  0  0  0  0  0  0  0  0  0  0
    4.2877   -0.4299    0.0000 O   0  0  0  0  0  0  0  0  0  0  0  0
   -1.4371    2.4381    0.0000 C   0  0  0  0  0  0  0  0  0  0  0  0
   -2.7656    1.3517    0.0000 C   0  0  0  0  0  0  0  0  0  0  0  0
    4.8629    0.3860    0.0000 C   0  0  0  0  0  0  0  0  0  0  0  0
    4.4550    1.2926    0.0000 C   0  0  0  0  0  0  0  0  0  0  0  0
   -3.3891    2.1208    0.0000 C   0  0  0  0  0  0  0  0  0  0  0  0
   -2.0702    3.2086    0.0000 C   0  0  0  0  0  0  0  0  0  0  0  0
   -3.0375    3.0477    0.0000 C   0  0  0  0  0  0  0  0  0  0  0  0
  2  3  2  0
  2  5  1  0
  1  3  1  0
  1  4  1  0
  4  5  2  0
  3  6  1  0
  6  7  1  0
  7  8  1  0
  8  9  2  0
  2  9  1  0
  7 10  2  0
 11 15  2  0
 10 11  1  0
  5 12  1  0
  1 13  1  0
  6 14  2  0
 14 15  1  0
 12 16  2  0
 12 17  1  0
 10 18  1  0
 15 19  1  0
 20 21  1  0
 17 21  2  0
 16 22  1  0
 20 22  2  0
 20 23  1  0
 13 24  2  0
 13 25  1  0
 23 26  1  0
 26 27  1  0
 25 28  2  0
 24 29  1  0
 29 30  2  0
 28 30  1  0
M  END
>  <IDNUMBER>  (141) 
C350-0808

>  <available>  (141) 
138

>  <H_acceptor>  (141) 
3

>  <H_donor>  (141) 
0

>  <B_rotN>  (141) 
4

>  <N_O>  (141) 
4

>  <logP>  (141) 
5.6741

>  <logD>  (141) 
5.6741

>  <logSw>  (141) 
-5.6084

>  <PSA>  (141) 
30.6039

>  <pKa_ma>  (141) 
29.8521

>  <pKa_mb>  (141) 
2.2647

>  <N_Chirals>  (141) 
0

>  <Name>  (141) 
3-(4-ethoxyphenyl)-6,8-difluoro-1-phenyl-1H-pyrazolo[4,3-c]quinoline

>  <Smile>  (141) 
CCOc(cc1)ccc1-c(c1cnc2c(F)cc(F)cc2c11)nn1-c1ccccc1

>  <Color>  (141) 
NOT COLORED

>  <Collection>  (141) 
DC

>  <InChI>  (141) 
InChI=1S/C24H17F2N3O/c1-2-30-18-10-8-15(9-11-18)22-20-14-27-23-19(12-16(25)13-21(23)26)24(20)29(28-22)17-6-4-3-5-7-17/h3-14H,2H2,1H3

>  <InChI Key>  (141) 
GGTGWRSYPRCJAS-UHFFFAOYSA-N

>  <PERCENTSP3>  (141) 
8.3

>  <Link>  (141) 
https://www.chemdiv.com/catalog/screening-compounds/compound-C350-0808/

>  <MFCDNUMBER>  (141) 
MFCD14750682

>  <CLNUMBER>  (141) 
CL4130

>  <STEREO>  (141) 
ACHIRAL

>  <State>  (141) 
Solid

>  <Similarity score>  (141) 
0.21

$$$$
4-(3,4-dihydroisoquinolin-2(1H)-yl)-2-(4-methoxyphenyl)quinazoline
     RDKit          2D

 28 32  0  0  0  0  0  0  0  0999 V2000
   -0.8623    0.0151    0.0000 C   0  0  0  0  0  0  0  0  0  0  0  0
    0.0100   -0.4761    0.0000 N   0  0  0  0  0  0  0  0  0  0  0  0
   -0.8623    1.0273    0.0000 N   0  0  0  0  0  0  0  0  0  0  0  0
    0.0100   -1.4887    0.0000 C   0  0  0  0  0  0  0  0  0  0  0  0
   -1.7240   -0.4761    0.0000 C   0  0  0  0  0  0  0  0  0  0  0  0
   -0.8623   -1.9797    0.0000 N   0  0  0  0  0  0  0  0  0  0  0  0
   -1.7240   -1.4887    0.0000 C   0  0  0  0  0  0  0  0  0  0  0  0
   -1.7343    1.5387    0.0000 C   0  0  0  0  0  0  0  0  0  0  0  0
   -1.7343    2.5308    0.0000 C   0  0  0  0  0  0  0  0  0  0  0  0
    0.8620   -1.9797    0.0000 C   0  0  0  0  0  0  0  0  0  0  0  0
   -0.0100    1.5387    0.0000 C   0  0  0  0  0  0  0  0  0  0  0  0
   -0.8821    3.0420    0.0000 C   0  0  0  0  0  0  0  0  0  0  0  0
   -0.0100    2.5308    0.0000 C   0  0  0  0  0  0  0  0  0  0  0  0
    0.8620   -2.9920    0.0000 C   0  0  0  0  0  0  0  0  0  0  0  0
    1.7340   -1.4887    0.0000 C   0  0  0  0  0  0  0  0  0  0  0  0
    2.5960   -2.9920    0.0000 C   0  0  0  0  0  0  0  0  0  0  0  0
    2.6060   -1.9797    0.0000 C   0  0  0  0  0  0  0  0  0  0  0  0
    1.7240   -3.4833    0.0000 C   0  0  0  0  0  0  0  0  0  0  0  0
   -2.5960    0.0151    0.0000 C   0  0  0  0  0  0  0  0  0  0  0  0
    3.4682   -3.5034    0.0000 O   0  0  0  0  0  0  0  0  0  0  0  0
   -2.5960   -1.9797    0.0000 C   0  0  0  0  0  0  0  0  0  0  0  0
   -2.6065    3.0420    0.0000 C   0  0  0  0  0  0  0  0  0  0  0  0
   -0.8821    4.0247    0.0000 C   0  0  0  0  0  0  0  0  0  0  0  0
    3.4481   -4.5058    0.0000 C   0  0  0  0  0  0  0  0  0  0  0  0
   -3.4682   -0.4761    0.0000 C   0  0  0  0  0  0  0  0  0  0  0  0
   -3.4682   -1.4887    0.0000 C   0  0  0  0  0  0  0  0  0  0  0  0
   -2.6065    4.0247    0.0000 C   0  0  0  0  0  0  0  0  0  0  0  0
   -1.7542    4.5058    0.0000 C   0  0  0  0  0  0  0  0  0  0  0  0
  1  2  2  0
  1  3  1  0
  2  4  1  0
  1  5  1  0
  6  7  1  0
  4  6  2  0
  5  7  1  0
  3  8  1  0
  8  9  1  0
  9 12  1  0
  4 10  1  0
  3 11  1  0
 12 13  1  0
 11 13  1  0
 10 14  2  0
 10 15  1  0
 16 17  1  0
 16 18  2  0
 15 17  2  0
 14 18  1  0
  5 19  2  0
 16 20  1  0
  7 21  2  0
 21 26  1  0
  9 22  2  0
 12 23  2  0
 20 24  1  0
 19 25  1  0
 25 26  2  0
 22 27  1  0
 27 28  2  0
 23 28  1  0
M  END
>  <IDNUMBER>  (142) 
G516-0226

>  <available>  (142) 
163

>  <H_acceptor>  (142) 
3

>  <H_donor>  (142) 
0

>  <B_rotN>  (142) 
3

>  <N_O>  (142) 
4

>  <logP>  (142) 
6.2703

>  <logD>  (142) 
5.8127

>  <logSw>  (142) 
-5.9873

>  <PSA>  (142) 
28.8441

>  <pKa_ma>  (142) 
18.8389

>  <pKa_mb>  (142) 
7.6714

>  <N_Chirals>  (142) 
0

>  <Name>  (142) 
4-(3,4-dihydroisoquinolin-2(1H)-yl)-2-(4-methoxyphenyl)quinazoline

>  <Smile>  (142) 
COc(cc1)ccc1-c1nc2ccccc2c(N(CC2)Cc3c2cccc3)n1

>  <Color>  (142) 
YELLOW

>  <Collection>  (142) 
NC

>  <InChI>  (142) 
InChI=1S/C24H21N3O/c1-28-20-12-10-18(11-13-20)23-25-22-9-5-4-8-21(22)24(26-23)27-15-14-17-6-2-3-7-19(17)16-27/h2-13H,14-16H2,1H3

>  <InChI Key>  (142) 
ZELTZOXBTJQBOA-UHFFFAOYSA-N

>  <PERCENTSP3>  (142) 
16.7

>  <Link>  (142) 
https://www.chemdiv.com/catalog/screening-compounds/compound-G516-0226/

>  <MFCDNUMBER>  (142) 
MFCD15015062

>  <CLNUMBER>  (142) 
CL2243

>  <STEREO>  (142) 
ACHIRAL

>  <State>  (142) 
Solid

>  <Similarity score>  (142) 
0.21

$$$$
2-[2-amino-5-(4-chlorophenyl)pyrimidin-4-yl]-5-[(2-chloro-6-fluorophenyl)methoxy
     RDKit          2D

 31 34  0  0  0  0  0  0  0  0999 V2000
    2.5934   -0.9978    0.0000 C   0  0  0  0  0  0  0  0  0  0  0  0
    1.7311   -0.5019    0.0000 C   0  0  0  0  0  0  0  0  0  0  0  0
    3.4559   -0.4977    0.0000 C   0  0  0  0  0  0  0  0  0  0  0  0
    2.5934   -2.0019    0.0000 N   0  0  0  0  0  0  0  0  0  0  0  0
   -2.5976    0.9978    0.0000 C   0  0  0  0  0  0  0  0  0  0  0  0
    3.4599   -2.4975    0.0000 C   0  0  0  0  0  0  0  0  0  0  0  0
    0.8562   -1.0020    0.0000 C   0  0  0  0  0  0  0  0  0  0  0  0
    4.3224   -1.9977    0.0000 N   0  0  0  0  0  0  0  0  0  0  0  0
    4.3183   -0.9852    0.0000 C   0  0  0  0  0  0  0  0  0  0  0  0
   -1.7350    0.4977    0.0000 C   0  0  0  0  0  0  0  0  0  0  0  0
    1.7311    0.5019    0.0000 C   0  0  0  0  0  0  0  0  0  0  0  0
   -0.0061   -0.5019    0.0000 C   0  0  0  0  0  0  0  0  0  0  0  0
    3.4475    0.4977    0.0000 C   0  0  0  0  0  0  0  0  0  0  0  0
   -2.5976    2.0019    0.0000 C   0  0  0  0  0  0  0  0  0  0  0  0
   -3.4599    0.4977    0.0000 C   0  0  0  0  0  0  0  0  0  0  0  0
   -0.8728    0.9978    0.0000 O   0  0  0  0  0  0  0  0  0  0  0  0
   -0.0061    0.5019    0.0000 C   0  0  0  0  0  0  0  0  0  0  0  0
    2.5810    0.9852    0.0000 C   0  0  0  0  0  0  0  0  0  0  0  0
    4.3098    0.9978    0.0000 C   0  0  0  0  0  0  0  0  0  0  0  0
    3.4599   -3.4975    0.0000 N   0  0  0  0  0  0  0  0  0  0  0  0
    0.8562    1.0020    0.0000 C   0  0  0  0  0  0  0  0  0  0  0  0
    0.8562   -2.0019    0.0000 O   0  0  0  0  0  0  0  0  0  0  0  0
    3.4391    2.4975    0.0000 C   0  0  0  0  0  0  0  0  0  0  0  0
   -3.4599   -0.5019    0.0000 Cl  0  0  0  0  0  0  0  0  0  0  0  0
   -1.7227    2.5018    0.0000 F   0  0  0  0  0  0  0  0  0  0  0  0
    2.5684    1.9850    0.0000 C   0  0  0  0  0  0  0  0  0  0  0  0
    4.3098    1.9977    0.0000 C   0  0  0  0  0  0  0  0  0  0  0  0
    3.4309    3.4975    0.0000 Cl  0  0  0  0  0  0  0  0  0  0  0  0
   -4.3224    1.9977    0.0000 C   0  0  0  0  0  0  0  0  0  0  0  0
   -3.4599    2.4975    0.0000 C   0  0  0  0  0  0  0  0  0  0  0  0
   -4.3224    0.9978    0.0000 C   0  0  0  0  0  0  0  0  0  0  0  0
  1  2  1  0
  1  3  1  0
  1  4  2  0
  5 10  1  0
  4  6  1  0
  2  7  2  0
  6  8  2  0
  3  9  2  0
  8  9  1  0
 10 16  1  0
  2 11  1  0
  7 12  1  0
  3 13  1  0
  5 14  2  0
  5 15  1  0
 16 17  1  0
 17 21  1  0
 12 17  2  0
 13 18  1  0
 13 19  2  0
  6 20  1  0
 11 21  2  0
  7 22  1  0
 23 27  2  0
 15 24  1  0
 14 25  1  0
 18 26  2  0
 23 26  1  0
 19 27  1  0
 23 28  1  0
 29 31  1  0
 14 30  1  0
 29 30  2  0
 15 31  2  0
M  END
>  <IDNUMBER>  (143) 
Y041-2571

>  <available>  (143) 
29

>  <H_acceptor>  (143) 
4

>  <H_donor>  (143) 
3

>  <B_rotN>  (143) 
5

>  <N_O>  (143) 
5

>  <logP>  (143) 
6.3596

>  <logD>  (143) 
6.3581

>  <logSw>  (143) 
-6.0181

>  <PSA>  (143) 
63.8

>  <pKa_ma>  (143) 
9.88

>  <pKa_mb>  (143) 
3.0878

>  <N_Chirals>  (143) 
0

>  <Name>  (143) 
2-[2-amino-5-(4-chlorophenyl)pyrimidin-4-yl]-5-[(2-chloro-6-fluorophenyl)methoxy]phenol

>  <Smile>  (143) 
Nc1ncc(-c(cc2)ccc2Cl)c(-c(ccc(OCc(c(F)ccc2)c2Cl)c2)c2O)n1

>  <Color>  (143) 
YELLOW

>  <Collection>  (143) 
DC

>  <InChI>  (143) 
InChI=1S/C23H16Cl2FN3O2/c24-14-6-4-13(5-7-14)17-11-28-23(27)29-22(17)16-9-8-15(10-21(16)30)31-12-18-19(25)2-1-3-20(18)26/h1-11,30H,12H2,(H2,27,28,29)

>  <InChI Key>  (143) 
BNJGCPRQADMLBC-UHFFFAOYSA-N

>  <PERCENTSP3>  (143) 
4.3

>  <Link>  (143) 
https://www.chemdiv.com/catalog/screening-compounds/compound-Y041-2571/

>  <MFCDNUMBER>  (143) 
MFCD06609866

>  <STEREO>  (143) 
ACHIRAL

>  <State>  (143) 
Solid

>  <Similarity score>  (143) 
0.21

$$$$
3-(4-ethoxyphenyl)-8-fluoro-1H-pyrazolo[4,3-c]quinoline
     RDKit          2D

 23 26  0  0  0  0  0  0  0  0999 V2000
   -0.4887   -0.0405    0.0000 C   0  0  0  0  0  0  0  0  0  0  0  0
   -0.1412    1.5464    0.0000 N   0  0  0  0  0  0  0  0  0  0  0  0
   -1.3551    0.4735    0.0000 C   0  0  0  0  0  0  0  0  0  0  0  0
   -1.1384    1.4558    0.0000 N   0  0  0  0  0  0  0  0  0  0  0  0
    0.2619    0.6298    0.0000 C   0  0  0  0  0  0  0  0  0  0  0  0
   -2.2265   -0.0405    0.0000 C   0  0  0  0  0  0  0  0  0  0  0  0
   -0.4887   -1.0479    0.0000 C   0  0  0  0  0  0  0  0  0  0  0  0
   -1.3652   -1.5464    0.0000 N   0  0  0  0  0  0  0  0  0  0  0  0
   -2.2265   -1.0479    0.0000 C   0  0  0  0  0  0  0  0  0  0  0  0
    1.2344    0.4181    0.0000 C   0  0  0  0  0  0  0  0  0  0  0  0
   -3.0880    0.4583    0.0000 C   0  0  0  0  0  0  0  0  0  0  0  0
    1.5315   -0.5341    0.0000 C   0  0  0  0  0  0  0  0  0  0  0  0
    1.8993    1.1536    0.0000 C   0  0  0  0  0  0  0  0  0  0  0  0
   -3.0880   -1.5364    0.0000 C   0  0  0  0  0  0  0  0  0  0  0  0
   -3.9645   -0.0254    0.0000 C   0  0  0  0  0  0  0  0  0  0  0  0
    3.1786   -0.0051    0.0000 C   0  0  0  0  0  0  0  0  0  0  0  0
   -3.9645   -1.0329    0.0000 C   0  0  0  0  0  0  0  0  0  0  0  0
    2.8665    0.9471    0.0000 C   0  0  0  0  0  0  0  0  0  0  0  0
    2.5037   -0.7454    0.0000 C   0  0  0  0  0  0  0  0  0  0  0  0
   -4.8159    0.4735    0.0000 F   0  0  0  0  0  0  0  0  0  0  0  0
    4.1460   -0.2164    0.0000 O   0  0  0  0  0  0  0  0  0  0  0  0
    4.8159    0.5188    0.0000 C   0  0  0  0  0  0  0  0  0  0  0  0
    4.5137    1.4710    0.0000 C   0  0  0  0  0  0  0  0  0  0  0  0
  2  5  2  0
  1  3  2  0
  3  4  1  0
  2  4  1  0
  1  5  1  0
  3  6  1  0
  1  7  1  0
  7  8  2  0
  8  9  1  0
  6  9  1  0
  5 10  1  0
  6 11  2  0
 10 12  2  0
 10 13  1  0
  9 14  2  0
 11 15  1  0
 15 17  2  0
 16 18  1  0
 16 19  2  0
 14 17  1  0
 13 18  2  0
 12 19  1  0
 15 20  1  0
 16 21  1  0
 21 22  1  0
 22 23  1  0
M  END
>  <IDNUMBER>  (144) 
C200-5249

>  <available>  (144) 
1

>  <H_acceptor>  (144) 
3

>  <H_donor>  (144) 
1

>  <B_rotN>  (144) 
3

>  <N_O>  (144) 
4

>  <logP>  (144) 
4.2532

>  <logD>  (144) 
4.2522

>  <logSw>  (144) 
-4.077

>  <PSA>  (144) 
39.96

>  <pKa_ma>  (144) 
14.1885

>  <pKa_mb>  (144) 
4.7765

>  <N_Chirals>  (144) 
0

>  <Name>  (144) 
3-(4-ethoxyphenyl)-8-fluoro-1H-pyrazolo[4,3-c]quinoline

>  <Smile>  (144) 
CCOc(cc1)ccc1-c1n[nH]c2c(cc(cc3)F)c3ncc12

>  <Color>  (144) 
YELLOW

>  <Collection>  (144) 
NC

>  <InChI>  (144) 
InChI=1S/C18H14FN3O/c1-2-23-13-6-3-11(4-7-13)17-15-10-20-16-8-5-12(19)9-14(16)18(15)22-21-17/h3-10H,2H2,1H3,(H,21,22)

>  <InChI Key>  (144) 
FLVKOJOMRKNKBG-UHFFFAOYSA-N

>  <PERCENTSP3>  (144) 
11.1

>  <Link>  (144) 
https://www.chemdiv.com/catalog/screening-compounds/compound-C200-5249/

>  <MFCDNUMBER>  (144) 
MFCD14727818

>  <CLNUMBER>  (144) 
CL4130

>  <STEREO>  (144) 
ACHIRAL

>  <State>  (144) 
Solid

>  <Similarity score>  (144) 
0.21

$$$$
2-(2-amino-6-methyl-5-phenylpyrimidin-4-yl)-5-[(2-chloro-6-fluorophenyl)methoxy]
     RDKit          2D

 31 34  0  0  0  0  0  0  0  0999 V2000
    2.1641   -0.5103    0.0000 C   0  0  0  0  0  0  0  0  0  0  0  0
    3.0264    0.0019    0.0000 C   0  0  0  0  0  0  0  0  0  0  0  0
    1.3018   -0.0105    0.0000 C   0  0  0  0  0  0  0  0  0  0  0  0
    2.1641   -1.5101    0.0000 N   0  0  0  0  0  0  0  0  0  0  0  0
    3.8885   -0.4978    0.0000 C   0  0  0  0  0  0  0  0  0  0  0  0
    3.8885   -1.4976    0.0000 N   0  0  0  0  0  0  0  0  0  0  0  0
    3.0264   -1.9975    0.0000 C   0  0  0  0  0  0  0  0  0  0  0  0
   -3.0264    1.4891    0.0000 C   0  0  0  0  0  0  0  0  0  0  0  0
    0.4352   -0.5103    0.0000 C   0  0  0  0  0  0  0  0  0  0  0  0
   -2.1641    0.9892    0.0000 C   0  0  0  0  0  0  0  0  0  0  0  0
    1.3018    0.9976    0.0000 C   0  0  0  0  0  0  0  0  0  0  0  0
   -0.4270   -0.0105    0.0000 C   0  0  0  0  0  0  0  0  0  0  0  0
   -3.0181    2.4972    0.0000 C   0  0  0  0  0  0  0  0  0  0  0  0
   -3.8804    0.9892    0.0000 C   0  0  0  0  0  0  0  0  0  0  0  0
    3.0098    0.9892    0.0000 C   0  0  0  0  0  0  0  0  0  0  0  0
   -1.2935    1.4891    0.0000 O   0  0  0  0  0  0  0  0  0  0  0  0
    3.0264   -2.9973    0.0000 N   0  0  0  0  0  0  0  0  0  0  0  0
   -0.4270    0.9892    0.0000 C   0  0  0  0  0  0  0  0  0  0  0  0
    0.4352    1.4975    0.0000 C   0  0  0  0  0  0  0  0  0  0  0  0
    0.4352   -1.5101    0.0000 O   0  0  0  0  0  0  0  0  0  0  0  0
   -3.8804   -0.0105    0.0000 Cl  0  0  0  0  0  0  0  0  0  0  0  0
   -2.1473    2.9973    0.0000 F   0  0  0  0  0  0  0  0  0  0  0  0
    4.7510    0.0062    0.0000 C   0  0  0  0  0  0  0  0  0  0  0  0
   -4.7510    2.4889    0.0000 C   0  0  0  0  0  0  0  0  0  0  0  0
   -4.7510    1.4808    0.0000 C   0  0  0  0  0  0  0  0  0  0  0  0
   -3.8887    2.9973    0.0000 C   0  0  0  0  0  0  0  0  0  0  0  0
    2.1473    1.4808    0.0000 C   0  0  0  0  0  0  0  0  0  0  0  0
    3.8844    1.4891    0.0000 C   0  0  0  0  0  0  0  0  0  0  0  0
    3.8721    2.4889    0.0000 C   0  0  0  0  0  0  0  0  0  0  0  0
    2.1433    2.4806    0.0000 C   0  0  0  0  0  0  0  0  0  0  0  0
    3.0098    2.9973    0.0000 C   0  0  0  0  0  0  0  0  0  0  0  0
  1  2  1  0
  1  3  1  0
  1  4  2  0
  2  5  2  0
  6  7  2  0
  5  6  1  0
  4  7  1  0
  8 10  1  0
  3  9  2  0
 10 16  1  0
  3 11  1  0
  9 12  1  0
 12 18  2  0
  8 13  2  0
  8 14  1  0
  2 15  1  0
 16 18  1  0
  7 17  1  0
 18 19  1  0
 11 19  2  0
  9 20  1  0
 14 21  1  0
 13 22  1  0
  5 23  1  0
 24 25  1  0
 14 25  2  0
 13 26  1  0
 24 26  2  0
 15 27  1  0
 15 28  2  0
 28 29  1  0
 27 30  2  0
 30 31  1  0
 29 31  2  0
M  END
>  <IDNUMBER>  (145) 
Y041-2620

>  <available>  (145) 
26

>  <H_acceptor>  (145) 
4

>  <H_donor>  (145) 
3

>  <B_rotN>  (145) 
5

>  <N_O>  (145) 
5

>  <logP>  (145) 
5.9409

>  <logD>  (145) 
5.9398

>  <logSw>  (145) 
-5.7278

>  <PSA>  (145) 
63.856

>  <pKa_ma>  (145) 
10.081

>  <pKa_mb>  (145) 
4.0103

>  <N_Chirals>  (145) 
0

>  <Name>  (145) 
2-(2-amino-6-methyl-5-phenylpyrimidin-4-yl)-5-[(2-chloro-6-fluorophenyl)methoxy]phenol

>  <Smile>  (145) 
Cc1c(-c2ccccc2)c(-c(ccc(OCc(c(F)ccc2)c2Cl)c2)c2O)nc(N)n1

>  <Color>  (145) 
BROWN

>  <Collection>  (145) 
DC

>  <InChI>  (145) 
InChI=1S/C24H19ClFN3O2/c1-14-22(15-6-3-2-4-7-15)23(29-24(27)28-14)17-11-10-16(12-21(17)30)31-13-18-19(25)8-5-9-20(18)26/h2-12,30H,13H2,1H3,(H2,27,28,29)

>  <InChI Key>  (145) 
YTQQFAQJHXYOKS-UHFFFAOYSA-N

>  <PERCENTSP3>  (145) 
8.3

>  <Link>  (145) 
https://www.chemdiv.com/catalog/screening-compounds/compound-Y041-2620/

>  <MFCDNUMBER>  (145) 
MFCD06597187

>  <STEREO>  (145) 
ACHIRAL

>  <State>  (145) 
Solid

>  <Similarity score>  (145) 
0.21

$$$$
2-(3,4-dihydroisoquinolin-2(1H)-yl)-5-(3,4-dimethoxyphenyl)pyrido[2,3-d]pyrimidi
     RDKit          2D

 31 35  0  0  0  0  0  0  0  0999 V2000
   -0.4271    2.0020    0.0000 C   0  0  0  0  0  0  0  0  0  0  0  0
   -1.2812    2.5187    0.0000 N   0  0  0  0  0  0  0  0  0  0  0  0
   -0.4396    0.9978    0.0000 N   0  0  0  0  0  0  0  0  0  0  0  0
   -1.3104    0.5145    0.0000 C   0  0  0  0  0  0  0  0  0  0  0  0
   -2.1520    2.0312    0.0000 C   0  0  0  0  0  0  0  0  0  0  0  0
   -2.1645    1.0271    0.0000 C   0  0  0  0  0  0  0  0  0  0  0  0
    0.4479    2.4854    0.0000 N   0  0  0  0  0  0  0  0  0  0  0  0
   -3.0310    0.5396    0.0000 C   0  0  0  0  0  0  0  0  0  0  0  0
   -3.0479   -0.4604    0.0000 C   0  0  0  0  0  0  0  0  0  0  0  0
    1.3063    1.9646    0.0000 C   0  0  0  0  0  0  0  0  0  0  0  0
   -3.0144    2.5394    0.0000 N   0  0  0  0  0  0  0  0  0  0  0  0
   -2.1854   -0.9604    0.0000 C   0  0  0  0  0  0  0  0  0  0  0  0
   -2.1937   -1.9646    0.0000 C   0  0  0  0  0  0  0  0  0  0  0  0
    2.1771    2.4437    0.0000 C   0  0  0  0  0  0  0  0  0  0  0  0
   -1.3229   -0.4896    0.0000 O   0  0  0  0  0  0  0  0  0  0  0  0
    0.4646    3.4810    0.0000 C   0  0  0  0  0  0  0  0  0  0  0  0
   -3.0687   -2.4645    0.0000 C   0  0  0  0  0  0  0  0  0  0  0  0
    2.2021    3.4478    0.0000 C   0  0  0  0  0  0  0  0  0  0  0  0
   -3.9187   -0.9521    0.0000 C   0  0  0  0  0  0  0  0  0  0  0  0
    1.3437    3.9646    0.0000 C   0  0  0  0  0  0  0  0  0  0  0  0
   -3.9311   -1.9563    0.0000 C   0  0  0  0  0  0  0  0  0  0  0  0
   -3.8811    2.0437    0.0000 C   0  0  0  0  0  0  0  0  0  0  0  0
   -1.3312   -2.4687    0.0000 O   0  0  0  0  0  0  0  0  0  0  0  0
   -3.8896    1.0437    0.0000 C   0  0  0  0  0  0  0  0  0  0  0  0
   -3.0729   -3.4603    0.0000 O   0  0  0  0  0  0  0  0  0  0  0  0
    3.0271    1.9186    0.0000 C   0  0  0  0  0  0  0  0  0  0  0  0
    3.0771    3.9187    0.0000 C   0  0  0  0  0  0  0  0  0  0  0  0
   -1.3354   -3.4646    0.0000 C   0  0  0  0  0  0  0  0  0  0  0  0
   -2.2104   -3.9646    0.0000 C   0  0  0  0  0  0  0  0  0  0  0  0
    3.9104    2.3978    0.0000 C   0  0  0  0  0  0  0  0  0  0  0  0
    3.9311    3.4061    0.0000 C   0  0  0  0  0  0  0  0  0  0  0  0
  1  2  2  0
  1  3  1  0
  3  4  1  0
  2  5  1  0
  5  6  2  0
  4  6  1  0
  1  7  1  0
  6  8  1  0
  8  9  1  0
  7 10  1  0
  5 11  1  0
  9 12  1  0
 12 13  2  0
 13 17  1  0
 10 14  1  0
  4 15  2  0
  7 16  1  0
 17 21  2  0
 18 20  1  0
 14 18  2  0
  9 19  2  0
 16 20  1  0
 19 21  1  0
 11 22  2  0
 13 23  1  0
  8 24  2  0
 22 24  1  0
 17 25  1  0
 14 26  1  0
 18 27  1  0
 23 28  1  0
 25 29  1  0
 26 30  2  0
 30 31  1  0
 27 31  2  0
M  END
>  <IDNUMBER>  (146) 
8020-1631

>  <available>  (146) 
18

>  <H_acceptor>  (146) 
6

>  <H_donor>  (146) 
1

>  <B_rotN>  (146) 
4

>  <N_O>  (146) 
7

>  <logP>  (146) 
3.7119

>  <logD>  (146) 
3.7032

>  <logSw>  (146) 
-4.1642

>  <PSA>  (146) 
62.232

>  <pKa_ma>  (146) 
9.205

>  <pKa_mb>  (146) 
5.0629

>  <N_Chirals>  (146) 
0

>  <Name>  (146) 
2-(3,4-dihydroisoquinolin-2(1H)-yl)-5-(3,4-dimethoxyphenyl)pyrido[2,3-d]pyrimidin-4(3H)-one

>  <Smile>  (146) 
COc(ccc(-c1ccnc(N=C(N2)N(CC3)Cc4c3cccc4)c1C2=O)c1)c1OC

>  <Color>  (146) 
YELLOW

>  <Collection>  (146) 
DC

>  <InChI>  (146) 
InChI=1S/C24H22N4O3/c1-30-19-8-7-16(13-20(19)31-2)18-9-11-25-22-21(18)23(29)27-24(26-22)28-12-10-15-5-3-4-6-17(15)14-28/h3-9,11,13H,10,12,14H2,1-2H3,(H,25,26,27,29)

>  <InChI Key>  (146) 
PUASUVPDVMYJGI-UHFFFAOYSA-N

>  <PERCENTSP3>  (146) 
20.8

>  <Link>  (146) 
https://www.chemdiv.com/catalog/screening-compounds/compound-8020-1631/

>  <MFCDNUMBER>  (146) 
MFCD12035337

>  <STEREO>  (146) 
ACHIRAL

>  <State>  (146) 
Solid

>  <Similarity score>  (146) 
0.21

$$$$
ethyl 1-[2-(4-chlorophenyl)quinazolin-4-yl]piperidine-3-carboxylate
     RDKit          2D

 28 31  0  0  0  0  0  0  0  0999 V2000
    0.0099   -0.2450    0.0000 C   0  0  0  0  0  0  0  0  0  0  0  0
    0.8801   -0.7354    0.0000 N   0  0  0  0  0  0  0  0  0  0  0  0
    0.0099    0.7650    0.0000 N   0  0  0  0  0  0  0  0  0  0  0  0
    0.8801   -1.7456    0.0000 C   0  0  0  0  0  0  0  0  0  0  0  0
   -0.8500   -0.7354    0.0000 C   0  0  0  0  0  0  0  0  0  0  0  0
    0.0099   -2.2359    0.0000 N   0  0  0  0  0  0  0  0  0  0  0  0
   -0.8602    2.2655    0.0000 C   0  0  0  0  0  0  0  0  0  0  0  0
   -0.8500   -1.7456    0.0000 C   0  0  0  0  0  0  0  0  0  0  0  0
   -0.8602    1.2753    0.0000 C   0  0  0  0  0  0  0  0  0  0  0  0
   -1.7307    2.7758    0.0000 C   0  0  0  0  0  0  0  0  0  0  0  0
    1.7304   -2.2359    0.0000 C   0  0  0  0  0  0  0  0  0  0  0  0
   -1.7206    3.7561    0.0000 O   0  0  0  0  0  0  0  0  0  0  0  0
    2.6007   -1.7456    0.0000 C   0  0  0  0  0  0  0  0  0  0  0  0
    1.7304   -3.2460    0.0000 C   0  0  0  0  0  0  0  0  0  0  0  0
    0.8602    1.2753    0.0000 C   0  0  0  0  0  0  0  0  0  0  0  0
    3.4609   -3.2460    0.0000 C   0  0  0  0  0  0  0  0  0  0  0  0
   -2.5907    2.2655    0.0000 O   0  0  0  0  0  0  0  0  0  0  0  0
    2.5907   -3.7364    0.0000 C   0  0  0  0  0  0  0  0  0  0  0  0
    3.4709   -2.2359    0.0000 C   0  0  0  0  0  0  0  0  0  0  0  0
   -1.7206   -0.2450    0.0000 C   0  0  0  0  0  0  0  0  0  0  0  0
    4.3314   -3.7561    0.0000 Cl  0  0  0  0  0  0  0  0  0  0  0  0
   -0.0099    2.7758    0.0000 C   0  0  0  0  0  0  0  0  0  0  0  0
    0.8602    2.2655    0.0000 C   0  0  0  0  0  0  0  0  0  0  0  0
   -1.7206   -2.2359    0.0000 C   0  0  0  0  0  0  0  0  0  0  0  0
   -3.4612    2.7758    0.0000 C   0  0  0  0  0  0  0  0  0  0  0  0
   -2.5907   -0.7354    0.0000 C   0  0  0  0  0  0  0  0  0  0  0  0
   -4.3314    2.2655    0.0000 C   0  0  0  0  0  0  0  0  0  0  0  0
   -2.5907   -1.7456    0.0000 C   0  0  0  0  0  0  0  0  0  0  0  0
  1  2  2  0
  1  3  1  0
  2  4  1  0
  1  5  1  0
  6  8  1  0
  4  6  2  0
  7  9  1  0
  7 22  1  0
  5  8  1  0
  3  9  1  0
  7 10  1  0
  4 11  1  0
 10 12  2  0
 11 13  1  0
 11 14  2  0
  3 15  1  0
 16 18  2  0
 10 17  1  0
 14 18  1  0
 13 19  2  0
 16 19  1  0
  5 20  2  0
 16 21  1  0
 22 23  1  0
 15 23  1  0
  8 24  2  0
 24 28  1  0
 17 25  1  0
 20 26  1  0
 25 27  1  0
 26 28  2  0
M  END
>  <IDNUMBER>  (147) 
G516-1283

>  <available>  (147) 
18

>  <H_acceptor>  (147) 
5

>  <H_donor>  (147) 
0

>  <B_rotN>  (147) 
5

>  <N_O>  (147) 
5

>  <logP>  (147) 
5.9305

>  <logD>  (147) 
5.3461

>  <logSw>  (147) 
-6.1377

>  <PSA>  (147) 
42.326

>  <pKa_ma>  (147) 
21.7963

>  <pKa_mb>  (147) 
7.8534

>  <N_Chirals>  (147) 
1

>  <Name>  (147) 
ethyl 1-[2-(4-chlorophenyl)quinazolin-4-yl]piperidine-3-carboxylate

>  <Smile>  (147) 
CCOC(C(CCC1)CN1c1nc(-c(cc2)ccc2Cl)nc2ccccc12)=O

>  <Color>  (147) 
NOT COLORED

>  <Collection>  (147) 
NC

>  <InChI>  (147) 
InChI=1S/C22H22ClN3O2/c1-2-28-22(27)16-6-5-13-26(14-16)21-18-7-3-4-8-19(18)24-20(25-21)15-9-11-17(23)12-10-15/h3-4,7-12,16H,2,5-6,13-14H2,1H3/t16-/m0/s1

>  <InChI Key>  (147) 
WJPBPWWHCIVCDL-INIZCTEOSA-N

>  <PERCENTSP3>  (147) 
31.8

>  <Link>  (147) 
https://www.chemdiv.com/catalog/screening-compounds/compound-G516-1283/

>  <MFCDNUMBER>  (147) 
MFCD15015123

>  <CLNUMBER>  (147) 
CL2243

>  <STEREO>  (147) 
RACEMIC MIXTURE

>  <State>  (147) 
Solid

>  <Similarity score>  (147) 
0.21

$$$$
8-ethoxy-3-(4-fluorophenyl)-1H-pyrazolo[4,3-c]quinoline
     RDKit          2D

 23 26  0  0  0  0  0  0  0  0999 V2000
    0.2717   -0.2541    0.0000 C   0  0  0  0  0  0  0  0  0  0  0  0
    0.6191    1.3312    0.0000 N   0  0  0  0  0  0  0  0  0  0  0  0
   -0.5988    0.2592    0.0000 C   0  0  0  0  0  0  0  0  0  0  0  0
   -0.3775    1.2404    0.0000 N   0  0  0  0  0  0  0  0  0  0  0  0
    1.0169    0.4151    0.0000 C   0  0  0  0  0  0  0  0  0  0  0  0
   -1.4593   -0.2541    0.0000 C   0  0  0  0  0  0  0  0  0  0  0  0
    0.2768   -1.2607    0.0000 C   0  0  0  0  0  0  0  0  0  0  0  0
   -0.5988   -1.7591    0.0000 N   0  0  0  0  0  0  0  0  0  0  0  0
   -1.4646   -1.2607    0.0000 C   0  0  0  0  0  0  0  0  0  0  0  0
    1.9932    0.2040    0.0000 C   0  0  0  0  0  0  0  0  0  0  0  0
   -2.3252    0.2438    0.0000 C   0  0  0  0  0  0  0  0  0  0  0  0
    2.2849   -0.7474    0.0000 C   0  0  0  0  0  0  0  0  0  0  0  0
    2.6575    0.9383    0.0000 C   0  0  0  0  0  0  0  0  0  0  0  0
   -2.3252   -1.7491    0.0000 C   0  0  0  0  0  0  0  0  0  0  0  0
   -3.1958   -0.2392    0.0000 C   0  0  0  0  0  0  0  0  0  0  0  0
    3.9308   -0.2188    0.0000 C   0  0  0  0  0  0  0  0  0  0  0  0
   -3.2007   -1.2456    0.0000 C   0  0  0  0  0  0  0  0  0  0  0  0
    3.6288    0.7321    0.0000 C   0  0  0  0  0  0  0  0  0  0  0  0
    3.2665   -0.9587    0.0000 C   0  0  0  0  0  0  0  0  0  0  0  0
    4.9071   -0.4304    0.0000 F   0  0  0  0  0  0  0  0  0  0  0  0
   -4.0562    0.2592    0.0000 O   0  0  0  0  0  0  0  0  0  0  0  0
   -4.0464    1.2558    0.0000 C   0  0  0  0  0  0  0  0  0  0  0  0
   -4.9071    1.7591    0.0000 C   0  0  0  0  0  0  0  0  0  0  0  0
  2  5  2  0
  1  3  2  0
  3  4  1  0
  2  4  1  0
  1  5  1  0
  3  6  1  0
  1  7  1  0
  7  8  2  0
  8  9  1  0
  6  9  1  0
  5 10  1  0
  6 11  2  0
 10 12  2  0
 10 13  1  0
  9 14  2  0
 11 15  1  0
 15 17  2  0
 16 18  1  0
 16 19  2  0
 14 17  1  0
 13 18  2  0
 12 19  1  0
 16 20  1  0
 15 21  1  0
 21 22  1  0
 22 23  1  0
M  END
>  <IDNUMBER>  (148) 
C200-5255

>  <available>  (148) 
2

>  <H_acceptor>  (148) 
3

>  <H_donor>  (148) 
1

>  <B_rotN>  (148) 
3

>  <N_O>  (148) 
4

>  <logP>  (148) 
4.2604

>  <logD>  (148) 
4.1716

>  <logSw>  (148) 
-4.1213

>  <PSA>  (148) 
39.96

>  <pKa_ma>  (148) 
14.2047

>  <pKa_mb>  (148) 
6.756

>  <N_Chirals>  (148) 
0

>  <Name>  (148) 
8-ethoxy-3-(4-fluorophenyl)-1H-pyrazolo[4,3-c]quinoline

>  <Smile>  (148) 
CCOc(cc12)ccc1ncc1c2[nH]nc1-c(cc1)ccc1F

>  <Color>  (148) 
NOT COLORED

>  <Collection>  (148) 
NC

>  <InChI>  (148) 
InChI=1S/C18H14FN3O/c1-2-23-13-7-8-16-14(9-13)18-15(10-20-16)17(21-22-18)11-3-5-12(19)6-4-11/h3-10H,2H2,1H3,(H,21,22)

>  <InChI Key>  (148) 
NQONYHUHQYVECA-UHFFFAOYSA-N

>  <PERCENTSP3>  (148) 
11.1

>  <Link>  (148) 
https://www.chemdiv.com/catalog/screening-compounds/compound-C200-5255/

>  <MFCDNUMBER>  (148) 
MFCD14727822

>  <CLNUMBER>  (148) 
CL4130

>  <STEREO>  (148) 
ACHIRAL

>  <State>  (148) 
Solid

>  <Similarity score>  (148) 
0.21

$$$$
1-[(2-chloro-6-fluorophenyl)methyl]-4-[3-(3-ethyl-1,2,4-oxadiazol-5-yl)pyridin-2
     RDKit          2D

 29 32  0  0  0  0  0  0  0  0999 V2000
   -1.3269    0.3979    0.0000 C   0  0  0  0  0  0  0  0  0  0  0  0
   -1.2269    1.3935    0.0000 N   0  0  0  0  0  0  0  0  0  0  0  0
   -2.1894   -0.1104    0.0000 C   0  0  0  0  0  0  0  0  0  0  0  0
   -2.1894   -1.1102    0.0000 C   0  0  0  0  0  0  0  0  0  0  0  0
    2.3098   -1.7476    0.0000 C   0  0  0  0  0  0  0  0  0  0  0  0
    0.2519    0.7394    0.0000 N   0  0  0  0  0  0  0  0  0  0  0  0
   -0.4187   -0.0021    0.0000 O   0  0  0  0  0  0  0  0  0  0  0  0
   -1.3269   -1.6101    0.0000 N   0  0  0  0  0  0  0  0  0  0  0  0
   -0.2522    1.6059    0.0000 C   0  0  0  0  0  0  0  0  0  0  0  0
    0.7144   -2.3975    0.0000 N   0  0  0  0  0  0  0  0  0  0  0  0
    1.7058   -2.5350    0.0000 C   0  0  0  0  0  0  0  0  0  0  0  0
   -3.0558   -1.6101    0.0000 N   0  0  0  0  0  0  0  0  0  0  0  0
    1.9308   -0.8227    0.0000 C   0  0  0  0  0  0  0  0  0  0  0  0
    3.2972   -1.8809    0.0000 C   0  0  0  0  0  0  0  0  0  0  0  0
   -0.5979   -1.0644    0.0000 C   0  0  0  0  0  0  0  0  0  0  0  0
    0.3727   -1.3685    0.0000 C   0  0  0  0  0  0  0  0  0  0  0  0
   -0.9021   -3.3223    0.0000 C   0  0  0  0  0  0  0  0  0  0  0  0
    3.6764   -2.8183    0.0000 F   0  0  0  0  0  0  0  0  0  0  0  0
    0.9436   -0.6853    0.0000 Cl  0  0  0  0  0  0  0  0  0  0  0  0
   -1.4477   -2.6391    0.0000 C   0  0  0  0  0  0  0  0  0  0  0  0
   -3.0558    0.3936    0.0000 C   0  0  0  0  0  0  0  0  0  0  0  0
    0.1145   -3.2765    0.0000 C   0  0  0  0  0  0  0  0  0  0  0  0
    0.1603    2.5184    0.0000 C   0  0  0  0  0  0  0  0  0  0  0  0
    3.5389   -0.1688    0.0000 C   0  0  0  0  0  0  0  0  0  0  0  0
   -3.9181   -1.1102    0.0000 C   0  0  0  0  0  0  0  0  0  0  0  0
    3.9181   -1.1061    0.0000 C   0  0  0  0  0  0  0  0  0  0  0  0
    2.5474   -0.0312    0.0000 C   0  0  0  0  0  0  0  0  0  0  0  0
   -3.9181   -0.1104    0.0000 C   0  0  0  0  0  0  0  0  0  0  0  0
   -0.4354    3.3223    0.0000 C   0  0  0  0  0  0  0  0  0  0  0  0
  1  2  2  0
  1  3  1  0
  3  4  1  0
  5 11  1  0
  6  7  1  0
  6  9  2  0
  1  7  1  0
  4  8  1  0
  2  9  1  0
 10 16  1  0
 10 11  1  0
  4 12  2  0
 12 25  1  0
  5 13  2  0
  5 14  1  0
  8 15  1  0
 15 16  1  0
 17 20  1  0
 14 18  1  0
 13 19  1  0
  8 20  1  0
  3 21  2  0
 17 22  1  0
 10 22  1  0
  9 23  1  0
 24 26  1  0
 25 28  2  0
 14 26  2  0
 13 27  1  0
 24 27  2  0
 21 28  1  0
 23 29  1  0
M  END
>  <IDNUMBER>  (149) 
P891-0124

>  <available>  (149) 
24

>  <H_acceptor>  (149) 
5

>  <H_donor>  (149) 
0

>  <B_rotN>  (149) 
5

>  <N_O>  (149) 
6

>  <logP>  (149) 
4.2564

>  <logD>  (149) 
4.0619

>  <logSw>  (149) 
-4.5041

>  <PSA>  (149) 
49.211

>  <pKa_ma>  (149) 
23.4478

>  <pKa_mb>  (149) 
7.152

>  <N_Chirals>  (149) 
0

>  <Name>  (149) 
1-[(2-chloro-6-fluorophenyl)methyl]-4-[3-(3-ethyl-1,2,4-oxadiazol-5-yl)pyridin-2-yl]-1,4-diazepane

>  <Smile>  (149) 
CCc1noc(-c2cccnc2N2CCN(Cc(c(F)ccc3)c3Cl)CCC2)n1

>  <Color>  (149) 
YELLOW

>  <Collection>  (149) 
NC

>  <InChI>  (149) 
InChI=1S/C21H23ClFN5O/c1-2-19-25-21(29-26-19)15-6-4-9-24-20(15)28-11-5-10-27(12-13-28)14-16-17(22)7-3-8-18(16)23/h3-4,6-9H,2,5,10-14H2,1H3

>  <InChI Key>  (149) 
GXCXNYWHANFKCG-UHFFFAOYSA-N

>  <PERCENTSP3>  (149) 
38.1

>  <Link>  (149) 
https://www.chemdiv.com/catalog/screening-compounds/compound-P891-0124/

>  <MFCDNUMBER>  (149) 
MFCD29026880

>  <CLNUMBER>  (149) 
CM1467

>  <Saltdata>  (149) 
HCl

>  <Saltdata_MW>  (149) 
36.461

>  <STEREO>  (149) 
ACHIRAL

>  <State>  (149) 
Solid

>  <Similarity score>  (149) 
0.21

$$$$
2-{benzyl[4-(furan-2-yl)-9-(methylsulfanyl)-2,3-dihydro-1H-cyclopenta[4',5']pyri
     RDKit          2D

 34 39  0  0  0  0  0  0  0  0999 V2000
    0.6268   -0.0522    0.0000 C   0  0  0  0  0  0  0  0  0  0  0  0
   -0.8853    0.5228    0.0000 C   0  0  0  0  0  0  0  0  0  0  0  0
   -0.8853   -0.4854    0.0000 C   0  0  0  0  0  0  0  0  0  0  0  0
    0.0813    0.7812    0.0000 C   0  0  0  0  0  0  0  0  0  0  0  0
    1.6270   -0.0021    0.0000 C   0  0  0  0  0  0  0  0  0  0  0  0
    0.0645   -0.7939    0.0000 S   0  0  0  0  0  0  0  0  0  0  0  0
    2.0811    0.8853    0.0000 N   0  0  0  0  0  0  0  0  0  0  0  0
   -1.7476   -0.9854    0.0000 N   0  0  0  0  0  0  0  0  0  0  0  0
   -1.7476    1.0228    0.0000 C   0  0  0  0  0  0  0  0  0  0  0  0
   -2.6103   -0.4854    0.0000 C   0  0  0  0  0  0  0  0  0  0  0  0
    1.5352    1.7353    0.0000 C   0  0  0  0  0  0  0  0  0  0  0  0
    0.5352    1.6727    0.0000 N   0  0  0  0  0  0  0  0  0  0  0  0
   -2.6103    0.5228    0.0000 C   0  0  0  0  0  0  0  0  0  0  0  0
    2.1727   -0.8394    0.0000 N   0  0  0  0  0  0  0  0  0  0  0  0
   -3.4894   -0.9938    0.0000 C   0  0  0  0  0  0  0  0  0  0  0  0
   -3.5851   -1.9895    0.0000 O   0  0  0  0  0  0  0  0  0  0  0  0
    3.1726   -0.7813    0.0000 C   0  0  0  0  0  0  0  0  0  0  0  0
   -4.4143   -0.5813    0.0000 C   0  0  0  0  0  0  0  0  0  0  0  0
   -4.5684   -2.2019    0.0000 C   0  0  0  0  0  0  0  0  0  0  0  0
   -5.0808   -1.3353    0.0000 C   0  0  0  0  0  0  0  0  0  0  0  0
    1.9895    2.6268    0.0000 S   0  0  0  0  0  0  0  0  0  0  0  0
   -1.9602    1.9976    0.0000 C   0  0  0  0  0  0  0  0  0  0  0  0
    3.6350    0.1146    0.0000 C   0  0  0  0  0  0  0  0  0  0  0  0
   -3.3686    1.1937    0.0000 C   0  0  0  0  0  0  0  0  0  0  0  0
    1.7145   -1.7353    0.0000 C   0  0  0  0  0  0  0  0  0  0  0  0
   -2.9519    2.0977    0.0000 C   0  0  0  0  0  0  0  0  0  0  0  0
    1.8100   -3.4600    0.0000 O   0  0  0  0  0  0  0  0  0  0  0  0
    1.4477    3.4600    0.0000 C   0  0  0  0  0  0  0  0  0  0  0  0
    2.2645   -2.5644    0.0000 C   0  0  0  0  0  0  0  0  0  0  0  0
    4.6267    0.1729    0.0000 C   0  0  0  0  0  0  0  0  0  0  0  0
    3.0810    0.9520    0.0000 C   0  0  0  0  0  0  0  0  0  0  0  0
    3.5351    1.8435    0.0000 C   0  0  0  0  0  0  0  0  0  0  0  0
    5.0808    1.0686    0.0000 C   0  0  0  0  0  0  0  0  0  0  0  0
    4.5349    1.9020    0.0000 C   0  0  0  0  0  0  0  0  0  0  0  0
  2  4  1  0
  2  3  2  0
  3  6  1  0
  1  4  2  0
  1  5  1  0
  1  6  1  0
  5  7  2  0
  3  8  1  0
  2  9  1  0
  8 10  2  0
  7 11  1  0
  4 12  1  0
 11 12  2  0
  9 13  2  0
 10 13  1  0
  5 14  1  0
 10 15  1  0
 15 16  1  0
 14 17  1  0
 15 18  2  0
 16 19  1  0
 18 20  1  0
 19 20  2  0
 11 21  1  0
  9 22  1  0
 17 23  1  0
 13 24  1  0
 14 25  1  0
 22 26  1  0
 24 26  1  0
 27 29  1  0
 21 28  1  0
 25 29  1  0
 23 30  1  0
 23 31  2  0
 31 32  1  0
 30 33  2  0
 33 34  1  0
 32 34  2  0
M  END
>  <IDNUMBER>  (150) 
IB03-2372

>  <available>  (150) 
50

>  <H_acceptor>  (150) 
6

>  <H_donor>  (150) 
1

>  <B_rotN>  (150) 
7

>  <N_O>  (150) 
6

>  <logP>  (150) 
6.15

>  <logD>  (150) 
6.15

>  <logSw>  (150) 
-6.26

>  <PSA>  (150) 
112.23

>  <pKa_ma>  (150) 
14

>  <pKa_mb>  (150) 
3.1

>  <N_Chirals>  (150) 
0

>  <Name>  (150) 
2-{benzyl[4-(furan-2-yl)-9-(methylsulfanyl)-2,3-dihydro-1H-cyclopenta[4',5']pyrido[3',2':4,5]thieno[3,2-d]pyrimidin-7-yl]amino}ethan-1-ol

>  <Smile>  (150) 
CSc1nc(N(CCO)Cc2ccccc2)c2sc3nc(-c4ccco4)c(CCC4)c4c3c2n1

>  <Color>  (150) 
NOT COLORED

>  <Collection>  (150) 
DC

>  <InChI>  (150) 
InChI=1S/C26H24N4O2S2/c1-33-26-28-22-20-17-9-5-10-18(17)21(19-11-6-14-32-19)27-25(20)34-23(22)24(29-26)30(12-13-31)15-16-7-3-2-4-8-16/h2-4,6-8,11,14,31H,5,9-10,12-13,15H2,1H3

>  <InChI Key>  (150) 
UOTCRDHXRAOVMB-UHFFFAOYSA-N

>  <PERCENTSP3>  (150) 
26.9

>  <Link>  (150) 
https://www.chemdiv.com/catalog/screening-compounds/compound-IB03-2372/

>  <STEREO>  (150) 
ACHIRAL

>  <State>  (150) 
Solid

>  <Similarity score>  (150) 
0.21

$$$$
N-butyl-N-[(furan-2-yl)methyl]-2-(4-methoxyphenyl)quinazolin-4-amine
     RDKit          2D

 29 32  0  0  0  0  0  0  0  0999 V2000
    0.4459   -0.2655    0.0000 N   0  0  0  0  0  0  0  0  0  0  0  0
   -0.4256    0.2252    0.0000 C   0  0  0  0  0  0  0  0  0  0  0  0
    0.4459   -1.2773    0.0000 C   0  0  0  0  0  0  0  0  0  0  0  0
   -1.2870   -0.2655    0.0000 C   0  0  0  0  0  0  0  0  0  0  0  0
   -0.4256   -1.7683    0.0000 N   0  0  0  0  0  0  0  0  0  0  0  0
   -0.4256    1.2371    0.0000 N   0  0  0  0  0  0  0  0  0  0  0  0
   -1.2870   -1.2773    0.0000 C   0  0  0  0  0  0  0  0  0  0  0  0
    0.4259    2.7396    0.0000 C   0  0  0  0  0  0  0  0  0  0  0  0
    1.2974   -1.7683    0.0000 C   0  0  0  0  0  0  0  0  0  0  0  0
    0.4259    1.7480    0.0000 C   0  0  0  0  0  0  0  0  0  0  0  0
    1.1672    3.4008    0.0000 O   0  0  0  0  0  0  0  0  0  0  0  0
   -0.4456    3.2506    0.0000 C   0  0  0  0  0  0  0  0  0  0  0  0
    0.7563    4.2925    0.0000 C   0  0  0  0  0  0  0  0  0  0  0  0
   -0.2153    4.2022    0.0000 C   0  0  0  0  0  0  0  0  0  0  0  0
    2.1689   -1.2773    0.0000 C   0  0  0  0  0  0  0  0  0  0  0  0
    1.2974   -2.7798    0.0000 C   0  0  0  0  0  0  0  0  0  0  0  0
    3.0303   -2.7798    0.0000 C   0  0  0  0  0  0  0  0  0  0  0  0
    2.1589   -3.2709    0.0000 C   0  0  0  0  0  0  0  0  0  0  0  0
    3.0404   -1.7683    0.0000 C   0  0  0  0  0  0  0  0  0  0  0  0
   -2.1589    0.2252    0.0000 C   0  0  0  0  0  0  0  0  0  0  0  0
   -1.2971    1.7480    0.0000 C   0  0  0  0  0  0  0  0  0  0  0  0
    3.9018   -3.2908    0.0000 O   0  0  0  0  0  0  0  0  0  0  0  0
   -2.1589   -1.7683    0.0000 C   0  0  0  0  0  0  0  0  0  0  0  0
    3.8818   -4.2925    0.0000 C   0  0  0  0  0  0  0  0  0  0  0  0
   -2.1589    1.2371    0.0000 C   0  0  0  0  0  0  0  0  0  0  0  0
   -3.0303    1.7480    0.0000 C   0  0  0  0  0  0  0  0  0  0  0  0
   -3.0303   -0.2655    0.0000 C   0  0  0  0  0  0  0  0  0  0  0  0
   -3.0303   -1.2773    0.0000 C   0  0  0  0  0  0  0  0  0  0  0  0
   -3.9018    1.2371    0.0000 C   0  0  0  0  0  0  0  0  0  0  0  0
  1  2  2  0
  1  3  1  0
  2  4  1  0
  3  5  2  0
  2  6  1  0
  5  7  1  0
  4  7  1  0
  8 10  1  0
  3  9  1  0
  6 10  1  0
  8 11  1  0
  8 12  2  0
 11 13  1  0
 13 14  2  0
 12 14  1  0
  9 15  1  0
  9 16  2  0
 17 18  2  0
 16 18  1  0
 15 19  2  0
 17 19  1  0
  4 20  2  0
  6 21  1  0
 17 22  1  0
  7 23  2  0
 22 24  1  0
 21 25  1  0
 25 26  1  0
 20 27  1  0
 23 28  1  0
 27 28  2  0
 26 29  1  0
M  END
>  <IDNUMBER>  (151) 
G516-0272

>  <available>  (151) 
78

>  <H_acceptor>  (151) 
4

>  <H_donor>  (151) 
0

>  <B_rotN>  (151) 
8

>  <N_O>  (151) 
5

>  <logP>  (151) 
6.8559

>  <logD>  (151) 
6.3558

>  <logSw>  (151) 
-6.1247

>  <PSA>  (151) 
36.472

>  <pKa_ma>  (151) 
22.3611

>  <pKa_mb>  (151) 
7.735

>  <N_Chirals>  (151) 
0

>  <Name>  (151) 
N-butyl-N-[(furan-2-yl)methyl]-2-(4-methoxyphenyl)quinazolin-4-amine

>  <Smile>  (151) 
CCCCN(Cc1ccco1)c1nc(-c(cc2)ccc2OC)nc2ccccc12

>  <Color>  (151) 
NOT COLORED

>  <Collection>  (151) 
NC

>  <InChI>  (151) 
InChI=1S/C24H25N3O2/c1-3-4-15-27(17-20-8-7-16-29-20)24-21-9-5-6-10-22(21)25-23(26-24)18-11-13-19(28-2)14-12-18/h5-14,16H,3-4,15,17H2,1-2H3

>  <InChI Key>  (151) 
YZJQDODULVCHJV-UHFFFAOYSA-N

>  <PERCENTSP3>  (151) 
25

>  <Link>  (151) 
https://www.chemdiv.com/catalog/screening-compounds/compound-G516-0272/

>  <MFCDNUMBER>  (151) 
MFCD15015079

>  <CLNUMBER>  (151) 
CL2243

>  <STEREO>  (151) 
ACHIRAL

>  <State>  (151) 
Solid

>  <Similarity score>  (151) 
0.21

$$$$
1-[2-(4-fluorophenyl)-2H-pyrazolo[3,4-d]pyrimidin-4-yl]-N-[(2-methoxyphenyl)meth
     RDKit          2D

 34 38  0  0  0  0  0  0  0  0999 V2000
    2.7279   -1.2714    0.0000 C   0  0  0  0  0  0  0  0  0  0  0  0
    1.8652   -1.7714    0.0000 C   0  0  0  0  0  0  0  0  0  0  0  0
    3.5949   -1.7714    0.0000 C   0  0  0  0  0  0  0  0  0  0  0  0
    4.3408   -1.1088    0.0000 N   0  0  0  0  0  0  0  0  0  0  0  0
    3.9324   -0.1917    0.0000 N   0  0  0  0  0  0  0  0  0  0  0  0
    2.9321   -0.2959    0.0000 C   0  0  0  0  0  0  0  0  0  0  0  0
    0.9942   -1.2714    0.0000 N   0  0  0  0  0  0  0  0  0  0  0  0
    1.8652   -2.7719    0.0000 N   0  0  0  0  0  0  0  0  0  0  0  0
    3.5949   -2.7719    0.0000 N   0  0  0  0  0  0  0  0  0  0  0  0
   -0.7357   -1.2714    0.0000 C   0  0  0  0  0  0  0  0  0  0  0  0
   -1.6068   -1.7714    0.0000 C   0  0  0  0  0  0  0  0  0  0  0  0
    2.7279   -3.2719    0.0000 C   0  0  0  0  0  0  0  0  0  0  0  0
    0.1313   -1.7714    0.0000 C   0  0  0  0  0  0  0  0  0  0  0  0
   -2.4695   -1.2714    0.0000 N   0  0  0  0  0  0  0  0  0  0  0  0
    4.4326    0.6793    0.0000 C   0  0  0  0  0  0  0  0  0  0  0  0
   -4.2034   -1.2714    0.0000 C   0  0  0  0  0  0  0  0  0  0  0  0
   -3.3322   -1.7714    0.0000 C   0  0  0  0  0  0  0  0  0  0  0  0
   -1.6068   -2.7719    0.0000 O   0  0  0  0  0  0  0  0  0  0  0  0
   -5.0704   -1.7714    0.0000 C   0  0  0  0  0  0  0  0  0  0  0  0
    3.9324    1.5421    0.0000 C   0  0  0  0  0  0  0  0  0  0  0  0
    5.4329    0.6793    0.0000 C   0  0  0  0  0  0  0  0  0  0  0  0
    0.9942   -0.2709    0.0000 C   0  0  0  0  0  0  0  0  0  0  0  0
    5.4329    2.4050    0.0000 C   0  0  0  0  0  0  0  0  0  0  0  0
    5.9331    1.5421    0.0000 C   0  0  0  0  0  0  0  0  0  0  0  0
    4.4326    2.4050    0.0000 C   0  0  0  0  0  0  0  0  0  0  0  0
    5.9331    3.2719    0.0000 F   0  0  0  0  0  0  0  0  0  0  0  0
   -0.7357   -0.2709    0.0000 C   0  0  0  0  0  0  0  0  0  0  0  0
   -5.0704   -2.7719    0.0000 O   0  0  0  0  0  0  0  0  0  0  0  0
    0.1313    0.2292    0.0000 C   0  0  0  0  0  0  0  0  0  0  0  0
   -4.2034   -0.2709    0.0000 C   0  0  0  0  0  0  0  0  0  0  0  0
   -5.9331   -1.2714    0.0000 C   0  0  0  0  0  0  0  0  0  0  0  0
   -4.2034   -3.2719    0.0000 C   0  0  0  0  0  0  0  0  0  0  0  0
   -5.0704    0.2292    0.0000 C   0  0  0  0  0  0  0  0  0  0  0  0
   -5.9331   -0.2709    0.0000 C   0  0  0  0  0  0  0  0  0  0  0  0
  1  2  1  0
  1  3  1  0
  3  4  2  0
  5  6  1  0
  4  5  1  0
  1  6  2  0
  2  7  1  0
  2  8  2  0
  8 12  1  0
  3  9  1  0
 10 13  1  0
 10 27  1  0
 10 11  1  0
  9 12  2  0
  7 13  1  0
 11 14  1  0
  5 15  1  0
 16 17  1  0
 14 17  1  0
 11 18  2  0
 16 19  2  0
 15 20  2  0
 15 21  1  0
  7 22  1  0
 23 24  1  0
 23 25  2  0
 21 24  2  0
 20 25  1  0
 23 26  1  0
 27 29  1  0
 19 28  1  0
 22 29  1  0
 16 30  1  0
 19 31  1  0
 28 32  1  0
 30 33  2  0
 33 34  1  0
 31 34  2  0
M  END
>  <IDNUMBER>  (152) 
L094-3415

>  <available>  (152) 
10

>  <H_acceptor>  (152) 
6

>  <H_donor>  (152) 
1

>  <B_rotN>  (152) 
7

>  <N_O>  (152) 
8

>  <logP>  (152) 
3.5552

>  <logD>  (152) 
3.5477

>  <logSw>  (152) 
-3.5336

>  <PSA>  (152) 
70.586

>  <pKa_ma>  (152) 
12.356

>  <pKa_mb>  (152) 
5.6357

>  <N_Chirals>  (152) 
1

>  <Name>  (152) 
1-[2-(4-fluorophenyl)-2H-pyrazolo[3,4-d]pyrimidin-4-yl]-N-[(2-methoxyphenyl)methyl]piperidine-3-carboxamide

>  <Smile>  (152) 
COc1c(CNC(C(CCC2)CN2c(c2c3)ncnc2nn3-c(cc2)ccc2F)=O)cccc1

>  <Color>  (152) 
YELLOW

>  <Collection>  (152) 
NC

>  <InChI>  (152) 
InChI=1S/C25H25FN6O2/c1-34-22-7-3-2-5-17(22)13-27-25(33)18-6-4-12-31(14-18)24-21-15-32(30-23(21)28-16-29-24)20-10-8-19(26)9-11-20/h2-3,5,7-11,15-16,18H,4,6,12-14H2,1H3,(H,27,33)/t18-/m0/s1

>  <InChI Key>  (152) 
KVZNVVNGLXYXQE-SFHVURJKSA-N

>  <PERCENTSP3>  (152) 
28

>  <Link>  (152) 
https://www.chemdiv.com/catalog/screening-compounds/compound-L094-3415/

>  <MFCDNUMBER>  (152) 
MFCD27232009

>  <CLNUMBER>  (152) 
CL8543

>  <STEREO>  (152) 
RACEMIC MIXTURE

>  <State>  (152) 
Solid

>  <Similarity score>  (152) 
0.21

$$$$
N-butyl-N-methyl-9-(methylsulfanyl)-4-phenyl-2,3-dihydro-1H-cyclopenta[4',5']pyr
     RDKit          2D

 30 34  0  0  0  0  0  0  0  0999 V2000
    1.6394    0.3855    0.0000 C   0  0  0  0  0  0  0  0  0  0  0  0
    0.1397    0.9604    0.0000 C   0  0  0  0  0  0  0  0  0  0  0  0
    0.1397   -0.0396    0.0000 C   0  0  0  0  0  0  0  0  0  0  0  0
    1.1062    1.2187    0.0000 C   0  0  0  0  0  0  0  0  0  0  0  0
    1.0812   -0.3394    0.0000 S   0  0  0  0  0  0  0  0  0  0  0  0
    2.6353    0.4436    0.0000 C   0  0  0  0  0  0  0  0  0  0  0  0
    3.1019    1.3228    0.0000 N   0  0  0  0  0  0  0  0  0  0  0  0
   -0.7228   -0.5353    0.0000 N   0  0  0  0  0  0  0  0  0  0  0  0
   -0.7228    1.4646    0.0000 C   0  0  0  0  0  0  0  0  0  0  0  0
   -1.5935   -0.0396    0.0000 C   0  0  0  0  0  0  0  0  0  0  0  0
    2.5560    2.1686    0.0000 C   0  0  0  0  0  0  0  0  0  0  0  0
    1.5479    2.1062    0.0000 N   0  0  0  0  0  0  0  0  0  0  0  0
   -1.5935    0.9604    0.0000 C   0  0  0  0  0  0  0  0  0  0  0  0
    3.1977   -0.3938    0.0000 N   0  0  0  0  0  0  0  0  0  0  0  0
   -2.4726   -0.5478    0.0000 C   0  0  0  0  0  0  0  0  0  0  0  0
    3.0101    3.0602    0.0000 S   0  0  0  0  0  0  0  0  0  0  0  0
   -0.9354    2.4395    0.0000 C   0  0  0  0  0  0  0  0  0  0  0  0
   -2.3478    1.6394    0.0000 C   0  0  0  0  0  0  0  0  0  0  0  0
   -1.9269    2.5478    0.0000 C   0  0  0  0  0  0  0  0  0  0  0  0
    2.7435   -1.3018    0.0000 C   0  0  0  0  0  0  0  0  0  0  0  0
    4.2101   -0.3394    0.0000 C   0  0  0  0  0  0  0  0  0  0  0  0
   -2.4726   -1.5437    0.0000 C   0  0  0  0  0  0  0  0  0  0  0  0
   -3.3308   -0.0396    0.0000 C   0  0  0  0  0  0  0  0  0  0  0  0
    2.4643    3.8935    0.0000 C   0  0  0  0  0  0  0  0  0  0  0  0
    3.2975   -2.1517    0.0000 C   0  0  0  0  0  0  0  0  0  0  0  0
    2.8436   -3.0435    0.0000 C   0  0  0  0  0  0  0  0  0  0  0  0
    3.3936   -3.8935    0.0000 C   0  0  0  0  0  0  0  0  0  0  0  0
   -3.3308   -2.0436    0.0000 C   0  0  0  0  0  0  0  0  0  0  0  0
   -4.2101   -0.5353    0.0000 C   0  0  0  0  0  0  0  0  0  0  0  0
   -4.2101   -1.5437    0.0000 C   0  0  0  0  0  0  0  0  0  0  0  0
  2  4  1  0
  3  5  1  0
  2  3  2  0
  1  4  2  0
  1  5  1  0
  1  6  1  0
  6  7  2  0
  3  8  1  0
  2  9  1  0
  8 10  2  0
 10 13  1  0
  7 11  1  0
 11 12  2  0
  4 12  1  0
  9 13  2  0
  6 14  1  0
 10 15  1  0
 11 16  1  0
  9 17  1  0
 13 18  1  0
 18 19  1  0
 17 19  1  0
 14 20  1  0
 14 21  1  0
 15 22  1  0
 15 23  2  0
 16 24  1  0
 20 25  1  0
 25 26  1  0
 26 27  1  0
 22 28  2  0
 23 29  1  0
 29 30  2  0
 28 30  1  0
M  END
>  <IDNUMBER>  (153) 
IB08-6082

>  <available>  (153) 
50

>  <H_acceptor>  (153) 
4

>  <H_donor>  (153) 
0

>  <B_rotN>  (153) 
6

>  <N_O>  (153) 
4

>  <logP>  (153) 
6.95

>  <logD>  (153) 
6.95

>  <logSw>  (153) 
-6.91

>  <PSA>  (153) 
67.52

>  <pKa_ma>  (153) 
14

>  <pKa_mb>  (153) 
2.82

>  <N_Chirals>  (153) 
0

>  <Name>  (153) 
N-butyl-N-methyl-9-(methylsulfanyl)-4-phenyl-2,3-dihydro-1H-cyclopenta[4',5']pyrido[3',2':4,5]thieno[3,2-d]pyrimidin-7-amine

>  <Smile>  (153) 
CCCCN(C)c1c2sc3nc(-c4ccccc4)c(CCC4)c4c3c2nc(SC)n1

>  <Color>  (153) 
NOT COLORED

>  <Collection>  (153) 
DC

>  <InChI>  (153) 
InChI=1S/C24H26N4S2/c1-4-5-14-28(2)22-21-20(26-24(27-22)29-3)18-16-12-9-13-17(16)19(25-23(18)30-21)15-10-7-6-8-11-15/h6-8,10-11H,4-5,9,12-14H2,1-3H3

>  <InChI Key>  (153) 
WRHXPIACEIRTIO-UHFFFAOYSA-N

>  <PERCENTSP3>  (153) 
37.5

>  <Link>  (153) 
https://www.chemdiv.com/catalog/screening-compounds/compound-IB08-6082/

>  <STEREO>  (153) 
ACHIRAL

>  <State>  (153) 
Solid

>  <Similarity score>  (153) 
0.21

$$$$
3-(1H-benzimidazol-2-yl)-7-hydroxy-8-[(3-methylpiperidin-1-yl)methyl]-2H-1-benzo
     RDKit          2D

 29 33  0  0  0  0  0  0  0  0999 V2000
    0.1693   -1.4954    0.0000 C   0  0  0  0  0  0  0  0  0  0  0  0
    1.0432   -1.9857    0.0000 C   0  0  0  0  0  0  0  0  0  0  0  0
    0.1693   -0.4851    0.0000 C   0  0  0  0  0  0  0  0  0  0  0  0
    1.9428   -1.5561    0.0000 N   0  0  0  0  0  0  0  0  0  0  0  0
   -0.6945   -0.0000    0.0000 O   0  0  0  0  0  0  0  0  0  0  0  0
   -2.4227   -0.0000    0.0000 C   0  0  0  0  0  0  0  0  0  0  0  0
   -1.5487   -0.4851    0.0000 C   0  0  0  0  0  0  0  0  0  0  0  0
   -0.6945   -1.9857    0.0000 C   0  0  0  0  0  0  0  0  0  0  0  0
    1.1848   -2.9862    0.0000 N   0  0  0  0  0  0  0  0  0  0  0  0
   -1.5487   -1.4954    0.0000 C   0  0  0  0  0  0  0  0  0  0  0  0
   -1.5487    1.5005    0.0000 N   0  0  0  0  0  0  0  0  0  0  0  0
    2.6350   -2.2836    0.0000 C   0  0  0  0  0  0  0  0  0  0  0  0
    2.1702   -3.1530    0.0000 C   0  0  0  0  0  0  0  0  0  0  0  0
   -2.4227    0.9905    0.0000 C   0  0  0  0  0  0  0  0  0  0  0  0
   -3.3020   -0.4851    0.0000 C   0  0  0  0  0  0  0  0  0  0  0  0
    1.0586   -0.0000    0.0000 O   0  0  0  0  0  0  0  0  0  0  0  0
   -2.4227   -1.9857    0.0000 C   0  0  0  0  0  0  0  0  0  0  0  0
   -3.3020   -1.4954    0.0000 C   0  0  0  0  0  0  0  0  0  0  0  0
   -1.5487    2.5162    0.0000 C   0  0  0  0  0  0  0  0  0  0  0  0
   -4.1558   -0.0000    0.0000 O   0  0  0  0  0  0  0  0  0  0  0  0
   -0.6945    0.9905    0.0000 C   0  0  0  0  0  0  0  0  0  0  0  0
   -0.6945    3.0065    0.0000 C   0  0  0  0  0  0  0  0  0  0  0  0
    0.1693    1.5005    0.0000 C   0  0  0  0  0  0  0  0  0  0  0  0
    3.6404   -2.2282    0.0000 C   0  0  0  0  0  0  0  0  0  0  0  0
    2.7008   -4.0016    0.0000 C   0  0  0  0  0  0  0  0  0  0  0  0
    0.1693    2.5162    0.0000 C   0  0  0  0  0  0  0  0  0  0  0  0
   -0.6945    4.0016    0.0000 C   0  0  0  0  0  0  0  0  0  0  0  0
    3.7111   -3.9663    0.0000 C   0  0  0  0  0  0  0  0  0  0  0  0
    4.1558   -3.0771    0.0000 C   0  0  0  0  0  0  0  0  0  0  0  0
  1  2  1  0
  1  3  1  0
  2  4  2  0
  3  5  1  0
  6  7  2  0
  6 15  1  0
  7 10  1  0
  5  7  1  0
  1  8  2  0
  2  9  1  0
  8 10  1  0
 11 14  1  0
  4 12  1  0
  9 13  1  0
 12 13  2  0
  6 14  1  0
 15 18  2  0
  3 16  2  0
 10 17  2  0
 17 18  1  0
 11 19  1  0
 15 20  1  0
 11 21  1  0
 19 22  1  0
 21 23  1  0
 12 24  1  0
 13 25  1  0
 23 26  1  0
 22 26  1  0
 22 27  1  0
 25 28  2  0
 24 29  2  0
 28 29  1  0
M  END
>  <IDNUMBER>  (154) 
3570-0022

>  <available>  (154) 
16

>  <H_acceptor>  (154) 
6

>  <H_donor>  (154) 
2

>  <B_rotN>  (154) 
3

>  <N_O>  (154) 
6

>  <logP>  (154) 
3.9038

>  <logD>  (154) 
3.5281

>  <logSw>  (154) 
-3.8347

>  <PSA>  (154) 
60.078

>  <pKa_ma>  (154) 
8.9618

>  <pKa_mb>  (154) 
7.5384

>  <N_Chirals>  (154) 
1

>  <Name>  (154) 
3-(1H-benzimidazol-2-yl)-7-hydroxy-8-[(3-methylpiperidin-1-yl)methyl]-2H-1-benzopyran-2-one

>  <Smile>  (154) 
CC1CN(Cc(c(O2)c(cc3)C=C(c4nc(cccc5)c5[nH]4)C2=O)c3O)CCC1

>  <Color>  (154) 
YELLOW

>  <Collection>  (154) 
DC

>  <InChI>  (154) 
InChI=1S/C23H23N3O3/c1-14-5-4-10-26(12-14)13-17-20(27)9-8-15-11-16(23(28)29-21(15)17)22-24-18-6-2-3-7-19(18)25-22/h2-3,6-9,11,14,27H,4-5,10,12-13H2,1H3,(H,24,25)/t14-/m0/s1

>  <InChI Key>  (154) 
LEVIEHQOTYXYMA-AWEZNQCLSA-N

>  <PERCENTSP3>  (154) 
30.4

>  <Link>  (154) 
https://www.chemdiv.com/catalog/screening-compounds/compound-3570-0022/

>  <MFCDNUMBER>  (154) 
MFCD01948328

>  <CLNUMBER>  (154) 
CL3319

>  <STEREO>  (154) 
RACEMIC MIXTURE

>  <State>  (154) 
Solid

>  <Similarity score>  (154) 
0.21

$$$$
3-(1H-benzimidazol-2-yl)-8-[(2-ethylpiperidin-1-yl)methyl]-7-hydroxy-2H-1-benzop
     RDKit          2D

 30 34  0  0  0  0  0  0  0  0999 V2000
    0.1855   -1.4436    0.0000 C   0  0  0  0  0  0  0  0  0  0  0  0
    1.0636   -1.9564    0.0000 C   0  0  0  0  0  0  0  0  0  0  0  0
    0.1855   -0.4479    0.0000 C   0  0  0  0  0  0  0  0  0  0  0  0
   -2.4132    0.0472    0.0000 C   0  0  0  0  0  0  0  0  0  0  0  0
    1.9711   -1.5615    0.0000 N   0  0  0  0  0  0  0  0  0  0  0  0
   -0.6806    0.0648    0.0000 O   0  0  0  0  0  0  0  0  0  0  0  0
   -1.5352   -0.4479    0.0000 C   0  0  0  0  0  0  0  0  0  0  0  0
   -0.6806   -1.9564    0.0000 C   0  0  0  0  0  0  0  0  0  0  0  0
    1.1579   -2.9463    0.0000 N   0  0  0  0  0  0  0  0  0  0  0  0
   -2.4013    1.0548    0.0000 C   0  0  0  0  0  0  0  0  0  0  0  0
   -1.5352    1.5323    0.0000 N   0  0  0  0  0  0  0  0  0  0  0  0
   -1.5528   -1.4436    0.0000 C   0  0  0  0  0  0  0  0  0  0  0  0
    2.6428   -2.2922    0.0000 C   0  0  0  0  0  0  0  0  0  0  0  0
    2.1420   -3.1587    0.0000 C   0  0  0  0  0  0  0  0  0  0  0  0
   -3.2794   -0.4479    0.0000 C   0  0  0  0  0  0  0  0  0  0  0  0
    1.0636    0.0472    0.0000 O   0  0  0  0  0  0  0  0  0  0  0  0
   -2.4307   -1.9387    0.0000 C   0  0  0  0  0  0  0  0  0  0  0  0
   -1.5352    2.5516    0.0000 C   0  0  0  0  0  0  0  0  0  0  0  0
   -3.2794   -1.4380    0.0000 C   0  0  0  0  0  0  0  0  0  0  0  0
   -4.1280    0.0648    0.0000 O   0  0  0  0  0  0  0  0  0  0  0  0
   -0.6806    1.0372    0.0000 C   0  0  0  0  0  0  0  0  0  0  0  0
    3.6329   -2.2922    0.0000 C   0  0  0  0  0  0  0  0  0  0  0  0
    2.6371   -4.0366    0.0000 C   0  0  0  0  0  0  0  0  0  0  0  0
   -2.4013    3.0467    0.0000 C   0  0  0  0  0  0  0  0  0  0  0  0
   -0.6631    3.0467    0.0000 C   0  0  0  0  0  0  0  0  0  0  0  0
    0.1855    1.5264    0.0000 C   0  0  0  0  0  0  0  0  0  0  0  0
   -2.4132    4.0366    0.0000 C   0  0  0  0  0  0  0  0  0  0  0  0
    3.6329   -4.0366    0.0000 C   0  0  0  0  0  0  0  0  0  0  0  0
    4.1280   -3.1587    0.0000 C   0  0  0  0  0  0  0  0  0  0  0  0
    0.2034    2.5223    0.0000 C   0  0  0  0  0  0  0  0  0  0  0  0
  1  2  1  0
  1  3  1  0
  4  7  2  0
  2  5  2  0
  3  6  1  0
  6  7  1  0
  7 12  1  0
  1  8  2  0
  2  9  1  0
  4 10  1  0
 10 11  1  0
  8 12  1  0
  5 13  1  0
 13 14  2  0
  9 14  1  0
 15 19  2  0
  4 15  1  0
  3 16  2  0
 12 17  2  0
 11 18  1  0
 17 19  1  0
 15 20  1  0
 11 21  1  0
 13 22  1  0
 14 23  1  0
 18 24  1  0
 18 25  1  0
 25 30  1  0
 21 26  1  0
 24 27  1  0
 23 28  2  0
 28 29  1  0
 22 29  2  0
 26 30  1  0
M  END
>  <IDNUMBER>  (155) 
3570-0329

>  <available>  (155) 
32

>  <H_acceptor>  (155) 
6

>  <H_donor>  (155) 
2

>  <B_rotN>  (155) 
4

>  <N_O>  (155) 
6

>  <logP>  (155) 
4.3164

>  <logD>  (155) 
3.746

>  <logSw>  (155) 
-3.979

>  <PSA>  (155) 
59.957

>  <pKa_ma>  (155) 
8.9618

>  <pKa_mb>  (155) 
7.8344

>  <N_Chirals>  (155) 
1

>  <Name>  (155) 
3-(1H-benzimidazol-2-yl)-8-[(2-ethylpiperidin-1-yl)methyl]-7-hydroxy-2H-1-benzopyran-2-one

>  <Smile>  (155) 
CCC1N(Cc(c(O2)c(cc3)C=C(c4nc(cccc5)c5[nH]4)C2=O)c3O)CCCC1

>  <Color>  (155) 
YELLOW

>  <Collection>  (155) 
DC

>  <InChI>  (155) 
InChI=1S/C24H25N3O3/c1-2-16-7-5-6-12-27(16)14-18-21(28)11-10-15-13-17(24(29)30-22(15)18)23-25-19-8-3-4-9-20(19)26-23/h3-4,8-11,13,16,28H,2,5-7,12,14H2,1H3,(H,25,26)/t16-/m0/s1

>  <InChI Key>  (155) 
RTWFMEFZEAPDJB-INIZCTEOSA-N

>  <PERCENTSP3>  (155) 
33.3

>  <Link>  (155) 
https://www.chemdiv.com/catalog/screening-compounds/compound-3570-0329/

>  <MFCDNUMBER>  (155) 
MFCD01911084

>  <CLNUMBER>  (155) 
CL3319

>  <STEREO>  (155) 
RACEMIC MIXTURE

>  <State>  (155) 
Solid

>  <Similarity score>  (155) 
0.21

$$$$
N-[(2,4-difluorophenyl)methyl]-1-(4-oxo-7-phenyl-3,4-dihydrothieno[3,2-d]pyrimid
     RDKit          2D

 34 38  0  0  0  0  0  0  0  0999 V2000
   -3.0507    0.4316    0.0000 C   0  0  0  0  0  0  0  0  0  0  0  0
   -3.0407   -0.5729    0.0000 C   0  0  0  0  0  0  0  0  0  0  0  0
   -1.3096    0.4316    0.0000 C   0  0  0  0  0  0  0  0  0  0  0  0
   -2.1879    0.9412    0.0000 N   0  0  0  0  0  0  0  0  0  0  0  0
   -1.3096   -0.5729    0.0000 N   0  0  0  0  0  0  0  0  0  0  0  0
   -2.1777   -1.0726    0.0000 C   0  0  0  0  0  0  0  0  0  0  0  0
   -3.9945    0.7292    0.0000 C   0  0  0  0  0  0  0  0  0  0  0  0
   -3.9896   -0.8858    0.0000 S   0  0  0  0  0  0  0  0  0  0  0  0
   -0.4467    0.9312    0.0000 N   0  0  0  0  0  0  0  0  0  0  0  0
   -4.5800   -0.0733    0.0000 C   0  0  0  0  0  0  0  0  0  0  0  0
    1.2793    0.9259    0.0000 C   0  0  0  0  0  0  0  0  0  0  0  0
    2.1525    0.4163    0.0000 C   0  0  0  0  0  0  0  0  0  0  0  0
    0.4165    0.4263    0.0000 C   0  0  0  0  0  0  0  0  0  0  0  0
    4.7316   -1.0875    0.0000 C   0  0  0  0  0  0  0  0  0  0  0  0
    3.8785   -0.5729    0.0000 C   0  0  0  0  0  0  0  0  0  0  0  0
    3.0206    0.9159    0.0000 N   0  0  0  0  0  0  0  0  0  0  0  0
    4.7316   -2.0718    0.0000 C   0  0  0  0  0  0  0  0  0  0  0  0
   -4.3125    1.6830    0.0000 C   0  0  0  0  0  0  0  0  0  0  0  0
   -2.1777   -2.0718    0.0000 O   0  0  0  0  0  0  0  0  0  0  0  0
    3.8835    0.4112    0.0000 C   0  0  0  0  0  0  0  0  0  0  0  0
    2.1423   -0.5829    0.0000 O   0  0  0  0  0  0  0  0  0  0  0  0
    3.0055   -1.0574    0.0000 C   0  0  0  0  0  0  0  0  0  0  0  0
    3.8534   -2.5714    0.0000 C   0  0  0  0  0  0  0  0  0  0  0  0
    5.6095   -0.5881    0.0000 F   0  0  0  0  0  0  0  0  0  0  0  0
   -0.4467    1.9253    0.0000 C   0  0  0  0  0  0  0  0  0  0  0  0
    2.9902   -2.0718    0.0000 C   0  0  0  0  0  0  0  0  0  0  0  0
    3.8483   -3.5706    0.0000 F   0  0  0  0  0  0  0  0  0  0  0  0
    1.2895    1.9253    0.0000 C   0  0  0  0  0  0  0  0  0  0  0  0
    0.4165    2.4251    0.0000 C   0  0  0  0  0  0  0  0  0  0  0  0
   -3.6413    2.4300    0.0000 C   0  0  0  0  0  0  0  0  0  0  0  0
   -5.2917    1.8950    0.0000 C   0  0  0  0  0  0  0  0  0  0  0  0
   -3.9591    3.3740    0.0000 C   0  0  0  0  0  0  0  0  0  0  0  0
   -5.6095    2.8288    0.0000 C   0  0  0  0  0  0  0  0  0  0  0  0
   -4.9334    3.5706    0.0000 C   0  0  0  0  0  0  0  0  0  0  0  0
  1  2  2  0
  3  4  2  0
  1  4  1  0
  3  5  1  0
  5  6  1  0
  2  6  1  0
  1  7  1  0
  2  8  1  0
  8 10  1  0
  3  9  1  0
  7 10  2  0
 11 13  1  0
 11 12  1  0
  9 13  1  0
 14 15  2  0
 15 20  1  0
 12 16  1  0
 14 17  1  0
 17 23  2  0
  7 18  1  0
  6 19  2  0
 16 20  1  0
 12 21  2  0
 15 22  1  0
 23 26  1  0
 14 24  1  0
  9 25  1  0
 22 26  2  0
 23 27  1  0
 28 29  1  0
 11 28  1  0
 25 29  1  0
 18 30  1  0
 18 31  2  0
 30 32  2  0
 31 33  1  0
 33 34  2  0
 32 34  1  0
M  END
>  <IDNUMBER>  (156) 
Z250-1301

>  <available>  (156) 
61

>  <H_acceptor>  (156) 
5

>  <H_donor>  (156) 
2

>  <B_rotN>  (156) 
6

>  <N_O>  (156) 
6

>  <logP>  (156) 
3.994

>  <logD>  (156) 
3.9939

>  <logSw>  (156) 
-4.1367

>  <PSA>  (156) 
60.798

>  <pKa_ma>  (156) 
11.0862

>  <pKa_mb>  (156) 
-1.8563

>  <N_Chirals>  (156) 
1

>  <Name>  (156) 
N-[(2,4-difluorophenyl)methyl]-1-(4-oxo-7-phenyl-3,4-dihydrothieno[3,2-d]pyrimidin-2-yl)piperidine-3-carboxamide

>  <Smile>  (156) 
O=C(C(CCC1)CN1C(NC1=O)=Nc2c1scc2-c1ccccc1)NCc(ccc(F)c1)c1F

>  <Color>  (156) 
NOT COLORED

>  <Collection>  (156) 
NC

>  <InChI>  (156) 
InChI=1S/C25H22F2N4O2S/c26-18-9-8-16(20(27)11-18)12-28-23(32)17-7-4-10-31(13-17)25-29-21-19(15-5-2-1-3-6-15)14-34-22(21)24(33)30-25/h1-3,5-6,8-9,11,14,17H,4,7,10,12-13H2,(H,28,32)(H,29,30,33)/t17-/m0/
s1

>  <InChI Key>  (156) 
JBVREQLXAXOOHE-KRWDZBQOSA-N

>  <PERCENTSP3>  (156) 
24

>  <Link>  (156) 
https://www.chemdiv.com/catalog/screening-compounds/compound-Z250-1301/

>  <MFCDNUMBER>  (156) 
MFCD18789155

>  <CLNUMBER>  (156) 
CL8892

>  <STEREO>  (156) 
RACEMIC MIXTURE

>  <State>  (156) 
Solid

>  <Similarity score>  (156) 
0.21

$$$$
4-(1,2,3,4-tetrahydrobenzo[a]phenanthridin-5-yl)benzene-1,2-diol
     RDKit          2D

 26 30  0  0  0  0  0  0  0  0999 V2000
    0.4277   -0.4880    0.0000 N   0  0  0  0  0  0  0  0  0  0  0  0
    0.4023    0.5196    0.0000 C   0  0  0  0  0  0  0  0  0  0  0  0
   -1.3021    0.4815    0.0000 C   0  0  0  0  0  0  0  0  0  0  0  0
   -1.3021   -0.4880    0.0000 C   0  0  0  0  0  0  0  0  0  0  0  0
   -0.4150    1.0012    0.0000 C   0  0  0  0  0  0  0  0  0  0  0  0
   -0.4150   -1.0012    0.0000 C   0  0  0  0  0  0  0  0  0  0  0  0
    1.2831    1.0012    0.0000 C   0  0  0  0  0  0  0  0  0  0  0  0
   -2.1575   -1.0012    0.0000 C   0  0  0  0  0  0  0  0  0  0  0  0
    2.1384    0.5196    0.0000 C   0  0  0  0  0  0  0  0  0  0  0  0
    2.9875    1.0012    0.0000 C   0  0  0  0  0  0  0  0  0  0  0  0
    3.0129    2.0022    0.0000 C   0  0  0  0  0  0  0  0  0  0  0  0
   -0.4150   -2.0086    0.0000 C   0  0  0  0  0  0  0  0  0  0  0  0
    1.2831    2.0022    0.0000 C   0  0  0  0  0  0  0  0  0  0  0  0
   -2.1575   -2.0086    0.0000 C   0  0  0  0  0  0  0  0  0  0  0  0
    2.1700    2.5218    0.0000 C   0  0  0  0  0  0  0  0  0  0  0  0
   -1.3021   -2.4965    0.0000 C   0  0  0  0  0  0  0  0  0  0  0  0
    3.8238    0.4688    0.0000 O   0  0  0  0  0  0  0  0  0  0  0  0
   -2.1639    1.0012    0.0000 C   0  0  0  0  0  0  0  0  0  0  0  0
    3.8873    2.4776    0.0000 O   0  0  0  0  0  0  0  0  0  0  0  0
   -0.4342    2.0212    0.0000 C   0  0  0  0  0  0  0  0  0  0  0  0
   -3.0319   -0.4880    0.0000 C   0  0  0  0  0  0  0  0  0  0  0  0
   -3.0002   -2.5218    0.0000 C   0  0  0  0  0  0  0  0  0  0  0  0
   -2.1828    2.0022    0.0000 C   0  0  0  0  0  0  0  0  0  0  0  0
   -1.3211    2.5218    0.0000 C   0  0  0  0  0  0  0  0  0  0  0  0
   -3.8873   -1.0012    0.0000 C   0  0  0  0  0  0  0  0  0  0  0  0
   -3.8557   -2.0086    0.0000 C   0  0  0  0  0  0  0  0  0  0  0  0
  1  2  2  0
  3  4  1  0
  3  5  2  0
  4  6  2  0
  2  5  1  0
  1  6  1  0
  2  7  1  0
  4  8  1  0
  8 14  2  0
  7  9  1  0
  9 10  2  0
 11 15  2  0
 10 11  1  0
  6 12  1  0
  7 13  2  0
 14 16  1  0
 13 15  1  0
 12 16  2  0
 10 17  1  0
  3 18  1  0
 11 19  1  0
  5 20  1  0
  8 21  1  0
 14 22  1  0
 18 23  1  0
 20 24  1  0
 23 24  1  0
 21 25  2  0
 25 26  1  0
 22 26  2  0
M  END
>  <IDNUMBER>  (157) 
0820-0895

>  <available>  (157) 
60

>  <H_acceptor>  (157) 
3

>  <H_donor>  (157) 
2

>  <B_rotN>  (157) 
1

>  <N_O>  (157) 
3

>  <logP>  (157) 
5.6686

>  <logD>  (157) 
5.6175

>  <logSw>  (157) 
-6.8911

>  <PSA>  (157) 
41.813

>  <pKa_ma>  (157) 
8.3765

>  <pKa_mb>  (157) 
5.6394

>  <N_Chirals>  (157) 
0

>  <Name>  (157) 
4-(1,2,3,4-tetrahydrobenzo[a]phenanthridin-5-yl)benzene-1,2-diol

>  <Smile>  (157) 
Oc(ccc(-c1nc2ccc(cccc3)c3c2c2c1CCCC2)c1)c1O

>  <Color>  (157) 
BROWN

>  <Collection>  (157) 
DC

>  <InChI>  (157) 
InChI=1S/C23H19NO2/c25-20-12-10-15(13-21(20)26)23-18-8-4-3-7-17(18)22-16-6-2-1-5-14(16)9-11-19(22)24-23/h1-2,5-6,9-13,25-26H,3-4,7-8H2

>  <InChI Key>  (157) 
IMWNOAJRQNURFJ-UHFFFAOYSA-N

>  <PERCENTSP3>  (157) 
17.4

>  <Link>  (157) 
https://www.chemdiv.com/catalog/screening-compounds/compound-0820-0895/

>  <MFCDNUMBER>  (157) 
MFCD00363369

>  <STEREO>  (157) 
ACHIRAL

>  <State>  (157) 
Solid

>  <Similarity score>  (157) 
0.21

$$$$
5-{4-[(2-fluorophenyl)methoxy]phenyl}-3-methyl-1,2,3,4-tetrahydrobenzo[a]phenant
     RDKit          2D

 34 39  0  0  0  0  0  0  0  0999 V2000
   -1.7956   -0.0346    0.0000 C   0  0  0  0  0  0  0  0  0  0  0  0
   -0.8150   -0.0346    0.0000 C   0  0  0  0  0  0  0  0  0  0  0  0
   -0.7806   -1.7320    0.0000 N   0  0  0  0  0  0  0  0  0  0  0  0
   -0.2973   -0.8723    0.0000 C   0  0  0  0  0  0  0  0  0  0  0  0
   -2.2789   -0.8723    0.0000 C   0  0  0  0  0  0  0  0  0  0  0  0
   -1.7862   -1.7320    0.0000 C   0  0  0  0  0  0  0  0  0  0  0  0
   -3.2532   -0.8723    0.0000 C   0  0  0  0  0  0  0  0  0  0  0  0
   -2.3039    0.8268    0.0000 C   0  0  0  0  0  0  0  0  0  0  0  0
    0.7147   -0.8723    0.0000 C   0  0  0  0  0  0  0  0  0  0  0  0
    3.7380    0.8504    0.0000 C   0  0  0  0  0  0  0  0  0  0  0  0
   -0.3193    0.8268    0.0000 C   0  0  0  0  0  0  0  0  0  0  0  0
   -2.2789   -2.6043    0.0000 C   0  0  0  0  0  0  0  0  0  0  0  0
    4.2448    1.6912    0.0000 C   0  0  0  0  0  0  0  0  0  0  0  0
    4.2697    0.0031    0.0000 C   0  0  0  0  0  0  0  0  0  0  0  0
   -3.7582   -1.7320    0.0000 C   0  0  0  0  0  0  0  0  0  0  0  0
   -3.2532   -2.6043    0.0000 C   0  0  0  0  0  0  0  0  0  0  0  0
    1.2198   -1.7416    0.0000 C   0  0  0  0  0  0  0  0  0  0  0  0
    1.2198    0.0127    0.0000 C   0  0  0  0  0  0  0  0  0  0  0  0
    3.7661   -0.8723    0.0000 O   0  0  0  0  0  0  0  0  0  0  0  0
    2.7543   -0.8723    0.0000 C   0  0  0  0  0  0  0  0  0  0  0  0
   -1.8614    1.6912    0.0000 C   0  0  0  0  0  0  0  0  0  0  0  0
    5.2675    1.6912    0.0000 F   0  0  0  0  0  0  0  0  0  0  0  0
    2.1847   -1.7416    0.0000 C   0  0  0  0  0  0  0  0  0  0  0  0
    2.1847    0.0127    0.0000 C   0  0  0  0  0  0  0  0  0  0  0  0
   -0.8277    1.6912    0.0000 C   0  0  0  0  0  0  0  0  0  0  0  0
   -3.7849   -0.0346    0.0000 C   0  0  0  0  0  0  0  0  0  0  0  0
    2.7166    0.8504    0.0000 C   0  0  0  0  0  0  0  0  0  0  0  0
    3.7128    2.6043    0.0000 C   0  0  0  0  0  0  0  0  0  0  0  0
   -4.7701   -1.7320    0.0000 C   0  0  0  0  0  0  0  0  0  0  0  0
   -0.3193    2.5385    0.0000 C   0  0  0  0  0  0  0  0  0  0  0  0
   -4.7701   -0.0346    0.0000 C   0  0  0  0  0  0  0  0  0  0  0  0
    2.2114    1.7194    0.0000 C   0  0  0  0  0  0  0  0  0  0  0  0
    2.7166    2.6043    0.0000 C   0  0  0  0  0  0  0  0  0  0  0  0
   -5.2675   -0.8723    0.0000 C   0  0  0  0  0  0  0  0  0  0  0  0
  1  2  2  0
  3  6  1  0
  2  4  1  0
  3  4  2  0
  1  5  1  0
  5  6  2  0
  5  7  1  0
  1  8  1  0
  4  9  1  0
 10 14  1  0
  2 11  1  0
 11 25  1  0
  6 12  1  0
 10 13  1  0
 14 19  1  0
  7 15  2  0
 15 16  1  0
 12 16  2  0
  9 17  1  0
  9 18  2  0
 19 20  1  0
 20 24  2  0
  8 21  1  0
 13 22  1  0
 17 23  2  0
 20 23  1  0
 18 24  1  0
 21 25  1  0
 25 30  1  0
  7 26  1  0
 10 27  2  0
 13 28  2  0
 28 33  1  0
 15 29  1  0
 29 34  2  0
 26 31  2  0
 27 32  1  0
 32 33  2  0
 31 34  1  0
M  END
>  <IDNUMBER>  (158) 
8012-9716

>  <available>  (158) 
54

>  <H_acceptor>  (158) 
2

>  <H_donor>  (158) 
0

>  <B_rotN>  (158) 
4

>  <N_O>  (158) 
2

>  <logP>  (158) 
8.3289

>  <logD>  (158) 
8.3287

>  <logSw>  (158) 
-7.1718

>  <PSA>  (158) 
15.9446

>  <pKa_ma>  (158) 
20.7849

>  <pKa_mb>  (158) 
3.9832

>  <N_Chirals>  (158) 
1

>  <Name>  (158) 
5-{4-[(2-fluorophenyl)methoxy]phenyl}-3-methyl-1,2,3,4-tetrahydrobenzo[a]phenanthridine

>  <Smile>  (158) 
CC(CC1)Cc2c1c1c(cccc3)c3ccc1nc2-c(cc1)ccc1OCc(cccc1)c1F

>  <Color>  (158) 
NOT COLORED

>  <Collection>  (158) 
DC

>  <InChI>  (158) 
InChI=1S/C31H26FNO/c1-20-10-16-26-27(18-20)31(33-29-17-13-21-6-2-4-8-25(21)30(26)29)22-11-14-24(15-12-22)34-19-23-7-3-5-9-28(23)32/h2-9,11-15,17,20H,10,16,18-19H2,1H3/t20-/m1/s1

>  <InChI Key>  (158) 
GQKITBQIWIUBLA-HXUWFJFHSA-N

>  <PERCENTSP3>  (158) 
19.4

>  <Link>  (158) 
https://www.chemdiv.com/catalog/screening-compounds/compound-8012-9716/

>  <MFCDNUMBER>  (158) 
MFCD03308386

>  <STEREO>  (158) 
RACEMIC MIXTURE

>  <State>  (158) 
Solid

>  <Similarity score>  (158) 
0.21

$$$$
ethyl 1-(3-benzoyl-6-fluoroquinolin-4-yl)piperidine-3-carboxylate
     RDKit          2D

 30 33  0  0  0  0  0  0  0  0999 V2000
    0.8690   -1.5151    0.0000 C   0  0  0  0  0  0  0  0  0  0  0  0
   -0.0076   -1.0152    0.0000 C   0  0  0  0  0  0  0  0  0  0  0  0
   -0.0076   -0.0121    0.0000 N   0  0  0  0  0  0  0  0  0  0  0  0
   -0.8751   -1.5151    0.0000 C   0  0  0  0  0  0  0  0  0  0  0  0
    1.7274   -1.0152    0.0000 C   0  0  0  0  0  0  0  0  0  0  0  0
   -0.8751    1.4970    0.0000 C   0  0  0  0  0  0  0  0  0  0  0  0
    0.8690   -2.5153    0.0000 C   0  0  0  0  0  0  0  0  0  0  0  0
   -0.8751    0.4911    0.0000 C   0  0  0  0  0  0  0  0  0  0  0  0
   -0.0076   -3.0122    0.0000 N   0  0  0  0  0  0  0  0  0  0  0  0
   -1.7516    2.0001    0.0000 C   0  0  0  0  0  0  0  0  0  0  0  0
   -0.8751   -2.5153    0.0000 C   0  0  0  0  0  0  0  0  0  0  0  0
   -1.7336   -1.0152    0.0000 C   0  0  0  0  0  0  0  0  0  0  0  0
    1.7455   -0.0150    0.0000 O   0  0  0  0  0  0  0  0  0  0  0  0
    2.5950   -1.5151    0.0000 C   0  0  0  0  0  0  0  0  0  0  0  0
   -1.7336    3.0122    0.0000 O   0  0  0  0  0  0  0  0  0  0  0  0
   -1.7336   -3.0122    0.0000 C   0  0  0  0  0  0  0  0  0  0  0  0
    0.8510    0.4911    0.0000 C   0  0  0  0  0  0  0  0  0  0  0  0
   -2.5950   -1.5151    0.0000 C   0  0  0  0  0  0  0  0  0  0  0  0
   -2.6130    1.5031    0.0000 O   0  0  0  0  0  0  0  0  0  0  0  0
   -2.5950   -2.5153    0.0000 C   0  0  0  0  0  0  0  0  0  0  0  0
   -3.4596   -1.0089    0.0000 F   0  0  0  0  0  0  0  0  0  0  0  0
   -0.0076    1.9941    0.0000 C   0  0  0  0  0  0  0  0  0  0  0  0
    0.8510    1.4970    0.0000 C   0  0  0  0  0  0  0  0  0  0  0  0
    3.4534   -1.0152    0.0000 C   0  0  0  0  0  0  0  0  0  0  0  0
    2.5950   -2.5153    0.0000 C   0  0  0  0  0  0  0  0  0  0  0  0
   -3.4777    2.0001    0.0000 C   0  0  0  0  0  0  0  0  0  0  0  0
   -4.3361    1.5031    0.0000 C   0  0  0  0  0  0  0  0  0  0  0  0
    3.4534   -3.0122    0.0000 C   0  0  0  0  0  0  0  0  0  0  0  0
    4.3361   -1.5151    0.0000 C   0  0  0  0  0  0  0  0  0  0  0  0
    4.3181   -2.5153    0.0000 C   0  0  0  0  0  0  0  0  0  0  0  0
  1  2  2  0
  2  3  1  0
  2  4  1  0
  4 11  1  0
  1  5  1  0
  6  8  1  0
  6 22  1  0
  1  7  1  0
  3  8  1  0
  7  9  2  0
  6 10  1  0
  9 11  1  0
  4 12  2  0
  5 13  2  0
  5 14  1  0
 10 15  2  0
 11 16  2  0
  3 17  1  0
 12 18  1  0
 10 19  1  0
 16 20  1  0
 18 20  2  0
 18 21  1  0
 22 23  1  0
 17 23  1  0
 14 24  1  0
 14 25  2  0
 19 26  1  0
 26 27  1  0
 25 28  1  0
 24 29  2  0
 28 30  2  0
 29 30  1  0
M  END
>  <IDNUMBER>  (159) 
C768-0079

>  <available>  (159) 
27

>  <H_acceptor>  (159) 
6

>  <H_donor>  (159) 
0

>  <B_rotN>  (159) 
6

>  <N_O>  (159) 
5

>  <logP>  (159) 
4.5625

>  <logD>  (159) 
4.5625

>  <logSw>  (159) 
-4.2155

>  <PSA>  (159) 
46.096

>  <pKa_ma>  (159) 
22.0477

>  <pKa_mb>  (159) 
3.0268

>  <N_Chirals>  (159) 
1

>  <Name>  (159) 
ethyl 1-(3-benzoyl-6-fluoroquinolin-4-yl)piperidine-3-carboxylate

>  <Smile>  (159) 
CCOC(C(CCC1)CN1c1c(cc(cc2)F)c2ncc1C(c1ccccc1)=O)=O

>  <Color>  (159) 
YELLOW

>  <Collection>  (159) 
DC

>  <InChI>  (159) 
InChI=1S/C24H23FN2O3/c1-2-30-24(29)17-9-6-12-27(15-17)22-19-13-18(25)10-11-21(19)26-14-20(22)23(28)16-7-4-3-5-8-16/h3-5,7-8,10-11,13-14,17H,2,6,9,12,15H2,1H3/t17-/m0/s1

>  <InChI Key>  (159) 
PULUNYJZAPXCAY-KRWDZBQOSA-N

>  <PERCENTSP3>  (159) 
29.2

>  <Link>  (159) 
https://www.chemdiv.com/catalog/screening-compounds/compound-C768-0079/

>  <MFCDNUMBER>  (159) 
MFCD14792661

>  <CLNUMBER>  (159) 
CL3581

>  <STEREO>  (159) 
RACEMIC MIXTURE

>  <CAS>  (159) 
902942-92-1

>  <State>  (159) 
Solid

>  <Similarity score>  (159) 
0.21

$$$$
1-(9-fluoro[1]benzothieno[3,2-d]pyrimidin-4-yl)-N-[(3-methoxyphenyl)methyl]piper
     RDKit          2D

 32 36  0  0  0  0  0  0  0  0999 V2000
   -2.8369    0.2168    0.0000 C   0  0  0  0  0  0  0  0  0  0  0  0
   -3.4362    1.0280    0.0000 C   0  0  0  0  0  0  0  0  0  0  0  0
   -3.4212   -0.5995    0.0000 S   0  0  0  0  0  0  0  0  0  0  0  0
   -1.8492    0.3224    0.0000 C   0  0  0  0  0  0  0  0  0  0  0  0
   -4.3886    0.7055    0.0000 C   0  0  0  0  0  0  0  0  0  0  0  0
   -1.2596   -0.4888    0.0000 N   0  0  0  0  0  0  0  0  0  0  0  0
   -4.3786   -0.2974    0.0000 C   0  0  0  0  0  0  0  0  0  0  0  0
    0.3125   -1.1892    0.0000 C   0  0  0  0  0  0  0  0  0  0  0  0
    1.3049   -1.0833    0.0000 C   0  0  0  0  0  0  0  0  0  0  0  0
   -1.4411    1.2346    0.0000 N   0  0  0  0  0  0  0  0  0  0  0  0
   -0.2771   -0.3728    0.0000 C   0  0  0  0  0  0  0  0  0  0  0  0
   -3.0283    1.9400    0.0000 N   0  0  0  0  0  0  0  0  0  0  0  0
    1.8846   -1.8947    0.0000 N   0  0  0  0  0  0  0  0  0  0  0  0
   -5.2503    1.2094    0.0000 C   0  0  0  0  0  0  0  0  0  0  0  0
   -2.0305    2.0458    0.0000 C   0  0  0  0  0  0  0  0  0  0  0  0
    1.7131   -0.1765    0.0000 O   0  0  0  0  0  0  0  0  0  0  0  0
    2.8822   -1.7937    0.0000 C   0  0  0  0  0  0  0  0  0  0  0  0
   -1.6678   -1.3958    0.0000 C   0  0  0  0  0  0  0  0  0  0  0  0
   -5.2553    2.2018    0.0000 F   0  0  0  0  0  0  0  0  0  0  0  0
    4.2879   -0.7961    0.0000 C   0  0  0  0  0  0  0  0  0  0  0  0
    3.2854   -0.8870    0.0000 C   0  0  0  0  0  0  0  0  0  0  0  0
   -5.2503   -0.7961    0.0000 C   0  0  0  0  0  0  0  0  0  0  0  0
    4.7062    0.1110    0.0000 C   0  0  0  0  0  0  0  0  0  0  0  0
   -0.0957   -2.0962    0.0000 C   0  0  0  0  0  0  0  0  0  0  0  0
    5.6936    0.2065    0.0000 O   0  0  0  0  0  0  0  0  0  0  0  0
   -1.0935   -2.2018    0.0000 C   0  0  0  0  0  0  0  0  0  0  0  0
   -6.1119   -0.2974    0.0000 C   0  0  0  0  0  0  0  0  0  0  0  0
    3.1240    0.8515    0.0000 C   0  0  0  0  0  0  0  0  0  0  0  0
   -6.1119    0.7055    0.0000 C   0  0  0  0  0  0  0  0  0  0  0  0
    2.7007   -0.0707    0.0000 C   0  0  0  0  0  0  0  0  0  0  0  0
    4.1217    0.9323    0.0000 C   0  0  0  0  0  0  0  0  0  0  0  0
    6.1119    1.1086    0.0000 C   0  0  0  0  0  0  0  0  0  0  0  0
  1  2  2  0
  1  3  1  0
  1  4  1  0
  2  5  1  0
  5  7  1  0
  4  6  1  0
  3  7  1  0
  8 11  1  0
  8  9  1  0
  4 10  2  0
  6 11  1  0
  2 12  1  0
  9 13  1  0
  5 14  2  0
 10 15  1  0
 12 15  2  0
  9 16  2  0
 13 17  1  0
  6 18  1  0
 14 19  1  0
 20 21  2  0
 17 21  1  0
  7 22  2  0
 20 23  1  0
 24 26  1  0
  8 24  1  0
 23 25  1  0
 18 26  1  0
 22 27  1  0
 28 30  2  0
 14 29  1  0
 27 29  2  0
 21 30  1  0
 28 31  1  0
 23 31  2  0
 25 32  1  0
M  END
>  <IDNUMBER>  (160) 
C860-1045

>  <available>  (160) 
2

>  <H_acceptor>  (160) 
5

>  <H_donor>  (160) 
1

>  <B_rotN>  (160) 
6

>  <N_O>  (160) 
6

>  <logP>  (160) 
4.4917

>  <logD>  (160) 
4.4548

>  <logSw>  (160) 
-4.5511

>  <PSA>  (160) 
56.557

>  <pKa_ma>  (160) 
12.8587

>  <pKa_mb>  (160) 
6.3482

>  <N_Chirals>  (160) 
1

>  <Name>  (160) 
1-(9-fluoro[1]benzothieno[3,2-d]pyrimidin-4-yl)-N-[(3-methoxyphenyl)methyl]piperidine-3-carboxamide

>  <Smile>  (160) 
COc1cccc(CNC(C(CCC2)CN2c(ncnc23)c2sc2c3c(F)ccc2)=O)c1

>  <Color>  (160) 
NOT COLORED

>  <Collection>  (160) 
DC

>  <InChI>  (160) 
InChI=1S/C24H23FN4O2S/c1-31-17-7-2-5-15(11-17)12-26-24(30)16-6-4-10-29(13-16)23-22-21(27-14-28-23)20-18(25)8-3-9-19(20)32-22/h2-3,5,7-9,11,14,16H,4,6,10,12-13H2,1H3,(H,26,30)/t16-/m0/s1

>  <InChI Key>  (160) 
FFOVXNSJYCLJLT-INIZCTEOSA-N

>  <PERCENTSP3>  (160) 
29.2

>  <Link>  (160) 
https://www.chemdiv.com/catalog/screening-compounds/compound-C860-1045/

>  <MFCDNUMBER>  (160) 
MFCD14801711

>  <CLNUMBER>  (160) 
CL4052B

>  <STEREO>  (160) 
RACEMIC MIXTURE

>  <State>  (160) 
Solid

>  <Similarity score>  (160) 
0.21

$$$$
3-(4-ethoxyphenyl)-6,8-difluoro-1-(4-methylphenyl)-1H-pyrazolo[4,3-c]quinoline
     RDKit          2D

 31 35  0  0  0  0  0  0  0  0999 V2000
   -1.5767    0.4401    0.0000 N   0  0  0  0  0  0  0  0  0  0  0  0
   -0.9116   -1.0289    0.0000 C   0  0  0  0  0  0  0  0  0  0  0  0
   -1.7895   -0.5317    0.0000 C   0  0  0  0  0  0  0  0  0  0  0  0
   -0.5755    0.5409    0.0000 N   0  0  0  0  0  0  0  0  0  0  0  0
   -0.1522   -0.3503    0.0000 C   0  0  0  0  0  0  0  0  0  0  0  0
   -2.6743   -1.0289    0.0000 C   0  0  0  0  0  0  0  0  0  0  0  0
   -2.6743   -2.0258    0.0000 C   0  0  0  0  0  0  0  0  0  0  0  0
   -1.7895   -2.5205    0.0000 N   0  0  0  0  0  0  0  0  0  0  0  0
   -0.9116   -2.0258    0.0000 C   0  0  0  0  0  0  0  0  0  0  0  0
   -3.5364   -2.5205    0.0000 C   0  0  0  0  0  0  0  0  0  0  0  0
   -2.2060    1.2106    0.0000 C   0  0  0  0  0  0  0  0  0  0  0  0
   -4.4121   -2.0258    0.0000 C   0  0  0  0  0  0  0  0  0  0  0  0
    0.8556   -0.4557    0.0000 C   0  0  0  0  0  0  0  0  0  0  0  0
   -3.5364   -0.5317    0.0000 C   0  0  0  0  0  0  0  0  0  0  0  0
   -4.4121   -1.0289    0.0000 C   0  0  0  0  0  0  0  0  0  0  0  0
   -1.8432    2.1332    0.0000 C   0  0  0  0  0  0  0  0  0  0  0  0
   -3.1736    1.0561    0.0000 C   0  0  0  0  0  0  0  0  0  0  0  0
    1.2676   -1.3559    0.0000 C   0  0  0  0  0  0  0  0  0  0  0  0
    1.4333    0.3595    0.0000 C   0  0  0  0  0  0  0  0  0  0  0  0
   -3.5364   -3.5175    0.0000 F   0  0  0  0  0  0  0  0  0  0  0  0
   -5.2721   -0.5317    0.0000 F   0  0  0  0  0  0  0  0  0  0  0  0
    2.8802   -0.6371    0.0000 C   0  0  0  0  0  0  0  0  0  0  0  0
    2.4456    0.2745    0.0000 C   0  0  0  0  0  0  0  0  0  0  0  0
    2.2754   -1.4521    0.0000 C   0  0  0  0  0  0  0  0  0  0  0  0
   -3.7985    1.8152    0.0000 C   0  0  0  0  0  0  0  0  0  0  0  0
   -2.4794    2.9038    0.0000 C   0  0  0  0  0  0  0  0  0  0  0  0
   -3.4446    2.7471    0.0000 C   0  0  0  0  0  0  0  0  0  0  0  0
    3.8657   -0.7266    0.0000 O   0  0  0  0  0  0  0  0  0  0  0  0
    4.2844   -1.6427    0.0000 C   0  0  0  0  0  0  0  0  0  0  0  0
   -4.0786    3.5175    0.0000 C   0  0  0  0  0  0  0  0  0  0  0  0
    5.2721   -1.7390    0.0000 C   0  0  0  0  0  0  0  0  0  0  0  0
  2  3  2  0
  2  5  1  0
  1  3  1  0
  1  4  1  0
  4  5  2  0
  3  6  1  0
  6  7  1  0
  7  8  1  0
  8  9  2  0
  2  9  1  0
  7 10  2  0
  1 11  1  0
 12 15  2  0
 10 12  1  0
  5 13  1  0
  6 14  2  0
 14 15  1  0
 11 16  2  0
 11 17  1  0
 13 18  2  0
 13 19  1  0
 10 20  1  0
 15 21  1  0
 22 23  1  0
 19 23  2  0
 18 24  1  0
 22 24  2  0
 17 25  2  0
 16 26  1  0
 26 27  2  0
 25 27  1  0
 22 28  1  0
 28 29  1  0
 27 30  1  0
 29 31  1  0
M  END
>  <IDNUMBER>  (161) 
C350-0828

>  <available>  (161) 
170

>  <H_acceptor>  (161) 
3

>  <H_donor>  (161) 
0

>  <B_rotN>  (161) 
4

>  <N_O>  (161) 
4

>  <logP>  (161) 
6.219

>  <logD>  (161) 
6.219

>  <logSw>  (161) 
-5.5614

>  <PSA>  (161) 
30.6039

>  <pKa_ma>  (161) 
28.3737

>  <pKa_mb>  (161) 
2.3022

>  <N_Chirals>  (161) 
0

>  <Name>  (161) 
3-(4-ethoxyphenyl)-6,8-difluoro-1-(4-methylphenyl)-1H-pyrazolo[4,3-c]quinoline

>  <Smile>  (161) 
CCOc(cc1)ccc1-c(c1cnc2c(F)cc(F)cc2c11)nn1-c1ccc(C)cc1

>  <Color>  (161) 
NOT COLORED

>  <Collection>  (161) 
DC

>  <InChI>  (161) 
InChI=1S/C25H19F2N3O/c1-3-31-19-10-6-16(7-11-19)23-21-14-28-24-20(12-17(26)13-22(24)27)25(21)30(29-23)18-8-4-15(2)5-9-18/h4-14H,3H2,1-2H3

>  <InChI Key>  (161) 
PZUQLGDLBXFWIG-UHFFFAOYSA-N

>  <PERCENTSP3>  (161) 
12

>  <Link>  (161) 
https://www.chemdiv.com/catalog/screening-compounds/compound-C350-0828/

>  <MFCDNUMBER>  (161) 
MFCD14750694

>  <CLNUMBER>  (161) 
CL4130

>  <STEREO>  (161) 
ACHIRAL

>  <State>  (161) 
Solid

>  <Similarity score>  (161) 
0.21

$$$$
N-[(2,4-difluorophenyl)methyl]-1-[7-(4-methylphenyl)-4-oxo-3,4-dihydrothieno[3,2
     RDKit          2D

 35 39  0  0  0  0  0  0  0  0999 V2000
   -3.0506   -0.0454    0.0000 C   0  0  0  0  0  0  0  0  0  0  0  0
   -3.0406   -1.0498    0.0000 C   0  0  0  0  0  0  0  0  0  0  0  0
   -1.3095   -0.0454    0.0000 C   0  0  0  0  0  0  0  0  0  0  0  0
   -2.1877    0.4643    0.0000 N   0  0  0  0  0  0  0  0  0  0  0  0
   -1.3095   -1.0498    0.0000 N   0  0  0  0  0  0  0  0  0  0  0  0
   -2.1775   -1.5493    0.0000 C   0  0  0  0  0  0  0  0  0  0  0  0
   -3.9943    0.2522    0.0000 C   0  0  0  0  0  0  0  0  0  0  0  0
   -3.9893   -1.3627    0.0000 S   0  0  0  0  0  0  0  0  0  0  0  0
   -0.4466    0.4542    0.0000 N   0  0  0  0  0  0  0  0  0  0  0  0
   -4.5796   -0.5502    0.0000 C   0  0  0  0  0  0  0  0  0  0  0  0
    1.2792    0.4491    0.0000 C   0  0  0  0  0  0  0  0  0  0  0  0
    2.1523   -0.0606    0.0000 C   0  0  0  0  0  0  0  0  0  0  0  0
    0.4161   -0.0505    0.0000 C   0  0  0  0  0  0  0  0  0  0  0  0
    4.7309   -1.5644    0.0000 C   0  0  0  0  0  0  0  0  0  0  0  0
   -4.3123    1.2061    0.0000 C   0  0  0  0  0  0  0  0  0  0  0  0
    3.8781   -1.0498    0.0000 C   0  0  0  0  0  0  0  0  0  0  0  0
    3.0203    0.4391    0.0000 N   0  0  0  0  0  0  0  0  0  0  0  0
    4.7309   -2.5486    0.0000 C   0  0  0  0  0  0  0  0  0  0  0  0
   -2.1775   -2.5486    0.0000 O   0  0  0  0  0  0  0  0  0  0  0  0
    3.8830   -0.0656    0.0000 C   0  0  0  0  0  0  0  0  0  0  0  0
    2.1421   -1.0599    0.0000 O   0  0  0  0  0  0  0  0  0  0  0  0
    3.0052   -1.5341    0.0000 C   0  0  0  0  0  0  0  0  0  0  0  0
   -3.6410    1.9530    0.0000 C   0  0  0  0  0  0  0  0  0  0  0  0
   -5.2911    1.4180    0.0000 C   0  0  0  0  0  0  0  0  0  0  0  0
    3.8529   -3.0480    0.0000 C   0  0  0  0  0  0  0  0  0  0  0  0
    5.6091   -1.0648    0.0000 F   0  0  0  0  0  0  0  0  0  0  0  0
   -0.4466    1.4482    0.0000 C   0  0  0  0  0  0  0  0  0  0  0  0
    2.9900   -2.5486    0.0000 C   0  0  0  0  0  0  0  0  0  0  0  0
   -5.6091    2.3516    0.0000 C   0  0  0  0  0  0  0  0  0  0  0  0
   -3.9589    2.8967    0.0000 C   0  0  0  0  0  0  0  0  0  0  0  0
    3.8478   -4.0471    0.0000 F   0  0  0  0  0  0  0  0  0  0  0  0
   -4.9330    3.0934    0.0000 C   0  0  0  0  0  0  0  0  0  0  0  0
    1.2892    1.4482    0.0000 C   0  0  0  0  0  0  0  0  0  0  0  0
    0.4161    1.9479    0.0000 C   0  0  0  0  0  0  0  0  0  0  0  0
   -5.2459    4.0471    0.0000 C   0  0  0  0  0  0  0  0  0  0  0  0
  1  2  2  0
  3  4  2  0
  1  4  1  0
  3  5  1  0
  5  6  1  0
  2  6  1  0
  1  7  1  0
  2  8  1  0
  8 10  1  0
  3  9  1  0
  7 10  2  0
 11 13  1  0
 11 12  1  0
  9 13  1  0
 14 16  2  0
  7 15  1  0
 16 20  1  0
 12 17  1  0
 14 18  1  0
 18 25  2  0
  6 19  2  0
 17 20  1  0
 12 21  2  0
 16 22  1  0
 15 23  1  0
 15 24  2  0
 25 28  1  0
 14 26  1  0
  9 27  1  0
 22 28  2  0
 24 29  1  0
 23 30  2  0
 25 31  1  0
 29 32  2  0
 30 32  1  0
 33 34  1  0
 11 33  1  0
 27 34  1  0
 32 35  1  0
M  END
>  <IDNUMBER>  (162) 
Z250-1377

>  <available>  (162) 
58

>  <H_acceptor>  (162) 
5

>  <H_donor>  (162) 
2

>  <B_rotN>  (162) 
6

>  <N_O>  (162) 
6

>  <logP>  (162) 
4.5225

>  <logD>  (162) 
4.5224

>  <logSw>  (162) 
-4.2896

>  <PSA>  (162) 
60.798

>  <pKa_ma>  (162) 
11.0862

>  <pKa_mb>  (162) 
-1.8563

>  <N_Chirals>  (162) 
1

>  <Name>  (162) 
N-[(2,4-difluorophenyl)methyl]-1-[7-(4-methylphenyl)-4-oxo-3,4-dihydrothieno[3,2-d]pyrimidin-2-yl]piperidine-3-carboxamide

>  <Smile>  (162) 
Cc(cc1)ccc1-c1csc(C(N2)=O)c1N=C2N(CCC1)CC1C(NCc(ccc(F)c1)c1F)=O

>  <Color>  (162) 
NOT COLORED

>  <Collection>  (162) 
NC

>  <InChI>  (162) 
InChI=1S/C26H24F2N4O2S/c1-15-4-6-16(7-5-15)20-14-35-23-22(20)30-26(31-25(23)34)32-10-2-3-18(13-32)24(33)29-12-17-8-9-19(27)11-21(17)28/h4-9,11,14,18H,2-3,10,12-13H2,1H3,(H,29,33)(H,30,31,34)/t18-/m0/s
1

>  <InChI Key>  (162) 
CQFJOZQNCOZXEM-SFHVURJKSA-N

>  <PERCENTSP3>  (162) 
26.9

>  <Link>  (162) 
https://www.chemdiv.com/catalog/screening-compounds/compound-Z250-1377/

>  <MFCDNUMBER>  (162) 
MFCD18789204

>  <CLNUMBER>  (162) 
CL8892

>  <STEREO>  (162) 
RACEMIC MIXTURE

>  <State>  (162) 
Solid

>  <Similarity score>  (162) 
0.21

$$$$
N-[(2,5-dimethoxyphenyl)methyl]-1-[3-(4-fluorophenyl)[1,2]oxazolo[5,4-d]pyrimidi
     RDKit          2D

 36 40  0  0  0  0  0  0  0  0999 V2000
   -1.4184   -1.7167    0.0000 C   0  0  0  0  0  0  0  0  0  0  0  0
   -0.6600   -1.0796    0.0000 C   0  0  0  0  0  0  0  0  0  0  0  0
   -2.8447   -2.4753    0.0000 N   0  0  0  0  0  0  0  0  0  0  0  0
   -2.4046   -1.5699    0.0000 C   0  0  0  0  0  0  0  0  0  0  0  0
   -0.8268   -0.0936    0.0000 N   0  0  0  0  0  0  0  0  0  0  0  0
   -1.2516   -2.7029    0.0000 C   0  0  0  0  0  0  0  0  0  0  0  0
   -2.1314   -3.1629    0.0000 O   0  0  0  0  0  0  0  0  0  0  0  0
   -0.2252    1.5298    0.0000 C   0  0  0  0  0  0  0  0  0  0  0  0
    0.5537    2.1669    0.0000 C   0  0  0  0  0  0  0  0  0  0  0  0
    0.2805   -1.4183    0.0000 N   0  0  0  0  0  0  0  0  0  0  0  0
   -0.0584    0.5537    0.0000 C   0  0  0  0  0  0  0  0  0  0  0  0
   -0.3111   -3.0416    0.0000 N   0  0  0  0  0  0  0  0  0  0  0  0
    2.5966    0.4676    0.0000 C   0  0  0  0  0  0  0  0  0  0  0  0
    1.4941    1.8127    0.0000 N   0  0  0  0  0  0  0  0  0  0  0  0
   -3.0717   -0.8266    0.0000 C   0  0  0  0  0  0  0  0  0  0  0  0
    0.4573   -2.4045    0.0000 C   0  0  0  0  0  0  0  0  0  0  0  0
    1.6611    0.8266    0.0000 C   0  0  0  0  0  0  0  0  0  0  0  0
    2.7635   -0.5235    0.0000 C   0  0  0  0  0  0  0  0  0  0  0  0
    3.3703    1.1049    0.0000 C   0  0  0  0  0  0  0  0  0  0  0  0
    0.3868    3.1629    0.0000 O   0  0  0  0  0  0  0  0  0  0  0  0
   -2.7685    0.1189    0.0000 C   0  0  0  0  0  0  0  0  0  0  0  0
   -4.0481   -1.0391    0.0000 C   0  0  0  0  0  0  0  0  0  0  0  0
    3.6938   -0.8723    0.0000 C   0  0  0  0  0  0  0  0  0  0  0  0
    4.3007    0.7561    0.0000 C   0  0  0  0  0  0  0  0  0  0  0  0
   -1.7673    0.2502    0.0000 C   0  0  0  0  0  0  0  0  0  0  0  0
   -4.4071    0.6598    0.0000 C   0  0  0  0  0  0  0  0  0  0  0  0
    4.4675   -0.2350    0.0000 C   0  0  0  0  0  0  0  0  0  0  0  0
   -4.7153   -0.2908    0.0000 C   0  0  0  0  0  0  0  0  0  0  0  0
   -3.4261    0.8622    0.0000 C   0  0  0  0  0  0  0  0  0  0  0  0
   -5.0744    1.4085    0.0000 F   0  0  0  0  0  0  0  0  0  0  0  0
   -1.1757    1.8735    0.0000 C   0  0  0  0  0  0  0  0  0  0  0  0
    1.9899   -1.1603    0.0000 O   0  0  0  0  0  0  0  0  0  0  0  0
    5.0744    1.4031    0.0000 O   0  0  0  0  0  0  0  0  0  0  0  0
   -1.9341    1.2362    0.0000 C   0  0  0  0  0  0  0  0  0  0  0  0
    1.0545   -0.8114    0.0000 C   0  0  0  0  0  0  0  0  0  0  0  0
    4.9025    2.3892    0.0000 C   0  0  0  0  0  0  0  0  0  0  0  0
  1  2  1  0
  3  4  2  0
  3  7  1  0
  1  4  1  0
  2  5  1  0
  1  6  2  0
  6  7  1  0
  8 11  1  0
  8 31  1  0
  8  9  1  0
  2 10  2  0
  5 11  1  0
  6 12  1  0
 13 17  1  0
  9 14  1  0
  4 15  1  0
 12 16  2  0
 10 16  1  0
 14 17  1  0
 13 18  2  0
 13 19  1  0
  9 20  2  0
 15 21  2  0
 15 22  1  0
 18 23  1  0
 19 24  2  0
  5 25  1  0
 26 28  1  0
 24 27  1  0
 23 27  2  0
 22 28  2  0
 21 29  1  0
 26 29  2  0
 26 30  1  0
 31 34  1  0
 18 32  1  0
 24 33  1  0
 25 34  1  0
 32 35  1  0
 33 36  1  0
M  END
>  <IDNUMBER>  (163) 
E945-0147

>  <available>  (163) 
92

>  <H_acceptor>  (163) 
8

>  <H_donor>  (163) 
1

>  <B_rotN>  (163) 
8

>  <N_O>  (163) 
9

>  <logP>  (163) 
3.6858

>  <logD>  (163) 
3.6858

>  <logSw>  (163) 
-4.1049

>  <PSA>  (163) 
85.056

>  <pKa_ma>  (163) 
12.8587

>  <pKa_mb>  (163) 
2.7118

>  <N_Chirals>  (163) 
1

>  <Name>  (163) 
N-[(2,5-dimethoxyphenyl)methyl]-1-[3-(4-fluorophenyl)[1,2]oxazolo[5,4-d]pyrimidin-4-yl]piperidine-3-carboxamide

>  <Smile>  (163) 
COc(cc1)cc(CNC(C(CCC2)CN2c2c(c(-c(cc3)ccc3F)no3)c3ncn2)=O)c1OC

>  <Color>  (163) 
NOT COLORED

>  <Collection>  (163) 
DC

>  <InChI>  (163) 
InChI=1S/C26H26FN5O4/c1-34-20-9-10-21(35-2)18(12-20)13-28-25(33)17-4-3-11-32(14-17)24-22-23(16-5-7-19(27)8-6-16)31-36-26(22)30-15-29-24/h5-10,12,15,17H,3-4,11,13-14H2,1-2H3,(H,28,33)/t17-/m0/s1

>  <InChI Key>  (163) 
HOONHCYLJKRTBO-KRWDZBQOSA-N

>  <PERCENTSP3>  (163) 
30.8

>  <Link>  (163) 
https://www.chemdiv.com/catalog/screening-compounds/compound-E945-0147/

>  <MFCDNUMBER>  (163) 
MFCD14929318

>  <CLNUMBER>  (163) 
CL5510B

>  <STEREO>  (163) 
RACEMIC MIXTURE

>  <State>  (163) 
Solid

>  <Similarity score>  (163) 
0.21

$$$$
1-[(2-chloro-6-fluorophenyl)methyl]-4-{3-[3-(propan-2-yl)-1,2,4-oxadiazol-5-yl]p
     RDKit          2D

 30 33  0  0  0  0  0  0  0  0999 V2000
   -1.2269    1.3891    0.0000 N   0  0  0  0  0  0  0  0  0  0  0  0
   -1.3268    0.3935    0.0000 C   0  0  0  0  0  0  0  0  0  0  0  0
   -2.1891   -0.1104    0.0000 C   0  0  0  0  0  0  0  0  0  0  0  0
   -0.2521    1.6016    0.0000 C   0  0  0  0  0  0  0  0  0  0  0  0
   -2.1891   -1.1102    0.0000 C   0  0  0  0  0  0  0  0  0  0  0  0
    0.2520    0.7393    0.0000 N   0  0  0  0  0  0  0  0  0  0  0  0
    2.3096   -1.7475    0.0000 C   0  0  0  0  0  0  0  0  0  0  0  0
   -0.4186   -0.0062    0.0000 O   0  0  0  0  0  0  0  0  0  0  0  0
   -1.3268   -1.6101    0.0000 N   0  0  0  0  0  0  0  0  0  0  0  0
    0.7142   -2.4016    0.0000 N   0  0  0  0  0  0  0  0  0  0  0  0
    1.7058   -2.5348    0.0000 C   0  0  0  0  0  0  0  0  0  0  0  0
   -3.0556   -1.6101    0.0000 N   0  0  0  0  0  0  0  0  0  0  0  0
    1.9306   -0.8227    0.0000 C   0  0  0  0  0  0  0  0  0  0  0  0
    3.2969   -1.8850    0.0000 C   0  0  0  0  0  0  0  0  0  0  0  0
   -0.5978   -1.0644    0.0000 C   0  0  0  0  0  0  0  0  0  0  0  0
    0.1603    2.5138    0.0000 C   0  0  0  0  0  0  0  0  0  0  0  0
    0.3727   -1.3684    0.0000 C   0  0  0  0  0  0  0  0  0  0  0  0
   -0.9021   -3.3263    0.0000 C   0  0  0  0  0  0  0  0  0  0  0  0
    3.6760   -2.8181    0.0000 F   0  0  0  0  0  0  0  0  0  0  0  0
    0.9436   -0.6854    0.0000 Cl  0  0  0  0  0  0  0  0  0  0  0  0
   -1.4475   -2.6431    0.0000 C   0  0  0  0  0  0  0  0  0  0  0  0
   -3.0556    0.3894    0.0000 C   0  0  0  0  0  0  0  0  0  0  0  0
    0.1145   -3.2805    0.0000 C   0  0  0  0  0  0  0  0  0  0  0  0
    3.5385   -0.1729    0.0000 C   0  0  0  0  0  0  0  0  0  0  0  0
   -3.9177   -1.1102    0.0000 C   0  0  0  0  0  0  0  0  0  0  0  0
    3.9177   -1.1060    0.0000 C   0  0  0  0  0  0  0  0  0  0  0  0
    2.5471   -0.0355    0.0000 C   0  0  0  0  0  0  0  0  0  0  0  0
   -0.4354    3.3263    0.0000 C   0  0  0  0  0  0  0  0  0  0  0  0
    1.1558    2.6304    0.0000 C   0  0  0  0  0  0  0  0  0  0  0  0
   -3.9177   -0.1104    0.0000 C   0  0  0  0  0  0  0  0  0  0  0  0
  1  2  2  0
  2  3  1  0
  1  4  1  0
  3  5  1  0
  4  6  2  0
  7 11  1  0
  2  8  1  0
  6  8  1  0
  5  9  1  0
 10 17  1  0
 10 11  1  0
  5 12  2  0
 12 25  1  0
  7 13  2  0
  7 14  1  0
  9 15  1  0
  4 16  1  0
 15 17  1  0
 18 21  1  0
 14 19  1  0
 13 20  1  0
  9 21  1  0
  3 22  2  0
 18 23  1  0
 10 23  1  0
 24 26  1  0
 25 30  2  0
 14 26  2  0
 13 27  1  0
 24 27  2  0
 16 28  1  0
 16 29  1  0
 22 30  1  0
M  END
>  <IDNUMBER>  (164) 
P891-0192

>  <available>  (164) 
33

>  <H_acceptor>  (164) 
5

>  <H_donor>  (164) 
0

>  <B_rotN>  (164) 
5

>  <N_O>  (164) 
6

>  <logP>  (164) 
4.8074

>  <logD>  (164) 
4.6129

>  <logSw>  (164) 
-4.9127

>  <PSA>  (164) 
48.221

>  <pKa_ma>  (164) 
23.4478

>  <pKa_mb>  (164) 
7.152

>  <N_Chirals>  (164) 
0

>  <Name>  (164) 
1-[(2-chloro-6-fluorophenyl)methyl]-4-{3-[3-(propan-2-yl)-1,2,4-oxadiazol-5-yl]pyridin-2-yl}-1,4-diazepane

>  <Smile>  (164) 
CC(C)c1noc(-c2cccnc2N2CCN(Cc(c(F)ccc3)c3Cl)CCC2)n1

>  <Color>  (164) 
YELLOW

>  <Collection>  (164) 
NC

>  <InChI>  (164) 
InChI=1S/C22H25ClFN5O/c1-15(2)20-26-22(30-27-20)16-6-4-9-25-21(16)29-11-5-10-28(12-13-29)14-17-18(23)7-3-8-19(17)24/h3-4,6-9,15H,5,10-14H2,1-2H3

>  <InChI Key>  (164) 
YZXWAPUDCZALPN-UHFFFAOYSA-N

>  <PERCENTSP3>  (164) 
40.9

>  <Link>  (164) 
https://www.chemdiv.com/catalog/screening-compounds/compound-P891-0192/

>  <MFCDNUMBER>  (164) 
MFCD29026892

>  <CLNUMBER>  (164) 
CM1467

>  <STEREO>  (164) 
ACHIRAL

>  <State>  (164) 
Solid

>  <Similarity score>  (164) 
0.21

$$$$
N-[2-(5-chloro-1H-indol-3-yl)ethyl]-1-(2-chloro-9H-purin-6-yl)piperidine-3-carbo
     RDKit          2D

 31 35  0  0  0  0  0  0  0  0999 V2000
    2.1359   -2.2298    0.0000 C   0  0  0  0  0  0  0  0  0  0  0  0
    2.9987   -2.7339    0.0000 C   0  0  0  0  0  0  0  0  0  0  0  0
    2.1443   -1.2336    0.0000 N   0  0  0  0  0  0  0  0  0  0  0  0
    3.8697   -2.2339    0.0000 C   0  0  0  0  0  0  0  0  0  0  0  0
    3.8697   -1.2336    0.0000 N   0  0  0  0  0  0  0  0  0  0  0  0
    1.2648   -2.7175    0.0000 N   0  0  0  0  0  0  0  0  0  0  0  0
    3.0071   -0.7335    0.0000 C   0  0  0  0  0  0  0  0  0  0  0  0
    4.6241   -2.9132    0.0000 N   0  0  0  0  0  0  0  0  0  0  0  0
   -0.4647   -2.7175    0.0000 C   0  0  0  0  0  0  0  0  0  0  0  0
   -4.6241    1.1419    0.0000 N   0  0  0  0  0  0  0  0  0  0  0  0
   -3.1570    1.7921    0.0000 C   0  0  0  0  0  0  0  0  0  0  0  0
    3.2031   -3.7260    0.0000 N   0  0  0  0  0  0  0  0  0  0  0  0
    0.4105   -2.2173    0.0000 C   0  0  0  0  0  0  0  0  0  0  0  0
   -1.3316   -2.2131    0.0000 C   0  0  0  0  0  0  0  0  0  0  0  0
   -3.9656    0.4001    0.0000 C   0  0  0  0  0  0  0  0  0  0  0  0
   -3.0404    0.7961    0.0000 C   0  0  0  0  0  0  0  0  0  0  0  0
    4.2032   -3.8218    0.0000 C   0  0  0  0  0  0  0  0  0  0  0  0
   -4.1240    2.0047    0.0000 C   0  0  0  0  0  0  0  0  0  0  0  0
   -2.4904    2.5340    0.0000 C   0  0  0  0  0  0  0  0  0  0  0  0
   -2.2027   -2.7134    0.0000 O   0  0  0  0  0  0  0  0  0  0  0  0
   -1.3316   -1.2044    0.0000 N   0  0  0  0  0  0  0  0  0  0  0  0
    3.0071    0.2626    0.0000 Cl  0  0  0  0  0  0  0  0  0  0  0  0
   -4.4282    2.9590    0.0000 C   0  0  0  0  0  0  0  0  0  0  0  0
   -2.7818    3.4801    0.0000 C   0  0  0  0  0  0  0  0  0  0  0  0
    1.2648   -3.7260    0.0000 C   0  0  0  0  0  0  0  0  0  0  0  0
   -3.7613    3.7010    0.0000 C   0  0  0  0  0  0  0  0  0  0  0  0
   -2.1109    4.2178    0.0000 Cl  0  0  0  0  0  0  0  0  0  0  0  0
   -0.4605   -3.7177    0.0000 C   0  0  0  0  0  0  0  0  0  0  0  0
   -2.1861   -0.7043    0.0000 C   0  0  0  0  0  0  0  0  0  0  0  0
   -2.1777    0.2959    0.0000 C   0  0  0  0  0  0  0  0  0  0  0  0
    0.4023   -4.2178    0.0000 C   0  0  0  0  0  0  0  0  0  0  0  0
  1  2  2  0
  1  3  1  0
  2  4  1  0
  4  5  2  0
  5  7  1  0
  1  6  1  0
  3  7  2  0
  4  8  1  0
  8 17  2  0
  9 13  1  0
  9 28  1  0
 10 15  1  0
 11 16  1  0
  2 12  1  0
  6 13  1  0
  9 14  1  0
 15 16  2  0
 16 30  1  0
 12 17  1  0
 11 18  1  0
 10 18  1  0
 11 19  2  0
 14 20  2  0
 14 21  1  0
  7 22  1  0
 18 23  2  0
 23 26  1  0
 19 24  1  0
  6 25  1  0
 24 26  2  0
 24 27  1  0
 28 31  1  0
 21 29  1  0
 29 30  1  0
 25 31  1  0
M  END
>  <IDNUMBER>  (165) 
IB03-5324

>  <available>  (165) 
50

>  <H_acceptor>  (165) 
5

>  <H_donor>  (165) 
3

>  <B_rotN>  (165) 
6

>  <N_O>  (165) 
8

>  <logP>  (165) 
3.37

>  <logD>  (165) 
3.32

>  <logSw>  (165) 
-4.03

>  <PSA>  (165) 
112.28

>  <pKa_ma>  (165) 
8.29

>  <pKa_mb>  (165) 
4.6

>  <N_Chirals>  (165) 
1

>  <Name>  (165) 
N-[2-(5-chloro-1H-indol-3-yl)ethyl]-1-(2-chloro-9H-purin-6-yl)piperidine-3-carboxamide

>  <Smile>  (165) 
O=C(C(CCC1)CN1c1c2[nH]cnc2nc(Cl)n1)NCCc1c[nH]c(cc2)c1cc2Cl

>  <Color>  (165) 
NOT COLORED

>  <Collection>  (165) 
DC

>  <InChI>  (165) 
InChI=1S/C21H21Cl2N7O/c22-14-3-4-16-15(8-14)12(9-25-16)5-6-24-20(31)13-2-1-7-30(10-13)19-17-18(27-11-26-17)28-21(23)29-19/h3-4,8-9,11,13,25H,1-2,5-7,10H2,(H,24,31)(H,26,27,28,29)/t13-/m0/s1

>  <InChI Key>  (165) 
QAFXDDBDHYYXRG-ZDUSSCGKSA-N

>  <PERCENTSP3>  (165) 
33.3

>  <Link>  (165) 
https://www.chemdiv.com/catalog/screening-compounds/compound-IB03-5324/

>  <STEREO>  (165) 
RACEMIC MIXTURE

>  <State>  (165) 
Solid

>  <Similarity score>  (165) 
0.21

$$$$
7'-hydroxy-8-methoxy-8'-[(3-methylpiperidin-1-yl)methyl]-2H,2'H-[3,4'-bi-1-benzo
     RDKit          2D

 33 37  0  0  0  0  0  0  0  0999 V2000
    1.7106    0.2583    0.0000 C   0  0  0  0  0  0  0  0  0  0  0  0
    1.7106   -0.7376    0.0000 C   0  0  0  0  0  0  0  0  0  0  0  0
    0.8478    1.7752    0.0000 C   0  0  0  0  0  0  0  0  0  0  0  0
    0.8478   -1.2376    0.0000 C   0  0  0  0  0  0  0  0  0  0  0  0
   -0.0188    2.2752    0.0000 C   0  0  0  0  0  0  0  0  0  0  0  0
    0.8478    0.7584    0.0000 C   0  0  0  0  0  0  0  0  0  0  0  0
    0.8395   -2.2253    0.0000 O   0  0  0  0  0  0  0  0  0  0  0  0
    2.5855   -1.2376    0.0000 C   0  0  0  0  0  0  0  0  0  0  0  0
    1.7190    2.2795    0.0000 O   0  0  0  0  0  0  0  0  0  0  0  0
    1.7063   -2.7379    0.0000 C   0  0  0  0  0  0  0  0  0  0  0  0
    2.5898    0.7584    0.0000 C   0  0  0  0  0  0  0  0  0  0  0  0
    2.5898    1.7752    0.0000 C   0  0  0  0  0  0  0  0  0  0  0  0
    2.5733   -2.2419    0.0000 C   0  0  0  0  0  0  0  0  0  0  0  0
   -0.8981    3.7505    0.0000 N   0  0  0  0  0  0  0  0  0  0  0  0
   -0.0188    3.2671    0.0000 C   0  0  0  0  0  0  0  0  0  0  0  0
   -0.0188    0.2667    0.0000 C   0  0  0  0  0  0  0  0  0  0  0  0
   -0.8813    1.7669    0.0000 C   0  0  0  0  0  0  0  0  0  0  0  0
   -0.0188   -0.7250    0.0000 O   0  0  0  0  0  0  0  0  0  0  0  0
    1.6941   -3.7253    0.0000 C   0  0  0  0  0  0  0  0  0  0  0  0
    3.4650    2.2669    0.0000 O   0  0  0  0  0  0  0  0  0  0  0  0
   -0.8813    0.7669    0.0000 C   0  0  0  0  0  0  0  0  0  0  0  0
   -1.7440    3.2336    0.0000 C   0  0  0  0  0  0  0  0  0  0  0  0
   -1.7440    2.2669    0.0000 O   0  0  0  0  0  0  0  0  0  0  0  0
   -0.9274    4.7463    0.0000 C   0  0  0  0  0  0  0  0  0  0  0  0
    0.8314   -4.2255    0.0000 O   0  0  0  0  0  0  0  0  0  0  0  0
    3.4401   -2.7419    0.0000 C   0  0  0  0  0  0  0  0  0  0  0  0
   -2.6149    3.7172    0.0000 C   0  0  0  0  0  0  0  0  0  0  0  0
    3.4401   -3.7253    0.0000 C   0  0  0  0  0  0  0  0  0  0  0  0
   -1.7898    5.2256    0.0000 C   0  0  0  0  0  0  0  0  0  0  0  0
    2.5605   -4.2379    0.0000 C   0  0  0  0  0  0  0  0  0  0  0  0
   -2.6401    4.7130    0.0000 C   0  0  0  0  0  0  0  0  0  0  0  0
    0.8314   -5.2256    0.0000 C   0  0  0  0  0  0  0  0  0  0  0  0
   -3.4650    3.2003    0.0000 C   0  0  0  0  0  0  0  0  0  0  0  0
  1  2  1  0
  3  6  1  0
  2  4  1  0
  3  5  2  0
  1  6  1  0
  4  7  1  0
  2  8  2  0
  9 12  1  0
  3  9  1  0
 10 13  2  0
  7 10  1  0
  1 11  2  0
 11 12  1  0
  8 13  1  0
 14 15  1  0
  5 15  1  0
  6 16  2  0
 17 21  2  0
  5 17  1  0
  4 18  2  0
 10 19  1  0
 12 20  2  0
 16 21  1  0
 14 22  1  0
 17 23  1  0
 14 24  1  0
 19 25  1  0
 13 26  1  0
 22 27  1  0
 27 31  1  0
 26 28  2  0
 24 29  1  0
 28 30  1  0
 19 30  2  0
 29 31  1  0
 25 32  1  0
 27 33  1  0
M  END
>  <IDNUMBER>  (166) 
G786-1887

>  <available>  (166) 
74

>  <H_acceptor>  (166) 
9

>  <H_donor>  (166) 
1

>  <B_rotN>  (166) 
4

>  <N_O>  (166) 
7

>  <logP>  (166) 
3.6604

>  <logD>  (166) 
3.3726

>  <logSw>  (166) 
-3.7286

>  <PSA>  (166) 
68.509

>  <pKa_ma>  (166) 
8.745

>  <pKa_mb>  (166) 
7.3324

>  <N_Chirals>  (166) 
1

>  <Name>  (166) 
7'-hydroxy-8-methoxy-8'-[(3-methylpiperidin-1-yl)methyl]-2H,2'H-[3,4'-bi-1-benzopyran]-2,2'-dione

>  <Smile>  (166) 
CC1CN(Cc(c(O2)c(cc3)C(C4=Cc5cccc(OC)c5OC4=O)=CC2=O)c3O)CCC1

>  <Color>  (166) 
YELLOW

>  <Collection>  (166) 
DC

>  <InChI>  (166) 
InChI=1S/C26H25NO6/c1-15-5-4-10-27(13-15)14-20-21(28)9-8-17-18(12-23(29)32-25(17)20)19-11-16-6-3-7-22(31-2)24(16)33-26(19)30/h3,6-9,11-12,15,28H,4-5,10,13-14H2,1-2H3/t15-/m0/s1

>  <InChI Key>  (166) 
LBQDUJOOKLHPHV-HNNXBMFYSA-N

>  <PERCENTSP3>  (166) 
30.8

>  <Link>  (166) 
https://www.chemdiv.com/catalog/screening-compounds/compound-G786-1887/

>  <MFCDNUMBER>  (166) 
MFCD05673301

>  <CLNUMBER>  (166) 
CL3319

>  <STEREO>  (166) 
RACEMIC MIXTURE

>  <State>  (166) 
Solid

>  <Similarity score>  (166) 
0.21

$$$$
1-(4-chlorophenyl)-3-(4-ethoxyphenyl)-6,8-difluoro-1H-pyrazolo[4,3-c]quinoline
     RDKit          2D

 31 35  0  0  0  0  0  0  0  0999 V2000
   -1.5750    0.4378    0.0000 N   0  0  0  0  0  0  0  0  0  0  0  0
   -0.9116   -1.0342    0.0000 C   0  0  0  0  0  0  0  0  0  0  0  0
   -1.7870   -0.5260    0.0000 C   0  0  0  0  0  0  0  0  0  0  0  0
   -0.5799    0.5453    0.0000 N   0  0  0  0  0  0  0  0  0  0  0  0
   -0.1480   -0.3568    0.0000 C   0  0  0  0  0  0  0  0  0  0  0  0
   -2.6675   -1.0342    0.0000 C   0  0  0  0  0  0  0  0  0  0  0  0
   -2.6675   -2.0220    0.0000 C   0  0  0  0  0  0  0  0  0  0  0  0
   -1.7870   -2.5208    0.0000 N   0  0  0  0  0  0  0  0  0  0  0  0
   -0.9116   -2.0220    0.0000 C   0  0  0  0  0  0  0  0  0  0  0  0
   -3.5385   -2.5208    0.0000 C   0  0  0  0  0  0  0  0  0  0  0  0
   -2.1998    1.2087    0.0000 C   0  0  0  0  0  0  0  0  0  0  0  0
   -4.4141   -2.0220    0.0000 C   0  0  0  0  0  0  0  0  0  0  0  0
    0.8542   -0.4616    0.0000 C   0  0  0  0  0  0  0  0  0  0  0  0
   -3.5385   -0.5260    0.0000 C   0  0  0  0  0  0  0  0  0  0  0  0
   -4.4046   -1.0342    0.0000 C   0  0  0  0  0  0  0  0  0  0  0  0
   -1.8469    2.1296    0.0000 C   0  0  0  0  0  0  0  0  0  0  0  0
   -3.1663    1.0488    0.0000 C   0  0  0  0  0  0  0  0  0  0  0  0
    1.2622   -1.3563    0.0000 C   0  0  0  0  0  0  0  0  0  0  0  0
    1.4291    0.3638    0.0000 C   0  0  0  0  0  0  0  0  0  0  0  0
   -3.5291   -3.5158    0.0000 F   0  0  0  0  0  0  0  0  0  0  0  0
   -3.4477    2.7476    0.0000 C   0  0  0  0  0  0  0  0  0  0  0  0
   -5.2730   -0.5380    0.0000 F   0  0  0  0  0  0  0  0  0  0  0  0
    2.8774   -0.6333    0.0000 C   0  0  0  0  0  0  0  0  0  0  0  0
   -3.7939    1.8121    0.0000 C   0  0  0  0  0  0  0  0  0  0  0  0
   -2.4720    2.8978    0.0000 C   0  0  0  0  0  0  0  0  0  0  0  0
    2.2738   -1.4591    0.0000 C   0  0  0  0  0  0  0  0  0  0  0  0
    2.4384    0.2732    0.0000 C   0  0  0  0  0  0  0  0  0  0  0  0
   -4.0704    3.5158    0.0000 Cl  0  0  0  0  0  0  0  0  0  0  0  0
    3.8677   -0.7336    0.0000 O   0  0  0  0  0  0  0  0  0  0  0  0
    4.2803   -1.6452    0.0000 C   0  0  0  0  0  0  0  0  0  0  0  0
    5.2730   -1.7356    0.0000 C   0  0  0  0  0  0  0  0  0  0  0  0
  2  3  2  0
  2  5  1  0
  1  3  1  0
  1  4  1  0
  4  5  2  0
  3  6  1  0
  6  7  1  0
  7  8  1  0
  8  9  2  0
  2  9  1  0
  7 10  2  0
  1 11  1  0
 12 15  2  0
 10 12  1  0
  5 13  1  0
  6 14  2  0
 14 15  1  0
 11 16  2  0
 11 17  1  0
 13 18  2  0
 13 19  1  0
 10 20  1  0
 21 24  1  0
 15 22  1  0
 23 27  1  0
 17 24  2  0
 16 25  1  0
 21 25  2  0
 18 26  1  0
 23 26  2  0
 19 27  2  0
 21 28  1  0
 23 29  1  0
 29 30  1  0
 30 31  1  0
M  END
>  <IDNUMBER>  (167) 
C350-0826

>  <available>  (167) 
83

>  <H_acceptor>  (167) 
3

>  <H_donor>  (167) 
0

>  <B_rotN>  (167) 
4

>  <N_O>  (167) 
4

>  <logP>  (167) 
6.3904

>  <logD>  (167) 
6.3904

>  <logSw>  (167) 
-6.5386

>  <PSA>  (167) 
30.6039

>  <pKa_ma>  (167) 
29.8521

>  <pKa_mb>  (167) 
2.2647

>  <N_Chirals>  (167) 
0

>  <Name>  (167) 
1-(4-chlorophenyl)-3-(4-ethoxyphenyl)-6,8-difluoro-1H-pyrazolo[4,3-c]quinoline

>  <Smile>  (167) 
CCOc(cc1)ccc1-c(c1c2c3cc(F)cc(F)c3nc1)nn2-c(cc1)ccc1Cl

>  <Color>  (167) 
NOT COLORED

>  <Collection>  (167) 
DC

>  <InChI>  (167) 
InChI=1S/C24H16ClF2N3O/c1-2-31-18-9-3-14(4-10-18)22-20-13-28-23-19(11-16(26)12-21(23)27)24(20)30(29-22)17-7-5-15(25)6-8-17/h3-13H,2H2,1H3

>  <InChI Key>  (167) 
LUOLVFPYOSABGR-UHFFFAOYSA-N

>  <PERCENTSP3>  (167) 
8.3

>  <Link>  (167) 
https://www.chemdiv.com/catalog/screening-compounds/compound-C350-0826/

>  <MFCDNUMBER>  (167) 
MFCD14750692

>  <CLNUMBER>  (167) 
CL4130

>  <STEREO>  (167) 
ACHIRAL

>  <State>  (167) 
Solid

>  <Similarity score>  (167) 
0.21

$$$$
2-(4-methylphenyl)-4-(1,3,3-trimethyl-6-azabicyclo[3.2.1]octan-6-yl)quinazoline
     RDKit          2D

 28 32  0  0  0  0  0  0  0  0999 V2000
   -0.8785   -0.2856    0.0000 C   0  0  0  0  0  0  0  0  0  0  0  0
   -0.8785    0.7176    0.0000 N   0  0  0  0  0  0  0  0  0  0  0  0
   -0.0289   -0.7896    0.0000 N   0  0  0  0  0  0  0  0  0  0  0  0
   -0.0145   -1.7689    0.0000 C   0  0  0  0  0  0  0  0  0  0  0  0
   -1.7282   -0.8040    0.0000 C   0  0  0  0  0  0  0  0  0  0  0  0
   -0.8785   -2.3017    0.0000 N   0  0  0  0  0  0  0  0  0  0  0  0
   -0.0289    1.1351    0.0000 C   0  0  0  0  0  0  0  0  0  0  0  0
   -1.9585    2.0713    0.0000 C   0  0  0  0  0  0  0  0  0  0  0  0
   -1.7282   -1.7689    0.0000 C   0  0  0  0  0  0  0  0  0  0  0  0
   -1.7425    1.1351    0.0000 C   0  0  0  0  0  0  0  0  0  0  0  0
   -0.7631    1.7689    0.0000 C   0  0  0  0  0  0  0  0  0  0  0  0
   -0.4033    2.8057    0.0000 C   0  0  0  0  0  0  0  0  0  0  0  0
    0.8640   -2.2873    0.0000 C   0  0  0  0  0  0  0  0  0  0  0  0
    0.1823    2.0713    0.0000 C   0  0  0  0  0  0  0  0  0  0  0  0
   -1.3730    2.8057    0.0000 C   0  0  0  0  0  0  0  0  0  0  0  0
    1.6993   -1.7594    0.0000 C   0  0  0  0  0  0  0  0  0  0  0  0
    0.8640   -3.3146    0.0000 C   0  0  0  0  0  0  0  0  0  0  0  0
   -2.6210   -0.2904    0.0000 C   0  0  0  0  0  0  0  0  0  0  0  0
    1.7520   -3.7850    0.0000 C   0  0  0  0  0  0  0  0  0  0  0  0
    2.6016   -2.2634    0.0000 C   0  0  0  0  0  0  0  0  0  0  0  0
    2.6160   -3.2809    0.0000 C   0  0  0  0  0  0  0  0  0  0  0  0
   -2.8946    2.3017    0.0000 C   0  0  0  0  0  0  0  0  0  0  0  0
   -2.6210   -2.3017    0.0000 C   0  0  0  0  0  0  0  0  0  0  0  0
   -0.4752    3.7850    0.0000 C   0  0  0  0  0  0  0  0  0  0  0  0
    0.5855    3.2425    0.0000 C   0  0  0  0  0  0  0  0  0  0  0  0
    3.4850   -3.7755    0.0000 C   0  0  0  0  0  0  0  0  0  0  0  0
   -3.4850   -0.8040    0.0000 C   0  0  0  0  0  0  0  0  0  0  0  0
   -3.4850   -1.7689    0.0000 C   0  0  0  0  0  0  0  0  0  0  0  0
  1  2  1  0
  1  3  2  0
  3  4  1  0
  4  6  2  0
  1  5  1  0
  6  9  1  0
  2  7  1  0
  8 10  1  0
  8 11  1  0
  5  9  1  0
  2 10  1  0
  7 11  1  0
 12 14  1  0
 12 15  1  0
  4 13  1  0
  7 14  1  0
  8 15  1  0
 13 16  1  0
 13 17  2  0
  5 18  2  0
 17 19  1  0
 16 20  2  0
 20 21  1  0
 19 21  2  0
  8 22  1  0
  9 23  2  0
 23 28  1  0
 12 24  1  0
 12 25  1  0
 21 26  1  0
 18 27  1  0
 27 28  2  0
M  END
>  <IDNUMBER>  (168) 
4593-2689

>  <available>  (168) 
66

>  <H_acceptor>  (168) 
2

>  <H_donor>  (168) 
0

>  <B_rotN>  (168) 
2

>  <N_O>  (168) 
3

>  <logP>  (168) 
6.9845

>  <logD>  (168) 
5.8973

>  <logSw>  (168) 
-6.2073

>  <PSA>  (168) 
21.3242

>  <pKa_ma>  (168) 
18.1908

>  <pKa_mb>  (168) 
8.4502

>  <N_Chirals>  (168) 
2

>  <Name>  (168) 
2-(4-methylphenyl)-4-(1,3,3-trimethyl-6-azabicyclo[3.2.1]octan-6-yl)quinazoline

>  <Smile>  (168) 
CC(C1)(C2)CC(C)(C)CC1N2c1nc(-c2ccc(C)cc2)nc2ccccc12

>  <Color>  (168) 
NOT COLORED

>  <Collection>  (168) 
NC

>  <InChI>  (168) 
InChI=1S/C25H29N3/c1-17-9-11-18(12-10-17)22-26-21-8-6-5-7-20(21)23(27-22)28-16-25(4)14-19(28)13-24(2,3)15-25/h5-12,19H,13-16H2,1-4H3

>  <InChI Key>  (168) 
GNIXFRMKQXXUEV-UHFFFAOYSA-N

>  <PERCENTSP3>  (168) 
44

>  <Link>  (168) 
https://www.chemdiv.com/catalog/screening-compounds/compound-4593-2689/

>  <MFCDNUMBER>  (168) 
MFCD03695868

>  <CLNUMBER>  (168) 
CL2243

>  <Saltdata>  (168) 
HCl

>  <Saltdata_MW>  (168) 
36.461

>  <STEREO>  (168) 
MIXTURE OF STEREOISOMERS

>  <State>  (168) 
Solid

>  <Similarity score>  (168) 
0.21

$$$$
N-[(furan-2-yl)methyl]-2-(4-methoxyphenyl)-N-[3-(morpholin-4-yl)propyl]quinazoli
     RDKit          2D

 34 38  0  0  0  0  0  0  0  0999 V2000
   -0.0882   -0.4716    0.0000 N   0  0  0  0  0  0  0  0  0  0  0  0
   -0.9607    0.0278    0.0000 C   0  0  0  0  0  0  0  0  0  0  0  0
   -0.0882   -1.4601    0.0000 C   0  0  0  0  0  0  0  0  0  0  0  0
   -1.8229   -0.4716    0.0000 C   0  0  0  0  0  0  0  0  0  0  0  0
   -0.9607   -1.9694    0.0000 N   0  0  0  0  0  0  0  0  0  0  0  0
   -0.9607    1.0262    0.0000 N   0  0  0  0  0  0  0  0  0  0  0  0
   -1.8229   -1.4601    0.0000 C   0  0  0  0  0  0  0  0  0  0  0  0
   -1.8229    2.5245    0.0000 C   0  0  0  0  0  0  0  0  0  0  0  0
    0.7793   -1.9694    0.0000 C   0  0  0  0  0  0  0  0  0  0  0  0
    2.0451    2.7513    0.0000 N   0  0  0  0  0  0  0  0  0  0  0  0
   -0.9607    2.0251    0.0000 C   0  0  0  0  0  0  0  0  0  0  0  0
   -2.0350    3.5027    0.0000 O   0  0  0  0  0  0  0  0  0  0  0  0
   -2.6857    2.0251    0.0000 C   0  0  0  0  0  0  0  0  0  0  0  0
   -3.0185    3.6086    0.0000 C   0  0  0  0  0  0  0  0  0  0  0  0
   -3.4321    2.7007    0.0000 C   0  0  0  0  0  0  0  0  0  0  0  0
    3.0488    4.4862    0.0000 O   0  0  0  0  0  0  0  0  0  0  0  0
    1.6417   -1.4601    0.0000 C   0  0  0  0  0  0  0  0  0  0  0  0
    0.7793   -2.9731    0.0000 C   0  0  0  0  0  0  0  0  0  0  0  0
    0.5372    1.8888    0.0000 C   0  0  0  0  0  0  0  0  0  0  0  0
    0.0379    1.0262    0.0000 C   0  0  0  0  0  0  0  0  0  0  0  0
    2.5040   -2.9731    0.0000 C   0  0  0  0  0  0  0  0  0  0  0  0
    1.6417   -3.4724    0.0000 C   0  0  0  0  0  0  0  0  0  0  0  0
    2.5040   -1.9694    0.0000 C   0  0  0  0  0  0  0  0  0  0  0  0
   -2.6857    0.0278    0.0000 C   0  0  0  0  0  0  0  0  0  0  0  0
    1.5459    1.8888    0.0000 C   0  0  0  0  0  0  0  0  0  0  0  0
    3.3816   -3.4825    0.0000 O   0  0  0  0  0  0  0  0  0  0  0  0
    1.5459    3.6136    0.0000 C   0  0  0  0  0  0  0  0  0  0  0  0
    3.0488    2.7513    0.0000 C   0  0  0  0  0  0  0  0  0  0  0  0
   -2.6857   -1.9694    0.0000 C   0  0  0  0  0  0  0  0  0  0  0  0
    3.5482    3.6136    0.0000 C   0  0  0  0  0  0  0  0  0  0  0  0
    2.0451    4.4862    0.0000 C   0  0  0  0  0  0  0  0  0  0  0  0
    3.3766   -4.4862    0.0000 C   0  0  0  0  0  0  0  0  0  0  0  0
   -3.5482   -0.4716    0.0000 C   0  0  0  0  0  0  0  0  0  0  0  0
   -3.5482   -1.4601    0.0000 C   0  0  0  0  0  0  0  0  0  0  0  0
  1  2  2  0
  1  3  1  0
  2  4  1  0
  3  5  2  0
  2  6  1  0
  5  7  1  0
  4  7  1  0
  8 11  1  0
  3  9  1  0
 10 25  1  0
  6 11  1  0
  8 12  1  0
  8 13  2  0
 12 14  1  0
 14 15  2  0
 13 15  1  0
 16 30  1  0
 16 31  1  0
  9 17  1  0
  9 18  2  0
 19 20  1  0
  6 20  1  0
 21 22  2  0
 21 23  1  0
 18 22  1  0
 17 23  2  0
  4 24  2  0
 19 25  1  0
 21 26  1  0
 10 27  1  0
 10 28  1  0
  7 29  2  0
 28 30  1  0
 27 31  1  0
 26 32  1  0
 24 33  1  0
 29 34  1  0
 33 34  2  0
M  END
>  <IDNUMBER>  (169) 
G516-0269

>  <available>  (169) 
437

>  <H_acceptor>  (169) 
6

>  <H_donor>  (169) 
0

>  <B_rotN>  (169) 
9

>  <N_O>  (169) 
7

>  <logP>  (169) 
5.3715

>  <logD>  (169) 
4.8715

>  <logSw>  (169) 
-5.7207

>  <PSA>  (169) 
48.092

>  <pKa_ma>  (169) 
23.2576

>  <pKa_mb>  (169) 
7.735

>  <N_Chirals>  (169) 
0

>  <Name>  (169) 
N-[(furan-2-yl)methyl]-2-(4-methoxyphenyl)-N-[3-(morpholin-4-yl)propyl]quinazolin-4-amine

>  <Smile>  (169) 
COc(cc1)ccc1-c1nc2ccccc2c(N(CCCN2CCOCC2)Cc2ccco2)n1

>  <Color>  (169) 
ORANGE

>  <Collection>  (169) 
NC

>  <InChI>  (169) 
InChI=1S/C27H30N4O3/c1-32-22-11-9-21(10-12-22)26-28-25-8-3-2-7-24(25)27(29-26)31(20-23-6-4-17-34-23)14-5-13-30-15-18-33-19-16-30/h2-4,6-12,17H,5,13-16,18-20H2,1H3

>  <InChI Key>  (169) 
XXSAHPYHGLCWJH-UHFFFAOYSA-N

>  <PERCENTSP3>  (169) 
33.3

>  <Link>  (169) 
https://www.chemdiv.com/catalog/screening-compounds/compound-G516-0269/

>  <MFCDNUMBER>  (169) 
MFCD15015078

>  <CLNUMBER>  (169) 
CL2243

>  <STEREO>  (169) 
ACHIRAL

>  <State>  (169) 
Solid

>  <Similarity score>  (169) 
0.21

$$$$
2-[2-amino-5-(2-methoxyphenyl)pyrimidin-4-yl]-5-[(2-chloro-6-fluorophenyl)methox
     RDKit          2D

 32 35  0  0  0  0  0  0  0  0999 V2000
    1.7355   -0.4979    0.0000 C   0  0  0  0  0  0  0  0  0  0  0  0
    2.6064   -0.0021    0.0000 C   0  0  0  0  0  0  0  0  0  0  0  0
    0.8772   -0.0021    0.0000 C   0  0  0  0  0  0  0  0  0  0  0  0
    1.7355   -1.5064    0.0000 N   0  0  0  0  0  0  0  0  0  0  0  0
   -3.4482    1.4939    0.0000 C   0  0  0  0  0  0  0  0  0  0  0  0
    2.6106   -2.0022    0.0000 C   0  0  0  0  0  0  0  0  0  0  0  0
    2.5939    0.9937    0.0000 C   0  0  0  0  0  0  0  0  0  0  0  0
    0.0019   -0.4979    0.0000 C   0  0  0  0  0  0  0  0  0  0  0  0
    3.4689   -1.4939    0.0000 N   0  0  0  0  0  0  0  0  0  0  0  0
    3.4647   -0.4939    0.0000 C   0  0  0  0  0  0  0  0  0  0  0  0
   -2.5898    0.9937    0.0000 C   0  0  0  0  0  0  0  0  0  0  0  0
    0.8772    0.9980    0.0000 C   0  0  0  0  0  0  0  0  0  0  0  0
   -0.8564   -0.0021    0.0000 C   0  0  0  0  0  0  0  0  0  0  0  0
   -3.4482    2.4980    0.0000 C   0  0  0  0  0  0  0  0  0  0  0  0
   -4.3066    0.9937    0.0000 C   0  0  0  0  0  0  0  0  0  0  0  0
    3.4565    1.4939    0.0000 C   0  0  0  0  0  0  0  0  0  0  0  0
   -1.7190    1.4939    0.0000 O   0  0  0  0  0  0  0  0  0  0  0  0
   -0.8564    0.9980    0.0000 C   0  0  0  0  0  0  0  0  0  0  0  0
    2.6106   -2.9981    0.0000 N   0  0  0  0  0  0  0  0  0  0  0  0
    0.0019    1.5064    0.0000 C   0  0  0  0  0  0  0  0  0  0  0  0
    0.0019   -1.5064    0.0000 O   0  0  0  0  0  0  0  0  0  0  0  0
   -4.3066   -0.0021    0.0000 Cl  0  0  0  0  0  0  0  0  0  0  0  0
   -2.5814    2.9981    0.0000 F   0  0  0  0  0  0  0  0  0  0  0  0
    4.3231    0.9980    0.0000 O   0  0  0  0  0  0  0  0  0  0  0  0
    1.7313    1.4897    0.0000 C   0  0  0  0  0  0  0  0  0  0  0  0
   -5.1816    2.4980    0.0000 C   0  0  0  0  0  0  0  0  0  0  0  0
   -5.1816    1.4897    0.0000 C   0  0  0  0  0  0  0  0  0  0  0  0
   -4.3150    2.9981    0.0000 C   0  0  0  0  0  0  0  0  0  0  0  0
    3.4565    2.4980    0.0000 C   0  0  0  0  0  0  0  0  0  0  0  0
    5.1816    1.5064    0.0000 C   0  0  0  0  0  0  0  0  0  0  0  0
    1.7231    2.4856    0.0000 C   0  0  0  0  0  0  0  0  0  0  0  0
    2.5897    2.9981    0.0000 C   0  0  0  0  0  0  0  0  0  0  0  0
  1  2  1  0
  1  3  1  0
  1  4  2  0
  5 11  1  0
  4  6  1  0
  2  7  1  0
  3  8  2  0
  6  9  2  0
  2 10  2  0
  9 10  1  0
 11 17  1  0
  3 12  1  0
  8 13  1  0
  5 14  2  0
  5 15  1  0
  7 16  2  0
 17 18  1  0
 18 20  1  0
 13 18  2  0
  6 19  1  0
 12 20  2  0
  8 21  1  0
 15 22  1  0
 14 23  1  0
 16 24  1  0
  7 25  1  0
 26 27  1  0
 26 28  2  0
 15 27  2  0
 14 28  1  0
 16 29  1  0
 24 30  1  0
 25 31  2  0
 31 32  1  0
 29 32  2  0
M  END
>  <IDNUMBER>  (170) 
Y041-2647

>  <available>  (170) 
14

>  <H_acceptor>  (170) 
5

>  <H_donor>  (170) 
3

>  <B_rotN>  (170) 
6

>  <N_O>  (170) 
6

>  <logP>  (170) 
5.3834

>  <logD>  (170) 
5.3813

>  <logSw>  (170) 
-5.6292

>  <PSA>  (170) 
71.431

>  <pKa_ma>  (170) 
9.88

>  <pKa_mb>  (170) 
4.6172

>  <N_Chirals>  (170) 
0

>  <Name>  (170) 
2-[2-amino-5-(2-methoxyphenyl)pyrimidin-4-yl]-5-[(2-chloro-6-fluorophenyl)methoxy]phenol

>  <Smile>  (170) 
COc(cccc1)c1-c1cnc(N)nc1-c(ccc(OCc(c(F)ccc1)c1Cl)c1)c1O

>  <Color>  (170) 
YELLOW

>  <Collection>  (170) 
DC

>  <InChI>  (170) 
InChI=1S/C24H19ClFN3O3/c1-31-22-8-3-2-5-15(22)17-12-28-24(27)29-23(17)16-10-9-14(11-21(16)30)32-13-18-19(25)6-4-7-20(18)26/h2-12,30H,13H2,1H3,(H2,27,28,29)

>  <InChI Key>  (170) 
KOXWSZUJODGUJH-UHFFFAOYSA-N

>  <PERCENTSP3>  (170) 
8.3

>  <Link>  (170) 
https://www.chemdiv.com/catalog/screening-compounds/compound-Y041-2647/

>  <MFCDNUMBER>  (170) 
MFCD06603797

>  <STEREO>  (170) 
ACHIRAL

>  <State>  (170) 
Solid

>  <Similarity score>  (170) 
0.21

$$$$
4-(2,3-dihydro-1H-benzo[f]cyclopenta[c]quinolin-4-yl)-2-ethoxyphenol
     RDKit          2D

 27 31  0  0  0  0  0  0  0  0999 V2000
    0.4205   -0.5174    0.0000 N   0  0  0  0  0  0  0  0  0  0  0  0
    0.4205    0.4981    0.0000 C   0  0  0  0  0  0  0  0  0  0  0  0
   -1.3003    0.4981    0.0000 C   0  0  0  0  0  0  0  0  0  0  0  0
   -1.3003   -0.5174    0.0000 C   0  0  0  0  0  0  0  0  0  0  0  0
   -0.4360    1.0097    0.0000 C   0  0  0  0  0  0  0  0  0  0  0  0
   -0.4360   -1.0020    0.0000 C   0  0  0  0  0  0  0  0  0  0  0  0
    1.2847    1.0097    0.0000 C   0  0  0  0  0  0  0  0  0  0  0  0
   -2.1684   -1.0020    0.0000 C   0  0  0  0  0  0  0  0  0  0  0  0
    2.1684    0.4981    0.0000 C   0  0  0  0  0  0  0  0  0  0  0  0
    3.0249    1.0097    0.0000 C   0  0  0  0  0  0  0  0  0  0  0  0
    3.0249    2.0057    0.0000 C   0  0  0  0  0  0  0  0  0  0  0  0
   -0.4360   -2.0251    0.0000 C   0  0  0  0  0  0  0  0  0  0  0  0
    1.2847    2.0057    0.0000 C   0  0  0  0  0  0  0  0  0  0  0  0
   -2.1684   -2.0251    0.0000 C   0  0  0  0  0  0  0  0  0  0  0  0
    2.1684    2.5056    0.0000 C   0  0  0  0  0  0  0  0  0  0  0  0
   -1.3003   -2.5056    0.0000 C   0  0  0  0  0  0  0  0  0  0  0  0
   -2.0405    1.1841    0.0000 C   0  0  0  0  0  0  0  0  0  0  0  0
   -0.6608    2.0057    0.0000 C   0  0  0  0  0  0  0  0  0  0  0  0
    3.8892    0.5291    0.0000 O   0  0  0  0  0  0  0  0  0  0  0  0
    3.8777    2.4978    0.0000 O   0  0  0  0  0  0  0  0  0  0  0  0
   -1.6375    2.0793    0.0000 C   0  0  0  0  0  0  0  0  0  0  0  0
   -3.0211   -0.5174    0.0000 C   0  0  0  0  0  0  0  0  0  0  0  0
   -3.0211   -2.5056    0.0000 C   0  0  0  0  0  0  0  0  0  0  0  0
    3.8892   -0.4940    0.0000 C   0  0  0  0  0  0  0  0  0  0  0  0
   -3.8892   -1.0020    0.0000 C   0  0  0  0  0  0  0  0  0  0  0  0
    3.0598   -1.0367    0.0000 C   0  0  0  0  0  0  0  0  0  0  0  0
   -3.8892   -2.0251    0.0000 C   0  0  0  0  0  0  0  0  0  0  0  0
  1  2  2  0
  3  4  1  0
  4  6  2  0
  2  5  1  0
  3  5  2  0
  1  6  1  0
  2  7  1  0
  4  8  1  0
  7  9  2  0
  9 10  1  0
 11 15  1  0
 10 11  2  0
  6 12  1  0
  7 13  1  0
 14 16  1  0
  8 14  2  0
 13 15  2  0
 12 16  2  0
  3 17  1  0
 17 21  1  0
  5 18  1  0
 10 19  1  0
 11 20  1  0
 18 21  1  0
  8 22  1  0
 14 23  1  0
 19 24  1  0
 22 25  2  0
 24 26  1  0
 23 27  2  0
 25 27  1  0
M  END
>  <IDNUMBER>  (171) 
1661-1313

>  <available>  (171) 
47

>  <H_acceptor>  (171) 
3

>  <H_donor>  (171) 
1

>  <B_rotN>  (171) 
3

>  <N_O>  (171) 
3

>  <logP>  (171) 
5.8079

>  <logD>  (171) 
5.783

>  <logSw>  (171) 
-6.6479

>  <PSA>  (171) 
32.841

>  <pKa_ma>  (171) 
9.2691

>  <pKa_mb>  (171) 
6.0519

>  <N_Chirals>  (171) 
0

>  <Name>  (171) 
4-(2,3-dihydro-1H-benzo[f]cyclopenta[c]quinolin-4-yl)-2-ethoxyphenol

>  <Smile>  (171) 
CCOc(cc(cc1)-c2nc3ccc(cccc4)c4c3c3c2CCC3)c1O

>  <Color>  (171) 
YELLOW

>  <Collection>  (171) 
DC

>  <InChI>  (171) 
InChI=1S/C24H21NO2/c1-2-27-22-14-16(11-13-21(22)26)24-19-9-5-8-18(19)23-17-7-4-3-6-15(17)10-12-20(23)25-24/h3-4,6-7,10-14,26H,2,5,8-9H2,1H3

>  <InChI Key>  (171) 
GBXKDBCFZUHUMY-UHFFFAOYSA-N

>  <PERCENTSP3>  (171) 
20.8

>  <Link>  (171) 
https://www.chemdiv.com/catalog/screening-compounds/compound-1661-1313/

>  <MFCDNUMBER>  (171) 
MFCD01030303

>  <STEREO>  (171) 
ACHIRAL

>  <State>  (171) 
Solid

>  <Similarity score>  (171) 
0.21

$$$$
6-bromo-1-butyl-2,3-dihydro-1H-pyrrolo[2,3-b]quinolin-4-amine
     RDKit          2D

 19 21  0  0  0  0  0  0  0  0999 V2000
    0.8071    0.5129    0.0000 C   0  0  0  0  0  0  0  0  0  0  0  0
    0.8071    1.4784    0.0000 C   0  0  0  0  0  0  0  0  0  0  0  0
   -0.0224    0.0303    0.0000 N   0  0  0  0  0  0  0  0  0  0  0  0
   -0.0224    1.9511    0.0000 C   0  0  0  0  0  0  0  0  0  0  0  0
   -0.8675    1.4784    0.0000 C   0  0  0  0  0  0  0  0  0  0  0  0
    1.6367    0.0303    0.0000 N   0  0  0  0  0  0  0  0  0  0  0  0
   -0.8675    0.5129    0.0000 C   0  0  0  0  0  0  0  0  0  0  0  0
    2.4814    1.4784    0.0000 C   0  0  0  0  0  0  0  0  0  0  0  0
   -1.6819    1.9613    0.0000 C   0  0  0  0  0  0  0  0  0  0  0  0
    2.4814    0.5129    0.0000 C   0  0  0  0  0  0  0  0  0  0  0  0
   -1.6819    0.0303    0.0000 C   0  0  0  0  0  0  0  0  0  0  0  0
   -0.0224    2.9114    0.0000 N   0  0  0  0  0  0  0  0  0  0  0  0
   -2.5118    1.4784    0.0000 C   0  0  0  0  0  0  0  0  0  0  0  0
   -2.5118    0.5129    0.0000 C   0  0  0  0  0  0  0  0  0  0  0  0
   -3.3565    1.9511    0.0000 Br  0  0  0  0  0  0  0  0  0  0  0  0
    1.6367   -0.9203    0.0000 C   0  0  0  0  0  0  0  0  0  0  0  0
    2.4966   -1.4180    0.0000 C   0  0  0  0  0  0  0  0  0  0  0  0
    2.4966   -2.4135    0.0000 C   0  0  0  0  0  0  0  0  0  0  0  0
    3.3565   -2.9114    0.0000 C   0  0  0  0  0  0  0  0  0  0  0  0
  1  2  1  0
  1  3  2  0
  2  4  2  0
  4  5  1  0
  5  7  1  0
  1  6  1  0
  3  7  1  0
  2  8  1  0
  5  9  2  0
  6 10  1  0
  8 10  1  0
  7 11  2  0
  4 12  1  0
  9 13  1  0
 13 14  2  0
 11 14  1  0
 13 15  1  0
  6 16  1  0
 16 17  1  0
 17 18  1  0
 18 19  1  0
M  END
>  <IDNUMBER>  (172) 
4817-2931

>  <available>  (172) 
8

>  <H_acceptor>  (172) 
1

>  <H_donor>  (172) 
2

>  <B_rotN>  (172) 
3

>  <N_O>  (172) 
3

>  <logP>  (172) 
4.6261

>  <logD>  (172) 
2.2136

>  <logSw>  (172) 
-4.4202

>  <PSA>  (172) 
32.417

>  <pKa_ma>  (172) 
20.2865

>  <pKa_mb>  (172) 
9.8108

>  <N_Chirals>  (172) 
0

>  <Name>  (172) 
6-bromo-1-butyl-2,3-dihydro-1H-pyrrolo[2,3-b]quinolin-4-amine

>  <Smile>  (172) 
CCCCN(CC1)c2c1c(N)c(cc(cc1)Br)c1n2

>  <Color>  (172) 
ORANGE

>  <Collection>  (172) 
DC

>  <InChI>  (172) 
InChI=1S/C15H18BrN3/c1-2-3-7-19-8-6-11-14(17)12-9-10(16)4-5-13(12)18-15(11)19/h4-5,9H,2-3,6-8H2,1H3,(H2,17,18)

>  <InChI Key>  (172) 
XHNLICSHYXRRRU-UHFFFAOYSA-N

>  <PERCENTSP3>  (172) 
40

>  <Link>  (172) 
https://www.chemdiv.com/catalog/screening-compounds/compound-4817-2931/

>  <MFCDNUMBER>  (172) 
MFCD00636902

>  <CLNUMBER>  (172) 
CL3115

>  <Saltdata>  (172) 
HCl

>  <Saltdata_MW>  (172) 
36.461

>  <STEREO>  (172) 
ACHIRAL

>  <State>  (172) 
Solid

>  <Similarity score>  (172) 
0.21

$$$$
4-(3,4-dihydroisoquinolin-2(1H)-yl)-6-ethoxyquinoline-3-carbonitrile
     RDKit          2D

 25 28  0  0  0  0  0  0  0  0999 V2000
   -0.8477   -0.2044    0.0000 N   0  0  0  0  0  0  0  0  0  0  0  0
   -0.8325   -1.2185    0.0000 C   0  0  0  0  0  0  0  0  0  0  0  0
    0.0454   -1.7181    0.0000 C   0  0  0  0  0  0  0  0  0  0  0  0
   -1.7105   -1.7333    0.0000 C   0  0  0  0  0  0  0  0  0  0  0  0
   -1.7105    0.2801    0.0000 C   0  0  0  0  0  0  0  0  0  0  0  0
   -0.8325   -3.2472    0.0000 N   0  0  0  0  0  0  0  0  0  0  0  0
   -2.5887   -1.2338    0.0000 C   0  0  0  0  0  0  0  0  0  0  0  0
   -3.4666   -0.7342    0.0000 N   0  0  0  0  0  0  0  0  0  0  0  0
    0.0454   -2.7324    0.0000 C   0  0  0  0  0  0  0  0  0  0  0  0
   -1.7105    1.2792    0.0000 C   0  0  0  0  0  0  0  0  0  0  0  0
    0.0152    0.2951    0.0000 C   0  0  0  0  0  0  0  0  0  0  0  0
    0.8932   -1.2185    0.0000 C   0  0  0  0  0  0  0  0  0  0  0  0
   -1.7105   -2.7476    0.0000 C   0  0  0  0  0  0  0  0  0  0  0  0
   -0.8627    1.7788    0.0000 C   0  0  0  0  0  0  0  0  0  0  0  0
    0.0000    1.2942    0.0000 C   0  0  0  0  0  0  0  0  0  0  0  0
    0.9082   -3.2168    0.0000 C   0  0  0  0  0  0  0  0  0  0  0  0
    1.7712   -1.7031    0.0000 C   0  0  0  0  0  0  0  0  0  0  0  0
    1.7864   -2.7172    0.0000 C   0  0  0  0  0  0  0  0  0  0  0  0
    2.6290   -1.1985    0.0000 O   0  0  0  0  0  0  0  0  0  0  0  0
   -2.5734    1.7635    0.0000 C   0  0  0  0  0  0  0  0  0  0  0  0
   -0.8627    2.7627    0.0000 C   0  0  0  0  0  0  0  0  0  0  0  0
    2.6138   -0.1994    0.0000 C   0  0  0  0  0  0  0  0  0  0  0  0
    3.4666    0.3154    0.0000 C   0  0  0  0  0  0  0  0  0  0  0  0
   -2.5734    2.7476    0.0000 C   0  0  0  0  0  0  0  0  0  0  0  0
   -1.7105    3.2472    0.0000 C   0  0  0  0  0  0  0  0  0  0  0  0
  1  2  1  0
  2  3  1  0
  2  4  2  0
  1  5  1  0
  6 13  2  0
  6  9  1  0
  4  7  1  0
  7  8  3  0
  3  9  1  0
  5 10  1  0
 10 14  2  0
  1 11  1  0
  3 12  2  0
  4 13  1  0
 14 15  1  0
 11 15  1  0
  9 16  2  0
 16 18  1  0
 12 17  1  0
 17 18  2  0
 17 19  1  0
 10 20  1  0
 14 21  1  0
 19 22  1  0
 22 23  1  0
 20 24  2  0
 24 25  1  0
 21 25  2  0
M  END
>  <IDNUMBER>  (173) 
F360-0972

>  <available>  (173) 
37

>  <H_acceptor>  (173) 
3

>  <H_donor>  (173) 
0

>  <B_rotN>  (173) 
4

>  <N_O>  (173) 
4

>  <logP>  (173) 
4.4052

>  <logD>  (173) 
4.3703

>  <logSw>  (173) 
-4.1771

>  <PSA>  (173) 
35.783

>  <pKa_ma>  (173) 
22.5349

>  <pKa_mb>  (173) 
6.3225

>  <N_Chirals>  (173) 
0

>  <Name>  (173) 
4-(3,4-dihydroisoquinolin-2(1H)-yl)-6-ethoxyquinoline-3-carbonitrile

>  <Smile>  (173) 
CCOc(ccc1ncc2C#N)cc1c2N(CC1)Cc2c1cccc2

>  <Color>  (173) 
NOT COLORED

>  <Collection>  (173) 
NC

>  <InChI>  (173) 
InChI=1S/C21H19N3O/c1-2-25-18-7-8-20-19(11-18)21(17(12-22)13-23-20)24-10-9-15-5-3-4-6-16(15)14-24/h3-8,11,13H,2,9-10,14H2,1H3

>  <InChI Key>  (173) 
CESQEERCTUEPQF-UHFFFAOYSA-N

>  <PERCENTSP3>  (173) 
23.8

>  <Link>  (173) 
https://www.chemdiv.com/catalog/screening-compounds/compound-F360-0972/

>  <MFCDNUMBER>  (173) 
MFCD27119036

>  <CLNUMBER>  (173) 
CL6761

>  <STEREO>  (173) 
ACHIRAL

>  <State>  (173) 
Solid

>  <Similarity score>  (173) 
0.21

$$$$
4-(2,3-dihydro-1H-benzo[f]cyclopenta[c]quinolin-4-yl)-2-methoxyphenol
     RDKit          2D

 26 30  0  0  0  0  0  0  0  0999 V2000
    0.4355   -0.5134    0.0000 N   0  0  0  0  0  0  0  0  0  0  0  0
    0.4355    0.4970    0.0000 C   0  0  0  0  0  0  0  0  0  0  0  0
   -1.3034    0.4970    0.0000 C   0  0  0  0  0  0  0  0  0  0  0  0
   -1.3034   -0.5134    0.0000 C   0  0  0  0  0  0  0  0  0  0  0  0
   -0.4421    1.0021    0.0000 C   0  0  0  0  0  0  0  0  0  0  0  0
   -0.4421   -1.0055    0.0000 C   0  0  0  0  0  0  0  0  0  0  0  0
    1.3002    1.0021    0.0000 C   0  0  0  0  0  0  0  0  0  0  0  0
   -2.1777   -1.0055    0.0000 C   0  0  0  0  0  0  0  0  0  0  0  0
    2.1616    0.4970    0.0000 C   0  0  0  0  0  0  0  0  0  0  0  0
    3.0295    1.0021    0.0000 C   0  0  0  0  0  0  0  0  0  0  0  0
    3.0295    1.9996    0.0000 C   0  0  0  0  0  0  0  0  0  0  0  0
   -0.4421   -2.0158    0.0000 C   0  0  0  0  0  0  0  0  0  0  0  0
    1.3002    1.9996    0.0000 C   0  0  0  0  0  0  0  0  0  0  0  0
   -2.1777   -2.0158    0.0000 C   0  0  0  0  0  0  0  0  0  0  0  0
    2.1616    2.5048    0.0000 C   0  0  0  0  0  0  0  0  0  0  0  0
   -1.3034   -2.5048    0.0000 C   0  0  0  0  0  0  0  0  0  0  0  0
   -2.0417    1.1707    0.0000 C   0  0  0  0  0  0  0  0  0  0  0  0
    3.8941    0.5101    0.0000 O   0  0  0  0  0  0  0  0  0  0  0  0
   -0.6428    1.9833    0.0000 C   0  0  0  0  0  0  0  0  0  0  0  0
    3.8941    2.4886    0.0000 O   0  0  0  0  0  0  0  0  0  0  0  0
   -1.6240    2.0806    0.0000 C   0  0  0  0  0  0  0  0  0  0  0  0
   -3.0423   -0.5134    0.0000 C   0  0  0  0  0  0  0  0  0  0  0  0
   -3.0423   -2.5048    0.0000 C   0  0  0  0  0  0  0  0  0  0  0  0
    3.9038   -0.4842    0.0000 C   0  0  0  0  0  0  0  0  0  0  0  0
   -3.9038   -1.0055    0.0000 C   0  0  0  0  0  0  0  0  0  0  0  0
   -3.9038   -2.0158    0.0000 C   0  0  0  0  0  0  0  0  0  0  0  0
  1  2  2  0
  3  4  1  0
  4  6  2  0
  2  5  1  0
  3  5  2  0
  1  6  1  0
  2  7  1  0
  4  8  1  0
  7  9  2  0
  9 10  1  0
 11 15  1  0
 10 11  2  0
  6 12  1  0
  7 13  1  0
 14 16  1  0
  8 14  2  0
 13 15  2  0
 12 16  2  0
  3 17  1  0
 10 18  1  0
  5 19  1  0
 11 20  1  0
 19 21  1  0
 17 21  1  0
  8 22  1  0
 14 23  1  0
 18 24  1  0
 22 25  2  0
 23 26  2  0
 25 26  1  0
M  END
>  <IDNUMBER>  (174) 
2268-1394

>  <available>  (174) 
60

>  <H_acceptor>  (174) 
3

>  <H_donor>  (174) 
1

>  <B_rotN>  (174) 
2

>  <N_O>  (174) 
3

>  <logP>  (174) 
5.2891

>  <logD>  (174) 
5.259

>  <logSw>  (174) 
-6.2938

>  <PSA>  (174) 
33.262

>  <pKa_ma>  (174) 
8.988

>  <pKa_mb>  (174) 
6.0519

>  <N_Chirals>  (174) 
0

>  <Name>  (174) 
4-(2,3-dihydro-1H-benzo[f]cyclopenta[c]quinolin-4-yl)-2-methoxyphenol

>  <Smile>  (174) 
COc(cc(cc1)-c2nc3ccc(cccc4)c4c3c3c2CCC3)c1O

>  <Color>  (174) 
NOT COLORED

>  <Collection>  (174) 
DC

>  <InChI>  (174) 
InChI=1S/C23H19NO2/c1-26-21-13-15(10-12-20(21)25)23-18-8-4-7-17(18)22-16-6-3-2-5-14(16)9-11-19(22)24-23/h2-3,5-6,9-13,25H,4,7-8H2,1H3

>  <InChI Key>  (174) 
XXLIIZLXPLCTCD-UHFFFAOYSA-N

>  <PERCENTSP3>  (174) 
17.4

>  <Link>  (174) 
https://www.chemdiv.com/catalog/screening-compounds/compound-2268-1394/

>  <MFCDNUMBER>  (174) 
MFCD01540847

>  <STEREO>  (174) 
ACHIRAL

>  <State>  (174) 
Solid

>  <Similarity score>  (174) 
0.21

$$$$
5-{4-[(2-fluorophenyl)methoxy]phenyl}-1,2,3,4-tetrahydrobenzo[a]phenanthridine
     RDKit          2D

 33 38  0  0  0  0  0  0  0  0999 V2000
   -0.7803   -1.7315    0.0000 N   0  0  0  0  0  0  0  0  0  0  0  0
   -1.7948   -0.0344    0.0000 C   0  0  0  0  0  0  0  0  0  0  0  0
   -0.2972   -0.8720    0.0000 C   0  0  0  0  0  0  0  0  0  0  0  0
   -2.2781   -0.8720    0.0000 C   0  0  0  0  0  0  0  0  0  0  0  0
   -0.8147   -0.0344    0.0000 C   0  0  0  0  0  0  0  0  0  0  0  0
   -1.7855   -1.7315    0.0000 C   0  0  0  0  0  0  0  0  0  0  0  0
   -3.2520   -0.8720    0.0000 C   0  0  0  0  0  0  0  0  0  0  0  0
    0.7143   -0.8720    0.0000 C   0  0  0  0  0  0  0  0  0  0  0  0
    3.7366    0.8501    0.0000 C   0  0  0  0  0  0  0  0  0  0  0  0
   -2.2781   -2.6035    0.0000 C   0  0  0  0  0  0  0  0  0  0  0  0
    4.2433    1.6907    0.0000 C   0  0  0  0  0  0  0  0  0  0  0  0
    4.2683    0.0031    0.0000 C   0  0  0  0  0  0  0  0  0  0  0  0
   -3.7570   -1.7315    0.0000 C   0  0  0  0  0  0  0  0  0  0  0  0
   -3.2520   -2.6035    0.0000 C   0  0  0  0  0  0  0  0  0  0  0  0
    1.2194   -1.7409    0.0000 C   0  0  0  0  0  0  0  0  0  0  0  0
    1.2194    0.0127    0.0000 C   0  0  0  0  0  0  0  0  0  0  0  0
    3.7649   -0.8720    0.0000 O   0  0  0  0  0  0  0  0  0  0  0  0
    2.7532   -0.8720    0.0000 C   0  0  0  0  0  0  0  0  0  0  0  0
    5.2659    1.6907    0.0000 F   0  0  0  0  0  0  0  0  0  0  0  0
   -2.3032    0.8266    0.0000 C   0  0  0  0  0  0  0  0  0  0  0  0
    2.1840   -1.7409    0.0000 C   0  0  0  0  0  0  0  0  0  0  0  0
    2.1840    0.0127    0.0000 C   0  0  0  0  0  0  0  0  0  0  0  0
   -0.3192    0.8266    0.0000 C   0  0  0  0  0  0  0  0  0  0  0  0
   -3.7837   -0.0344    0.0000 C   0  0  0  0  0  0  0  0  0  0  0  0
    2.7155    0.8501    0.0000 C   0  0  0  0  0  0  0  0  0  0  0  0
    3.7116    2.6035    0.0000 C   0  0  0  0  0  0  0  0  0  0  0  0
   -4.7686   -1.7315    0.0000 C   0  0  0  0  0  0  0  0  0  0  0  0
   -1.8608    1.6907    0.0000 C   0  0  0  0  0  0  0  0  0  0  0  0
   -0.8274    1.6907    0.0000 C   0  0  0  0  0  0  0  0  0  0  0  0
   -4.7686   -0.0344    0.0000 C   0  0  0  0  0  0  0  0  0  0  0  0
    2.2107    1.7188    0.0000 C   0  0  0  0  0  0  0  0  0  0  0  0
    2.7155    2.6035    0.0000 C   0  0  0  0  0  0  0  0  0  0  0  0
   -5.2659   -0.8720    0.0000 C   0  0  0  0  0  0  0  0  0  0  0  0
  2  4  1  0
  2  5  2  0
  1  3  2  0
  4  6  2  0
  3  5  1  0
  1  6  1  0
  4  7  1  0
  7 13  2  0
  3  8  1  0
  9 12  1  0
  6 10  1  0
  9 11  1  0
 12 17  1  0
 13 14  1  0
 10 14  2  0
  8 15  1  0
  8 16  2  0
 17 18  1  0
 18 22  2  0
 18 21  1  0
 11 19  1  0
  2 20  1  0
 15 21  2  0
 16 22  1  0
  5 23  1  0
  7 24  1  0
  9 25  2  0
 11 26  2  0
 13 27  1  0
 20 28  1  0
 28 29  1  0
 23 29  1  0
 24 30  2  0
 30 33  1  0
 25 31  1  0
 31 32  2  0
 26 32  1  0
 27 33  2  0
M  END
>  <IDNUMBER>  (175) 
8012-9715

>  <available>  (175) 
40

>  <H_acceptor>  (175) 
2

>  <H_donor>  (175) 
0

>  <B_rotN>  (175) 
4

>  <N_O>  (175) 
2

>  <logP>  (175) 
7.9758

>  <logD>  (175) 
7.9745

>  <logSw>  (175) 
-7.3996

>  <PSA>  (175) 
15.9446

>  <pKa_ma>  (175) 
20.8421

>  <pKa_mb>  (175) 
4.8592

>  <N_Chirals>  (175) 
0

>  <Name>  (175) 
5-{4-[(2-fluorophenyl)methoxy]phenyl}-1,2,3,4-tetrahydrobenzo[a]phenanthridine

>  <Smile>  (175) 
Fc1c(COc(cc2)ccc2-c2nc3ccc(cccc4)c4c3c3c2CCCC3)cccc1

>  <Color>  (175) 
ORANGE

>  <Collection>  (175) 
DC

>  <InChI>  (175) 
InChI=1S/C30H24FNO/c31-27-12-6-2-8-22(27)19-33-23-16-13-21(14-17-23)30-26-11-5-4-10-25(26)29-24-9-3-1-7-20(24)15-18-28(29)32-30/h1-3,6-9,12-18H,4-5,10-11,19H2

>  <InChI Key>  (175) 
PWQBSYVECMZYJN-UHFFFAOYSA-N

>  <PERCENTSP3>  (175) 
16.7

>  <Link>  (175) 
https://www.chemdiv.com/catalog/screening-compounds/compound-8012-9715/

>  <MFCDNUMBER>  (175) 
MFCD03308391

>  <STEREO>  (175) 
ACHIRAL

>  <State>  (175) 
Solid

>  <Similarity score>  (175) 
0.21

$$$$
6,8-difluoro-3-(4-fluorophenyl)-1-(4-methoxyphenyl)-1H-pyrazolo[4,3-c]quinoline
     RDKit          2D

 30 34  0  0  0  0  0  0  0  0999 V2000
   -0.8589    0.4406    0.0000 N   0  0  0  0  0  0  0  0  0  0  0  0
   -0.2050   -1.0377    0.0000 C   0  0  0  0  0  0  0  0  0  0  0  0
   -1.0708   -0.5388    0.0000 C   0  0  0  0  0  0  0  0  0  0  0  0
    0.1277    0.5455    0.0000 N   0  0  0  0  0  0  0  0  0  0  0  0
    0.5378   -0.3611    0.0000 C   0  0  0  0  0  0  0  0  0  0  0  0
   -1.9340   -1.0377    0.0000 C   0  0  0  0  0  0  0  0  0  0  0  0
   -1.9340   -2.0354    0.0000 C   0  0  0  0  0  0  0  0  0  0  0  0
   -1.0708   -2.5343    0.0000 N   0  0  0  0  0  0  0  0  0  0  0  0
   -0.2050   -2.0354    0.0000 C   0  0  0  0  0  0  0  0  0  0  0  0
   -2.7951   -2.5343    0.0000 C   0  0  0  0  0  0  0  0  0  0  0  0
   -1.4898    1.2107    0.0000 C   0  0  0  0  0  0  0  0  0  0  0  0
   -3.6678   -2.0400    0.0000 C   0  0  0  0  0  0  0  0  0  0  0  0
    1.5355   -0.4614    0.0000 C   0  0  0  0  0  0  0  0  0  0  0  0
   -2.7951   -0.5388    0.0000 C   0  0  0  0  0  0  0  0  0  0  0  0
   -3.6678   -1.0377    0.0000 C   0  0  0  0  0  0  0  0  0  0  0  0
   -1.1323    2.1492    0.0000 C   0  0  0  0  0  0  0  0  0  0  0  0
   -2.4785    1.0513    0.0000 C   0  0  0  0  0  0  0  0  0  0  0  0
    1.9545   -1.3588    0.0000 C   0  0  0  0  0  0  0  0  0  0  0  0
    2.1096    0.3633    0.0000 C   0  0  0  0  0  0  0  0  0  0  0  0
   -2.7951   -3.5389    0.0000 F   0  0  0  0  0  0  0  0  0  0  0  0
    3.5310   -0.6345    0.0000 C   0  0  0  0  0  0  0  0  0  0  0  0
   -4.5309   -0.5388    0.0000 F   0  0  0  0  0  0  0  0  0  0  0  0
   -2.7609    2.7597    0.0000 C   0  0  0  0  0  0  0  0  0  0  0  0
    2.9408   -1.4614    0.0000 C   0  0  0  0  0  0  0  0  0  0  0  0
    3.1073    0.2745    0.0000 C   0  0  0  0  0  0  0  0  0  0  0  0
   -3.1095    1.8211    0.0000 C   0  0  0  0  0  0  0  0  0  0  0  0
   -1.7678    2.9214    0.0000 C   0  0  0  0  0  0  0  0  0  0  0  0
    4.5309   -0.7349    0.0000 F   0  0  0  0  0  0  0  0  0  0  0  0
   -3.3850    3.5389    0.0000 O   0  0  0  0  0  0  0  0  0  0  0  0
   -4.3690    3.3724    0.0000 C   0  0  0  0  0  0  0  0  0  0  0  0
  2  3  2  0
  2  5  1  0
  1  3  1  0
  1  4  1  0
  4  5  2  0
  3  6  1  0
  6  7  1  0
  7  8  1  0
  8  9  2  0
  2  9  1  0
  7 10  2  0
  1 11  1  0
 12 15  2  0
 10 12  1  0
  5 13  1  0
  6 14  2  0
 14 15  1  0
 11 16  2  0
 11 17  1  0
 13 18  2  0
 13 19  1  0
 10 20  1  0
 21 25  1  0
 15 22  1  0
 23 26  1  0
 18 24  1  0
 21 24  2  0
 19 25  2  0
 17 26  2  0
 16 27  1  0
 23 27  2  0
 21 28  1  0
 23 29  1  0
 29 30  1  0
M  END
>  <IDNUMBER>  (176) 
C350-0499

>  <available>  (176) 
111

>  <H_acceptor>  (176) 
3

>  <H_donor>  (176) 
0

>  <B_rotN>  (176) 
3

>  <N_O>  (176) 
4

>  <logP>  (176) 
5.4381

>  <logD>  (176) 
5.4381

>  <logSw>  (176) 
-5.653

>  <PSA>  (176) 
31.0241

>  <pKa_ma>  (176) 
33.286

>  <pKa_mb>  (176) 
2.2647

>  <N_Chirals>  (176) 
0

>  <Name>  (176) 
6,8-difluoro-3-(4-fluorophenyl)-1-(4-methoxyphenyl)-1H-pyrazolo[4,3-c]quinoline

>  <Smile>  (176) 
COc(cc1)ccc1-n(c1c(cc(cc2F)F)c2ncc11)nc1-c(cc1)ccc1F

>  <Color>  (176) 
NOT COLORED

>  <Collection>  (176) 
DC

>  <InChI>  (176) 
InChI=1S/C23H14F3N3O/c1-30-17-8-6-16(7-9-17)29-23-18-10-15(25)11-20(26)22(18)27-12-19(23)21(28-29)13-2-4-14(24)5-3-13/h2-12H,1H3

>  <InChI Key>  (176) 
UOQHYNPURJVFSW-UHFFFAOYSA-N

>  <PERCENTSP3>  (176) 
4.3

>  <Link>  (176) 
https://www.chemdiv.com/catalog/screening-compounds/compound-C350-0499/

>  <MFCDNUMBER>  (176) 
MFCD14750453

>  <CLNUMBER>  (176) 
CL4130

>  <STEREO>  (176) 
ACHIRAL

>  <State>  (176) 
Solid

>  <Similarity score>  (176) 
0.21

$$$$
1-[(5-methoxy-1H-indol-3-yl)methyl]-3-methylpiperidine-3-carboxamide
     RDKit          2D

 22 24  0  0  0  0  0  0  0  0999 V2000
    1.6456   -0.3604    0.0000 C   0  0  0  0  0  0  0  0  0  0  0  0
   -0.9561    1.1410    0.0000 C   0  0  0  0  0  0  0  0  0  0  0  0
    0.8368   -0.9467    0.0000 C   0  0  0  0  0  0  0  0  0  0  0  0
    2.1472   -1.8963    0.0000 N   0  0  0  0  0  0  0  0  0  0  0  0
    2.4544   -0.9467    0.0000 C   0  0  0  0  0  0  0  0  0  0  0  0
   -1.9527    1.1410    0.0000 C   0  0  0  0  0  0  0  0  0  0  0  0
    0.7743    1.1410    0.0000 N   0  0  0  0  0  0  0  0  0  0  0  0
    1.6456    0.6425    0.0000 C   0  0  0  0  0  0  0  0  0  0  0  0
   -0.0909    0.6425    0.0000 C   0  0  0  0  0  0  0  0  0  0  0  0
    1.1410   -1.8963    0.0000 C   0  0  0  0  0  0  0  0  0  0  0  0
   -0.1410   -0.7398    0.0000 C   0  0  0  0  0  0  0  0  0  0  0  0
   -2.4544    2.0060    0.0000 O   0  0  0  0  0  0  0  0  0  0  0  0
    0.4733   -2.6393    0.0000 C   0  0  0  0  0  0  0  0  0  0  0  0
   -2.4544    0.2758    0.0000 N   0  0  0  0  0  0  0  0  0  0  0  0
   -0.8150   -1.4826    0.0000 C   0  0  0  0  0  0  0  0  0  0  0  0
   -0.9561    2.1377    0.0000 C   0  0  0  0  0  0  0  0  0  0  0  0
   -1.4576    0.2758    0.0000 C   0  0  0  0  0  0  0  0  0  0  0  0
   -0.5046   -2.4387    0.0000 C   0  0  0  0  0  0  0  0  0  0  0  0
    0.7743    2.1377    0.0000 C   0  0  0  0  0  0  0  0  0  0  0  0
   -1.7929   -1.2758    0.0000 O   0  0  0  0  0  0  0  0  0  0  0  0
   -0.0909    2.6393    0.0000 C   0  0  0  0  0  0  0  0  0  0  0  0
   -2.1034   -0.3228    0.0000 C   0  0  0  0  0  0  0  0  0  0  0  0
  2  9  1  0
  2 16  1  0
  1  3  1  0
  4  5  1  0
  4 10  1  0
  1  5  2  0
  2  6  1  0
  7  8  1  0
  1  8  1  0
  7  9  1  0
  3 10  2  0
  3 11  1  0
  6 12  2  0
 10 13  1  0
 13 18  2  0
  6 14  1  0
 11 15  2  0
 16 21  1  0
  2 17  1  0
 15 18  1  0
  7 19  1  0
 15 20  1  0
 19 21  1  0
 20 22  1  0
M  END
>  <IDNUMBER>  (177) 
SA93-0042

>  <available>  (177) 
8

>  <H_acceptor>  (177) 
4

>  <H_donor>  (177) 
3

>  <B_rotN>  (177) 
4

>  <N_O>  (177) 
5

>  <logP>  (177) 
1.5736

>  <logD>  (177) 
-0.546

>  <logSw>  (177) 
-2.2752

>  <PSA>  (177) 
55.378

>  <pKa_ma>  (177) 
14.043

>  <pKa_mb>  (177) 
9.5163

>  <N_Chirals>  (177) 
1

>  <Name>  (177) 
1-[(5-methoxy-1H-indol-3-yl)methyl]-3-methylpiperidine-3-carboxamide

>  <Smile>  (177) 
CC1(CN(Cc2c[nH]c(cc3)c2cc3OC)CCC1)C(N)=O

>  <Color>  (177) 
ORANGE

>  <Collection>  (177) 
IC

>  <InChI>  (177) 
InChI=1S/C17H23N3O2/c1-17(16(18)21)6-3-7-20(11-17)10-12-9-19-15-5-4-13(22-2)8-14(12)15/h4-5,8-9,19H,3,6-7,10-11H2,1-2H3,(H2,18,21)/t17-/m0/s1

>  <InChI Key>  (177) 
XYUBWXZJLZLAHK-KRWDZBQOSA-N

>  <PERCENTSP3>  (177) 
47.1

>  <Link>  (177) 
https://www.chemdiv.com/catalog/screening-compounds/compound-SA93-0042/

>  <MFCDNUMBER>  (177) 
MFCD32241973

>  <CLNUMBER>  (177) 
CM5470

>  <STEREO>  (177) 
RACEMIC MIXTURE

>  <State>  (177) 
Oil

>  <Similarity score>  (177) 
0.21

$$$$
N-butyl-N-ethyl-2-(4-nitrophenyl)quinazolin-4-amine
     RDKit          2D

 26 28  0  0  0  0  0  0  0  0999 V2000
   -0.4562    0.5145    0.0000 N   0  0  0  0  0  0  0  0  0  0  0  0
   -1.3168    1.0161    0.0000 C   0  0  0  0  0  0  0  0  0  0  0  0
   -0.4476   -0.4757    0.0000 C   0  0  0  0  0  0  0  0  0  0  0  0
    3.0466   -2.4735    0.0000 N   0  0  0  0  0  0  0  0  0  0  0  0
   -2.1816    0.5103    0.0000 C   0  0  0  0  0  0  0  0  0  0  0  0
   -1.3168   -0.9903    0.0000 N   0  0  0  0  0  0  0  0  0  0  0  0
   -2.1816   -0.4757    0.0000 C   0  0  0  0  0  0  0  0  0  0  0  0
    2.1643   -1.9762    0.0000 C   0  0  0  0  0  0  0  0  0  0  0  0
   -1.3168    2.0021    0.0000 N   0  0  0  0  0  0  0  0  0  0  0  0
    0.4259   -0.9773    0.0000 C   0  0  0  0  0  0  0  0  0  0  0  0
    3.0466   -3.4855    0.0000 O   0  0  0  0  0  0  0  0  0  0  0  0
    3.9244   -1.9762    0.0000 O   0  0  0  0  0  0  0  0  0  0  0  0
    2.1600   -0.9687    0.0000 C   0  0  0  0  0  0  0  0  0  0  0  0
    1.3080   -2.4735    0.0000 C   0  0  0  0  0  0  0  0  0  0  0  0
    1.2649   -0.4713    0.0000 C   0  0  0  0  0  0  0  0  0  0  0  0
    0.4259   -1.9935    0.0000 C   0  0  0  0  0  0  0  0  0  0  0  0
   -3.0508    1.0032    0.0000 C   0  0  0  0  0  0  0  0  0  0  0  0
   -3.0508   -0.9903    0.0000 C   0  0  0  0  0  0  0  0  0  0  0  0
   -2.1816    2.4995    0.0000 C   0  0  0  0  0  0  0  0  0  0  0  0
   -0.4691    2.4995    0.0000 C   0  0  0  0  0  0  0  0  0  0  0  0
    0.3828    2.0021    0.0000 C   0  0  0  0  0  0  0  0  0  0  0  0
    1.2433    2.4995    0.0000 C   0  0  0  0  0  0  0  0  0  0  0  0
   -3.9244    0.5103    0.0000 C   0  0  0  0  0  0  0  0  0  0  0  0
   -2.1816    3.4855    0.0000 C   0  0  0  0  0  0  0  0  0  0  0  0
   -3.9244   -0.4757    0.0000 C   0  0  0  0  0  0  0  0  0  0  0  0
    2.1124    2.0021    0.0000 C   0  0  0  0  0  0  0  0  0  0  0  0
  1  2  2  0
  1  3  1  0
  4  8  1  0
  2  5  1  0
  3  6  2  0
  6  7  1  0
  5  7  1  0
  8 14  2  0
  8 13  1  0
  2  9  1  0
  3 10  1  0
  4 11  1  0
  4 12  2  0
 13 15  2  0
 14 16  1  0
 10 15  1  0
 10 16  2  0
  5 17  2  0
  7 18  2  0
  9 19  1  0
  9 20  1  0
 20 21  1  0
 21 22  1  0
 17 23  1  0
 19 24  1  0
 18 25  1  0
 23 25  2  0
 22 26  1  0
M  CHG  2   4   1  11  -1
M  END
>  <IDNUMBER>  (178) 
4358-4635

>  <available>  (178) 
32

>  <H_acceptor>  (178) 
6

>  <H_donor>  (178) 
0

>  <B_rotN>  (178) 
7

>  <N_O>  (178) 
6

>  <logP>  (178) 
6.2345

>  <logD>  (178) 
5.6502

>  <logSw>  (178) 
-5.8912

>  <PSA>  (178) 
54.557

>  <pKa_ma>  (178) 
22.6496

>  <pKa_mb>  (178) 
7.8534

>  <N_Chirals>  (178) 
0

>  <Name>  (178) 
N-butyl-N-ethyl-2-(4-nitrophenyl)quinazolin-4-amine

>  <Smile>  (178) 
CCCCN(CC)c1nc(-c(cc2)ccc2[N+]([O-])=O)nc2ccccc12

>  <Color>  (178) 
YELLOW

>  <Collection>  (178) 
NC

>  <InChI>  (178) 
InChI=1S/C20H22N4O2/c1-3-5-14-23(4-2)20-17-8-6-7-9-18(17)21-19(22-20)15-10-12-16(13-11-15)24(25)26/h6-13H,3-5,14H2,1-2H3

>  <InChI Key>  (178) 
HNFWRNVSYUVRHZ-UHFFFAOYSA-N

>  <PERCENTSP3>  (178) 
30

>  <Link>  (178) 
https://www.chemdiv.com/catalog/screening-compounds/compound-4358-4635/

>  <MFCDNUMBER>  (178) 
MFCD03285581

>  <CLNUMBER>  (178) 
CL2243

>  <STEREO>  (178) 
ACHIRAL

>  <State>  (178) 
Solid

>  <Similarity score>  (178) 
0.21

$$$$
3-(4-ethoxyphenyl)-6,8-difluoro-1-(3-nitrophenyl)-1H-pyrazolo[4,3-c]quinoline
     RDKit          2D

 33 37  0  0  0  0  0  0  0  0999 V2000
   -1.5745   -0.1051    0.0000 N   0  0  0  0  0  0  0  0  0  0  0  0
   -0.9112   -1.5768    0.0000 C   0  0  0  0  0  0  0  0  0  0  0  0
   -1.7867   -1.0686    0.0000 C   0  0  0  0  0  0  0  0  0  0  0  0
   -0.5798    0.0023    0.0000 N   0  0  0  0  0  0  0  0  0  0  0  0
   -0.1479   -0.8995    0.0000 C   0  0  0  0  0  0  0  0  0  0  0  0
   -2.6670   -1.5768    0.0000 C   0  0  0  0  0  0  0  0  0  0  0  0
   -2.1185    3.2898    0.0000 N   0  0  0  0  0  0  0  0  0  0  0  0
   -2.6670   -2.5644    0.0000 C   0  0  0  0  0  0  0  0  0  0  0  0
   -1.7867   -3.0631    0.0000 N   0  0  0  0  0  0  0  0  0  0  0  0
   -2.1996    0.6656    0.0000 C   0  0  0  0  0  0  0  0  0  0  0  0
   -0.9112   -2.5644    0.0000 C   0  0  0  0  0  0  0  0  0  0  0  0
   -3.5379   -3.0631    0.0000 C   0  0  0  0  0  0  0  0  0  0  0  0
   -1.8465    1.5866    0.0000 C   0  0  0  0  0  0  0  0  0  0  0  0
   -2.4714    2.3546    0.0000 C   0  0  0  0  0  0  0  0  0  0  0  0
   -4.4132   -2.5644    0.0000 C   0  0  0  0  0  0  0  0  0  0  0  0
    0.8541   -1.0042    0.0000 C   0  0  0  0  0  0  0  0  0  0  0  0
   -3.5379   -1.0686    0.0000 C   0  0  0  0  0  0  0  0  0  0  0  0
   -1.1238    3.4544    0.0000 O   0  0  0  0  0  0  0  0  0  0  0  0
   -2.7385    4.0578    0.0000 O   0  0  0  0  0  0  0  0  0  0  0  0
   -4.4038   -1.5768    0.0000 C   0  0  0  0  0  0  0  0  0  0  0  0
    1.4289   -0.1789    0.0000 C   0  0  0  0  0  0  0  0  0  0  0  0
    1.2620   -1.8988    0.0000 C   0  0  0  0  0  0  0  0  0  0  0  0
   -3.5283   -4.0578    0.0000 F   0  0  0  0  0  0  0  0  0  0  0  0
   -5.2721   -1.0808    0.0000 F   0  0  0  0  0  0  0  0  0  0  0  0
    2.8769   -1.1760    0.0000 C   0  0  0  0  0  0  0  0  0  0  0  0
    2.2734   -2.0016    0.0000 C   0  0  0  0  0  0  0  0  0  0  0  0
    2.4380   -0.2697    0.0000 C   0  0  0  0  0  0  0  0  0  0  0  0
   -3.1657    0.5058    0.0000 C   0  0  0  0  0  0  0  0  0  0  0  0
    3.8671   -1.2762    0.0000 O   0  0  0  0  0  0  0  0  0  0  0  0
   -3.4471    2.2042    0.0000 C   0  0  0  0  0  0  0  0  0  0  0  0
   -3.7933    1.2689    0.0000 C   0  0  0  0  0  0  0  0  0  0  0  0
    4.2796   -2.1877    0.0000 C   0  0  0  0  0  0  0  0  0  0  0  0
    5.2721   -2.2780    0.0000 C   0  0  0  0  0  0  0  0  0  0  0  0
  2  3  2  0
  2  5  1  0
  1  3  1  0
  1  4  1  0
  4  5  2  0
  3  6  1  0
  7 14  1  0
  6  8  1  0
  8  9  1  0
  9 11  2  0
  1 10  1  0
  2 11  1  0
  8 12  2  0
 10 13  2  0
 13 14  1  0
 14 30  2  0
 15 20  2  0
 12 15  1  0
  5 16  1  0
  6 17  2  0
  7 18  1  0
  7 19  2  0
 17 20  1  0
 16 21  1  0
 16 22  2  0
 12 23  1  0
 20 24  1  0
 25 26  2  0
 22 26  1  0
 21 27  2  0
 25 27  1  0
 10 28  1  0
 25 29  1  0
 30 31  1  0
 28 31  2  0
 29 32  1  0
 32 33  1  0
M  CHG  2   7   1  18  -1
M  END
>  <IDNUMBER>  (179) 
C350-0827

>  <available>  (179) 
103

>  <H_acceptor>  (179) 
7

>  <H_donor>  (179) 
0

>  <B_rotN>  (179) 
5

>  <N_O>  (179) 
7

>  <logP>  (179) 
5.6659

>  <logD>  (179) 
5.6659

>  <logSw>  (179) 
-5.6365

>  <PSA>  (179) 
63.986

>  <pKa_ma>  (179) 
29.8521

>  <pKa_mb>  (179) 
2.2647

>  <N_Chirals>  (179) 
0

>  <Name>  (179) 
3-(4-ethoxyphenyl)-6,8-difluoro-1-(3-nitrophenyl)-1H-pyrazolo[4,3-c]quinoline

>  <Smile>  (179) 
CCOc(cc1)ccc1-c(c1cnc2c(F)cc(F)cc2c11)nn1-c1cc([N+]([O-])=O)ccc1

>  <Color>  (179) 
NOT COLORED

>  <Collection>  (179) 
DC

>  <InChI>  (179) 
InChI=1S/C24H16F2N4O3/c1-2-33-18-8-6-14(7-9-18)22-20-13-27-23-19(10-15(25)11-21(23)26)24(20)29(28-22)16-4-3-5-17(12-16)30(31)32/h3-13H,2H2,1H3

>  <InChI Key>  (179) 
CAJMJTWODBKEDP-UHFFFAOYSA-N

>  <PERCENTSP3>  (179) 
8.3

>  <Link>  (179) 
https://www.chemdiv.com/catalog/screening-compounds/compound-C350-0827/

>  <MFCDNUMBER>  (179) 
MFCD14750693

>  <CLNUMBER>  (179) 
CL4130

>  <STEREO>  (179) 
ACHIRAL

>  <State>  (179) 
Solid

>  <Similarity score>  (179) 
0.21

$$$$
2-(4-methoxyphenyl)-4-(3-phenylpyrrolidin-1-yl)quinazoline
     RDKit          2D

 29 33  0  0  0  0  0  0  0  0999 V2000
   -0.8619   -0.2805    0.0000 C   0  0  0  0  0  0  0  0  0  0  0  0
    0.0102   -0.7719    0.0000 N   0  0  0  0  0  0  0  0  0  0  0  0
   -0.8619    0.7317    0.0000 N   0  0  0  0  0  0  0  0  0  0  0  0
    0.0102   -1.7841    0.0000 C   0  0  0  0  0  0  0  0  0  0  0  0
   -1.7238   -0.7719    0.0000 C   0  0  0  0  0  0  0  0  0  0  0  0
   -0.8619   -2.2750    0.0000 N   0  0  0  0  0  0  0  0  0  0  0  0
   -1.7238   -1.7841    0.0000 C   0  0  0  0  0  0  0  0  0  0  0  0
   -0.0401    1.2729    0.0000 C   0  0  0  0  0  0  0  0  0  0  0  0
    0.8619   -2.2750    0.0000 C   0  0  0  0  0  0  0  0  0  0  0  0
   -0.3207    2.2347    0.0000 C   0  0  0  0  0  0  0  0  0  0  0  0
   -1.6437    1.3429    0.0000 C   0  0  0  0  0  0  0  0  0  0  0  0
   -1.3027    2.2951    0.0000 C   0  0  0  0  0  0  0  0  0  0  0  0
    0.2004    3.0671    0.0000 C   0  0  0  0  0  0  0  0  0  0  0  0
    0.8619   -3.2872    0.0000 C   0  0  0  0  0  0  0  0  0  0  0  0
    1.7341   -1.7841    0.0000 C   0  0  0  0  0  0  0  0  0  0  0  0
    2.5959   -3.2872    0.0000 C   0  0  0  0  0  0  0  0  0  0  0  0
    2.6059   -2.2750    0.0000 C   0  0  0  0  0  0  0  0  0  0  0  0
    1.7238   -3.7782    0.0000 C   0  0  0  0  0  0  0  0  0  0  0  0
   -2.5956   -0.2805    0.0000 C   0  0  0  0  0  0  0  0  0  0  0  0
    3.4678   -3.7983    0.0000 O   0  0  0  0  0  0  0  0  0  0  0  0
   -2.5956   -2.2750    0.0000 C   0  0  0  0  0  0  0  0  0  0  0  0
    1.2126    3.0371    0.0000 C   0  0  0  0  0  0  0  0  0  0  0  0
   -0.2604    3.9390    0.0000 C   0  0  0  0  0  0  0  0  0  0  0  0
    3.4480   -4.8007    0.0000 C   0  0  0  0  0  0  0  0  0  0  0  0
   -3.4678   -0.7719    0.0000 C   0  0  0  0  0  0  0  0  0  0  0  0
   -3.4678   -1.7841    0.0000 C   0  0  0  0  0  0  0  0  0  0  0  0
    0.2808    4.8007    0.0000 C   0  0  0  0  0  0  0  0  0  0  0  0
    1.7341    3.8787    0.0000 C   0  0  0  0  0  0  0  0  0  0  0  0
    1.2830    4.7508    0.0000 C   0  0  0  0  0  0  0  0  0  0  0  0
  1  2  2  0
  1  3  1  0
  2  4  1  0
  1  5  1  0
  6  7  1  0
  4  6  2  0
  5  7  1  0
  3  8  1  0
  4  9  1  0
  8 10  1  0
  3 11  1  0
 11 12  1  0
 10 12  1  0
 10 13  1  0
  9 14  2  0
  9 15  1  0
 16 17  1  0
 16 18  2  0
 15 17  2  0
 14 18  1  0
  5 19  2  0
 16 20  1  0
  7 21  2  0
 21 26  1  0
 13 22  1  0
 13 23  2  0
 20 24  1  0
 19 25  1  0
 25 26  2  0
 23 27  1  0
 22 28  2  0
 27 29  2  0
 28 29  1  0
M  END
>  <IDNUMBER>  (180) 
G516-0250

>  <available>  (180) 
401

>  <H_acceptor>  (180) 
3

>  <H_donor>  (180) 
0

>  <B_rotN>  (180) 
4

>  <N_O>  (180) 
4

>  <logP>  (180) 
6.7312

>  <logD>  (180) 
6.2899

>  <logSw>  (180) 
-6.2366

>  <PSA>  (180) 
29.2101

>  <pKa_ma>  (180) 
18.4111

>  <pKa_mb>  (180) 
7.6461

>  <N_Chirals>  (180) 
1

>  <Name>  (180) 
2-(4-methoxyphenyl)-4-(3-phenylpyrrolidin-1-yl)quinazoline

>  <Smile>  (180) 
COc(cc1)ccc1-c1nc2ccccc2c(N(CC2)CC2c2ccccc2)n1

>  <Color>  (180) 
BROWN

>  <Collection>  (180) 
NC

>  <InChI>  (180) 
InChI=1S/C25H23N3O/c1-29-21-13-11-19(12-14-21)24-26-23-10-6-5-9-22(23)25(27-24)28-16-15-20(17-28)18-7-3-2-4-8-18/h2-14,20H,15-17H2,1H3/t20-/m1/s1

>  <InChI Key>  (180) 
BLKGMXRXEGCWKG-HXUWFJFHSA-N

>  <PERCENTSP3>  (180) 
20

>  <Link>  (180) 
https://www.chemdiv.com/catalog/screening-compounds/compound-G516-0250/

>  <MFCDNUMBER>  (180) 
MFCD15015068

>  <CLNUMBER>  (180) 
CL2243

>  <STEREO>  (180) 
RACEMIC MIXTURE

>  <State>  (180) 
Solid

>  <Similarity score>  (180) 
0.21

$$$$
2-(4-methoxyphenyl)-4-(3-methylpiperidin-1-yl)-5,6,8,9-tetrahydrooxepino[4,5-d]p
     RDKit          2D

 26 29  0  0  0  0  0  0  0  0999 V2000
    0.0675    1.5682    0.0000 C   0  0  0  0  0  0  0  0  0  0  0  0
    0.0015    0.5657    0.0000 N   0  0  0  0  0  0  0  0  0  0  0  0
   -0.7504    2.1229    0.0000 C   0  0  0  0  0  0  0  0  0  0  0  0
   -0.9010    0.1301    0.0000 C   0  0  0  0  0  0  0  0  0  0  0  0
    0.9700    2.0008    0.0000 N   0  0  0  0  0  0  0  0  0  0  0  0
   -1.7280    0.6972    0.0000 N   0  0  0  0  0  0  0  0  0  0  0  0
   -1.6529    1.6906    0.0000 C   0  0  0  0  0  0  0  0  0  0  0  0
   -0.9761   -0.8666    0.0000 C   0  0  0  0  0  0  0  0  0  0  0  0
    1.0546    2.9878    0.0000 C   0  0  0  0  0  0  0  0  0  0  0  0
   -2.1512    3.8809    0.0000 O   0  0  0  0  0  0  0  0  0  0  0  0
   -1.8786   -1.2989    0.0000 C   0  0  0  0  0  0  0  0  0  0  0  0
   -0.1488   -1.4304    0.0000 C   0  0  0  0  0  0  0  0  0  0  0  0
   -2.5554    2.1229    0.0000 C   0  0  0  0  0  0  0  0  0  0  0  0
    1.8065    1.4304    0.0000 C   0  0  0  0  0  0  0  0  0  0  0  0
   -0.5280    3.1039    0.0000 C   0  0  0  0  0  0  0  0  0  0  0  0
   -1.1264   -2.8594    0.0000 C   0  0  0  0  0  0  0  0  0  0  0  0
   -1.9537   -2.3017    0.0000 C   0  0  0  0  0  0  0  0  0  0  0  0
   -0.2239   -2.4237    0.0000 C   0  0  0  0  0  0  0  0  0  0  0  0
    1.9570    3.4295    0.0000 C   0  0  0  0  0  0  0  0  0  0  0  0
   -1.2015   -3.8558    0.0000 O   0  0  0  0  0  0  0  0  0  0  0  0
   -2.7747    3.1039    0.0000 C   0  0  0  0  0  0  0  0  0  0  0  0
    2.7090    1.8691    0.0000 C   0  0  0  0  0  0  0  0  0  0  0  0
   -1.1485    3.8809    0.0000 C   0  0  0  0  0  0  0  0  0  0  0  0
    2.7747    2.8657    0.0000 C   0  0  0  0  0  0  0  0  0  0  0  0
   -0.3744   -4.4199    0.0000 C   0  0  0  0  0  0  0  0  0  0  0  0
    2.0228    4.4199    0.0000 C   0  0  0  0  0  0  0  0  0  0  0  0
  1  2  2  0
  1  3  1  0
  2  4  1  0
  1  5  1  0
  6  7  1  0
  4  6  2  0
  3  7  2  0
  4  8  1  0
  5  9  1  0
 10 23  1  0
  8 11  2  0
  8 12  1  0
  7 13  1  0
  5 14  1  0
  3 15  1  0
 16 18  1  0
 11 17  1  0
 16 17  2  0
 12 18  2  0
  9 19  1  0
 16 20  1  0
 13 21  1  0
 10 21  1  0
 14 22  1  0
 15 23  1  0
 22 24  1  0
 19 24  1  0
 20 25  1  0
 19 26  1  0
M  END
>  <IDNUMBER>  (181) 
S896-0154

>  <available>  (181) 
126

>  <H_acceptor>  (181) 
4

>  <H_donor>  (181) 
0

>  <B_rotN>  (181) 
3

>  <N_O>  (181) 
5

>  <logP>  (181) 
4.842

>  <logD>  (181) 
4.8363

>  <logSw>  (181) 
-4.6017

>  <PSA>  (181) 
39.062

>  <pKa_ma>  (181) 
19.7965

>  <pKa_mb>  (181) 
5.5159

>  <N_Chirals>  (181) 
1

>  <Name>  (181) 
2-(4-methoxyphenyl)-4-(3-methylpiperidin-1-yl)-5,6,8,9-tetrahydrooxepino[4,5-d]pyrimidine

>  <Smile>  (181) 
CC(CCC1)CN1c1nc(-c(cc2)ccc2OC)nc2c1CCOCC2

>  <Color>  (181) 
ORANGE

>  <Collection>  (181) 
IC

>  <InChI>  (181) 
InChI=1S/C21H27N3O2/c1-15-4-3-11-24(14-15)21-18-9-12-26-13-10-19(18)22-20(23-21)16-5-7-17(25-2)8-6-16/h5-8,15H,3-4,9-14H2,1-2H3/t15-/m0/s1

>  <InChI Key>  (181) 
HWAFCXVMLQTCAU-HNNXBMFYSA-N

>  <PERCENTSP3>  (181) 
52.38

>  <Link>  (181) 
https://www.chemdiv.com/catalog/screening-compounds/compound-S896-0154/

>  <MFCDNUMBER>  (181) 
MFCD31956799

>  <CLNUMBER>  (181) 
CM3993

>  <STEREO>  (181) 
RACEMIC MIXTURE

>  <State>  (181) 
Solid

>  <Similarity score>  (181) 
0.21

$$$$
ethyl 4-(3,4-dihydroisoquinolin-2(1H)-yl)-2-(trifluoromethyl)quinazoline-6-carbo
     RDKit          2D

 29 32  0  0  0  0  0  0  0  0999 V2000
    0.8078   -0.7180    0.0000 C   0  0  0  0  0  0  0  0  0  0  0  0
    1.6737   -1.2305    0.0000 N   0  0  0  0  0  0  0  0  0  0  0  0
   -0.0622   -1.2305    0.0000 C   0  0  0  0  0  0  0  0  0  0  0  0
    1.6737   -2.2170    0.0000 C   0  0  0  0  0  0  0  0  0  0  0  0
    0.8078    0.2686    0.0000 N   0  0  0  0  0  0  0  0  0  0  0  0
    0.8078   -2.7250    0.0000 N   0  0  0  0  0  0  0  0  0  0  0  0
    2.5359   -2.7166    0.0000 C   0  0  0  0  0  0  0  0  0  0  0  0
   -0.0622   -2.2170    0.0000 C   0  0  0  0  0  0  0  0  0  0  0  0
   -0.9244   -0.7180    0.0000 C   0  0  0  0  0  0  0  0  0  0  0  0
    1.6737    0.7683    0.0000 C   0  0  0  0  0  0  0  0  0  0  0  0
   -1.7862   -1.2305    0.0000 C   0  0  0  0  0  0  0  0  0  0  0  0
   -2.6520   -0.7180    0.0000 C   0  0  0  0  0  0  0  0  0  0  0  0
    1.6737    1.7548    0.0000 C   0  0  0  0  0  0  0  0  0  0  0  0
   -0.0622    0.7559    0.0000 C   0  0  0  0  0  0  0  0  0  0  0  0
    0.8202    2.2714    0.0000 C   0  0  0  0  0  0  0  0  0  0  0  0
   -0.9244   -2.7250    0.0000 C   0  0  0  0  0  0  0  0  0  0  0  0
   -3.5225   -1.2305    0.0000 O   0  0  0  0  0  0  0  0  0  0  0  0
   -1.7862   -2.2170    0.0000 C   0  0  0  0  0  0  0  0  0  0  0  0
   -0.0622    1.7676    0.0000 C   0  0  0  0  0  0  0  0  0  0  0  0
    3.5225   -2.3419    0.0000 F   0  0  0  0  0  0  0  0  0  0  0  0
    3.3308   -3.1789    0.0000 F   0  0  0  0  0  0  0  0  0  0  0  0
    2.7063   -3.7536    0.0000 F   0  0  0  0  0  0  0  0  0  0  0  0
   -2.6520    0.2809    0.0000 O   0  0  0  0  0  0  0  0  0  0  0  0
    2.5359    2.2422    0.0000 C   0  0  0  0  0  0  0  0  0  0  0  0
    0.8243    3.2662    0.0000 C   0  0  0  0  0  0  0  0  0  0  0  0
   -1.7862    0.7806    0.0000 C   0  0  0  0  0  0  0  0  0  0  0  0
   -1.7862    1.7676    0.0000 C   0  0  0  0  0  0  0  0  0  0  0  0
    2.5565    3.2456    0.0000 C   0  0  0  0  0  0  0  0  0  0  0  0
    1.6947    3.7536    0.0000 C   0  0  0  0  0  0  0  0  0  0  0  0
  1  2  1  0
  1  3  2  0
  2  4  2  0
  4  6  1  0
  1  5  1  0
  6  8  2  0
  4  7  1  0
  3  8  1  0
  3  9  1  0
  5 10  1  0
  9 11  2  0
 11 12  1  0
 10 13  1  0
 13 15  2  0
  5 14  1  0
 15 19  1  0
  8 16  1  0
 12 17  2  0
 11 18  1  0
 16 18  2  0
 14 19  1  0
  7 20  1  0
  7 21  1  0
  7 22  1  0
 12 23  1  0
 13 24  1  0
 15 25  1  0
 23 26  1  0
 26 27  1  0
 24 28  2  0
 25 29  2  0
 28 29  1  0
M  END
>  <IDNUMBER>  (182) 
7706-1025

>  <available>  (182) 
13

>  <H_acceptor>  (182) 
5

>  <H_donor>  (182) 
0

>  <B_rotN>  (182) 
5

>  <N_O>  (182) 
5

>  <logP>  (182) 
5.6487

>  <logD>  (182) 
5.6487

>  <logSw>  (182) 
-5.688

>  <PSA>  (182) 
42.326

>  <pKa_ma>  (182) 
18.8389

>  <pKa_mb>  (182) 
2.5962

>  <N_Chirals>  (182) 
0

>  <Name>  (182) 
ethyl 4-(3,4-dihydroisoquinolin-2(1H)-yl)-2-(trifluoromethyl)quinazoline-6-carboxylate

>  <Smile>  (182) 
CCOC(c(cc12)ccc2nc(C(F)(F)F)nc1N(CC1)Cc2c1cccc2)=O

>  <Color>  (182) 
PINK

>  <Collection>  (182) 
NC

>  <InChI>  (182) 
InChI=1S/C21H18F3N3O2/c1-2-29-19(28)14-7-8-17-16(11-14)18(26-20(25-17)21(22,23)24)27-10-9-13-5-3-4-6-15(13)12-27/h3-8,11H,2,9-10,12H2,1H3

>  <InChI Key>  (182) 
AHUKUJHEXYJWPR-UHFFFAOYSA-N

>  <PERCENTSP3>  (182) 
28.6

>  <Link>  (182) 
https://www.chemdiv.com/catalog/screening-compounds/compound-7706-1025/

>  <MFCDNUMBER>  (182) 
MFCD06641774

>  <CLNUMBER>  (182) 
CL2243

>  <STEREO>  (182) 
ACHIRAL

>  <State>  (182) 
Solid

>  <Similarity score>  (182) 
0.21

$$$$
1-(3,4-dimethylphenyl)-3-(4-ethoxyphenyl)-6,8-difluoro-1H-pyrazolo[4,3-c]quinoli
     RDKit          2D

 32 36  0  0  0  0  0  0  0  0999 V2000
   -1.1679    0.4407    0.0000 N   0  0  0  0  0  0  0  0  0  0  0  0
   -0.5036   -1.0292    0.0000 C   0  0  0  0  0  0  0  0  0  0  0  0
   -1.3792   -0.5305    0.0000 C   0  0  0  0  0  0  0  0  0  0  0  0
   -0.1665    0.5406    0.0000 N   0  0  0  0  0  0  0  0  0  0  0  0
    0.2561   -0.3491    0.0000 C   0  0  0  0  0  0  0  0  0  0  0  0
   -2.2648   -1.0292    0.0000 C   0  0  0  0  0  0  0  0  0  0  0  0
   -2.2648   -2.0244    0.0000 C   0  0  0  0  0  0  0  0  0  0  0  0
   -1.3792   -2.5189    0.0000 N   0  0  0  0  0  0  0  0  0  0  0  0
   -1.7962    1.2107    0.0000 C   0  0  0  0  0  0  0  0  0  0  0  0
   -0.5036   -2.0244    0.0000 C   0  0  0  0  0  0  0  0  0  0  0  0
   -3.1245   -2.5189    0.0000 C   0  0  0  0  0  0  0  0  0  0  0  0
   -2.7634    1.0551    0.0000 C   0  0  0  0  0  0  0  0  0  0  0  0
   -4.0001   -2.0244    0.0000 C   0  0  0  0  0  0  0  0  0  0  0  0
    1.2636   -0.4546    0.0000 C   0  0  0  0  0  0  0  0  0  0  0  0
   -3.1245   -0.5305    0.0000 C   0  0  0  0  0  0  0  0  0  0  0  0
   -3.3878    1.8151    0.0000 C   0  0  0  0  0  0  0  0  0  0  0  0
   -4.0001   -1.0292    0.0000 C   0  0  0  0  0  0  0  0  0  0  0  0
   -1.4349    2.1321    0.0000 C   0  0  0  0  0  0  0  0  0  0  0  0
   -3.0347    2.7426    0.0000 C   0  0  0  0  0  0  0  0  0  0  0  0
   -2.0692    2.9000    0.0000 C   0  0  0  0  0  0  0  0  0  0  0  0
    1.8418    0.3611    0.0000 C   0  0  0  0  0  0  0  0  0  0  0  0
    1.6744   -1.3563    0.0000 C   0  0  0  0  0  0  0  0  0  0  0  0
   -3.1245   -3.5145    0.0000 F   0  0  0  0  0  0  0  0  0  0  0  0
   -4.8617   -0.5305    0.0000 F   0  0  0  0  0  0  0  0  0  0  0  0
    3.2860   -0.6363    0.0000 C   0  0  0  0  0  0  0  0  0  0  0  0
    2.6818   -1.4520    0.0000 C   0  0  0  0  0  0  0  0  0  0  0  0
    2.8530    0.2754    0.0000 C   0  0  0  0  0  0  0  0  0  0  0  0
    4.2872   -0.7359    0.0000 O   0  0  0  0  0  0  0  0  0  0  0  0
   -4.3790    1.6595    0.0000 C   0  0  0  0  0  0  0  0  0  0  0  0
   -3.6690    3.5145    0.0000 C   0  0  0  0  0  0  0  0  0  0  0  0
    4.8617    0.0779    0.0000 C   0  0  0  0  0  0  0  0  0  0  0  0
    4.4528    0.9934    0.0000 C   0  0  0  0  0  0  0  0  0  0  0  0
  2  3  2  0
  2  5  1  0
  1  3  1  0
  1  4  1  0
  4  5  2  0
  3  6  1  0
  6  7  1  0
  7  8  1  0
  8 10  2  0
  1  9  1  0
  2 10  1  0
  7 11  2  0
  9 12  1  0
 13 17  2  0
 11 13  1  0
  5 14  1  0
  6 15  2  0
 12 16  2  0
 16 19  1  0
 15 17  1  0
  9 18  2  0
 19 20  2  0
 18 20  1  0
 14 21  1  0
 14 22  2  0
 11 23  1  0
 17 24  1  0
 25 26  2  0
 25 27  1  0
 22 26  1  0
 21 27  2  0
 25 28  1  0
 16 29  1  0
 19 30  1  0
 28 31  1  0
 31 32  1  0
M  END
>  <IDNUMBER>  (183) 
C350-0810

>  <available>  (183) 
112

>  <H_acceptor>  (183) 
3

>  <H_donor>  (183) 
0

>  <B_rotN>  (183) 
4

>  <N_O>  (183) 
4

>  <logP>  (183) 
6.9232

>  <logD>  (183) 
6.9231

>  <logSw>  (183) 
-5.7701

>  <PSA>  (183) 
30.6039

>  <pKa_ma>  (183) 
28.0078

>  <pKa_mb>  (183) 
2.6884

>  <N_Chirals>  (183) 
0

>  <Name>  (183) 
1-(3,4-dimethylphenyl)-3-(4-ethoxyphenyl)-6,8-difluoro-1H-pyrazolo[4,3-c]quinoline

>  <Smile>  (183) 
CCOc(cc1)ccc1-c(c1cnc2c(F)cc(F)cc2c11)nn1-c1cc(C)c(C)cc1

>  <Color>  (183) 
NOT COLORED

>  <Collection>  (183) 
DC

>  <InChI>  (183) 
InChI=1S/C26H21F2N3O/c1-4-32-20-9-6-17(7-10-20)24-22-14-29-25-21(12-18(27)13-23(25)28)26(22)31(30-24)19-8-5-15(2)16(3)11-19/h5-14H,4H2,1-3H3

>  <InChI Key>  (183) 
HEAGGNOYTKHCIP-UHFFFAOYSA-N

>  <PERCENTSP3>  (183) 
15.4

>  <Link>  (183) 
https://www.chemdiv.com/catalog/screening-compounds/compound-C350-0810/

>  <MFCDNUMBER>  (183) 
MFCD14750683

>  <CLNUMBER>  (183) 
CL4130

>  <STEREO>  (183) 
ACHIRAL

>  <State>  (183) 
Solid

>  <Similarity score>  (183) 
0.21

$$$$
4-(3-chlorophenyl)-2-(3-methylpiperidin-1-yl)-5H-[1]benzopyrano[4,3-d]pyrimidine
     RDKit          2D

 28 32  0  0  0  0  0  0  0  0999 V2000
   -0.7515    0.8684    0.0000 C   0  0  0  0  0  0  0  0  0  0  0  0
    0.7489    0.0015    0.0000 C   0  0  0  0  0  0  0  0  0  0  0  0
    0.2487   -0.8654    0.0000 C   0  0  0  0  0  0  0  0  0  0  0  0
    0.2487    0.8684    0.0000 N   0  0  0  0  0  0  0  0  0  0  0  0
   -1.2517    0.0015    0.0000 N   0  0  0  0  0  0  0  0  0  0  0  0
   -0.7515   -0.8654    0.0000 C   0  0  0  0  0  0  0  0  0  0  0  0
   -1.2517    1.7297    0.0000 N   0  0  0  0  0  0  0  0  0  0  0  0
    1.7492    0.0015    0.0000 C   0  0  0  0  0  0  0  0  0  0  0  0
    0.7489   -1.7322    0.0000 C   0  0  0  0  0  0  0  0  0  0  0  0
    1.7492   -1.7322    0.0000 O   0  0  0  0  0  0  0  0  0  0  0  0
   -1.2517   -1.7322    0.0000 C   0  0  0  0  0  0  0  0  0  0  0  0
    2.2493   -0.8654    0.0000 C   0  0  0  0  0  0  0  0  0  0  0  0
   -2.2493    1.7297    0.0000 C   0  0  0  0  0  0  0  0  0  0  0  0
   -2.2493   -1.7322    0.0000 C   0  0  0  0  0  0  0  0  0  0  0  0
   -2.7493   -2.5992    0.0000 C   0  0  0  0  0  0  0  0  0  0  0  0
   -0.7515    2.5965    0.0000 C   0  0  0  0  0  0  0  0  0  0  0  0
   -3.7497   -2.5992    0.0000 Cl  0  0  0  0  0  0  0  0  0  0  0  0
    2.2493    0.8684    0.0000 C   0  0  0  0  0  0  0  0  0  0  0  0
   -2.7493    2.5965    0.0000 C   0  0  0  0  0  0  0  0  0  0  0  0
   -0.7515   -2.5992    0.0000 C   0  0  0  0  0  0  0  0  0  0  0  0
   -1.2517    3.4635    0.0000 C   0  0  0  0  0  0  0  0  0  0  0  0
   -1.2517   -3.4635    0.0000 C   0  0  0  0  0  0  0  0  0  0  0  0
    3.2496   -0.8654    0.0000 C   0  0  0  0  0  0  0  0  0  0  0  0
   -2.2493   -3.4635    0.0000 C   0  0  0  0  0  0  0  0  0  0  0  0
   -2.2493    3.4635    0.0000 C   0  0  0  0  0  0  0  0  0  0  0  0
   -3.7497    2.5965    0.0000 C   0  0  0  0  0  0  0  0  0  0  0  0
    3.2496    0.8684    0.0000 C   0  0  0  0  0  0  0  0  0  0  0  0
    3.7497    0.0015    0.0000 C   0  0  0  0  0  0  0  0  0  0  0  0
  2  4  1  0
  2  3  2  0
  3  6  1  0
  1  4  2  0
  1  5  1  0
  5  6  2  0
  1  7  1  0
  2  8  1  0
  3  9  1  0
  9 10  1  0
  6 11  1  0
  8 12  1  0
 10 12  1  0
  7 13  1  0
 11 14  2  0
 14 15  1  0
 15 24  2  0
  7 16  1  0
 15 17  1  0
  8 18  2  0
 13 19  1  0
 19 25  1  0
 11 20  1  0
 16 21  1  0
 20 22  2  0
 12 23  2  0
 22 24  1  0
 21 25  1  0
 19 26  1  0
 18 27  1  0
 27 28  2  0
 23 28  1  0
M  END
>  <IDNUMBER>  (184) 
E130-0651

>  <available>  (184) 
110

>  <H_acceptor>  (184) 
3

>  <H_donor>  (184) 
0

>  <B_rotN>  (184) 
2

>  <N_O>  (184) 
4

>  <logP>  (184) 
6.3003

>  <logD>  (184) 
6.2997

>  <logSw>  (184) 
-6.3448

>  <PSA>  (184) 
30.5809

>  <pKa_ma>  (184) 
16.6846

>  <pKa_mb>  (184) 
7.1486

>  <N_Chirals>  (184) 
1

>  <Name>  (184) 
4-(3-chlorophenyl)-2-(3-methylpiperidin-1-yl)-5H-[1]benzopyrano[4,3-d]pyrimidine

>  <Smile>  (184) 
CC(CCC1)CN1c1nc(-c(cccc2)c2OC2)c2c(-c2cccc(Cl)c2)n1

>  <Color>  (184) 
NOT COLORED

>  <Collection>  (184) 
DC

>  <InChI>  (184) 
InChI=1S/C23H22ClN3O/c1-15-6-5-11-27(13-15)23-25-21(16-7-4-8-17(24)12-16)19-14-28-20-10-3-2-9-18(20)22(19)26-23/h2-4,7-10,12,15H,5-6,11,13-14H2,1H3/t15-/m0/s1

>  <InChI Key>  (184) 
ZIZXAOGNCJHKBO-HNNXBMFYSA-N

>  <PERCENTSP3>  (184) 
30.4

>  <Link>  (184) 
https://www.chemdiv.com/catalog/screening-compounds/compound-E130-0651/

>  <MFCDNUMBER>  (184) 
MFCD14840797

>  <STEREO>  (184) 
RACEMIC MIXTURE

>  <State>  (184) 
Solid

>  <Similarity score>  (184) 
0.21

$$$$
N-[(2-ethoxyphenyl)methyl]-1-[3-(4-fluorophenyl)[1,2]oxazolo[5,4-d]pyrimidin-4-y
     RDKit          2D

 35 39  0  0  0  0  0  0  0  0999 V2000
   -1.8294   -1.7259    0.0000 C   0  0  0  0  0  0  0  0  0  0  0  0
   -1.0595   -1.0820    0.0000 C   0  0  0  0  0  0  0  0  0  0  0  0
   -3.2637   -2.4861    0.0000 N   0  0  0  0  0  0  0  0  0  0  0  0
   -2.8207   -1.5801    0.0000 C   0  0  0  0  0  0  0  0  0  0  0  0
   -1.2355   -0.0955    0.0000 N   0  0  0  0  0  0  0  0  0  0  0  0
   -1.6581   -2.7126    0.0000 C   0  0  0  0  0  0  0  0  0  0  0  0
   -2.5387   -3.1654    0.0000 O   0  0  0  0  0  0  0  0  0  0  0  0
   -0.6365    1.5450    0.0000 C   0  0  0  0  0  0  0  0  0  0  0  0
    0.1232    2.1841    0.0000 C   0  0  0  0  0  0  0  0  0  0  0  0
   -0.1183   -1.4292    0.0000 N   0  0  0  0  0  0  0  0  0  0  0  0
   -0.4654    0.5486    0.0000 C   0  0  0  0  0  0  0  0  0  0  0  0
   -0.7221   -3.0548    0.0000 N   0  0  0  0  0  0  0  0  0  0  0  0
    1.0595    1.8519    0.0000 N   0  0  0  0  0  0  0  0  0  0  0  0
   -3.5002   -0.8254    0.0000 C   0  0  0  0  0  0  0  0  0  0  0  0
    0.0327   -2.4107    0.0000 C   0  0  0  0  0  0  0  0  0  0  0  0
    2.5792    1.0166    0.0000 C   0  0  0  0  0  0  0  0  0  0  0  0
    2.0559    1.8772    0.0000 C   0  0  0  0  0  0  0  0  0  0  0  0
   -0.0578    3.1654    0.0000 O   0  0  0  0  0  0  0  0  0  0  0  0
    3.5756    1.0619    0.0000 C   0  0  0  0  0  0  0  0  0  0  0  0
   -4.4814   -1.0367    0.0000 C   0  0  0  0  0  0  0  0  0  0  0  0
   -3.1832    0.1158    0.0000 C   0  0  0  0  0  0  0  0  0  0  0  0
   -2.1716    0.2467    0.0000 C   0  0  0  0  0  0  0  0  0  0  0  0
   -4.8439    0.6694    0.0000 C   0  0  0  0  0  0  0  0  0  0  0  0
   -5.1458   -0.2918    0.0000 C   0  0  0  0  0  0  0  0  0  0  0  0
   -3.8474    0.8505    0.0000 C   0  0  0  0  0  0  0  0  0  0  0  0
   -5.5081    1.4140    0.0000 F   0  0  0  0  0  0  0  0  0  0  0  0
   -1.5727    1.8772    0.0000 C   0  0  0  0  0  0  0  0  0  0  0  0
    4.0437    1.9377    0.0000 O   0  0  0  0  0  0  0  0  0  0  0  0
   -2.3527    1.2429    0.0000 C   0  0  0  0  0  0  0  0  0  0  0  0
    2.1112    0.1410    0.0000 C   0  0  0  0  0  0  0  0  0  0  0  0
    4.1041    0.2012    0.0000 C   0  0  0  0  0  0  0  0  0  0  0  0
    5.0403    1.9678    0.0000 C   0  0  0  0  0  0  0  0  0  0  0  0
    5.5081    2.8585    0.0000 C   0  0  0  0  0  0  0  0  0  0  0  0
    2.6396   -0.7045    0.0000 C   0  0  0  0  0  0  0  0  0  0  0  0
    3.6360   -0.6744    0.0000 C   0  0  0  0  0  0  0  0  0  0  0  0
  1  2  1  0
  3  4  2  0
  3  7  1  0
  1  4  1  0
  2  5  1  0
  1  6  2  0
  6  7  1  0
  8 11  1  0
  8 27  1  0
  8  9  1  0
  2 10  2  0
  5 11  1  0
  6 12  1  0
  9 13  1  0
  4 14  1  0
 12 15  2  0
 10 15  1  0
 16 17  1  0
 13 17  1  0
  9 18  2  0
 16 19  1  0
 14 20  1  0
 14 21  2  0
  5 22  1  0
 23 25  2  0
 20 24  2  0
 23 24  1  0
 21 25  1  0
 23 26  1  0
 27 29  1  0
 19 28  1  0
 22 29  1  0
 16 30  2  0
 19 31  2  0
 28 32  1  0
 32 33  1  0
 30 34  1  0
 34 35  2  0
 31 35  1  0
M  END
>  <IDNUMBER>  (185) 
E945-0130

>  <available>  (185) 
34

>  <H_acceptor>  (185) 
7

>  <H_donor>  (185) 
1

>  <B_rotN>  (185) 
8

>  <N_O>  (185) 
8

>  <logP>  (185) 
4.0951

>  <logD>  (185) 
4.0951

>  <logSw>  (185) 
-4.3003

>  <PSA>  (185) 
77.092

>  <pKa_ma>  (185) 
12.356

>  <pKa_mb>  (185) 
2.7118

>  <N_Chirals>  (185) 
1

>  <Name>  (185) 
N-[(2-ethoxyphenyl)methyl]-1-[3-(4-fluorophenyl)[1,2]oxazolo[5,4-d]pyrimidin-4-yl]piperidine-3-carboxamide

>  <Smile>  (185) 
CCOc1c(CNC(C(CCC2)CN2c2c(c(-c(cc3)ccc3F)no3)c3ncn2)=O)cccc1

>  <Color>  (185) 
NOT COLORED

>  <Collection>  (185) 
DC

>  <InChI>  (185) 
InChI=1S/C26H26FN5O3/c1-2-34-21-8-4-3-6-18(21)14-28-25(33)19-7-5-13-32(15-19)24-22-23(17-9-11-20(27)12-10-17)31-35-26(22)30-16-29-24/h3-4,6,8-12,16,19H,2,5,7,13-15H2,1H3,(H,28,33)/t19-/m0/s1

>  <InChI Key>  (185) 
WBFZIHJBRRPLBK-IBGZPJMESA-N

>  <PERCENTSP3>  (185) 
30.8

>  <Link>  (185) 
https://www.chemdiv.com/catalog/screening-compounds/compound-E945-0130/

>  <MFCDNUMBER>  (185) 
MFCD14929306

>  <CLNUMBER>  (185) 
CL5510B

>  <STEREO>  (185) 
RACEMIC MIXTURE

>  <CAS>  (185) 
894595-74-5

>  <State>  (185) 
Solid

>  <Similarity score>  (185) 
0.21

$$$$
N-butyl-2-(2,4-dichlorophenyl)-N-methylquinazolin-4-amine
     RDKit          2D

 24 26  0  0  0  0  0  0  0  0999 V2000
   -0.0319    0.5053    0.0000 N   0  0  0  0  0  0  0  0  0  0  0  0
    0.0032   -0.4894    0.0000 C   0  0  0  0  0  0  0  0  0  0  0  0
   -0.8766    1.0090    0.0000 C   0  0  0  0  0  0  0  0  0  0  0  0
    0.8735   -0.9961    0.0000 C   0  0  0  0  0  0  0  0  0  0  0  0
   -0.8766   -1.0090    0.0000 N   0  0  0  0  0  0  0  0  0  0  0  0
   -1.7342    0.4925    0.0000 C   0  0  0  0  0  0  0  0  0  0  0  0
   -1.7342   -0.4894    0.0000 C   0  0  0  0  0  0  0  0  0  0  0  0
    0.8735   -1.9940    0.0000 C   0  0  0  0  0  0  0  0  0  0  0  0
    1.7246   -0.4830    0.0000 C   0  0  0  0  0  0  0  0  0  0  0  0
   -0.8766    1.9973    0.0000 N   0  0  0  0  0  0  0  0  0  0  0  0
    1.7374   -2.4786    0.0000 C   0  0  0  0  0  0  0  0  0  0  0  0
    2.6268   -1.9812    0.0000 C   0  0  0  0  0  0  0  0  0  0  0  0
    0.0032   -2.5104    0.0000 Cl  0  0  0  0  0  0  0  0  0  0  0  0
    2.6077   -0.9802    0.0000 C   0  0  0  0  0  0  0  0  0  0  0  0
   -2.6139    0.9802    0.0000 C   0  0  0  0  0  0  0  0  0  0  0  0
    3.4876   -2.4786    0.0000 Cl  0  0  0  0  0  0  0  0  0  0  0  0
   -2.6139   -1.0090    0.0000 C   0  0  0  0  0  0  0  0  0  0  0  0
   -0.0319    2.5104    0.0000 C   0  0  0  0  0  0  0  0  0  0  0  0
   -1.7342    2.5104    0.0000 C   0  0  0  0  0  0  0  0  0  0  0  0
    0.8288    2.0132    0.0000 C   0  0  0  0  0  0  0  0  0  0  0  0
    1.6895    2.5104    0.0000 C   0  0  0  0  0  0  0  0  0  0  0  0
   -3.4876    0.4925    0.0000 C   0  0  0  0  0  0  0  0  0  0  0  0
   -3.4876   -0.4894    0.0000 C   0  0  0  0  0  0  0  0  0  0  0  0
    2.5503    2.0132    0.0000 C   0  0  0  0  0  0  0  0  0  0  0  0
  1  2  1  0
  1  3  2  0
  2  4  1  0
  2  5  2  0
  5  7  1  0
  3  6  1  0
  6  7  1  0
  4  8  2  0
  4  9  1  0
  3 10  1  0
  8 11  1  0
 11 12  2  0
 12 14  1  0
  8 13  1  0
  9 14  2  0
  6 15  2  0
 12 16  1  0
  7 17  2  0
 10 18  1  0
 10 19  1  0
 18 20  1  0
 20 21  1  0
 15 22  1  0
 22 23  2  0
 17 23  1  0
 21 24  1  0
M  END
>  <IDNUMBER>  (186) 
4358-1634

>  <available>  (186) 
26

>  <H_acceptor>  (186) 
2

>  <H_donor>  (186) 
0

>  <B_rotN>  (186) 
5

>  <N_O>  (186) 
3

>  <logP>  (186) 
5.8756

>  <logD>  (186) 
5.1736

>  <logSw>  (186) 
-6.2559

>  <PSA>  (186) 
21.3906

>  <pKa_ma>  (186) 
22.7068

>  <pKa_mb>  (186) 
8.0058

>  <N_Chirals>  (186) 
0

>  <Name>  (186) 
N-butyl-2-(2,4-dichlorophenyl)-N-methylquinazolin-4-amine

>  <Smile>  (186) 
CCCCN(C)c1nc(-c(ccc(Cl)c2)c2Cl)nc2ccccc12

>  <Color>  (186) 
NOT COLORED

>  <Collection>  (186) 
NC

>  <InChI>  (186) 
InChI=1S/C19H19Cl2N3/c1-3-4-11-24(2)19-15-7-5-6-8-17(15)22-18(23-19)14-10-9-13(20)12-16(14)21/h5-10,12H,3-4,11H2,1-2H3

>  <InChI Key>  (186) 
HQEZCWOICAAMRI-UHFFFAOYSA-N

>  <PERCENTSP3>  (186) 
26.3

>  <Link>  (186) 
https://www.chemdiv.com/catalog/screening-compounds/compound-4358-1634/

>  <MFCDNUMBER>  (186) 
MFCD09982011

>  <CLNUMBER>  (186) 
CL2243

>  <Saltdata>  (186) 
HCl

>  <Saltdata_MW>  (186) 
36.461

>  <STEREO>  (186) 
ACHIRAL

>  <State>  (186) 
Solid

>  <Similarity score>  (186) 
0.21

$$$$
N-(3,4-dimethoxyphenyl)-1-[3-(4-fluorophenyl)[1,2]oxazolo[5,4-d]pyrimidin-4-yl]p
     RDKit          2D

 35 39  0  0  0  0  0  0  0  0999 V2000
   -1.4015   -1.7258    0.0000 C   0  0  0  0  0  0  0  0  0  0  0  0
   -0.6316   -1.0818    0.0000 C   0  0  0  0  0  0  0  0  0  0  0  0
   -2.8355   -2.4856    0.0000 N   0  0  0  0  0  0  0  0  0  0  0  0
   -2.3924   -1.5799    0.0000 C   0  0  0  0  0  0  0  0  0  0  0  0
   -0.8076   -0.0956    0.0000 N   0  0  0  0  0  0  0  0  0  0  0  0
   -1.2302   -2.7121    0.0000 C   0  0  0  0  0  0  0  0  0  0  0  0
    0.5510    2.1839    0.0000 C   0  0  0  0  0  0  0  0  0  0  0  0
   -2.1108   -3.1650    0.0000 O   0  0  0  0  0  0  0  0  0  0  0  0
   -0.2089    1.5448    0.0000 C   0  0  0  0  0  0  0  0  0  0  0  0
    0.3095   -1.4289    0.0000 N   0  0  0  0  0  0  0  0  0  0  0  0
   -0.0378    0.5484    0.0000 C   0  0  0  0  0  0  0  0  0  0  0  0
   -0.2943   -3.0544    0.0000 N   0  0  0  0  0  0  0  0  0  0  0  0
    1.4869    1.8516    0.0000 N   0  0  0  0  0  0  0  0  0  0  0  0
    3.2077    1.9221    0.0000 C   0  0  0  0  0  0  0  0  0  0  0  0
    4.0983    1.4692    0.0000 C   0  0  0  0  0  0  0  0  0  0  0  0
   -3.0718   -0.8251    0.0000 C   0  0  0  0  0  0  0  0  0  0  0  0
    0.4603   -2.4102    0.0000 C   0  0  0  0  0  0  0  0  0  0  0  0
    2.3775    1.3938    0.0000 C   0  0  0  0  0  0  0  0  0  0  0  0
    0.3698    3.1650    0.0000 O   0  0  0  0  0  0  0  0  0  0  0  0
    4.1536    0.4730    0.0000 C   0  0  0  0  0  0  0  0  0  0  0  0
   -2.7548    0.1159    0.0000 C   0  0  0  0  0  0  0  0  0  0  0  0
   -4.0529   -1.0365    0.0000 C   0  0  0  0  0  0  0  0  0  0  0  0
    3.3083   -0.0705    0.0000 C   0  0  0  0  0  0  0  0  0  0  0  0
   -1.7435    0.2467    0.0000 C   0  0  0  0  0  0  0  0  0  0  0  0
    2.4178    0.3976    0.0000 C   0  0  0  0  0  0  0  0  0  0  0  0
   -4.4153    0.6692    0.0000 C   0  0  0  0  0  0  0  0  0  0  0  0
    4.9588    1.9977    0.0000 O   0  0  0  0  0  0  0  0  0  0  0  0
   -4.7172   -0.2918    0.0000 C   0  0  0  0  0  0  0  0  0  0  0  0
   -3.4191    0.8503    0.0000 C   0  0  0  0  0  0  0  0  0  0  0  0
   -5.0795    1.4138    0.0000 F   0  0  0  0  0  0  0  0  0  0  0  0
   -1.1448    1.8769    0.0000 C   0  0  0  0  0  0  0  0  0  0  0  0
    5.0342    0.0051    0.0000 O   0  0  0  0  0  0  0  0  0  0  0  0
   -1.9246    1.2427    0.0000 C   0  0  0  0  0  0  0  0  0  0  0  0
    4.9134    2.9939    0.0000 C   0  0  0  0  0  0  0  0  0  0  0  0
    5.0795   -0.9911    0.0000 C   0  0  0  0  0  0  0  0  0  0  0  0
  1  2  1  0
  3  4  2  0
  3  8  1  0
  1  4  1  0
  2  5  1  0
  1  6  2  0
  7  9  1  0
  6  8  1  0
  9 11  1  0
  9 31  1  0
  2 10  2  0
  5 11  1  0
  6 12  1  0
  7 13  1  0
 14 18  1  0
 14 15  2  0
  4 16  1  0
 12 17  2  0
 10 17  1  0
 13 18  1  0
  7 19  2  0
 20 23  2  0
 15 20  1  0
 16 21  2  0
 16 22  1  0
 23 25  1  0
  5 24  1  0
 18 25  2  0
 26 28  1  0
 15 27  1  0
 22 28  2  0
 21 29  1  0
 26 29  2  0
 26 30  1  0
 31 33  1  0
 20 32  1  0
 24 33  1  0
 27 34  1  0
 32 35  1  0
M  END
>  <IDNUMBER>  (187) 
E945-0015

>  <available>  (187) 
134

>  <H_acceptor>  (187) 
8

>  <H_donor>  (187) 
1

>  <B_rotN>  (187) 
7

>  <N_O>  (187) 
9

>  <logP>  (187) 
3.3318

>  <logD>  (187) 
3.3315

>  <logSw>  (187) 
-3.7777

>  <PSA>  (187) 
83.82

>  <pKa_ma>  (187) 
10.5658

>  <pKa_mb>  (187) 
2.7118

>  <N_Chirals>  (187) 
1

>  <Name>  (187) 
N-(3,4-dimethoxyphenyl)-1-[3-(4-fluorophenyl)[1,2]oxazolo[5,4-d]pyrimidin-4-yl]piperidine-3-carboxamide

>  <Smile>  (187) 
COc(ccc(NC(C(CCC1)CN1c1c(c(-c(cc2)ccc2F)no2)c2ncn1)=O)c1)c1OC

>  <Color>  (187) 
NOT COLORED

>  <Collection>  (187) 
DC

>  <InChI>  (187) 
InChI=1S/C25H24FN5O4/c1-33-19-10-9-18(12-20(19)34-2)29-24(32)16-4-3-11-31(13-16)23-21-22(15-5-7-17(26)8-6-15)30-35-25(21)28-14-27-23/h5-10,12,14,16H,3-4,11,13H2,1-2H3,(H,29,32)/t16-/m0/s1

>  <InChI Key>  (187) 
HKWRDAZQQICVOQ-INIZCTEOSA-N

>  <PERCENTSP3>  (187) 
28

>  <Link>  (187) 
https://www.chemdiv.com/catalog/screening-compounds/compound-E945-0015/

>  <MFCDNUMBER>  (187) 
MFCD14929268

>  <CLNUMBER>  (187) 
CL5510B

>  <STEREO>  (187) 
RACEMIC MIXTURE

>  <State>  (187) 
Solid

>  <Similarity score>  (187) 
0.21

$$$$
N-butyl-N-ethyl-2,2-dimethyl-5-phenyl-1,4-dihydro-2H-pyrano[4'',3'':4',5']pyrido
     RDKit          2D

 32 36  0  0  0  0  0  0  0  0999 V2000
    0.2530    1.6563    0.0000 C   0  0  0  0  0  0  0  0  0  0  0  0
   -1.0271    0.6944    0.0000 C   0  0  0  0  0  0  0  0  0  0  0  0
   -0.1809    0.1737    0.0000 C   0  0  0  0  0  0  0  0  0  0  0  0
    0.6292    0.6944    0.0000 S   0  0  0  0  0  0  0  0  0  0  0  0
   -0.7594    1.6489    0.0000 C   0  0  0  0  0  0  0  0  0  0  0  0
   -1.8948    0.1808    0.0000 C   0  0  0  0  0  0  0  0  0  0  0  0
   -0.1809   -0.7808    0.0000 N   0  0  0  0  0  0  0  0  0  0  0  0
   -1.8948   -0.8243    0.0000 C   0  0  0  0  0  0  0  0  0  0  0  0
    0.6870    2.6034    0.0000 C   0  0  0  0  0  0  0  0  0  0  0  0
   -1.0271   -1.3017    0.0000 C   0  0  0  0  0  0  0  0  0  0  0  0
    0.1661    3.3845    0.0000 N   0  0  0  0  0  0  0  0  0  0  0  0
   -2.7625   -1.3017    0.0000 C   0  0  0  0  0  0  0  0  0  0  0  0
   -1.3091    2.4950    0.0000 N   0  0  0  0  0  0  0  0  0  0  0  0
   -3.6306   -0.7808    0.0000 O   0  0  0  0  0  0  0  0  0  0  0  0
   -2.7625    0.6944    0.0000 C   0  0  0  0  0  0  0  0  0  0  0  0
    1.6922    2.6034    0.0000 N   0  0  0  0  0  0  0  0  0  0  0  0
   -3.6306    0.1808    0.0000 C   0  0  0  0  0  0  0  0  0  0  0  0
   -0.8460    3.3845    0.0000 C   0  0  0  0  0  0  0  0  0  0  0  0
   -1.0271   -2.2998    0.0000 C   0  0  0  0  0  0  0  0  0  0  0  0
    2.1911    3.4279    0.0000 C   0  0  0  0  0  0  0  0  0  0  0  0
    2.1911    1.7646    0.0000 C   0  0  0  0  0  0  0  0  0  0  0  0
   -4.0571    1.1571    0.0000 C   0  0  0  0  0  0  0  0  0  0  0  0
   -4.7296    0.1808    0.0000 C   0  0  0  0  0  0  0  0  0  0  0  0
   -1.8948   -2.7988    0.0000 C   0  0  0  0  0  0  0  0  0  0  0  0
   -0.1809   -2.7988    0.0000 C   0  0  0  0  0  0  0  0  0  0  0  0
    3.2110    1.7646    0.0000 C   0  0  0  0  0  0  0  0  0  0  0  0
    3.7462    0.8969    0.0000 C   0  0  0  0  0  0  0  0  0  0  0  0
    1.7284    4.2957    0.0000 C   0  0  0  0  0  0  0  0  0  0  0  0
    4.7296    0.8969    0.0000 C   0  0  0  0  0  0  0  0  0  0  0  0
   -0.1809   -3.7895    0.0000 C   0  0  0  0  0  0  0  0  0  0  0  0
   -1.8948   -3.7895    0.0000 C   0  0  0  0  0  0  0  0  0  0  0  0
   -1.0271   -4.2957    0.0000 C   0  0  0  0  0  0  0  0  0  0  0  0
  2  5  1  0
  3  4  1  0
  2  3  2  0
  1  4  1  0
  1  5  2  0
  2  6  1  0
  3  7  1  0
  6  8  2  0
  1  9  1  0
  7 10  2  0
  8 10  1  0
  9 11  2  0
  8 12  1  0
 12 14  1  0
  5 13  1  0
 14 17  1  0
  6 15  1  0
  9 16  1  0
 15 17  1  0
 11 18  1  0
 13 18  2  0
 10 19  1  0
 16 20  1  0
 16 21  1  0
 17 22  1  0
 17 23  1  0
 19 24  2  0
 19 25  1  0
 21 26  1  0
 26 27  1  0
 20 28  1  0
 27 29  1  0
 25 30  2  0
 24 31  1  0
 31 32  2  0
 30 32  1  0
M  END
>  <IDNUMBER>  (188) 
8640-0590

>  <available>  (188) 
103

>  <H_acceptor>  (188) 
4

>  <H_donor>  (188) 
0

>  <B_rotN>  (188) 
6

>  <N_O>  (188) 
5

>  <logP>  (188) 
7.0232

>  <logD>  (188) 
7.0207

>  <logSw>  (188) 
-6.0991

>  <PSA>  (188) 
41.294

>  <pKa_ma>  (188) 
20.2862

>  <pKa_mb>  (188) 
5.1653

>  <N_Chirals>  (188) 
0

>  <Name>  (188) 
N-butyl-N-ethyl-2,2-dimethyl-5-phenyl-1,4-dihydro-2H-pyrano[4'',3'':4',5']pyrido[3',2':4,5]thieno[3,2-d]pyrimidin-8-amine

>  <Smile>  (188) 
CCCCN(CC)c1c2sc3nc(-c4ccccc4)c(COC(C)(C)C4)c4c3c2ncn1

>  <Color>  (188) 
NOT COLORED

>  <Collection>  (188) 
DC

>  <InChI>  (188) 
InChI=1S/C26H30N4OS/c1-5-7-13-30(6-2)24-23-22(27-16-28-24)20-18-14-26(3,4)31-15-19(18)21(29-25(20)32-23)17-11-9-8-10-12-17/h8-12,16H,5-7,13-15H2,1-4H3

>  <InChI Key>  (188) 
QWHXOLGXBSLBRV-UHFFFAOYSA-N

>  <PERCENTSP3>  (188) 
42.3

>  <Link>  (188) 
https://www.chemdiv.com/catalog/screening-compounds/compound-8640-0590/

>  <MFCDNUMBER>  (188) 
MFCD01879936

>  <CLNUMBER>  (188) 
CL1547

>  <STEREO>  (188) 
ACHIRAL

>  <State>  (188) 
Solid

>  <Similarity score>  (188) 
0.21

$$$$
N~1~-ethyl-N~1~-[2-(4-methoxyphenyl)quinazolin-4-yl]-N~2~,N~2~-dimethylethane-1,
     RDKit          2D

 26 28  0  0  0  0  0  0  0  0999 V2000
    0.4450    0.5099    0.0000 N   0  0  0  0  0  0  0  0  0  0  0  0
   -0.4251    1.0001    0.0000 C   0  0  0  0  0  0  0  0  0  0  0  0
    0.4450   -0.5000    0.0000 C   0  0  0  0  0  0  0  0  0  0  0  0
   -1.2848    0.5099    0.0000 C   0  0  0  0  0  0  0  0  0  0  0  0
   -0.4251   -0.9901    0.0000 N   0  0  0  0  0  0  0  0  0  0  0  0
   -1.2848   -0.5000    0.0000 C   0  0  0  0  0  0  0  0  0  0  0  0
   -0.4251    2.0096    0.0000 N   0  0  0  0  0  0  0  0  0  0  0  0
    1.2949   -0.9901    0.0000 C   0  0  0  0  0  0  0  0  0  0  0  0
   -1.2949    2.5194    0.0000 C   0  0  0  0  0  0  0  0  0  0  0  0
    1.2949   -1.9997    0.0000 C   0  0  0  0  0  0  0  0  0  0  0  0
    2.1649   -0.5000    0.0000 C   0  0  0  0  0  0  0  0  0  0  0  0
   -3.0246    2.5194    0.0000 N   0  0  0  0  0  0  0  0  0  0  0  0
   -2.1547    2.0096    0.0000 C   0  0  0  0  0  0  0  0  0  0  0  0
    3.0246   -1.9997    0.0000 C   0  0  0  0  0  0  0  0  0  0  0  0
    3.0347   -0.9901    0.0000 C   0  0  0  0  0  0  0  0  0  0  0  0
    2.1547   -2.4899    0.0000 C   0  0  0  0  0  0  0  0  0  0  0  0
   -2.1547    1.0001    0.0000 C   0  0  0  0  0  0  0  0  0  0  0  0
    3.8946   -2.5096    0.0000 O   0  0  0  0  0  0  0  0  0  0  0  0
   -2.1547   -0.9901    0.0000 C   0  0  0  0  0  0  0  0  0  0  0  0
    0.4251    2.5194    0.0000 C   0  0  0  0  0  0  0  0  0  0  0  0
   -3.0246    3.5096    0.0000 C   0  0  0  0  0  0  0  0  0  0  0  0
   -3.8946    2.0096    0.0000 C   0  0  0  0  0  0  0  0  0  0  0  0
    3.8747   -3.5096    0.0000 C   0  0  0  0  0  0  0  0  0  0  0  0
   -3.0246    0.5099    0.0000 C   0  0  0  0  0  0  0  0  0  0  0  0
    0.4251    3.5096    0.0000 C   0  0  0  0  0  0  0  0  0  0  0  0
   -3.0246   -0.5000    0.0000 C   0  0  0  0  0  0  0  0  0  0  0  0
  1  2  2  0
  1  3  1  0
  2  4  1  0
  3  5  2  0
  5  6  1  0
  4  6  1  0
  2  7  1  0
  3  8  1  0
  7  9  1  0
  8 10  2  0
  8 11  1  0
 12 13  1  0
  9 13  1  0
 14 15  1  0
 14 16  2  0
 11 15  2  0
 10 16  1  0
  4 17  2  0
 14 18  1  0
  6 19  2  0
  7 20  1  0
 12 21  1  0
 12 22  1  0
 18 23  1  0
 17 24  1  0
 20 25  1  0
 19 26  1  0
 24 26  2  0
M  END
>  <IDNUMBER>  (189) 
G516-0229

>  <available>  (189) 
4

>  <H_acceptor>  (189) 
4

>  <H_donor>  (189) 
0

>  <B_rotN>  (189) 
7

>  <N_O>  (189) 
5

>  <logP>  (189) 
4.8694

>  <logD>  (189) 
3.4101

>  <logSw>  (189) 
-4.7617

>  <PSA>  (189) 
32.585

>  <pKa_ma>  (189) 
22.1068

>  <pKa_mb>  (189) 
8.844

>  <N_Chirals>  (189) 
0

>  <Name>  (189) 
N~1~-ethyl-N~1~-[2-(4-methoxyphenyl)quinazolin-4-yl]-N~2~,N~2~-dimethylethane-1,2-diamine

>  <Smile>  (189) 
CCN(CCN(C)C)c1nc(-c(cc2)ccc2OC)nc2ccccc12

>  <Color>  (189) 
ORANGE

>  <Collection>  (189) 
NC

>  <InChI>  (189) 
InChI=1S/C21H26N4O/c1-5-25(15-14-24(2)3)21-18-8-6-7-9-19(18)22-20(23-21)16-10-12-17(26-4)13-11-16/h6-13H,5,14-15H2,1-4H3

>  <InChI Key>  (189) 
BLAVOJAVSGXGGK-UHFFFAOYSA-N

>  <PERCENTSP3>  (189) 
33.3

>  <Link>  (189) 
https://www.chemdiv.com/catalog/screening-compounds/compound-G516-0229/

>  <MFCDNUMBER>  (189) 
MFCD15015063

>  <CLNUMBER>  (189) 
CL2243

>  <STEREO>  (189) 
ACHIRAL

>  <State>  (189) 
Solid

>  <Similarity score>  (189) 
0.21

$$$$
2-(3,4-dihydroisoquinolin-2(1H)-yl)-5-(4-hydroxy-6-methyl-2-oxo-2H-pyran-3-yl)py
     RDKit          2D

 30 34  0  0  0  0  0  0  0  0999 V2000
    0.0146    1.7650    0.0000 C   0  0  0  0  0  0  0  0  0  0  0  0
   -0.8607    2.2652    0.0000 N   0  0  0  0  0  0  0  0  0  0  0  0
   -2.5860   -0.7356    0.0000 C   0  0  0  0  0  0  0  0  0  0  0  0
    0.0146    0.7649    0.0000 N   0  0  0  0  0  0  0  0  0  0  0  0
   -1.7109    0.7649    0.0000 C   0  0  0  0  0  0  0  0  0  0  0  0
   -0.8607    0.2688    0.0000 C   0  0  0  0  0  0  0  0  0  0  0  0
   -1.7109    1.7650    0.0000 C   0  0  0  0  0  0  0  0  0  0  0  0
   -1.7025   -1.2441    0.0000 C   0  0  0  0  0  0  0  0  0  0  0  0
   -3.4612   -1.2481    0.0000 C   0  0  0  0  0  0  0  0  0  0  0  0
   -2.5860    0.2688    0.0000 C   0  0  0  0  0  0  0  0  0  0  0  0
    0.8772    2.2652    0.0000 N   0  0  0  0  0  0  0  0  0  0  0  0
   -3.4612   -2.2527    0.0000 C   0  0  0  0  0  0  0  0  0  0  0  0
   -1.7067   -2.2568    0.0000 O   0  0  0  0  0  0  0  0  0  0  0  0
   -2.5902   -2.7571    0.0000 C   0  0  0  0  0  0  0  0  0  0  0  0
    1.7441    1.7650    0.0000 C   0  0  0  0  0  0  0  0  0  0  0  0
   -2.5860    2.2652    0.0000 N   0  0  0  0  0  0  0  0  0  0  0  0
    2.5985    2.2652    0.0000 C   0  0  0  0  0  0  0  0  0  0  0  0
   -0.8607   -0.7356    0.0000 O   0  0  0  0  0  0  0  0  0  0  0  0
   -0.7065   -1.2357    0.0000 O   0  0  0  0  0  0  0  0  0  0  0  0
    0.8689    3.2653    0.0000 C   0  0  0  0  0  0  0  0  0  0  0  0
    2.6028    3.2653    0.0000 C   0  0  0  0  0  0  0  0  0  0  0  0
   -4.3197   -0.7439    0.0000 O   0  0  0  0  0  0  0  0  0  0  0  0
    1.7441    3.7530    0.0000 C   0  0  0  0  0  0  0  0  0  0  0  0
   -3.4488    0.7649    0.0000 C   0  0  0  0  0  0  0  0  0  0  0  0
   -3.4488    1.7650    0.0000 C   0  0  0  0  0  0  0  0  0  0  0  0
   -2.5986   -3.7530    0.0000 C   0  0  0  0  0  0  0  0  0  0  0  0
    3.4612    1.7692    0.0000 C   0  0  0  0  0  0  0  0  0  0  0  0
    3.4612    3.7530    0.0000 C   0  0  0  0  0  0  0  0  0  0  0  0
    4.3197    2.2652    0.0000 C   0  0  0  0  0  0  0  0  0  0  0  0
    4.3197    3.2653    0.0000 C   0  0  0  0  0  0  0  0  0  0  0  0
  1  2  2  0
  3 10  1  0
  1  4  1  0
  5  6  1  0
  4  6  1  0
  2  7  1  0
  5  7  2  0
  3  8  1  0
  3  9  2  0
  5 10  1  0
  1 11  1  0
  9 12  1  0
  8 13  1  0
 13 14  1  0
 12 14  2  0
 11 15  1  0
  7 16  1  0
 15 17  1  0
 17 21  2  0
  6 18  2  0
  8 19  2  0
 11 20  1  0
 21 23  1  0
  9 22  1  0
 20 23  1  0
 10 24  2  0
 16 25  2  0
 24 25  1  0
 14 26  1  0
 17 27  1  0
 21 28  1  0
 27 29  2  0
 29 30  1  0
 28 30  2  0
M  END
>  <IDNUMBER>  (190) 
8019-9781

>  <available>  (190) 
30

>  <H_acceptor>  (190) 
8

>  <H_donor>  (190) 
2

>  <B_rotN>  (190) 
2

>  <N_O>  (190) 
8

>  <logP>  (190) 
2.377

>  <logD>  (190) 
-2.1034

>  <logSw>  (190) 
-3.0286

>  <PSA>  (190) 
84.875

>  <pKa_ma>  (190) 
2.9196

>  <pKa_mb>  (190) 
0.78

>  <N_Chirals>  (190) 
0

>  <Name>  (190) 
2-(3,4-dihydroisoquinolin-2(1H)-yl)-5-(4-hydroxy-6-methyl-2-oxo-2H-pyran-3-yl)pyrido[2,3-d]pyrimidin-4(3H)-one

>  <Smile>  (190) 
CC(O1)=CC(O)=C(c2c(C(NC(N(CC3)Cc4c3cccc4)=N3)=O)c3ncc2)C1=O

>  <Color>  (190) 
YELLOW

>  <Collection>  (190) 
DC

>  <InChI>  (190) 
InChI=1S/C22H18N4O4/c1-12-10-16(27)17(21(29)30-12)15-6-8-23-19-18(15)20(28)25-22(24-19)26-9-7-13-4-2-3-5-14(13)11-26/h2-6,8,10,27H,7,9,11H2,1H3,(H,23,24,25,28)

>  <InChI Key>  (190) 
JLNMYQLZZCOOIU-UHFFFAOYSA-N

>  <PERCENTSP3>  (190) 
18.2

>  <Link>  (190) 
https://www.chemdiv.com/catalog/screening-compounds/compound-8019-9781/

>  <MFCDNUMBER>  (190) 
MFCD11081577

>  <STEREO>  (190) 
ACHIRAL

>  <State>  (190) 
Solid

>  <Similarity score>  (190) 
0.21

$$$$
2-[2-amino-5-(4-methoxyphenoxy)pyrimidin-4-yl]-5-[(2-fluorophenyl)methoxy]phenol
     RDKit          2D

 32 35  0  0  0  0  0  0  0  0999 V2000
    1.3021   -1.0062    0.0000 C   0  0  0  0  0  0  0  0  0  0  0  0
    0.4396   -0.5060    0.0000 C   0  0  0  0  0  0  0  0  0  0  0  0
    1.3021   -2.0061    0.0000 N   0  0  0  0  0  0  0  0  0  0  0  0
    2.1687   -0.4935    0.0000 C   0  0  0  0  0  0  0  0  0  0  0  0
    2.1687   -2.5060    0.0000 C   0  0  0  0  0  0  0  0  0  0  0  0
   -0.4147   -0.9938    0.0000 C   0  0  0  0  0  0  0  0  0  0  0  0
    3.0393   -2.0061    0.0000 N   0  0  0  0  0  0  0  0  0  0  0  0
    0.4396    0.5064    0.0000 C   0  0  0  0  0  0  0  0  0  0  0  0
    2.1687    0.5064    0.0000 O   0  0  0  0  0  0  0  0  0  0  0  0
   -1.2895   -0.5060    0.0000 C   0  0  0  0  0  0  0  0  0  0  0  0
    3.0393   -0.9938    0.0000 C   0  0  0  0  0  0  0  0  0  0  0  0
   -3.8851    0.9895    0.0000 C   0  0  0  0  0  0  0  0  0  0  0  0
   -4.7474    0.4897    0.0000 C   0  0  0  0  0  0  0  0  0  0  0  0
   -3.0145    0.4937    0.0000 C   0  0  0  0  0  0  0  0  0  0  0  0
   -1.2895    0.5064    0.0000 C   0  0  0  0  0  0  0  0  0  0  0  0
   -2.1520    0.9938    0.0000 O   0  0  0  0  0  0  0  0  0  0  0  0
    2.1687   -3.5059    0.0000 N   0  0  0  0  0  0  0  0  0  0  0  0
    3.0312    1.0062    0.0000 C   0  0  0  0  0  0  0  0  0  0  0  0
   -0.4229    1.0062    0.0000 C   0  0  0  0  0  0  0  0  0  0  0  0
   -0.4147   -1.9937    0.0000 O   0  0  0  0  0  0  0  0  0  0  0  0
   -4.7432   -0.5102    0.0000 F   0  0  0  0  0  0  0  0  0  0  0  0
    4.7558    2.0061    0.0000 C   0  0  0  0  0  0  0  0  0  0  0  0
    3.8933    0.5064    0.0000 C   0  0  0  0  0  0  0  0  0  0  0  0
    3.0270    1.9937    0.0000 C   0  0  0  0  0  0  0  0  0  0  0  0
    3.8766    2.5060    0.0000 C   0  0  0  0  0  0  0  0  0  0  0  0
    4.7558    1.0062    0.0000 C   0  0  0  0  0  0  0  0  0  0  0  0
    5.6224    2.5060    0.0000 O   0  0  0  0  0  0  0  0  0  0  0  0
   -3.8933    1.9937    0.0000 C   0  0  0  0  0  0  0  0  0  0  0  0
   -5.6099    0.9813    0.0000 C   0  0  0  0  0  0  0  0  0  0  0  0
    5.6224    3.5059    0.0000 C   0  0  0  0  0  0  0  0  0  0  0  0
   -4.7557    2.4895    0.0000 C   0  0  0  0  0  0  0  0  0  0  0  0
   -5.6224    1.9896    0.0000 C   0  0  0  0  0  0  0  0  0  0  0  0
  1  2  1  0
  1  3  2  0
  1  4  1  0
  3  5  1  0
  2  6  1  0
  7 11  1  0
  5  7  2  0
  2  8  2  0
  4  9  1  0
  6 10  2  0
  4 11  2  0
 12 14  1  0
 12 13  1  0
 14 16  1  0
 15 19  2  0
 10 15  1  0
 15 16  1  0
  5 17  1  0
  9 18  1  0
  8 19  1  0
  6 20  1  0
 13 21  1  0
 22 25  1  0
 22 26  2  0
 18 23  2  0
 18 24  1  0
 24 25  2  0
 23 26  1  0
 22 27  1  0
 12 28  2  0
 13 29  2  0
 29 32  1  0
 27 30  1  0
 28 31  1  0
 31 32  2  0
M  END
>  <IDNUMBER>  (191) 
Y041-2587

>  <available>  (191) 
11

>  <H_acceptor>  (191) 
6

>  <H_donor>  (191) 
3

>  <B_rotN>  (191) 
7

>  <N_O>  (191) 
7

>  <logP>  (191) 
5.1784

>  <logD>  (191) 
5.1782

>  <logSw>  (191) 
-4.9401

>  <PSA>  (191) 
78.45

>  <pKa_ma>  (191) 
10.8368

>  <pKa_mb>  (191) 
6.9011

>  <N_Chirals>  (191) 
0

>  <Name>  (191) 
2-[2-amino-5-(4-methoxyphenoxy)pyrimidin-4-yl]-5-[(2-fluorophenyl)methoxy]phenol

>  <Smile>  (191) 
COc(cc1)ccc1Oc1cnc(N)nc1-c(ccc(OCc(cccc1)c1F)c1)c1O

>  <Color>  (191) 
YELLOW

>  <Collection>  (191) 
DC

>  <InChI>  (191) 
InChI=1S/C24H20FN3O4/c1-30-16-6-8-17(9-7-16)32-22-13-27-24(26)28-23(22)19-11-10-18(12-21(19)29)31-14-15-4-2-3-5-20(15)25/h2-13,29H,14H2,1H3,(H2,26,27,28)

>  <InChI Key>  (191) 
CUPXDNFHZWONLZ-UHFFFAOYSA-N

>  <PERCENTSP3>  (191) 
8.3

>  <Link>  (191) 
https://www.chemdiv.com/catalog/screening-compounds/compound-Y041-2587/

>  <MFCDNUMBER>  (191) 
MFCD05705931

>  <STEREO>  (191) 
ACHIRAL

>  <State>  (191) 
Solid

>  <Similarity score>  (191) 
0.21

$$$$
4-bromo-2-(1-ethyl-7,8-dimethoxy-3-phenyl-3H-pyrazolo[3,4-c]isoquinolin-5-yl)phe
     RDKit          2D

 33 37  0  0  0  0  0  0  0  0999 V2000
    0.7506    0.7077    0.0000 C   0  0  0  0  0  0  0  0  0  0  0  0
    1.5010    1.3725    0.0000 N   0  0  0  0  0  0  0  0  0  0  0  0
   -0.1258    1.2113    0.0000 C   0  0  0  0  0  0  0  0  0  0  0  0
    1.0982    2.2842    0.0000 N   0  0  0  0  0  0  0  0  0  0  0  0
   -0.1258   -0.7983    0.0000 C   0  0  0  0  0  0  0  0  0  0  0  0
    0.7506   -0.2997    0.0000 N   0  0  0  0  0  0  0  0  0  0  0  0
   -0.9772    0.7077    0.0000 C   0  0  0  0  0  0  0  0  0  0  0  0
    0.0957    2.1885    0.0000 C   0  0  0  0  0  0  0  0  0  0  0  0
   -0.9772   -0.2997    0.0000 C   0  0  0  0  0  0  0  0  0  0  0  0
   -0.1258   -1.7858    0.0000 C   0  0  0  0  0  0  0  0  0  0  0  0
   -1.8385    1.1963    0.0000 C   0  0  0  0  0  0  0  0  0  0  0  0
   -1.8385   -0.7983    0.0000 C   0  0  0  0  0  0  0  0  0  0  0  0
   -2.6947   -0.2997    0.0000 C   0  0  0  0  0  0  0  0  0  0  0  0
   -2.6947    0.7077    0.0000 C   0  0  0  0  0  0  0  0  0  0  0  0
    0.7506   -2.2942    0.0000 C   0  0  0  0  0  0  0  0  0  0  0  0
    2.4731    1.1509    0.0000 C   0  0  0  0  0  0  0  0  0  0  0  0
   -0.9922   -2.2942    0.0000 C   0  0  0  0  0  0  0  0  0  0  0  0
    0.7355   -3.2968    0.0000 C   0  0  0  0  0  0  0  0  0  0  0  0
   -0.9922   -3.2817    0.0000 C   0  0  0  0  0  0  0  0  0  0  0  0
   -0.5691    2.9439    0.0000 C   0  0  0  0  0  0  0  0  0  0  0  0
   -3.5711    1.1963    0.0000 O   0  0  0  0  0  0  0  0  0  0  0  0
   -3.5711   -0.8035    0.0000 O   0  0  0  0  0  0  0  0  0  0  0  0
   -0.1258   -3.7954    0.0000 C   0  0  0  0  0  0  0  0  0  0  0  0
    1.6069   -1.8008    0.0000 O   0  0  0  0  0  0  0  0  0  0  0  0
   -1.8636   -3.7804    0.0000 Br  0  0  0  0  0  0  0  0  0  0  0  0
    2.7754    0.1939    0.0000 C   0  0  0  0  0  0  0  0  0  0  0  0
    3.1532    1.9015    0.0000 C   0  0  0  0  0  0  0  0  0  0  0  0
   -4.4376   -0.2997    0.0000 C   0  0  0  0  0  0  0  0  0  0  0  0
   -4.4376    0.7077    0.0000 C   0  0  0  0  0  0  0  0  0  0  0  0
   -0.0704    3.7954    0.0000 C   0  0  0  0  0  0  0  0  0  0  0  0
    4.1204    1.6746    0.0000 C   0  0  0  0  0  0  0  0  0  0  0  0
    3.7578   -0.0126    0.0000 C   0  0  0  0  0  0  0  0  0  0  0  0
    4.4376    0.7126    0.0000 C   0  0  0  0  0  0  0  0  0  0  0  0
  1  2  1  0
  1  3  2  0
  2  4  1  0
  4  8  2  0
  5  6  2  0
  1  6  1  0
  3  7  1  0
  3  8  1  0
  5  9  1  0
  7  9  1  0
  5 10  1  0
  7 11  2  0
  9 12  2  0
 12 13  1  0
 13 14  2  0
 11 14  1  0
 10 15  1  0
  2 16  1  0
 10 17  2  0
 15 18  2  0
 17 19  1  0
  8 20  1  0
 14 21  1  0
 13 22  1  0
 19 23  2  0
 18 23  1  0
 15 24  1  0
 19 25  1  0
 16 26  2  0
 16 27  1  0
 22 28  1  0
 21 29  1  0
 20 30  1  0
 27 31  2  0
 26 32  1  0
 32 33  2  0
 31 33  1  0
M  END
>  <IDNUMBER>  (192) 
4116-0077

>  <available>  (192) 
29

>  <H_acceptor>  (192) 
5

>  <H_donor>  (192) 
1

>  <B_rotN>  (192) 
5

>  <N_O>  (192) 
6

>  <logP>  (192) 
6.7506

>  <logD>  (192) 
6.7433

>  <logSw>  (192) 
-6.0776

>  <PSA>  (192) 
56.359

>  <pKa_ma>  (192) 
9.2065

>  <pKa_mb>  (192) 
4.5628

>  <N_Chirals>  (192) 
0

>  <Name>  (192) 
4-bromo-2-(1-ethyl-7,8-dimethoxy-3-phenyl-3H-pyrazolo[3,4-c]isoquinolin-5-yl)phenol

>  <Smile>  (192) 
CCc(c(c(c1c2)cc(OC)c2OC)c2nc1-c(cc(cc1)Br)c1O)nn2-c1ccccc1

>  <Color>  (192) 
YELLOW

>  <Collection>  (192) 
DC

>  <InChI>  (192) 
InChI=1S/C26H22BrN3O3/c1-4-20-24-17-13-22(32-2)23(33-3)14-18(17)25(19-12-15(27)10-11-21(19)31)28-26(24)30(29-20)16-8-6-5-7-9-16/h5-14,31H,4H2,1-3H3

>  <InChI Key>  (192) 
PZUFEVKZQKVTLH-UHFFFAOYSA-N

>  <PERCENTSP3>  (192) 
15.4

>  <Link>  (192) 
https://www.chemdiv.com/catalog/screening-compounds/compound-4116-0077/

>  <MFCDNUMBER>  (192) 
MFCD01850555

>  <CLNUMBER>  (192) 
CL1506

>  <STEREO>  (192) 
ACHIRAL

>  <State>  (192) 
Solid

>  <Similarity score>  (192) 
0.21

$$$$
1-[3-(4-fluorophenyl)[1,2]oxazolo[5,4-d]pyrimidin-4-yl]-N-[(2-methoxyphenyl)meth
     RDKit          2D

 34 38  0  0  0  0  0  0  0  0999 V2000
   -1.5833   -1.7263    0.0000 C   0  0  0  0  0  0  0  0  0  0  0  0
   -0.8131   -1.0821    0.0000 C   0  0  0  0  0  0  0  0  0  0  0  0
   -3.0178   -2.4865    0.0000 N   0  0  0  0  0  0  0  0  0  0  0  0
   -2.5748   -1.5805    0.0000 C   0  0  0  0  0  0  0  0  0  0  0  0
   -0.9892   -0.0956    0.0000 N   0  0  0  0  0  0  0  0  0  0  0  0
   -1.4119   -2.7133    0.0000 C   0  0  0  0  0  0  0  0  0  0  0  0
   -2.2927   -3.1662    0.0000 O   0  0  0  0  0  0  0  0  0  0  0  0
   -0.3903    1.5454    0.0000 C   0  0  0  0  0  0  0  0  0  0  0  0
    0.3699    2.1847    0.0000 C   0  0  0  0  0  0  0  0  0  0  0  0
    0.1284   -1.4295    0.0000 N   0  0  0  0  0  0  0  0  0  0  0  0
   -0.2191    0.5486    0.0000 C   0  0  0  0  0  0  0  0  0  0  0  0
   -0.4758   -3.0555    0.0000 N   0  0  0  0  0  0  0  0  0  0  0  0
    1.3061    1.8525    0.0000 N   0  0  0  0  0  0  0  0  0  0  0  0
   -3.2543   -0.8254    0.0000 C   0  0  0  0  0  0  0  0  0  0  0  0
    0.2793   -2.4111    0.0000 C   0  0  0  0  0  0  0  0  0  0  0  0
    2.9019    1.1979    0.0000 C   0  0  0  0  0  0  0  0  0  0  0  0
    2.2978    1.9832    0.0000 C   0  0  0  0  0  0  0  0  0  0  0  0
    0.1888    3.1662    0.0000 O   0  0  0  0  0  0  0  0  0  0  0  0
    3.8885    1.3239    0.0000 C   0  0  0  0  0  0  0  0  0  0  0  0
   -4.2358   -1.0369    0.0000 C   0  0  0  0  0  0  0  0  0  0  0  0
   -2.9373    0.1158    0.0000 C   0  0  0  0  0  0  0  0  0  0  0  0
   -1.9255    0.2467    0.0000 C   0  0  0  0  0  0  0  0  0  0  0  0
   -4.5983    0.6695    0.0000 C   0  0  0  0  0  0  0  0  0  0  0  0
   -4.9003   -0.2918    0.0000 C   0  0  0  0  0  0  0  0  0  0  0  0
   -3.6017    0.8508    0.0000 C   0  0  0  0  0  0  0  0  0  0  0  0
   -5.2627    1.4144    0.0000 F   0  0  0  0  0  0  0  0  0  0  0  0
   -1.3264    1.8776    0.0000 C   0  0  0  0  0  0  0  0  0  0  0  0
    4.2659    2.2551    0.0000 O   0  0  0  0  0  0  0  0  0  0  0  0
   -2.1066    1.2433    0.0000 C   0  0  0  0  0  0  0  0  0  0  0  0
    2.5294    0.2770    0.0000 C   0  0  0  0  0  0  0  0  0  0  0  0
    4.5026    0.5335    0.0000 C   0  0  0  0  0  0  0  0  0  0  0  0
    5.2627    2.3911    0.0000 C   0  0  0  0  0  0  0  0  0  0  0  0
    3.1335   -0.5185    0.0000 C   0  0  0  0  0  0  0  0  0  0  0  0
    4.1250   -0.3825    0.0000 C   0  0  0  0  0  0  0  0  0  0  0  0
  1  2  1  0
  3  4  2  0
  3  7  1  0
  1  4  1  0
  2  5  1  0
  1  6  2  0
  6  7  1  0
  8 11  1  0
  8 27  1  0
  8  9  1  0
  2 10  2  0
  5 11  1  0
  6 12  1  0
  9 13  1  0
  4 14  1  0
 12 15  2  0
 10 15  1  0
 16 17  1  0
 13 17  1  0
  9 18  2  0
 16 19  2  0
 14 20  1  0
 14 21  2  0
  5 22  1  0
 23 25  2  0
 20 24  2  0
 23 24  1  0
 21 25  1  0
 23 26  1  0
 27 29  1  0
 19 28  1  0
 22 29  1  0
 16 30  1  0
 19 31  1  0
 31 34  2  0
 28 32  1  0
 30 33  2  0
 33 34  1  0
M  END
>  <IDNUMBER>  (193) 
E945-0031

>  <available>  (193) 
92

>  <H_acceptor>  (193) 
7

>  <H_donor>  (193) 
1

>  <B_rotN>  (193) 
7

>  <N_O>  (193) 
8

>  <logP>  (193) 
3.707

>  <logD>  (193) 
3.707

>  <logSw>  (193) 
-4.117

>  <PSA>  (193) 
77.512

>  <pKa_ma>  (193) 
12.356

>  <pKa_mb>  (193) 
2.7118

>  <N_Chirals>  (193) 
1

>  <Name>  (193) 
1-[3-(4-fluorophenyl)[1,2]oxazolo[5,4-d]pyrimidin-4-yl]-N-[(2-methoxyphenyl)methyl]piperidine-3-carboxamide

>  <Smile>  (193) 
COc1c(CNC(C(CCC2)CN2c2c(c(-c(cc3)ccc3F)no3)c3ncn2)=O)cccc1

>  <Color>  (193) 
NOT COLORED

>  <Collection>  (193) 
DC

>  <InChI>  (193) 
InChI=1S/C25H24FN5O3/c1-33-20-7-3-2-5-17(20)13-27-24(32)18-6-4-12-31(14-18)23-21-22(16-8-10-19(26)11-9-16)30-34-25(21)29-15-28-23/h2-3,5,7-11,15,18H,4,6,12-14H2,1H3,(H,27,32)/t18-/m0/s1

>  <InChI Key>  (193) 
SHSIPZBIJIMRLZ-SFHVURJKSA-N

>  <PERCENTSP3>  (193) 
28

>  <Link>  (193) 
https://www.chemdiv.com/catalog/screening-compounds/compound-E945-0031/

>  <MFCDNUMBER>  (193) 
MFCD14929275

>  <CLNUMBER>  (193) 
CL5510B

>  <STEREO>  (193) 
RACEMIC MIXTURE

>  <State>  (193) 
Solid

>  <Similarity score>  (193) 
0.21

$$$$
2-phenyl-4-(1,3,3-trimethyl-6-azabicyclo[3.2.1]octan-6-yl)quinazoline
     RDKit          2D

 27 31  0  0  0  0  0  0  0  0999 V2000
   -0.4497   -0.2755    0.0000 C   0  0  0  0  0  0  0  0  0  0  0  0
   -0.4497    0.7152    0.0000 N   0  0  0  0  0  0  0  0  0  0  0  0
    0.4246   -0.7759    0.0000 N   0  0  0  0  0  0  0  0  0  0  0  0
    0.4246   -1.7867    0.0000 C   0  0  0  0  0  0  0  0  0  0  0  0
   -1.3141   -0.7910    0.0000 C   0  0  0  0  0  0  0  0  0  0  0  0
   -0.4449   -2.2923    0.0000 N   0  0  0  0  0  0  0  0  0  0  0  0
    0.4094    1.1247    0.0000 C   0  0  0  0  0  0  0  0  0  0  0  0
   -1.5568    2.0496    0.0000 C   0  0  0  0  0  0  0  0  0  0  0  0
   -1.3141   -1.7919    0.0000 C   0  0  0  0  0  0  0  0  0  0  0  0
   -1.3344    1.1247    0.0000 C   0  0  0  0  0  0  0  0  0  0  0  0
   -0.3285    1.7564    0.0000 C   0  0  0  0  0  0  0  0  0  0  0  0
    0.0202    2.8179    0.0000 C   0  0  0  0  0  0  0  0  0  0  0  0
    0.6268    2.0597    0.0000 C   0  0  0  0  0  0  0  0  0  0  0  0
    1.2939   -2.2771    0.0000 C   0  0  0  0  0  0  0  0  0  0  0  0
   -0.9502    2.8028    0.0000 C   0  0  0  0  0  0  0  0  0  0  0  0
   -2.1836   -0.2908    0.0000 C   0  0  0  0  0  0  0  0  0  0  0  0
   -2.4868    2.2771    0.0000 C   0  0  0  0  0  0  0  0  0  0  0  0
   -2.1836   -2.2923    0.0000 C   0  0  0  0  0  0  0  0  0  0  0  0
   -0.0707    3.7883    0.0000 C   0  0  0  0  0  0  0  0  0  0  0  0
    1.0160    3.2477    0.0000 C   0  0  0  0  0  0  0  0  0  0  0  0
    1.2939   -3.2879    0.0000 C   0  0  0  0  0  0  0  0  0  0  0  0
    2.1432   -1.7867    0.0000 C   0  0  0  0  0  0  0  0  0  0  0  0
   -3.0327   -0.7910    0.0000 C   0  0  0  0  0  0  0  0  0  0  0  0
   -3.0327   -1.7919    0.0000 C   0  0  0  0  0  0  0  0  0  0  0  0
    3.0176   -2.2720    0.0000 C   0  0  0  0  0  0  0  0  0  0  0  0
    2.1685   -3.7883    0.0000 C   0  0  0  0  0  0  0  0  0  0  0  0
    3.0327   -3.2627    0.0000 C   0  0  0  0  0  0  0  0  0  0  0  0
  1  2  1  0
  1  3  2  0
  3  4  1  0
  4  6  2  0
  1  5  1  0
  6  9  1  0
  2  7  1  0
  8 10  1  0
  8 11  1  0
  5  9  1  0
  2 10  1  0
  7 11  1  0
 12 13  1  0
 12 15  1  0
  7 13  1  0
  4 14  1  0
  8 15  1  0
  5 16  2  0
  8 17  1  0
  9 18  2  0
 18 24  1  0
 12 19  1  0
 12 20  1  0
 14 21  2  0
 14 22  1  0
 16 23  1  0
 23 24  2  0
 22 25  2  0
 21 26  1  0
 25 27  1  0
 26 27  2  0
M  END
>  <IDNUMBER>  (194) 
5695-0637

>  <available>  (194) 
5

>  <H_acceptor>  (194) 
2

>  <H_donor>  (194) 
0

>  <B_rotN>  (194) 
2

>  <N_O>  (194) 
3

>  <logP>  (194) 
6.4561

>  <logD>  (194) 
5.979

>  <logSw>  (194) 
-6.2733

>  <PSA>  (194) 
21.3242

>  <pKa_ma>  (194) 
18.1908

>  <pKa_mb>  (194) 
7.7009

>  <N_Chirals>  (194) 
2

>  <Name>  (194) 
2-phenyl-4-(1,3,3-trimethyl-6-azabicyclo[3.2.1]octan-6-yl)quinazoline

>  <Smile>  (194) 
CC(C1)(C2)CC(C)(C)CC1N2c1nc(-c2ccccc2)nc2ccccc12

>  <Color>  (194) 
BROWN

>  <Collection>  (194) 
NC

>  <InChI>  (194) 
InChI=1S/C24H27N3/c1-23(2)13-18-14-24(3,15-23)16-27(18)22-19-11-7-8-12-20(19)25-21(26-22)17-9-5-4-6-10-17/h4-12,18H,13-16H2,1-3H3

>  <InChI Key>  (194) 
HHYLTYRWMUMJHY-UHFFFAOYSA-N

>  <PERCENTSP3>  (194) 
41.7

>  <Link>  (194) 
https://www.chemdiv.com/catalog/screening-compounds/compound-5695-0637/

>  <MFCDNUMBER>  (194) 
MFCD08337607

>  <CLNUMBER>  (194) 
CL2243

>  <STEREO>  (194) 
MIXTURE OF STEREOISOMERS

>  <State>  (194) 
Solid

>  <Similarity score>  (194) 
0.21

$$$$
7-chloro-3-(3-fluorophenyl)-5-(3-methylpiperidin-1-yl)[1,2,3]triazolo[1,5-a]quin
     RDKit          2D

 28 32  0  0  0  0  0  0  0  0999 V2000
    0.1541   -1.3651    0.0000 C   0  0  0  0  0  0  0  0  0  0  0  0
   -0.7141   -1.8646    0.0000 N   0  0  0  0  0  0  0  0  0  0  0  0
    0.1541   -0.3661    0.0000 N   0  0  0  0  0  0  0  0  0  0  0  0
    0.8956   -2.0412    0.0000 C   0  0  0  0  0  0  0  0  0  0  0  0
   -0.7141    0.1390    0.0000 C   0  0  0  0  0  0  0  0  0  0  0  0
   -0.5124   -2.8490    0.0000 N   0  0  0  0  0  0  0  0  0  0  0  0
   -1.5773   -0.3661    0.0000 C   0  0  0  0  0  0  0  0  0  0  0  0
    0.4870   -2.9548    0.0000 N   0  0  0  0  0  0  0  0  0  0  0  0
   -1.5873   -1.3651    0.0000 C   0  0  0  0  0  0  0  0  0  0  0  0
   -0.7141    1.1382    0.0000 N   0  0  0  0  0  0  0  0  0  0  0  0
    1.8647   -1.8343    0.0000 C   0  0  0  0  0  0  0  0  0  0  0  0
   -2.4500    0.1336    0.0000 C   0  0  0  0  0  0  0  0  0  0  0  0
   -2.4500   -1.8646    0.0000 C   0  0  0  0  0  0  0  0  0  0  0  0
    0.1541    1.6326    0.0000 C   0  0  0  0  0  0  0  0  0  0  0  0
    2.5308   -2.5864    0.0000 C   0  0  0  0  0  0  0  0  0  0  0  0
   -3.3133   -0.3661    0.0000 C   0  0  0  0  0  0  0  0  0  0  0  0
   -1.5773    1.6326    0.0000 C   0  0  0  0  0  0  0  0  0  0  0  0
   -3.3133   -1.3651    0.0000 C   0  0  0  0  0  0  0  0  0  0  0  0
    3.5152   -2.3796    0.0000 C   0  0  0  0  0  0  0  0  0  0  0  0
   -4.1761    0.1336    0.0000 Cl  0  0  0  0  0  0  0  0  0  0  0  0
    4.1761   -3.1315    0.0000 F   0  0  0  0  0  0  0  0  0  0  0  0
    0.1541    2.6318    0.0000 C   0  0  0  0  0  0  0  0  0  0  0  0
    2.1774   -0.8959    0.0000 C   0  0  0  0  0  0  0  0  0  0  0  0
   -1.5773    2.6318    0.0000 C   0  0  0  0  0  0  0  0  0  0  0  0
    3.1516   -0.6837    0.0000 C   0  0  0  0  0  0  0  0  0  0  0  0
    3.8279   -1.4357    0.0000 C   0  0  0  0  0  0  0  0  0  0  0  0
   -0.7091    3.1315    0.0000 C   0  0  0  0  0  0  0  0  0  0  0  0
    1.0169    3.1315    0.0000 C   0  0  0  0  0  0  0  0  0  0  0  0
  1  2  1  0
  1  3  1  0
  1  4  2  0
  3  5  2  0
  2  6  1  0
  5  7  1  0
  7  9  1  0
  4  8  1  0
  6  8  2  0
  2  9  1  0
  5 10  1  0
  4 11  1  0
  7 12  2  0
  9 13  2  0
 10 14  1  0
 11 15  2  0
 12 16  1  0
 10 17  1  0
 13 18  1  0
 16 18  2  0
 15 19  1  0
 16 20  1  0
 19 21  1  0
 14 22  1  0
 11 23  1  0
 17 24  1  0
 23 25  2  0
 25 26  1  0
 19 26  2  0
 24 27  1  0
 22 27  1  0
 22 28  1  0
M  END
>  <IDNUMBER>  (195) 
C680-0859

>  <available>  (195) 
67

>  <H_acceptor>  (195) 
3

>  <H_donor>  (195) 
0

>  <B_rotN>  (195) 
2

>  <N_O>  (195) 
5

>  <logP>  (195) 
5.6487

>  <logD>  (195) 
5.6486

>  <logSw>  (195) 
-6.1634

>  <PSA>  (195) 
35.514

>  <pKa_ma>  (195) 
21.5787

>  <pKa_mb>  (195) 
9.4307

>  <N_Chirals>  (195) 
1

>  <Name>  (195) 
7-chloro-3-(3-fluorophenyl)-5-(3-methylpiperidin-1-yl)[1,2,3]triazolo[1,5-a]quinazoline

>  <Smile>  (195) 
CC(CCC1)CN1c1nc2c(-c3cc(F)ccc3)nnn2c(cc2)c1cc2Cl

>  <Color>  (195) 
YELLOW

>  <Collection>  (195) 
DC

>  <InChI>  (195) 
InChI=1S/C21H19ClFN5/c1-13-4-3-9-27(12-13)20-17-11-15(22)7-8-18(17)28-21(24-20)19(25-26-28)14-5-2-6-16(23)10-14/h2,5-8,10-11,13H,3-4,9,12H2,1H3/t13-/m0/s1

>  <InChI Key>  (195) 
IBCKMLRSTWPWJG-ZDUSSCGKSA-N

>  <PERCENTSP3>  (195) 
28.6

>  <Link>  (195) 
https://www.chemdiv.com/catalog/screening-compounds/compound-C680-0859/

>  <MFCDNUMBER>  (195) 
MFCD08540149

>  <CLNUMBER>  (195) 
CL3431

>  <STEREO>  (195) 
RACEMIC MIXTURE

>  <State>  (195) 
Solid

>  <Similarity score>  (195) 
0.21

$$$$
3-(3-bromophenyl)-6-fluoro-1-(4-fluorophenyl)-1H-pyrazolo[4,3-c]quinoline
     RDKit          2D

 28 32  0  0  0  0  0  0  0  0999 V2000
   -0.8724    0.4389    0.0000 N   0  0  0  0  0  0  0  0  0  0  0  0
   -0.2097   -1.0286    0.0000 C   0  0  0  0  0  0  0  0  0  0  0  0
    0.1207    0.5385    0.0000 N   0  0  0  0  0  0  0  0  0  0  0  0
   -1.0839   -0.5329    0.0000 C   0  0  0  0  0  0  0  0  0  0  0  0
    0.5455   -0.3517    0.0000 C   0  0  0  0  0  0  0  0  0  0  0  0
   -1.9651   -1.0286    0.0000 C   0  0  0  0  0  0  0  0  0  0  0  0
   -1.0839   -2.5194    0.0000 N   0  0  0  0  0  0  0  0  0  0  0  0
   -1.9651   -2.0254    0.0000 C   0  0  0  0  0  0  0  0  0  0  0  0
   -0.2097   -2.0254    0.0000 C   0  0  0  0  0  0  0  0  0  0  0  0
    1.5583   -0.4567    0.0000 C   0  0  0  0  0  0  0  0  0  0  0  0
   -1.4960    1.2101    0.0000 C   0  0  0  0  0  0  0  0  0  0  0  0
   -2.8375   -2.5194    0.0000 C   0  0  0  0  0  0  0  0  0  0  0  0
    2.1303    0.3589    0.0000 C   0  0  0  0  0  0  0  0  0  0  0  0
   -1.1442    2.1249    0.0000 C   0  0  0  0  0  0  0  0  0  0  0  0
   -2.4751    1.0519    0.0000 C   0  0  0  0  0  0  0  0  0  0  0  0
   -2.8375   -0.5329    0.0000 C   0  0  0  0  0  0  0  0  0  0  0  0
    3.1430    0.2720    0.0000 C   0  0  0  0  0  0  0  0  0  0  0  0
   -2.7469    2.7415    0.0000 C   0  0  0  0  0  0  0  0  0  0  0  0
   -2.8375   -3.5162    0.0000 F   0  0  0  0  0  0  0  0  0  0  0  0
   -1.7678    2.8979    0.0000 C   0  0  0  0  0  0  0  0  0  0  0  0
   -3.0933    1.8105    0.0000 C   0  0  0  0  0  0  0  0  0  0  0  0
    3.7117    1.0981    0.0000 Br  0  0  0  0  0  0  0  0  0  0  0  0
   -3.3812    3.5162    0.0000 F   0  0  0  0  0  0  0  0  0  0  0  0
    1.9651   -1.3574    0.0000 C   0  0  0  0  0  0  0  0  0  0  0  0
   -3.7010   -1.0286    0.0000 C   0  0  0  0  0  0  0  0  0  0  0  0
    2.9761   -1.4534    0.0000 C   0  0  0  0  0  0  0  0  0  0  0  0
   -3.7117   -2.0254    0.0000 C   0  0  0  0  0  0  0  0  0  0  0  0
    3.5800   -0.6378    0.0000 C   0  0  0  0  0  0  0  0  0  0  0  0
  2  4  2  0
  2  5  1  0
  1  3  1  0
  1  4  1  0
  3  5  2  0
  4  6  1  0
  7  8  1  0
  7  9  2  0
  6  8  1  0
  2  9  1  0
  5 10  1  0
  1 11  1  0
  8 12  2  0
 10 13  1  0
 11 14  2  0
 11 15  1  0
  6 16  2  0
 13 17  2  0
 18 21  1  0
 18 20  2  0
 12 19  1  0
 14 20  1  0
 15 21  2  0
 17 22  1  0
 18 23  1  0
 10 24  2  0
 16 25  1  0
 24 26  1  0
 25 27  2  0
 12 27  1  0
 26 28  2  0
 17 28  1  0
M  END
>  <IDNUMBER>  (196) 
C350-0859

>  <available>  (196) 
109

>  <H_acceptor>  (196) 
2

>  <H_donor>  (196) 
0

>  <B_rotN>  (196) 
2

>  <N_O>  (196) 
3

>  <logP>  (196) 
6.1773

>  <logD>  (196) 
6.1773

>  <logSw>  (196) 
-6.6124

>  <PSA>  (196) 
23.4803

>  <pKa_ma>  (196) 
14

>  <pKa_mb>  (196) 
2.6131

>  <N_Chirals>  (196) 
0

>  <Name>  (196) 
3-(3-bromophenyl)-6-fluoro-1-(4-fluorophenyl)-1H-pyrazolo[4,3-c]quinoline

>  <Smile>  (196) 
Fc(cc1)ccc1-n(c(c1ccc2)c3cnc1c2F)nc3-c1cccc(Br)c1

>  <Color>  (196) 
NOT COLORED

>  <Collection>  (196) 
DC

>  <InChI>  (196) 
InChI=1S/C22H12BrF2N3/c23-14-4-1-3-13(11-14)20-18-12-26-21-17(5-2-6-19(21)25)22(18)28(27-20)16-9-7-15(24)8-10-16/h1-12H

>  <InChI Key>  (196) 
PLWYDPINYRKPOI-UHFFFAOYSA-N

>  <PERCENTSP3>  (196) 
0

>  <Link>  (196) 
https://www.chemdiv.com/catalog/screening-compounds/compound-C350-0859/

>  <MFCDNUMBER>  (196) 
MFCD14750713

>  <CLNUMBER>  (196) 
CL4130

>  <STEREO>  (196) 
ACHIRAL

>  <State>  (196) 
Solid

>  <Similarity score>  (196) 
0.21

$$$$
4-{3-[(2-chlorophenyl)methyl]-1,3-diazinan-1-yl}-3-(4-fluorophenyl)[1,2]oxazolo[
     RDKit          2D

 30 34  0  0  0  0  0  0  0  0999 V2000
    0.1216   -2.6389    0.0000 C   0  0  0  0  0  0  0  0  0  0  0  0
    0.9875   -2.1373    0.0000 C   0  0  0  0  0  0  0  0  0  0  0  0
    0.9875   -1.1397    0.0000 N   0  0  0  0  0  0  0  0  0  0  0  0
   -1.4131   -3.1401    0.0000 N   0  0  0  0  0  0  0  0  0  0  0  0
   -0.8256   -2.3249    0.0000 C   0  0  0  0  0  0  0  0  0  0  0  0
    0.1216   -3.6415    0.0000 C   0  0  0  0  0  0  0  0  0  0  0  0
   -0.8256   -3.9506    0.0000 O   0  0  0  0  0  0  0  0  0  0  0  0
    1.6509   -0.3801    0.0000 C   0  0  0  0  0  0  0  0  0  0  0  0
    1.3220    0.5620    0.0000 N   0  0  0  0  0  0  0  0  0  0  0  0
    1.8638   -2.6389    0.0000 N   0  0  0  0  0  0  0  0  0  0  0  0
    0.9875   -4.1428    0.0000 N   0  0  0  0  0  0  0  0  0  0  0  0
    1.6712    2.2538    0.0000 C   0  0  0  0  0  0  0  0  0  0  0  0
    1.9852    1.3217    0.0000 C   0  0  0  0  0  0  0  0  0  0  0  0
   -1.0940   -1.3625    0.0000 C   0  0  0  0  0  0  0  0  0  0  0  0
    1.8638   -3.6415    0.0000 C   0  0  0  0  0  0  0  0  0  0  0  0
    0.6836    2.4412    0.0000 C   0  0  0  0  0  0  0  0  0  0  0  0
    0.0102   -0.9420    0.0000 C   0  0  0  0  0  0  0  0  0  0  0  0
   -2.0563   -1.1094    0.0000 C   0  0  0  0  0  0  0  0  0  0  0  0
   -0.3850   -0.6484    0.0000 C   0  0  0  0  0  0  0  0  0  0  0  0
   -0.3039   -0.0000    0.0000 C   0  0  0  0  0  0  0  0  0  0  0  0
   -1.6257    0.5672    0.0000 C   0  0  0  0  0  0  0  0  0  0  0  0
    0.0252    1.7015    0.0000 Cl  0  0  0  0  0  0  0  0  0  0  0  0
    0.3494    0.7495    0.0000 C   0  0  0  0  0  0  0  0  0  0  0  0
   -2.3246   -0.1368    0.0000 C   0  0  0  0  0  0  0  0  0  0  0  0
   -0.6534    0.3090    0.0000 C   0  0  0  0  0  0  0  0  0  0  0  0
   -1.8992    1.5397    0.0000 F   0  0  0  0  0  0  0  0  0  0  0  0
    2.3246    3.0033    0.0000 C   0  0  0  0  0  0  0  0  0  0  0  0
    0.3595    3.3934    0.0000 C   0  0  0  0  0  0  0  0  0  0  0  0
    2.0005    3.9453    0.0000 C   0  0  0  0  0  0  0  0  0  0  0  0
    1.0180    4.1428    0.0000 C   0  0  0  0  0  0  0  0  0  0  0  0
  1  2  1  0
  2  3  1  0
  4  5  2  0
  1  5  1  0
  1  6  2  0
  6  7  1  0
  4  7  1  0
  3  8  1  0
  8  9  1  0
  9 23  1  0
  2 10  2  0
  6 11  1  0
 12 13  1  0
  9 13  1  0
  5 14  1  0
 11 15  2  0
 10 15  1  0
 12 16  1  0
  3 17  1  0
 14 18  1  0
 14 19  2  0
 17 20  1  0
 21 25  2  0
 21 24  1  0
 16 22  1  0
 20 23  1  0
 18 24  2  0
 19 25  1  0
 21 26  1  0
 12 27  2  0
 16 28  2  0
 27 29  1  0
 29 30  2  0
 28 30  1  0
M  END
>  <IDNUMBER>  (197) 
E899-0277

>  <available>  (197) 
78

>  <H_acceptor>  (197) 
5

>  <H_donor>  (197) 
0

>  <B_rotN>  (197) 
4

>  <N_O>  (197) 
6

>  <logP>  (197) 
4.8779

>  <logD>  (197) 
4.8778

>  <logSw>  (197) 
-5.1773

>  <PSA>  (197) 
49.815

>  <pKa_ma>  (197) 
21.573

>  <pKa_mb>  (197) 
3.5883

>  <N_Chirals>  (197) 
0

>  <Name>  (197) 
4-{3-[(2-chlorophenyl)methyl]-1,3-diazinan-1-yl}-3-(4-fluorophenyl)[1,2]oxazolo[5,4-d]pyrimidine

>  <Smile>  (197) 
Fc(cc1)ccc1-c1noc2c1c(N1CN(Cc(cccc3)c3Cl)CCC1)ncn2

>  <Color>  (197) 
NOT COLORED

>  <Collection>  (197) 
DC

>  <InChI>  (197) 
InChI=1S/C22H19ClFN5O/c23-18-5-2-1-4-16(18)12-28-10-3-11-29(14-28)21-19-20(15-6-8-17(24)9-7-15)27-30-22(19)26-13-25-21/h1-2,4-9,13H,3,10-12,14H2

>  <InChI Key>  (197) 
QYUSHAWEFPIGCP-UHFFFAOYSA-N

>  <PERCENTSP3>  (197) 
22.7

>  <Link>  (197) 
https://www.chemdiv.com/catalog/screening-compounds/compound-E899-0277/

>  <MFCDNUMBER>  (197) 
MFCD14926746

>  <CLNUMBER>  (197) 
CL5509

>  <STEREO>  (197) 
ACHIRAL

>  <State>  (197) 
Solid

>  <Similarity score>  (197) 
0.21

$$$$
5-[(2-chloro-6-fluorophenyl)methoxy]-2-[5-(4-methoxyphenoxy)pyrimidin-4-yl]pheno
     RDKit          2D

 32 35  0  0  0  0  0  0  0  0999 V2000
   -0.4355   -1.2650    0.0000 C   0  0  0  0  0  0  0  0  0  0  0  0
    0.4273   -1.7607    0.0000 C   0  0  0  0  0  0  0  0  0  0  0  0
   -3.8945    1.7523    0.0000 C   0  0  0  0  0  0  0  0  0  0  0  0
    1.2855   -1.2650    0.0000 C   0  0  0  0  0  0  0  0  0  0  0  0
   -1.2982   -1.7607    0.0000 C   0  0  0  0  0  0  0  0  0  0  0  0
   -3.0318    1.2523    0.0000 C   0  0  0  0  0  0  0  0  0  0  0  0
    0.4273   -2.7651    0.0000 N   0  0  0  0  0  0  0  0  0  0  0  0
   -0.4355   -0.2562    0.0000 C   0  0  0  0  0  0  0  0  0  0  0  0
   -2.1608   -1.2650    0.0000 C   0  0  0  0  0  0  0  0  0  0  0  0
    1.2855   -0.2689    0.0000 O   0  0  0  0  0  0  0  0  0  0  0  0
   -3.8945    2.7484    0.0000 C   0  0  0  0  0  0  0  0  0  0  0  0
   -4.7529    1.2523    0.0000 C   0  0  0  0  0  0  0  0  0  0  0  0
    2.1566   -2.7651    0.0000 N   0  0  0  0  0  0  0  0  0  0  0  0
    1.2855   -3.2610    0.0000 C   0  0  0  0  0  0  0  0  0  0  0  0
   -3.0318    0.2480    0.0000 O   0  0  0  0  0  0  0  0  0  0  0  0
   -2.1608   -0.2562    0.0000 C   0  0  0  0  0  0  0  0  0  0  0  0
    2.1481    0.2311    0.0000 C   0  0  0  0  0  0  0  0  0  0  0  0
    2.1566   -1.7607    0.0000 C   0  0  0  0  0  0  0  0  0  0  0  0
   -1.2982    0.2438    0.0000 C   0  0  0  0  0  0  0  0  0  0  0  0
   -1.2982   -2.7609    0.0000 O   0  0  0  0  0  0  0  0  0  0  0  0
   -3.0194    3.2610    0.0000 Cl  0  0  0  0  0  0  0  0  0  0  0  0
   -4.7529    0.2562    0.0000 F   0  0  0  0  0  0  0  0  0  0  0  0
    3.8778    1.2399    0.0000 C   0  0  0  0  0  0  0  0  0  0  0  0
    3.0067   -0.2689    0.0000 C   0  0  0  0  0  0  0  0  0  0  0  0
    2.1481    1.2399    0.0000 C   0  0  0  0  0  0  0  0  0  0  0  0
    3.0067    1.7356    0.0000 C   0  0  0  0  0  0  0  0  0  0  0  0
    3.8778    0.2311    0.0000 C   0  0  0  0  0  0  0  0  0  0  0  0
    4.7445    1.7400    0.0000 O   0  0  0  0  0  0  0  0  0  0  0  0
   -5.6197    2.7484    0.0000 C   0  0  0  0  0  0  0  0  0  0  0  0
   -5.6197    1.7523    0.0000 C   0  0  0  0  0  0  0  0  0  0  0  0
   -4.7529    3.2486    0.0000 C   0  0  0  0  0  0  0  0  0  0  0  0
    5.6197    1.2441    0.0000 C   0  0  0  0  0  0  0  0  0  0  0  0
  1  2  1  0
  3  6  1  0
  2  4  1  0
  1  5  1  0
  6 15  1  0
  2  7  2  0
  1  8  2  0
  5  9  2  0
  9 16  1  0
  4 10  1  0
  3 11  2  0
  3 12  1  0
 13 14  2  0
 13 18  1  0
  7 14  1  0
 15 16  1  0
 16 19  2  0
 10 17  1  0
  4 18  2  0
  8 19  1  0
  5 20  1  0
 11 21  1  0
 12 22  1  0
 23 26  1  0
 17 24  2  0
 17 25  1  0
 25 26  2  0
 24 27  1  0
 23 27  2  0
 23 28  1  0
 29 30  1  0
 29 31  2  0
 12 30  2  0
 11 31  1  0
 28 32  1  0
M  END
>  <IDNUMBER>  (198) 
IB04-2263

>  <available>  (198) 
50

>  <H_acceptor>  (198) 
6

>  <H_donor>  (198) 
1

>  <B_rotN>  (198) 
7

>  <N_O>  (198) 
6

>  <logP>  (198) 
5.55

>  <logD>  (198) 
5.55

>  <logSw>  (198) 
-6.8

>  <PSA>  (198) 
91.07

>  <pKa_ma>  (198) 
10.33

>  <pKa_mb>  (198) 
0.88

>  <N_Chirals>  (198) 
0

>  <Name>  (198) 
5-[(2-chloro-6-fluorophenyl)methoxy]-2-[5-(4-methoxyphenoxy)pyrimidin-4-yl]phenol

>  <Smile>  (198) 
COc(cc1)ccc1Oc1cncnc1-c(ccc(OCc(c(F)ccc1)c1Cl)c1)c1O

>  <Color>  (198) 
NOT COLORED

>  <Collection>  (198) 
DC

>  <InChI>  (198) 
InChI=1S/C24H18ClFN2O4/c1-30-15-5-7-16(8-6-15)32-23-12-27-14-28-24(23)18-10-9-17(11-22(18)29)31-13-19-20(25)3-2-4-21(19)26/h2-12,14,29H,13H2,1H3

>  <InChI Key>  (198) 
BULPPGLYWMLGAV-UHFFFAOYSA-N

>  <PERCENTSP3>  (198) 
8.3

>  <Link>  (198) 
https://www.chemdiv.com/catalog/screening-compounds/compound-IB04-2263/

>  <STEREO>  (198) 
ACHIRAL

>  <State>  (198) 
Solid

>  <Similarity score>  (198) 
0.21

$$$$
N-[(2-fluorophenyl)methyl]-1-[7-(4-methylphenyl)-4-oxo-3,4-dihydrothieno[3,2-d]p
     RDKit          2D

 34 38  0  0  0  0  0  0  0  0999 V2000
   -3.0493   -0.5396    0.0000 C   0  0  0  0  0  0  0  0  0  0  0  0
   -3.0394   -1.5436    0.0000 C   0  0  0  0  0  0  0  0  0  0  0  0
   -1.3090   -0.5396    0.0000 C   0  0  0  0  0  0  0  0  0  0  0  0
   -2.1868   -0.0301    0.0000 N   0  0  0  0  0  0  0  0  0  0  0  0
   -1.3090   -1.5436    0.0000 N   0  0  0  0  0  0  0  0  0  0  0  0
   -2.1766   -2.0429    0.0000 C   0  0  0  0  0  0  0  0  0  0  0  0
   -3.9927   -0.2421    0.0000 C   0  0  0  0  0  0  0  0  0  0  0  0
   -3.9876   -1.8563    0.0000 S   0  0  0  0  0  0  0  0  0  0  0  0
   -0.4464   -0.0403    0.0000 N   0  0  0  0  0  0  0  0  0  0  0  0
   -4.5777   -1.0442    0.0000 C   0  0  0  0  0  0  0  0  0  0  0  0
    1.2787   -0.0454    0.0000 C   0  0  0  0  0  0  0  0  0  0  0  0
    2.1514   -0.5547    0.0000 C   0  0  0  0  0  0  0  0  0  0  0  0
    0.4159   -0.5447    0.0000 C   0  0  0  0  0  0  0  0  0  0  0  0
   -4.3105    0.7113    0.0000 C   0  0  0  0  0  0  0  0  0  0  0  0
    3.0190   -0.0555    0.0000 N   0  0  0  0  0  0  0  0  0  0  0  0
    3.8763   -1.5436    0.0000 C   0  0  0  0  0  0  0  0  0  0  0  0
   -2.1766   -3.0418    0.0000 O   0  0  0  0  0  0  0  0  0  0  0  0
    3.8814   -0.5600    0.0000 C   0  0  0  0  0  0  0  0  0  0  0  0
    2.1412   -1.5538    0.0000 O   0  0  0  0  0  0  0  0  0  0  0  0
    4.7289   -2.0582    0.0000 C   0  0  0  0  0  0  0  0  0  0  0  0
   -3.6394    1.4579    0.0000 C   0  0  0  0  0  0  0  0  0  0  0  0
   -5.2889    0.9232    0.0000 C   0  0  0  0  0  0  0  0  0  0  0  0
   -0.4464    0.9533    0.0000 C   0  0  0  0  0  0  0  0  0  0  0  0
    5.6067   -1.5588    0.0000 F   0  0  0  0  0  0  0  0  0  0  0  0
   -5.6067    1.8563    0.0000 C   0  0  0  0  0  0  0  0  0  0  0  0
   -3.9573    2.4012    0.0000 C   0  0  0  0  0  0  0  0  0  0  0  0
   -4.9309    2.5978    0.0000 C   0  0  0  0  0  0  0  0  0  0  0  0
    1.2888    0.9533    0.0000 C   0  0  0  0  0  0  0  0  0  0  0  0
    0.4159    1.4528    0.0000 C   0  0  0  0  0  0  0  0  0  0  0  0
    3.0040   -2.0279    0.0000 C   0  0  0  0  0  0  0  0  0  0  0  0
    4.7289   -3.0516    0.0000 C   0  0  0  0  0  0  0  0  0  0  0  0
   -5.2437    3.5513    0.0000 C   0  0  0  0  0  0  0  0  0  0  0  0
    2.9887   -3.0418    0.0000 C   0  0  0  0  0  0  0  0  0  0  0  0
    3.8665   -3.5513    0.0000 C   0  0  0  0  0  0  0  0  0  0  0  0
  1  2  2  0
  3  4  2  0
  1  4  1  0
  3  5  1  0
  5  6  1  0
  2  6  1  0
  1  7  1  0
  2  8  1  0
  8 10  1  0
  3  9  1  0
  7 10  2  0
 11 13  1  0
 11 12  1  0
  9 13  1  0
  7 14  1  0
 12 15  1  0
 16 18  1  0
  6 17  2  0
 15 18  1  0
 12 19  2  0
 16 20  2  0
 14 21  1  0
 14 22  2  0
  9 23  1  0
 20 24  1  0
 22 25  1  0
 21 26  2  0
 25 27  2  0
 26 27  1  0
 28 29  1  0
 11 28  1  0
 23 29  1  0
 16 30  1  0
 20 31  1  0
 27 32  1  0
 30 33  2  0
 33 34  1  0
 31 34  2  0
M  END
>  <IDNUMBER>  (199) 
Z250-1375

>  <available>  (199) 
89

>  <H_acceptor>  (199) 
5

>  <H_donor>  (199) 
2

>  <B_rotN>  (199) 
6

>  <N_O>  (199) 
6

>  <logP>  (199) 
4.483

>  <logD>  (199) 
4.4829

>  <logSw>  (199) 
-4.2357

>  <PSA>  (199) 
60.798

>  <pKa_ma>  (199) 
11.0862

>  <pKa_mb>  (199) 
-1.8563

>  <N_Chirals>  (199) 
1

>  <Name>  (199) 
N-[(2-fluorophenyl)methyl]-1-[7-(4-methylphenyl)-4-oxo-3,4-dihydrothieno[3,2-d]pyrimidin-2-yl]piperidine-3-carboxamide

>  <Smile>  (199) 
Cc(cc1)ccc1-c1csc(C(N2)=O)c1N=C2N(CCC1)CC1C(NCc(cccc1)c1F)=O

>  <Color>  (199) 
NOT COLORED

>  <Collection>  (199) 
NC

>  <InChI>  (199) 
InChI=1S/C26H25FN4O2S/c1-16-8-10-17(11-9-16)20-15-34-23-22(20)29-26(30-25(23)33)31-12-4-6-19(14-31)24(32)28-13-18-5-2-3-7-21(18)27/h2-3,5,7-11,15,19H,4,6,12-14H2,1H3,(H,28,32)(H,29,30,33)/t19-/m0/s1

>  <InChI Key>  (199) 
YYOSVYHMUYJCQJ-IBGZPJMESA-N

>  <PERCENTSP3>  (199) 
26.9

>  <Link>  (199) 
https://www.chemdiv.com/catalog/screening-compounds/compound-Z250-1375/

>  <MFCDNUMBER>  (199) 
MFCD18789202

>  <CLNUMBER>  (199) 
CL8892

>  <STEREO>  (199) 
RACEMIC MIXTURE

>  <State>  (199) 
Solid

>  <Similarity score>  (199) 
0.21

$$$$
1-([1]benzofuro[3,2-d]pyrimidin-4-yl)-N-[(2,5-dimethoxyphenyl)methyl]piperidine-
     RDKit          2D

 33 37  0  0  0  0  0  0  0  0999 V2000
   -2.2565   -1.2941    0.0000 C   0  0  0  0  0  0  0  0  0  0  0  0
   -1.2840   -1.0866    0.0000 C   0  0  0  0  0  0  0  0  0  0  0  0
   -3.0669   -0.7067    0.0000 O   0  0  0  0  0  0  0  0  0  0  0  0
   -2.5757   -2.2412    0.0000 C   0  0  0  0  0  0  0  0  0  0  0  0
   -0.9649   -0.1391    0.0000 N   0  0  0  0  0  0  0  0  0  0  0  0
   -3.5684   -2.2513    0.0000 C   0  0  0  0  0  0  0  0  0  0  0  0
   -3.8823   -1.2991    0.0000 C   0  0  0  0  0  0  0  0  0  0  0  0
    0.3266    1.0155    0.0000 C   0  0  0  0  0  0  0  0  0  0  0  0
    1.3092    1.2233    0.0000 C   0  0  0  0  0  0  0  0  0  0  0  0
   -0.6155   -1.8310    0.0000 N   0  0  0  0  0  0  0  0  0  0  0  0
    0.0176    0.0684    0.0000 C   0  0  0  0  0  0  0  0  0  0  0  0
    3.2442    1.6588    0.0000 C   0  0  0  0  0  0  0  0  0  0  0  0
   -1.9070   -2.9860    0.0000 N   0  0  0  0  0  0  0  0  0  0  0  0
    1.6182    2.1806    0.0000 N   0  0  0  0  0  0  0  0  0  0  0  0
   -0.9243   -2.7883    0.0000 C   0  0  0  0  0  0  0  0  0  0  0  0
    2.5909    2.3830    0.0000 C   0  0  0  0  0  0  0  0  0  0  0  0
    4.2267    1.8462    0.0000 C   0  0  0  0  0  0  0  0  0  0  0  0
    2.9250    0.7067    0.0000 C   0  0  0  0  0  0  0  0  0  0  0  0
    1.9779    0.4786    0.0000 O   0  0  0  0  0  0  0  0  0  0  0  0
    4.8852    1.1068    0.0000 C   0  0  0  0  0  0  0  0  0  0  0  0
    3.5937   -0.0380    0.0000 C   0  0  0  0  0  0  0  0  0  0  0  0
   -1.6386    0.6053    0.0000 C   0  0  0  0  0  0  0  0  0  0  0  0
    4.5762    0.1597    0.0000 C   0  0  0  0  0  0  0  0  0  0  0  0
   -0.3419    1.7703    0.0000 C   0  0  0  0  0  0  0  0  0  0  0  0
   -4.2370   -2.9860    0.0000 C   0  0  0  0  0  0  0  0  0  0  0  0
    4.5458    2.7985    0.0000 O   0  0  0  0  0  0  0  0  0  0  0  0
    3.2746   -0.9903    0.0000 O   0  0  0  0  0  0  0  0  0  0  0  0
   -4.8550   -1.0866    0.0000 C   0  0  0  0  0  0  0  0  0  0  0  0
   -1.3196    1.5626    0.0000 C   0  0  0  0  0  0  0  0  0  0  0  0
    5.5235    2.9860    0.0000 C   0  0  0  0  0  0  0  0  0  0  0  0
    3.9431   -1.7397    0.0000 C   0  0  0  0  0  0  0  0  0  0  0  0
   -5.2145   -2.7833    0.0000 C   0  0  0  0  0  0  0  0  0  0  0  0
   -5.5235   -1.8310    0.0000 C   0  0  0  0  0  0  0  0  0  0  0  0
  1  2  1  0
  1  3  1  0
  1  4  2  0
  2  5  1  0
  4  6  1  0
  6  7  2  0
  3  7  1  0
  8 11  1  0
  8 24  1  0
  8  9  1  0
  2 10  2  0
 10 15  1  0
  5 11  1  0
 12 16  1  0
  4 13  1  0
  9 14  1  0
 13 15  2  0
 14 16  1  0
 12 17  2  0
 12 18  1  0
  9 19  2  0
 17 20  1  0
 18 21  2  0
  5 22  1  0
 21 23  1  0
 20 23  2  0
 24 29  1  0
  6 25  1  0
 17 26  1  0
 21 27  1  0
  7 28  1  0
 22 29  1  0
 26 30  1  0
 27 31  1  0
 25 32  2  0
 28 33  2  0
 32 33  1  0
M  END
>  <IDNUMBER>  (200) 
L928-0399

>  <available>  (200) 
47

>  <H_acceptor>  (200) 
7

>  <H_donor>  (200) 
1

>  <B_rotN>  (200) 
7

>  <N_O>  (200) 
8

>  <logP>  (200) 
3.8785

>  <logD>  (200) 
3.8681

>  <logSw>  (200) 
-4.0905

>  <PSA>  (200) 
71.859

>  <pKa_ma>  (200) 
12.8587

>  <pKa_mb>  (200) 
5.7848

>  <N_Chirals>  (200) 
1

>  <Name>  (200) 
1-([1]benzofuro[3,2-d]pyrimidin-4-yl)-N-[(2,5-dimethoxyphenyl)methyl]piperidine-3-carboxamide

>  <Smile>  (200) 
COc(cc1)cc(CNC(C(CCC2)CN2c2ncnc3c2oc2c3cccc2)=O)c1OC

>  <Color>  (200) 
ORANGE

>  <Collection>  (200) 
NC

>  <InChI>  (200) 
InChI=1S/C25H26N4O4/c1-31-18-9-10-20(32-2)17(12-18)13-26-25(30)16-6-5-11-29(14-16)24-23-22(27-15-28-24)19-7-3-4-8-21(19)33-23/h3-4,7-10,12,15-16H,5-6,11,13-14H2,1-2H3,(H,26,30)/t16-/m0/s1

>  <InChI Key>  (200) 
BJCSJRDDRAIINV-INIZCTEOSA-N

>  <PERCENTSP3>  (200) 
32

>  <Link>  (200) 
https://www.chemdiv.com/catalog/screening-compounds/compound-L928-0399/

>  <MFCDNUMBER>  (200) 
MFCD20750398

>  <CLNUMBER>  (200) 
CL1503

>  <STEREO>  (200) 
RACEMIC MIXTURE

>  <State>  (200) 
Solid

>  <Similarity score>  (200) 
0.21

$$$$
N-[(2,4-difluorophenyl)methyl]-1-(2-methyl-5,6,8,9-tetrahydrooxepino[4,5-d]pyrim
     RDKit          2D

 30 33  0  0  0  0  0  0  0  0999 V2000
   -2.8644   -0.2462    0.0000 C   0  0  0  0  0  0  0  0  0  0  0  0
   -3.7200    0.2520    0.0000 C   0  0  0  0  0  0  0  0  0  0  0  0
   -2.8644   -1.2488    0.0000 N   0  0  0  0  0  0  0  0  0  0  0  0
   -1.9900    0.2520    0.0000 N   0  0  0  0  0  0  0  0  0  0  0  0
   -4.5940   -0.2462    0.0000 C   0  0  0  0  0  0  0  0  0  0  0  0
   -4.5940   -1.2488    0.0000 N   0  0  0  0  0  0  0  0  0  0  0  0
   -3.7200   -1.7503    0.0000 C   0  0  0  0  0  0  0  0  0  0  0  0
    0.6144    1.7503    0.0000 C   0  0  0  0  0  0  0  0  0  0  0  0
    3.2058    0.2520    0.0000 C   0  0  0  0  0  0  0  0  0  0  0  0
    3.2058    1.2488    0.0000 C   0  0  0  0  0  0  0  0  0  0  0  0
    1.4856    1.2488    0.0000 N   0  0  0  0  0  0  0  0  0  0  0  0
    4.0740   -0.2462    0.0000 C   0  0  0  0  0  0  0  0  0  0  0  0
   -0.2600    1.2488    0.0000 C   0  0  0  0  0  0  0  0  0  0  0  0
   -1.1156   -0.2462    0.0000 C   0  0  0  0  0  0  0  0  0  0  0  0
   -1.9900    1.2488    0.0000 C   0  0  0  0  0  0  0  0  0  0  0  0
    2.3440    1.7503    0.0000 C   0  0  0  0  0  0  0  0  0  0  0  0
    0.6144    2.7468    0.0000 O   0  0  0  0  0  0  0  0  0  0  0  0
    4.0740    1.7503    0.0000 C   0  0  0  0  0  0  0  0  0  0  0  0
   -0.2600    0.2520    0.0000 C   0  0  0  0  0  0  0  0  0  0  0  0
   -1.1156    1.7503    0.0000 C   0  0  0  0  0  0  0  0  0  0  0  0
   -5.2524    1.9007    0.0000 O   0  0  0  0  0  0  0  0  0  0  0  0
    4.9485    0.2520    0.0000 C   0  0  0  0  0  0  0  0  0  0  0  0
   -5.5251    0.1206    0.0000 C   0  0  0  0  0  0  0  0  0  0  0  0
    2.3440   -0.2462    0.0000 F   0  0  0  0  0  0  0  0  0  0  0  0
   -3.5693    1.2394    0.0000 C   0  0  0  0  0  0  0  0  0  0  0  0
    4.9485    1.2488    0.0000 C   0  0  0  0  0  0  0  0  0  0  0  0
    5.8102   -0.2462    0.0000 F   0  0  0  0  0  0  0  0  0  0  0  0
   -3.7200   -2.7468    0.0000 C   0  0  0  0  0  0  0  0  0  0  0  0
   -5.8102    1.0734    0.0000 C   0  0  0  0  0  0  0  0  0  0  0  0
   -4.2556    1.9820    0.0000 C   0  0  0  0  0  0  0  0  0  0  0  0
  1  2  1  0
  1  3  2  0
  1  4  1  0
  2  5  2  0
  6  7  2  0
  5  6  1  0
  3  7  1  0
  8 13  1  0
  9 10  2  0
 10 16  1  0
  8 11  1  0
  9 12  1  0
 13 20  1  0
  4 14  1  0
  4 15  1  0
 11 16  1  0
  8 17  2  0
 10 18  1  0
 14 19  1  0
 13 19  1  0
 15 20  1  0
 21 30  1  0
 22 26  1  0
 12 22  2  0
  5 23  1  0
  9 24  1  0
  2 25  1  0
 18 26  2  0
 22 27  1  0
  7 28  1  0
 23 29  1  0
 21 29  1  0
 25 30  1  0
M  END
>  <IDNUMBER>  (201) 
S896-0388

>  <available>  (201) 
14

>  <H_acceptor>  (201) 
5

>  <H_donor>  (201) 
1

>  <B_rotN>  (201) 
5

>  <N_O>  (201) 
6

>  <logP>  (201) 
2.954

>  <logD>  (201) 
2.9432

>  <logSw>  (201) 
-3.2232

>  <PSA>  (201) 
55.882

>  <pKa_ma>  (201) 
12.1429

>  <pKa_mb>  (201) 
5.8035

>  <N_Chirals>  (201) 
0

>  <Name>  (201) 
N-[(2,4-difluorophenyl)methyl]-1-(2-methyl-5,6,8,9-tetrahydrooxepino[4,5-d]pyrimidin-4-yl)piperidine-4-carboxamide

>  <Smile>  (201) 
Cc1nc(CCOCC2)c2c(N(CC2)CCC2C(NCc(ccc(F)c2)c2F)=O)n1

>  <Color>  (201) 
NOT COLORED

>  <Collection>  (201) 
IC

>  <InChI>  (201) 
InChI=1S/C22H26F2N4O2/c1-14-26-20-7-11-30-10-6-18(20)21(27-14)28-8-4-15(5-9-28)22(29)25-13-16-2-3-17(23)12-19(16)24/h2-3,12,15H,4-11,13H2,1H3,(H,25,29)

>  <InChI Key>  (201) 
MJEYTQNMHUDINA-UHFFFAOYSA-N

>  <PERCENTSP3>  (201) 
50

>  <Link>  (201) 
https://www.chemdiv.com/catalog/screening-compounds/compound-S896-0388/

>  <MFCDNUMBER>  (201) 
MFCD31957228

>  <CLNUMBER>  (201) 
CM3993

>  <STEREO>  (201) 
ACHIRAL

>  <State>  (201) 
Solid

>  <Similarity score>  (201) 
0.27

$$$$
2-(4-fluorophenyl)-N-(1-methyl-1,2,3,4-tetrahydroquinolin-7-yl)-4-oxo-4,5,6,7,8,
     RDKit          2D

 33 37  0  0  0  0  0  0  0  0999 V2000
   -0.2353    0.4667    0.0000 C   0  0  0  0  0  0  0  0  0  0  0  0
   -1.9684    0.4292    0.0000 N   0  0  0  0  0  0  0  0  0  0  0  0
   -1.1185    1.9413    0.0000 N   0  0  0  0  0  0  0  0  0  0  0  0
   -0.2560    1.4664    0.0000 C   0  0  0  0  0  0  0  0  0  0  0  0
   -1.9811    1.4291    0.0000 C   0  0  0  0  0  0  0  0  0  0  0  0
   -1.0853   -0.0541    0.0000 C   0  0  0  0  0  0  0  0  0  0  0  0
    3.9556   -0.8291    0.0000 C   0  0  0  0  0  0  0  0  0  0  0  0
    0.9687   -2.5330    0.0000 C   0  0  0  0  0  0  0  0  0  0  0  0
    4.9681   -0.8207    0.0000 N   0  0  0  0  0  0  0  0  0  0  0  0
    1.9643   -2.5330    0.0000 N   0  0  0  0  0  0  0  0  0  0  0  0
    0.7061    0.1291    0.0000 C   0  0  0  0  0  0  0  0  0  0  0  0
    3.4683   -1.6789    0.0000 C   0  0  0  0  0  0  0  0  0  0  0  0
   -2.8561    1.9081    0.0000 C   0  0  0  0  0  0  0  0  0  0  0  0
    2.4683   -1.6789    0.0000 C   0  0  0  0  0  0  0  0  0  0  0  0
    0.5897    2.0163    0.0000 O   0  0  0  0  0  0  0  0  0  0  0  0
    0.4688   -1.6664    0.0000 C   0  0  0  0  0  0  0  0  0  0  0  0
   -1.2062   -1.0331    0.0000 C   0  0  0  0  0  0  0  0  0  0  0  0
    3.4642    0.0666    0.0000 C   0  0  0  0  0  0  0  0  0  0  0  0
    0.4770   -3.3956    0.0000 O   0  0  0  0  0  0  0  0  0  0  0  0
    1.0185   -0.8207    0.0000 C   0  0  0  0  0  0  0  0  0  0  0  0
   -0.5061   -1.7456    0.0000 C   0  0  0  0  0  0  0  0  0  0  0  0
   -2.8811    2.9080    0.0000 C   0  0  0  0  0  0  0  0  0  0  0  0
   -3.7057    1.3957    0.0000 C   0  0  0  0  0  0  0  0  0  0  0  0
    2.4683    0.0584    0.0000 C   0  0  0  0  0  0  0  0  0  0  0  0
    1.9684   -0.8166    0.0000 C   0  0  0  0  0  0  0  0  0  0  0  0
   -4.6057    2.8788    0.0000 C   0  0  0  0  0  0  0  0  0  0  0  0
   -4.5932    1.8706    0.0000 C   0  0  0  0  0  0  0  0  0  0  0  0
   -3.7557    3.3956    0.0000 C   0  0  0  0  0  0  0  0  0  0  0  0
   -5.4806    3.3580    0.0000 F   0  0  0  0  0  0  0  0  0  0  0  0
    5.4806    0.0541    0.0000 C   0  0  0  0  0  0  0  0  0  0  0  0
    5.4556   -1.6914    0.0000 C   0  0  0  0  0  0  0  0  0  0  0  0
    4.9765    0.9332    0.0000 C   0  0  0  0  0  0  0  0  0  0  0  0
    3.9640    0.9291    0.0000 C   0  0  0  0  0  0  0  0  0  0  0  0
  2  6  1  0
  3  4  1  0
  1  4  1  0
  2  5  2  0
  3  5  1  0
  1  6  2  0
  7 12  2  0
  7 18  1  0
  8 16  1  0
  7  9  1  0
  8 10  1  0
  1 11  1  0
 12 14  1  0
  5 13  1  0
 10 14  1  0
  4 15  2  0
 16 20  1  0
  6 17  1  0
 18 24  2  0
  8 19  2  0
 11 20  1  0
 17 21  1  0
 16 21  1  0
 13 22  2  0
 13 23  1  0
 24 25  1  0
 14 25  2  0
 26 27  1  0
 23 27  2  0
 22 28  1  0
 26 28  2  0
 26 29  1  0
  9 30  1  0
  9 31  1  0
 32 33  1  0
 30 32  1  0
 18 33  1  0
M  END
>  <IDNUMBER>  (202) 
SB25-1064

>  <available>  (202) 
21

>  <H_acceptor>  (202) 
5

>  <H_donor>  (202) 
2

>  <B_rotN>  (202) 
4

>  <N_O>  (202) 
6

>  <logP>  (202) 
3.1468

>  <logD>  (202) 
2.0654

>  <logSw>  (202) 
-3.4088

>  <PSA>  (202) 
60.834

>  <pKa_ma>  (202) 
6.3562

>  <pKa_mb>  (202) 
5.1601

>  <N_Chirals>  (202) 
1

>  <Name>  (202) 
2-(4-fluorophenyl)-N-(1-methyl-1,2,3,4-tetrahydroquinolin-7-yl)-4-oxo-4,5,6,7,8,9-hexahydro-3H-cyclohepta[d]pyrimidine-7-carboxamide

>  <Smile>  (202) 
CN(CCC1)c2c1ccc(NC(C(CC1)CCC(N=C(c(cc3)ccc3F)N3)=C1C3=O)=O)c2

>  <Color>  (202) 
BROWN

>  <Collection>  (202) 
IC

>  <InChI>  (202) 
InChI=1S/C26H27FN4O2/c1-31-14-2-3-16-6-11-20(15-23(16)31)28-25(32)18-7-12-21-22(13-8-18)29-24(30-26(21)33)17-4-9-19(27)10-5-17/h4-6,9-11,15,18H,2-3,7-8,12-14H2,1H3,(H,28,32)(H,29,30,33)/t18-/m1/s1

>  <InChI Key>  (202) 
ISKNMQZXQSLRSF-GOSISDBHSA-N

>  <PERCENTSP3>  (202) 
34.62

>  <Link>  (202) 
https://www.chemdiv.com/catalog/screening-compounds/compound-SB25-1064/

>  <MFCDNUMBER>  (202) 
MFCD32246928

>  <CLNUMBER>  (202) 
CM3995

>  <STEREO>  (202) 
RACEMIC MIXTURE

>  <State>  (202) 
Solid

>  <Similarity score>  (202) 
0.25

$$$$
7-[(2,5-difluorophenyl)methyl]-2-(4-methylpiperazin-1-yl)-3,5,6,7,8,9-hexahydro-
     RDKit          2D

 28 31  0  0  0  0  0  0  0  0999 V2000
    1.8176    0.6079    0.0000 C   0  0  0  0  0  0  0  0  0  0  0  0
    1.5920    1.5918    0.0000 N   0  0  0  0  0  0  0  0  0  0  0  0
   -0.1033    1.2065    0.0000 C   0  0  0  0  0  0  0  0  0  0  0  0
    1.0812   -0.0689    0.0000 N   0  0  0  0  0  0  0  0  0  0  0  0
    0.6300    1.8834    0.0000 C   0  0  0  0  0  0  0  0  0  0  0  0
    0.1223    0.2286    0.0000 C   0  0  0  0  0  0  0  0  0  0  0  0
    2.7765    0.3164    0.0000 N   0  0  0  0  0  0  0  0  0  0  0  0
   -3.3998   -0.9464    0.0000 C   0  0  0  0  0  0  0  0  0  0  0  0
   -2.1215    0.2286    0.0000 N   0  0  0  0  0  0  0  0  0  0  0  0
   -1.0058    1.6387    0.0000 C   0  0  0  0  0  0  0  0  0  0  0  0
   -0.4981   -0.5515    0.0000 C   0  0  0  0  0  0  0  0  0  0  0  0
    4.6815   -0.2695    0.0000 N   0  0  0  0  0  0  0  0  0  0  0  0
   -3.1022    0.0030    0.0000 C   0  0  0  0  0  0  0  0  0  0  0  0
   -2.7074   -1.6796    0.0000 C   0  0  0  0  0  0  0  0  0  0  0  0
    0.4167    2.8641    0.0000 O   0  0  0  0  0  0  0  0  0  0  0  0
   -4.3681   -1.1720    0.0000 C   0  0  0  0  0  0  0  0  0  0  0  0
    3.5097    1.0028    0.0000 C   0  0  0  0  0  0  0  0  0  0  0  0
    3.0021   -0.6548    0.0000 C   0  0  0  0  0  0  0  0  0  0  0  0
   -1.8959    1.2065    0.0000 C   0  0  0  0  0  0  0  0  0  0  0  0
   -1.5011   -0.5515    0.0000 C   0  0  0  0  0  0  0  0  0  0  0  0
   -3.0144   -2.6385    0.0000 C   0  0  0  0  0  0  0  0  0  0  0  0
    4.4559    0.6989    0.0000 C   0  0  0  0  0  0  0  0  0  0  0  0
    3.9483   -0.9464    0.0000 C   0  0  0  0  0  0  0  0  0  0  0  0
   -4.6597   -2.1308    0.0000 C   0  0  0  0  0  0  0  0  0  0  0  0
   -1.7390   -1.4635    0.0000 F   0  0  0  0  0  0  0  0  0  0  0  0
   -3.9828   -2.8641    0.0000 C   0  0  0  0  0  0  0  0  0  0  0  0
   -5.6404   -2.3565    0.0000 F   0  0  0  0  0  0  0  0  0  0  0  0
    5.6404   -0.5610    0.0000 C   0  0  0  0  0  0  0  0  0  0  0  0
  1  2  1  0
  3  6  2  0
  3  5  1  0
  1  4  2  0
  2  5  1  0
  4  6  1  0
  1  7  1  0
  8 13  1  0
  9 20  1  0
  9 19  1  0
  3 10  1  0
  6 11  1  0
 12 23  1  0
 12 22  1  0
  9 13  1  0
  8 14  2  0
  5 15  2  0
  8 16  1  0
  7 17  1  0
  7 18  1  0
 10 19  1  0
 11 20  1  0
 14 21  1  0
 21 26  2  0
 17 22  1  0
 18 23  1  0
 16 24  2  0
 14 25  1  0
 24 26  1  0
 24 27  1  0
 12 28  1  0
M  END
>  <IDNUMBER>  (203) 
S039-3679

>  <available>  (203) 
1

>  <H_acceptor>  (203) 
5

>  <H_donor>  (203) 
1

>  <B_rotN>  (203) 
3

>  <N_O>  (203) 
6

>  <logP>  (203) 
1.8037

>  <logD>  (203) 
0.584

>  <logSw>  (203) 
-2.5192

>  <PSA>  (203) 
45.276

>  <pKa_ma>  (203) 
9.6889

>  <pKa_mb>  (203) 
8.5927

>  <N_Chirals>  (203) 
0

>  <Name>  (203) 
7-[(2,5-difluorophenyl)methyl]-2-(4-methylpiperazin-1-yl)-3,5,6,7,8,9-hexahydro-4H-pyrimido[4,5-d]azepin-4-one

>  <Smile>  (203) 
CN(CC1)CCN1C(N1)=NC(CCN(Cc(cc(cc2)F)c2F)CC2)=C2C1=O

>  <Color>  (203) 
NOT COLORED

>  <Collection>  (203) 
IC

>  <InChI>  (203) 
InChI=1S/C20H25F2N5O/c1-25-8-10-27(11-9-25)20-23-18-5-7-26(6-4-16(18)19(28)24-20)13-14-12-15(21)2-3-17(14)22/h2-3,12H,4-11,13H2,1H3,(H,23,24,28)

>  <InChI Key>  (203) 
HXZPGVSUKKWVJZ-UHFFFAOYSA-N

>  <PERCENTSP3>  (203) 
50

>  <Link>  (203) 
https://www.chemdiv.com/catalog/screening-compounds/compound-S039-3679/

>  <MFCDNUMBER>  (203) 
MFCD29000063

>  <CLNUMBER>  (203) 
CM2417

>  <STEREO>  (203) 
ACHIRAL

>  <State>  (203) 
Solid

>  <Similarity score>  (203) 
0.25

$$$$
7-[(5-chloro-2-fluorophenyl)methyl]-2-(morpholin-4-yl)-3,5,6,7,8,9-hexahydro-4H-
     RDKit          2D

 27 30  0  0  0  0  0  0  0  0999 V2000
    2.2857    0.6125    0.0000 C   0  0  0  0  0  0  0  0  0  0  0  0
    2.0693    1.5962    0.0000 N   0  0  0  0  0  0  0  0  0  0  0  0
    0.3774    1.2014    0.0000 C   0  0  0  0  0  0  0  0  0  0  0  0
    1.5524   -0.0673    0.0000 N   0  0  0  0  0  0  0  0  0  0  0  0
    1.1106    1.8812    0.0000 C   0  0  0  0  0  0  0  0  0  0  0  0
    0.5938    0.2335    0.0000 C   0  0  0  0  0  0  0  0  0  0  0  0
    3.2443    0.3178    0.0000 N   0  0  0  0  0  0  0  0  0  0  0  0
   -2.9216   -0.9509    0.0000 C   0  0  0  0  0  0  0  0  0  0  0  0
   -1.6432    0.2335    0.0000 N   0  0  0  0  0  0  0  0  0  0  0  0
   -0.5152    1.6339    0.0000 C   0  0  0  0  0  0  0  0  0  0  0  0
   -0.0203   -0.5468    0.0000 C   0  0  0  0  0  0  0  0  0  0  0  0
   -2.6209    0.0077    0.0000 C   0  0  0  0  0  0  0  0  0  0  0  0
   -2.2386   -1.6841    0.0000 C   0  0  0  0  0  0  0  0  0  0  0  0
    0.8852    2.8588    0.0000 O   0  0  0  0  0  0  0  0  0  0  0  0
   -3.8896   -1.1670    0.0000 C   0  0  0  0  0  0  0  0  0  0  0  0
   -1.4272    1.2014    0.0000 C   0  0  0  0  0  0  0  0  0  0  0  0
   -1.0230   -0.5468    0.0000 C   0  0  0  0  0  0  0  0  0  0  0  0
    5.1522   -0.2740    0.0000 O   0  0  0  0  0  0  0  0  0  0  0  0
   -2.5268   -2.6334    0.0000 C   0  0  0  0  0  0  0  0  0  0  0  0
   -4.1843   -2.1259    0.0000 C   0  0  0  0  0  0  0  0  0  0  0  0
   -1.2578   -1.4584    0.0000 F   0  0  0  0  0  0  0  0  0  0  0  0
   -3.5042   -2.8588    0.0000 C   0  0  0  0  0  0  0  0  0  0  0  0
   -5.1522   -2.3420    0.0000 Cl  0  0  0  0  0  0  0  0  0  0  0  0
    3.4604   -0.6501    0.0000 C   0  0  0  0  0  0  0  0  0  0  0  0
    3.9772    1.0040    0.0000 C   0  0  0  0  0  0  0  0  0  0  0  0
    4.9362    0.7065    0.0000 C   0  0  0  0  0  0  0  0  0  0  0  0
    4.4190   -0.9509    0.0000 C   0  0  0  0  0  0  0  0  0  0  0  0
  1  2  1  0
  3  6  2  0
  3  5  1  0
  1  4  2  0
  2  5  1  0
  4  6  1  0
  1  7  1  0
  8 12  1  0
  9 17  1  0
  9 16  1  0
  3 10  1  0
  6 11  1  0
  9 12  1  0
  8 13  2  0
  5 14  2  0
  8 15  1  0
 10 16  1  0
 11 17  1  0
 18 26  1  0
 18 27  1  0
 13 19  1  0
 19 22  2  0
 15 20  2  0
 13 21  1  0
 20 22  1  0
 20 23  1  0
  7 24  1  0
  7 25  1  0
 25 26  1  0
 24 27  1  0
M  END
>  <IDNUMBER>  (204) 
S039-3182

>  <available>  (204) 
17

>  <H_acceptor>  (204) 
5

>  <H_donor>  (204) 
1

>  <B_rotN>  (204) 
3

>  <N_O>  (204) 
6

>  <logP>  (204) 
2.2817

>  <logD>  (204) 
2.1419

>  <logSw>  (204) 
-3.452

>  <PSA>  (204) 
49.708

>  <pKa_ma>  (204) 
9.6889

>  <pKa_mb>  (204) 
6.9712

>  <N_Chirals>  (204) 
0

>  <Name>  (204) 
7-[(5-chloro-2-fluorophenyl)methyl]-2-(morpholin-4-yl)-3,5,6,7,8,9-hexahydro-4H-pyrimido[4,5-d]azepin-4-one

>  <Smile>  (204) 
O=C1NC(N2CCOCC2)=NC2=C1CCN(Cc(cc(cc1)Cl)c1F)CC2

>  <Color>  (204) 
NOT COLORED

>  <Collection>  (204) 
IC

>  <InChI>  (204) 
InChI=1S/C19H22ClFN4O2/c20-14-1-2-16(21)13(11-14)12-24-5-3-15-17(4-6-24)22-19(23-18(15)26)25-7-9-27-10-8-25/h1-2,11H,3-10,12H2,(H,22,23,26)

>  <InChI Key>  (204) 
LWVLGXXCIKKWBK-UHFFFAOYSA-N

>  <PERCENTSP3>  (204) 
47.4

>  <Link>  (204) 
https://www.chemdiv.com/catalog/screening-compounds/compound-S039-3182/

>  <MFCDNUMBER>  (204) 
MFCD29000064

>  <CLNUMBER>  (204) 
CM2417

>  <STEREO>  (204) 
ACHIRAL

>  <State>  (204) 
Solid

>  <Similarity score>  (204) 
0.25

$$$$
7-[(5-chloro-2-fluorophenyl)methyl]-2-(4-methylpiperazin-1-yl)-3,5,6,7,8,9-hexah
     RDKit          2D

 28 31  0  0  0  0  0  0  0  0999 V2000
    1.8176    0.6079    0.0000 C   0  0  0  0  0  0  0  0  0  0  0  0
    1.5920    1.5918    0.0000 N   0  0  0  0  0  0  0  0  0  0  0  0
   -0.1033    1.2065    0.0000 C   0  0  0  0  0  0  0  0  0  0  0  0
    1.0812   -0.0689    0.0000 N   0  0  0  0  0  0  0  0  0  0  0  0
    0.6300    1.8834    0.0000 C   0  0  0  0  0  0  0  0  0  0  0  0
    0.1223    0.2286    0.0000 C   0  0  0  0  0  0  0  0  0  0  0  0
    2.7765    0.3164    0.0000 N   0  0  0  0  0  0  0  0  0  0  0  0
   -3.3998   -0.9464    0.0000 C   0  0  0  0  0  0  0  0  0  0  0  0
   -2.1215    0.2286    0.0000 N   0  0  0  0  0  0  0  0  0  0  0  0
   -1.0058    1.6387    0.0000 C   0  0  0  0  0  0  0  0  0  0  0  0
   -0.4981   -0.5515    0.0000 C   0  0  0  0  0  0  0  0  0  0  0  0
    4.6815   -0.2695    0.0000 N   0  0  0  0  0  0  0  0  0  0  0  0
   -3.1022    0.0030    0.0000 C   0  0  0  0  0  0  0  0  0  0  0  0
   -2.7074   -1.6796    0.0000 C   0  0  0  0  0  0  0  0  0  0  0  0
    0.4167    2.8641    0.0000 O   0  0  0  0  0  0  0  0  0  0  0  0
   -4.3681   -1.1720    0.0000 C   0  0  0  0  0  0  0  0  0  0  0  0
    3.5097    1.0028    0.0000 C   0  0  0  0  0  0  0  0  0  0  0  0
    3.0021   -0.6548    0.0000 C   0  0  0  0  0  0  0  0  0  0  0  0
   -1.8959    1.2065    0.0000 C   0  0  0  0  0  0  0  0  0  0  0  0
   -1.5011   -0.5515    0.0000 C   0  0  0  0  0  0  0  0  0  0  0  0
   -3.0144   -2.6385    0.0000 C   0  0  0  0  0  0  0  0  0  0  0  0
    4.4559    0.6989    0.0000 C   0  0  0  0  0  0  0  0  0  0  0  0
    3.9483   -0.9464    0.0000 C   0  0  0  0  0  0  0  0  0  0  0  0
   -4.6597   -2.1308    0.0000 C   0  0  0  0  0  0  0  0  0  0  0  0
   -1.7390   -1.4635    0.0000 F   0  0  0  0  0  0  0  0  0  0  0  0
   -3.9828   -2.8641    0.0000 C   0  0  0  0  0  0  0  0  0  0  0  0
   -5.6404   -2.3565    0.0000 Cl  0  0  0  0  0  0  0  0  0  0  0  0
    5.6404   -0.5610    0.0000 C   0  0  0  0  0  0  0  0  0  0  0  0
  1  2  1  0
  3  6  2  0
  3  5  1  0
  1  4  2  0
  2  5  1  0
  4  6  1  0
  1  7  1  0
  8 13  1  0
  9 20  1  0
  9 19  1  0
  3 10  1  0
  6 11  1  0
 12 23  1  0
 12 22  1  0
  9 13  1  0
  8 14  2  0
  5 15  2  0
  8 16  1  0
  7 17  1  0
  7 18  1  0
 10 19  1  0
 11 20  1  0
 14 21  1  0
 21 26  2  0
 17 22  1  0
 18 23  1  0
 16 24  2  0
 14 25  1  0
 24 26  1  0
 24 27  1  0
 12 28  1  0
M  END
>  <IDNUMBER>  (205) 
S039-3683

>  <available>  (205) 
28

>  <H_acceptor>  (205) 
5

>  <H_donor>  (205) 
1

>  <B_rotN>  (205) 
3

>  <N_O>  (205) 
6

>  <logP>  (205) 
2.2585

>  <logD>  (205) 
1.0387

>  <logSw>  (205) 
-3.4434

>  <PSA>  (205) 
45.276

>  <pKa_ma>  (205) 
9.6889

>  <pKa_mb>  (205) 
8.5927

>  <N_Chirals>  (205) 
0

>  <Name>  (205) 
7-[(5-chloro-2-fluorophenyl)methyl]-2-(4-methylpiperazin-1-yl)-3,5,6,7,8,9-hexahydro-4H-pyrimido[4,5-d]azepin-4-one

>  <Smile>  (205) 
CN(CC1)CCN1C(N1)=NC(CCN(Cc(cc(cc2)Cl)c2F)CC2)=C2C1=O

>  <Color>  (205) 
NOT COLORED

>  <Collection>  (205) 
IC

>  <InChI>  (205) 
InChI=1S/C20H25ClFN5O/c1-25-8-10-27(11-9-25)20-23-18-5-7-26(6-4-16(18)19(28)24-20)13-14-12-15(21)2-3-17(14)22/h2-3,12H,4-11,13H2,1H3,(H,23,24,28)

>  <InChI Key>  (205) 
BXQGVDAKYZEHKC-UHFFFAOYSA-N

>  <PERCENTSP3>  (205) 
50

>  <Link>  (205) 
https://www.chemdiv.com/catalog/screening-compounds/compound-S039-3683/

>  <MFCDNUMBER>  (205) 
MFCD28999067

>  <CLNUMBER>  (205) 
CM2417

>  <STEREO>  (205) 
ACHIRAL

>  <State>  (205) 
Solid

>  <Similarity score>  (205) 
0.24

$$$$
7-[(2,4-difluorophenyl)methyl]-2-(4-methylpiperazin-1-yl)-3,5,6,7,8,9-hexahydro-
     RDKit          2D

 28 31  0  0  0  0  0  0  0  0999 V2000
    1.5151    1.0982    0.0000 C   0  0  0  0  0  0  0  0  0  0  0  0
    1.3052    2.0696    0.0000 N   0  0  0  0  0  0  0  0  0  0  0  0
   -0.3932    1.6844    0.0000 C   0  0  0  0  0  0  0  0  0  0  0  0
    0.7911    0.4122    0.0000 N   0  0  0  0  0  0  0  0  0  0  0  0
    0.3401    2.3580    0.0000 C   0  0  0  0  0  0  0  0  0  0  0  0
   -0.1709    0.7037    0.0000 C   0  0  0  0  0  0  0  0  0  0  0  0
    2.4768    0.7975    0.0000 N   0  0  0  0  0  0  0  0  0  0  0  0
   -3.6895   -0.4717    0.0000 C   0  0  0  0  0  0  0  0  0  0  0  0
   -2.4144    0.7037    0.0000 N   0  0  0  0  0  0  0  0  0  0  0  0
   -1.2955    2.1136    0.0000 C   0  0  0  0  0  0  0  0  0  0  0  0
   -4.6609   -0.6970    0.0000 C   0  0  0  0  0  0  0  0  0  0  0  0
   -0.7881   -0.0674    0.0000 C   0  0  0  0  0  0  0  0  0  0  0  0
    4.3915    0.2083    0.0000 N   0  0  0  0  0  0  0  0  0  0  0  0
   -4.9616   -1.6466    0.0000 C   0  0  0  0  0  0  0  0  0  0  0  0
   -3.3858    0.4874    0.0000 C   0  0  0  0  0  0  0  0  0  0  0  0
    0.1145    3.3387    0.0000 O   0  0  0  0  0  0  0  0  0  0  0  0
    3.2072    1.4838    0.0000 C   0  0  0  0  0  0  0  0  0  0  0  0
    2.7058   -0.1769    0.0000 C   0  0  0  0  0  0  0  0  0  0  0  0
   -3.0159   -1.2017    0.0000 C   0  0  0  0  0  0  0  0  0  0  0  0
   -2.1887    1.6844    0.0000 C   0  0  0  0  0  0  0  0  0  0  0  0
   -1.7939   -0.0674    0.0000 C   0  0  0  0  0  0  0  0  0  0  0  0
   -4.2850   -2.3890    0.0000 C   0  0  0  0  0  0  0  0  0  0  0  0
    3.6551   -0.4717    0.0000 C   0  0  0  0  0  0  0  0  0  0  0  0
    4.1659    1.1830    0.0000 C   0  0  0  0  0  0  0  0  0  0  0  0
   -5.3408    0.0424    0.0000 F   0  0  0  0  0  0  0  0  0  0  0  0
   -3.3010   -2.1634    0.0000 C   0  0  0  0  0  0  0  0  0  0  0  0
   -4.5764   -3.3387    0.0000 F   0  0  0  0  0  0  0  0  0  0  0  0
    5.3408   -0.0861    0.0000 C   0  0  0  0  0  0  0  0  0  0  0  0
  1  2  1  0
  3  6  2  0
  3  5  1  0
  1  4  2  0
  2  5  1  0
  4  6  1  0
  1  7  1  0
  8 15  1  0
  9 21  1  0
  9 20  1  0
  3 10  1  0
  8 11  2  0
  6 12  1  0
 13 23  1  0
 13 24  1  0
 11 14  1  0
 14 22  2  0
  9 15  1  0
  5 16  2  0
  7 17  1  0
  7 18  1  0
  8 19  1  0
 10 20  1  0
 12 21  1  0
 22 26  1  0
 18 23  1  0
 17 24  1  0
 11 25  1  0
 19 26  2  0
 22 27  1  0
 13 28  1  0
M  END
>  <IDNUMBER>  (206) 
S039-3665

>  <available>  (206) 
1

>  <H_acceptor>  (206) 
5

>  <H_donor>  (206) 
1

>  <B_rotN>  (206) 
3

>  <N_O>  (206) 
6

>  <logP>  (206) 
1.6717

>  <logD>  (206) 
0.452

>  <logSw>  (206) 
-2.4529

>  <PSA>  (206) 
45.276

>  <pKa_ma>  (206) 
9.6889

>  <pKa_mb>  (206) 
8.5927

>  <N_Chirals>  (206) 
0

>  <Name>  (206) 
7-[(2,4-difluorophenyl)methyl]-2-(4-methylpiperazin-1-yl)-3,5,6,7,8,9-hexahydro-4H-pyrimido[4,5-d]azepin-4-one

>  <Smile>  (206) 
CN(CC1)CCN1C(N1)=NC(CCN(Cc(ccc(F)c2)c2F)CC2)=C2C1=O

>  <Color>  (206) 
NOT COLORED

>  <Collection>  (206) 
IC

>  <InChI>  (206) 
InChI=1S/C20H25F2N5O/c1-25-8-10-27(11-9-25)20-23-18-5-7-26(6-4-16(18)19(28)24-20)13-14-2-3-15(21)12-17(14)22/h2-3,12H,4-11,13H2,1H3,(H,23,24,28)

>  <InChI Key>  (206) 
BVOBTXVCGMXIMZ-UHFFFAOYSA-N

>  <PERCENTSP3>  (206) 
50

>  <Link>  (206) 
https://www.chemdiv.com/catalog/screening-compounds/compound-S039-3665/

>  <MFCDNUMBER>  (206) 
MFCD28999058

>  <CLNUMBER>  (206) 
CM2417

>  <STEREO>  (206) 
ACHIRAL

>  <State>  (206) 
Solid

>  <Similarity score>  (206) 
0.24

$$$$
1-amino-N-(2,4-dimethoxyphenyl)-7-methyl-5-(morpholin-4-yl)-6,7,8,9-tetrahydroth
     RDKit          2D

 34 38  0  0  0  0  0  0  0  0999 V2000
   -0.0647    0.4770    0.0000 C   0  0  0  0  0  0  0  0  0  0  0  0
   -1.6025    0.9772    0.0000 C   0  0  0  0  0  0  0  0  0  0  0  0
   -0.6523    1.2814    0.0000 C   0  0  0  0  0  0  0  0  0  0  0  0
   -3.3277    0.9772    0.0000 C   0  0  0  0  0  0  0  0  0  0  0  0
   -1.6025   -0.0230    0.0000 C   0  0  0  0  0  0  0  0  0  0  0  0
   -3.3277   -0.0230    0.0000 C   0  0  0  0  0  0  0  0  0  0  0  0
   -2.4650   -0.5232    0.0000 N   0  0  0  0  0  0  0  0  0  0  0  0
   -0.6523   -0.3355    0.0000 S   0  0  0  0  0  0  0  0  0  0  0  0
   -2.4650    1.4731    0.0000 C   0  0  0  0  0  0  0  0  0  0  0  0
    0.9315    0.4646    0.0000 C   0  0  0  0  0  0  0  0  0  0  0  0
   -4.1944   -0.5232    0.0000 N   0  0  0  0  0  0  0  0  0  0  0  0
    1.4315   -0.3939    0.0000 N   0  0  0  0  0  0  0  0  0  0  0  0
   -4.1944    1.4731    0.0000 C   0  0  0  0  0  0  0  0  0  0  0  0
    2.4359   -0.3939    0.0000 C   0  0  0  0  0  0  0  0  0  0  0  0
   -4.1944    2.4776    0.0000 N   0  0  0  0  0  0  0  0  0  0  0  0
   -2.4650    2.4776    0.0000 C   0  0  0  0  0  0  0  0  0  0  0  0
    2.9359   -1.2649    0.0000 C   0  0  0  0  0  0  0  0  0  0  0  0
    3.9320   -1.2649    0.0000 C   0  0  0  0  0  0  0  0  0  0  0  0
    1.4315    1.3398    0.0000 O   0  0  0  0  0  0  0  0  0  0  0  0
   -0.3479    2.2358    0.0000 N   0  0  0  0  0  0  0  0  0  0  0  0
    2.9359    0.4646    0.0000 C   0  0  0  0  0  0  0  0  0  0  0  0
   -3.3277    2.9776    0.0000 C   0  0  0  0  0  0  0  0  0  0  0  0
   -5.9282   -1.5317    0.0000 O   0  0  0  0  0  0  0  0  0  0  0  0
    4.4320   -0.3939    0.0000 C   0  0  0  0  0  0  0  0  0  0  0  0
    3.9320    0.4646    0.0000 C   0  0  0  0  0  0  0  0  0  0  0  0
    2.4359   -2.1191    0.0000 O   0  0  0  0  0  0  0  0  0  0  0  0
   -4.1944   -1.5317    0.0000 C   0  0  0  0  0  0  0  0  0  0  0  0
   -5.0571   -0.0230    0.0000 C   0  0  0  0  0  0  0  0  0  0  0  0
    5.4322   -0.3939    0.0000 O   0  0  0  0  0  0  0  0  0  0  0  0
   -5.0695    2.9859    0.0000 C   0  0  0  0  0  0  0  0  0  0  0  0
   -5.9282   -0.5232    0.0000 C   0  0  0  0  0  0  0  0  0  0  0  0
   -5.0571   -2.0274    0.0000 C   0  0  0  0  0  0  0  0  0  0  0  0
    2.9359   -2.9859    0.0000 C   0  0  0  0  0  0  0  0  0  0  0  0
    5.9282    0.4770    0.0000 C   0  0  0  0  0  0  0  0  0  0  0  0
  2  3  1  0
  2  5  2  0
  1  3  2  0
  4  9  2  0
  4  6  1  0
  5  8  1  0
  6  7  2  0
  5  7  1  0
  1  8  1  0
  2  9  1  0
  1 10  1  0
  6 11  1  0
 10 12  1  0
  4 13  1  0
 13 15  1  0
 12 14  1  0
 15 22  1  0
  9 16  1  0
 14 17  2  0
 17 18  1  0
 18 24  2  0
 10 19  2  0
  3 20  1  0
 14 21  1  0
 16 22  1  0
 23 31  1  0
 23 32  1  0
 24 25  1  0
 21 25  2  0
 17 26  1  0
 11 27  1  0
 11 28  1  0
 24 29  1  0
 15 30  1  0
 28 31  1  0
 27 32  1  0
 26 33  1  0
 29 34  1  0
M  END
>  <IDNUMBER>  (207) 
IB04-3808

>  <available>  (207) 
50

>  <H_acceptor>  (207) 
7

>  <H_donor>  (207) 
3

>  <B_rotN>  (207) 
6

>  <N_O>  (207) 
9

>  <logP>  (207) 
3.04

>  <logD>  (207) 
1.81

>  <logSw>  (207) 
-3.91

>  <PSA>  (207) 
132.55

>  <pKa_ma>  (207) 
11.28

>  <pKa_mb>  (207) 
8.6

>  <N_Chirals>  (207) 
0

>  <Name>  (207) 
1-amino-N-(2,4-dimethoxyphenyl)-7-methyl-5-(morpholin-4-yl)-6,7,8,9-tetrahydrothieno[2,3-c][2,7]naphthyridine-2-carboxamide

>  <Smile>  (207) 
CN(CCc1c23)Cc1c(N1CCOCC1)nc2sc(C(Nc(ccc(OC)c1)c1OC)=O)c3N

>  <Color>  (207) 
NOT COLORED

>  <Collection>  (207) 
DC

>  <InChI>  (207) 
InChI=1S/C24H29N5O4S/c1-28-7-6-15-16(13-28)22(29-8-10-33-11-9-29)27-24-19(15)20(25)21(34-24)23(30)26-17-5-4-14(31-2)12-18(17)32-3/h4-5,12H,6-11,13,25H2,1-3H3,(H,26,30)

>  <InChI Key>  (207) 
JDFVILXQAFEFBH-UHFFFAOYSA-N

>  <PERCENTSP3>  (207) 
41.7

>  <Link>  (207) 
https://www.chemdiv.com/catalog/screening-compounds/compound-IB04-3808/

>  <STEREO>  (207) 
ACHIRAL

>  <State>  (207) 
Solid

>  <Similarity score>  (207) 
0.24

$$$$
N-(3-methoxyphenyl)-1-(2-methyl-5,6,8,9-tetrahydrooxepino[4,5-d]pyrimidin-4-yl)p
     RDKit          2D

 29 32  0  0  0  0  0  0  0  0999 V2000
   -2.8615   -0.4904    0.0000 C   0  0  0  0  0  0  0  0  0  0  0  0
   -3.7175    0.0080    0.0000 C   0  0  0  0  0  0  0  0  0  0  0  0
   -2.8615   -1.4934    0.0000 N   0  0  0  0  0  0  0  0  0  0  0  0
   -1.9871    0.0080    0.0000 N   0  0  0  0  0  0  0  0  0  0  0  0
   -4.5920   -0.4904    0.0000 C   0  0  0  0  0  0  0  0  0  0  0  0
   -4.5920   -1.4934    0.0000 N   0  0  0  0  0  0  0  0  0  0  0  0
    0.6175    1.5061    0.0000 C   0  0  0  0  0  0  0  0  0  0  0  0
   -3.7175   -1.9918    0.0000 C   0  0  0  0  0  0  0  0  0  0  0  0
    1.4731    0.9953    0.0000 N   0  0  0  0  0  0  0  0  0  0  0  0
   -0.2570    0.9953    0.0000 C   0  0  0  0  0  0  0  0  0  0  0  0
   -1.9871    1.0048    0.0000 C   0  0  0  0  0  0  0  0  0  0  0  0
   -1.1253   -0.4904    0.0000 C   0  0  0  0  0  0  0  0  0  0  0  0
    2.3475    1.4937    0.0000 C   0  0  0  0  0  0  0  0  0  0  0  0
    0.6175    2.5091    0.0000 O   0  0  0  0  0  0  0  0  0  0  0  0
    3.2097    0.9953    0.0000 C   0  0  0  0  0  0  0  0  0  0  0  0
   -1.1126    1.5061    0.0000 C   0  0  0  0  0  0  0  0  0  0  0  0
   -0.2570   -0.0015    0.0000 C   0  0  0  0  0  0  0  0  0  0  0  0
   -5.2406    1.6567    0.0000 O   0  0  0  0  0  0  0  0  0  0  0  0
   -5.5227   -0.1143    0.0000 C   0  0  0  0  0  0  0  0  0  0  0  0
    4.0780    1.4937    0.0000 C   0  0  0  0  0  0  0  0  0  0  0  0
   -3.5668    0.9953    0.0000 C   0  0  0  0  0  0  0  0  0  0  0  0
    4.9397    0.9953    0.0000 O   0  0  0  0  0  0  0  0  0  0  0  0
   -3.7298   -2.9919    0.0000 C   0  0  0  0  0  0  0  0  0  0  0  0
   -5.8080    0.8353    0.0000 C   0  0  0  0  0  0  0  0  0  0  0  0
    3.2220    2.9919    0.0000 C   0  0  0  0  0  0  0  0  0  0  0  0
   -4.2533    1.7380    0.0000 C   0  0  0  0  0  0  0  0  0  0  0  0
    2.3475    2.4935    0.0000 C   0  0  0  0  0  0  0  0  0  0  0  0
    4.0780    2.4935    0.0000 C   0  0  0  0  0  0  0  0  0  0  0  0
    5.8080    1.4937    0.0000 C   0  0  0  0  0  0  0  0  0  0  0  0
  1  2  1  0
  1  3  2  0
  1  4  1  0
  2  5  2  0
  6  8  2  0
  5  6  1  0
  7 10  1  0
  3  8  1  0
  7  9  1  0
 10 17  1  0
  4 11  1  0
  4 12  1  0
  9 13  1  0
  7 14  2  0
 13 15  2  0
 11 16  1  0
 10 16  1  0
 12 17  1  0
 18 26  1  0
  5 19  1  0
 15 20  1  0
  2 21  1  0
 20 22  1  0
  8 23  1  0
 19 24  1  0
 18 24  1  0
 25 27  2  0
 21 26  1  0
 13 27  1  0
 25 28  1  0
 20 28  2  0
 22 29  1  0
M  END
>  <IDNUMBER>  (208) 
S896-0376

>  <available>  (208) 
1

>  <H_acceptor>  (208) 
6

>  <H_donor>  (208) 
1

>  <B_rotN>  (208) 
5

>  <N_O>  (208) 
7

>  <logP>  (208) 
2.9178

>  <logD>  (208) 
2.9068

>  <logSw>  (208) 
-3.325

>  <PSA>  (208) 
62.104

>  <pKa_ma>  (208) 
11.0969

>  <pKa_mb>  (208) 
5.8035

>  <N_Chirals>  (208) 
0

>  <Name>  (208) 
N-(3-methoxyphenyl)-1-(2-methyl-5,6,8,9-tetrahydrooxepino[4,5-d]pyrimidin-4-yl)piperidine-4-carboxamide

>  <Smile>  (208) 
Cc1nc(CCOCC2)c2c(N(CC2)CCC2C(Nc2cc(OC)ccc2)=O)n1

>  <Color>  (208) 
YELLOW

>  <Collection>  (208) 
IC

>  <InChI>  (208) 
InChI=1S/C22H28N4O3/c1-15-23-20-9-13-29-12-8-19(20)21(24-15)26-10-6-16(7-11-26)22(27)25-17-4-3-5-18(14-17)28-2/h3-5,14,16H,6-13H2,1-2H3,(H,25,27)

>  <InChI Key>  (208) 
URUWRLLCCCQVHG-UHFFFAOYSA-N

>  <PERCENTSP3>  (208) 
50

>  <Link>  (208) 
https://www.chemdiv.com/catalog/screening-compounds/compound-S896-0376/

>  <MFCDNUMBER>  (208) 
MFCD31957143

>  <CLNUMBER>  (208) 
CM3993

>  <STEREO>  (208) 
ACHIRAL

>  <State>  (208) 
Solid

>  <Similarity score>  (208) 
0.24

$$$$
N-(3,4-dimethoxyphenyl)-2-(9-fluoro-6-methyl-10-oxo-3,4,5,10-tetrahydrobenzo[b][
     RDKit          2D

 31 34  0  0  0  0  0  0  0  0999 V2000
   -0.8899   -1.9568    0.0000 C   0  0  0  0  0  0  0  0  0  0  0  0
   -1.7672   -1.4585    0.0000 C   0  0  0  0  0  0  0  0  0  0  0  0
   -2.6415   -1.9568    0.0000 C   0  0  0  0  0  0  0  0  0  0  0  0
   -1.7829   -3.4421    0.0000 N   0  0  0  0  0  0  0  0  0  0  0  0
   -2.6415   -2.9344    0.0000 C   0  0  0  0  0  0  0  0  0  0  0  0
   -0.8899   -2.9532    0.0000 C   0  0  0  0  0  0  0  0  0  0  0  0
    0.8678   -1.9568    0.0000 N   0  0  0  0  0  0  0  0  0  0  0  0
    0.0032   -1.4773    0.0000 C   0  0  0  0  0  0  0  0  0  0  0  0
    1.7608   -0.4967    0.0000 C   0  0  0  0  0  0  0  0  0  0  0  0
   -3.5345   -1.4773    0.0000 C   0  0  0  0  0  0  0  0  0  0  0  0
   -0.0156   -3.4421    0.0000 C   0  0  0  0  0  0  0  0  0  0  0  0
    3.5376    1.4491    0.0000 C   0  0  0  0  0  0  0  0  0  0  0  0
    3.5376    2.4330    0.0000 C   0  0  0  0  0  0  0  0  0  0  0  0
   -3.5345   -3.4233    0.0000 C   0  0  0  0  0  0  0  0  0  0  0  0
    2.6539   -0.0110    0.0000 N   0  0  0  0  0  0  0  0  0  0  0  0
   -1.7672   -0.4779    0.0000 O   0  0  0  0  0  0  0  0  0  0  0  0
    2.6539    0.9759    0.0000 C   0  0  0  0  0  0  0  0  0  0  0  0
    1.7608   -1.4773    0.0000 C   0  0  0  0  0  0  0  0  0  0  0  0
    2.6539    2.9220    0.0000 C   0  0  0  0  0  0  0  0  0  0  0  0
    0.8678   -0.0110    0.0000 O   0  0  0  0  0  0  0  0  0  0  0  0
    0.8678   -2.9532    0.0000 C   0  0  0  0  0  0  0  0  0  0  0  0
   -4.4088   -1.9568    0.0000 C   0  0  0  0  0  0  0  0  0  0  0  0
   -4.4088   -2.9344    0.0000 C   0  0  0  0  0  0  0  0  0  0  0  0
    1.7796    2.4330    0.0000 C   0  0  0  0  0  0  0  0  0  0  0  0
    1.7796    1.4491    0.0000 C   0  0  0  0  0  0  0  0  0  0  0  0
   -3.5439   -0.4685    0.0000 F   0  0  0  0  0  0  0  0  0  0  0  0
    4.4088    2.9438    0.0000 O   0  0  0  0  0  0  0  0  0  0  0  0
    2.6539    3.9183    0.0000 O   0  0  0  0  0  0  0  0  0  0  0  0
   -3.5439   -4.4197    0.0000 C   0  0  0  0  0  0  0  0  0  0  0  0
    4.3897    3.9465    0.0000 C   0  0  0  0  0  0  0  0  0  0  0  0
    1.7984    4.4197    0.0000 C   0  0  0  0  0  0  0  0  0  0  0  0
  1  2  1  0
  2  3  1  0
  3  5  1  0
  4  6  1  0
  4  5  1  0
  1  6  2  0
  7  8  1  0
  1  8  1  0
  9 18  1  0
  3 10  2  0
  6 11  1  0
 11 21  1  0
 12 17  1  0
 12 13  2  0
 13 19  1  0
  5 14  2  0
  9 15  1  0
  2 16  2  0
 15 17  1  0
  7 18  1  0
 19 24  2  0
  9 20  2  0
  7 21  1  0
 10 22  1  0
 22 23  2  0
 14 23  1  0
 24 25  1  0
 17 25  2  0
 10 26  1  0
 13 27  1  0
 19 28  1  0
 14 29  1  0
 27 30  1  0
 28 31  1  0
M  END
>  <IDNUMBER>  (209) 
L489-1903

>  <available>  (209) 
84

>  <H_acceptor>  (209) 
7

>  <H_donor>  (209) 
2

>  <B_rotN>  (209) 
6

>  <N_O>  (209) 
7

>  <logP>  (209) 
3.1341

>  <logD>  (209) 
2.2371

>  <logSw>  (209) 
-3.0764

>  <PSA>  (209) 
64.072

>  <pKa_ma>  (209) 
6.5619

>  <pKa_mb>  (209) 
2.3077

>  <N_Chirals>  (209) 
0

>  <Name>  (209) 
N-(3,4-dimethoxyphenyl)-2-(9-fluoro-6-methyl-10-oxo-3,4,5,10-tetrahydrobenzo[b][1,6]naphthyridin-2(1H)-yl)acetamide

>  <Smile>  (209) 
Cc(ccc(F)c12)c2NC(CCN(CC(Nc(cc2)cc(OC)c2OC)=O)C2)=C2C1=O

>  <Color>  (209) 
ORANGE

>  <Collection>  (209) 
NC

>  <InChI>  (209) 
InChI=1S/C23H24FN3O4/c1-13-4-6-16(24)21-22(13)26-17-8-9-27(11-15(17)23(21)29)12-20(28)25-14-5-7-18(30-2)19(10-14)31-3/h4-7,10H,8-9,11-12H2,1-3H3,(H,25,28)(H,26,29)

>  <InChI Key>  (209) 
ROXCJPIGJMSJLC-UHFFFAOYSA-N

>  <PERCENTSP3>  (209) 
30.4

>  <Link>  (209) 
https://www.chemdiv.com/catalog/screening-compounds/compound-L489-1903/

>  <MFCDNUMBER>  (209) 
MFCD27457669

>  <CLNUMBER>  (209) 
CL8213A

>  <STEREO>  (209) 
ACHIRAL

>  <State>  (209) 
Solid

>  <Similarity score>  (209) 
0.24

$$$$
2-(6,9-difluoro-10-oxo-3,4,5,10-tetrahydrobenzo[b][1,6]naphthyridin-2(1H)-yl)-N-
     RDKit          2D

 30 33  0  0  0  0  0  0  0  0999 V2000
   -0.4781   -2.4438    0.0000 C   0  0  0  0  0  0  0  0  0  0  0  0
   -1.3340   -1.9391    0.0000 C   0  0  0  0  0  0  0  0  0  0  0  0
   -2.2182   -2.4438    0.0000 C   0  0  0  0  0  0  0  0  0  0  0  0
   -1.3623   -3.9302    0.0000 N   0  0  0  0  0  0  0  0  0  0  0  0
   -2.2182   -3.4252    0.0000 C   0  0  0  0  0  0  0  0  0  0  0  0
   -0.4781   -3.4348    0.0000 C   0  0  0  0  0  0  0  0  0  0  0  0
    1.3153   -2.4438    0.0000 N   0  0  0  0  0  0  0  0  0  0  0  0
    0.4310   -1.9579    0.0000 C   0  0  0  0  0  0  0  0  0  0  0  0
    2.1933   -0.9765    0.0000 C   0  0  0  0  0  0  0  0  0  0  0  0
   -3.1055   -1.9579    0.0000 C   0  0  0  0  0  0  0  0  0  0  0  0
    0.4154   -3.9302    0.0000 C   0  0  0  0  0  0  0  0  0  0  0  0
   -3.1055   -3.9302    0.0000 C   0  0  0  0  0  0  0  0  0  0  0  0
   -1.3340   -0.9673    0.0000 O   0  0  0  0  0  0  0  0  0  0  0  0
    3.0963   -0.4905    0.0000 N   0  0  0  0  0  0  0  0  0  0  0  0
    2.1933   -1.9579    0.0000 C   0  0  0  0  0  0  0  0  0  0  0  0
    1.3153   -0.4905    0.0000 O   0  0  0  0  0  0  0  0  0  0  0  0
    1.3153   -3.4348    0.0000 C   0  0  0  0  0  0  0  0  0  0  0  0
   -3.9802   -2.4438    0.0000 C   0  0  0  0  0  0  0  0  0  0  0  0
   -3.9802   -3.4252    0.0000 C   0  0  0  0  0  0  0  0  0  0  0  0
    3.0963    0.4905    0.0000 C   0  0  0  0  0  0  0  0  0  0  0  0
   -3.1055   -0.9673    0.0000 F   0  0  0  0  0  0  0  0  0  0  0  0
   -3.1147   -4.9209    0.0000 F   0  0  0  0  0  0  0  0  0  0  0  0
    3.0963    2.4438    0.0000 C   0  0  0  0  0  0  0  0  0  0  0  0
    2.2213    0.9765    0.0000 C   0  0  0  0  0  0  0  0  0  0  0  0
    3.9802    0.9765    0.0000 C   0  0  0  0  0  0  0  0  0  0  0  0
    3.9802    1.9579    0.0000 C   0  0  0  0  0  0  0  0  0  0  0  0
    2.2213    1.9579    0.0000 C   0  0  0  0  0  0  0  0  0  0  0  0
    3.0963    3.4348    0.0000 O   0  0  0  0  0  0  0  0  0  0  0  0
    2.2308    3.9395    0.0000 C   0  0  0  0  0  0  0  0  0  0  0  0
    2.2308    4.9209    0.0000 C   0  0  0  0  0  0  0  0  0  0  0  0
  1  2  1  0
  2  3  1  0
  3  5  1  0
  4  6  1  0
  4  5  1  0
  1  6  2  0
  7  8  1  0
  1  8  1  0
  9 15  1  0
  3 10  2  0
  6 11  1  0
 11 17  1  0
  5 12  2  0
  2 13  2  0
  9 14  1  0
  7 15  1  0
  9 16  2  0
  7 17  1  0
 10 18  1  0
 18 19  2  0
 12 19  1  0
 14 20  1  0
 10 21  1  0
 12 22  1  0
 23 26  1  0
 23 27  2  0
 20 24  2  0
 20 25  1  0
 25 26  2  0
 24 27  1  0
 23 28  1  0
 28 29  1  0
 29 30  1  0
M  END
>  <IDNUMBER>  (210) 
L489-2047

>  <available>  (210) 
79

>  <H_acceptor>  (210) 
6

>  <H_donor>  (210) 
2

>  <B_rotN>  (210) 
6

>  <N_O>  (210) 
6

>  <logP>  (210) 
3.7877

>  <logD>  (210) 
1.3017

>  <logSw>  (210) 
-4.1282

>  <PSA>  (210) 
55.935

>  <pKa_ma>  (210) 
4.9155

>  <pKa_mb>  (210) 
2.5395

>  <N_Chirals>  (210) 
0

>  <Name>  (210) 
2-(6,9-difluoro-10-oxo-3,4,5,10-tetrahydrobenzo[b][1,6]naphthyridin-2(1H)-yl)-N-(4-ethoxyphenyl)acetamide

>  <Smile>  (210) 
CCOc(cc1)ccc1NC(CN(CC1)CC(C(c2c(cc3)F)=O)=C1Nc2c3F)=O

>  <Color>  (210) 
YELLOW

>  <Collection>  (210) 
NC

>  <InChI>  (210) 
InChI=1S/C22H21F2N3O3/c1-2-30-14-5-3-13(4-6-14)25-19(28)12-27-10-9-18-15(11-27)22(29)20-16(23)7-8-17(24)21(20)26-18/h3-8H,2,9-12H2,1H3,(H,25,28)(H,26,29)

>  <InChI Key>  (210) 
RWFCGZVXZZBZBT-UHFFFAOYSA-N

>  <PERCENTSP3>  (210) 
27.3

>  <Link>  (210) 
https://www.chemdiv.com/catalog/screening-compounds/compound-L489-2047/

>  <MFCDNUMBER>  (210) 
MFCD20754336

>  <CLNUMBER>  (210) 
CL8213A

>  <STEREO>  (210) 
ACHIRAL

>  <State>  (210) 
Solid

>  <Similarity score>  (210) 
0.24

$$$$
N-(1-methyl-1,2,3,4-tetrahydroquinolin-7-yl)-4-oxo-2-phenyl-4,5,6,7,8,9-hexahydr
     RDKit          2D

 32 36  0  0  0  0  0  0  0  0999 V2000
   -0.6732    0.4689    0.0000 C   0  0  0  0  0  0  0  0  0  0  0  0
   -2.3987    0.4314    0.0000 N   0  0  0  0  0  0  0  0  0  0  0  0
   -1.5568    1.9443    0.0000 N   0  0  0  0  0  0  0  0  0  0  0  0
   -0.6940    1.4693    0.0000 C   0  0  0  0  0  0  0  0  0  0  0  0
   -2.4194    1.4318    0.0000 C   0  0  0  0  0  0  0  0  0  0  0  0
   -1.5234   -0.0520    0.0000 C   0  0  0  0  0  0  0  0  0  0  0  0
    3.5199   -0.8273    0.0000 C   0  0  0  0  0  0  0  0  0  0  0  0
    0.5313   -2.5321    0.0000 C   0  0  0  0  0  0  0  0  0  0  0  0
    4.5327   -0.8189    0.0000 N   0  0  0  0  0  0  0  0  0  0  0  0
    1.5275   -2.5321    0.0000 N   0  0  0  0  0  0  0  0  0  0  0  0
    0.2688    0.1312    0.0000 C   0  0  0  0  0  0  0  0  0  0  0  0
    3.0322   -1.6776    0.0000 C   0  0  0  0  0  0  0  0  0  0  0  0
    2.0318   -1.6776    0.0000 C   0  0  0  0  0  0  0  0  0  0  0  0
    0.1520    2.0194    0.0000 O   0  0  0  0  0  0  0  0  0  0  0  0
    0.0312   -1.6651    0.0000 C   0  0  0  0  0  0  0  0  0  0  0  0
   -1.6443   -1.0314    0.0000 C   0  0  0  0  0  0  0  0  0  0  0  0
    3.0280    0.0687    0.0000 C   0  0  0  0  0  0  0  0  0  0  0  0
   -3.2990    1.9111    0.0000 C   0  0  0  0  0  0  0  0  0  0  0  0
    0.0396   -3.3947    0.0000 O   0  0  0  0  0  0  0  0  0  0  0  0
    0.5774   -0.8189    0.0000 C   0  0  0  0  0  0  0  0  0  0  0  0
   -0.9439   -1.7444    0.0000 C   0  0  0  0  0  0  0  0  0  0  0  0
    2.0276    0.0604    0.0000 C   0  0  0  0  0  0  0  0  0  0  0  0
    1.5317   -0.8148    0.0000 C   0  0  0  0  0  0  0  0  0  0  0  0
    5.0453    0.0563    0.0000 C   0  0  0  0  0  0  0  0  0  0  0  0
    5.0202   -1.6900    0.0000 C   0  0  0  0  0  0  0  0  0  0  0  0
    4.5327    0.9357    0.0000 C   0  0  0  0  0  0  0  0  0  0  0  0
    3.5281    0.9315    0.0000 C   0  0  0  0  0  0  0  0  0  0  0  0
   -3.3198    2.9113    0.0000 C   0  0  0  0  0  0  0  0  0  0  0  0
   -4.1576    1.3985    0.0000 C   0  0  0  0  0  0  0  0  0  0  0  0
   -5.0328    1.8735    0.0000 C   0  0  0  0  0  0  0  0  0  0  0  0
   -4.1950    3.3947    0.0000 C   0  0  0  0  0  0  0  0  0  0  0  0
   -5.0453    2.8821    0.0000 C   0  0  0  0  0  0  0  0  0  0  0  0
  2  6  1  0
  3  4  1  0
  1  4  1  0
  2  5  2  0
  3  5  1  0
  1  6  2  0
  7 12  2  0
  7 17  1  0
  8 15  1  0
  7  9  1  0
  8 10  1  0
  1 11  1  0
 12 13  1  0
 10 13  1  0
  4 14  2  0
 15 20  1  0
  6 16  1  0
 17 22  2  0
  5 18  1  0
  8 19  2  0
 11 20  1  0
 16 21  1  0
 15 21  1  0
 22 23  1  0
 13 23  2  0
  9 24  1  0
  9 25  1  0
 26 27  1  0
 24 26  1  0
 17 27  1  0
 18 28  2  0
 18 29  1  0
 29 30  2  0
 28 31  1  0
 31 32  2  0
 30 32  1  0
M  END
>  <IDNUMBER>  (211) 
SB25-0977

>  <available>  (211) 
15

>  <H_acceptor>  (211) 
5

>  <H_donor>  (211) 
2

>  <B_rotN>  (211) 
4

>  <N_O>  (211) 
6

>  <logP>  (211) 
3.0127

>  <logD>  (211) 
2.6563

>  <logSw>  (211) 
-3.5733

>  <PSA>  (211) 
60.834

>  <pKa_ma>  (211) 
7.2956

>  <pKa_mb>  (211) 
5.1601

>  <N_Chirals>  (211) 
1

>  <Name>  (211) 
N-(1-methyl-1,2,3,4-tetrahydroquinolin-7-yl)-4-oxo-2-phenyl-4,5,6,7,8,9-hexahydro-3H-cyclohepta[d]pyrimidine-7-carboxamide

>  <Smile>  (211) 
CN(CCC1)c2c1ccc(NC(C(CC1)CCC(N=C(c3ccccc3)N3)=C1C3=O)=O)c2

>  <Color>  (211) 
ORANGE

>  <Collection>  (211) 
IC

>  <InChI>  (211) 
InChI=1S/C26H28N4O2/c1-30-15-5-8-17-9-12-20(16-23(17)30)27-25(31)19-10-13-21-22(14-11-19)28-24(29-26(21)32)18-6-3-2-4-7-18/h2-4,6-7,9,12,16,19H,5,8,10-11,13-15H2,1H3,(H,27,31)(H,28,29,32)/t19-/m1/s1

>  <InChI Key>  (211) 
IWWUSKRBFHAJRU-LJQANCHMSA-N

>  <PERCENTSP3>  (211) 
34.62

>  <Link>  (211) 
https://www.chemdiv.com/catalog/screening-compounds/compound-SB25-0977/

>  <MFCDNUMBER>  (211) 
MFCD32247380

>  <CLNUMBER>  (211) 
CM3995

>  <STEREO>  (211) 
RACEMIC MIXTURE

>  <State>  (211) 
Solid

>  <Similarity score>  (211) 
0.24

$$$$
N-{4-[3-(6-fluoro-1,3,4,9-tetrahydro-2H-pyrido[3,4-b]indol-2-yl)-2,5-dioxopyrrol
     RDKit          2D

 31 35  0  0  0  0  0  0  0  0999 V2000
    1.6794   -0.1228    0.0000 N   0  0  0  0  0  0  0  0  0  0  0  0
    0.7001    0.0896    0.0000 C   0  0  0  0  0  0  0  0  0  0  0  0
    1.7835   -1.1232    0.0000 C   0  0  0  0  0  0  0  0  0  0  0  0
   -2.1836   -1.9146    0.0000 C   0  0  0  0  0  0  0  0  0  0  0  0
    0.2083   -0.7816    0.0000 C   0  0  0  0  0  0  0  0  0  0  0  0
   -2.7795   -1.1022    0.0000 C   0  0  0  0  0  0  0  0  0  0  0  0
    0.8710   -1.5232    0.0000 C   0  0  0  0  0  0  0  0  0  0  0  0
   -0.7833   -0.8898    0.0000 N   0  0  0  0  0  0  0  0  0  0  0  0
   -2.7795   -2.7357    0.0000 N   0  0  0  0  0  0  0  0  0  0  0  0
   -3.7337   -1.4189    0.0000 C   0  0  0  0  0  0  0  0  0  0  0  0
   -3.7337   -2.4230    0.0000 C   0  0  0  0  0  0  0  0  0  0  0  0
   -1.1877   -1.8064    0.0000 C   0  0  0  0  0  0  0  0  0  0  0  0
    2.4210    0.5479    0.0000 C   0  0  0  0  0  0  0  0  0  0  0  0
   -2.3753   -0.1731    0.0000 C   0  0  0  0  0  0  0  0  0  0  0  0
    0.3001    0.9938    0.0000 O   0  0  0  0  0  0  0  0  0  0  0  0
   -1.3793   -0.0686    0.0000 C   0  0  0  0  0  0  0  0  0  0  0  0
    2.6544   -1.6106    0.0000 O   0  0  0  0  0  0  0  0  0  0  0  0
    5.5840    2.2481    0.0000 C   0  0  0  0  0  0  0  0  0  0  0  0
   -4.6049   -0.9313    0.0000 C   0  0  0  0  0  0  0  0  0  0  0  0
    4.6423    2.5526    0.0000 N   0  0  0  0  0  0  0  0  0  0  0  0
   -4.6049   -2.9106    0.0000 C   0  0  0  0  0  0  0  0  0  0  0  0
    5.7965    1.2690    0.0000 O   0  0  0  0  0  0  0  0  0  0  0  0
    2.2086    1.5107    0.0000 C   0  0  0  0  0  0  0  0  0  0  0  0
    3.3713    0.2356    0.0000 C   0  0  0  0  0  0  0  0  0  0  0  0
    3.9005    1.8857    0.0000 C   0  0  0  0  0  0  0  0  0  0  0  0
   -5.4632   -1.4272    0.0000 C   0  0  0  0  0  0  0  0  0  0  0  0
   -5.4632   -2.4230    0.0000 C   0  0  0  0  0  0  0  0  0  0  0  0
    4.1131    0.9105    0.0000 C   0  0  0  0  0  0  0  0  0  0  0  0
    2.9462    2.1900    0.0000 C   0  0  0  0  0  0  0  0  0  0  0  0
   -6.3300   -0.9313    0.0000 F   0  0  0  0  0  0  0  0  0  0  0  0
    6.3300    2.9106    0.0000 C   0  0  0  0  0  0  0  0  0  0  0  0
  1  2  1  0
  1  3  1  0
  4 12  1  0
  2  5  1  0
  5  7  1  0
  6 14  1  0
  4  6  2  0
  3  7  1  0
  5  8  1  0
  4  9  1  0
  6 10  1  0
 10 11  1  0
  9 11  1  0
  8 12  1  0
  1 13  1  0
 14 16  1  0
  2 15  2  0
  8 16  1  0
  3 17  2  0
 18 20  1  0
 10 19  2  0
 20 25  1  0
 11 21  2  0
 18 22  2  0
 13 23  1  0
 13 24  2  0
 25 28  2  0
 19 26  1  0
 26 27  2  0
 21 27  1  0
 24 28  1  0
 23 29  2  0
 25 29  1  0
 26 30  1  0
 18 31  1  0
M  END
>  <IDNUMBER>  (212) 
Y020-3929

>  <available>  (212) 
19

>  <H_acceptor>  (212) 
7

>  <H_donor>  (212) 
2

>  <B_rotN>  (212) 
4

>  <N_O>  (212) 
7

>  <logP>  (212) 
0.94

>  <logD>  (212) 
0.94

>  <logSw>  (212) 
-2.2294

>  <PSA>  (212) 
65.762

>  <pKa_ma>  (212) 
12.7279

>  <pKa_mb>  (212) 
2.076

>  <N_Chirals>  (212) 
1

>  <Name>  (212) 
N-{4-[3-(6-fluoro-1,3,4,9-tetrahydro-2H-pyrido[3,4-b]indol-2-yl)-2,5-dioxopyrrolidin-1-yl]phenyl}acetamide

>  <Smile>  (212) 
CC(Nc(cc1)ccc1N(C(CC1N(CC2)Cc3c2c(cc(cc2)F)c2[nH]3)=O)C1=O)=O

>  <Color>  (212) 
NOT COLORED

>  <Collection>  (212) 
DC

>  <InChI>  (212) 
InChI=1S/C23H21FN4O3/c1-13(29)25-15-3-5-16(6-4-15)28-22(30)11-21(23(28)31)27-9-8-17-18-10-14(24)2-7-19(18)26-20(17)12-27/h2-7,10,21,26H,8-9,11-12H2,1H3,(H,25,29)/t21-/m0/s1

>  <InChI Key>  (212) 
GNBWBCRENPWLOY-NRFANRHFSA-N

>  <PERCENTSP3>  (212) 
26.1

>  <Link>  (212) 
https://www.chemdiv.com/catalog/screening-compounds/compound-Y020-3929/

>  <MFCDNUMBER>  (212) 
MFCD12215438

>  <CLNUMBER>  (212) 
CL2165

>  <STEREO>  (212) 
RACEMIC MIXTURE

>  <State>  (212) 
Solid

>  <Similarity score>  (212) 
0.24

$$$$
2-(4-methylpiperazin-1-yl)-6-[(3-methylthiophen-2-yl)methyl]-4-(morpholin-4-yl)-
     RDKit          2D

 30 34  0  0  0  0  0  0  0  0999 V2000
    1.6643   -0.2521    0.0000 N   0  0  0  0  0  0  0  0  0  0  0  0
    0.7978    0.2521    0.0000 C   0  0  0  0  0  0  0  0  0  0  0  0
    1.6602   -1.2563    0.0000 C   0  0  0  0  0  0  0  0  0  0  0  0
   -0.0686   -0.2479    0.0000 C   0  0  0  0  0  0  0  0  0  0  0  0
    0.7895   -1.7478    0.0000 N   0  0  0  0  0  0  0  0  0  0  0  0
   -0.0729   -1.2478    0.0000 C   0  0  0  0  0  0  0  0  0  0  0  0
    2.5226   -1.7603    0.0000 N   0  0  0  0  0  0  0  0  0  0  0  0
   -3.5308   -0.2521    0.0000 C   0  0  0  0  0  0  0  0  0  0  0  0
    0.7978    1.2560    0.0000 N   0  0  0  0  0  0  0  0  0  0  0  0
   -1.7976   -0.2479    0.0000 N   0  0  0  0  0  0  0  0  0  0  0  0
   -3.6349   -1.2435    0.0000 C   0  0  0  0  0  0  0  0  0  0  0  0
   -0.9312    0.2602    0.0000 C   0  0  0  0  0  0  0  0  0  0  0  0
   -4.4473    0.1478    0.0000 S   0  0  0  0  0  0  0  0  0  0  0  0
   -2.6641    0.2521    0.0000 C   0  0  0  0  0  0  0  0  0  0  0  0
    4.2515   -2.7602    0.0000 N   0  0  0  0  0  0  0  0  0  0  0  0
   -0.9312   -1.7437    0.0000 C   0  0  0  0  0  0  0  0  0  0  0  0
   -5.1181   -0.6063    0.0000 C   0  0  0  0  0  0  0  0  0  0  0  0
   -4.6016   -1.4519    0.0000 C   0  0  0  0  0  0  0  0  0  0  0  0
    2.5184   -2.7642    0.0000 C   0  0  0  0  0  0  0  0  0  0  0  0
    3.3934   -1.2643    0.0000 C   0  0  0  0  0  0  0  0  0  0  0  0
   -1.7976   -1.2478    0.0000 C   0  0  0  0  0  0  0  0  0  0  0  0
    0.8269    3.2642    0.0000 O   0  0  0  0  0  0  0  0  0  0  0  0
    4.2515   -1.7645    0.0000 C   0  0  0  0  0  0  0  0  0  0  0  0
    3.3848   -3.2601    0.0000 C   0  0  0  0  0  0  0  0  0  0  0  0
   -0.0605    1.7685    0.0000 C   0  0  0  0  0  0  0  0  0  0  0  0
    1.6643    1.7477    0.0000 C   0  0  0  0  0  0  0  0  0  0  0  0
    5.1181   -3.2642    0.0000 C   0  0  0  0  0  0  0  0  0  0  0  0
   -2.8808   -1.9143    0.0000 C   0  0  0  0  0  0  0  0  0  0  0  0
    1.6768    2.7558    0.0000 C   0  0  0  0  0  0  0  0  0  0  0  0
   -0.0478    2.7766    0.0000 C   0  0  0  0  0  0  0  0  0  0  0  0
  1  2  2  0
  1  3  1  0
  2  4  1  0
  3  5  2  0
  5  6  1  0
  4  6  2  0
  3  7  1  0
  8 14  1  0
  2  9  1  0
 10 12  1  0
  8 11  2  0
  4 12  1  0
  8 13  1  0
 10 14  1  0
 15 23  1  0
 15 24  1  0
  6 16  1  0
 13 17  1  0
 11 18  1  0
 17 18  2  0
  7 19  1  0
  7 20  1  0
 16 21  1  0
 10 21  1  0
 22 30  1  0
 20 23  1  0
 19 24  1  0
  9 25  1  0
  9 26  1  0
 15 27  1  0
 11 28  1  0
 26 29  1  0
 22 29  1  0
 25 30  1  0
M  END
>  <IDNUMBER>  (213) 
V021-1644

>  <available>  (213) 
1

>  <H_acceptor>  (213) 
5

>  <H_donor>  (213) 
0

>  <B_rotN>  (213) 
4

>  <N_O>  (213) 
7

>  <logP>  (213) 
3.0379

>  <logD>  (213) 
2.466

>  <logSw>  (213) 
-2.9719

>  <PSA>  (213) 
41.873

>  <pKa_ma>  (213) 
20.5827

>  <pKa_mb>  (213) 
7.8364

>  <N_Chirals>  (213) 
0

>  <Name>  (213) 
2-(4-methylpiperazin-1-yl)-6-[(3-methylthiophen-2-yl)methyl]-4-(morpholin-4-yl)-5,6,7,8-tetrahydropyrido[4,3-d]pyrimidine

>  <Smile>  (213) 
Cc1c(CN2Cc3c(N4CCOCC4)nc(N4CCN(C)CC4)nc3CC2)scc1

>  <Color>  (213) 
NOT COLORED

>  <Collection>  (213) 
DC

>  <InChI>  (213) 
InChI=1S/C22H32N6OS/c1-17-4-14-30-20(17)16-26-5-3-19-18(15-26)21(27-10-12-29-13-11-27)24-22(23-19)28-8-6-25(2)7-9-28/h4,14H,3,5-13,15-16H2,1-2H3

>  <InChI Key>  (213) 
GEKDMXHQOXWYBO-UHFFFAOYSA-N

>  <PERCENTSP3>  (213) 
63.6

>  <Link>  (213) 
https://www.chemdiv.com/catalog/screening-compounds/compound-V021-1644/

>  <MFCDNUMBER>  (213) 
MFCD19932398

>  <STEREO>  (213) 
ACHIRAL

>  <State>  (213) 
Solid

>  <Similarity score>  (213) 
0.24

$$$$
4-[4-(2,5-dimethylphenyl)piperazin-1-yl]-2-methyl-5,6,8,9-tetrahydrooxepino[4,5-
     RDKit          2D

 26 29  0  0  0  0  0  0  0  0999 V2000
    1.8034    0.0486    0.0000 C   0  0  0  0  0  0  0  0  0  0  0  0
    1.8722    1.0511    0.0000 C   0  0  0  0  0  0  0  0  0  0  0  0
    2.6306   -0.5093    0.0000 N   0  0  0  0  0  0  0  0  0  0  0  0
    0.9040   -0.3776    0.0000 N   0  0  0  0  0  0  0  0  0  0  0  0
    2.7808    1.4867    0.0000 C   0  0  0  0  0  0  0  0  0  0  0  0
    3.5988    0.9196    0.0000 N   0  0  0  0  0  0  0  0  0  0  0  0
   -0.9040   -1.2486    0.0000 N   0  0  0  0  0  0  0  0  0  0  0  0
   -1.8034   -1.6843    0.0000 C   0  0  0  0  0  0  0  0  0  0  0  0
    3.5267   -0.0831    0.0000 C   0  0  0  0  0  0  0  0  0  0  0  0
    0.8289   -1.3803    0.0000 C   0  0  0  0  0  0  0  0  0  0  0  0
    0.0675    0.1895    0.0000 C   0  0  0  0  0  0  0  0  0  0  0  0
   -1.8722   -2.6776    0.0000 C   0  0  0  0  0  0  0  0  0  0  0  0
   -0.0675   -1.8065    0.0000 C   0  0  0  0  0  0  0  0  0  0  0  0
   -0.8256   -0.2554    0.0000 C   0  0  0  0  0  0  0  0  0  0  0  0
   -2.6306   -1.1202    0.0000 C   0  0  0  0  0  0  0  0  0  0  0  0
    1.3739    3.2447    0.0000 O   0  0  0  0  0  0  0  0  0  0  0  0
   -2.7808   -3.1132    0.0000 C   0  0  0  0  0  0  0  0  0  0  0  0
    3.0067    2.4612    0.0000 C   0  0  0  0  0  0  0  0  0  0  0  0
   -3.5267   -1.5526    0.0000 C   0  0  0  0  0  0  0  0  0  0  0  0
    0.9761    1.4867    0.0000 C   0  0  0  0  0  0  0  0  0  0  0  0
   -3.5988   -2.5491    0.0000 C   0  0  0  0  0  0  0  0  0  0  0  0
    4.3540   -0.6410    0.0000 C   0  0  0  0  0  0  0  0  0  0  0  0
    2.3800    3.2447    0.0000 C   0  0  0  0  0  0  0  0  0  0  0  0
    0.7505    2.4612    0.0000 C   0  0  0  0  0  0  0  0  0  0  0  0
   -1.0545   -3.2447    0.0000 C   0  0  0  0  0  0  0  0  0  0  0  0
   -4.3540   -0.9888    0.0000 C   0  0  0  0  0  0  0  0  0  0  0  0
  1  2  1  0
  1  3  2  0
  1  4  1  0
  2  5  2  0
  6  9  2  0
  5  6  1  0
  7 14  1  0
  7  8  1  0
  3  9  1  0
  4 10  1  0
  4 11  1  0
  8 12  2  0
 10 13  1  0
  7 13  1  0
 11 14  1  0
  8 15  1  0
 16 24  1  0
 12 17  1  0
  5 18  1  0
 15 19  2  0
  2 20  1  0
 19 21  1  0
 17 21  2  0
  9 22  1  0
 18 23  1  0
 16 23  1  0
 20 24  1  0
 12 25  1  0
 19 26  1  0
M  END
>  <IDNUMBER>  (214) 
S896-0075

>  <available>  (214) 
1

>  <H_acceptor>  (214) 
3

>  <H_donor>  (214) 
0

>  <B_rotN>  (214) 
2

>  <N_O>  (214) 
5

>  <logP>  (214) 
4.3291

>  <logD>  (214) 
4.3183

>  <logSw>  (214) 
-4.3926

>  <PSA>  (214) 
34.428

>  <pKa_ma>  (214) 
19.7965

>  <pKa_mb>  (214) 
5.8035

>  <N_Chirals>  (214) 
0

>  <Name>  (214) 
4-[4-(2,5-dimethylphenyl)piperazin-1-yl]-2-methyl-5,6,8,9-tetrahydrooxepino[4,5-d]pyrimidine

>  <Smile>  (214) 
Cc1cc(N(CC2)CCN2c2nc(C)nc3c2CCOCC3)c(C)cc1

>  <Color>  (214) 
YELLOW

>  <Collection>  (214) 
IC

>  <InChI>  (214) 
InChI=1S/C21H28N4O/c1-15-4-5-16(2)20(14-15)24-8-10-25(11-9-24)21-18-6-12-26-13-7-19(18)22-17(3)23-21/h4-5,14H,6-13H2,1-3H3

>  <InChI Key>  (214) 
ZBWHFBHCHARHOR-UHFFFAOYSA-N

>  <PERCENTSP3>  (214) 
52.38

>  <Link>  (214) 
https://www.chemdiv.com/catalog/screening-compounds/compound-S896-0075/

>  <MFCDNUMBER>  (214) 
MFCD31957780

>  <CLNUMBER>  (214) 
CM3993

>  <STEREO>  (214) 
ACHIRAL

>  <State>  (214) 
Solid

>  <Similarity score>  (214) 
0.24

$$$$
7-[(2,5-difluorophenyl)methyl]-2-(dimethylamino)-3,5,6,7,8,9-hexahydro-4H-pyrimi
     RDKit          2D

 24 26  0  0  0  0  0  0  0  0999 V2000
   -2.8811    0.6166    0.0000 C   0  0  0  0  0  0  0  0  0  0  0  0
   -2.6562    1.5916    0.0000 N   0  0  0  0  0  0  0  0  0  0  0  0
   -0.9688    1.2041    0.0000 C   0  0  0  0  0  0  0  0  0  0  0  0
   -2.1478   -0.0667    0.0000 N   0  0  0  0  0  0  0  0  0  0  0  0
   -1.7062    1.8915    0.0000 C   0  0  0  0  0  0  0  0  0  0  0  0
   -1.1937    0.2291    0.0000 C   0  0  0  0  0  0  0  0  0  0  0  0
    2.3187   -0.9458    0.0000 C   0  0  0  0  0  0  0  0  0  0  0  0
    1.0562    0.2291    0.0000 N   0  0  0  0  0  0  0  0  0  0  0  0
   -0.0688    1.6415    0.0000 C   0  0  0  0  0  0  0  0  0  0  0  0
   -3.8353    0.3167    0.0000 N   0  0  0  0  0  0  0  0  0  0  0  0
   -0.5686   -0.5542    0.0000 C   0  0  0  0  0  0  0  0  0  0  0  0
    2.0312    0.0041    0.0000 C   0  0  0  0  0  0  0  0  0  0  0  0
    1.6435   -1.6832    0.0000 C   0  0  0  0  0  0  0  0  0  0  0  0
   -1.4812    2.8582    0.0000 O   0  0  0  0  0  0  0  0  0  0  0  0
    3.2935   -1.1708    0.0000 C   0  0  0  0  0  0  0  0  0  0  0  0
    0.8312    1.2041    0.0000 C   0  0  0  0  0  0  0  0  0  0  0  0
    0.4313   -0.5542    0.0000 C   0  0  0  0  0  0  0  0  0  0  0  0
    1.9394   -2.6332    0.0000 C   0  0  0  0  0  0  0  0  0  0  0  0
    3.5936   -2.1291    0.0000 C   0  0  0  0  0  0  0  0  0  0  0  0
    0.6687   -1.4582    0.0000 F   0  0  0  0  0  0  0  0  0  0  0  0
    2.9143   -2.8582    0.0000 C   0  0  0  0  0  0  0  0  0  0  0  0
    4.5686   -2.3457    0.0000 F   0  0  0  0  0  0  0  0  0  0  0  0
   -4.0602   -0.6583    0.0000 C   0  0  0  0  0  0  0  0  0  0  0  0
   -4.5686    1.0041    0.0000 C   0  0  0  0  0  0  0  0  0  0  0  0
  1  2  1  0
  3  6  2  0
  3  5  1  0
  1  4  2  0
  2  5  1  0
  4  6  1  0
  7 12  1  0
  8 17  1  0
  3  9  1  0
  1 10  1  0
  6 11  1  0
  8 12  1  0
  7 13  2  0
  5 14  2  0
  7 15  1  0
  9 16  1  0
  8 16  1  0
 11 17  1  0
 13 18  1  0
 18 21  2  0
 15 19  2  0
 13 20  1  0
 19 21  1  0
 19 22  1  0
 10 23  1  0
 10 24  1  0
M  END
>  <IDNUMBER>  (215) 
S039-1692

>  <available>  (215) 
5

>  <H_acceptor>  (215) 
4

>  <H_donor>  (215) 
1

>  <B_rotN>  (215) 
3

>  <N_O>  (215) 
5

>  <logP>  (215) 
1.8694

>  <logD>  (215) 
1.6825

>  <logSw>  (215) 
-2.6105

>  <PSA>  (215) 
41.151

>  <pKa_ma>  (215) 
8.7946

>  <pKa_mb>  (215) 
7.0794

>  <N_Chirals>  (215) 
0

>  <Name>  (215) 
7-[(2,5-difluorophenyl)methyl]-2-(dimethylamino)-3,5,6,7,8,9-hexahydro-4H-pyrimido[4,5-d]azepin-4-one

>  <Smile>  (215) 
CN(C)C(N1)=NC(CCN(Cc(cc(cc2)F)c2F)CC2)=C2C1=O

>  <Color>  (215) 
NOT COLORED

>  <Collection>  (215) 
IC

>  <InChI>  (215) 
InChI=1S/C17H20F2N4O/c1-22(2)17-20-15-6-8-23(7-5-13(15)16(24)21-17)10-11-9-12(18)3-4-14(11)19/h3-4,9H,5-8,10H2,1-2H3,(H,20,21,24)

>  <InChI Key>  (215) 
VQINYOXRWAJJNJ-UHFFFAOYSA-N

>  <PERCENTSP3>  (215) 
41.2

>  <Link>  (215) 
https://www.chemdiv.com/catalog/screening-compounds/compound-S039-1692/

>  <MFCDNUMBER>  (215) 
MFCD28999958

>  <CLNUMBER>  (215) 
CM2417

>  <STEREO>  (215) 
ACHIRAL

>  <State>  (215) 
Solid

>  <Similarity score>  (215) 
0.24

$$$$
2-[4-(4-cyano-1-propyl-6,7-dihydro-5H-cyclopenta[c]pyridin-3-yl)piperazin-1-yl]-
     RDKit          2D

 34 37  0  0  0  0  0  0  0  0999 V2000
   -1.3901   -2.0048    0.0000 C   0  0  0  0  0  0  0  0  0  0  0  0
   -2.2528   -1.5087    0.0000 C   0  0  0  0  0  0  0  0  0  0  0  0
   -1.3901   -3.0051    0.0000 N   0  0  0  0  0  0  0  0  0  0  0  0
   -3.1155   -2.0048    0.0000 C   0  0  0  0  0  0  0  0  0  0  0  0
   -0.5272   -1.5087    0.0000 N   0  0  0  0  0  0  0  0  0  0  0  0
   -2.2528   -3.5010    0.0000 C   0  0  0  0  0  0  0  0  0  0  0  0
   -3.1283   -3.0092    0.0000 C   0  0  0  0  0  0  0  0  0  0  0  0
   -2.2528   -0.5085    0.0000 C   0  0  0  0  0  0  0  0  0  0  0  0
    2.0691    1.0003    0.0000 C   0  0  0  0  0  0  0  0  0  0  0  0
    2.9318    1.5005    0.0000 N   0  0  0  0  0  0  0  0  0  0  0  0
   -2.2528    0.4877    0.0000 N   0  0  0  0  0  0  0  0  0  0  0  0
    2.9318    2.5090    0.0000 C   0  0  0  0  0  0  0  0  0  0  0  0
    1.2107   -0.5085    0.0000 N   0  0  0  0  0  0  0  0  0  0  0  0
    3.7947    3.0092    0.0000 C   0  0  0  0  0  0  0  0  0  0  0  0
    3.7947    4.0054    0.0000 C   0  0  0  0  0  0  0  0  0  0  0  0
   -0.5272   -0.5085    0.0000 C   0  0  0  0  0  0  0  0  0  0  0  0
    0.3314   -2.0131    0.0000 C   0  0  0  0  0  0  0  0  0  0  0  0
    2.0691    0.0041    0.0000 C   0  0  0  0  0  0  0  0  0  0  0  0
    1.2107    1.5005    0.0000 O   0  0  0  0  0  0  0  0  0  0  0  0
    2.0691    3.0092    0.0000 C   0  0  0  0  0  0  0  0  0  0  0  0
    1.2107   -1.5087    0.0000 C   0  0  0  0  0  0  0  0  0  0  0  0
    0.3314   -0.0126    0.0000 C   0  0  0  0  0  0  0  0  0  0  0  0
    2.9318    4.5139    0.0000 C   0  0  0  0  0  0  0  0  0  0  0  0
    2.0691    4.0054    0.0000 C   0  0  0  0  0  0  0  0  0  0  0  0
    4.6702    2.5008    0.0000 O   0  0  0  0  0  0  0  0  0  0  0  0
   -4.0700   -1.6879    0.0000 C   0  0  0  0  0  0  0  0  0  0  0  0
   -4.0824   -3.3134    0.0000 C   0  0  0  0  0  0  0  0  0  0  0  0
   -2.2528   -4.5013    0.0000 C   0  0  0  0  0  0  0  0  0  0  0  0
    2.9485    5.5016    0.0000 O   0  0  0  0  0  0  0  0  0  0  0  0
   -4.6702   -2.4965    0.0000 C   0  0  0  0  0  0  0  0  0  0  0  0
    4.6574    1.4962    0.0000 C   0  0  0  0  0  0  0  0  0  0  0  0
    3.8112    5.9975    0.0000 C   0  0  0  0  0  0  0  0  0  0  0  0
   -3.1196   -5.0013    0.0000 C   0  0  0  0  0  0  0  0  0  0  0  0
   -3.1283   -5.9975    0.0000 C   0  0  0  0  0  0  0  0  0  0  0  0
  1  2  2  0
  1  3  1  0
  2  4  1  0
  4  7  2  0
  1  5  1  0
  3  6  2  0
  6  7  1  0
  2  8  1  0
  9 18  1  0
  9 10  1  0
  8 11  3  0
 10 12  1  0
 13 21  1  0
 12 14  2  0
 14 15  1  0
  5 16  1  0
  5 17  1  0
 13 18  1  0
  9 19  2  0
 12 20  1  0
 17 21  1  0
 16 22  1  0
 13 22  1  0
 23 24  1  0
 15 23  2  0
 20 24  2  0
 14 25  1  0
  4 26  1  0
  7 27  1  0
 27 30  1  0
  6 28  1  0
 23 29  1  0
 26 30  1  0
 25 31  1  0
 29 32  1  0
 28 33  1  0
 33 34  1  0
M  END
>  <IDNUMBER>  (216) 
IB06-3440

>  <available>  (216) 
50

>  <H_acceptor>  (216) 
7

>  <H_donor>  (216) 
1

>  <B_rotN>  (216) 
10

>  <N_O>  (216) 
8

>  <logP>  (216) 
4.65

>  <logD>  (216) 
4.59

>  <logSw>  (216) 
-5.72

>  <PSA>  (216) 
118.24

>  <pKa_ma>  (216) 
10.81

>  <pKa_mb>  (216) 
6.57

>  <N_Chirals>  (216) 
0

>  <Name>  (216) 
2-[4-(4-cyano-1-propyl-6,7-dihydro-5H-cyclopenta[c]pyridin-3-yl)piperazin-1-yl]-N-(2,4-dimethoxyphenyl)acetamide

>  <Smile>  (216) 
CCCc(nc1N2CCN(CC(Nc(ccc(OC)c3)c3OC)=O)CC2)c(CCC2)c2c1C#N

>  <Color>  (216) 
NOT COLORED

>  <Collection>  (216) 
DC

>  <InChI>  (216) 
InChI=1S/C26H33N5O3/c1-4-6-22-20-8-5-7-19(20)21(16-27)26(29-22)31-13-11-30(12-14-31)17-25(32)28-23-10-9-18(33-2)15-24(23)34-3/h9-10,15H,4-8,11-14,17H2,1-3H3,(H,28,32)

>  <InChI Key>  (216) 
GJOYYKLJYQBYFU-UHFFFAOYSA-N

>  <PERCENTSP3>  (216) 
50

>  <Link>  (216) 
https://www.chemdiv.com/catalog/screening-compounds/compound-IB06-3440/

>  <STEREO>  (216) 
ACHIRAL

>  <State>  (216) 
Solid

>  <Similarity score>  (216) 
0.24

$$$$
N-{4-[3-(6-methoxy-1,3,4,9-tetrahydro-2H-pyrido[3,4-b]indol-2-yl)-2,5-dioxopyrro
     RDKit          2D

 32 36  0  0  0  0  0  0  0  0999 V2000
    1.6794   -0.1186    0.0000 N   0  0  0  0  0  0  0  0  0  0  0  0
    0.7001    0.0939    0.0000 C   0  0  0  0  0  0  0  0  0  0  0  0
    1.7833   -1.1146    0.0000 C   0  0  0  0  0  0  0  0  0  0  0  0
   -2.1834   -1.9146    0.0000 C   0  0  0  0  0  0  0  0  0  0  0  0
    0.2125   -0.7731    0.0000 C   0  0  0  0  0  0  0  0  0  0  0  0
   -2.7794   -1.0937    0.0000 C   0  0  0  0  0  0  0  0  0  0  0  0
    0.8709   -1.5189    0.0000 C   0  0  0  0  0  0  0  0  0  0  0  0
   -0.7834   -0.8812    0.0000 N   0  0  0  0  0  0  0  0  0  0  0  0
   -2.7794   -2.7272    0.0000 N   0  0  0  0  0  0  0  0  0  0  0  0
   -3.7335   -1.4105    0.0000 C   0  0  0  0  0  0  0  0  0  0  0  0
   -3.7335   -2.4230    0.0000 C   0  0  0  0  0  0  0  0  0  0  0  0
   -1.1876   -1.8065    0.0000 C   0  0  0  0  0  0  0  0  0  0  0  0
    2.4210    0.5479    0.0000 C   0  0  0  0  0  0  0  0  0  0  0  0
   -2.3752   -0.1730    0.0000 C   0  0  0  0  0  0  0  0  0  0  0  0
    0.3001    0.9939    0.0000 O   0  0  0  0  0  0  0  0  0  0  0  0
   -1.3793   -0.0688    0.0000 C   0  0  0  0  0  0  0  0  0  0  0  0
    2.6543   -1.6021    0.0000 O   0  0  0  0  0  0  0  0  0  0  0  0
    5.5837    2.2481    0.0000 C   0  0  0  0  0  0  0  0  0  0  0  0
   -4.6044   -0.9229    0.0000 C   0  0  0  0  0  0  0  0  0  0  0  0
    4.6503    2.5564    0.0000 N   0  0  0  0  0  0  0  0  0  0  0  0
   -4.6044   -2.9189    0.0000 C   0  0  0  0  0  0  0  0  0  0  0  0
    5.7962    1.2686    0.0000 O   0  0  0  0  0  0  0  0  0  0  0  0
    2.2083    1.5189    0.0000 C   0  0  0  0  0  0  0  0  0  0  0  0
    3.3752    0.2437    0.0000 C   0  0  0  0  0  0  0  0  0  0  0  0
    3.9085    1.8855    0.0000 C   0  0  0  0  0  0  0  0  0  0  0  0
   -5.4544   -1.4272    0.0000 C   0  0  0  0  0  0  0  0  0  0  0  0
   -5.4544   -2.4230    0.0000 C   0  0  0  0  0  0  0  0  0  0  0  0
    4.1210    0.9107    0.0000 C   0  0  0  0  0  0  0  0  0  0  0  0
    2.9502    2.1981    0.0000 C   0  0  0  0  0  0  0  0  0  0  0  0
   -6.3212   -0.9229    0.0000 O   0  0  0  0  0  0  0  0  0  0  0  0
    6.3253    2.9189    0.0000 C   0  0  0  0  0  0  0  0  0  0  0  0
   -6.3253    0.0727    0.0000 C   0  0  0  0  0  0  0  0  0  0  0  0
  1  2  1  0
  1  3  1  0
  4 12  1  0
  2  5  1  0
  5  7  1  0
  6 14  1  0
  4  6  2  0
  3  7  1  0
  5  8  1  0
  4  9  1  0
  6 10  1  0
 10 11  1  0
  9 11  1  0
  8 12  1  0
  1 13  1  0
 14 16  1  0
  2 15  2  0
  8 16  1  0
  3 17  2  0
 18 20  1  0
 10 19  2  0
 20 25  1  0
 11 21  2  0
 18 22  2  0
 13 23  1  0
 13 24  2  0
 25 28  2  0
 19 26  1  0
 26 27  2  0
 21 27  1  0
 24 28  1  0
 23 29  2  0
 25 29  1  0
 26 30  1  0
 18 31  1  0
 30 32  1  0
M  END
>  <IDNUMBER>  (217) 
Y020-3914

>  <available>  (217) 
39

>  <H_acceptor>  (217) 
8

>  <H_donor>  (217) 
2

>  <B_rotN>  (217) 
5

>  <N_O>  (217) 
8

>  <logP>  (217) 
0.8997

>  <logD>  (217) 
0.8997

>  <logSw>  (217) 
-2.2346

>  <PSA>  (217) 
73.305

>  <pKa_ma>  (217) 
12.7279

>  <pKa_mb>  (217) 
2.076

>  <N_Chirals>  (217) 
1

>  <Name>  (217) 
N-{4-[3-(6-methoxy-1,3,4,9-tetrahydro-2H-pyrido[3,4-b]indol-2-yl)-2,5-dioxopyrrolidin-1-yl]phenyl}acetamide

>  <Smile>  (217) 
CC(Nc(cc1)ccc1N(C(CC1N(CC2)Cc3c2c(cc(cc2)OC)c2[nH]3)=O)C1=O)=O

>  <Color>  (217) 
NOT COLORED

>  <Collection>  (217) 
DC

>  <InChI>  (217) 
InChI=1S/C24H24N4O4/c1-14(29)25-15-3-5-16(6-4-15)28-23(30)12-22(24(28)31)27-10-9-18-19-11-17(32-2)7-8-20(19)26-21(18)13-27/h3-8,11,22,26H,9-10,12-13H2,1-2H3,(H,25,29)/t22-/m0/s1

>  <InChI Key>  (217) 
GFHFWGFKMHTSCF-QFIPXVFZSA-N

>  <PERCENTSP3>  (217) 
29.2

>  <Link>  (217) 
https://www.chemdiv.com/catalog/screening-compounds/compound-Y020-3914/

>  <MFCDNUMBER>  (217) 
MFCD12030364

>  <CLNUMBER>  (217) 
CL2165

>  <STEREO>  (217) 
RACEMIC MIXTURE

>  <State>  (217) 
Solid

>  <Similarity score>  (217) 
0.24

$$$$
rel-(3R,4R)-1-[4-cyano-3-(trifluoromethyl)phenyl]-4-(methoxymethyl)-N-(5,6,7,8-t
     RDKit          2D

 33 36  0  0  0  0  0  0  0  0999 V2000
   -0.7416    0.0165    0.0000 C   0  0  0  0  0  0  0  0  0  0  0  0
    0.7960    0.5083    0.0000 N   0  0  0  0  0  0  0  0  0  0  0  0
   -1.7418    0.0165    0.0000 C   0  0  0  0  0  0  0  0  0  0  0  0
    4.2462    0.8792    0.0000 C   0  0  0  0  0  0  0  0  0  0  0  0
   -0.1458    0.8291    0.0000 C   0  0  0  0  0  0  0  0  0  0  0  0
    3.3337    1.2918    0.0000 C   0  0  0  0  0  0  0  0  0  0  0  0
   -2.2418   -0.8541    0.0000 N   0  0  0  0  0  0  0  0  0  0  0  0
   -0.1458   -0.7960    0.0000 C   0  0  0  0  0  0  0  0  0  0  0  0
    1.6167    1.1043    0.0000 C   0  0  0  0  0  0  0  0  0  0  0  0
    2.5211    0.6959    0.0000 C   0  0  0  0  0  0  0  0  0  0  0  0
    0.7960   -0.4834    0.0000 C   0  0  0  0  0  0  0  0  0  0  0  0
   -3.2418   -0.8541    0.0000 C   0  0  0  0  0  0  0  0  0  0  0  0
    4.8462    3.4545    0.0000 N   0  0  0  0  0  0  0  0  0  0  0  0
   -3.7420   -1.7210    0.0000 C   0  0  0  0  0  0  0  0  0  0  0  0
    4.0337    2.8667    0.0000 C   0  0  0  0  0  0  0  0  0  0  0  0
    3.2294    2.2835    0.0000 C   0  0  0  0  0  0  0  0  0  0  0  0
   -2.2418    0.8792    0.0000 O   0  0  0  0  0  0  0  0  0  0  0  0
    1.5085    2.0917    0.0000 C   0  0  0  0  0  0  0  0  0  0  0  0
   -4.7420   -1.7210    0.0000 C   0  0  0  0  0  0  0  0  0  0  0  0
    2.3170    2.6791    0.0000 C   0  0  0  0  0  0  0  0  0  0  0  0
    4.3463   -0.1209    0.0000 F   0  0  0  0  0  0  0  0  0  0  0  0
    5.2420    0.9791    0.0000 F   0  0  0  0  0  0  0  0  0  0  0  0
    4.6462    1.7834    0.0000 F   0  0  0  0  0  0  0  0  0  0  0  0
   -0.4667   -1.7461    0.0000 C   0  0  0  0  0  0  0  0  0  0  0  0
   -3.7420    0.0165    0.0000 C   0  0  0  0  0  0  0  0  0  0  0  0
    0.2085   -2.4917    0.0000 O   0  0  0  0  0  0  0  0  0  0  0  0
   -4.7420    0.0165    0.0000 C   0  0  0  0  0  0  0  0  0  0  0  0
   -3.2418   -2.5835    0.0000 C   0  0  0  0  0  0  0  0  0  0  0  0
   -5.2420   -0.8541    0.0000 C   0  0  0  0  0  0  0  0  0  0  0  0
   -5.2420   -2.5835    0.0000 C   0  0  0  0  0  0  0  0  0  0  0  0
   -0.1042   -3.4337    0.0000 C   0  0  0  0  0  0  0  0  0  0  0  0
   -3.7420   -3.4545    0.0000 C   0  0  0  0  0  0  0  0  0  0  0  0
   -4.7420   -3.4545    0.0000 C   0  0  0  0  0  0  0  0  0  0  0  0
  1  3  1  1
  2  5  1  0
  4  6  1  0
  1  5  1  0
  6 10  1  0
  3  7  1  0
  1  8  1  0
  8 24  1  6
  2  9  1  0
  9 10  2  0
  8 11  1  0
  2 11  1  0
  7 12  1  0
 13 15  3  0
 12 14  1  0
 15 16  1  0
 16 20  1  0
  6 16  2  0
  3 17  2  0
  9 18  1  0
 14 19  2  0
 18 20  2  0
  4 21  1  0
  4 22  1  0
  4 23  1  0
 12 25  2  0
 24 26  1  0
 25 27  1  0
 14 28  1  0
 27 29  2  0
 19 29  1  0
 19 30  1  0
 26 31  1  0
 28 32  1  0
 32 33  1  0
 30 33  1  0
M  END
>  <IDNUMBER>  (218) 
S964-0162

>  <available>  (218) 
37

>  <H_acceptor>  (218) 
4

>  <H_donor>  (218) 
1

>  <B_rotN>  (218) 
8

>  <N_O>  (218) 
5

>  <logP>  (218) 
4.8303

>  <logD>  (218) 
4.8303

>  <logSw>  (218) 
-4.5204

>  <PSA>  (218) 
51.718

>  <pKa_ma>  (218) 
11.9488

>  <pKa_mb>  (218) 
1.2428

>  <N_Chirals>  (218) 
2

>  <Name>  (218) 
rel-(3R,4R)-1-[4-cyano-3-(trifluoromethyl)phenyl]-4-(methoxymethyl)-N-(5,6,7,8-tetrahydronaphthalen-1-yl)pyrrolidine-3-carboxamide

>  <Smile>  (218) 
COC[C@@H](CN(C1)c(cc2)cc(C(F)(F)F)c2C#N)[C@H]1C(Nc1c(CCCC2)c2ccc1)=O

>  <Color>  (218) 
NOT COLORED

>  <Collection>  (218) 
IC

>  <InChI>  (218) 
InChI=1S/C25H26F3N3O2/c1-33-15-18-13-31(19-10-9-17(12-29)22(11-19)25(26,27)28)14-21(18)24(32)30-23-8-4-6-16-5-2-3-7-20(16)23/h4,6,8-11,18,21H,2-3,5,7,13-15H2,1H3,(H,30,32)/t18-,21+/m0/s1

>  <InChI Key>  (218) 
BBBQPJCBOZUWAO-GHTZIAJQSA-N

>  <PERCENTSP3>  (218) 
44

>  <Link>  (218) 
https://www.chemdiv.com/catalog/screening-compounds/compound-S964-0162/

>  <MFCDNUMBER>  (218) 
MFCD34645461

>  <CLNUMBER>  (218) 
CM4497

>  <STEREO>  (218) 
RELATIVE

>  <State>  (218) 
Solid

>  <Similarity score>  (218) 
0.24

$$$$
7-(diethylamino)-4-[(2,6-difluorophenyl)methyl]-5,8-difluoro-3,4-dihydro-1lambda
     RDKit          2D

 28 30  0  0  0  0  0  0  0  0999 V2000
    0.4307   -1.2487    0.0000 C   0  0  0  0  0  0  0  0  0  0  0  0
    1.2978   -1.7493    0.0000 S   0  0  0  0  0  0  0  0  0  0  0  0
   -0.4365   -1.7493    0.0000 C   0  0  0  0  0  0  0  0  0  0  0  0
    0.4307   -0.2533    0.0000 C   0  0  0  0  0  0  0  0  0  0  0  0
   -1.3039   -0.2533    0.0000 N   0  0  0  0  0  0  0  0  0  0  0  0
    1.2978    0.2473    0.0000 N   0  0  0  0  0  0  0  0  0  0  0  0
   -1.3039   -1.2487    0.0000 C   0  0  0  0  0  0  0  0  0  0  0  0
   -0.4365    0.2473    0.0000 C   0  0  0  0  0  0  0  0  0  0  0  0
    2.1650    1.7493    0.0000 C   0  0  0  0  0  0  0  0  0  0  0  0
    1.2978    1.2487    0.0000 C   0  0  0  0  0  0  0  0  0  0  0  0
    2.1650   -1.2487    0.0000 C   0  0  0  0  0  0  0  0  0  0  0  0
    2.1650   -0.2533    0.0000 C   0  0  0  0  0  0  0  0  0  0  0  0
    0.4307   -2.2499    0.0000 O   0  0  0  0  0  0  0  0  0  0  0  0
    2.1650   -2.2499    0.0000 O   0  0  0  0  0  0  0  0  0  0  0  0
   -2.1711   -1.7493    0.0000 N   0  0  0  0  0  0  0  0  0  0  0  0
    3.0324    1.2487    0.0000 C   0  0  0  0  0  0  0  0  0  0  0  0
    2.1650    2.7507    0.0000 C   0  0  0  0  0  0  0  0  0  0  0  0
   -0.4365   -2.7446    0.0000 F   0  0  0  0  0  0  0  0  0  0  0  0
   -0.4365    1.2487    0.0000 F   0  0  0  0  0  0  0  0  0  0  0  0
    1.3039    3.2513    0.0000 F   0  0  0  0  0  0  0  0  0  0  0  0
    3.0324    0.2533    0.0000 F   0  0  0  0  0  0  0  0  0  0  0  0
    3.8995    2.7507    0.0000 C   0  0  0  0  0  0  0  0  0  0  0  0
   -2.1711   -2.7507    0.0000 C   0  0  0  0  0  0  0  0  0  0  0  0
   -3.0382   -1.2487    0.0000 C   0  0  0  0  0  0  0  0  0  0  0  0
    3.0324    3.2513    0.0000 C   0  0  0  0  0  0  0  0  0  0  0  0
    3.8995    1.7493    0.0000 C   0  0  0  0  0  0  0  0  0  0  0  0
   -3.8995   -1.7493    0.0000 C   0  0  0  0  0  0  0  0  0  0  0  0
   -3.0382   -3.2513    0.0000 C   0  0  0  0  0  0  0  0  0  0  0  0
  1  2  1  0
  1  3  1  0
  1  4  2  0
  5  8  2  0
  5  7  1  0
  4  6  1  0
  3  7  2  0
  4  8  1  0
  9 10  1  0
  6 10  1  0
  2 11  1  0
  6 12  1  0
 11 12  1  0
  2 13  2  0
  2 14  2  0
  7 15  1  0
  9 16  2  0
  9 17  1  0
  3 18  1  0
  8 19  1  0
 17 20  1  0
 16 21  1  0
 22 25  1  0
 22 26  2  0
 15 23  1  0
 15 24  1  0
 17 25  2  0
 16 26  1  0
 24 27  1  0
 23 28  1  0
M  END
>  <IDNUMBER>  (219) 
8610-0656

>  <available>  (219) 
88

>  <H_acceptor>  (219) 
5

>  <H_donor>  (219) 
0

>  <B_rotN>  (219) 
5

>  <N_O>  (219) 
5

>  <logP>  (219) 
3.4727

>  <logD>  (219) 
3.4727

>  <logSw>  (219) 
-3.6506

>  <PSA>  (219) 
46.421

>  <pKa_ma>  (219) 
21.3867

>  <pKa_mb>  (219) 
1.6727

>  <N_Chirals>  (219) 
0

>  <Name>  (219) 
7-(diethylamino)-4-[(2,6-difluorophenyl)methyl]-5,8-difluoro-3,4-dihydro-1lambda~6~-pyrido[4,3-b][1,4]thiazine-1,1(2H)-dione

>  <Smile>  (219) 
CCN(CC)c(c(F)c12)nc(F)c2N(Cc(c(F)ccc2)c2F)CCS1(=O)=O

>  <Color>  (219) 
YELLOW

>  <Collection>  (219) 
DC

>  <InChI>  (219) 
InChI=1S/C18H19F4N3O2S/c1-3-24(4-2)18-14(21)16-15(17(22)23-18)25(8-9-28(16,26)27)10-11-12(19)6-5-7-13(11)20/h5-7H,3-4,8-10H2,1-2H3

>  <InChI Key>  (219) 
UEWMRETZFXGCEG-UHFFFAOYSA-N

>  <PERCENTSP3>  (219) 
38.9

>  <Link>  (219) 
https://www.chemdiv.com/catalog/screening-compounds/compound-8610-0656/

>  <MFCDNUMBER>  (219) 
MFCD08053451

>  <STEREO>  (219) 
ACHIRAL

>  <State>  (219) 
Solid

>  <Similarity score>  (219) 
0.23

$$$$
2-(4-methoxyphenyl)-4-(pyrrolidin-1-yl)-5,6,8,9-tetrahydrooxepino[4,5-d]pyrimidi
     RDKit          2D

 24 27  0  0  0  0  0  0  0  0999 V2000
    0.0972    0.8397    0.0000 N   0  0  0  0  0  0  0  0  0  0  0  0
    0.1724    1.8360    0.0000 C   0  0  0  0  0  0  0  0  0  0  0  0
   -0.6517    2.4001    0.0000 C   0  0  0  0  0  0  0  0  0  0  0  0
   -0.8022    0.4074    0.0000 C   0  0  0  0  0  0  0  0  0  0  0  0
   -1.6231    0.9650    0.0000 N   0  0  0  0  0  0  0  0  0  0  0  0
   -1.5479    1.9614    0.0000 C   0  0  0  0  0  0  0  0  0  0  0  0
    1.0777    2.2686    0.0000 N   0  0  0  0  0  0  0  0  0  0  0  0
   -0.8774   -0.5983    0.0000 C   0  0  0  0  0  0  0  0  0  0  0  0
   -2.0554    4.1516    0.0000 O   0  0  0  0  0  0  0  0  0  0  0  0
   -0.0533   -1.1624    0.0000 C   0  0  0  0  0  0  0  0  0  0  0  0
   -1.7796   -1.0278    0.0000 C   0  0  0  0  0  0  0  0  0  0  0  0
   -2.4566    2.4001    0.0000 C   0  0  0  0  0  0  0  0  0  0  0  0
   -0.4262    3.3713    0.0000 C   0  0  0  0  0  0  0  0  0  0  0  0
   -1.0276   -2.5911    0.0000 C   0  0  0  0  0  0  0  0  0  0  0  0
   -1.8548   -2.0273    0.0000 C   0  0  0  0  0  0  0  0  0  0  0  0
   -0.1286   -2.1588    0.0000 C   0  0  0  0  0  0  0  0  0  0  0  0
    1.2472    3.2554    0.0000 C   0  0  0  0  0  0  0  0  0  0  0  0
    1.9584    1.7984    0.0000 C   0  0  0  0  0  0  0  0  0  0  0  0
   -1.1029   -3.5875    0.0000 O   0  0  0  0  0  0  0  0  0  0  0  0
   -2.6758    3.3713    0.0000 C   0  0  0  0  0  0  0  0  0  0  0  0
   -1.0497    4.1516    0.0000 C   0  0  0  0  0  0  0  0  0  0  0  0
   -0.2757   -4.1516    0.0000 C   0  0  0  0  0  0  0  0  0  0  0  0
    2.2435    3.3903    0.0000 C   0  0  0  0  0  0  0  0  0  0  0  0
    2.6758    2.4847    0.0000 C   0  0  0  0  0  0  0  0  0  0  0  0
  1  2  2  0
  2  3  1  0
  1  4  1  0
  4  5  2  0
  5  6  1  0
  3  6  2  0
  2  7  1  0
  4  8  1  0
  9 21  1  0
  8 10  1  0
  8 11  2  0
  6 12  1  0
  3 13  1  0
 14 15  2  0
 11 15  1  0
 10 16  2  0
 14 16  1  0
  7 17  1  0
  7 18  1  0
 14 19  1  0
 12 20  1  0
  9 20  1  0
 13 21  1  0
 19 22  1  0
 17 23  1  0
 18 24  1  0
 23 24  1  0
M  END
>  <IDNUMBER>  (220) 
S896-0156

>  <available>  (220) 
37

>  <H_acceptor>  (220) 
4

>  <H_donor>  (220) 
0

>  <B_rotN>  (220) 
3

>  <N_O>  (220) 
5

>  <logP>  (220) 
4.3351

>  <logD>  (220) 
4.3294

>  <logSw>  (220) 
-4.2934

>  <PSA>  (220) 
39.494

>  <pKa_ma>  (220) 
19.7965

>  <pKa_mb>  (220) 
5.5159

>  <N_Chirals>  (220) 
0

>  <Name>  (220) 
2-(4-methoxyphenyl)-4-(pyrrolidin-1-yl)-5,6,8,9-tetrahydrooxepino[4,5-d]pyrimidine

>  <Smile>  (220) 
COc(cc1)ccc1-c1nc(CCOCC2)c2c(N2CCCC2)n1

>  <Color>  (220) 
BROWN

>  <Collection>  (220) 
IC

>  <InChI>  (220) 
InChI=1S/C19H23N3O2/c1-23-15-6-4-14(5-7-15)18-20-17-9-13-24-12-8-16(17)19(21-18)22-10-2-3-11-22/h4-7H,2-3,8-13H2,1H3

>  <InChI Key>  (220) 
DQWNYWMMEXZJDX-UHFFFAOYSA-N

>  <PERCENTSP3>  (220) 
47.37

>  <Link>  (220) 
https://www.chemdiv.com/catalog/screening-compounds/compound-S896-0156/

>  <MFCDNUMBER>  (220) 
MFCD31956801

>  <CLNUMBER>  (220) 
CM3993

>  <STEREO>  (220) 
ACHIRAL

>  <State>  (220) 
Solid

>  <Similarity score>  (220) 
0.23

$$$$
ethyl 4-{4-[(2,6-difluorophenyl)methyl]-5,8-difluoro-1,1-dioxo-1,2,3,4-tetrahydr
     RDKit          2D

 34 37  0  0  0  0  0  0  0  0999 V2000
    1.2973   -0.0028    0.0000 C   0  0  0  0  0  0  0  0  0  0  0  0
    2.1642   -0.5035    0.0000 S   0  0  0  0  0  0  0  0  0  0  0  0
    0.4303   -0.5035    0.0000 C   0  0  0  0  0  0  0  0  0  0  0  0
    1.2973    0.9981    0.0000 C   0  0  0  0  0  0  0  0  0  0  0  0
   -0.4363   -0.0028    0.0000 C   0  0  0  0  0  0  0  0  0  0  0  0
   -0.4363    0.9981    0.0000 N   0  0  0  0  0  0  0  0  0  0  0  0
    2.1642    1.4984    0.0000 N   0  0  0  0  0  0  0  0  0  0  0  0
    0.4303    1.4984    0.0000 C   0  0  0  0  0  0  0  0  0  0  0  0
    3.0311    3.0000    0.0000 C   0  0  0  0  0  0  0  0  0  0  0  0
    2.1642    2.4994    0.0000 C   0  0  0  0  0  0  0  0  0  0  0  0
   -1.3032   -0.5035    0.0000 N   0  0  0  0  0  0  0  0  0  0  0  0
   -3.0371   -1.5044    0.0000 N   0  0  0  0  0  0  0  0  0  0  0  0
   -3.9040   -1.9988    0.0000 C   0  0  0  0  0  0  0  0  0  0  0  0
    3.0311   -0.0028    0.0000 C   0  0  0  0  0  0  0  0  0  0  0  0
    3.0311    0.9981    0.0000 C   0  0  0  0  0  0  0  0  0  0  0  0
    3.0311   -1.0038    0.0000 O   0  0  0  0  0  0  0  0  0  0  0  0
    1.2973   -1.0038    0.0000 O   0  0  0  0  0  0  0  0  0  0  0  0
    3.8981    2.4994    0.0000 C   0  0  0  0  0  0  0  0  0  0  0  0
    3.0311    4.0010    0.0000 C   0  0  0  0  0  0  0  0  0  0  0  0
   -1.3032   -1.5044    0.0000 C   0  0  0  0  0  0  0  0  0  0  0  0
   -2.1702   -0.0028    0.0000 C   0  0  0  0  0  0  0  0  0  0  0  0
    0.4303   -1.5044    0.0000 F   0  0  0  0  0  0  0  0  0  0  0  0
   -3.0371   -0.5035    0.0000 C   0  0  0  0  0  0  0  0  0  0  0  0
   -2.1702   -1.9988    0.0000 C   0  0  0  0  0  0  0  0  0  0  0  0
   -4.7620   -1.5044    0.0000 O   0  0  0  0  0  0  0  0  0  0  0  0
    0.4303    2.4994    0.0000 F   0  0  0  0  0  0  0  0  0  0  0  0
   -3.9040   -2.9997    0.0000 O   0  0  0  0  0  0  0  0  0  0  0  0
    2.1702    4.5011    0.0000 F   0  0  0  0  0  0  0  0  0  0  0  0
    3.8981    1.5044    0.0000 F   0  0  0  0  0  0  0  0  0  0  0  0
    4.7650    4.0010    0.0000 C   0  0  0  0  0  0  0  0  0  0  0  0
    3.8981    4.5011    0.0000 C   0  0  0  0  0  0  0  0  0  0  0  0
    4.7650    3.0000    0.0000 C   0  0  0  0  0  0  0  0  0  0  0  0
   -4.7650   -3.5003    0.0000 C   0  0  0  0  0  0  0  0  0  0  0  0
   -4.7650   -4.5011    0.0000 C   0  0  0  0  0  0  0  0  0  0  0  0
  1  2  1  0
  1  3  1  0
  1  4  2  0
  3  5  2  0
  6  8  2  0
  5  6  1  0
  4  7  1  0
  4  8  1  0
  9 10  1  0
  7 10  1  0
  5 11  1  0
 12 23  1  0
 12 24  1  0
 12 13  1  0
  2 14  1  0
  7 15  1  0
 14 15  1  0
  2 16  2  0
  2 17  2  0
  9 18  2  0
  9 19  1  0
 11 20  1  0
 11 21  1  0
  3 22  1  0
 21 23  1  0
 20 24  1  0
 13 25  2  0
  8 26  1  0
 13 27  1  0
 19 28  1  0
 18 29  1  0
 30 31  1  0
 30 32  2  0
 19 31  2  0
 18 32  1  0
 27 33  1  0
 33 34  1  0
M  END
>  <IDNUMBER>  (221) 
8610-0664

>  <available>  (221) 
62

>  <H_acceptor>  (221) 
8

>  <H_donor>  (221) 
0

>  <B_rotN>  (221) 
6

>  <N_O>  (221) 
8

>  <logP>  (221) 
3.3503

>  <logD>  (221) 
3.3503

>  <logSw>  (221) 
-3.5443

>  <PSA>  (221) 
69.918

>  <pKa_ma>  (221) 
21.3867

>  <pKa_mb>  (221) 
0.4001

>  <N_Chirals>  (221) 
0

>  <Name>  (221) 
ethyl 4-{4-[(2,6-difluorophenyl)methyl]-5,8-difluoro-1,1-dioxo-1,2,3,4-tetrahydro-1lambda~6~-pyrido[4,3-b][1,4]thiazin-7-yl}piperazine-1-carboxylate

>  <Smile>  (221) 
CCOC(N(CC1)CCN1c(c(F)c12)nc(F)c2N(Cc(c(F)ccc2)c2F)CCS1(=O)=O)=O

>  <Color>  (221) 
NOT COLORED

>  <Collection>  (221) 
DC

>  <InChI>  (221) 
InChI=1S/C21H22F4N4O4S/c1-2-33-21(30)28-8-6-27(7-9-28)20-16(24)18-17(19(25)26-20)29(10-11-34(18,31)32)12-13-14(22)4-3-5-15(13)23/h3-5H,2,6-12H2,1H3

>  <InChI Key>  (221) 
AVCUJQQMECJVIZ-UHFFFAOYSA-N

>  <PERCENTSP3>  (221) 
42.9

>  <Link>  (221) 
https://www.chemdiv.com/catalog/screening-compounds/compound-8610-0664/

>  <MFCDNUMBER>  (221) 
MFCD08053459

>  <STEREO>  (221) 
ACHIRAL

>  <State>  (221) 
Solid

>  <Similarity score>  (221) 
0.23

$$$$
N-(2,4-difluorophenyl)-1-(2,5,6-trimethylfuro[2,3-d]pyrimidin-4-yl)piperidine-3-
     RDKit          2D

 29 32  0  0  0  0  0  0  0  0999 V2000
   -0.3543    2.4093    0.0000 C   0  0  0  0  0  0  0  0  0  0  0  0
   -1.0963    3.0721    0.0000 C   0  0  0  0  0  0  0  0  0  0  0  0
   -0.8921    4.0435    0.0000 C   0  0  0  0  0  0  0  0  0  0  0  0
   -0.5670    1.4256    0.0000 N   0  0  0  0  0  0  0  0  0  0  0  0
   -2.0927    2.9722    0.0000 C   0  0  0  0  0  0  0  0  0  0  0  0
    0.5962    2.7139    0.0000 N   0  0  0  0  0  0  0  0  0  0  0  0
    0.0584    4.3561    0.0000 N   0  0  0  0  0  0  0  0  0  0  0  0
   -1.7550    4.5437    0.0000 O   0  0  0  0  0  0  0  0  0  0  0  0
   -2.5051    3.8850    0.0000 C   0  0  0  0  0  0  0  0  0  0  0  0
    0.7171   -0.8921    0.0000 C   0  0  0  0  0  0  0  0  0  0  0  0
   -0.0293   -0.2168    0.0000 C   0  0  0  0  0  0  0  0  0  0  0  0
    0.8047    3.6974    0.0000 C   0  0  0  0  0  0  0  0  0  0  0  0
    0.5088   -1.8675    0.0000 N   0  0  0  0  0  0  0  0  0  0  0  0
    0.1793    0.7587    0.0000 C   0  0  0  0  0  0  0  0  0  0  0  0
    1.2465   -2.5387    0.0000 C   0  0  0  0  0  0  0  0  0  0  0  0
    2.2009   -2.2303    0.0000 C   0  0  0  0  0  0  0  0  0  0  0  0
    2.9473   -2.9013    0.0000 C   0  0  0  0  0  0  0  0  0  0  0  0
    1.6675   -0.5795    0.0000 O   0  0  0  0  0  0  0  0  0  0  0  0
    1.0422   -3.5183    0.0000 C   0  0  0  0  0  0  0  0  0  0  0  0
    2.7346   -3.8768    0.0000 C   0  0  0  0  0  0  0  0  0  0  0  0
    2.4094   -1.2505    0.0000 F   0  0  0  0  0  0  0  0  0  0  0  0
   -1.5173    1.1213    0.0000 C   0  0  0  0  0  0  0  0  0  0  0  0
    1.7843   -4.1893    0.0000 C   0  0  0  0  0  0  0  0  0  0  0  0
   -2.5928    2.1009    0.0000 C   0  0  0  0  0  0  0  0  0  0  0  0
    3.4808   -4.5437    0.0000 F   0  0  0  0  0  0  0  0  0  0  0  0
   -3.4808    4.0810    0.0000 C   0  0  0  0  0  0  0  0  0  0  0  0
   -0.9795   -0.5295    0.0000 C   0  0  0  0  0  0  0  0  0  0  0  0
   -1.7216    0.1376    0.0000 C   0  0  0  0  0  0  0  0  0  0  0  0
    1.7550    4.0019    0.0000 C   0  0  0  0  0  0  0  0  0  0  0  0
  1  2  1  0
  2  3  2  0
  3  7  1  0
  1  4  1  0
  2  5  1  0
  1  6  2  0
  7 12  2  0
  3  8  1  0
  5  9  2  0
  8  9  1  0
 10 11  1  0
 11 14  1  0
 11 27  1  0
  6 12  1  0
 10 13  1  0
  4 14  1  0
 13 15  1  0
 15 16  1  0
 16 17  2  0
 10 18  2  0
 15 19  2  0
 20 23  2  0
 17 20  1  0
 16 21  1  0
  4 22  1  0
 19 23  1  0
  5 24  1  0
 20 25  1  0
  9 26  1  0
 27 28  1  0
 22 28  1  0
 12 29  1  0
M  END
>  <IDNUMBER>  (222) 
F228-0877

>  <available>  (222) 
88

>  <H_acceptor>  (222) 
5

>  <H_donor>  (222) 
1

>  <B_rotN>  (222) 
4

>  <N_O>  (222) 
6

>  <logP>  (222) 
3.6942

>  <logD>  (222) 
3.3571

>  <logSw>  (222) 
-4.0321

>  <PSA>  (222) 
52.255

>  <pKa_ma>  (222) 
8.1865

>  <pKa_mb>  (222) 
7.4693

>  <N_Chirals>  (222) 
1

>  <Name>  (222) 
N-(2,4-difluorophenyl)-1-(2,5,6-trimethylfuro[2,3-d]pyrimidin-4-yl)piperidine-3-carboxamide

>  <Smile>  (222) 
Cc1c(C)oc2c1c(N(CCC1)CC1C(Nc(ccc(F)c1)c1F)=O)nc(C)n2

>  <Color>  (222) 
NOT COLORED

>  <Collection>  (222) 
NC

>  <InChI>  (222) 
InChI=1S/C21H22F2N4O2/c1-11-12(2)29-21-18(11)19(24-13(3)25-21)27-8-4-5-14(10-27)20(28)26-17-7-6-15(22)9-16(17)23/h6-7,9,14H,4-5,8,10H2,1-3H3,(H,26,28)/t14-/m0/s1

>  <InChI Key>  (222) 
BREAMLIAZICWSA-AWEZNQCLSA-N

>  <PERCENTSP3>  (222) 
38.1

>  <Link>  (222) 
https://www.chemdiv.com/catalog/screening-compounds/compound-F228-0877/

>  <MFCDNUMBER>  (222) 
MFCD14945696

>  <CLNUMBER>  (222) 
CL1321B

>  <STEREO>  (222) 
RACEMIC MIXTURE

>  <State>  (222) 
Solid

>  <Similarity score>  (222) 
0.23

$$$$
N-(2-ethyl-2,3,4,5-tetrahydro-1H-pyrido[4,3-b]indol-8-yl)-3,4-difluorobenzamide
     RDKit          2D

 26 29  0  0  0  0  0  0  0  0999 V2000
    1.6921    0.2480    0.0000 C   0  0  0  0  0  0  0  0  0  0  0  0
    2.5340   -0.2438    0.0000 C   0  0  0  0  0  0  0  0  0  0  0  0
    2.5340   -1.2148    0.0000 N   0  0  0  0  0  0  0  0  0  0  0  0
    0.8461   -1.2148    0.0000 C   0  0  0  0  0  0  0  0  0  0  0  0
    1.6921   -1.7068    0.0000 C   0  0  0  0  0  0  0  0  0  0  0  0
   -1.6920   -2.6819    0.0000 C   0  0  0  0  0  0  0  0  0  0  0  0
   -0.8460   -3.1695    0.0000 N   0  0  0  0  0  0  0  0  0  0  0  0
   -1.6920   -1.7025    0.0000 C   0  0  0  0  0  0  0  0  0  0  0  0
    1.6921    1.2232    0.0000 C   0  0  0  0  0  0  0  0  0  0  0  0
    2.5340    1.7192    0.0000 N   0  0  0  0  0  0  0  0  0  0  0  0
    3.3799    0.2480    0.0000 C   0  0  0  0  0  0  0  0  0  0  0  0
   -2.5339   -0.2438    0.0000 C   0  0  0  0  0  0  0  0  0  0  0  0
   -2.5339   -1.2148    0.0000 C   0  0  0  0  0  0  0  0  0  0  0  0
    0.0042   -1.7025    0.0000 C   0  0  0  0  0  0  0  0  0  0  0  0
    0.0042   -2.6819    0.0000 C   0  0  0  0  0  0  0  0  0  0  0  0
   -1.6920    0.2480    0.0000 C   0  0  0  0  0  0  0  0  0  0  0  0
   -2.5339   -3.1695    0.0000 O   0  0  0  0  0  0  0  0  0  0  0  0
    1.6921   -2.6819    0.0000 C   0  0  0  0  0  0  0  0  0  0  0  0
   -0.8460   -1.2148    0.0000 C   0  0  0  0  0  0  0  0  0  0  0  0
   -0.8460   -0.2438    0.0000 C   0  0  0  0  0  0  0  0  0  0  0  0
    3.3799    1.2191    0.0000 C   0  0  0  0  0  0  0  0  0  0  0  0
   -3.3799    0.2480    0.0000 F   0  0  0  0  0  0  0  0  0  0  0  0
    0.8461   -3.1695    0.0000 C   0  0  0  0  0  0  0  0  0  0  0  0
   -1.6920    1.2232    0.0000 F   0  0  0  0  0  0  0  0  0  0  0  0
    2.5340    2.6861    0.0000 C   0  0  0  0  0  0  0  0  0  0  0  0
    3.3799    3.1695    0.0000 C   0  0  0  0  0  0  0  0  0  0  0  0
  1  2  2  0
  2  3  1  0
  1  4  1  0
  4  5  1  0
  3  5  1  0
  6  7  1  0
  7 15  1  0
  6  8  1  0
  1  9  1  0
  9 10  1  0
  2 11  1  0
 12 13  1  0
  8 13  2  0
  4 14  2  0
 14 15  1  0
 16 20  1  0
 12 16  2  0
  6 17  2  0
  5 18  2  0
  8 19  1  0
 19 20  2  0
 10 21  1  0
 11 21  1  0
 12 22  1  0
 15 23  2  0
 18 23  1  0
 16 24  1  0
 10 25  1  0
 25 26  1  0
M  END
>  <IDNUMBER>  (223) 
M294-0082

>  <available>  (223) 
1

>  <H_acceptor>  (223) 
3

>  <H_donor>  (223) 
2

>  <B_rotN>  (223) 
4

>  <N_O>  (223) 
4

>  <logP>  (223) 
3.46

>  <logD>  (223) 
0.7494

>  <logSw>  (223) 
-3.8191

>  <PSA>  (223) 
37.57

>  <pKa_ma>  (223) 
8.8565

>  <pKa_mb>  (223) 
10.1807

>  <N_Chirals>  (223) 
0

>  <Name>  (223) 
N-(2-ethyl-2,3,4,5-tetrahydro-1H-pyrido[4,3-b]indol-8-yl)-3,4-difluorobenzamide

>  <Smile>  (223) 
CCN(CC1)Cc2c1[nH]c(cc1)c2cc1NC(c(cc1)cc(F)c1F)=O

>  <Color>  (223) 
NOT COLORED

>  <Collection>  (223) 
NC

>  <InChI>  (223) 
InChI=1S/C20H19F2N3O/c1-2-25-8-7-19-15(11-25)14-10-13(4-6-18(14)24-19)23-20(26)12-3-5-16(21)17(22)9-12/h3-6,9-10,24H,2,7-8,11H2,1H3,(H,23,26)

>  <InChI Key>  (223) 
YSASCPZJNIOIBY-UHFFFAOYSA-N

>  <PERCENTSP3>  (223) 
25

>  <Link>  (223) 
https://www.chemdiv.com/catalog/screening-compounds/compound-M294-0082/

>  <MFCDNUMBER>  (223) 
MFCD27535414

>  <CLNUMBER>  (223) 
CL9549

>  <STEREO>  (223) 
ACHIRAL

>  <State>  (223) 
Solid

>  <Similarity score>  (223) 
0.23

$$$$
N-[(2,5-difluorophenyl)methyl]-4-methoxy-2-phenyl-6,7,8,9-tetrahydro-5H-cyclohep
     RDKit          2D

 31 34  0  0  0  0  0  0  0  0999 V2000
   -2.1685   -0.8430    0.0000 N   0  0  0  0  0  0  0  0  0  0  0  0
   -2.1685   -1.8490    0.0000 C   0  0  0  0  0  0  0  0  0  0  0  0
   -0.4293   -0.8430    0.0000 C   0  0  0  0  0  0  0  0  0  0  0  0
   -1.2974   -0.3416    0.0000 C   0  0  0  0  0  0  0  0  0  0  0  0
   -1.2974   -2.3442    0.0000 N   0  0  0  0  0  0  0  0  0  0  0  0
   -0.4293   -1.8490    0.0000 C   0  0  0  0  0  0  0  0  0  0  0  0
    2.7641   -1.3414    0.0000 C   0  0  0  0  0  0  0  0  0  0  0  0
    3.2562    1.2535    0.0000 C   0  0  0  0  0  0  0  0  0  0  0  0
    0.3509   -0.2194    0.0000 C   0  0  0  0  0  0  0  0  0  0  0  0
    3.2562   -0.4762    0.0000 N   0  0  0  0  0  0  0  0  0  0  0  0
    4.2590    1.2535    0.0000 C   0  0  0  0  0  0  0  0  0  0  0  0
    2.7641    0.3919    0.0000 C   0  0  0  0  0  0  0  0  0  0  0  0
    1.7613   -1.3414    0.0000 C   0  0  0  0  0  0  0  0  0  0  0  0
    2.7641    2.1186    0.0000 C   0  0  0  0  0  0  0  0  0  0  0  0
   -3.0337   -2.3442    0.0000 C   0  0  0  0  0  0  0  0  0  0  0  0
    0.3509   -2.4663    0.0000 C   0  0  0  0  0  0  0  0  0  0  0  0
    3.2562   -2.2062    0.0000 O   0  0  0  0  0  0  0  0  0  0  0  0
    1.3195   -0.4482    0.0000 C   0  0  0  0  0  0  0  0  0  0  0  0
    1.3195   -2.2500    0.0000 C   0  0  0  0  0  0  0  0  0  0  0  0
    4.7667    2.1186    0.0000 C   0  0  0  0  0  0  0  0  0  0  0  0
   -1.2974    0.6612    0.0000 O   0  0  0  0  0  0  0  0  0  0  0  0
    3.2562    2.9868    0.0000 C   0  0  0  0  0  0  0  0  0  0  0  0
    4.7667    0.3919    0.0000 F   0  0  0  0  0  0  0  0  0  0  0  0
    4.2590    2.9868    0.0000 C   0  0  0  0  0  0  0  0  0  0  0  0
    2.7641    3.8516    0.0000 F   0  0  0  0  0  0  0  0  0  0  0  0
   -3.9018   -1.8490    0.0000 C   0  0  0  0  0  0  0  0  0  0  0  0
   -3.0337   -3.3440    0.0000 C   0  0  0  0  0  0  0  0  0  0  0  0
   -0.4293    1.1596    0.0000 C   0  0  0  0  0  0  0  0  0  0  0  0
   -4.7667   -2.3442    0.0000 C   0  0  0  0  0  0  0  0  0  0  0  0
   -3.9018   -3.8516    0.0000 C   0  0  0  0  0  0  0  0  0  0  0  0
   -4.7667   -3.3440    0.0000 C   0  0  0  0  0  0  0  0  0  0  0  0
  1  2  1  0
  3  4  1  0
  1  4  2  0
  2  5  2  0
  5  6  1  0
  3  6  2  0
  7 13  1  0
  8 12  1  0
  3  9  1  0
  7 10  1  0
  8 11  1  0
 10 12  1  0
 13 18  1  0
  8 14  2  0
  2 15  1  0
  6 16  1  0
  7 17  2  0
  9 18  1  0
 16 19  1  0
 13 19  1  0
 11 20  2  0
 20 24  1  0
  4 21  1  0
 14 22  1  0
 11 23  1  0
 22 24  2  0
 22 25  1  0
 15 26  1  0
 15 27  2  0
 21 28  1  0
 26 29  2  0
 29 31  1  0
 27 30  1  0
 30 31  2  0
M  END
>  <IDNUMBER>  (224) 
SD54-0169

>  <available>  (224) 
16

>  <H_acceptor>  (224) 
5

>  <H_donor>  (224) 
1

>  <B_rotN>  (224) 
6

>  <N_O>  (224) 
5

>  <logP>  (224) 
5.3281

>  <logD>  (224) 
5.328

>  <logSw>  (224) 
-5.3304

>  <PSA>  (224) 
53.005

>  <pKa_ma>  (224) 
11.1377

>  <pKa_mb>  (224) 
3.0621

>  <N_Chirals>  (224) 
1

>  <Name>  (224) 
N-[(2,5-difluorophenyl)methyl]-4-methoxy-2-phenyl-6,7,8,9-tetrahydro-5H-cyclohepta[d]pyrimidine-7-carboxamide

>  <Smile>  (224) 
COc1nc(-c2ccccc2)nc(CC2)c1CCC2C(NCc(cc(cc1)F)c1F)=O

>  <Color>  (224) 
NOT COLORED

>  <Collection>  (224) 
IC

>  <InChI>  (224) 
InChI=1S/C24H23F2N3O2/c1-31-24-19-10-7-16(23(30)27-14-17-13-18(25)9-11-20(17)26)8-12-21(19)28-22(29-24)15-5-3-2-4-6-15/h2-6,9,11,13,16H,7-8,10,12,14H2,1H3,(H,27,30)/t16-/m0/s1

>  <InChI Key>  (224) 
NLNNCXMFSHVYQC-INIZCTEOSA-N

>  <PERCENTSP3>  (224) 
29.17

>  <Link>  (224) 
https://www.chemdiv.com/catalog/screening-compounds/compound-SD54-0169/

>  <MFCDNUMBER>  (224) 
MFCD32724520

>  <CLNUMBER>  (224) 
CM6341

>  <STEREO>  (224) 
RACEMIC MIXTURE

>  <State>  (224) 
Solid

>  <Similarity score>  (224) 
0.23

$$$$
N-(2H-1,3-benzodioxol-5-yl)-2-(9-fluoro-6-methyl-10-oxo-3,4,5,10-tetrahydrobenzo
     RDKit          2D

 30 34  0  0  0  0  0  0  0  0999 V2000
   -0.8288   -1.7780    0.0000 C   0  0  0  0  0  0  0  0  0  0  0  0
   -1.7029   -1.2767    0.0000 C   0  0  0  0  0  0  0  0  0  0  0  0
   -2.5770   -1.7780    0.0000 C   0  0  0  0  0  0  0  0  0  0  0  0
   -1.7124   -3.2350    0.0000 N   0  0  0  0  0  0  0  0  0  0  0  0
   -2.5770   -2.7432    0.0000 C   0  0  0  0  0  0  0  0  0  0  0  0
   -0.8288   -2.7652    0.0000 C   0  0  0  0  0  0  0  0  0  0  0  0
    0.9446   -1.7780    0.0000 N   0  0  0  0  0  0  0  0  0  0  0  0
    0.0737   -1.2767    0.0000 C   0  0  0  0  0  0  0  0  0  0  0  0
    1.8282   -0.3118    0.0000 C   0  0  0  0  0  0  0  0  0  0  0  0
    3.6173    2.6209    0.0000 C   0  0  0  0  0  0  0  0  0  0  0  0
   -3.4639   -1.2767    0.0000 C   0  0  0  0  0  0  0  0  0  0  0  0
    0.0643   -3.2350    0.0000 C   0  0  0  0  0  0  0  0  0  0  0  0
    3.6173    1.6465    0.0000 C   0  0  0  0  0  0  0  0  0  0  0  0
   -3.4639   -3.2350    0.0000 C   0  0  0  0  0  0  0  0  0  0  0  0
    2.7400    0.1895    0.0000 N   0  0  0  0  0  0  0  0  0  0  0  0
   -1.7029   -0.2931    0.0000 O   0  0  0  0  0  0  0  0  0  0  0  0
    2.7242    3.1003    0.0000 C   0  0  0  0  0  0  0  0  0  0  0  0
    4.3380    3.3164    0.0000 O   0  0  0  0  0  0  0  0  0  0  0  0
    2.9219    4.0967    0.0000 O   0  0  0  0  0  0  0  0  0  0  0  0
    2.7400    1.1734    0.0000 C   0  0  0  0  0  0  0  0  0  0  0  0
    1.8282   -1.2767    0.0000 C   0  0  0  0  0  0  0  0  0  0  0  0
    3.9088    4.2314    0.0000 C   0  0  0  0  0  0  0  0  0  0  0  0
    0.9446    0.1895    0.0000 O   0  0  0  0  0  0  0  0  0  0  0  0
    0.9446   -2.7652    0.0000 C   0  0  0  0  0  0  0  0  0  0  0  0
   -4.3380   -1.7780    0.0000 C   0  0  0  0  0  0  0  0  0  0  0  0
   -4.3380   -2.7432    0.0000 C   0  0  0  0  0  0  0  0  0  0  0  0
    1.8472    2.6209    0.0000 C   0  0  0  0  0  0  0  0  0  0  0  0
    1.8472    1.6465    0.0000 C   0  0  0  0  0  0  0  0  0  0  0  0
   -3.4639   -0.2741    0.0000 F   0  0  0  0  0  0  0  0  0  0  0  0
   -3.4639   -4.2314    0.0000 C   0  0  0  0  0  0  0  0  0  0  0  0
  1  2  1  0
  2  3  1  0
  3  5  1  0
  4  6  1  0
  4  5  1  0
  1  6  2  0
  7  8  1  0
  1  8  1  0
  9 21  1  0
 10 13  2  0
 10 17  1  0
  3 11  2  0
  6 12  1  0
 12 24  1  0
 13 20  1  0
  5 14  2  0
  9 15  1  0
  2 16  2  0
 17 27  2  0
 10 18  1  0
 17 19  1  0
 19 22  1  0
 15 20  1  0
  7 21  1  0
 18 22  1  0
  9 23  2  0
  7 24  1  0
 11 25  1  0
 25 26  2  0
 14 26  1  0
 27 28  1  0
 20 28  2  0
 11 29  1  0
 14 30  1  0
M  END
>  <IDNUMBER>  (225) 
L489-1906

>  <available>  (225) 
75

>  <H_acceptor>  (225) 
7

>  <H_donor>  (225) 
2

>  <B_rotN>  (225) 
4

>  <N_O>  (225) 
7

>  <logP>  (225) 
3.4323

>  <logD>  (225) 
2.5353

>  <logSw>  (225) 
-3.7165

>  <PSA>  (225) 
65.926

>  <pKa_ma>  (225) 
6.5619

>  <pKa_mb>  (225) 
2.0512

>  <N_Chirals>  (225) 
0

>  <Name>  (225) 
N-(2H-1,3-benzodioxol-5-yl)-2-(9-fluoro-6-methyl-10-oxo-3,4,5,10-tetrahydrobenzo[b][1,6]naphthyridin-2(1H)-yl)acetamide

>  <Smile>  (225) 
Cc(ccc(F)c12)c2NC(CCN(CC(Nc(cc2)cc3c2OCO3)=O)C2)=C2C1=O

>  <Color>  (225) 
BROWN

>  <Collection>  (225) 
NC

>  <InChI>  (225) 
InChI=1S/C22H20FN3O4/c1-12-2-4-15(23)20-21(12)25-16-6-7-26(9-14(16)22(20)28)10-19(27)24-13-3-5-17-18(8-13)30-11-29-17/h2-5,8H,6-7,9-11H2,1H3,(H,24,27)(H,25,28)

>  <InChI Key>  (225) 
SDWZIOASGKJVAU-UHFFFAOYSA-N

>  <PERCENTSP3>  (225) 
27.3

>  <Link>  (225) 
https://www.chemdiv.com/catalog/screening-compounds/compound-L489-1906/

>  <MFCDNUMBER>  (225) 
MFCD27457672

>  <CLNUMBER>  (225) 
CL8213A

>  <STEREO>  (225) 
ACHIRAL

>  <State>  (225) 
Solid

>  <Similarity score>  (225) 
0.23

$$$$
3-(6-fluoro-1,3,4,9-tetrahydro-2H-pyrido[3,4-b]indol-2-yl)-1-methylpyrrolidine-2
     RDKit          2D

 22 25  0  0  0  0  0  0  0  0999 V2000
    3.5223    0.8435    0.0000 N   0  0  0  0  0  0  0  0  0  0  0  0
    2.5515    1.0560    0.0000 C   0  0  0  0  0  0  0  0  0  0  0  0
   -0.3561   -0.9518    0.0000 C   0  0  0  0  0  0  0  0  0  0  0  0
    3.6138   -0.1521    0.0000 C   0  0  0  0  0  0  0  0  0  0  0  0
    2.0434    0.1771    0.0000 C   0  0  0  0  0  0  0  0  0  0  0  0
   -0.9476   -0.1396    0.0000 C   0  0  0  0  0  0  0  0  0  0  0  0
    1.0726    0.0895    0.0000 N   0  0  0  0  0  0  0  0  0  0  0  0
    2.7224   -0.5562    0.0000 C   0  0  0  0  0  0  0  0  0  0  0  0
   -0.9227   -1.7642    0.0000 N   0  0  0  0  0  0  0  0  0  0  0  0
   -1.8976   -0.4562    0.0000 C   0  0  0  0  0  0  0  0  0  0  0  0
   -1.8810   -1.4685    0.0000 C   0  0  0  0  0  0  0  0  0  0  0  0
    0.6395   -0.8477    0.0000 C   0  0  0  0  0  0  0  0  0  0  0  0
   -0.5436    0.7811    0.0000 C   0  0  0  0  0  0  0  0  0  0  0  0
    0.4728    0.8895    0.0000 C   0  0  0  0  0  0  0  0  0  0  0  0
    2.1266    1.9517    0.0000 O   0  0  0  0  0  0  0  0  0  0  0  0
    4.4845   -0.6477    0.0000 O   0  0  0  0  0  0  0  0  0  0  0  0
   -2.7474    0.0437    0.0000 C   0  0  0  0  0  0  0  0  0  0  0  0
   -2.7474   -1.9517    0.0000 C   0  0  0  0  0  0  0  0  0  0  0  0
    4.2469    1.5059    0.0000 C   0  0  0  0  0  0  0  0  0  0  0  0
   -3.6181   -0.4562    0.0000 C   0  0  0  0  0  0  0  0  0  0  0  0
   -3.6181   -1.4685    0.0000 C   0  0  0  0  0  0  0  0  0  0  0  0
   -4.4845    0.0437    0.0000 F   0  0  0  0  0  0  0  0  0  0  0  0
  1  2  1  0
  3 12  1  0
  1  4  1  0
  2  5  1  0
  5  8  1  0
  6 13  1  0
  3  6  2  0
  5  7  1  0
  4  8  1  0
  3  9  1  0
  6 10  1  0
 10 11  1  0
  9 11  1  0
  7 12  1  0
 13 14  1  0
  7 14  1  0
  2 15  2  0
  4 16  2  0
 10 17  2  0
 11 18  2  0
  1 19  1  0
 17 20  1  0
 20 21  2  0
 18 21  1  0
 20 22  1  0
M  END
>  <IDNUMBER>  (226) 
Y020-9706

>  <available>  (226) 
13

>  <H_acceptor>  (226) 
5

>  <H_donor>  (226) 
1

>  <B_rotN>  (226) 
1

>  <N_O>  (226) 
5

>  <logP>  (226) 
0.3584

>  <logD>  (226) 
0.3582

>  <logSw>  (226) 
-2.0343

>  <PSA>  (226) 
43.148

>  <pKa_ma>  (226) 
16.8486

>  <pKa_mb>  (226) 
3.9283

>  <N_Chirals>  (226) 
1

>  <Name>  (226) 
3-(6-fluoro-1,3,4,9-tetrahydro-2H-pyrido[3,4-b]indol-2-yl)-1-methylpyrrolidine-2,5-dione

>  <Smile>  (226) 
CN(C(CC1N(CC2)Cc3c2c(cc(cc2)F)c2[nH]3)=O)C1=O

>  <Color>  (226) 
NOT COLORED

>  <Collection>  (226) 
DC

>  <InChI>  (226) 
InChI=1S/C16H16FN3O2/c1-19-15(21)7-14(16(19)22)20-5-4-10-11-6-9(17)2-3-12(11)18-13(10)8-20/h2-3,6,14,18H,4-5,7-8H2,1H3/t14-/m0/s1

>  <InChI Key>  (226) 
WKYJQDYNRZJPEZ-AWEZNQCLSA-N

>  <PERCENTSP3>  (226) 
37.5

>  <Link>  (226) 
https://www.chemdiv.com/catalog/screening-compounds/compound-Y020-9706/

>  <MFCDNUMBER>  (226) 
MFCD22582761

>  <STEREO>  (226) 
RACEMIC MIXTURE

>  <State>  (226) 
Solid

>  <Similarity score>  (226) 
0.23

$$$$
(2,4-difluorophenyl)[4-(4-methylpiperidin-1-yl)-2-(morpholin-4-yl)-7,8-dihydropy
     RDKit          2D

 33 37  0  0  0  0  0  0  0  0999 V2000
    2.5812   -0.7479    0.0000 N   0  0  0  0  0  0  0  0  0  0  0  0
    1.7143   -0.2439    0.0000 C   0  0  0  0  0  0  0  0  0  0  0  0
    2.5812   -1.7478    0.0000 C   0  0  0  0  0  0  0  0  0  0  0  0
    0.8478   -0.7479    0.0000 C   0  0  0  0  0  0  0  0  0  0  0  0
   -0.8938   -0.7521    0.0000 N   0  0  0  0  0  0  0  0  0  0  0  0
   -1.7647   -0.2603    0.0000 C   0  0  0  0  0  0  0  0  0  0  0  0
   -2.6271   -0.7646    0.0000 C   0  0  0  0  0  0  0  0  0  0  0  0
    1.7143   -2.2519    0.0000 N   0  0  0  0  0  0  0  0  0  0  0  0
    0.8478   -1.7520    0.0000 C   0  0  0  0  0  0  0  0  0  0  0  0
   -0.0230   -0.2439    0.0000 C   0  0  0  0  0  0  0  0  0  0  0  0
    1.7143    0.7561    0.0000 N   0  0  0  0  0  0  0  0  0  0  0  0
    3.4519   -2.2477    0.0000 N   0  0  0  0  0  0  0  0  0  0  0  0
   -3.4896   -0.2770    0.0000 C   0  0  0  0  0  0  0  0  0  0  0  0
   -2.6187   -1.7645    0.0000 C   0  0  0  0  0  0  0  0  0  0  0  0
   -4.3395   -0.7771    0.0000 C   0  0  0  0  0  0  0  0  0  0  0  0
   -0.0188   -2.2477    0.0000 C   0  0  0  0  0  0  0  0  0  0  0  0
   -0.8853   -1.7520    0.0000 C   0  0  0  0  0  0  0  0  0  0  0  0
   -1.7687    0.7436    0.0000 O   0  0  0  0  0  0  0  0  0  0  0  0
    0.8436    1.2562    0.0000 C   0  0  0  0  0  0  0  0  0  0  0  0
    2.5812    1.2562    0.0000 C   0  0  0  0  0  0  0  0  0  0  0  0
    5.1810   -3.2727    0.0000 O   0  0  0  0  0  0  0  0  0  0  0  0
   -4.3395   -1.7687    0.0000 C   0  0  0  0  0  0  0  0  0  0  0  0
   -3.4936    0.7144    0.0000 F   0  0  0  0  0  0  0  0  0  0  0  0
   -3.4771   -2.2644    0.0000 C   0  0  0  0  0  0  0  0  0  0  0  0
   -5.1935   -2.2688    0.0000 F   0  0  0  0  0  0  0  0  0  0  0  0
    0.8436    2.2519    0.0000 C   0  0  0  0  0  0  0  0  0  0  0  0
    2.5727    2.2602    0.0000 C   0  0  0  0  0  0  0  0  0  0  0  0
    4.3269   -1.7520    0.0000 C   0  0  0  0  0  0  0  0  0  0  0  0
    3.4436   -3.2477    0.0000 C   0  0  0  0  0  0  0  0  0  0  0  0
    1.7062    2.7561    0.0000 C   0  0  0  0  0  0  0  0  0  0  0  0
    4.3144   -3.7603    0.0000 C   0  0  0  0  0  0  0  0  0  0  0  0
    5.1935   -2.2644    0.0000 C   0  0  0  0  0  0  0  0  0  0  0  0
    1.6976    3.7603    0.0000 C   0  0  0  0  0  0  0  0  0  0  0  0
  1  2  2  0
  1  3  1  0
  2  4  1  0
  4  9  2  0
  5 10  1  0
  5  6  1  0
  6  7  1  0
  3  8  2  0
  8  9  1  0
  4 10  1  0
  2 11  1  0
  3 12  1  0
  7 13  2  0
  7 14  1  0
 13 15  1  0
  9 16  1  0
 16 17  1  0
  5 17  1  0
  6 18  2  0
 11 19  1  0
 11 20  1  0
 21 32  1  0
 15 22  2  0
 13 23  1  0
 14 24  2  0
 22 24  1  0
 22 25  1  0
 19 26  1  0
 20 27  1  0
 12 28  1  0
 12 29  1  0
 26 30  1  0
 27 30  1  0
 29 31  1  0
 21 31  1  0
 28 32  1  0
 30 33  1  0
M  END
>  <IDNUMBER>  (227) 
V021-1232

>  <available>  (227) 
1

>  <H_acceptor>  (227) 
5

>  <H_donor>  (227) 
0

>  <B_rotN>  (227) 
4

>  <N_O>  (227) 
7

>  <logP>  (227) 
4.0229

>  <logD>  (227) 
4.0219

>  <logSw>  (227) 
-4.2372

>  <PSA>  (227) 
50.294

>  <pKa_ma>  (227) 
19.796

>  <pKa_mb>  (227) 
4.7718

>  <N_Chirals>  (227) 
0

>  <Name>  (227) 
(2,4-difluorophenyl)[4-(4-methylpiperidin-1-yl)-2-(morpholin-4-yl)-7,8-dihydropyrido[4,3-d]pyrimidin-6(5H)-yl]methanone

>  <Smile>  (227) 
CC(CC1)CCN1c1c(CN(CC2)C(c(ccc(F)c3)c3F)=O)c2nc(N2CCOCC2)n1

>  <Color>  (227) 
NOT COLORED

>  <Collection>  (227) 
DC

>  <InChI>  (227) 
InChI=1S/C24H29F2N5O2/c1-16-4-7-29(8-5-16)22-19-15-31(23(32)18-3-2-17(25)14-20(18)26)9-6-21(19)27-24(28-22)30-10-12-33-13-11-30/h2-3,14,16H,4-13,15H2,1H3

>  <InChI Key>  (227) 
ZKITXJBDPSZEFW-UHFFFAOYSA-N

>  <PERCENTSP3>  (227) 
54.167

>  <Link>  (227) 
https://www.chemdiv.com/catalog/screening-compounds/compound-V021-1232/

>  <MFCDNUMBER>  (227) 
MFCD19909043

>  <STEREO>  (227) 
ACHIRAL

>  <State>  (227) 
Solid

>  <Similarity score>  (227) 
0.23

$$$$
N-(4-fluorophenyl)-N'-(2-propyl-2,3,4,5-tetrahydro-1H-pyrido[4,3-b]indol-8-yl)ur
     RDKit          2D

 27 30  0  0  0  0  0  0  0  0999 V2000
   -2.5293    0.2417    0.0000 C   0  0  0  0  0  0  0  0  0  0  0  0
   -2.5293    1.2167    0.0000 C   0  0  0  0  0  0  0  0  0  0  0  0
   -1.6917    1.7085    0.0000 N   0  0  0  0  0  0  0  0  0  0  0  0
   -0.8417    0.2417    0.0000 C   0  0  0  0  0  0  0  0  0  0  0  0
   -0.8417    1.2167    0.0000 C   0  0  0  0  0  0  0  0  0  0  0  0
    1.6959   -1.2209    0.0000 C   0  0  0  0  0  0  0  0  0  0  0  0
   -3.3833   -0.2457    0.0000 C   0  0  0  0  0  0  0  0  0  0  0  0
   -4.2211    0.2417    0.0000 N   0  0  0  0  0  0  0  0  0  0  0  0
   -3.3833    1.7085    0.0000 C   0  0  0  0  0  0  0  0  0  0  0  0
    1.6959   -0.2457    0.0000 N   0  0  0  0  0  0  0  0  0  0  0  0
    2.5335   -1.7085    0.0000 N   0  0  0  0  0  0  0  0  0  0  0  0
    0.0043   -0.2457    0.0000 C   0  0  0  0  0  0  0  0  0  0  0  0
    0.8417    0.2417    0.0000 C   0  0  0  0  0  0  0  0  0  0  0  0
    0.8417   -1.7085    0.0000 O   0  0  0  0  0  0  0  0  0  0  0  0
    0.0043    1.7085    0.0000 C   0  0  0  0  0  0  0  0  0  0  0  0
   -4.2211    1.2167    0.0000 C   0  0  0  0  0  0  0  0  0  0  0  0
    3.3833   -1.2209    0.0000 C   0  0  0  0  0  0  0  0  0  0  0  0
    0.8417    1.2167    0.0000 C   0  0  0  0  0  0  0  0  0  0  0  0
    5.0794   -0.2457    0.0000 C   0  0  0  0  0  0  0  0  0  0  0  0
    5.9169    0.2417    0.0000 F   0  0  0  0  0  0  0  0  0  0  0  0
    3.3833   -0.2457    0.0000 C   0  0  0  0  0  0  0  0  0  0  0  0
    4.2211   -1.7085    0.0000 C   0  0  0  0  0  0  0  0  0  0  0  0
    4.2211    0.2417    0.0000 C   0  0  0  0  0  0  0  0  0  0  0  0
    5.0794   -1.2209    0.0000 C   0  0  0  0  0  0  0  0  0  0  0  0
   -5.0794   -0.2457    0.0000 C   0  0  0  0  0  0  0  0  0  0  0  0
   -5.0794   -1.2209    0.0000 C   0  0  0  0  0  0  0  0  0  0  0  0
   -5.9169   -1.7085    0.0000 C   0  0  0  0  0  0  0  0  0  0  0  0
  1  2  2  0
  2  3  1  0
  1  4  1  0
  4  5  1  0
  3  5  1  0
  6 10  1  0
  1  7  1  0
  7  8  1  0
  2  9  1  0
 10 13  1  0
  6 11  1  0
  4 12  2  0
 12 13  1  0
  6 14  2  0
  5 15  2  0
  8 16  1  0
  9 16  1  0
 11 17  1  0
 13 18  2  0
 15 18  1  0
 19 24  2  0
 19 23  1  0
 19 20  1  0
 17 21  1  0
 17 22  2  0
 21 23  2  0
 22 24  1  0
  8 25  1  0
 25 26  1  0
 26 27  1  0
M  END
>  <IDNUMBER>  (228) 
M294-1325

>  <available>  (228) 
1

>  <H_acceptor>  (228) 
3

>  <H_donor>  (228) 
3

>  <B_rotN>  (228) 
6

>  <N_O>  (228) 
5

>  <logP>  (228) 
4.211

>  <logD>  (228) 
1.4818

>  <logSw>  (228) 
-4.1492

>  <PSA>  (228) 
47.036

>  <pKa_ma>  (228) 
11.6228

>  <pKa_mb>  (228) 
10.1284

>  <N_Chirals>  (228) 
0

>  <Name>  (228) 
N-(4-fluorophenyl)-N'-(2-propyl-2,3,4,5-tetrahydro-1H-pyrido[4,3-b]indol-8-yl)urea

>  <Smile>  (228) 
CCCN(CC1)Cc2c1[nH]c(cc1)c2cc1NC(Nc(cc1)ccc1F)=O

>  <Color>  (228) 
YELLOW

>  <Collection>  (228) 
NC

>  <InChI>  (228) 
InChI=1S/C21H23FN4O/c1-2-10-26-11-9-20-18(13-26)17-12-16(7-8-19(17)25-20)24-21(27)23-15-5-3-14(22)4-6-15/h3-8,12,25H,2,9-11,13H2,1H3,(H2,23,24,27)

>  <InChI Key>  (228) 
KALPGNDSCLTLST-UHFFFAOYSA-N

>  <PERCENTSP3>  (228) 
28.5714

>  <Link>  (228) 
https://www.chemdiv.com/catalog/screening-compounds/compound-M294-1325/

>  <MFCDNUMBER>  (228) 
MFCD27535427

>  <CLNUMBER>  (228) 
CL9549

>  <STEREO>  (228) 
ACHIRAL

>  <State>  (228) 
Solid

>  <Similarity score>  (228) 
0.23

$$$$
7-[(3,4-difluorophenyl)methyl]-2-(4-methylpiperazin-1-yl)-3,5,6,7,8,9-hexahydro-
     RDKit          2D

 28 31  0  0  0  0  0  0  0  0999 V2000
    1.3270    1.0920    0.0000 C   0  0  0  0  0  0  0  0  0  0  0  0
    1.1015    2.0760    0.0000 N   0  0  0  0  0  0  0  0  0  0  0  0
   -0.5907    1.6811    0.0000 C   0  0  0  0  0  0  0  0  0  0  0  0
    0.5939    0.4121    0.0000 N   0  0  0  0  0  0  0  0  0  0  0  0
    0.1427    2.3610    0.0000 C   0  0  0  0  0  0  0  0  0  0  0  0
   -0.3649    0.7129    0.0000 C   0  0  0  0  0  0  0  0  0  0  0  0
    2.2861    0.7973    0.0000 N   0  0  0  0  0  0  0  0  0  0  0  0
   -1.4870    2.1137    0.0000 C   0  0  0  0  0  0  0  0  0  0  0  0
   -2.6214    0.7129    0.0000 N   0  0  0  0  0  0  0  0  0  0  0  0
   -0.9949   -0.0675    0.0000 C   0  0  0  0  0  0  0  0  0  0  0  0
    4.1944    0.2082    0.0000 N   0  0  0  0  0  0  0  0  0  0  0  0
   -3.4955   -2.1639    0.0000 C   0  0  0  0  0  0  0  0  0  0  0  0
   -0.0738    3.3388    0.0000 O   0  0  0  0  0  0  0  0  0  0  0  0
   -4.4734   -2.3800    0.0000 C   0  0  0  0  0  0  0  0  0  0  0  0
    3.0192    1.4743    0.0000 C   0  0  0  0  0  0  0  0  0  0  0  0
    2.5022   -0.1709    0.0000 C   0  0  0  0  0  0  0  0  0  0  0  0
   -3.2073   -1.2051    0.0000 C   0  0  0  0  0  0  0  0  0  0  0  0
   -3.8904   -0.4717    0.0000 C   0  0  0  0  0  0  0  0  0  0  0  0
   -3.5896    0.4871    0.0000 C   0  0  0  0  0  0  0  0  0  0  0  0
   -2.3956    1.6811    0.0000 C   0  0  0  0  0  0  0  0  0  0  0  0
   -1.9914   -0.0675    0.0000 C   0  0  0  0  0  0  0  0  0  0  0  0
   -5.1533   -1.6470    0.0000 C   0  0  0  0  0  0  0  0  0  0  0  0
    3.4611   -0.4717    0.0000 C   0  0  0  0  0  0  0  0  0  0  0  0
    3.9654    1.1861    0.0000 C   0  0  0  0  0  0  0  0  0  0  0  0
   -2.8188   -2.8941    0.0000 F   0  0  0  0  0  0  0  0  0  0  0  0
   -4.8586   -0.6878    0.0000 C   0  0  0  0  0  0  0  0  0  0  0  0
   -4.7742   -3.3388    0.0000 F   0  0  0  0  0  0  0  0  0  0  0  0
    5.1533   -0.0768    0.0000 C   0  0  0  0  0  0  0  0  0  0  0  0
  1  2  1  0
  3  6  2  0
  3  5  1  0
  1  4  2  0
  2  5  1  0
  4  6  1  0
  1  7  1  0
  3  8  1  0
  9 21  1  0
  9 20  1  0
  6 10  1  0
 11 23  1  0
 11 24  1  0
 12 17  1  0
 12 14  2  0
  5 13  2  0
 14 22  1  0
  7 15  1  0
  7 16  1  0
 17 18  2  0
 18 19  1  0
  9 19  1  0
  8 20  1  0
 10 21  1  0
 22 26  2  0
 16 23  1  0
 15 24  1  0
 12 25  1  0
 18 26  1  0
 14 27  1  0
 11 28  1  0
M  END
>  <IDNUMBER>  (229) 
S039-3670

>  <available>  (229) 
3

>  <H_acceptor>  (229) 
5

>  <H_donor>  (229) 
1

>  <B_rotN>  (229) 
3

>  <N_O>  (229) 
6

>  <logP>  (229) 
1.5632

>  <logD>  (229) 
0.3435

>  <logSw>  (229) 
-2.379

>  <PSA>  (229) 
45.276

>  <pKa_ma>  (229) 
9.6889

>  <pKa_mb>  (229) 
8.5927

>  <N_Chirals>  (229) 
0

>  <Name>  (229) 
7-[(3,4-difluorophenyl)methyl]-2-(4-methylpiperazin-1-yl)-3,5,6,7,8,9-hexahydro-4H-pyrimido[4,5-d]azepin-4-one

>  <Smile>  (229) 
CN(CC1)CCN1C(N1)=NC(CCN(Cc(cc2)cc(F)c2F)CC2)=C2C1=O

>  <Color>  (229) 
NOT COLORED

>  <Collection>  (229) 
IC

>  <InChI>  (229) 
InChI=1S/C20H25F2N5O/c1-25-8-10-27(11-9-25)20-23-18-5-7-26(6-4-15(18)19(28)24-20)13-14-2-3-16(21)17(22)12-14/h2-3,12H,4-11,13H2,1H3,(H,23,24,28)

>  <InChI Key>  (229) 
UDMVQXXWMBWRRO-UHFFFAOYSA-N

>  <PERCENTSP3>  (229) 
50

>  <Link>  (229) 
https://www.chemdiv.com/catalog/screening-compounds/compound-S039-3670/

>  <MFCDNUMBER>  (229) 
MFCD28999062

>  <CLNUMBER>  (229) 
CM2417

>  <STEREO>  (229) 
ACHIRAL

>  <State>  (229) 
Solid

>  <Similarity score>  (229) 
0.23

$$$$
7-[(2,3-difluorophenyl)methyl]-2-(4-methylpiperazin-1-yl)-3,5,6,7,8,9-hexahydro-
     RDKit          2D

 28 31  0  0  0  0  0  0  0  0999 V2000
    1.8172    0.6141    0.0000 C   0  0  0  0  0  0  0  0  0  0  0  0
    1.5917    1.5917    0.0000 N   0  0  0  0  0  0  0  0  0  0  0  0
   -0.1004    1.2063    0.0000 C   0  0  0  0  0  0  0  0  0  0  0  0
    1.0841   -0.0627    0.0000 N   0  0  0  0  0  0  0  0  0  0  0  0
    0.6331    1.8831    0.0000 C   0  0  0  0  0  0  0  0  0  0  0  0
    0.1254    0.2286    0.0000 C   0  0  0  0  0  0  0  0  0  0  0  0
    2.7762    0.3164    0.0000 N   0  0  0  0  0  0  0  0  0  0  0  0
   -3.3966   -0.9463    0.0000 C   0  0  0  0  0  0  0  0  0  0  0  0
   -4.3648   -1.1718    0.0000 C   0  0  0  0  0  0  0  0  0  0  0  0
   -2.1212    0.2286    0.0000 N   0  0  0  0  0  0  0  0  0  0  0  0
   -1.0027    1.6386    0.0000 C   0  0  0  0  0  0  0  0  0  0  0  0
   -0.4950   -0.5514    0.0000 C   0  0  0  0  0  0  0  0  0  0  0  0
    4.6780   -0.2695    0.0000 N   0  0  0  0  0  0  0  0  0  0  0  0
   -3.1052    0.0032    0.0000 C   0  0  0  0  0  0  0  0  0  0  0  0
    0.4168    2.8639    0.0000 O   0  0  0  0  0  0  0  0  0  0  0  0
    3.0017   -0.6518    0.0000 C   0  0  0  0  0  0  0  0  0  0  0  0
    3.5030    1.0090    0.0000 C   0  0  0  0  0  0  0  0  0  0  0  0
   -4.6561   -2.1308    0.0000 C   0  0  0  0  0  0  0  0  0  0  0  0
   -1.8958    1.2063    0.0000 C   0  0  0  0  0  0  0  0  0  0  0  0
   -1.5008   -0.5514    0.0000 C   0  0  0  0  0  0  0  0  0  0  0  0
    3.9448   -0.9463    0.0000 C   0  0  0  0  0  0  0  0  0  0  0  0
    4.4525    0.6986    0.0000 C   0  0  0  0  0  0  0  0  0  0  0  0
   -5.0510   -0.4386    0.0000 F   0  0  0  0  0  0  0  0  0  0  0  0
   -5.6369   -2.3562    0.0000 F   0  0  0  0  0  0  0  0  0  0  0  0
   -2.7103   -1.6795    0.0000 C   0  0  0  0  0  0  0  0  0  0  0  0
    5.6369   -0.5609    0.0000 C   0  0  0  0  0  0  0  0  0  0  0  0
   -3.0112   -2.6384    0.0000 C   0  0  0  0  0  0  0  0  0  0  0  0
   -3.9793   -2.8639    0.0000 C   0  0  0  0  0  0  0  0  0  0  0  0
  1  2  1  0
  3  6  2  0
  3  5  1  0
  1  4  2  0
  2  5  1  0
  4  6  1  0
  1  7  1  0
  8 14  1  0
  8  9  2  0
 10 20  1  0
 10 19  1  0
  3 11  1  0
  6 12  1  0
 13 22  1  0
 13 21  1  0
 10 14  1  0
  5 15  2  0
  7 16  1  0
  7 17  1  0
  9 18  1  0
 18 28  2  0
 11 19  1  0
 12 20  1  0
 16 21  1  0
 17 22  1  0
  9 23  1  0
 18 24  1  0
  8 25  1  0
 13 26  1  0
 25 27  2  0
 27 28  1  0
M  END
>  <IDNUMBER>  (230) 
S039-3961

>  <available>  (230) 
1

>  <H_acceptor>  (230) 
5

>  <H_donor>  (230) 
1

>  <B_rotN>  (230) 
3

>  <N_O>  (230) 
6

>  <logP>  (230) 
1.831

>  <logD>  (230) 
0.6112

>  <logSw>  (230) 
-2.3225

>  <PSA>  (230) 
45.276

>  <pKa_ma>  (230) 
9.6889

>  <pKa_mb>  (230) 
8.5927

>  <N_Chirals>  (230) 
0

>  <Name>  (230) 
7-[(2,3-difluorophenyl)methyl]-2-(4-methylpiperazin-1-yl)-3,5,6,7,8,9-hexahydro-4H-pyrimido[4,5-d]azepin-4-one

>  <Smile>  (230) 
CN(CC1)CCN1C(N1)=NC(CCN(Cc2cccc(F)c2F)CC2)=C2C1=O

>  <Color>  (230) 
NOT COLORED

>  <Collection>  (230) 
IC

>  <InChI>  (230) 
InChI=1S/C20H25F2N5O/c1-25-9-11-27(12-10-25)20-23-17-6-8-26(7-5-15(17)19(28)24-20)13-14-3-2-4-16(21)18(14)22/h2-4H,5-13H2,1H3,(H,23,24,28)

>  <InChI Key>  (230) 
JGTJJVMAAFZULJ-UHFFFAOYSA-N

>  <PERCENTSP3>  (230) 
50

>  <Link>  (230) 
https://www.chemdiv.com/catalog/screening-compounds/compound-S039-3961/

>  <MFCDNUMBER>  (230) 
MFCD28999102

>  <CLNUMBER>  (230) 
CM2417

>  <STEREO>  (230) 
ACHIRAL

>  <State>  (230) 
Solid

>  <Similarity score>  (230) 
0.23

$$$$
N-(3,4-difluorophenyl)-2-(9-fluoro-6-methyl-10-oxo-3,4,5,10-tetrahydrobenzo[b][1
     RDKit          2D

 29 32  0  0  0  0  0  0  0  0999 V2000
   -0.8916   -1.7001    0.0000 C   0  0  0  0  0  0  0  0  0  0  0  0
   -1.7598   -1.2113    0.0000 C   0  0  0  0  0  0  0  0  0  0  0  0
   -2.6404   -1.7001    0.0000 C   0  0  0  0  0  0  0  0  0  0  0  0
   -1.7785   -3.1824    0.0000 N   0  0  0  0  0  0  0  0  0  0  0  0
   -2.6404   -2.6875    0.0000 C   0  0  0  0  0  0  0  0  0  0  0  0
   -0.8916   -2.6968    0.0000 C   0  0  0  0  0  0  0  0  0  0  0  0
    0.8822   -1.7001    0.0000 N   0  0  0  0  0  0  0  0  0  0  0  0
    0.0077   -1.2176    0.0000 C   0  0  0  0  0  0  0  0  0  0  0  0
    1.7692   -0.2396    0.0000 C   0  0  0  0  0  0  0  0  0  0  0  0
   -3.5334   -1.2176    0.0000 C   0  0  0  0  0  0  0  0  0  0  0  0
   -0.0077   -3.1824    0.0000 C   0  0  0  0  0  0  0  0  0  0  0  0
    3.5461    2.6842    0.0000 C   0  0  0  0  0  0  0  0  0  0  0  0
    3.5461    1.7065    0.0000 C   0  0  0  0  0  0  0  0  0  0  0  0
   -3.5334   -3.1730    0.0000 C   0  0  0  0  0  0  0  0  0  0  0  0
    2.6685    0.2459    0.0000 N   0  0  0  0  0  0  0  0  0  0  0  0
   -1.7598   -0.2242    0.0000 O   0  0  0  0  0  0  0  0  0  0  0  0
    2.6685    1.2333    0.0000 C   0  0  0  0  0  0  0  0  0  0  0  0
    2.6685    3.1700    0.0000 C   0  0  0  0  0  0  0  0  0  0  0  0
    1.7692   -1.2176    0.0000 C   0  0  0  0  0  0  0  0  0  0  0  0
    0.8822    0.2459    0.0000 O   0  0  0  0  0  0  0  0  0  0  0  0
    0.8822   -2.6968    0.0000 C   0  0  0  0  0  0  0  0  0  0  0  0
   -4.4016   -1.7001    0.0000 C   0  0  0  0  0  0  0  0  0  0  0  0
   -4.4016   -2.6875    0.0000 C   0  0  0  0  0  0  0  0  0  0  0  0
    1.7785    2.6842    0.0000 C   0  0  0  0  0  0  0  0  0  0  0  0
    4.4016    3.2014    0.0000 F   0  0  0  0  0  0  0  0  0  0  0  0
    1.7785    1.7065    0.0000 C   0  0  0  0  0  0  0  0  0  0  0  0
   -3.5334   -0.2242    0.0000 F   0  0  0  0  0  0  0  0  0  0  0  0
    2.6685    4.1697    0.0000 F   0  0  0  0  0  0  0  0  0  0  0  0
   -3.5334   -4.1697    0.0000 C   0  0  0  0  0  0  0  0  0  0  0  0
  1  2  1  0
  2  3  1  0
  3  5  1  0
  4  6  1  0
  4  5  1  0
  1  6  2  0
  7  8  1  0
  1  8  1  0
  9 19  1  0
  3 10  2  0
  6 11  1  0
 11 21  1  0
 12 13  2  0
 12 18  1  0
 13 17  1  0
  5 14  2  0
  9 15  1  0
  2 16  2  0
 15 17  1  0
 18 24  2  0
  7 19  1  0
  9 20  2  0
  7 21  1  0
 10 22  1  0
 22 23  2  0
 14 23  1  0
 24 26  1  0
 12 25  1  0
 17 26  2  0
 10 27  1  0
 18 28  1  0
 14 29  1  0
M  END
>  <IDNUMBER>  (231) 
L489-1908

>  <available>  (231) 
92

>  <H_acceptor>  (231) 
5

>  <H_donor>  (231) 
2

>  <B_rotN>  (231) 
4

>  <N_O>  (231) 
5

>  <logP>  (231) 
3.9558

>  <logD>  (231) 
3.0588

>  <logSw>  (231) 
-4.2206

>  <PSA>  (231) 
48.811

>  <pKa_ma>  (231) 
6.5619

>  <pKa_mb>  (231) 
1.2894

>  <N_Chirals>  (231) 
0

>  <Name>  (231) 
N-(3,4-difluorophenyl)-2-(9-fluoro-6-methyl-10-oxo-3,4,5,10-tetrahydrobenzo[b][1,6]naphthyridin-2(1H)-yl)acetamide

>  <Smile>  (231) 
Cc(c(NC1=C2CN(CC(Nc(cc3)cc(F)c3F)=O)CC1)c1C2=O)ccc1F

>  <Color>  (231) 
YELLOW

>  <Collection>  (231) 
NC

>  <InChI>  (231) 
InChI=1S/C21H18F3N3O2/c1-11-2-4-15(23)19-20(11)26-17-6-7-27(9-13(17)21(19)29)10-18(28)25-12-3-5-14(22)16(24)8-12/h2-5,8H,6-7,9-10H2,1H3,(H,25,28)(H,26,29)

>  <InChI Key>  (231) 
QUOULELQJOXPMJ-UHFFFAOYSA-N

>  <PERCENTSP3>  (231) 
23.8

>  <Link>  (231) 
https://www.chemdiv.com/catalog/screening-compounds/compound-L489-1908/

>  <MFCDNUMBER>  (231) 
MFCD27457674

>  <CLNUMBER>  (231) 
CL8213A

>  <STEREO>  (231) 
ACHIRAL

>  <State>  (231) 
Solid

>  <Similarity score>  (231) 
0.23

$$$$
4-[4-(2-fluorophenyl)piperazin-1-yl]-2-(2-methoxyethyl)-5,6,8,9-tetrahydrooxepin
     RDKit          2D

 28 31  0  0  0  0  0  0  0  0999 V2000
    1.0558   -0.0252    0.0000 C   0  0  0  0  0  0  0  0  0  0  0  0
    1.1247   -1.0213    0.0000 C   0  0  0  0  0  0  0  0  0  0  0  0
    1.8735    0.5294    0.0000 N   0  0  0  0  0  0  0  0  0  0  0  0
    0.1474    0.4074    0.0000 N   0  0  0  0  0  0  0  0  0  0  0  0
    2.0271   -1.4602    0.0000 C   0  0  0  0  0  0  0  0  0  0  0  0
    2.8511   -0.8993    0.0000 N   0  0  0  0  0  0  0  0  0  0  0  0
    2.7792    0.1004    0.0000 C   0  0  0  0  0  0  0  0  0  0  0  0
   -1.6575    1.2719    0.0000 N   0  0  0  0  0  0  0  0  0  0  0  0
   -2.5537    1.7045    0.0000 C   0  0  0  0  0  0  0  0  0  0  0  0
   -0.6799   -0.1568    0.0000 C   0  0  0  0  0  0  0  0  0  0  0  0
    0.0689    1.4035    0.0000 C   0  0  0  0  0  0  0  0  0  0  0  0
   -1.5823    0.2758    0.0000 C   0  0  0  0  0  0  0  0  0  0  0  0
   -0.8302    1.8361    0.0000 C   0  0  0  0  0  0  0  0  0  0  0  0
    3.5969    0.6610    0.0000 C   0  0  0  0  0  0  0  0  0  0  0  0
   -3.3869    1.1404    0.0000 C   0  0  0  0  0  0  0  0  0  0  0  0
    0.6268   -3.2209    0.0000 O   0  0  0  0  0  0  0  0  0  0  0  0
    2.2497   -2.4315    0.0000 C   0  0  0  0  0  0  0  0  0  0  0  0
    0.2225   -1.4602    0.0000 C   0  0  0  0  0  0  0  0  0  0  0  0
   -3.3055    0.1440    0.0000 F   0  0  0  0  0  0  0  0  0  0  0  0
    1.6292   -3.2209    0.0000 C   0  0  0  0  0  0  0  0  0  0  0  0
    4.3583    2.2308    0.0000 O   0  0  0  0  0  0  0  0  0  0  0  0
   -2.6351    2.7102    0.0000 C   0  0  0  0  0  0  0  0  0  0  0  0
    3.5310    1.6606    0.0000 C   0  0  0  0  0  0  0  0  0  0  0  0
   -0.0030   -2.4315    0.0000 C   0  0  0  0  0  0  0  0  0  0  0  0
   -4.2798    1.5759    0.0000 C   0  0  0  0  0  0  0  0  0  0  0  0
    4.2798    3.2209    0.0000 C   0  0  0  0  0  0  0  0  0  0  0  0
   -3.5310    3.1362    0.0000 C   0  0  0  0  0  0  0  0  0  0  0  0
   -4.3583    2.5786    0.0000 C   0  0  0  0  0  0  0  0  0  0  0  0
  1  2  1  0
  1  3  2  0
  1  4  1  0
  2  5  2  0
  6  7  2  0
  5  6  1  0
  3  7  1  0
  8 13  1  0
  8  9  1  0
  4 10  1  0
  4 11  1  0
 10 12  1  0
  8 12  1  0
 11 13  1  0
  7 14  1  0
  9 15  1  0
 16 24  1  0
  5 17  1  0
  2 18  1  0
 15 19  1  0
 17 20  1  0
 16 20  1  0
 21 23  1  0
  9 22  2  0
 14 23  1  0
 18 24  1  0
 15 25  2  0
 21 26  1  0
 22 27  1  0
 27 28  2  0
 25 28  1  0
M  END
>  <IDNUMBER>  (232) 
S896-0030

>  <available>  (232) 
14

>  <H_acceptor>  (232) 
4

>  <H_donor>  (232) 
0

>  <B_rotN>  (232) 
5

>  <N_O>  (232) 
6

>  <logP>  (232) 
3.3784

>  <logD>  (232) 
3.3747

>  <logSw>  (232) 
-3.5738

>  <PSA>  (232) 
44.148

>  <pKa_ma>  (232) 
19.7965

>  <pKa_mb>  (232) 
5.3362

>  <N_Chirals>  (232) 
0

>  <Name>  (232) 
4-[4-(2-fluorophenyl)piperazin-1-yl]-2-(2-methoxyethyl)-5,6,8,9-tetrahydrooxepino[4,5-d]pyrimidine

>  <Smile>  (232) 
COCCc1nc(CCOCC2)c2c(N(CC2)CCN2c(cccc2)c2F)n1

>  <Color>  (232) 
YELLOW

>  <Collection>  (232) 
IC

>  <InChI>  (232) 
InChI=1S/C21H27FN4O2/c1-27-13-8-20-23-18-7-15-28-14-6-16(18)21(24-20)26-11-9-25(10-12-26)19-5-3-2-4-17(19)22/h2-5H,6-15H2,1H3

>  <InChI Key>  (232) 
MXCFKYZHAXXKLK-UHFFFAOYSA-N

>  <PERCENTSP3>  (232) 
52.38

>  <Link>  (232) 
https://www.chemdiv.com/catalog/screening-compounds/compound-S896-0030/

>  <MFCDNUMBER>  (232) 
MFCD31957696

>  <CLNUMBER>  (232) 
CM3993

>  <STEREO>  (232) 
ACHIRAL

>  <State>  (232) 
Liquid

>  <Similarity score>  (232) 
0.23

$$$$
N-[1-(2-cyclopentyl-5,6,8,9-tetrahydrooxepino[4,5-d]pyrimidin-4-yl)piperidin-4-y
     RDKit          2D

 30 33  0  0  0  0  0  0  0  0999 V2000
   -1.5564    0.9105    0.0000 C   0  0  0  0  0  0  0  0  0  0  0  0
   -1.5564   -0.0895    0.0000 N   0  0  0  0  0  0  0  0  0  0  0  0
   -2.4189    1.4064    0.0000 C   0  0  0  0  0  0  0  0  0  0  0  0
   -2.4189   -0.5853    0.0000 C   0  0  0  0  0  0  0  0  0  0  0  0
   -3.2857   -0.0895    0.0000 N   0  0  0  0  0  0  0  0  0  0  0  0
   -0.6896    1.4064    0.0000 N   0  0  0  0  0  0  0  0  0  0  0  0
   -3.2857    0.9105    0.0000 C   0  0  0  0  0  0  0  0  0  0  0  0
    2.7774    2.4107    0.0000 C   0  0  0  0  0  0  0  0  0  0  0  0
    1.9106    2.9107    0.0000 N   0  0  0  0  0  0  0  0  0  0  0  0
    0.1770    0.9105    0.0000 C   0  0  0  0  0  0  0  0  0  0  0  0
   -0.6896    2.4107    0.0000 C   0  0  0  0  0  0  0  0  0  0  0  0
    3.6441    2.9107    0.0000 O   0  0  0  0  0  0  0  0  0  0  0  0
   -2.4189   -1.5855    0.0000 C   0  0  0  0  0  0  0  0  0  0  0  0
    1.0480    2.4107    0.0000 C   0  0  0  0  0  0  0  0  0  0  0  0
    1.0480    1.4064    0.0000 C   0  0  0  0  0  0  0  0  0  0  0  0
    0.1770    2.9107    0.0000 C   0  0  0  0  0  0  0  0  0  0  0  0
   -3.9524    3.0566    0.0000 O   0  0  0  0  0  0  0  0  0  0  0  0
    2.7774    1.4064    0.0000 C   0  0  0  0  0  0  0  0  0  0  0  0
   -4.2149    1.2730    0.0000 C   0  0  0  0  0  0  0  0  0  0  0  0
   -2.2689    2.3980    0.0000 C   0  0  0  0  0  0  0  0  0  0  0  0
   -4.5108    2.2314    0.0000 C   0  0  0  0  0  0  0  0  0  0  0  0
   -2.9565    3.1274    0.0000 C   0  0  0  0  0  0  0  0  0  0  0  0
   -1.6148   -2.1856    0.0000 C   0  0  0  0  0  0  0  0  0  0  0  0
   -3.2315   -2.1856    0.0000 C   0  0  0  0  0  0  0  0  0  0  0  0
    3.6441    0.9105    0.0000 C   0  0  0  0  0  0  0  0  0  0  0  0
    1.9106    0.9105    0.0000 C   0  0  0  0  0  0  0  0  0  0  0  0
    3.6441   -0.0895    0.0000 C   0  0  0  0  0  0  0  0  0  0  0  0
    4.5108   -0.5853    0.0000 C   0  0  0  0  0  0  0  0  0  0  0  0
   -2.9273   -3.1274    0.0000 C   0  0  0  0  0  0  0  0  0  0  0  0
   -1.9188   -3.1274    0.0000 C   0  0  0  0  0  0  0  0  0  0  0  0
  1  2  2  0
  1  3  1  0
  2  4  1  0
  4  5  2  0
  5  7  1  0
  1  6  1  0
  3  7  2  0
  8  9  1  0
  9 14  1  0
  6 10  1  0
  6 11  1  0
  8 12  2  0
  4 13  1  0
 14 16  1  0
 14 15  1  0
 10 15  1  0
 11 16  1  0
 17 22  1  0
 17 21  1  0
  8 18  1  0
  7 19  1  0
  3 20  1  0
 19 21  1  0
 20 22  1  0
 13 23  1  0
 13 24  1  0
 18 25  1  0
 18 26  1  0
 25 27  1  0
 27 28  1  0
 24 29  1  0
 29 30  1  0
 23 30  1  0
M  END
>  <IDNUMBER>  (233) 
S896-0674

>  <available>  (233) 
55

>  <H_acceptor>  (233) 
5

>  <H_donor>  (233) 
1

>  <B_rotN>  (233) 
7

>  <N_O>  (233) 
6

>  <logP>  (233) 
4.7889

>  <logD>  (233) 
4.7179

>  <logSw>  (233) 
-4.3975

>  <PSA>  (233) 
56.361

>  <pKa_ma>  (233) 
15.607

>  <pKa_mb>  (233) 
6.6495

>  <N_Chirals>  (233) 
1

>  <Name>  (233) 
N-[1-(2-cyclopentyl-5,6,8,9-tetrahydrooxepino[4,5-d]pyrimidin-4-yl)piperidin-4-yl]-2-methylpentanamide

>  <Smile>  (233) 
CCCC(C)C(NC(CC1)CCN1c1nc(C2CCCC2)nc2c1CCOCC2)=O

>  <Color>  (233) 
NOT COLORED

>  <Collection>  (233) 
IC

>  <InChI>  (233) 
InChI=1S/C24H38N4O2/c1-3-6-17(2)24(29)25-19-9-13-28(14-10-19)23-20-11-15-30-16-12-21(20)26-22(27-23)18-7-4-5-8-18/h17-19H,3-16H2,1-2H3,(H,25,29)/t17-/m0/s1

>  <InChI Key>  (233) 
DBYGQIJKRWBFTC-KRWDZBQOSA-N

>  <PERCENTSP3>  (233) 
79.17

>  <Link>  (233) 
https://www.chemdiv.com/catalog/screening-compounds/compound-S896-0674/

>  <MFCDNUMBER>  (233) 
MFCD31956886

>  <CLNUMBER>  (233) 
CM3993

>  <STEREO>  (233) 
RACEMIC MIXTURE

>  <State>  (233) 
Solid

>  <Similarity score>  (233) 
0.23

$$$$
2-(4-methoxyphenyl)-4-(4-propylpiperazin-1-yl)-5,6,8,9-tetrahydrooxepino[4,5-d]p
     RDKit          2D

 28 31  0  0  0  0  0  0  0  0999 V2000
   -0.8630    1.4081    0.0000 C   0  0  0  0  0  0  0  0  0  0  0  0
   -0.9381    0.4121    0.0000 N   0  0  0  0  0  0  0  0  0  0  0  0
   -1.6900    1.9752    0.0000 C   0  0  0  0  0  0  0  0  0  0  0  0
   -1.8404   -0.0171    0.0000 C   0  0  0  0  0  0  0  0  0  0  0  0
   -2.6674    0.5434    0.0000 N   0  0  0  0  0  0  0  0  0  0  0  0
    0.0297    1.8499    0.0000 N   0  0  0  0  0  0  0  0  0  0  0  0
   -2.5923    1.5492    0.0000 C   0  0  0  0  0  0  0  0  0  0  0  0
    1.8404    2.7145    0.0000 N   0  0  0  0  0  0  0  0  0  0  0  0
   -1.9155   -1.0135    0.0000 C   0  0  0  0  0  0  0  0  0  0  0  0
    0.8630    1.2796    0.0000 C   0  0  0  0  0  0  0  0  0  0  0  0
    0.1051    2.8459    0.0000 C   0  0  0  0  0  0  0  0  0  0  0  0
   -3.0935    3.7294    0.0000 O   0  0  0  0  0  0  0  0  0  0  0  0
   -2.8211   -1.4489    0.0000 C   0  0  0  0  0  0  0  0  0  0  0  0
   -1.0917   -1.5803    0.0000 C   0  0  0  0  0  0  0  0  0  0  0  0
    1.0072    3.2720    0.0000 C   0  0  0  0  0  0  0  0  0  0  0  0
    1.7591    1.7182    0.0000 C   0  0  0  0  0  0  0  0  0  0  0  0
   -3.4944    1.9752    0.0000 C   0  0  0  0  0  0  0  0  0  0  0  0
   -1.4675    2.9524    0.0000 C   0  0  0  0  0  0  0  0  0  0  0  0
   -2.0692   -3.0152    0.0000 C   0  0  0  0  0  0  0  0  0  0  0  0
   -1.1668   -2.5766    0.0000 C   0  0  0  0  0  0  0  0  0  0  0  0
   -2.8930   -2.4450    0.0000 C   0  0  0  0  0  0  0  0  0  0  0  0
   -2.1443   -4.0019    0.0000 O   0  0  0  0  0  0  0  0  0  0  0  0
    2.7365    3.1466    0.0000 C   0  0  0  0  0  0  0  0  0  0  0  0
   -3.7137    2.9524    0.0000 C   0  0  0  0  0  0  0  0  0  0  0  0
   -2.0877    3.7294    0.0000 C   0  0  0  0  0  0  0  0  0  0  0  0
   -1.3142   -4.5690    0.0000 C   0  0  0  0  0  0  0  0  0  0  0  0
    2.8085    4.1429    0.0000 C   0  0  0  0  0  0  0  0  0  0  0  0
    3.7137    4.5690    0.0000 C   0  0  0  0  0  0  0  0  0  0  0  0
  1  2  2  0
  1  3  1  0
  2  4  1  0
  5  7  1  0
  4  5  2  0
  1  6  1  0
  3  7  2  0
  8 15  1  0
  4  9  1  0
  6 10  1  0
  6 11  1  0
 12 25  1  0
  9 13  2  0
  9 14  1  0
 11 15  1  0
 10 16  1  0
  8 16  1  0
  7 17  1  0
  3 18  1  0
 19 20  1  0
 14 20  2  0
 13 21  1  0
 19 21  2  0
 19 22  1  0
  8 23  1  0
 17 24  1  0
 12 24  1  0
 18 25  1  0
 22 26  1  0
 23 27  1  0
 27 28  1  0
M  END
>  <IDNUMBER>  (234) 
S896-0120

>  <available>  (234) 
49

>  <H_acceptor>  (234) 
5

>  <H_donor>  (234) 
0

>  <B_rotN>  (234) 
5

>  <N_O>  (234) 
6

>  <logP>  (234) 
4.3819

>  <logD>  (234) 
3.0387

>  <logSw>  (234) 
-4.1518

>  <PSA>  (234) 
42.919

>  <pKa_ma>  (234) 
19.7965

>  <pKa_mb>  (234) 
8.7231

>  <N_Chirals>  (234) 
0

>  <Name>  (234) 
2-(4-methoxyphenyl)-4-(4-propylpiperazin-1-yl)-5,6,8,9-tetrahydrooxepino[4,5-d]pyrimidine

>  <Smile>  (234) 
CCCN(CC1)CCN1c1nc(-c(cc2)ccc2OC)nc2c1CCOCC2

>  <Color>  (234) 
ORANGE

>  <Collection>  (234) 
IC

>  <InChI>  (234) 
InChI=1S/C22H30N4O2/c1-3-10-25-11-13-26(14-12-25)22-19-8-15-28-16-9-20(19)23-21(24-22)17-4-6-18(27-2)7-5-17/h4-7H,3,8-16H2,1-2H3

>  <InChI Key>  (234) 
CWNDZZWAJWTPJE-UHFFFAOYSA-N

>  <PERCENTSP3>  (234) 
54.54

>  <Link>  (234) 
https://www.chemdiv.com/catalog/screening-compounds/compound-S896-0120/

>  <MFCDNUMBER>  (234) 
MFCD31956713

>  <CLNUMBER>  (234) 
CM3993

>  <STEREO>  (234) 
ACHIRAL

>  <State>  (234) 
Solid

>  <Similarity score>  (234) 
0.23

$$$$
4-[(2,6-difluorophenyl)methyl]-5,8-difluoro-7-(morpholin-4-yl)-3,4-dihydro-1lamb
     RDKit          2D

 29 32  0  0  0  0  0  0  0  0999 V2000
    0.4307   -1.2488    0.0000 C   0  0  0  0  0  0  0  0  0  0  0  0
    1.2979   -1.7494    0.0000 S   0  0  0  0  0  0  0  0  0  0  0  0
   -0.4365   -1.7494    0.0000 C   0  0  0  0  0  0  0  0  0  0  0  0
    0.4307   -0.2534    0.0000 C   0  0  0  0  0  0  0  0  0  0  0  0
   -1.3040   -1.2488    0.0000 C   0  0  0  0  0  0  0  0  0  0  0  0
   -1.3040   -0.2534    0.0000 N   0  0  0  0  0  0  0  0  0  0  0  0
    1.2979    0.2473    0.0000 N   0  0  0  0  0  0  0  0  0  0  0  0
   -0.4365    0.2473    0.0000 C   0  0  0  0  0  0  0  0  0  0  0  0
    2.1651    1.7494    0.0000 C   0  0  0  0  0  0  0  0  0  0  0  0
    1.2979    1.2488    0.0000 C   0  0  0  0  0  0  0  0  0  0  0  0
    2.1651   -1.2488    0.0000 C   0  0  0  0  0  0  0  0  0  0  0  0
   -2.1712   -1.7494    0.0000 N   0  0  0  0  0  0  0  0  0  0  0  0
    2.1651   -0.2534    0.0000 C   0  0  0  0  0  0  0  0  0  0  0  0
    2.1651   -2.2501    0.0000 O   0  0  0  0  0  0  0  0  0  0  0  0
    0.4307   -2.2501    0.0000 O   0  0  0  0  0  0  0  0  0  0  0  0
    3.0326    1.2488    0.0000 C   0  0  0  0  0  0  0  0  0  0  0  0
    2.1651    2.7509    0.0000 C   0  0  0  0  0  0  0  0  0  0  0  0
   -0.4365   -2.7448    0.0000 F   0  0  0  0  0  0  0  0  0  0  0  0
   -0.4365    1.2488    0.0000 F   0  0  0  0  0  0  0  0  0  0  0  0
   -3.8998   -2.7509    0.0000 O   0  0  0  0  0  0  0  0  0  0  0  0
    1.3040    3.2516    0.0000 F   0  0  0  0  0  0  0  0  0  0  0  0
    3.0326    0.2534    0.0000 F   0  0  0  0  0  0  0  0  0  0  0  0
   -3.0384   -1.2488    0.0000 C   0  0  0  0  0  0  0  0  0  0  0  0
   -2.1712   -2.7509    0.0000 C   0  0  0  0  0  0  0  0  0  0  0  0
    3.8998    2.7509    0.0000 C   0  0  0  0  0  0  0  0  0  0  0  0
    3.0326    3.2516    0.0000 C   0  0  0  0  0  0  0  0  0  0  0  0
    3.8998    1.7494    0.0000 C   0  0  0  0  0  0  0  0  0  0  0  0
   -3.8998   -1.7494    0.0000 C   0  0  0  0  0  0  0  0  0  0  0  0
   -3.0384   -3.2516    0.0000 C   0  0  0  0  0  0  0  0  0  0  0  0
  1  2  1  0
  1  3  1  0
  1  4  2  0
  3  5  2  0
  6  8  2  0
  5  6  1  0
  4  7  1  0
  4  8  1  0
  9 10  1  0
  7 10  1  0
  2 11  1  0
  5 12  1  0
  7 13  1  0
 11 13  1  0
  2 14  2  0
  2 15  2  0
  9 16  2  0
  9 17  1  0
  3 18  1  0
  8 19  1  0
 20 29  1  0
 20 28  1  0
 17 21  1  0
 16 22  1  0
 12 23  1  0
 12 24  1  0
 25 26  1  0
 25 27  2  0
 17 26  2  0
 16 27  1  0
 23 28  1  0
 24 29  1  0
M  END
>  <IDNUMBER>  (235) 
8610-0653

>  <available>  (235) 
70

>  <H_acceptor>  (235) 
6

>  <H_donor>  (235) 
0

>  <B_rotN>  (235) 
3

>  <N_O>  (235) 
6

>  <logP>  (235) 
2.6539

>  <logD>  (235) 
2.6539

>  <logSw>  (235) 
-2.8352

>  <PSA>  (235) 
55.046

>  <pKa_ma>  (235) 
21.3867

>  <pKa_mb>  (235) 
-0.8099

>  <N_Chirals>  (235) 
0

>  <Name>  (235) 
4-[(2,6-difluorophenyl)methyl]-5,8-difluoro-7-(morpholin-4-yl)-3,4-dihydro-1lambda~6~-pyrido[4,3-b][1,4]thiazine-1,1(2H)-dione

>  <Smile>  (235) 
O=S(CCN(Cc(c(F)ccc1)c1F)c1c(nc2N3CCOCC3)F)(c1c2F)=O

>  <Color>  (235) 
NOT COLORED

>  <Collection>  (235) 
DC

>  <InChI>  (235) 
InChI=1S/C18H17F4N3O3S/c19-12-2-1-3-13(20)11(12)10-25-6-9-29(26,27)16-14(21)18(23-17(22)15(16)25)24-4-7-28-8-5-24/h1-3H,4-10H2

>  <InChI Key>  (235) 
LBLSRMXDTBGPHE-UHFFFAOYSA-N

>  <PERCENTSP3>  (235) 
38.9

>  <Link>  (235) 
https://www.chemdiv.com/catalog/screening-compounds/compound-8610-0653/

>  <MFCDNUMBER>  (235) 
MFCD08053448

>  <STEREO>  (235) 
ACHIRAL

>  <State>  (235) 
Solid

>  <Similarity score>  (235) 
0.23

$$$$
2-(9-fluoro-6-methyl-10-oxo-3,4,5,10-tetrahydrobenzo[b][1,6]naphthyridin-2(1H)-y
     RDKit          2D

 29 32  0  0  0  0  0  0  0  0999 V2000
   -0.8914   -1.6968    0.0000 C   0  0  0  0  0  0  0  0  0  0  0  0
   -1.7595   -1.1923    0.0000 C   0  0  0  0  0  0  0  0  0  0  0  0
   -2.6399   -1.6968    0.0000 C   0  0  0  0  0  0  0  0  0  0  0  0
   -1.7782   -3.1757    0.0000 N   0  0  0  0  0  0  0  0  0  0  0  0
   -2.6399   -2.6743    0.0000 C   0  0  0  0  0  0  0  0  0  0  0  0
   -0.8914   -2.6870    0.0000 C   0  0  0  0  0  0  0  0  0  0  0  0
    0.8821   -1.6968    0.0000 N   0  0  0  0  0  0  0  0  0  0  0  0
    0.0017   -1.2111    0.0000 C   0  0  0  0  0  0  0  0  0  0  0  0
    1.7689   -0.2335    0.0000 C   0  0  0  0  0  0  0  0  0  0  0  0
   -3.5328   -1.2111    0.0000 C   0  0  0  0  0  0  0  0  0  0  0  0
   -0.0077   -3.1757    0.0000 C   0  0  0  0  0  0  0  0  0  0  0  0
   -3.5328   -3.1757    0.0000 C   0  0  0  0  0  0  0  0  0  0  0  0
    2.6617    0.2552    0.0000 N   0  0  0  0  0  0  0  0  0  0  0  0
   -1.7595   -0.2145    0.0000 O   0  0  0  0  0  0  0  0  0  0  0  0
    3.5517    2.6994    0.0000 C   0  0  0  0  0  0  0  0  0  0  0  0
    1.7689   -1.2111    0.0000 C   0  0  0  0  0  0  0  0  0  0  0  0
    2.6617    3.1788    0.0000 C   0  0  0  0  0  0  0  0  0  0  0  0
    2.6617    1.2331    0.0000 C   0  0  0  0  0  0  0  0  0  0  0  0
    3.5517    1.7125    0.0000 C   0  0  0  0  0  0  0  0  0  0  0  0
    0.8821    0.2552    0.0000 O   0  0  0  0  0  0  0  0  0  0  0  0
    0.8821   -2.6870    0.0000 C   0  0  0  0  0  0  0  0  0  0  0  0
   -4.4008   -1.6968    0.0000 C   0  0  0  0  0  0  0  0  0  0  0  0
   -4.4008   -2.6743    0.0000 C   0  0  0  0  0  0  0  0  0  0  0  0
    1.7782    2.6994    0.0000 C   0  0  0  0  0  0  0  0  0  0  0  0
   -3.5328   -0.2145    0.0000 F   0  0  0  0  0  0  0  0  0  0  0  0
    1.7782    1.7125    0.0000 C   0  0  0  0  0  0  0  0  0  0  0  0
    2.6713    4.1690    0.0000 F   0  0  0  0  0  0  0  0  0  0  0  0
    4.4008    3.2101    0.0000 C   0  0  0  0  0  0  0  0  0  0  0  0
   -3.5328   -4.1690    0.0000 C   0  0  0  0  0  0  0  0  0  0  0  0
  1  2  1  0
  2  3  1  0
  3  5  1  0
  4  6  1  0
  4  5  1  0
  1  6  2  0
  7  8  1  0
  1  8  1  0
  9 16  1  0
  3 10  2  0
  6 11  1  0
 11 21  1  0
  5 12  2  0
  9 13  1  0
  2 14  2  0
 15 19  2  0
 15 17  1  0
  7 16  1  0
 17 24  2  0
 13 18  1  0
 18 19  1  0
  9 20  2  0
  7 21  1  0
 10 22  1  0
 22 23  2  0
 12 23  1  0
 24 26  1  0
 10 25  1  0
 18 26  2  0
 17 27  1  0
 15 28  1  0
 12 29  1  0
M  END
>  <IDNUMBER>  (236) 
L489-1914

>  <available>  (236) 
99

>  <H_acceptor>  (236) 
5

>  <H_donor>  (236) 
2

>  <B_rotN>  (236) 
4

>  <N_O>  (236) 
5

>  <logP>  (236) 
4.0571

>  <logD>  (236) 
3.16

>  <logSw>  (236) 
-4.2455

>  <PSA>  (236) 
48.811

>  <pKa_ma>  (236) 
6.5619

>  <pKa_mb>  (236) 
1.2894

>  <N_Chirals>  (236) 
0

>  <Name>  (236) 
2-(9-fluoro-6-methyl-10-oxo-3,4,5,10-tetrahydrobenzo[b][1,6]naphthyridin-2(1H)-yl)-N-(4-fluoro-3-methylphenyl)acetamide

>  <Smile>  (236) 
Cc(ccc(F)c12)c2NC(CCN(CC(Nc(cc2)cc(C)c2F)=O)C2)=C2C1=O

>  <Color>  (236) 
YELLOW

>  <Collection>  (236) 
NC

>  <InChI>  (236) 
InChI=1S/C22H21F2N3O2/c1-12-3-5-17(24)20-21(12)26-18-7-8-27(10-15(18)22(20)29)11-19(28)25-14-4-6-16(23)13(2)9-14/h3-6,9H,7-8,10-11H2,1-2H3,(H,25,28)(H,26,29)

>  <InChI Key>  (236) 
LPTILAFATDYEOH-UHFFFAOYSA-N

>  <PERCENTSP3>  (236) 
27.3

>  <Link>  (236) 
https://www.chemdiv.com/catalog/screening-compounds/compound-L489-1914/

>  <MFCDNUMBER>  (236) 
MFCD27457679

>  <CLNUMBER>  (236) 
CL8213A

>  <STEREO>  (236) 
ACHIRAL

>  <State>  (236) 
Solid

>  <Similarity score>  (236) 
0.23

$$$$
2-(9-fluoro-6-methyl-10-oxo-3,4,5,10-tetrahydrobenzo[b][1,6]naphthyridin-2(1H)-y
     RDKit          2D

 29 32  0  0  0  0  0  0  0  0999 V2000
   -0.8822   -1.7030    0.0000 C   0  0  0  0  0  0  0  0  0  0  0  0
   -1.7657   -1.2018    0.0000 C   0  0  0  0  0  0  0  0  0  0  0  0
   -2.6339   -1.7030    0.0000 C   0  0  0  0  0  0  0  0  0  0  0  0
   -1.7784   -3.1791    0.0000 N   0  0  0  0  0  0  0  0  0  0  0  0
   -2.6339   -2.6809    0.0000 C   0  0  0  0  0  0  0  0  0  0  0  0
   -0.8822   -2.6963    0.0000 C   0  0  0  0  0  0  0  0  0  0  0  0
    0.8758   -1.7030    0.0000 N   0  0  0  0  0  0  0  0  0  0  0  0
    0.0077   -1.2205    0.0000 C   0  0  0  0  0  0  0  0  0  0  0  0
    1.7784   -0.2333    0.0000 C   0  0  0  0  0  0  0  0  0  0  0  0
   -3.5331   -1.2205    0.0000 C   0  0  0  0  0  0  0  0  0  0  0  0
   -0.0110   -3.1791    0.0000 C   0  0  0  0  0  0  0  0  0  0  0  0
    3.5551    2.6902    0.0000 C   0  0  0  0  0  0  0  0  0  0  0  0
    3.5551    1.7126    0.0000 C   0  0  0  0  0  0  0  0  0  0  0  0
   -3.5331   -3.1791    0.0000 C   0  0  0  0  0  0  0  0  0  0  0  0
    2.6619    0.2522    0.0000 N   0  0  0  0  0  0  0  0  0  0  0  0
   -1.7657   -0.2239    0.0000 O   0  0  0  0  0  0  0  0  0  0  0  0
    2.6619    1.2301    0.0000 C   0  0  0  0  0  0  0  0  0  0  0  0
    1.7784   -1.2205    0.0000 C   0  0  0  0  0  0  0  0  0  0  0  0
    2.6619    3.1760    0.0000 C   0  0  0  0  0  0  0  0  0  0  0  0
    0.8758    0.2522    0.0000 O   0  0  0  0  0  0  0  0  0  0  0  0
    0.8758   -2.6963    0.0000 C   0  0  0  0  0  0  0  0  0  0  0  0
   -4.4012   -1.7030    0.0000 C   0  0  0  0  0  0  0  0  0  0  0  0
   -4.4012   -2.6809    0.0000 C   0  0  0  0  0  0  0  0  0  0  0  0
    1.7847    2.6902    0.0000 C   0  0  0  0  0  0  0  0  0  0  0  0
    4.4012    3.1947    0.0000 F   0  0  0  0  0  0  0  0  0  0  0  0
    1.7847    1.7126    0.0000 C   0  0  0  0  0  0  0  0  0  0  0  0
   -3.5331   -0.2146    0.0000 F   0  0  0  0  0  0  0  0  0  0  0  0
   -3.5331   -4.1757    0.0000 C   0  0  0  0  0  0  0  0  0  0  0  0
    2.6619    4.1757    0.0000 C   0  0  0  0  0  0  0  0  0  0  0  0
  1  2  1  0
  2  3  1  0
  3  5  1  0
  4  6  1  0
  4  5  1  0
  1  6  2  0
  7  8  1  0
  1  8  1  0
  9 18  1  0
  3 10  2  0
  6 11  1  0
 11 21  1  0
 12 13  2  0
 12 19  1  0
 13 17  1  0
  5 14  2  0
  9 15  1  0
  2 16  2  0
 15 17  1  0
  7 18  1  0
 19 24  2  0
  9 20  2  0
  7 21  1  0
 10 22  1  0
 22 23  2  0
 14 23  1  0
 24 26  1  0
 12 25  1  0
 17 26  2  0
 10 27  1  0
 14 28  1  0
 19 29  1  0
M  END
>  <IDNUMBER>  (237) 
L489-1896

>  <available>  (237) 
79

>  <H_acceptor>  (237) 
5

>  <H_donor>  (237) 
2

>  <B_rotN>  (237) 
4

>  <N_O>  (237) 
5

>  <logP>  (237) 
4.249

>  <logD>  (237) 
3.352

>  <logSw>  (237) 
-4.3547

>  <PSA>  (237) 
48.811

>  <pKa_ma>  (237) 
6.5619

>  <pKa_mb>  (237) 
1.2894

>  <N_Chirals>  (237) 
0

>  <Name>  (237) 
2-(9-fluoro-6-methyl-10-oxo-3,4,5,10-tetrahydrobenzo[b][1,6]naphthyridin-2(1H)-yl)-N-(3-fluoro-4-methylphenyl)acetamide

>  <Smile>  (237) 
Cc(ccc(NC(CN(CC1)CC2=C1Nc(c(C)ccc1F)c1C2=O)=O)c1)c1F

>  <Color>  (237) 
YELLOW

>  <Collection>  (237) 
NC

>  <InChI>  (237) 
InChI=1S/C22H21F2N3O2/c1-12-3-5-14(9-17(12)24)25-19(28)11-27-8-7-18-15(10-27)22(29)20-16(23)6-4-13(2)21(20)26-18/h3-6,9H,7-8,10-11H2,1-2H3,(H,25,28)(H,26,29)

>  <InChI Key>  (237) 
WFDFDOLIQUQDAE-UHFFFAOYSA-N

>  <PERCENTSP3>  (237) 
27.3

>  <Link>  (237) 
https://www.chemdiv.com/catalog/screening-compounds/compound-L489-1896/

>  <MFCDNUMBER>  (237) 
MFCD27457662

>  <CLNUMBER>  (237) 
CL8213A

>  <STEREO>  (237) 
ACHIRAL

>  <State>  (237) 
Solid

>  <Similarity score>  (237) 
0.23

$$$$
N-(3,4-dimethoxyphenyl)-1-(2,5,6-trimethylfuro[2,3-d]pyrimidin-4-yl)piperidine-3
     RDKit          2D

 31 34  0  0  0  0  0  0  0  0999 V2000
   -0.8314    3.0467    0.0000 C   0  0  0  0  0  0  0  0  0  0  0  0
   -1.5734    3.7220    0.0000 C   0  0  0  0  0  0  0  0  0  0  0  0
   -1.3691    4.6931    0.0000 C   0  0  0  0  0  0  0  0  0  0  0  0
   -1.0440    2.0715    0.0000 N   0  0  0  0  0  0  0  0  0  0  0  0
   -2.5695    3.6136    0.0000 C   0  0  0  0  0  0  0  0  0  0  0  0
    0.1188    3.3594    0.0000 N   0  0  0  0  0  0  0  0  0  0  0  0
   -0.4189    5.0015    0.0000 N   0  0  0  0  0  0  0  0  0  0  0  0
   -2.2318    5.1933    0.0000 O   0  0  0  0  0  0  0  0  0  0  0  0
   -2.9821    4.5182    0.0000 C   0  0  0  0  0  0  0  0  0  0  0  0
    0.2397   -0.2501    0.0000 C   0  0  0  0  0  0  0  0  0  0  0  0
   -0.5063    0.4210    0.0000 C   0  0  0  0  0  0  0  0  0  0  0  0
    0.3272    4.3306    0.0000 C   0  0  0  0  0  0  0  0  0  0  0  0
   -0.2980    1.4004    0.0000 C   0  0  0  0  0  0  0  0  0  0  0  0
    0.0313   -1.2255    0.0000 N   0  0  0  0  0  0  0  0  0  0  0  0
    0.5648   -2.8759    0.0000 C   0  0  0  0  0  0  0  0  0  0  0  0
    1.3068   -3.5428    0.0000 C   0  0  0  0  0  0  0  0  0  0  0  0
    0.7691   -1.8923    0.0000 C   0  0  0  0  0  0  0  0  0  0  0  0
    1.1899    0.0625    0.0000 O   0  0  0  0  0  0  0  0  0  0  0  0
    2.2570   -3.2302    0.0000 C   0  0  0  0  0  0  0  0  0  0  0  0
    2.4696   -2.2549    0.0000 C   0  0  0  0  0  0  0  0  0  0  0  0
   -1.9942    1.7589    0.0000 C   0  0  0  0  0  0  0  0  0  0  0  0
    1.7193   -1.5880    0.0000 C   0  0  0  0  0  0  0  0  0  0  0  0
   -3.0696    2.7466    0.0000 C   0  0  0  0  0  0  0  0  0  0  0  0
    1.1024   -4.5182    0.0000 O   0  0  0  0  0  0  0  0  0  0  0  0
   -3.9574    4.7306    0.0000 C   0  0  0  0  0  0  0  0  0  0  0  0
   -1.4567    0.1125    0.0000 C   0  0  0  0  0  0  0  0  0  0  0  0
    3.0030   -3.9054    0.0000 O   0  0  0  0  0  0  0  0  0  0  0  0
   -2.1985    0.7835    0.0000 C   0  0  0  0  0  0  0  0  0  0  0  0
    1.2775    4.6389    0.0000 C   0  0  0  0  0  0  0  0  0  0  0  0
    1.8444   -5.1933    0.0000 C   0  0  0  0  0  0  0  0  0  0  0  0
    3.9574   -3.5928    0.0000 C   0  0  0  0  0  0  0  0  0  0  0  0
  1  2  1  0
  2  3  2  0
  3  7  1  0
  1  4  1  0
  2  5  1  0
  1  6  2  0
  7 12  2  0
  3  8  1  0
  5  9  2  0
  8  9  1  0
 10 11  1  0
 11 13  1  0
 11 26  1  0
  6 12  1  0
  4 13  1  0
 10 14  1  0
 15 17  1  0
 15 16  2  0
 14 17  1  0
 10 18  2  0
 19 20  2  0
 16 19  1  0
 20 22  1  0
  4 21  1  0
 17 22  2  0
  5 23  1  0
 16 24  1  0
  9 25  1  0
 26 28  1  0
 19 27  1  0
 21 28  1  0
 12 29  1  0
 24 30  1  0
 27 31  1  0
M  END
>  <IDNUMBER>  (238) 
F228-0857

>  <available>  (238) 
27

>  <H_acceptor>  (238) 
7

>  <H_donor>  (238) 
1

>  <B_rotN>  (238) 
6

>  <N_O>  (238) 
8

>  <logP>  (238) 
3.0146

>  <logD>  (238) 
2.6775

>  <logSw>  (238) 
-3.4386

>  <PSA>  (238) 
68.214

>  <pKa_ma>  (238) 
10.5658

>  <pKa_mb>  (238) 
7.4693

>  <N_Chirals>  (238) 
1

>  <Name>  (238) 
N-(3,4-dimethoxyphenyl)-1-(2,5,6-trimethylfuro[2,3-d]pyrimidin-4-yl)piperidine-3-carboxamide

>  <Smile>  (238) 
Cc1c(C)oc2c1c(N(CCC1)CC1C(Nc(cc1)cc(OC)c1OC)=O)nc(C)n2

>  <Color>  (238) 
NOT COLORED

>  <Collection>  (238) 
DC

>  <InChI>  (238) 
InChI=1S/C23H28N4O4/c1-13-14(2)31-23-20(13)21(24-15(3)25-23)27-10-6-7-16(12-27)22(28)26-17-8-9-18(29-4)19(11-17)30-5/h8-9,11,16H,6-7,10,12H2,1-5H3,(H,26,28)/t16-/m0/s1

>  <InChI Key>  (238) 
GSNFHPVAJNZHQU-INIZCTEOSA-N

>  <PERCENTSP3>  (238) 
43.5

>  <Link>  (238) 
https://www.chemdiv.com/catalog/screening-compounds/compound-F228-0857/

>  <MFCDNUMBER>  (238) 
MFCD14945681

>  <CLNUMBER>  (238) 
CL1321B

>  <STEREO>  (238) 
RACEMIC MIXTURE

>  <State>  (238) 
Solid

>  <Similarity score>  (238) 
0.23

$$$$
4-(4-ethylpiperazin-1-yl)-2-(4-methoxyphenyl)-5,6,8,9-tetrahydrooxepino[4,5-d]py
     RDKit          2D

 27 30  0  0  0  0  0  0  0  0999 V2000
   -0.4182    1.6311    0.0000 C   0  0  0  0  0  0  0  0  0  0  0  0
   -0.4904    0.6313    0.0000 N   0  0  0  0  0  0  0  0  0  0  0  0
   -1.2364    2.2015    0.0000 C   0  0  0  0  0  0  0  0  0  0  0  0
   -1.3962    0.1928    0.0000 C   0  0  0  0  0  0  0  0  0  0  0  0
   -2.2141    0.7631    0.0000 N   0  0  0  0  0  0  0  0  0  0  0  0
    0.4874    2.0699    0.0000 N   0  0  0  0  0  0  0  0  0  0  0  0
   -2.1452    1.7627    0.0000 C   0  0  0  0  0  0  0  0  0  0  0  0
    2.2926    2.9287    0.0000 N   0  0  0  0  0  0  0  0  0  0  0  0
   -1.4681   -0.7977    0.0000 C   0  0  0  0  0  0  0  0  0  0  0  0
    0.5533    3.0602    0.0000 C   0  0  0  0  0  0  0  0  0  0  0  0
    1.3148    1.4996    0.0000 C   0  0  0  0  0  0  0  0  0  0  0  0
   -2.6434    3.9503    0.0000 O   0  0  0  0  0  0  0  0  0  0  0  0
   -2.3707   -1.2362    0.0000 C   0  0  0  0  0  0  0  0  0  0  0  0
   -0.6440   -1.3585    0.0000 C   0  0  0  0  0  0  0  0  0  0  0  0
    1.4651    3.4990    0.0000 C   0  0  0  0  0  0  0  0  0  0  0  0
    2.2141    1.9384    0.0000 C   0  0  0  0  0  0  0  0  0  0  0  0
   -3.0508    2.2015    0.0000 C   0  0  0  0  0  0  0  0  0  0  0  0
   -1.0201    3.1730    0.0000 C   0  0  0  0  0  0  0  0  0  0  0  0
   -1.6218   -2.7971    0.0000 C   0  0  0  0  0  0  0  0  0  0  0  0
   -0.7159   -2.3583    0.0000 C   0  0  0  0  0  0  0  0  0  0  0  0
   -2.4396   -2.2268    0.0000 C   0  0  0  0  0  0  0  0  0  0  0  0
   -1.6939   -3.7874    0.0000 O   0  0  0  0  0  0  0  0  0  0  0  0
    3.1856    3.3674    0.0000 C   0  0  0  0  0  0  0  0  0  0  0  0
   -3.2671    3.1730    0.0000 C   0  0  0  0  0  0  0  0  0  0  0  0
   -1.6373    3.9503    0.0000 C   0  0  0  0  0  0  0  0  0  0  0  0
   -0.8665   -4.3577    0.0000 C   0  0  0  0  0  0  0  0  0  0  0  0
    3.2671    4.3577    0.0000 C   0  0  0  0  0  0  0  0  0  0  0  0
  1  2  2  0
  1  3  1  0
  2  4  1  0
  5  7  1  0
  4  5  2  0
  1  6  1  0
  3  7  2  0
  8 16  1  0
  4  9  1  0
  6 10  1  0
  6 11  1  0
 12 25  1  0
  9 13  2  0
  9 14  1  0
 10 15  1  0
  8 15  1  0
 11 16  1  0
  7 17  1  0
  3 18  1  0
 19 20  1  0
 14 20  2  0
 13 21  1  0
 19 21  2  0
 19 22  1  0
  8 23  1  0
 17 24  1  0
 12 24  1  0
 18 25  1  0
 22 26  1  0
 23 27  1  0
M  END
>  <IDNUMBER>  (239) 
S896-0124

>  <available>  (239) 
115

>  <H_acceptor>  (239) 
5

>  <H_donor>  (239) 
0

>  <B_rotN>  (239) 
4

>  <N_O>  (239) 
6

>  <logP>  (239) 
3.9145

>  <logD>  (239) 
2.589

>  <logSw>  (239) 
-4.0193

>  <PSA>  (239) 
42.665

>  <pKa_ma>  (239) 
19.7965

>  <pKa_mb>  (239) 
8.7044

>  <N_Chirals>  (239) 
0

>  <Name>  (239) 
4-(4-ethylpiperazin-1-yl)-2-(4-methoxyphenyl)-5,6,8,9-tetrahydrooxepino[4,5-d]pyrimidine

>  <Smile>  (239) 
CCN(CC1)CCN1c1nc(-c(cc2)ccc2OC)nc2c1CCOCC2

>  <Color>  (239) 
BROWN

>  <Collection>  (239) 
IC

>  <InChI>  (239) 
InChI=1S/C21H28N4O2/c1-3-24-10-12-25(13-11-24)21-18-8-14-27-15-9-19(18)22-20(23-21)16-4-6-17(26-2)7-5-16/h4-7H,3,8-15H2,1-2H3

>  <InChI Key>  (239) 
FMSISEUOUMJAJE-UHFFFAOYSA-N

>  <PERCENTSP3>  (239) 
52.38

>  <Link>  (239) 
https://www.chemdiv.com/catalog/screening-compounds/compound-S896-0124/

>  <MFCDNUMBER>  (239) 
MFCD31956714

>  <CLNUMBER>  (239) 
CM3993

>  <STEREO>  (239) 
ACHIRAL

>  <State>  (239) 
Solid

>  <Similarity score>  (239) 
0.23

$$$$
N-[(2,5-difluorophenyl)methyl]-2-methyl-4-oxo-4,5,6,7,8,9-hexahydro-3H-cyclohept
     RDKit          2D

 25 27  0  0  0  0  0  0  0  0999 V2000
    3.3552   -0.2186    0.0000 C   0  0  0  0  0  0  0  0  0  0  0  0
    4.3550   -0.2186    0.0000 C   0  0  0  0  0  0  0  0  0  0  0  0
    2.8555    0.6476    0.0000 C   0  0  0  0  0  0  0  0  0  0  0  0
    3.3552    1.5142    0.0000 N   0  0  0  0  0  0  0  0  0  0  0  0
    4.8547    0.6476    0.0000 N   0  0  0  0  0  0  0  0  0  0  0  0
    4.3550    1.5142    0.0000 C   0  0  0  0  0  0  0  0  0  0  0  0
    0.3394   -1.3807    0.0000 C   0  0  0  0  0  0  0  0  0  0  0  0
   -2.2556   -0.8810    0.0000 C   0  0  0  0  0  0  0  0  0  0  0  0
    2.9887   -1.1475    0.0000 C   0  0  0  0  0  0  0  0  0  0  0  0
   -0.5228   -0.8810    0.0000 N   0  0  0  0  0  0  0  0  0  0  0  0
    4.8547   -1.0849    0.0000 O   0  0  0  0  0  0  0  0  0  0  0  0
   -2.2556    0.1188    0.0000 C   0  0  0  0  0  0  0  0  0  0  0  0
    1.8641    0.7975    0.0000 C   0  0  0  0  0  0  0  0  0  0  0  0
   -1.3892   -1.3807    0.0000 C   0  0  0  0  0  0  0  0  0  0  0  0
    1.2059   -0.8810    0.0000 C   0  0  0  0  0  0  0  0  0  0  0  0
   -3.1219   -1.3807    0.0000 C   0  0  0  0  0  0  0  0  0  0  0  0
    0.3394   -2.3805    0.0000 O   0  0  0  0  0  0  0  0  0  0  0  0
    2.0347   -1.4434    0.0000 C   0  0  0  0  0  0  0  0  0  0  0  0
    1.1308    0.1147    0.0000 C   0  0  0  0  0  0  0  0  0  0  0  0
   -3.1219    0.6185    0.0000 C   0  0  0  0  0  0  0  0  0  0  0  0
   -3.9883   -0.8810    0.0000 C   0  0  0  0  0  0  0  0  0  0  0  0
   -1.3892    0.6185    0.0000 F   0  0  0  0  0  0  0  0  0  0  0  0
   -3.9883    0.1188    0.0000 C   0  0  0  0  0  0  0  0  0  0  0  0
   -4.8547   -1.3807    0.0000 F   0  0  0  0  0  0  0  0  0  0  0  0
    4.8547    2.3805    0.0000 C   0  0  0  0  0  0  0  0  0  0  0  0
  1  2  1  0
  1  3  2  0
  3  4  1  0
  2  5  1  0
  5  6  1  0
  4  6  2  0
  7 15  1  0
  8 14  1  0
  1  9  1  0
  7 10  1  0
  2 11  2  0
  8 12  1  0
  3 13  1  0
 10 14  1  0
 15 18  1  0
 15 19  1  0
  8 16  2  0
  7 17  2  0
  9 18  1  0
 13 19  1  0
 12 20  2  0
 20 23  1  0
 16 21  1  0
 12 22  1  0
 21 23  2  0
 21 24  1  0
  6 25  1  0
M  END
>  <IDNUMBER>  (240) 
SB25-0042

>  <available>  (240) 
28

>  <H_acceptor>  (240) 
5

>  <H_donor>  (240) 
2

>  <B_rotN>  (240) 
4

>  <N_O>  (240) 
5

>  <logP>  (240) 
1.7679

>  <logD>  (240) 
1.766

>  <logSw>  (240) 
-2.2691

>  <PSA>  (240) 
58.55

>  <pKa_ma>  (240) 
9.7494

>  <pKa_mb>  (240) 
2.0448

>  <N_Chirals>  (240) 
1

>  <Name>  (240) 
N-[(2,5-difluorophenyl)methyl]-2-methyl-4-oxo-4,5,6,7,8,9-hexahydro-3H-cyclohepta[d]pyrimidine-7-carboxamide

>  <Smile>  (240) 
CC(N1)=NC(CCC(CC2)C(NCc(cc(cc3)F)c3F)=O)=C2C1=O

>  <Color>  (240) 
NOT COLORED

>  <Collection>  (240) 
IC

>  <InChI>  (240) 
InChI=1S/C18H19F2N3O2/c1-10-22-16-7-3-11(2-5-14(16)18(25)23-10)17(24)21-9-12-8-13(19)4-6-15(12)20/h4,6,8,11H,2-3,5,7,9H2,1H3,(H,21,24)(H,22,23,25)/t11-/m0/s1

>  <InChI Key>  (240) 
OQCZZBKYKSAAFA-NSHDSACASA-N

>  <PERCENTSP3>  (240) 
38.89

>  <Link>  (240) 
https://www.chemdiv.com/catalog/screening-compounds/compound-SB25-0042/

>  <MFCDNUMBER>  (240) 
MFCD32247119

>  <CLNUMBER>  (240) 
CM3995

>  <STEREO>  (240) 
RACEMIC MIXTURE

>  <State>  (240) 
Solid

>  <Similarity score>  (240) 
0.23

$$$$
7-[(2,4-difluorophenyl)methyl]-2-(dimethylamino)-3,5,6,7,8,9-hexahydro-4H-pyrimi
     RDKit          2D

 24 26  0  0  0  0  0  0  0  0999 V2000
   -2.5806   -1.0965    0.0000 C   0  0  0  0  0  0  0  0  0  0  0  0
   -2.3638   -2.0720    0.0000 N   0  0  0  0  0  0  0  0  0  0  0  0
   -0.6671   -1.6842    0.0000 C   0  0  0  0  0  0  0  0  0  0  0  0
   -1.8510   -0.4169    0.0000 N   0  0  0  0  0  0  0  0  0  0  0  0
   -1.4007   -2.3679    0.0000 C   0  0  0  0  0  0  0  0  0  0  0  0
   -0.8922   -0.7087    0.0000 C   0  0  0  0  0  0  0  0  0  0  0  0
    2.6264    0.4669    0.0000 C   0  0  0  0  0  0  0  0  0  0  0  0
    1.3508   -0.7087    0.0000 N   0  0  0  0  0  0  0  0  0  0  0  0
    0.2334   -2.1178    0.0000 C   0  0  0  0  0  0  0  0  0  0  0  0
    3.6019    0.6920    0.0000 C   0  0  0  0  0  0  0  0  0  0  0  0
   -3.5395   -0.7963    0.0000 N   0  0  0  0  0  0  0  0  0  0  0  0
   -0.2668    0.0708    0.0000 C   0  0  0  0  0  0  0  0  0  0  0  0
    3.8980    1.6468    0.0000 C   0  0  0  0  0  0  0  0  0  0  0  0
    2.3263   -0.4836    0.0000 C   0  0  0  0  0  0  0  0  0  0  0  0
   -1.1799   -3.3351    0.0000 O   0  0  0  0  0  0  0  0  0  0  0  0
    1.9468    1.2049    0.0000 C   0  0  0  0  0  0  0  0  0  0  0  0
    1.1339   -1.6842    0.0000 C   0  0  0  0  0  0  0  0  0  0  0  0
    0.7336    0.0708    0.0000 C   0  0  0  0  0  0  0  0  0  0  0  0
    3.2143    2.3805    0.0000 C   0  0  0  0  0  0  0  0  0  0  0  0
    4.2773   -0.0333    0.0000 F   0  0  0  0  0  0  0  0  0  0  0  0
    2.2388    2.1595    0.0000 C   0  0  0  0  0  0  0  0  0  0  0  0
    3.5102    3.3351    0.0000 F   0  0  0  0  0  0  0  0  0  0  0  0
   -3.7646    0.1792    0.0000 C   0  0  0  0  0  0  0  0  0  0  0  0
   -4.2773   -1.4800    0.0000 C   0  0  0  0  0  0  0  0  0  0  0  0
  1  2  1  0
  3  6  2  0
  3  5  1  0
  1  4  2  0
  2  5  1  0
  4  6  1  0
  7 14  1  0
  8 18  1  0
  3  9  1  0
  7 10  2  0
  1 11  1  0
  6 12  1  0
 10 13  1  0
 13 19  2  0
  8 14  1  0
  5 15  2  0
  7 16  1  0
  9 17  1  0
  8 17  1  0
 12 18  1  0
 19 21  1  0
 10 20  1  0
 16 21  2  0
 19 22  1  0
 11 23  1  0
 11 24  1  0
M  END
>  <IDNUMBER>  (241) 
S039-1683

>  <available>  (241) 
11

>  <H_acceptor>  (241) 
4

>  <H_donor>  (241) 
1

>  <B_rotN>  (241) 
3

>  <N_O>  (241) 
5

>  <logP>  (241) 
1.7374

>  <logD>  (241) 
1.59

>  <logSw>  (241) 
-2.4456

>  <PSA>  (241) 
41.151

>  <pKa_ma>  (241) 
8.7946

>  <pKa_mb>  (241) 
6.9436

>  <N_Chirals>  (241) 
0

>  <Name>  (241) 
7-[(2,4-difluorophenyl)methyl]-2-(dimethylamino)-3,5,6,7,8,9-hexahydro-4H-pyrimido[4,5-d]azepin-4-one

>  <Smile>  (241) 
CN(C)C(N1)=NC(CCN(Cc(ccc(F)c2)c2F)CC2)=C2C1=O

>  <Color>  (241) 
NOT COLORED

>  <Collection>  (241) 
IC

>  <InChI>  (241) 
InChI=1S/C17H20F2N4O/c1-22(2)17-20-15-6-8-23(7-5-13(15)16(24)21-17)10-11-3-4-12(18)9-14(11)19/h3-4,9H,5-8,10H2,1-2H3,(H,20,21,24)

>  <InChI Key>  (241) 
MKAHLXCMLXHEKH-UHFFFAOYSA-N

>  <PERCENTSP3>  (241) 
41.2

>  <Link>  (241) 
https://www.chemdiv.com/catalog/screening-compounds/compound-S039-1683/

>  <MFCDNUMBER>  (241) 
MFCD28996002

>  <CLNUMBER>  (241) 
CM2417

>  <STEREO>  (241) 
ACHIRAL

>  <State>  (241) 
Solid

>  <Similarity score>  (241) 
0.23

$$$$
2-(9-fluoro-6-methyl-10-oxo-3,4,5,10-tetrahydrobenzo[b][1,6]naphthyridin-2(1H)-y
     RDKit          2D

 29 32  0  0  0  0  0  0  0  0999 V2000
   -0.9090   -1.7178    0.0000 C   0  0  0  0  0  0  0  0  0  0  0  0
   -1.7615   -1.2193    0.0000 C   0  0  0  0  0  0  0  0  0  0  0  0
   -2.6454   -1.7178    0.0000 C   0  0  0  0  0  0  0  0  0  0  0  0
   -1.7805   -3.1942    0.0000 N   0  0  0  0  0  0  0  0  0  0  0  0
   -2.6454   -2.7050    0.0000 C   0  0  0  0  0  0  0  0  0  0  0  0
   -0.9090   -2.7146    0.0000 C   0  0  0  0  0  0  0  0  0  0  0  0
    0.8809   -1.7178    0.0000 N   0  0  0  0  0  0  0  0  0  0  0  0
   -0.0030   -1.2289    0.0000 C   0  0  0  0  0  0  0  0  0  0  0  0
    1.7648   -0.2508    0.0000 C   0  0  0  0  0  0  0  0  0  0  0  0
   -3.5389   -1.2289    0.0000 C   0  0  0  0  0  0  0  0  0  0  0  0
   -0.0124   -3.1942    0.0000 C   0  0  0  0  0  0  0  0  0  0  0  0
   -3.5389   -3.1909    0.0000 C   0  0  0  0  0  0  0  0  0  0  0  0
    2.6644    0.2318    0.0000 N   0  0  0  0  0  0  0  0  0  0  0  0
   -1.7615   -0.2321    0.0000 O   0  0  0  0  0  0  0  0  0  0  0  0
    1.7648   -1.2289    0.0000 C   0  0  0  0  0  0  0  0  0  0  0  0
    2.6644    1.2099    0.0000 C   0  0  0  0  0  0  0  0  0  0  0  0
    0.8809    0.2318    0.0000 O   0  0  0  0  0  0  0  0  0  0  0  0
    3.5419    1.6958    0.0000 C   0  0  0  0  0  0  0  0  0  0  0  0
    0.8809   -2.7146    0.0000 C   0  0  0  0  0  0  0  0  0  0  0  0
   -4.4071   -1.7178    0.0000 C   0  0  0  0  0  0  0  0  0  0  0  0
   -4.4071   -2.7050    0.0000 C   0  0  0  0  0  0  0  0  0  0  0  0
    3.5419    2.6736    0.0000 C   0  0  0  0  0  0  0  0  0  0  0  0
   -3.5389   -0.2321    0.0000 F   0  0  0  0  0  0  0  0  0  0  0  0
    4.4071    3.1909    0.0000 S   0  0  0  0  0  0  0  0  0  0  0  0
    1.7835    2.6736    0.0000 C   0  0  0  0  0  0  0  0  0  0  0  0
    1.7835    1.6958    0.0000 C   0  0  0  0  0  0  0  0  0  0  0  0
   -3.5389   -4.1814    0.0000 C   0  0  0  0  0  0  0  0  0  0  0  0
    2.6644    3.1625    0.0000 C   0  0  0  0  0  0  0  0  0  0  0  0
    4.3977    4.1814    0.0000 C   0  0  0  0  0  0  0  0  0  0  0  0
  1  2  1  0
  2  3  1  0
  3  5  1  0
  4  6  1  0
  4  5  1  0
  1  6  2  0
  7  8  1  0
  1  8  1  0
  9 15  1  0
  3 10  2  0
  6 11  1  0
 11 19  1  0
  5 12  2  0
  9 13  1  0
  2 14  2  0
  7 15  1  0
 13 16  1  0
  9 17  2  0
 16 18  1  0
  7 19  1  0
 10 20  1  0
 20 21  2  0
 12 21  1  0
 18 22  2  0
 22 28  1  0
 10 23  1  0
 22 24  1  0
 25 26  1  0
 16 26  2  0
 12 27  1  0
 25 28  2  0
 24 29  1  0
M  END
>  <IDNUMBER>  (242) 
L489-1900

>  <available>  (242) 
80

>  <H_acceptor>  (242) 
6

>  <H_donor>  (242) 
2

>  <B_rotN>  (242) 
5

>  <N_O>  (242) 
5

>  <logP>  (242) 
4.0601

>  <logD>  (242) 
3.1631

>  <logSw>  (242) 
-4.1637

>  <PSA>  (242) 
48.811

>  <pKa_ma>  (242) 
6.5619

>  <pKa_mb>  (242) 
1.2894

>  <N_Chirals>  (242) 
0

>  <Name>  (242) 
2-(9-fluoro-6-methyl-10-oxo-3,4,5,10-tetrahydrobenzo[b][1,6]naphthyridin-2(1H)-yl)-N-[3-(methylsulfanyl)phenyl]acetamide

>  <Smile>  (242) 
Cc(c(NC1=C2CN(CC(Nc3cccc(SC)c3)=O)CC1)c1C2=O)ccc1F

>  <Color>  (242) 
YELLOW

>  <Collection>  (242) 
NC

>  <InChI>  (242) 
InChI=1S/C22H22FN3O2S/c1-13-6-7-17(23)20-21(13)25-18-8-9-26(11-16(18)22(20)28)12-19(27)24-14-4-3-5-15(10-14)29-2/h3-7,10H,8-9,11-12H2,1-2H3,(H,24,27)(H,25,28)

>  <InChI Key>  (242) 
WZIDHXQBBAMZPV-UHFFFAOYSA-N

>  <PERCENTSP3>  (242) 
27.3

>  <Link>  (242) 
https://www.chemdiv.com/catalog/screening-compounds/compound-L489-1900/

>  <MFCDNUMBER>  (242) 
MFCD27457666

>  <CLNUMBER>  (242) 
CL8213A

>  <STEREO>  (242) 
ACHIRAL

>  <State>  (242) 
Solid

>  <Similarity score>  (242) 
0.23

$$$$
1-(2-fluorophenyl)-3-(6-methoxy-1,3,4,9-tetrahydro-2H-pyrido[3,4-b]indol-2-yl)py
     RDKit          2D

 29 33  0  0  0  0  0  0  0  0999 V2000
    3.2231    0.2438    0.0000 N   0  0  0  0  0  0  0  0  0  0  0  0
    2.2439    0.4563    0.0000 C   0  0  0  0  0  0  0  0  0  0  0  0
    3.3273   -0.7521    0.0000 C   0  0  0  0  0  0  0  0  0  0  0  0
   -0.6395   -1.5522    0.0000 C   0  0  0  0  0  0  0  0  0  0  0  0
    1.7439   -0.4144    0.0000 C   0  0  0  0  0  0  0  0  0  0  0  0
   -1.2355   -0.7313    0.0000 C   0  0  0  0  0  0  0  0  0  0  0  0
    2.4148   -1.1563    0.0000 C   0  0  0  0  0  0  0  0  0  0  0  0
    0.7606   -0.5187    0.0000 N   0  0  0  0  0  0  0  0  0  0  0  0
   -1.2355   -2.3646    0.0000 N   0  0  0  0  0  0  0  0  0  0  0  0
   -2.1897   -1.0521    0.0000 C   0  0  0  0  0  0  0  0  0  0  0  0
   -2.1897   -2.0605    0.0000 C   0  0  0  0  0  0  0  0  0  0  0  0
    3.9646    0.9106    0.0000 C   0  0  0  0  0  0  0  0  0  0  0  0
    0.3564   -1.4480    0.0000 C   0  0  0  0  0  0  0  0  0  0  0  0
   -0.8313    0.1855    0.0000 C   0  0  0  0  0  0  0  0  0  0  0  0
    1.8439    1.3563    0.0000 O   0  0  0  0  0  0  0  0  0  0  0  0
    0.1647    0.2937    0.0000 C   0  0  0  0  0  0  0  0  0  0  0  0
    4.1982   -1.2396    0.0000 O   0  0  0  0  0  0  0  0  0  0  0  0
   -3.0606   -0.5602    0.0000 C   0  0  0  0  0  0  0  0  0  0  0  0
    4.9065    0.6063    0.0000 C   0  0  0  0  0  0  0  0  0  0  0  0
   -3.0606   -2.5563    0.0000 C   0  0  0  0  0  0  0  0  0  0  0  0
   -3.9230   -1.0521    0.0000 C   0  0  0  0  0  0  0  0  0  0  0  0
    5.1107   -0.3728    0.0000 F   0  0  0  0  0  0  0  0  0  0  0  0
   -3.9230   -2.0605    0.0000 C   0  0  0  0  0  0  0  0  0  0  0  0
    3.7523    1.8773    0.0000 C   0  0  0  0  0  0  0  0  0  0  0  0
   -4.7898   -0.5563    0.0000 O   0  0  0  0  0  0  0  0  0  0  0  0
    5.6481    1.2687    0.0000 C   0  0  0  0  0  0  0  0  0  0  0  0
   -5.6481   -1.0521    0.0000 C   0  0  0  0  0  0  0  0  0  0  0  0
    4.4814    2.5563    0.0000 C   0  0  0  0  0  0  0  0  0  0  0  0
    5.4358    2.2439    0.0000 C   0  0  0  0  0  0  0  0  0  0  0  0
  1  2  1  0
  1  3  1  0
  4 13  1  0
  4  6  2  0
  2  5  1  0
  5  7  1  0
  6 14  1  0
  3  7  1  0
  5  8  1  0
  4  9  1  0
  6 10  1  0
 10 11  1  0
  9 11  1  0
  1 12  1  0
  8 13  1  0
 14 16  1  0
  2 15  2  0
  8 16  1  0
  3 17  2  0
 10 18  2  0
 12 19  2  0
 11 20  2  0
 18 21  1  0
 21 23  2  0
 19 22  1  0
 20 23  1  0
 12 24  1  0
 21 25  1  0
 19 26  1  0
 26 29  2  0
 25 27  1  0
 24 28  2  0
 28 29  1  0
M  END
>  <IDNUMBER>  (243) 
Y020-3919

>  <available>  (243) 
23

>  <H_acceptor>  (243) 
6

>  <H_donor>  (243) 
1

>  <B_rotN>  (243) 
3

>  <N_O>  (243) 
6

>  <logP>  (243) 
1.7409

>  <logD>  (243) 
1.7409

>  <logSw>  (243) 
-2.4204

>  <PSA>  (243) 
49.743

>  <pKa_ma>  (243) 
15.4632

>  <pKa_mb>  (243) 
1.6787

>  <N_Chirals>  (243) 
1

>  <Name>  (243) 
1-(2-fluorophenyl)-3-(6-methoxy-1,3,4,9-tetrahydro-2H-pyrido[3,4-b]indol-2-yl)pyrrolidine-2,5-dione

>  <Smile>  (243) 
COc(cc1)cc2c1[nH]c(C1)c2CCN1C(CC(N1c(cccc2)c2F)=O)C1=O

>  <Color>  (243) 
NOT COLORED

>  <Collection>  (243) 
DC

>  <InChI>  (243) 
InChI=1S/C22H20FN3O3/c1-29-13-6-7-17-15(10-13)14-8-9-25(12-18(14)24-17)20-11-21(27)26(22(20)28)19-5-3-2-4-16(19)23/h2-7,10,20,24H,8-9,11-12H2,1H3/t20-/m1/s1

>  <InChI Key>  (243) 
IMEOERJGAHZYGL-HXUWFJFHSA-N

>  <PERCENTSP3>  (243) 
27.3

>  <Link>  (243) 
https://www.chemdiv.com/catalog/screening-compounds/compound-Y020-3919/

>  <MFCDNUMBER>  (243) 
MFCD13676884

>  <CLNUMBER>  (243) 
CL2165

>  <STEREO>  (243) 
RACEMIC MIXTURE

>  <State>  (243) 
Solid

>  <Similarity score>  (243) 
0.23

$$$$
7-[(2-chloro-4-fluorophenyl)methyl]-2-(morpholin-4-yl)-3,5,6,7,8,9-hexahydro-4H-
     RDKit          2D

 27 30  0  0  0  0  0  0  0  0999 V2000
    2.3792   -0.3742    0.0000 C   0  0  0  0  0  0  0  0  0  0  0  0
    2.1631    0.6031    0.0000 N   0  0  0  0  0  0  0  0  0  0  0  0
    0.4714    0.2116    0.0000 C   0  0  0  0  0  0  0  0  0  0  0  0
    1.6461   -1.0604    0.0000 N   0  0  0  0  0  0  0  0  0  0  0  0
    1.2045    0.8945    0.0000 C   0  0  0  0  0  0  0  0  0  0  0  0
    0.6937   -0.7660    0.0000 C   0  0  0  0  0  0  0  0  0  0  0  0
    3.3378   -0.6719    0.0000 N   0  0  0  0  0  0  0  0  0  0  0  0
   -3.2126   -0.2523    0.0000 C   0  0  0  0  0  0  0  0  0  0  0  0
   -1.5524   -0.7660    0.0000 N   0  0  0  0  0  0  0  0  0  0  0  0
   -0.4308    0.6500    0.0000 C   0  0  0  0  0  0  0  0  0  0  0  0
   -2.9211    0.7063    0.0000 C   0  0  0  0  0  0  0  0  0  0  0  0
    0.0738   -1.5397    0.0000 C   0  0  0  0  0  0  0  0  0  0  0  0
   -3.5883    1.4394    0.0000 C   0  0  0  0  0  0  0  0  0  0  0  0
   -2.5297   -0.9853    0.0000 C   0  0  0  0  0  0  0  0  0  0  0  0
    0.9757    1.8718    0.0000 O   0  0  0  0  0  0  0  0  0  0  0  0
   -4.1804   -0.4683    0.0000 C   0  0  0  0  0  0  0  0  0  0  0  0
   -1.3330    0.2116    0.0000 C   0  0  0  0  0  0  0  0  0  0  0  0
   -0.9383   -1.5397    0.0000 C   0  0  0  0  0  0  0  0  0  0  0  0
    5.2456   -1.2578    0.0000 O   0  0  0  0  0  0  0  0  0  0  0  0
   -4.5656    1.2171    0.0000 C   0  0  0  0  0  0  0  0  0  0  0  0
   -1.9438    0.9257    0.0000 Cl  0  0  0  0  0  0  0  0  0  0  0  0
   -4.8603    0.2647    0.0000 C   0  0  0  0  0  0  0  0  0  0  0  0
   -5.2456    1.9407    0.0000 F   0  0  0  0  0  0  0  0  0  0  0  0
    3.5539   -1.6430    0.0000 C   0  0  0  0  0  0  0  0  0  0  0  0
    4.0709    0.0110    0.0000 C   0  0  0  0  0  0  0  0  0  0  0  0
    5.0262   -0.2805    0.0000 C   0  0  0  0  0  0  0  0  0  0  0  0
    4.5125   -1.9407    0.0000 C   0  0  0  0  0  0  0  0  0  0  0  0
  1  2  1  0
  3  6  2  0
  3  5  1  0
  1  4  2  0
  2  5  1  0
  4  6  1  0
  1  7  1  0
  8 14  1  0
  9 18  1  0
  9 17  1  0
  3 10  1  0
  8 11  2  0
  6 12  1  0
 11 13  1  0
 13 20  2  0
  9 14  1  0
  5 15  2  0
  8 16  1  0
 10 17  1  0
 12 18  1  0
 19 26  1  0
 19 27  1  0
 20 22  1  0
 11 21  1  0
 16 22  2  0
 20 23  1  0
  7 24  1  0
  7 25  1  0
 25 26  1  0
 24 27  1  0
M  END
>  <IDNUMBER>  (244) 
S039-3196

>  <available>  (244) 
12

>  <H_acceptor>  (244) 
5

>  <H_donor>  (244) 
1

>  <B_rotN>  (244) 
3

>  <N_O>  (244) 
6

>  <logP>  (244) 
2.2399

>  <logD>  (244) 
2.1428

>  <logSw>  (244) 
-3.2675

>  <PSA>  (244) 
49.708

>  <pKa_ma>  (244) 
9.6889

>  <pKa_mb>  (244) 
6.7875

>  <N_Chirals>  (244) 
0

>  <Name>  (244) 
7-[(2-chloro-4-fluorophenyl)methyl]-2-(morpholin-4-yl)-3,5,6,7,8,9-hexahydro-4H-pyrimido[4,5-d]azepin-4-one

>  <Smile>  (244) 
O=C1NC(N2CCOCC2)=NC2=C1CCN(Cc(ccc(F)c1)c1Cl)CC2

>  <Color>  (244) 
NOT COLORED

>  <Collection>  (244) 
IC

>  <InChI>  (244) 
InChI=1S/C19H22ClFN4O2/c20-16-11-14(21)2-1-13(16)12-24-5-3-15-17(4-6-24)22-19(23-18(15)26)25-7-9-27-10-8-25/h1-2,11H,3-10,12H2,(H,22,23,26)

>  <InChI Key>  (244) 
JYKFASOOODUBCW-UHFFFAOYSA-N

>  <PERCENTSP3>  (244) 
47.4

>  <Link>  (244) 
https://www.chemdiv.com/catalog/screening-compounds/compound-S039-3196/

>  <MFCDNUMBER>  (244) 
MFCD28999092

>  <CLNUMBER>  (244) 
CM2417

>  <STEREO>  (244) 
ACHIRAL

>  <State>  (244) 
Solid

>  <Similarity score>  (244) 
0.23

$$$$
4-(azepan-1-yl)-2-(4-methoxyphenyl)-5,6,8,9-tetrahydrooxepino[4,5-d]pyrimidine
     RDKit          2D

 26 29  0  0  0  0  0  0  0  0999 V2000
   -0.1912    0.8384    0.0000 N   0  0  0  0  0  0  0  0  0  0  0  0
   -0.1160    1.8350    0.0000 C   0  0  0  0  0  0  0  0  0  0  0  0
   -0.9433    2.3992    0.0000 C   0  0  0  0  0  0  0  0  0  0  0  0
   -1.0939    0.4060    0.0000 C   0  0  0  0  0  0  0  0  0  0  0  0
   -1.9150    0.9668    0.0000 N   0  0  0  0  0  0  0  0  0  0  0  0
   -1.8398    1.9574    0.0000 C   0  0  0  0  0  0  0  0  0  0  0  0
    0.7774    2.2643    0.0000 N   0  0  0  0  0  0  0  0  0  0  0  0
   -1.1691   -0.5940    0.0000 C   0  0  0  0  0  0  0  0  0  0  0  0
   -2.3474    4.1481    0.0000 O   0  0  0  0  0  0  0  0  0  0  0  0
   -0.3416   -1.1581    0.0000 C   0  0  0  0  0  0  0  0  0  0  0  0
   -2.0750   -1.0264    0.0000 C   0  0  0  0  0  0  0  0  0  0  0  0
   -2.7488    2.3992    0.0000 C   0  0  0  0  0  0  0  0  0  0  0  0
   -0.7209    3.3740    0.0000 C   0  0  0  0  0  0  0  0  0  0  0  0
   -1.3195   -2.5874    0.0000 C   0  0  0  0  0  0  0  0  0  0  0  0
   -2.1470   -2.0232    0.0000 C   0  0  0  0  0  0  0  0  0  0  0  0
   -0.4168   -2.1547    0.0000 C   0  0  0  0  0  0  0  0  0  0  0  0
    0.7774    3.2705    0.0000 C   0  0  0  0  0  0  0  0  0  0  0  0
    1.5577    1.6439    0.0000 C   0  0  0  0  0  0  0  0  0  0  0  0
   -1.3947   -3.5840    0.0000 O   0  0  0  0  0  0  0  0  0  0  0  0
   -2.9681    3.3740    0.0000 C   0  0  0  0  0  0  0  0  0  0  0  0
   -1.3415    4.1481    0.0000 C   0  0  0  0  0  0  0  0  0  0  0  0
   -0.5674   -4.1481    0.0000 C   0  0  0  0  0  0  0  0  0  0  0  0
    1.5577    3.8912    0.0000 C   0  0  0  0  0  0  0  0  0  0  0  0
    2.5419    1.8695    0.0000 C   0  0  0  0  0  0  0  0  0  0  0  0
    2.5419    3.6685    0.0000 C   0  0  0  0  0  0  0  0  0  0  0  0
    2.9681    2.7629    0.0000 C   0  0  0  0  0  0  0  0  0  0  0  0
  1  2  2  0
  2  3  1  0
  1  4  1  0
  4  5  2  0
  5  6  1  0
  3  6  2  0
  2  7  1  0
  4  8  1  0
  9 21  1  0
  8 10  1  0
  8 11  2  0
  6 12  1  0
  3 13  1  0
 14 15  2  0
 11 15  1  0
 10 16  2  0
 14 16  1  0
  7 17  1  0
  7 18  1  0
 14 19  1  0
 12 20  1  0
  9 20  1  0
 13 21  1  0
 19 22  1  0
 17 23  1  0
 18 24  1  0
 23 25  1  0
 24 26  1  0
 25 26  1  0
M  END
>  <IDNUMBER>  (245) 
S896-0140

>  <available>  (245) 
65

>  <H_acceptor>  (245) 
4

>  <H_donor>  (245) 
0

>  <B_rotN>  (245) 
3

>  <N_O>  (245) 
5

>  <logP>  (245) 
5.2476

>  <logD>  (245) 
5.2419

>  <logSw>  (245) 
-5.0806

>  <PSA>  (245) 
39.459

>  <pKa_ma>  (245) 
19.7965

>  <pKa_mb>  (245) 
5.5159

>  <N_Chirals>  (245) 
0

>  <Name>  (245) 
4-(azepan-1-yl)-2-(4-methoxyphenyl)-5,6,8,9-tetrahydrooxepino[4,5-d]pyrimidine

>  <Smile>  (245) 
COc(cc1)ccc1-c1nc(CCOCC2)c2c(N2CCCCCC2)n1

>  <Color>  (245) 
BROWN

>  <Collection>  (245) 
IC

>  <InChI>  (245) 
InChI=1S/C21H27N3O2/c1-25-17-8-6-16(7-9-17)20-22-19-11-15-26-14-10-18(19)21(23-20)24-12-4-2-3-5-13-24/h6-9H,2-5,10-15H2,1H3

>  <InChI Key>  (245) 
IFLZROVYLCMPOH-UHFFFAOYSA-N

>  <PERCENTSP3>  (245) 
52.38

>  <Link>  (245) 
https://www.chemdiv.com/catalog/screening-compounds/compound-S896-0140/

>  <MFCDNUMBER>  (245) 
MFCD31956795

>  <CLNUMBER>  (245) 
CM3993

>  <STEREO>  (245) 
ACHIRAL

>  <State>  (245) 
Solid

>  <Similarity score>  (245) 
0.23

$$$$
N-[3-(3,4-dihydroquinolin-1(2H)-yl)propyl]-2-methyl-4-oxo-4,5,6,7,8,9-hexahydro-
     RDKit          2D

 29 32  0  0  0  0  0  0  0  0999 V2000
   -1.9225   -0.7227    0.0000 C   0  0  0  0  0  0  0  0  0  0  0  0
   -2.4221    0.1436    0.0000 C   0  0  0  0  0  0  0  0  0  0  0  0
   -2.4221   -1.5849    0.0000 C   0  0  0  0  0  0  0  0  0  0  0  0
   -3.4220   -1.5849    0.0000 N   0  0  0  0  0  0  0  0  0  0  0  0
   -3.4220    0.1436    0.0000 N   0  0  0  0  0  0  0  0  0  0  0  0
   -3.9220   -0.7227    0.0000 C   0  0  0  0  0  0  0  0  0  0  0  0
    3.1887    0.7518    0.0000 N   0  0  0  0  0  0  0  0  0  0  0  0
   -0.9309   -0.5727    0.0000 C   0  0  0  0  0  0  0  0  0  0  0  0
    3.1887    1.7516    0.0000 C   0  0  0  0  0  0  0  0  0  0  0  0
    0.5893   -2.7473    0.0000 C   0  0  0  0  0  0  0  0  0  0  0  0
   -1.9225    1.0101    0.0000 O   0  0  0  0  0  0  0  0  0  0  0  0
   -2.0556   -2.5181    0.0000 C   0  0  0  0  0  0  0  0  0  0  0  0
   -0.2728   -2.2514    0.0000 C   0  0  0  0  0  0  0  0  0  0  0  0
    0.5893   -3.7509    0.0000 O   0  0  0  0  0  0  0  0  0  0  0  0
   -0.1978   -1.2517    0.0000 C   0  0  0  0  0  0  0  0  0  0  0  0
    4.0552    2.2514    0.0000 C   0  0  0  0  0  0  0  0  0  0  0  0
   -1.1016   -2.8139    0.0000 C   0  0  0  0  0  0  0  0  0  0  0  0
    1.4558   -2.2514    0.0000 N   0  0  0  0  0  0  0  0  0  0  0  0
    2.3222    0.2521    0.0000 C   0  0  0  0  0  0  0  0  0  0  0  0
    4.0552    0.2521    0.0000 C   0  0  0  0  0  0  0  0  0  0  0  0
    2.3222   -0.7519    0.0000 C   0  0  0  0  0  0  0  0  0  0  0  0
   -4.9215   -0.7227    0.0000 C   0  0  0  0  0  0  0  0  0  0  0  0
    4.9215    0.7518    0.0000 C   0  0  0  0  0  0  0  0  0  0  0  0
    2.3222    2.2514    0.0000 C   0  0  0  0  0  0  0  0  0  0  0  0
    1.4558   -1.2478    0.0000 C   0  0  0  0  0  0  0  0  0  0  0  0
    4.9215    1.7516    0.0000 C   0  0  0  0  0  0  0  0  0  0  0  0
    4.0552    3.2470    0.0000 C   0  0  0  0  0  0  0  0  0  0  0  0
    2.3222    3.2470    0.0000 C   0  0  0  0  0  0  0  0  0  0  0  0
    3.1887    3.7509    0.0000 C   0  0  0  0  0  0  0  0  0  0  0  0
  1  2  1  0
  1  3  2  0
  3  4  1  0
  2  5  1  0
  5  6  1  0
  4  6  2  0
  7 19  1  0
  1  8  1  0
  7  9  1  0
 10 13  1  0
  2 11  2  0
  3 12  1  0
 13 15  1  0
 13 17  1  0
 10 14  2  0
  8 15  1  0
  9 16  1  0
 12 17  1  0
 10 18  1  0
 19 21  1  0
  7 20  1  0
 21 25  1  0
  6 22  1  0
 20 23  1  0
  9 24  2  0
 18 25  1  0
 23 26  1  0
 16 26  1  0
 16 27  2  0
 24 28  1  0
 28 29  2  0
 27 29  1  0
M  END
>  <IDNUMBER>  (246) 
SB25-0085

>  <available>  (246) 
36

>  <H_acceptor>  (246) 
5

>  <H_donor>  (246) 
2

>  <B_rotN>  (246) 
6

>  <N_O>  (246) 
6

>  <logP>  (246) 
2.2027

>  <logD>  (246) 
2.1448

>  <logSw>  (246) 
-2.732

>  <PSA>  (246) 
61.204

>  <pKa_ma>  (246) 
9.7494

>  <pKa_mb>  (246) 
7.7732

>  <N_Chirals>  (246) 
1

>  <Name>  (246) 
N-[3-(3,4-dihydroquinolin-1(2H)-yl)propyl]-2-methyl-4-oxo-4,5,6,7,8,9-hexahydro-3H-cyclohepta[d]pyrimidine-7-carboxamide

>  <Smile>  (246) 
CC(N1)=NC(CCC(CC2)C(NCCCN(CCC3)c4c3cccc4)=O)=C2C1=O

>  <Color>  (246) 
ORANGE

>  <Collection>  (246) 
IC

>  <InChI>  (246) 
InChI=1S/C23H30N4O2/c1-16-25-20-12-10-18(9-11-19(20)23(29)26-16)22(28)24-13-5-15-27-14-4-7-17-6-2-3-8-21(17)27/h2-3,6,8,18H,4-5,7,9-15H2,1H3,(H,24,28)(H,25,26,29)/t18-/m1/s1

>  <InChI Key>  (246) 
ZHHXQYMJZSDFMF-GOSISDBHSA-N

>  <PERCENTSP3>  (246) 
52.17

>  <Link>  (246) 
https://www.chemdiv.com/catalog/screening-compounds/compound-SB25-0085/

>  <MFCDNUMBER>  (246) 
MFCD32247259

>  <CLNUMBER>  (246) 
CM3995

>  <STEREO>  (246) 
RACEMIC MIXTURE

>  <State>  (246) 
Solid

>  <Similarity score>  (246) 
0.23

$$$$
N-(4-acetylphenyl)-1-amino-7-methyl-5-(morpholin-4-yl)-6,7,8,9-tetrahydrothieno[
     RDKit          2D

 33 37  0  0  0  0  0  0  0  0999 V2000
   -0.0771   -0.0065    0.0000 C   0  0  0  0  0  0  0  0  0  0  0  0
   -1.6019    0.4894    0.0000 C   0  0  0  0  0  0  0  0  0  0  0  0
   -0.6560    0.7978    0.0000 C   0  0  0  0  0  0  0  0  0  0  0  0
   -3.3305    0.4894    0.0000 C   0  0  0  0  0  0  0  0  0  0  0  0
   -1.6019   -0.5063    0.0000 C   0  0  0  0  0  0  0  0  0  0  0  0
   -3.3305   -0.5063    0.0000 C   0  0  0  0  0  0  0  0  0  0  0  0
   -2.4682   -1.0061    0.0000 N   0  0  0  0  0  0  0  0  0  0  0  0
   -0.6560   -0.8187    0.0000 S   0  0  0  0  0  0  0  0  0  0  0  0
   -2.4682    0.9896    0.0000 C   0  0  0  0  0  0  0  0  0  0  0  0
    0.9227   -0.0187    0.0000 C   0  0  0  0  0  0  0  0  0  0  0  0
   -4.2056   -1.0061    0.0000 N   0  0  0  0  0  0  0  0  0  0  0  0
    1.4227   -0.8812    0.0000 N   0  0  0  0  0  0  0  0  0  0  0  0
   -4.2056    0.9896    0.0000 C   0  0  0  0  0  0  0  0  0  0  0  0
   -4.2056    1.9933    0.0000 N   0  0  0  0  0  0  0  0  0  0  0  0
   -2.4682    1.9933    0.0000 C   0  0  0  0  0  0  0  0  0  0  0  0
    1.4227    0.8560    0.0000 O   0  0  0  0  0  0  0  0  0  0  0  0
   -0.3480    1.7518    0.0000 N   0  0  0  0  0  0  0  0  0  0  0  0
    5.4301   -0.8812    0.0000 C   0  0  0  0  0  0  0  0  0  0  0  0
    4.4303   -0.8812    0.0000 C   0  0  0  0  0  0  0  0  0  0  0  0
    5.9301   -0.0065    0.0000 O   0  0  0  0  0  0  0  0  0  0  0  0
   -3.3305    2.4932    0.0000 C   0  0  0  0  0  0  0  0  0  0  0  0
   -5.9301   -2.0142    0.0000 O   0  0  0  0  0  0  0  0  0  0  0  0
    2.4308   -0.8812    0.0000 C   0  0  0  0  0  0  0  0  0  0  0  0
    3.9304   -1.7475    0.0000 C   0  0  0  0  0  0  0  0  0  0  0  0
    3.9304   -0.0187    0.0000 C   0  0  0  0  0  0  0  0  0  0  0  0
    2.9306   -1.7475    0.0000 C   0  0  0  0  0  0  0  0  0  0  0  0
    2.9306   -0.0187    0.0000 C   0  0  0  0  0  0  0  0  0  0  0  0
   -5.0676   -0.5063    0.0000 C   0  0  0  0  0  0  0  0  0  0  0  0
   -4.2056   -2.0142    0.0000 C   0  0  0  0  0  0  0  0  0  0  0  0
   -5.0719    2.5016    0.0000 C   0  0  0  0  0  0  0  0  0  0  0  0
   -5.9301   -1.0061    0.0000 C   0  0  0  0  0  0  0  0  0  0  0  0
   -5.0676   -2.5016    0.0000 C   0  0  0  0  0  0  0  0  0  0  0  0
    5.9301   -1.7435    0.0000 C   0  0  0  0  0  0  0  0  0  0  0  0
  2  3  1  0
  2  5  2  0
  1  3  2  0
  4  9  2  0
  4  6  1  0
  5  8  1  0
  6  7  2  0
  5  7  1  0
  1  8  1  0
  2  9  1  0
  1 10  1  0
  6 11  1  0
 10 12  1  0
  4 13  1  0
 13 14  1  0
 14 21  1  0
  9 15  1  0
 10 16  2  0
  3 17  1  0
 18 19  1  0
 19 25  1  0
 18 20  2  0
 15 21  1  0
 22 32  1  0
 12 23  1  0
 24 26  1  0
 19 24  2  0
 25 27  2  0
 23 26  2  0
 23 27  1  0
 11 28  1  0
 11 29  1  0
 14 30  1  0
 28 31  1  0
 22 31  1  0
 29 32  1  0
 18 33  1  0
M  END
>  <IDNUMBER>  (247) 
IB06-0074

>  <available>  (247) 
50

>  <H_acceptor>  (247) 
7

>  <H_donor>  (247) 
3

>  <B_rotN>  (247) 
5

>  <N_O>  (247) 
8

>  <logP>  (247) 
2.64

>  <logD>  (247) 
1.41

>  <logSw>  (247) 
-3.37

>  <PSA>  (247) 
141.35

>  <pKa_ma>  (247) 
10.96

>  <pKa_mb>  (247) 
8.6

>  <N_Chirals>  (247) 
0

>  <Name>  (247) 
N-(4-acetylphenyl)-1-amino-7-methyl-5-(morpholin-4-yl)-6,7,8,9-tetrahydrothieno[2,3-c][2,7]naphthyridine-2-carboxamide

>  <Smile>  (247) 
CC(c(cc1)ccc1NC(c(sc1nc(N2CCOCC2)c(CN(C)CC2)c2c11)c1N)=O)=O

>  <Color>  (247) 
NOT COLORED

>  <Collection>  (247) 
DC

>  <InChI>  (247) 
InChI=1S/C24H27N5O3S/c1-14(30)15-3-5-16(6-4-15)26-23(31)21-20(25)19-17-7-8-28(2)13-18(17)22(27-24(19)33-21)29-9-11-32-12-10-29/h3-6H,7-13,25H2,1-2H3,(H,26,31)

>  <InChI Key>  (247) 
UAFFKEBBSSRUAV-UHFFFAOYSA-N

>  <PERCENTSP3>  (247) 
37.5

>  <Link>  (247) 
https://www.chemdiv.com/catalog/screening-compounds/compound-IB06-0074/

>  <STEREO>  (247) 
ACHIRAL

>  <State>  (247) 
Solid

>  <Similarity score>  (247) 
0.23

$$$$
3-(6-methoxy-1,3,4,9-tetrahydro-2H-pyrido[3,4-b]indol-2-yl)-1-methylpyrrolidine-
     RDKit          2D

 23 26  0  0  0  0  0  0  0  0999 V2000
    3.5270    0.8354    0.0000 N   0  0  0  0  0  0  0  0  0  0  0  0
    2.5476    1.0480    0.0000 C   0  0  0  0  0  0  0  0  0  0  0  0
   -0.3436   -0.9562    0.0000 C   0  0  0  0  0  0  0  0  0  0  0  0
    3.6186   -0.1479    0.0000 C   0  0  0  0  0  0  0  0  0  0  0  0
    2.0478    0.1770    0.0000 C   0  0  0  0  0  0  0  0  0  0  0  0
   -0.9437   -0.1396    0.0000 C   0  0  0  0  0  0  0  0  0  0  0  0
    1.0645    0.0895    0.0000 N   0  0  0  0  0  0  0  0  0  0  0  0
    2.7145   -0.5479    0.0000 C   0  0  0  0  0  0  0  0  0  0  0  0
   -0.9312   -1.7562    0.0000 N   0  0  0  0  0  0  0  0  0  0  0  0
   -1.8977   -0.4562    0.0000 C   0  0  0  0  0  0  0  0  0  0  0  0
   -1.8852   -1.4645    0.0000 C   0  0  0  0  0  0  0  0  0  0  0  0
    0.6522   -0.8479    0.0000 C   0  0  0  0  0  0  0  0  0  0  0  0
   -0.5354    0.7854    0.0000 C   0  0  0  0  0  0  0  0  0  0  0  0
    0.4730    0.8896    0.0000 C   0  0  0  0  0  0  0  0  0  0  0  0
    2.1395    1.9521    0.0000 O   0  0  0  0  0  0  0  0  0  0  0  0
    4.4976   -0.6522    0.0000 O   0  0  0  0  0  0  0  0  0  0  0  0
   -2.7601    0.0437    0.0000 C   0  0  0  0  0  0  0  0  0  0  0  0
   -2.7601   -1.9521    0.0000 C   0  0  0  0  0  0  0  0  0  0  0  0
    4.2560    1.5104    0.0000 C   0  0  0  0  0  0  0  0  0  0  0  0
   -3.6227   -0.4562    0.0000 C   0  0  0  0  0  0  0  0  0  0  0  0
   -3.6227   -1.4645    0.0000 C   0  0  0  0  0  0  0  0  0  0  0  0
   -4.4809    0.0437    0.0000 O   0  0  0  0  0  0  0  0  0  0  0  0
   -4.4976    1.0395    0.0000 C   0  0  0  0  0  0  0  0  0  0  0  0
  1  2  1  0
  3 12  1  0
  1  4  1  0
  2  5  1  0
  5  8  1  0
  6 13  1  0
  3  6  2  0
  5  7  1  0
  4  8  1  0
  3  9  1  0
  6 10  1  0
 10 11  1  0
  9 11  1  0
  7 12  1  0
 13 14  1  0
  7 14  1  0
  2 15  2  0
  4 16  2  0
 10 17  2  0
 11 18  2  0
  1 19  1  0
 17 20  1  0
 20 21  2  0
 18 21  1  0
 20 22  1  0
 22 23  1  0
M  END
>  <IDNUMBER>  (248) 
Y020-9705

>  <available>  (248) 
9

>  <H_acceptor>  (248) 
6

>  <H_donor>  (248) 
1

>  <B_rotN>  (248) 
2

>  <N_O>  (248) 
6

>  <logP>  (248) 
0.3181

>  <logD>  (248) 
0.3179

>  <logSw>  (248) 
-2.0622

>  <PSA>  (248) 
50.692

>  <pKa_ma>  (248) 
16.8486

>  <pKa_mb>  (248) 
3.9283

>  <N_Chirals>  (248) 
1

>  <Name>  (248) 
3-(6-methoxy-1,3,4,9-tetrahydro-2H-pyrido[3,4-b]indol-2-yl)-1-methylpyrrolidine-2,5-dione

>  <Smile>  (248) 
CN(C(CC1N(CC2)Cc3c2c(cc(cc2)OC)c2[nH]3)=O)C1=O

>  <Color>  (248) 
NOT COLORED

>  <Collection>  (248) 
DC

>  <InChI>  (248) 
InChI=1S/C17H19N3O3/c1-19-16(21)8-15(17(19)22)20-6-5-11-12-7-10(23-2)3-4-13(12)18-14(11)9-20/h3-4,7,15,18H,5-6,8-9H2,1-2H3/t15-/m0/s1

>  <InChI Key>  (248) 
BXRYGYIQEUOTHD-HNNXBMFYSA-N

>  <PERCENTSP3>  (248) 
41.2

>  <Link>  (248) 
https://www.chemdiv.com/catalog/screening-compounds/compound-Y020-9705/

>  <MFCDNUMBER>  (248) 
MFCD22574375

>  <STEREO>  (248) 
RACEMIC MIXTURE

>  <State>  (248) 
Solid

>  <Similarity score>  (248) 
0.23

$$$$
N-(3,5-dimethoxyphenyl)-2-(9-fluoro-6-methyl-10-oxo-3,4,5,10-tetrahydrobenzo[b][
     RDKit          2D

 31 34  0  0  0  0  0  0  0  0999 V2000
   -0.8901   -1.7128    0.0000 C   0  0  0  0  0  0  0  0  0  0  0  0
   -1.7611   -1.2143    0.0000 C   0  0  0  0  0  0  0  0  0  0  0  0
   -2.6448   -1.7128    0.0000 C   0  0  0  0  0  0  0  0  0  0  0  0
   -1.7801   -3.1888    0.0000 N   0  0  0  0  0  0  0  0  0  0  0  0
   -2.6448   -2.6904    0.0000 C   0  0  0  0  0  0  0  0  0  0  0  0
   -0.8901   -2.7094    0.0000 C   0  0  0  0  0  0  0  0  0  0  0  0
    0.8713   -1.7128    0.0000 N   0  0  0  0  0  0  0  0  0  0  0  0
    0.0063   -1.2240    0.0000 C   0  0  0  0  0  0  0  0  0  0  0  0
    1.7644   -0.2461    0.0000 C   0  0  0  0  0  0  0  0  0  0  0  0
    2.6638    1.2143    0.0000 C   0  0  0  0  0  0  0  0  0  0  0  0
   -3.5382   -1.2240    0.0000 C   0  0  0  0  0  0  0  0  0  0  0  0
   -0.0124   -3.1888    0.0000 C   0  0  0  0  0  0  0  0  0  0  0  0
    2.6638    0.2364    0.0000 N   0  0  0  0  0  0  0  0  0  0  0  0
   -3.5382   -3.1888    0.0000 C   0  0  0  0  0  0  0  0  0  0  0  0
   -1.7611   -0.2273    0.0000 O   0  0  0  0  0  0  0  0  0  0  0  0
    1.7831    1.7001    0.0000 C   0  0  0  0  0  0  0  0  0  0  0  0
    3.5412    1.7001    0.0000 C   0  0  0  0  0  0  0  0  0  0  0  0
    1.7644   -1.2240    0.0000 C   0  0  0  0  0  0  0  0  0  0  0  0
    3.5412    2.6777    0.0000 C   0  0  0  0  0  0  0  0  0  0  0  0
    1.7831    2.6777    0.0000 C   0  0  0  0  0  0  0  0  0  0  0  0
    2.6638    3.1665    0.0000 C   0  0  0  0  0  0  0  0  0  0  0  0
    0.8713    0.2364    0.0000 O   0  0  0  0  0  0  0  0  0  0  0  0
    0.8713   -2.7094    0.0000 C   0  0  0  0  0  0  0  0  0  0  0  0
   -4.4062   -1.7128    0.0000 C   0  0  0  0  0  0  0  0  0  0  0  0
   -4.4062   -2.6904    0.0000 C   0  0  0  0  0  0  0  0  0  0  0  0
   -3.5382   -0.2273    0.0000 F   0  0  0  0  0  0  0  0  0  0  0  0
    0.9181    3.1949    0.0000 O   0  0  0  0  0  0  0  0  0  0  0  0
    4.4062    3.1855    0.0000 O   0  0  0  0  0  0  0  0  0  0  0  0
   -3.5475   -4.1852    0.0000 C   0  0  0  0  0  0  0  0  0  0  0  0
    0.0628    2.6967    0.0000 C   0  0  0  0  0  0  0  0  0  0  0  0
    4.3875    4.1852    0.0000 C   0  0  0  0  0  0  0  0  0  0  0  0
  1  2  1  0
  2  3  1  0
  3  5  1  0
  4  6  1  0
  4  5  1  0
  1  6  2  0
  7  8  1  0
  1  8  1  0
  9 18  1  0
 10 13  1  0
  3 11  2  0
  6 12  1  0
 12 23  1  0
  9 13  1  0
  5 14  2  0
  2 15  2  0
 10 16  2  0
 10 17  1  0
  7 18  1  0
 17 19  2  0
 16 20  1  0
 20 21  2  0
 19 21  1  0
  9 22  2  0
  7 23  1  0
 11 24  1  0
 24 25  2  0
 14 25  1  0
 11 26  1  0
 20 27  1  0
 19 28  1  0
 14 29  1  0
 27 30  1  0
 28 31  1  0
M  END
>  <IDNUMBER>  (249) 
L489-1899

>  <available>  (249) 
50

>  <H_acceptor>  (249) 
7

>  <H_donor>  (249) 
2

>  <B_rotN>  (249) 
6

>  <N_O>  (249) 
7

>  <logP>  (249) 
3.7383

>  <logD>  (249) 
2.8413

>  <logSw>  (249) 
-4.2104

>  <PSA>  (249) 
63.899

>  <pKa_ma>  (249) 
6.5619

>  <pKa_mb>  (249) 
1.2894

>  <N_Chirals>  (249) 
0

>  <Name>  (249) 
N-(3,5-dimethoxyphenyl)-2-(9-fluoro-6-methyl-10-oxo-3,4,5,10-tetrahydrobenzo[b][1,6]naphthyridin-2(1H)-yl)acetamide

>  <Smile>  (249) 
Cc(ccc(F)c12)c2NC(CCN(CC(Nc2cc(OC)cc(OC)c2)=O)C2)=C2C1=O

>  <Color>  (249) 
YELLOW

>  <Collection>  (249) 
NC

>  <InChI>  (249) 
InChI=1S/C23H24FN3O4/c1-13-4-5-18(24)21-22(13)26-19-6-7-27(11-17(19)23(21)29)12-20(28)25-14-8-15(30-2)10-16(9-14)31-3/h4-5,8-10H,6-7,11-12H2,1-3H3,(H,25,28)(H,26,29)

>  <InChI Key>  (249) 
WWIIWEOHIYBQKU-UHFFFAOYSA-N

>  <PERCENTSP3>  (249) 
30.4

>  <Link>  (249) 
https://www.chemdiv.com/catalog/screening-compounds/compound-L489-1899/

>  <MFCDNUMBER>  (249) 
MFCD27457665

>  <CLNUMBER>  (249) 
CL8213A

>  <STEREO>  (249) 
ACHIRAL

>  <State>  (249) 
Solid

>  <Similarity score>  (249) 
0.23

$$$$
7-[(2-fluorophenyl)methyl]-2-(4-methylpiperazin-1-yl)-3,5,6,7,8,9-hexahydro-4H-p
     RDKit          2D

 27 30  0  0  0  0  0  0  0  0999 V2000
    1.3289    0.6236    0.0000 C   0  0  0  0  0  0  0  0  0  0  0  0
    1.1000    1.5922    0.0000 N   0  0  0  0  0  0  0  0  0  0  0  0
   -0.5893    1.2067    0.0000 C   0  0  0  0  0  0  0  0  0  0  0  0
    0.5954   -0.0594    0.0000 N   0  0  0  0  0  0  0  0  0  0  0  0
    0.1443    1.8868    0.0000 C   0  0  0  0  0  0  0  0  0  0  0  0
   -0.3636    0.2288    0.0000 C   0  0  0  0  0  0  0  0  0  0  0  0
    2.2879    0.3228    0.0000 N   0  0  0  0  0  0  0  0  0  0  0  0
   -2.6199    0.2288    0.0000 N   0  0  0  0  0  0  0  0  0  0  0  0
   -1.4854    1.6392    0.0000 C   0  0  0  0  0  0  0  0  0  0  0  0
   -3.8893   -0.9466    0.0000 C   0  0  0  0  0  0  0  0  0  0  0  0
   -0.9934   -0.5514    0.0000 C   0  0  0  0  0  0  0  0  0  0  0  0
    4.1932   -0.2665    0.0000 N   0  0  0  0  0  0  0  0  0  0  0  0
   -3.5882    0.0031    0.0000 C   0  0  0  0  0  0  0  0  0  0  0  0
   -0.0721    2.8645    0.0000 O   0  0  0  0  0  0  0  0  0  0  0  0
    3.0179    0.9997    0.0000 C   0  0  0  0  0  0  0  0  0  0  0  0
    2.5040   -0.6551    0.0000 C   0  0  0  0  0  0  0  0  0  0  0  0
   -3.2059   -1.6798    0.0000 C   0  0  0  0  0  0  0  0  0  0  0  0
   -2.3942    1.2067    0.0000 C   0  0  0  0  0  0  0  0  0  0  0  0
   -1.9900   -0.5514    0.0000 C   0  0  0  0  0  0  0  0  0  0  0  0
    3.9675    0.7021    0.0000 C   0  0  0  0  0  0  0  0  0  0  0  0
    3.4600   -0.9466    0.0000 C   0  0  0  0  0  0  0  0  0  0  0  0
   -2.2283   -1.4634    0.0000 F   0  0  0  0  0  0  0  0  0  0  0  0
    5.1522   -0.5611    0.0000 C   0  0  0  0  0  0  0  0  0  0  0  0
   -4.8575   -1.1720    0.0000 C   0  0  0  0  0  0  0  0  0  0  0  0
   -3.4945   -2.6355    0.0000 C   0  0  0  0  0  0  0  0  0  0  0  0
   -5.1522   -2.1309    0.0000 C   0  0  0  0  0  0  0  0  0  0  0  0
   -4.4721   -2.8645    0.0000 C   0  0  0  0  0  0  0  0  0  0  0  0
  1  2  1  0
  3  6  2  0
  3  5  1  0
  1  4  2  0
  2  5  1  0
  4  6  1  0
  1  7  1  0
  8 19  1  0
  8 18  1  0
  3  9  1  0
 10 13  1  0
  6 11  1  0
 12 21  1  0
 12 20  1  0
  8 13  1  0
  5 14  2  0
  7 15  1  0
  7 16  1  0
 10 17  2  0
  9 18  1  0
 11 19  1  0
 15 20  1  0
 16 21  1  0
 17 22  1  0
 12 23  1  0
 10 24  1  0
 17 25  1  0
 25 27  2  0
 24 26  2  0
 26 27  1  0
M  END
>  <IDNUMBER>  (250) 
S039-3657

>  <available>  (250) 
3

>  <H_acceptor>  (250) 
5

>  <H_donor>  (250) 
1

>  <B_rotN>  (250) 
3

>  <N_O>  (250) 
6

>  <logP>  (250) 
1.6322

>  <logD>  (250) 
0.4125

>  <logSw>  (250) 
-2.2418

>  <PSA>  (250) 
45.276

>  <pKa_ma>  (250) 
9.6889

>  <pKa_mb>  (250) 
8.5927

>  <N_Chirals>  (250) 
0

>  <Name>  (250) 
7-[(2-fluorophenyl)methyl]-2-(4-methylpiperazin-1-yl)-3,5,6,7,8,9-hexahydro-4H-pyrimido[4,5-d]azepin-4-one

>  <Smile>  (250) 
CN(CC1)CCN1C(N1)=NC(CCN(Cc(cccc2)c2F)CC2)=C2C1=O

>  <Color>  (250) 
NOT COLORED

>  <Collection>  (250) 
IC

>  <InChI>  (250) 
InChI=1S/C20H26FN5O/c1-24-10-12-26(13-11-24)20-22-18-7-9-25(8-6-16(18)19(27)23-20)14-15-4-2-3-5-17(15)21/h2-5H,6-14H2,1H3,(H,22,23,27)

>  <InChI Key>  (250) 
BDQFRDKMVNYFJC-UHFFFAOYSA-N

>  <PERCENTSP3>  (250) 
50

>  <Link>  (250) 
https://www.chemdiv.com/catalog/screening-compounds/compound-S039-3657/

>  <MFCDNUMBER>  (250) 
MFCD28999996

>  <CLNUMBER>  (250) 
CM2417

>  <STEREO>  (250) 
ACHIRAL

>  <State>  (250) 
Solid

>  <Similarity score>  (250) 
0.23

$$$$
2-(9-chloro-6-methoxy-10-oxo-3,4,5,10-tetrahydrobenzo[b][1,6]naphthyridin-2(1H)-
     RDKit          2D

 30 33  0  0  0  0  0  0  0  0999 V2000
   -0.8948   -1.4602    0.0000 C   0  0  0  0  0  0  0  0  0  0  0  0
   -1.7690   -0.9652    0.0000 C   0  0  0  0  0  0  0  0  0  0  0  0
   -2.6434   -1.4602    0.0000 C   0  0  0  0  0  0  0  0  0  0  0  0
   -1.7784   -2.9395    0.0000 N   0  0  0  0  0  0  0  0  0  0  0  0
   -2.6434   -2.4411    0.0000 C   0  0  0  0  0  0  0  0  0  0  0  0
   -0.8948   -2.4505    0.0000 C   0  0  0  0  0  0  0  0  0  0  0  0
    0.8790   -1.4602    0.0000 N   0  0  0  0  0  0  0  0  0  0  0  0
    0.0079   -0.9746    0.0000 C   0  0  0  0  0  0  0  0  0  0  0  0
    1.7659    0.0124    0.0000 C   0  0  0  0  0  0  0  0  0  0  0  0
   -3.5303   -0.9746    0.0000 C   0  0  0  0  0  0  0  0  0  0  0  0
   -0.0048   -2.9395    0.0000 C   0  0  0  0  0  0  0  0  0  0  0  0
    3.5428    2.9301    0.0000 C   0  0  0  0  0  0  0  0  0  0  0  0
    3.5428    1.9491    0.0000 C   0  0  0  0  0  0  0  0  0  0  0  0
   -3.5303   -2.9207    0.0000 C   0  0  0  0  0  0  0  0  0  0  0  0
    2.6683    0.4856    0.0000 N   0  0  0  0  0  0  0  0  0  0  0  0
   -1.7690    0.0158    0.0000 O   0  0  0  0  0  0  0  0  0  0  0  0
    2.6683    1.4696    0.0000 C   0  0  0  0  0  0  0  0  0  0  0  0
    2.6683    3.4157    0.0000 C   0  0  0  0  0  0  0  0  0  0  0  0
    1.7659   -0.9746    0.0000 C   0  0  0  0  0  0  0  0  0  0  0  0
    0.8790    0.4856    0.0000 O   0  0  0  0  0  0  0  0  0  0  0  0
    0.8790   -2.4505    0.0000 C   0  0  0  0  0  0  0  0  0  0  0  0
   -4.4045   -1.4602    0.0000 C   0  0  0  0  0  0  0  0  0  0  0  0
   -4.4045   -2.4411    0.0000 C   0  0  0  0  0  0  0  0  0  0  0  0
    1.7814    2.9301    0.0000 C   0  0  0  0  0  0  0  0  0  0  0  0
    4.4045    3.4439    0.0000 F   0  0  0  0  0  0  0  0  0  0  0  0
    1.7814    1.9491    0.0000 C   0  0  0  0  0  0  0  0  0  0  0  0
   -3.5397    0.0252    0.0000 Cl  0  0  0  0  0  0  0  0  0  0  0  0
    2.6683    4.4248    0.0000 F   0  0  0  0  0  0  0  0  0  0  0  0
   -3.5303   -3.9236    0.0000 O   0  0  0  0  0  0  0  0  0  0  0  0
   -2.6716   -4.4248    0.0000 C   0  0  0  0  0  0  0  0  0  0  0  0
  1  2  1  0
  2  3  1  0
  3  5  1  0
  4  6  1  0
  4  5  1  0
  1  6  2  0
  7  8  1  0
  1  8  1  0
  9 19  1  0
  3 10  2  0
  6 11  1  0
 11 21  1  0
 12 13  2  0
 12 18  1  0
 13 17  1  0
  5 14  2  0
  9 15  1  0
  2 16  2  0
 15 17  1  0
 18 24  2  0
  7 19  1  0
  9 20  2  0
  7 21  1  0
 10 22  1  0
 22 23  2  0
 14 23  1  0
 24 26  1  0
 12 25  1  0
 17 26  2  0
 10 27  1  0
 18 28  1  0
 14 29  1  0
 29 30  1  0
M  END
>  <IDNUMBER>  (251) 
L489-1792

>  <available>  (251) 
39

>  <H_acceptor>  (251) 
6

>  <H_donor>  (251) 
2

>  <B_rotN>  (251) 
5

>  <N_O>  (251) 
6

>  <logP>  (251) 
3.7481

>  <logD>  (251) 
1.6987

>  <logSw>  (251) 
-4.5264

>  <PSA>  (251) 
56.441

>  <pKa_ma>  (251) 
5.3545

>  <pKa_mb>  (251) 
1.1333

>  <N_Chirals>  (251) 
0

>  <Name>  (251) 
2-(9-chloro-6-methoxy-10-oxo-3,4,5,10-tetrahydrobenzo[b][1,6]naphthyridin-2(1H)-yl)-N-(3,4-difluorophenyl)acetamide

>  <Smile>  (251) 
COc(ccc(Cl)c12)c2NC(CCN(CC(Nc(cc2)cc(F)c2F)=O)C2)=C2C1=O

>  <Color>  (251) 
ORANGE

>  <Collection>  (251) 
NC

>  <InChI>  (251) 
InChI=1S/C21H18ClF2N3O3/c1-30-17-5-3-13(22)19-20(17)26-16-6-7-27(9-12(16)21(19)29)10-18(28)25-11-2-4-14(23)15(24)8-11/h2-5,8H,6-7,9-10H2,1H3,(H,25,28)(H,26,29)

>  <InChI Key>  (251) 
UGEQQUGXBLBONZ-UHFFFAOYSA-N

>  <PERCENTSP3>  (251) 
23.8

>  <Link>  (251) 
https://www.chemdiv.com/catalog/screening-compounds/compound-L489-1792/

>  <MFCDNUMBER>  (251) 
MFCD27457653

>  <CLNUMBER>  (251) 
CL8213A

>  <STEREO>  (251) 
ACHIRAL

>  <State>  (251) 
Solid

>  <Similarity score>  (251) 
0.23

$$$$
4-[(2,6-difluorophenyl)methyl]-5,8-difluoro-7-(pyrrolidin-1-yl)-3,4-dihydro-1lam
     RDKit          2D

 28 31  0  0  0  0  0  0  0  0999 V2000
    0.4207   -1.2199    0.0000 C   0  0  0  0  0  0  0  0  0  0  0  0
    1.2679   -1.7090    0.0000 S   0  0  0  0  0  0  0  0  0  0  0  0
   -0.4264   -1.7090    0.0000 C   0  0  0  0  0  0  0  0  0  0  0  0
    0.4207   -0.2475    0.0000 C   0  0  0  0  0  0  0  0  0  0  0  0
   -1.2738   -1.2199    0.0000 C   0  0  0  0  0  0  0  0  0  0  0  0
   -1.2738   -0.2475    0.0000 N   0  0  0  0  0  0  0  0  0  0  0  0
    1.2679    0.2416    0.0000 N   0  0  0  0  0  0  0  0  0  0  0  0
   -0.4264    0.2416    0.0000 C   0  0  0  0  0  0  0  0  0  0  0  0
    2.1151    1.7090    0.0000 C   0  0  0  0  0  0  0  0  0  0  0  0
    1.2679    1.2199    0.0000 C   0  0  0  0  0  0  0  0  0  0  0  0
    2.1151   -1.2199    0.0000 C   0  0  0  0  0  0  0  0  0  0  0  0
   -2.1210   -1.7090    0.0000 N   0  0  0  0  0  0  0  0  0  0  0  0
    2.1151   -0.2475    0.0000 C   0  0  0  0  0  0  0  0  0  0  0  0
    2.1151   -2.1980    0.0000 O   0  0  0  0  0  0  0  0  0  0  0  0
    0.4207   -2.1980    0.0000 O   0  0  0  0  0  0  0  0  0  0  0  0
    2.9626    1.2199    0.0000 C   0  0  0  0  0  0  0  0  0  0  0  0
    2.1151    2.6873    0.0000 C   0  0  0  0  0  0  0  0  0  0  0  0
   -0.4264   -2.6814    0.0000 F   0  0  0  0  0  0  0  0  0  0  0  0
   -0.4264    1.2199    0.0000 F   0  0  0  0  0  0  0  0  0  0  0  0
    1.2738    3.1764    0.0000 F   0  0  0  0  0  0  0  0  0  0  0  0
    2.9626    0.2475    0.0000 F   0  0  0  0  0  0  0  0  0  0  0  0
   -2.9682   -1.2199    0.0000 C   0  0  0  0  0  0  0  0  0  0  0  0
   -2.1210   -2.6873    0.0000 C   0  0  0  0  0  0  0  0  0  0  0  0
    3.8096    2.6873    0.0000 C   0  0  0  0  0  0  0  0  0  0  0  0
    2.9626    3.1764    0.0000 C   0  0  0  0  0  0  0  0  0  0  0  0
    3.8096    1.7090    0.0000 C   0  0  0  0  0  0  0  0  0  0  0  0
   -3.8096   -1.7090    0.0000 C   0  0  0  0  0  0  0  0  0  0  0  0
   -2.9682   -3.1764    0.0000 C   0  0  0  0  0  0  0  0  0  0  0  0
  1  2  1  0
  1  3  1  0
  1  4  2  0
  3  5  2  0
  6  8  2  0
  5  6  1  0
  4  7  1  0
  4  8  1  0
  9 10  1  0
  7 10  1  0
  2 11  1  0
  5 12  1  0
  7 13  1  0
 11 13  1  0
  2 14  2  0
  2 15  2  0
  9 16  2  0
  9 17  1  0
  3 18  1  0
  8 19  1  0
 17 20  1  0
 16 21  1  0
 12 22  1  0
 12 23  1  0
 24 25  1  0
 24 26  2  0
 17 25  2  0
 16 26  1  0
 22 27  1  0
 27 28  1  0
 23 28  1  0
M  END
>  <IDNUMBER>  (252) 
8610-0655

>  <available>  (252) 
89

>  <H_acceptor>  (252) 
5

>  <H_donor>  (252) 
0

>  <B_rotN>  (252) 
3

>  <N_O>  (252) 
5

>  <logP>  (252) 
3.3959

>  <logD>  (252) 
3.3959

>  <logSw>  (252) 
-3.709

>  <PSA>  (252) 
47.503

>  <pKa_ma>  (252) 
21.3867

>  <pKa_mb>  (252) 
-1.2133

>  <N_Chirals>  (252) 
0

>  <Name>  (252) 
4-[(2,6-difluorophenyl)methyl]-5,8-difluoro-7-(pyrrolidin-1-yl)-3,4-dihydro-1lambda~6~-pyrido[4,3-b][1,4]thiazine-1,1(2H)-dione

>  <Smile>  (252) 
O=S(CCN(Cc(c(F)ccc1)c1F)c1c(nc2N3CCCC3)F)(c1c2F)=O

>  <Color>  (252) 
YELLOW

>  <Collection>  (252) 
DC

>  <InChI>  (252) 
InChI=1S/C18H17F4N3O2S/c19-12-4-3-5-13(20)11(12)10-25-8-9-28(26,27)16-14(21)18(23-17(22)15(16)25)24-6-1-2-7-24/h3-5H,1-2,6-10H2

>  <InChI Key>  (252) 
BPVCAUPUYRTWHT-UHFFFAOYSA-N

>  <PERCENTSP3>  (252) 
38.9

>  <Link>  (252) 
https://www.chemdiv.com/catalog/screening-compounds/compound-8610-0655/

>  <MFCDNUMBER>  (252) 
MFCD08053450

>  <STEREO>  (252) 
ACHIRAL

>  <State>  (252) 
Solid

>  <Similarity score>  (252) 
0.23

$$$$
N-(2,5-difluorophenyl)-1-(2,5,6-trimethylfuro[2,3-d]pyrimidin-4-yl)piperidine-3-
     RDKit          2D

 29 32  0  0  0  0  0  0  0  0999 V2000
   -0.5669    2.2258    0.0000 C   0  0  0  0  0  0  0  0  0  0  0  0
   -1.3046    2.8969    0.0000 C   0  0  0  0  0  0  0  0  0  0  0  0
   -1.0962    3.8723    0.0000 C   0  0  0  0  0  0  0  0  0  0  0  0
   -0.7711    1.2462    0.0000 N   0  0  0  0  0  0  0  0  0  0  0  0
   -2.3050    2.7885    0.0000 C   0  0  0  0  0  0  0  0  0  0  0  0
    0.3835    2.5342    0.0000 N   0  0  0  0  0  0  0  0  0  0  0  0
   -0.1459    4.1723    0.0000 N   0  0  0  0  0  0  0  0  0  0  0  0
   -1.9673    4.3683    0.0000 O   0  0  0  0  0  0  0  0  0  0  0  0
   -2.7095    3.7056    0.0000 C   0  0  0  0  0  0  0  0  0  0  0  0
    0.5086   -1.0671    0.0000 C   0  0  0  0  0  0  0  0  0  0  0  0
   -0.2334   -0.4043    0.0000 C   0  0  0  0  0  0  0  0  0  0  0  0
    0.2960   -2.0508    0.0000 N   0  0  0  0  0  0  0  0  0  0  0  0
    0.5961    3.5096    0.0000 C   0  0  0  0  0  0  0  0  0  0  0  0
    1.0420   -2.7177    0.0000 C   0  0  0  0  0  0  0  0  0  0  0  0
   -0.0291    0.5753    0.0000 C   0  0  0  0  0  0  0  0  0  0  0  0
    1.9967   -2.4050    0.0000 C   0  0  0  0  0  0  0  0  0  0  0  0
    0.8337   -3.6930    0.0000 C   0  0  0  0  0  0  0  0  0  0  0  0
    1.4589   -0.7628    0.0000 O   0  0  0  0  0  0  0  0  0  0  0  0
    1.5798   -4.3683    0.0000 C   0  0  0  0  0  0  0  0  0  0  0  0
    2.7344   -3.0804    0.0000 C   0  0  0  0  0  0  0  0  0  0  0  0
   -1.7215    0.9378    0.0000 C   0  0  0  0  0  0  0  0  0  0  0  0
   -0.1166   -4.0058    0.0000 F   0  0  0  0  0  0  0  0  0  0  0  0
    2.5301   -4.0557    0.0000 C   0  0  0  0  0  0  0  0  0  0  0  0
   -2.8053    1.9215    0.0000 C   0  0  0  0  0  0  0  0  0  0  0  0
    3.6847   -2.7678    0.0000 F   0  0  0  0  0  0  0  0  0  0  0  0
   -3.6847    3.9098    0.0000 C   0  0  0  0  0  0  0  0  0  0  0  0
   -1.1921   -0.7127    0.0000 C   0  0  0  0  0  0  0  0  0  0  0  0
   -1.9299   -0.0418    0.0000 C   0  0  0  0  0  0  0  0  0  0  0  0
    1.5464    3.8223    0.0000 C   0  0  0  0  0  0  0  0  0  0  0  0
  1  2  1  0
  2  3  2  0
  3  7  1  0
  1  4  1  0
  2  5  1  0
  1  6  2  0
  7 13  2  0
  3  8  1  0
  5  9  2  0
  8  9  1  0
 10 11  1  0
 11 15  1  0
 11 27  1  0
 10 12  1  0
  6 13  1  0
 12 14  1  0
  4 15  1  0
 14 16  1  0
 14 17  2  0
 10 18  2  0
 17 19  1  0
 16 20  2  0
 20 23  1  0
  4 21  1  0
 17 22  1  0
 19 23  2  0
  5 24  1  0
 20 25  1  0
  9 26  1  0
 27 28  1  0
 21 28  1  0
 13 29  1  0
M  END
>  <IDNUMBER>  (253) 
F228-0942

>  <available>  (253) 
41

>  <H_acceptor>  (253) 
5

>  <H_donor>  (253) 
1

>  <B_rotN>  (253) 
4

>  <N_O>  (253) 
6

>  <logP>  (253) 
3.9456

>  <logD>  (253) 
3.6085

>  <logSw>  (253) 
-4.0995

>  <PSA>  (253) 
52.255

>  <pKa_ma>  (253) 
8.1045

>  <pKa_mb>  (253) 
7.4693

>  <N_Chirals>  (253) 
1

>  <Name>  (253) 
N-(2,5-difluorophenyl)-1-(2,5,6-trimethylfuro[2,3-d]pyrimidin-4-yl)piperidine-3-carboxamide

>  <Smile>  (253) 
Cc1c(C)oc2c1c(N(CCC1)CC1C(Nc(cc(cc1)F)c1F)=O)nc(C)n2

>  <Color>  (253) 
NOT COLORED

>  <Collection>  (253) 
DC

>  <InChI>  (253) 
InChI=1S/C21H22F2N4O2/c1-11-12(2)29-21-18(11)19(24-13(3)25-21)27-8-4-5-14(10-27)20(28)26-17-9-15(22)6-7-16(17)23/h6-7,9,14H,4-5,8,10H2,1-3H3,(H,26,28)/t14-/m0/s1

>  <InChI Key>  (253) 
RVJJUKPIRPJOEE-AWEZNQCLSA-N

>  <PERCENTSP3>  (253) 
38.1

>  <Link>  (253) 
https://www.chemdiv.com/catalog/screening-compounds/compound-F228-0942/

>  <MFCDNUMBER>  (253) 
MFCD14945744

>  <CLNUMBER>  (253) 
CL1321B

>  <STEREO>  (253) 
RACEMIC MIXTURE

>  <State>  (253) 
Solid

>  <Similarity score>  (253) 
0.23

$$$$
7-[(2,4-dimethoxyphenyl)methyl]-2-(4-methylpiperazin-1-yl)-3,5,6,7,8,9-hexahydro
     RDKit          2D

 30 33  0  0  0  0  0  0  0  0999 V2000
    2.3814   -0.2664    0.0000 C   0  0  0  0  0  0  0  0  0  0  0  0
    2.1620    0.7018    0.0000 N   0  0  0  0  0  0  0  0  0  0  0  0
    0.4827    0.3165    0.0000 C   0  0  0  0  0  0  0  0  0  0  0  0
    1.6482   -0.9464    0.0000 N   0  0  0  0  0  0  0  0  0  0  0  0
    1.2159    0.9996    0.0000 C   0  0  0  0  0  0  0  0  0  0  0  0
    0.6955   -0.6517    0.0000 C   0  0  0  0  0  0  0  0  0  0  0  0
    3.3403   -0.5608    0.0000 N   0  0  0  0  0  0  0  0  0  0  0  0
   -3.2117   -0.1441    0.0000 C   0  0  0  0  0  0  0  0  0  0  0  0
   -1.5418   -0.6517    0.0000 N   0  0  0  0  0  0  0  0  0  0  0  0
   -0.4229    0.7550    0.0000 C   0  0  0  0  0  0  0  0  0  0  0  0
   -4.1799   -0.3635    0.0000 C   0  0  0  0  0  0  0  0  0  0  0  0
    0.0691   -1.4350    0.0000 C   0  0  0  0  0  0  0  0  0  0  0  0
    5.2549   -1.1468    0.0000 N   0  0  0  0  0  0  0  0  0  0  0  0
   -2.5255   -0.8773    0.0000 C   0  0  0  0  0  0  0  0  0  0  0  0
   -4.8599    0.3697    0.0000 C   0  0  0  0  0  0  0  0  0  0  0  0
    0.9810    1.9864    0.0000 O   0  0  0  0  0  0  0  0  0  0  0  0
    4.0735    0.1192    0.0000 C   0  0  0  0  0  0  0  0  0  0  0  0
    3.5659   -1.5356    0.0000 C   0  0  0  0  0  0  0  0  0  0  0  0
   -2.9111    0.8148    0.0000 C   0  0  0  0  0  0  0  0  0  0  0  0
   -1.3317    0.3165    0.0000 C   0  0  0  0  0  0  0  0  0  0  0  0
   -0.9212   -1.4350    0.0000 C   0  0  0  0  0  0  0  0  0  0  0  0
    5.0323   -0.1755    0.0000 C   0  0  0  0  0  0  0  0  0  0  0  0
    4.5216   -1.8299    0.0000 C   0  0  0  0  0  0  0  0  0  0  0  0
   -4.5655    1.3224    0.0000 C   0  0  0  0  0  0  0  0  0  0  0  0
   -3.5974    1.5480    0.0000 C   0  0  0  0  0  0  0  0  0  0  0  0
   -4.4746   -1.3224    0.0000 O   0  0  0  0  0  0  0  0  0  0  0  0
   -5.2455    2.0556    0.0000 O   0  0  0  0  0  0  0  0  0  0  0  0
    6.2137   -1.4447    0.0000 C   0  0  0  0  0  0  0  0  0  0  0  0
   -3.7946   -2.0556    0.0000 C   0  0  0  0  0  0  0  0  0  0  0  0
   -6.2137    1.8362    0.0000 C   0  0  0  0  0  0  0  0  0  0  0  0
  1  2  1  0
  3  6  2  0
  3  5  1  0
  1  4  2  0
  2  5  1  0
  4  6  1  0
  1  7  1  0
  8 14  1  0
  9 21  1  0
  9 20  1  0
  3 10  1  0
  8 11  2  0
  6 12  1  0
 13 23  1  0
 13 22  1  0
  9 14  1  0
 11 15  1  0
 15 24  2  0
  5 16  2  0
  7 17  1  0
  7 18  1  0
  8 19  1  0
 10 20  1  0
 12 21  1  0
 17 22  1  0
 18 23  1  0
 24 25  1  0
 19 25  2  0
 11 26  1  0
 24 27  1  0
 13 28  1  0
 26 29  1  0
 27 30  1  0
M  END
>  <IDNUMBER>  (254) 
S039-3651

>  <available>  (254) 
20

>  <H_acceptor>  (254) 
7

>  <H_donor>  (254) 
1

>  <B_rotN>  (254) 
5

>  <N_O>  (254) 
8

>  <logP>  (254) 
1.4422

>  <logD>  (254) 
0.2225

>  <logSw>  (254) 
-2.36

>  <PSA>  (254) 
60.45

>  <pKa_ma>  (254) 
9.6889

>  <pKa_mb>  (254) 
8.5927

>  <N_Chirals>  (254) 
0

>  <Name>  (254) 
7-[(2,4-dimethoxyphenyl)methyl]-2-(4-methylpiperazin-1-yl)-3,5,6,7,8,9-hexahydro-4H-pyrimido[4,5-d]azepin-4-one

>  <Smile>  (254) 
CN(CC1)CCN1C(N1)=NC(CCN(Cc(ccc(OC)c2)c2OC)CC2)=C2C1=O

>  <Color>  (254) 
NOT COLORED

>  <Collection>  (254) 
IC

>  <InChI>  (254) 
InChI=1S/C22H31N5O3/c1-25-10-12-27(13-11-25)22-23-19-7-9-26(8-6-18(19)21(28)24-22)15-16-4-5-17(29-2)14-20(16)30-3/h4-5,14H,6-13,15H2,1-3H3,(H,23,24,28)

>  <InChI Key>  (254) 
QFHQJTRCEBJPGL-UHFFFAOYSA-N

>  <PERCENTSP3>  (254) 
54.5

>  <Link>  (254) 
https://www.chemdiv.com/catalog/screening-compounds/compound-S039-3651/

>  <MFCDNUMBER>  (254) 
MFCD28999054

>  <CLNUMBER>  (254) 
CM2417

>  <STEREO>  (254) 
ACHIRAL

>  <State>  (254) 
Solid

>  <Similarity score>  (254) 
0.23

$$$$
2-(9-fluoro-6-methyl-10-oxo-3,4,5,10-tetrahydrobenzo[b][1,6]naphthyridin-2(1H)-y
     RDKit          2D

 28 31  0  0  0  0  0  0  0  0999 V2000
   -0.8915   -1.2143    0.0000 C   0  0  0  0  0  0  0  0  0  0  0  0
   -1.7657   -0.7129    0.0000 C   0  0  0  0  0  0  0  0  0  0  0  0
   -2.6432   -1.2143    0.0000 C   0  0  0  0  0  0  0  0  0  0  0  0
   -1.7784   -2.6964    0.0000 N   0  0  0  0  0  0  0  0  0  0  0  0
   -2.6432   -2.1919    0.0000 C   0  0  0  0  0  0  0  0  0  0  0  0
   -0.8915   -2.2109    0.0000 C   0  0  0  0  0  0  0  0  0  0  0  0
    0.8758   -1.2143    0.0000 N   0  0  0  0  0  0  0  0  0  0  0  0
    0.0077   -0.7318    0.0000 C   0  0  0  0  0  0  0  0  0  0  0  0
    1.7690    0.2461    0.0000 C   0  0  0  0  0  0  0  0  0  0  0  0
   -3.5330   -0.7318    0.0000 C   0  0  0  0  0  0  0  0  0  0  0  0
   -0.0077   -2.6964    0.0000 C   0  0  0  0  0  0  0  0  0  0  0  0
   -3.5330   -2.6964    0.0000 C   0  0  0  0  0  0  0  0  0  0  0  0
    2.6682    0.7316    0.0000 N   0  0  0  0  0  0  0  0  0  0  0  0
   -1.7657    0.2617    0.0000 O   0  0  0  0  0  0  0  0  0  0  0  0
    1.7690   -0.7318    0.0000 C   0  0  0  0  0  0  0  0  0  0  0  0
    2.6682    1.7094    0.0000 C   0  0  0  0  0  0  0  0  0  0  0  0
    0.8758    0.7316    0.0000 O   0  0  0  0  0  0  0  0  0  0  0  0
    3.5457    2.1919    0.0000 C   0  0  0  0  0  0  0  0  0  0  0  0
    0.8758   -2.2109    0.0000 C   0  0  0  0  0  0  0  0  0  0  0  0
   -4.4012   -1.2143    0.0000 C   0  0  0  0  0  0  0  0  0  0  0  0
   -4.4012   -2.1919    0.0000 C   0  0  0  0  0  0  0  0  0  0  0  0
    3.5457    3.1792    0.0000 C   0  0  0  0  0  0  0  0  0  0  0  0
   -3.5330    0.2617    0.0000 F   0  0  0  0  0  0  0  0  0  0  0  0
    4.4012    3.6867    0.0000 F   0  0  0  0  0  0  0  0  0  0  0  0
    1.7784    3.1792    0.0000 C   0  0  0  0  0  0  0  0  0  0  0  0
    1.7784    2.1919    0.0000 C   0  0  0  0  0  0  0  0  0  0  0  0
   -3.5330   -3.6867    0.0000 C   0  0  0  0  0  0  0  0  0  0  0  0
    2.6682    3.6553    0.0000 C   0  0  0  0  0  0  0  0  0  0  0  0
  1  2  1  0
  2  3  1  0
  3  5  1  0
  4  6  1  0
  4  5  1  0
  1  6  2  0
  7  8  1  0
  1  8  1  0
  9 15  1  0
  3 10  2  0
  6 11  1  0
 11 19  1  0
  5 12  2  0
  9 13  1  0
  2 14  2  0
  7 15  1  0
 13 16  1  0
  9 17  2  0
 16 18  1  0
  7 19  1  0
 10 20  1  0
 20 21  2  0
 12 21  1  0
 18 22  2  0
 22 28  1  0
 10 23  1  0
 22 24  1  0
 25 26  1  0
 16 26  2  0
 12 27  1  0
 25 28  2  0
M  END
>  <IDNUMBER>  (255) 
L489-1907

>  <available>  (255) 
51

>  <H_acceptor>  (255) 
5

>  <H_donor>  (255) 
2

>  <B_rotN>  (255) 
4

>  <N_O>  (255) 
5

>  <logP>  (255) 
3.7526

>  <logD>  (255) 
2.8556

>  <logSw>  (255) 
-4.0472

>  <PSA>  (255) 
48.811

>  <pKa_ma>  (255) 
6.5619

>  <pKa_mb>  (255) 
1.2894

>  <N_Chirals>  (255) 
0

>  <Name>  (255) 
2-(9-fluoro-6-methyl-10-oxo-3,4,5,10-tetrahydrobenzo[b][1,6]naphthyridin-2(1H)-yl)-N-(3-fluorophenyl)acetamide

>  <Smile>  (255) 
Cc(ccc(F)c12)c2NC(CCN(CC(Nc2cc(F)ccc2)=O)C2)=C2C1=O

>  <Color>  (255) 
YELLOW

>  <Collection>  (255) 
NC

>  <InChI>  (255) 
InChI=1S/C21H19F2N3O2/c1-12-5-6-16(23)19-20(12)25-17-7-8-26(10-15(17)21(19)28)11-18(27)24-14-4-2-3-13(22)9-14/h2-6,9H,7-8,10-11H2,1H3,(H,24,27)(H,25,28)

>  <InChI Key>  (255) 
ZLNLCZYPFALVRG-UHFFFAOYSA-N

>  <PERCENTSP3>  (255) 
23.8

>  <Link>  (255) 
https://www.chemdiv.com/catalog/screening-compounds/compound-L489-1907/

>  <MFCDNUMBER>  (255) 
MFCD27457673

>  <CLNUMBER>  (255) 
CL8213A

>  <STEREO>  (255) 
ACHIRAL

>  <State>  (255) 
Solid

>  <Similarity score>  (255) 
0.23

$$$$
N-(3-chloro-4-fluorophenyl)-2-(9-fluoro-6-methyl-10-oxo-3,4,5,10-tetrahydrobenzo
     RDKit          2D

 29 32  0  0  0  0  0  0  0  0999 V2000
   -0.8902   -1.6955    0.0000 C   0  0  0  0  0  0  0  0  0  0  0  0
   -1.7613   -1.2036    0.0000 C   0  0  0  0  0  0  0  0  0  0  0  0
   -2.6451   -1.6955    0.0000 C   0  0  0  0  0  0  0  0  0  0  0  0
   -1.7803   -3.1781    0.0000 N   0  0  0  0  0  0  0  0  0  0  0  0
   -2.6451   -2.6735    0.0000 C   0  0  0  0  0  0  0  0  0  0  0  0
   -0.8902   -2.6922    0.0000 C   0  0  0  0  0  0  0  0  0  0  0  0
    0.8714   -1.6955    0.0000 N   0  0  0  0  0  0  0  0  0  0  0  0
   -0.0030   -1.2130    0.0000 C   0  0  0  0  0  0  0  0  0  0  0  0
    1.7646   -0.2289    0.0000 C   0  0  0  0  0  0  0  0  0  0  0  0
   -3.5386   -1.2130    0.0000 C   0  0  0  0  0  0  0  0  0  0  0  0
   -0.0157   -3.1781    0.0000 C   0  0  0  0  0  0  0  0  0  0  0  0
    3.5480    2.6955    0.0000 C   0  0  0  0  0  0  0  0  0  0  0  0
    3.5480    1.7175    0.0000 C   0  0  0  0  0  0  0  0  0  0  0  0
   -3.5386   -3.1781    0.0000 C   0  0  0  0  0  0  0  0  0  0  0  0
    2.6548    0.2506    0.0000 N   0  0  0  0  0  0  0  0  0  0  0  0
   -1.7613   -0.2162    0.0000 O   0  0  0  0  0  0  0  0  0  0  0  0
    2.6548    1.2317    0.0000 C   0  0  0  0  0  0  0  0  0  0  0  0
    2.6548    3.1844    0.0000 C   0  0  0  0  0  0  0  0  0  0  0  0
    1.7646   -1.2130    0.0000 C   0  0  0  0  0  0  0  0  0  0  0  0
    0.8714    0.2506    0.0000 O   0  0  0  0  0  0  0  0  0  0  0  0
    0.8714   -2.6922    0.0000 C   0  0  0  0  0  0  0  0  0  0  0  0
   -4.4067   -1.6955    0.0000 C   0  0  0  0  0  0  0  0  0  0  0  0
   -4.4067   -2.6735    0.0000 C   0  0  0  0  0  0  0  0  0  0  0  0
    1.7833    2.6955    0.0000 C   0  0  0  0  0  0  0  0  0  0  0  0
    4.4067    3.2064    0.0000 Cl  0  0  0  0  0  0  0  0  0  0  0  0
    1.7833    1.7175    0.0000 C   0  0  0  0  0  0  0  0  0  0  0  0
   -3.5386   -0.2162    0.0000 F   0  0  0  0  0  0  0  0  0  0  0  0
    2.6735    4.1748    0.0000 F   0  0  0  0  0  0  0  0  0  0  0  0
   -3.5386   -4.1748    0.0000 C   0  0  0  0  0  0  0  0  0  0  0  0
  1  2  1  0
  2  3  1  0
  3  5  1  0
  4  6  1  0
  4  5  1  0
  1  6  2  0
  7  8  1  0
  1  8  1  0
  9 19  1  0
  3 10  2  0
  6 11  1  0
 11 21  1  0
 12 13  2  0
 12 18  1  0
 13 17  1  0
  5 14  2  0
  9 15  1  0
  2 16  2  0
 15 17  1  0
 18 24  2  0
  7 19  1  0
  9 20  2  0
  7 21  1  0
 10 22  1  0
 22 23  2  0
 14 23  1  0
 24 26  1  0
 12 25  1  0
 17 26  2  0
 10 27  1  0
 18 28  1  0
 14 29  1  0
M  END
>  <IDNUMBER>  (256) 
L489-1897

>  <available>  (256) 
103

>  <H_acceptor>  (256) 
5

>  <H_donor>  (256) 
2

>  <B_rotN>  (256) 
4

>  <N_O>  (256) 
5

>  <logP>  (256) 
4.3294

>  <logD>  (256) 
3.4324

>  <logSw>  (256) 
-4.7301

>  <PSA>  (256) 
48.811

>  <pKa_ma>  (256) 
6.5619

>  <pKa_mb>  (256) 
1.2894

>  <N_Chirals>  (256) 
0

>  <Name>  (256) 
N-(3-chloro-4-fluorophenyl)-2-(9-fluoro-6-methyl-10-oxo-3,4,5,10-tetrahydrobenzo[b][1,6]naphthyridin-2(1H)-yl)acetamide

>  <Smile>  (256) 
Cc(c(NC1=C2CN(CC(Nc(cc3)cc(Cl)c3F)=O)CC1)c1C2=O)ccc1F

>  <Color>  (256) 
YELLOW

>  <Collection>  (256) 
NC

>  <InChI>  (256) 
InChI=1S/C21H18ClF2N3O2/c1-11-2-4-16(24)19-20(11)26-17-6-7-27(9-13(17)21(19)29)10-18(28)25-12-3-5-15(23)14(22)8-12/h2-5,8H,6-7,9-10H2,1H3,(H,25,28)(H,26,29)

>  <InChI Key>  (256) 
PLDSAXHUDBIULF-UHFFFAOYSA-N

>  <PERCENTSP3>  (256) 
23.8

>  <Link>  (256) 
https://www.chemdiv.com/catalog/screening-compounds/compound-L489-1897/

>  <MFCDNUMBER>  (256) 
MFCD27457663

>  <CLNUMBER>  (256) 
CL8213A

>  <STEREO>  (256) 
ACHIRAL

>  <State>  (256) 
Solid

>  <Similarity score>  (256) 
0.23

$$$$
N-(4-{2,5-dioxo-3-[8-(trifluoromethoxy)-1,3,4,5-tetrahydro-2H-pyrido[4,3-b]indol
     RDKit          2D

 35 39  0  0  0  0  0  0  0  0999 V2000
    0.8710   -0.2938    0.0000 N   0  0  0  0  0  0  0  0  0  0  0  0
    0.2375   -1.0607    0.0000 C   0  0  0  0  0  0  0  0  0  0  0  0
   -3.2798   -1.1897    0.0000 C   0  0  0  0  0  0  0  0  0  0  0  0
    0.3293    0.5480    0.0000 C   0  0  0  0  0  0  0  0  0  0  0  0
   -0.7001   -0.6895    0.0000 C   0  0  0  0  0  0  0  0  0  0  0  0
   -3.2798   -2.1858    0.0000 C   0  0  0  0  0  0  0  0  0  0  0  0
   -1.5586   -1.1897    0.0000 N   0  0  0  0  0  0  0  0  0  0  0  0
   -0.6376    0.2979    0.0000 C   0  0  0  0  0  0  0  0  0  0  0  0
   -4.2341   -2.4943    0.0000 N   0  0  0  0  0  0  0  0  0  0  0  0
   -4.2341   -0.8853    0.0000 C   0  0  0  0  0  0  0  0  0  0  0  0
   -2.4211   -0.6895    0.0000 C   0  0  0  0  0  0  0  0  0  0  0  0
   -4.8092   -1.6940    0.0000 C   0  0  0  0  0  0  0  0  0  0  0  0
   -5.4593    1.8692    0.0000 C   0  0  0  0  0  0  0  0  0  0  0  0
    1.8627   -0.3896    0.0000 C   0  0  0  0  0  0  0  0  0  0  0  0
   -2.4211   -2.6818    0.0000 C   0  0  0  0  0  0  0  0  0  0  0  0
    0.4918   -2.0274    0.0000 O   0  0  0  0  0  0  0  0  0  0  0  0
   -1.5586   -2.1858    0.0000 C   0  0  0  0  0  0  0  0  0  0  0  0
    0.6919    1.4900    0.0000 O   0  0  0  0  0  0  0  0  0  0  0  0
   -4.6383    0.0355    0.0000 C   0  0  0  0  0  0  0  0  0  0  0  0
    5.2758   -1.5899    0.0000 C   0  0  0  0  0  0  0  0  0  0  0  0
   -6.0469    1.0523    0.0000 O   0  0  0  0  0  0  0  0  0  0  0  0
    4.8509   -0.6854    0.0000 N   0  0  0  0  0  0  0  0  0  0  0  0
   -5.6384    0.1311    0.0000 C   0  0  0  0  0  0  0  0  0  0  0  0
   -5.8093   -1.5940    0.0000 C   0  0  0  0  0  0  0  0  0  0  0  0
    4.7008   -2.4068    0.0000 O   0  0  0  0  0  0  0  0  0  0  0  0
    2.2753   -1.3106    0.0000 C   0  0  0  0  0  0  0  0  0  0  0  0
    2.4421    0.4188    0.0000 C   0  0  0  0  0  0  0  0  0  0  0  0
   -4.8717    2.6818    0.0000 F   0  0  0  0  0  0  0  0  0  0  0  0
   -4.6467    1.2773    0.0000 F   0  0  0  0  0  0  0  0  0  0  0  0
   -6.2719    2.4568    0.0000 F   0  0  0  0  0  0  0  0  0  0  0  0
    3.8549   -0.5939    0.0000 C   0  0  0  0  0  0  0  0  0  0  0  0
   -6.2219   -0.6854    0.0000 C   0  0  0  0  0  0  0  0  0  0  0  0
    3.4382    0.3228    0.0000 C   0  0  0  0  0  0  0  0  0  0  0  0
    3.2714   -1.4106    0.0000 C   0  0  0  0  0  0  0  0  0  0  0  0
    6.2719   -1.6816    0.0000 C   0  0  0  0  0  0  0  0  0  0  0  0
  1  2  1  0
  3 11  1  0
  1  4  1  0
  2  5  1  0
  5  8  1  0
  6 15  1  0
  3  6  2  0
  5  7  1  0
  4  8  1  0
  6  9  1  0
  9 12  1  0
  3 10  1  0
  7 11  1  0
 10 12  2  0
 13 21  1  0
  1 14  1  0
 15 17  1  0
  2 16  2  0
  7 17  1  0
  4 18  2  0
 10 19  1  0
 20 22  1  0
 21 23  1  0
 22 31  1  0
 19 23  2  0
 12 24  1  0
 24 32  2  0
 20 25  2  0
 14 26  1  0
 14 27  2  0
 13 28  1  0
 13 29  1  0
 13 30  1  0
 31 33  2  0
 31 34  1  0
 23 32  1  0
 27 33  1  0
 26 34  2  0
 20 35  1  0
M  END
>  <IDNUMBER>  (257) 
IB07-8274

>  <available>  (257) 
50

>  <H_acceptor>  (257) 
8

>  <H_donor>  (257) 
2

>  <B_rotN>  (257) 
6

>  <N_O>  (257) 
8

>  <logP>  (257) 
2.21

>  <logD>  (257) 
2.21

>  <logSw>  (257) 
-3.02

>  <PSA>  (257) 
148.6

>  <pKa_ma>  (257) 
12.73

>  <pKa_mb>  (257) 
4.05

>  <N_Chirals>  (257) 
1

>  <Name>  (257) 
N-(4-{2,5-dioxo-3-[8-(trifluoromethoxy)-1,3,4,5-tetrahydro-2H-pyrido[4,3-b]indol-2-yl]pyrrolidin-1-yl}phenyl)acetamide

>  <Smile>  (257) 
CC(Nc(cc1)ccc1N(C(CC1N(CC2)Cc3c2[nH]c(cc2)c3cc2OC(F)(F)F)=O)C1=O)=O

>  <Color>  (257) 
NOT COLORED

>  <Collection>  (257) 
DC

>  <InChI>  (257) 
InChI=1S/C24H21F3N4O4/c1-13(32)28-14-2-4-15(5-3-14)31-22(33)11-21(23(31)34)30-9-8-20-18(12-30)17-10-16(35-24(25,26)27)6-7-19(17)29-20/h2-7,10,21,29H,8-9,11-12H2,1H3,(H,28,32)/t21-/m0/s1

>  <InChI Key>  (257) 
WTIQMIRHJQIOAJ-NRFANRHFSA-N

>  <PERCENTSP3>  (257) 
29.2

>  <Link>  (257) 
https://www.chemdiv.com/catalog/screening-compounds/compound-IB07-8274/

>  <STEREO>  (257) 
RACEMIC MIXTURE

>  <State>  (257) 
Solid

>  <Similarity score>  (257) 
0.23

$$$$
5-[(2,4-difluorophenyl)methyl]-2-[2-(3,4-dihydroisoquinolin-2(1H)-yl)ethyl]tetra
     RDKit          2D

 31 35  0  0  0  0  0  0  0  0999 V2000
    0.3959    1.2711    0.0000 N   0  0  0  0  0  0  0  0  0  0  0  0
    1.9839    0.9335    0.0000 C   0  0  0  0  0  0  0  0  0  0  0  0
    1.4836    0.0708    0.0000 C   0  0  0  0  0  0  0  0  0  0  0  0
    1.3170    1.6836    0.0000 C   0  0  0  0  0  0  0  0  0  0  0  0
    0.5041    0.2749    0.0000 C   0  0  0  0  0  0  0  0  0  0  0  0
    3.0674   -0.2668    0.0000 N   0  0  0  0  0  0  0  0  0  0  0  0
    2.1546   -0.6752    0.0000 C   0  0  0  0  0  0  0  0  0  0  0  0
    2.9591    0.7251    0.0000 C   0  0  0  0  0  0  0  0  0  0  0  0
    3.9344   -1.7671    0.0000 C   0  0  0  0  0  0  0  0  0  0  0  0
   -0.4668    1.7712    0.0000 C   0  0  0  0  0  0  0  0  0  0  0  0
   -1.3295    3.2716    0.0000 N   0  0  0  0  0  0  0  0  0  0  0  0
    3.0674   -2.2672    0.0000 C   0  0  0  0  0  0  0  0  0  0  0  0
    3.9344   -0.7668    0.0000 C   0  0  0  0  0  0  0  0  0  0  0  0
    3.0674   -3.2676    0.0000 C   0  0  0  0  0  0  0  0  0  0  0  0
    1.5211    2.6589    0.0000 O   0  0  0  0  0  0  0  0  0  0  0  0
   -0.2418   -0.3917    0.0000 O   0  0  0  0  0  0  0  0  0  0  0  0
   -3.0674    3.2716    0.0000 C   0  0  0  0  0  0  0  0  0  0  0  0
   -2.1965    2.7715    0.0000 C   0  0  0  0  0  0  0  0  0  0  0  0
   -3.0674    4.2678    0.0000 C   0  0  0  0  0  0  0  0  0  0  0  0
    4.7971   -2.2672    0.0000 C   0  0  0  0  0  0  0  0  0  0  0  0
   -0.4668    2.7715    0.0000 C   0  0  0  0  0  0  0  0  0  0  0  0
   -2.1965    4.7679    0.0000 C   0  0  0  0  0  0  0  0  0  0  0  0
    3.9344   -3.7677    0.0000 C   0  0  0  0  0  0  0  0  0  0  0  0
   -1.3295    4.2678    0.0000 C   0  0  0  0  0  0  0  0  0  0  0  0
    2.1963   -1.7671    0.0000 F   0  0  0  0  0  0  0  0  0  0  0  0
    4.7971   -3.2676    0.0000 C   0  0  0  0  0  0  0  0  0  0  0  0
    3.9344   -4.7679    0.0000 F   0  0  0  0  0  0  0  0  0  0  0  0
   -3.9302    2.7715    0.0000 C   0  0  0  0  0  0  0  0  0  0  0  0
   -3.9302    4.7679    0.0000 C   0  0  0  0  0  0  0  0  0  0  0  0
   -4.7971    3.2716    0.0000 C   0  0  0  0  0  0  0  0  0  0  0  0
   -4.7971    4.2678    0.0000 C   0  0  0  0  0  0  0  0  0  0  0  0
  2  4  1  0
  2  8  1  1
  2  3  1  0
  3  5  1  0
  3  7  1  1
  1  4  1  0
  1  5  1  0
  6  7  1  0
  6  8  1  0
  9 13  1  0
  1 10  1  0
 11 21  1  0
  9 12  2  0
  6 13  1  0
 12 14  1  0
 14 23  2  0
  4 15  2  0
  5 16  2  0
 17 18  1  0
 17 19  2  0
 11 18  1  0
 19 22  1  0
  9 20  1  0
 10 21  1  0
 22 24  1  0
 23 26  1  0
 11 24  1  0
 12 25  1  0
 20 26  2  0
 23 27  1  0
 17 28  1  0
 19 29  1  0
 28 30  2  0
 29 31  2  0
 30 31  1  0
M  END
>  <IDNUMBER>  (258) 
S296-2536

>  <available>  (258) 
15

>  <H_acceptor>  (258) 
6

>  <H_donor>  (258) 
0

>  <B_rotN>  (258) 
5

>  <N_O>  (258) 
5

>  <logP>  (258) 
2.6041

>  <logD>  (258) 
1.956

>  <logSw>  (258) 
-2.8415

>  <PSA>  (258) 
37.079

>  <pKa_ma>  (258) 
18.9296

>  <pKa_mb>  (258) 
7.9375

>  <N_Chirals>  (258) 
0

>  <Name>  (258) 
5-[(2,4-difluorophenyl)methyl]-2-[2-(3,4-dihydroisoquinolin-2(1H)-yl)ethyl]tetrahydropyrrolo[3,4-c]pyrrole-1,3(2H,3aH)-dione

>  <Smile>  (258) 
O=C([C@H]1[C@@H]2CN(Cc(ccc(F)c3)c3F)C1)N(CCN(CC1)Cc3c1cccc3)C2=O

>  <Color>  (258) 
NOT COLORED

>  <Collection>  (258) 
IC

>  <InChI>  (258) 
InChI=1S/C24H25F2N3O2/c25-19-6-5-18(22(26)11-19)13-28-14-20-21(15-28)24(31)29(23(20)30)10-9-27-8-7-16-3-1-2-4-17(16)12-27/h1-6,11,20-21H,7-10,12-15H2/t20-,21+

>  <InChI Key>  (258) 
KTNNDSLMMJTHTF-OYRHEFFESA-N

>  <PERCENTSP3>  (258) 
41.7

>  <Link>  (258) 
https://www.chemdiv.com/catalog/screening-compounds/compound-S296-2536/

>  <CLNUMBER>  (258) 
CM2464

>  <STEREO>  (258) 
ACHIRAL

>  <State>  (258) 
Solid

>  <Similarity score>  (258) 
0.23

$$$$
N-{4-[3-(6-chloro-1,3,4,9-tetrahydro-2H-pyrido[3,4-b]indol-2-yl)-2,5-dioxopyrrol
     RDKit          2D

 31 35  0  0  0  0  0  0  0  0999 V2000
    1.6799   -0.1209    0.0000 N   0  0  0  0  0  0  0  0  0  0  0  0
    0.7044    0.0916    0.0000 C   0  0  0  0  0  0  0  0  0  0  0  0
    1.7881   -1.1213    0.0000 C   0  0  0  0  0  0  0  0  0  0  0  0
   -2.1842   -1.9173    0.0000 C   0  0  0  0  0  0  0  0  0  0  0  0
    0.2042   -0.7837    0.0000 C   0  0  0  0  0  0  0  0  0  0  0  0
   -2.7760   -1.1047    0.0000 C   0  0  0  0  0  0  0  0  0  0  0  0
    0.8753   -1.5214    0.0000 C   0  0  0  0  0  0  0  0  0  0  0  0
   -0.7835   -0.8920    0.0000 N   0  0  0  0  0  0  0  0  0  0  0  0
   -2.7760   -2.7345    0.0000 N   0  0  0  0  0  0  0  0  0  0  0  0
   -3.7347   -1.4215    0.0000 C   0  0  0  0  0  0  0  0  0  0  0  0
   -3.7347   -2.4219    0.0000 C   0  0  0  0  0  0  0  0  0  0  0  0
   -1.1838   -1.8091    0.0000 C   0  0  0  0  0  0  0  0  0  0  0  0
    2.4260    0.5461    0.0000 C   0  0  0  0  0  0  0  0  0  0  0  0
   -2.3718   -0.1710    0.0000 C   0  0  0  0  0  0  0  0  0  0  0  0
    0.3002    0.9921    0.0000 O   0  0  0  0  0  0  0  0  0  0  0  0
   -1.3755   -0.0708    0.0000 C   0  0  0  0  0  0  0  0  0  0  0  0
    2.6551   -1.6090    0.0000 O   0  0  0  0  0  0  0  0  0  0  0  0
    5.5897    2.2426    0.0000 C   0  0  0  0  0  0  0  0  0  0  0  0
   -4.6142   -0.9337    0.0000 C   0  0  0  0  0  0  0  0  0  0  0  0
    4.6393    2.5552    0.0000 N   0  0  0  0  0  0  0  0  0  0  0  0
   -4.6142   -2.9094    0.0000 C   0  0  0  0  0  0  0  0  0  0  0  0
    5.8022    1.2671    0.0000 O   0  0  0  0  0  0  0  0  0  0  0  0
    2.2133    1.5089    0.0000 C   0  0  0  0  0  0  0  0  0  0  0  0
    3.3680    0.2335    0.0000 C   0  0  0  0  0  0  0  0  0  0  0  0
    3.8932    1.8882    0.0000 C   0  0  0  0  0  0  0  0  0  0  0  0
   -5.4688   -1.4298    0.0000 C   0  0  0  0  0  0  0  0  0  0  0  0
   -5.4688   -2.4219    0.0000 C   0  0  0  0  0  0  0  0  0  0  0  0
    4.1059    0.9088    0.0000 C   0  0  0  0  0  0  0  0  0  0  0  0
    2.9428    2.1925    0.0000 C   0  0  0  0  0  0  0  0  0  0  0  0
   -6.3316   -0.9337    0.0000 Cl  0  0  0  0  0  0  0  0  0  0  0  0
    6.3316    2.9094    0.0000 C   0  0  0  0  0  0  0  0  0  0  0  0
  1  2  1  0
  1  3  1  0
  4 12  1  0
  4  6  2  0
  2  5  1  0
  6 14  1  0
  3  7  1  0
  5  7  1  0
  5  8  1  0
  4  9  1  0
  6 10  1  0
  9 11  1  0
 10 11  1  0
  8 12  1  0
  1 13  1  0
 14 16  1  0
  2 15  2  0
  8 16  1  0
  3 17  2  0
 18 20  1  0
 10 19  2  0
 20 25  1  0
 11 21  2  0
 18 22  2  0
 13 23  1  0
 13 24  2  0
 25 28  2  0
 25 29  1  0
 19 26  1  0
 21 27  1  0
 26 27  2  0
 24 28  1  0
 23 29  2  0
 26 30  1  0
 18 31  1  0
M  END
>  <IDNUMBER>  (259) 
Y021-7844

>  <available>  (259) 
17

>  <H_acceptor>  (259) 
7

>  <H_donor>  (259) 
2

>  <B_rotN>  (259) 
4

>  <N_O>  (259) 
7

>  <logP>  (259) 
1.552

>  <logD>  (259) 
1.552

>  <logSw>  (259) 
-2.753

>  <PSA>  (259) 
65.76

>  <pKa_ma>  (259) 
12.73

>  <pKa_mb>  (259) 
2.076

>  <N_Chirals>  (259) 
1

>  <Name>  (259) 
N-{4-[3-(6-chloro-1,3,4,9-tetrahydro-2H-pyrido[3,4-b]indol-2-yl)-2,5-dioxopyrrolidin-1-yl]phenyl}acetamide

>  <Smile>  (259) 
N1(C(C(CC1=O)N1Cc2c(c3c([nH]2)ccc(c3)Cl)CC1)=O)c1ccc(NC(=O)C)cc1

>  <Color>  (259) 
ORANGE

>  <Collection>  (259) 
DC

>  <InChI>  (259) 
InChI=1S/C23H21ClN4O3/c1-13(29)25-15-3-5-16(6-4-15)28-22(30)11-21(23(28)31)27-9-8-17-18-10-14(24)2-7-19(18)26-20(17)12-27/h2-7,10,21,26H,8-9,11-12H2,1H3,(H,25,29)/t21-/m0/s1

>  <InChI Key>  (259) 
QXVVLHIUIKGRPY-NRFANRHFSA-N

>  <PERCENTSP3>  (259) 
26.1

>  <Link>  (259) 
https://www.chemdiv.com/catalog/screening-compounds/compound-Y021-7844/

>  <MFCDNUMBER>  (259) 
MFCD12216143

>  <STEREO>  (259) 
RACEMIC MIXTURE

>  <State>  (259) 
Solid

>  <Similarity score>  (259) 
0.23

$$$$
2-[4-(4-cyano-1-propyl-6,7-dihydro-5H-cyclopenta[c]pyridin-3-yl)piperazin-1-yl]-
     RDKit          2D

 34 38  0  0  0  0  0  0  0  0999 V2000
   -1.8237   -1.2630    0.0000 C   0  0  0  0  0  0  0  0  0  0  0  0
   -2.6866   -0.7628    0.0000 C   0  0  0  0  0  0  0  0  0  0  0  0
   -1.8237   -2.2635    0.0000 N   0  0  0  0  0  0  0  0  0  0  0  0
   -3.5536   -1.2630    0.0000 C   0  0  0  0  0  0  0  0  0  0  0  0
   -0.9609   -0.7628    0.0000 N   0  0  0  0  0  0  0  0  0  0  0  0
   -2.6866   -2.7637    0.0000 C   0  0  0  0  0  0  0  0  0  0  0  0
   -3.5618   -2.2635    0.0000 C   0  0  0  0  0  0  0  0  0  0  0  0
   -2.6866    0.2375    0.0000 C   0  0  0  0  0  0  0  0  0  0  0  0
    2.5074    2.2510    0.0000 N   0  0  0  0  0  0  0  0  0  0  0  0
    1.6446    1.7508    0.0000 C   0  0  0  0  0  0  0  0  0  0  0  0
    2.5074    3.2681    0.0000 C   0  0  0  0  0  0  0  0  0  0  0  0
   -2.6866    1.2380    0.0000 N   0  0  0  0  0  0  0  0  0  0  0  0
    0.7817    0.2375    0.0000 N   0  0  0  0  0  0  0  0  0  0  0  0
    3.3702    3.7640    0.0000 C   0  0  0  0  0  0  0  0  0  0  0  0
   -0.0981   -1.2630    0.0000 C   0  0  0  0  0  0  0  0  0  0  0  0
   -0.9609    0.2375    0.0000 C   0  0  0  0  0  0  0  0  0  0  0  0
    1.6446    0.7503    0.0000 C   0  0  0  0  0  0  0  0  0  0  0  0
    0.7817    2.2510    0.0000 O   0  0  0  0  0  0  0  0  0  0  0  0
    0.7817   -0.7628    0.0000 C   0  0  0  0  0  0  0  0  0  0  0  0
   -0.0981    0.7378    0.0000 C   0  0  0  0  0  0  0  0  0  0  0  0
    3.3702    4.7602    0.0000 C   0  0  0  0  0  0  0  0  0  0  0  0
   -4.4998   -0.9462    0.0000 C   0  0  0  0  0  0  0  0  0  0  0  0
   -4.5166   -2.5635    0.0000 C   0  0  0  0  0  0  0  0  0  0  0  0
    1.6446    3.7640    0.0000 C   0  0  0  0  0  0  0  0  0  0  0  0
   -2.6866   -3.7599    0.0000 C   0  0  0  0  0  0  0  0  0  0  0  0
   -5.0959   -1.7590    0.0000 C   0  0  0  0  0  0  0  0  0  0  0  0
    1.6446    4.7602    0.0000 C   0  0  0  0  0  0  0  0  0  0  0  0
    4.2330    3.2681    0.0000 C   0  0  0  0  0  0  0  0  0  0  0  0
    2.5074    5.2605    0.0000 C   0  0  0  0  0  0  0  0  0  0  0  0
    4.2330    5.2605    0.0000 C   0  0  0  0  0  0  0  0  0  0  0  0
   -3.5618   -4.2600    0.0000 C   0  0  0  0  0  0  0  0  0  0  0  0
    5.0959    3.7640    0.0000 C   0  0  0  0  0  0  0  0  0  0  0  0
   -3.5618   -5.2605    0.0000 C   0  0  0  0  0  0  0  0  0  0  0  0
    5.0959    4.7602    0.0000 C   0  0  0  0  0  0  0  0  0  0  0  0
  1  2  2  0
  1  3  1  0
  2  4  1  0
  1  5  1  0
  3  6  2  0
  6  7  1  0
  4  7  2  0
  2  8  1  0
  9 10  1  0
 10 17  1  0
  9 11  1  0
  8 12  3  0
 13 20  1  0
 11 14  2  0
  5 15  1  0
  5 16  1  0
 13 17  1  0
 10 18  2  0
 15 19  1  0
 13 19  1  0
 16 20  1  0
 14 21  1  0
 21 29  2  0
  4 22  1  0
  7 23  1  0
 11 24  1  0
  6 25  1  0
 22 26  1  0
 23 26  1  0
 24 27  2  0
 14 28  1  0
 27 29  1  0
 21 30  1  0
 25 31  1  0
 28 32  2  0
 31 33  1  0
 32 34  1  0
 30 34  2  0
M  END
>  <IDNUMBER>  (260) 
IB03-5462

>  <available>  (260) 
50

>  <H_acceptor>  (260) 
5

>  <H_donor>  (260) 
1

>  <B_rotN>  (260) 
8

>  <N_O>  (260) 
6

>  <logP>  (260) 
5.47

>  <logD>  (260) 
5.41

>  <logSw>  (260) 
-6.16

>  <PSA>  (260) 
90.12

>  <pKa_ma>  (260) 
11.87

>  <pKa_mb>  (260) 
6.57

>  <N_Chirals>  (260) 
0

>  <Name>  (260) 
2-[4-(4-cyano-1-propyl-6,7-dihydro-5H-cyclopenta[c]pyridin-3-yl)piperazin-1-yl]-N-(naphthalen-1-yl)acetamide

>  <Smile>  (260) 
CCCc(nc1N2CCN(CC(Nc3cccc4ccccc34)=O)CC2)c(CCC2)c2c1C#N

>  <Color>  (260) 
NOT COLORED

>  <Collection>  (260) 
DC

>  <InChI>  (260) 
InChI=1S/C28H31N5O/c1-2-7-25-23-12-6-11-22(23)24(18-29)28(31-25)33-16-14-32(15-17-33)19-27(34)30-26-13-5-9-20-8-3-4-10-21(20)26/h3-5,8-10,13H,2,6-7,11-12,14-17,19H2,1H3,(H,30,34)

>  <InChI Key>  (260) 
BECRNERIIXOMQG-UHFFFAOYSA-N

>  <PERCENTSP3>  (260) 
39.3

>  <Link>  (260) 
https://www.chemdiv.com/catalog/screening-compounds/compound-IB03-5462/

>  <STEREO>  (260) 
ACHIRAL

>  <State>  (260) 
Solid

>  <Similarity score>  (260) 
0.23

$$$$
3-(6-fluoro-1,3,4,5-tetrahydro-2H-pyrido[4,3-b]indol-2-yl)-1-(4-methoxyphenyl)py
     RDKit          2D

 29 33  0  0  0  0  0  0  0  0999 V2000
    1.4309    0.3061    0.0000 N   0  0  0  0  0  0  0  0  0  0  0  0
    0.7976   -0.4647    0.0000 C   0  0  0  0  0  0  0  0  0  0  0  0
   -2.7222   -0.5937    0.0000 C   0  0  0  0  0  0  0  0  0  0  0  0
    0.8894    1.1519    0.0000 C   0  0  0  0  0  0  0  0  0  0  0  0
   -3.6719   -1.8974    0.0000 N   0  0  0  0  0  0  0  0  0  0  0  0
   -0.1396   -0.0938    0.0000 C   0  0  0  0  0  0  0  0  0  0  0  0
   -2.7222   -1.5934    0.0000 C   0  0  0  0  0  0  0  0  0  0  0  0
   -0.9978   -0.5937    0.0000 N   0  0  0  0  0  0  0  0  0  0  0  0
   -0.0772    0.8978    0.0000 C   0  0  0  0  0  0  0  0  0  0  0  0
   -4.2510   -1.0977    0.0000 C   0  0  0  0  0  0  0  0  0  0  0  0
   -3.6719   -0.2811    0.0000 C   0  0  0  0  0  0  0  0  0  0  0  0
   -1.8600   -0.0938    0.0000 C   0  0  0  0  0  0  0  0  0  0  0  0
    2.4264    0.2062    0.0000 C   0  0  0  0  0  0  0  0  0  0  0  0
   -1.8600   -2.0891    0.0000 C   0  0  0  0  0  0  0  0  0  0  0  0
    1.0561   -1.4309    0.0000 O   0  0  0  0  0  0  0  0  0  0  0  0
   -0.9978   -1.5934    0.0000 C   0  0  0  0  0  0  0  0  0  0  0  0
    1.2517    2.0891    0.0000 O   0  0  0  0  0  0  0  0  0  0  0  0
   -5.2508   -0.9936    0.0000 C   0  0  0  0  0  0  0  0  0  0  0  0
    2.8387   -0.7062    0.0000 C   0  0  0  0  0  0  0  0  0  0  0  0
    3.0055    1.0186    0.0000 C   0  0  0  0  0  0  0  0  0  0  0  0
   -5.8380   -1.8100    0.0000 F   0  0  0  0  0  0  0  0  0  0  0  0
    4.4176    0.0060    0.0000 C   0  0  0  0  0  0  0  0  0  0  0  0
   -4.0802    0.6311    0.0000 C   0  0  0  0  0  0  0  0  0  0  0  0
    4.0009    0.9186    0.0000 C   0  0  0  0  0  0  0  0  0  0  0  0
    3.8343   -0.8102    0.0000 C   0  0  0  0  0  0  0  0  0  0  0  0
    5.4173   -0.0854    0.0000 O   0  0  0  0  0  0  0  0  0  0  0  0
   -5.0800    0.7310    0.0000 C   0  0  0  0  0  0  0  0  0  0  0  0
   -5.6673   -0.0854    0.0000 C   0  0  0  0  0  0  0  0  0  0  0  0
    5.8380   -0.9936    0.0000 C   0  0  0  0  0  0  0  0  0  0  0  0
  1  2  1  0
  3 12  1  0
  1  4  1  0
  5  7  1  0
  5 10  1  0
  2  6  1  0
  6  9  1  0
  7 14  1  0
  3  7  2  0
  6  8  1  0
  4  9  1  0
 10 11  2  0
  3 11  1  0
  8 12  1  0
  1 13  1  0
 14 16  1  0
  2 15  2  0
  8 16  1  0
  4 17  2  0
 10 18  1  0
 18 28  2  0
 13 19  2  0
 13 20  1  0
 18 21  1  0
 22 24  1  0
 22 25  2  0
 11 23  1  0
 20 24  2  0
 19 25  1  0
 22 26  1  0
 23 27  2  0
 27 28  1  0
 26 29  1  0
M  END
>  <IDNUMBER>  (261) 
IB04-1383

>  <available>  (261) 
50

>  <H_acceptor>  (261) 
6

>  <H_donor>  (261) 
1

>  <B_rotN>  (261) 
3

>  <N_O>  (261) 
6

>  <logP>  (261) 
2.11

>  <logD>  (261) 
2.11

>  <logSw>  (261) 
-3.01

>  <PSA>  (261) 
102.16

>  <pKa_ma>  (261) 
14

>  <pKa_mb>  (261) 
3.72

>  <N_Chirals>  (261) 
1

>  <Name>  (261) 
3-(6-fluoro-1,3,4,5-tetrahydro-2H-pyrido[4,3-b]indol-2-yl)-1-(4-methoxyphenyl)pyrrolidine-2,5-dione

>  <Smile>  (261) 
COc(cc1)ccc1N(C(CC1N(CC2)Cc(c3ccc4)c2[nH]c3c4F)=O)C1=O

>  <Color>  (261) 
NOT COLORED

>  <Collection>  (261) 
DC

>  <InChI>  (261) 
InChI=1S/C22H20FN3O3/c1-29-14-7-5-13(6-8-14)26-20(27)11-19(22(26)28)25-10-9-18-16(12-25)15-3-2-4-17(23)21(15)24-18/h2-8,19,24H,9-12H2,1H3/t19-/m0/s1

>  <InChI Key>  (261) 
WIMFBTHODGJQIA-IBGZPJMESA-N

>  <PERCENTSP3>  (261) 
27.3

>  <Link>  (261) 
https://www.chemdiv.com/catalog/screening-compounds/compound-IB04-1383/

>  <STEREO>  (261) 
RACEMIC MIXTURE

>  <State>  (261) 
Solid

>  <Similarity score>  (261) 
0.23

$$$$
N-(3-fluoro-4-methoxyphenyl)-2-(4-fluorophenyl)-4-oxo-4,5,6,7,8,9-hexahydro-3H-c
     RDKit          2D

 31 34  0  0  0  0  0  0  0  0999 V2000
    0.0415    0.4665    0.0000 C   0  0  0  0  0  0  0  0  0  0  0  0
   -1.6914    0.4333    0.0000 N   0  0  0  0  0  0  0  0  0  0  0  0
   -0.8457    1.9540    0.0000 N   0  0  0  0  0  0  0  0  0  0  0  0
    0.0209    1.4790    0.0000 C   0  0  0  0  0  0  0  0  0  0  0  0
   -1.7165    1.4416    0.0000 C   0  0  0  0  0  0  0  0  0  0  0  0
   -0.8164   -0.0540    0.0000 C   0  0  0  0  0  0  0  0  0  0  0  0
    1.2540   -2.5453    0.0000 C   0  0  0  0  0  0  0  0  0  0  0  0
    2.2539   -2.5453    0.0000 N   0  0  0  0  0  0  0  0  0  0  0  0
    0.9832    0.1292    0.0000 C   0  0  0  0  0  0  0  0  0  0  0  0
   -2.5954    1.9164    0.0000 C   0  0  0  0  0  0  0  0  0  0  0  0
    4.2328   -0.8331    0.0000 C   0  0  0  0  0  0  0  0  0  0  0  0
    3.7454   -1.6831    0.0000 C   0  0  0  0  0  0  0  0  0  0  0  0
    2.7581   -1.6831    0.0000 C   0  0  0  0  0  0  0  0  0  0  0  0
    0.8707    2.0289    0.0000 O   0  0  0  0  0  0  0  0  0  0  0  0
    0.7540   -1.6705    0.0000 C   0  0  0  0  0  0  0  0  0  0  0  0
   -0.9289   -1.0414    0.0000 C   0  0  0  0  0  0  0  0  0  0  0  0
    3.7411    0.0209    0.0000 C   0  0  0  0  0  0  0  0  0  0  0  0
    0.7582   -3.4162    0.0000 O   0  0  0  0  0  0  0  0  0  0  0  0
    1.2957   -0.8207    0.0000 C   0  0  0  0  0  0  0  0  0  0  0  0
   -0.2289   -1.7582    0.0000 C   0  0  0  0  0  0  0  0  0  0  0  0
   -3.4537    1.4040    0.0000 C   0  0  0  0  0  0  0  0  0  0  0  0
   -2.6165    2.9288    0.0000 C   0  0  0  0  0  0  0  0  0  0  0  0
    2.7581    0.0291    0.0000 C   0  0  0  0  0  0  0  0  0  0  0  0
    5.2326   -0.8290    0.0000 F   0  0  0  0  0  0  0  0  0  0  0  0
    2.2580   -0.8290    0.0000 C   0  0  0  0  0  0  0  0  0  0  0  0
   -4.3535    2.8954    0.0000 C   0  0  0  0  0  0  0  0  0  0  0  0
   -4.3411    1.8790    0.0000 C   0  0  0  0  0  0  0  0  0  0  0  0
   -3.4911    3.4162    0.0000 C   0  0  0  0  0  0  0  0  0  0  0  0
   -5.2326    3.3786    0.0000 F   0  0  0  0  0  0  0  0  0  0  0  0
    4.2410    0.8958    0.0000 O   0  0  0  0  0  0  0  0  0  0  0  0
    5.2326    0.9083    0.0000 C   0  0  0  0  0  0  0  0  0  0  0  0
  2  6  1  0
  3  4  1  0
  1  4  1  0
  2  5  2  0
  3  5  1  0
  1  6  2  0
  7 15  1  0
  7  8  1  0
  1  9  1  0
  5 10  1  0
 11 12  1  0
 11 17  2  0
 12 13  2  0
  8 13  1  0
  4 14  2  0
 15 19  1  0
  6 16  1  0
 17 23  1  0
  7 18  2  0
  9 19  1  0
 16 20  1  0
 15 20  1  0
 10 21  1  0
 10 22  2  0
 23 25  2  0
 11 24  1  0
 13 25  1  0
 26 28  2  0
 26 27  1  0
 21 27  2  0
 22 28  1  0
 26 29  1  0
 17 30  1  0
 30 31  1  0
M  END
>  <IDNUMBER>  (262) 
SB25-1067

>  <available>  (262) 
58

>  <H_acceptor>  (262) 
6

>  <H_donor>  (262) 
2

>  <B_rotN>  (262) 
5

>  <N_O>  (262) 
6

>  <logP>  (262) 
3.1619

>  <logD>  (262) 
2.0805

>  <logSw>  (262) 
-3.387

>  <PSA>  (262) 
65.914

>  <pKa_ma>  (262) 
6.3562

>  <pKa_mb>  (262) 
2.9607

>  <N_Chirals>  (262) 
1

>  <Name>  (262) 
N-(3-fluoro-4-methoxyphenyl)-2-(4-fluorophenyl)-4-oxo-4,5,6,7,8,9-hexahydro-3H-cyclohepta[d]pyrimidine-7-carboxamide

>  <Smile>  (262) 
COc(ccc(NC(C(CC1)CCC(N=C(c(cc2)ccc2F)N2)=C1C2=O)=O)c1)c1F

>  <Color>  (262) 
NOT COLORED

>  <Collection>  (262) 
IC

>  <InChI>  (262) 
InChI=1S/C23H21F2N3O3/c1-31-20-11-8-16(12-18(20)25)26-22(29)14-4-9-17-19(10-5-14)27-21(28-23(17)30)13-2-6-15(24)7-3-13/h2-3,6-8,11-12,14H,4-5,9-10H2,1H3,(H,26,29)(H,27,28,30)/t14-/m0/s1

>  <InChI Key>  (262) 
XQRHYXOOSVQXKC-AWEZNQCLSA-N

>  <PERCENTSP3>  (262) 
26.09

>  <Link>  (262) 
https://www.chemdiv.com/catalog/screening-compounds/compound-SB25-1067/

>  <MFCDNUMBER>  (262) 
MFCD32246931

>  <CLNUMBER>  (262) 
CM3995

>  <STEREO>  (262) 
RACEMIC MIXTURE

>  <State>  (262) 
Solid

>  <Similarity score>  (262) 
0.23

$$$$
N-(2,5-dimethylphenyl)-2-(9-fluoro-6-methyl-10-oxo-3,4,5,10-tetrahydrobenzo[b][1
     RDKit          2D

 29 32  0  0  0  0  0  0  0  0999 V2000
   -0.8899   -1.2158    0.0000 C   0  0  0  0  0  0  0  0  0  0  0  0
   -1.7641   -0.7207    0.0000 C   0  0  0  0  0  0  0  0  0  0  0  0
   -2.6443   -1.2158    0.0000 C   0  0  0  0  0  0  0  0  0  0  0  0
   -1.7798   -2.6946    0.0000 N   0  0  0  0  0  0  0  0  0  0  0  0
   -2.6443   -2.2026    0.0000 C   0  0  0  0  0  0  0  0  0  0  0  0
   -0.8899   -2.2119    0.0000 C   0  0  0  0  0  0  0  0  0  0  0  0
    0.8805   -1.2158    0.0000 N   0  0  0  0  0  0  0  0  0  0  0  0
    0.0063   -0.7301    0.0000 C   0  0  0  0  0  0  0  0  0  0  0  0
    2.6664    1.7138    0.0000 C   0  0  0  0  0  0  0  0  0  0  0  0
    2.6664    0.7301    0.0000 N   0  0  0  0  0  0  0  0  0  0  0  0
    1.7704    0.2477    0.0000 C   0  0  0  0  0  0  0  0  0  0  0  0
   -3.5375   -0.7301    0.0000 C   0  0  0  0  0  0  0  0  0  0  0  0
   -0.0124   -2.6946    0.0000 C   0  0  0  0  0  0  0  0  0  0  0  0
   -3.5375   -2.6852    0.0000 C   0  0  0  0  0  0  0  0  0  0  0  0
   -1.7641    0.2664    0.0000 O   0  0  0  0  0  0  0  0  0  0  0  0
    1.7704   -0.7301    0.0000 C   0  0  0  0  0  0  0  0  0  0  0  0
    3.5499    2.1935    0.0000 C   0  0  0  0  0  0  0  0  0  0  0  0
    1.7798    2.1935    0.0000 C   0  0  0  0  0  0  0  0  0  0  0  0
    0.8805    0.7301    0.0000 O   0  0  0  0  0  0  0  0  0  0  0  0
    0.8805   -2.2119    0.0000 C   0  0  0  0  0  0  0  0  0  0  0  0
   -4.4054   -1.2158    0.0000 C   0  0  0  0  0  0  0  0  0  0  0  0
   -4.4054   -2.2026    0.0000 C   0  0  0  0  0  0  0  0  0  0  0  0
    3.5499    3.1709    0.0000 C   0  0  0  0  0  0  0  0  0  0  0  0
    1.7798    3.1709    0.0000 C   0  0  0  0  0  0  0  0  0  0  0  0
   -3.5375    0.2664    0.0000 F   0  0  0  0  0  0  0  0  0  0  0  0
    2.6664    3.6596    0.0000 C   0  0  0  0  0  0  0  0  0  0  0  0
   -3.5375   -3.6815    0.0000 C   0  0  0  0  0  0  0  0  0  0  0  0
    4.4054    1.7045    0.0000 C   0  0  0  0  0  0  0  0  0  0  0  0
    0.9243    3.6815    0.0000 C   0  0  0  0  0  0  0  0  0  0  0  0
  1  2  1  0
  2  3  1  0
  3  5  1  0
  4  6  1  0
  4  5  1  0
  1  6  2  0
  7  8  1  0
  1  8  1  0
  9 10  1  0
 10 11  1  0
 11 16  1  0
  3 12  2  0
  6 13  1  0
 13 20  1  0
  5 14  2  0
  2 15  2  0
  7 16  1  0
  9 17  1  0
  9 18  2  0
 11 19  2  0
  7 20  1  0
 12 21  1  0
 21 22  2  0
 14 22  1  0
 17 23  2  0
 23 26  1  0
 18 24  1  0
 12 25  1  0
 24 26  2  0
 14 27  1  0
 17 28  1  0
 24 29  1  0
M  END
>  <IDNUMBER>  (263) 
L489-1902

>  <available>  (263) 
107

>  <H_acceptor>  (263) 
5

>  <H_donor>  (263) 
2

>  <B_rotN>  (263) 
4

>  <N_O>  (263) 
5

>  <logP>  (263) 
3.6404

>  <logD>  (263) 
2.7434

>  <logSw>  (263) 
-4.0285

>  <PSA>  (263) 
48.113

>  <pKa_ma>  (263) 
6.5619

>  <pKa_mb>  (263) 
2.0062

>  <N_Chirals>  (263) 
0

>  <Name>  (263) 
N-(2,5-dimethylphenyl)-2-(9-fluoro-6-methyl-10-oxo-3,4,5,10-tetrahydrobenzo[b][1,6]naphthyridin-2(1H)-yl)acetamide

>  <Smile>  (263) 
Cc1cc(NC(CN(CC2)CC3=C2Nc2c(C)ccc(F)c2C3=O)=O)c(C)cc1

>  <Color>  (263) 
NOT COLORED

>  <Collection>  (263) 
NC

>  <InChI>  (263) 
InChI=1S/C23H24FN3O2/c1-13-4-5-14(2)19(10-13)25-20(28)12-27-9-8-18-16(11-27)23(29)21-17(24)7-6-15(3)22(21)26-18/h4-7,10H,8-9,11-12H2,1-3H3,(H,25,28)(H,26,29)

>  <InChI Key>  (263) 
ZQQJMXRMCSQNEN-UHFFFAOYSA-N

>  <PERCENTSP3>  (263) 
30.4

>  <Link>  (263) 
https://www.chemdiv.com/catalog/screening-compounds/compound-L489-1902/

>  <MFCDNUMBER>  (263) 
MFCD27457668

>  <CLNUMBER>  (263) 
CL8213A

>  <STEREO>  (263) 
ACHIRAL

>  <State>  (263) 
Solid

>  <Similarity score>  (263) 
0.23

$$$$
1-(3-chloro-4-fluorophenyl)-3-(6-methoxy-1,3,4,9-tetrahydro-2H-pyrido[3,4-b]indo
     RDKit          2D

 30 34  0  0  0  0  0  0  0  0999 V2000
    2.3190    0.0562    0.0000 N   0  0  0  0  0  0  0  0  0  0  0  0
    1.3440    0.2687    0.0000 C   0  0  0  0  0  0  0  0  0  0  0  0
    2.4273   -0.9271    0.0000 C   0  0  0  0  0  0  0  0  0  0  0  0
   -1.5438   -1.7355    0.0000 C   0  0  0  0  0  0  0  0  0  0  0  0
    0.8438   -0.6022    0.0000 C   0  0  0  0  0  0  0  0  0  0  0  0
   -2.1357   -0.9189    0.0000 C   0  0  0  0  0  0  0  0  0  0  0  0
    1.5147   -1.3314    0.0000 C   0  0  0  0  0  0  0  0  0  0  0  0
   -0.1397   -0.6938    0.0000 N   0  0  0  0  0  0  0  0  0  0  0  0
   -2.1357   -2.5398    0.0000 N   0  0  0  0  0  0  0  0  0  0  0  0
    3.0649    0.7273    0.0000 C   0  0  0  0  0  0  0  0  0  0  0  0
   -3.0941   -1.2396    0.0000 C   0  0  0  0  0  0  0  0  0  0  0  0
   -3.0941   -2.2439    0.0000 C   0  0  0  0  0  0  0  0  0  0  0  0
   -0.5438   -1.6273    0.0000 C   0  0  0  0  0  0  0  0  0  0  0  0
    4.0025    0.4189    0.0000 C   0  0  0  0  0  0  0  0  0  0  0  0
   -1.7357    0.0062    0.0000 C   0  0  0  0  0  0  0  0  0  0  0  0
    4.7482    1.0897    0.0000 C   0  0  0  0  0  0  0  0  0  0  0  0
    0.9395    1.1730    0.0000 O   0  0  0  0  0  0  0  0  0  0  0  0
   -0.7354    0.1148    0.0000 C   0  0  0  0  0  0  0  0  0  0  0  0
    3.2980   -1.4273    0.0000 O   0  0  0  0  0  0  0  0  0  0  0  0
   -3.9608   -0.7354    0.0000 C   0  0  0  0  0  0  0  0  0  0  0  0
    2.8524    1.7065    0.0000 C   0  0  0  0  0  0  0  0  0  0  0  0
    4.5358    2.0649    0.0000 C   0  0  0  0  0  0  0  0  0  0  0  0
   -3.9608   -2.7314    0.0000 C   0  0  0  0  0  0  0  0  0  0  0  0
    3.5816    2.3690    0.0000 C   0  0  0  0  0  0  0  0  0  0  0  0
   -4.8274   -1.2396    0.0000 C   0  0  0  0  0  0  0  0  0  0  0  0
    5.6942    0.7773    0.0000 Cl  0  0  0  0  0  0  0  0  0  0  0  0
    5.2774    2.7314    0.0000 F   0  0  0  0  0  0  0  0  0  0  0  0
   -4.8274   -2.2439    0.0000 C   0  0  0  0  0  0  0  0  0  0  0  0
   -5.6942   -0.7354    0.0000 O   0  0  0  0  0  0  0  0  0  0  0  0
   -5.6942    0.2605    0.0000 C   0  0  0  0  0  0  0  0  0  0  0  0
  1  2  1  0
  1  3  1  0
  4 13  1  0
  2  5  1  0
  5  7  1  0
  6 15  1  0
  4  6  2  0
  3  7  1  0
  5  8  1  0
  4  9  1  0
  1 10  1  0
  6 11  1  0
 11 12  1  0
  9 12  1  0
  8 13  1  0
 10 14  2  0
 15 18  1  0
 14 16  1  0
 16 22  2  0
  2 17  2  0
  8 18  1  0
  3 19  2  0
 11 20  2  0
 10 21  1  0
 22 24  1  0
 12 23  2  0
 21 24  2  0
 20 25  1  0
 25 28  2  0
 16 26  1  0
 22 27  1  0
 23 28  1  0
 25 29  1  0
 29 30  1  0
M  END
>  <IDNUMBER>  (264) 
Y020-3922

>  <available>  (264) 
14

>  <H_acceptor>  (264) 
6

>  <H_donor>  (264) 
1

>  <B_rotN>  (264) 
3

>  <N_O>  (264) 
6

>  <logP>  (264) 
2.2933

>  <logD>  (264) 
2.2933

>  <logSw>  (264) 
-3.3929

>  <PSA>  (264) 
50.043

>  <pKa_ma>  (264) 
15.3072

>  <pKa_mb>  (264) 
2.076

>  <N_Chirals>  (264) 
1

>  <Name>  (264) 
1-(3-chloro-4-fluorophenyl)-3-(6-methoxy-1,3,4,9-tetrahydro-2H-pyrido[3,4-b]indol-2-yl)pyrrolidine-2,5-dione

>  <Smile>  (264) 
COc(cc1)cc2c1[nH]c(C1)c2CCN1C(CC(N1c(cc2)cc(Cl)c2F)=O)C1=O

>  <Color>  (264) 
NOT COLORED

>  <Collection>  (264) 
DC

>  <InChI>  (264) 
InChI=1S/C22H19ClFN3O3/c1-30-13-3-5-18-15(9-13)14-6-7-26(11-19(14)25-18)20-10-21(28)27(22(20)29)12-2-4-17(24)16(23)8-12/h2-5,8-9,20,25H,6-7,10-11H2,1H3/t20-/m1/s1

>  <InChI Key>  (264) 
WCEUJLYEPYEUSC-HXUWFJFHSA-N

>  <PERCENTSP3>  (264) 
27.3

>  <Link>  (264) 
https://www.chemdiv.com/catalog/screening-compounds/compound-Y020-3922/

>  <MFCDNUMBER>  (264) 
MFCD13757799

>  <CLNUMBER>  (264) 
CL2165

>  <STEREO>  (264) 
RACEMIC MIXTURE

>  <State>  (264) 
Solid

>  <Similarity score>  (264) 
0.23

$$$$
7-[(3-bromo-4-fluorophenyl)methyl]-2-(morpholin-4-yl)-3,5,6,7,8,9-hexahydro-4H-p
     RDKit          2D

 27 30  0  0  0  0  0  0  0  0999 V2000
    2.6727   -0.3792    0.0000 C   0  0  0  0  0  0  0  0  0  0  0  0
    2.4596    0.5984    0.0000 N   0  0  0  0  0  0  0  0  0  0  0  0
    0.7646    0.2066    0.0000 C   0  0  0  0  0  0  0  0  0  0  0  0
    1.9396   -1.0561    0.0000 N   0  0  0  0  0  0  0  0  0  0  0  0
    1.4976    0.8929    0.0000 C   0  0  0  0  0  0  0  0  0  0  0  0
    0.9838   -0.7710    0.0000 C   0  0  0  0  0  0  0  0  0  0  0  0
    3.6347   -0.6705    0.0000 N   0  0  0  0  0  0  0  0  0  0  0  0
   -0.1348    0.6390    0.0000 C   0  0  0  0  0  0  0  0  0  0  0  0
   -1.2627   -0.7710    0.0000 N   0  0  0  0  0  0  0  0  0  0  0  0
    0.3634   -1.5449    0.0000 C   0  0  0  0  0  0  0  0  0  0  0  0
   -4.5714    0.2506    0.0000 C   0  0  0  0  0  0  0  0  0  0  0  0
    1.2752    1.8580    0.0000 O   0  0  0  0  0  0  0  0  0  0  0  0
   -4.2707    1.2030    0.0000 C   0  0  0  0  0  0  0  0  0  0  0  0
   -3.8945   -0.4827    0.0000 C   0  0  0  0  0  0  0  0  0  0  0  0
   -2.9172   -0.2569    0.0000 C   0  0  0  0  0  0  0  0  0  0  0  0
   -2.2403   -0.9903    0.0000 C   0  0  0  0  0  0  0  0  0  0  0  0
   -1.0310    0.2066    0.0000 C   0  0  0  0  0  0  0  0  0  0  0  0
   -0.6329   -1.5449    0.0000 C   0  0  0  0  0  0  0  0  0  0  0  0
    5.5428   -1.2691    0.0000 O   0  0  0  0  0  0  0  0  0  0  0  0
   -3.2931    1.4382    0.0000 C   0  0  0  0  0  0  0  0  0  0  0  0
   -5.5428    0.0282    0.0000 Br  0  0  0  0  0  0  0  0  0  0  0  0
   -2.6162    0.7048    0.0000 C   0  0  0  0  0  0  0  0  0  0  0  0
   -4.9570    1.9457    0.0000 F   0  0  0  0  0  0  0  0  0  0  0  0
    3.8602   -1.6450    0.0000 C   0  0  0  0  0  0  0  0  0  0  0  0
    4.3677    0.0061    0.0000 C   0  0  0  0  0  0  0  0  0  0  0  0
    5.3235   -0.2915    0.0000 C   0  0  0  0  0  0  0  0  0  0  0  0
    4.8098   -1.9457    0.0000 C   0  0  0  0  0  0  0  0  0  0  0  0
  1  2  1  0
  3  6  2  0
  3  5  1  0
  1  4  2  0
  2  5  1  0
  4  6  1  0
  1  7  1  0
  3  8  1  0
  9 18  1  0
  9 17  1  0
  6 10  1  0
 11 14  1  0
 11 13  2  0
  5 12  2  0
 13 20  1  0
 14 15  2  0
 15 16  1  0
  9 16  1  0
  8 17  1  0
 10 18  1  0
 19 26  1  0
 19 27  1  0
 20 22  2  0
 11 21  1  0
 15 22  1  0
 13 23  1  0
  7 24  1  0
  7 25  1  0
 25 26  1  0
 24 27  1  0
M  END
>  <IDNUMBER>  (265) 
S039-3136

>  <available>  (265) 
20

>  <H_acceptor>  (265) 
5

>  <H_donor>  (265) 
1

>  <B_rotN>  (265) 
3

>  <N_O>  (265) 
6

>  <logP>  (265) 
2.0685

>  <logD>  (265) 
1.7938

>  <logSw>  (265) 
-2.9586

>  <PSA>  (265) 
49.708

>  <pKa_ma>  (265) 
9.6889

>  <pKa_mb>  (265) 
7.3409

>  <N_Chirals>  (265) 
0

>  <Name>  (265) 
7-[(3-bromo-4-fluorophenyl)methyl]-2-(morpholin-4-yl)-3,5,6,7,8,9-hexahydro-4H-pyrimido[4,5-d]azepin-4-one

>  <Smile>  (265) 
O=C1NC(N2CCOCC2)=NC2=C1CCN(Cc(cc1)cc(Br)c1F)CC2

>  <Color>  (265) 
NOT COLORED

>  <Collection>  (265) 
IC

>  <InChI>  (265) 
InChI=1S/C19H22BrFN4O2/c20-15-11-13(1-2-16(15)21)12-24-5-3-14-17(4-6-24)22-19(23-18(14)26)25-7-9-27-10-8-25/h1-2,11H,3-10,12H2,(H,22,23,26)

>  <InChI Key>  (265) 
URAPPDKXMXISOQ-UHFFFAOYSA-N

>  <PERCENTSP3>  (265) 
47.4

>  <Link>  (265) 
https://www.chemdiv.com/catalog/screening-compounds/compound-S039-3136/

>  <MFCDNUMBER>  (265) 
MFCD28999076

>  <CLNUMBER>  (265) 
CM2417

>  <STEREO>  (265) 
ACHIRAL

>  <State>  (265) 
Solid

>  <Similarity score>  (265) 
0.23

$$$$
2-(4-methoxyphenyl)-4-(4-methylpiperazin-1-yl)-5,6,8,9-tetrahydrooxepino[4,5-d]p
     RDKit          2D

 26 29  0  0  0  0  0  0  0  0999 V2000
   -0.3868    1.8344    0.0000 C   0  0  0  0  0  0  0  0  0  0  0  0
   -0.4620    0.8380    0.0000 N   0  0  0  0  0  0  0  0  0  0  0  0
   -1.2046    2.3981    0.0000 C   0  0  0  0  0  0  0  0  0  0  0  0
   -1.3550    0.4087    0.0000 C   0  0  0  0  0  0  0  0  0  0  0  0
   -2.1759    0.9635    0.0000 N   0  0  0  0  0  0  0  0  0  0  0  0
    0.5217    2.2668    0.0000 N   0  0  0  0  0  0  0  0  0  0  0  0
   -2.1006    1.9597    0.0000 C   0  0  0  0  0  0  0  0  0  0  0  0
    2.3201    3.1408    0.0000 N   0  0  0  0  0  0  0  0  0  0  0  0
   -1.4302   -0.5968    0.0000 C   0  0  0  0  0  0  0  0  0  0  0  0
    0.5969    3.2723    0.0000 C   0  0  0  0  0  0  0  0  0  0  0  0
    1.3519    1.7027    0.0000 C   0  0  0  0  0  0  0  0  0  0  0  0
   -2.6082    4.1497    0.0000 O   0  0  0  0  0  0  0  0  0  0  0  0
   -2.3325   -1.0291    0.0000 C   0  0  0  0  0  0  0  0  0  0  0  0
   -0.6062   -1.1609    0.0000 C   0  0  0  0  0  0  0  0  0  0  0  0
    1.5023    3.7049    0.0000 C   0  0  0  0  0  0  0  0  0  0  0  0
    2.2448    2.1446    0.0000 C   0  0  0  0  0  0  0  0  0  0  0  0
   -3.0092    2.3981    0.0000 C   0  0  0  0  0  0  0  0  0  0  0  0
   -0.9789    3.3695    0.0000 C   0  0  0  0  0  0  0  0  0  0  0  0
   -1.5806   -2.5894    0.0000 C   0  0  0  0  0  0  0  0  0  0  0  0
   -0.6815   -2.1569    0.0000 C   0  0  0  0  0  0  0  0  0  0  0  0
   -2.4077   -2.0256    0.0000 C   0  0  0  0  0  0  0  0  0  0  0  0
   -1.6558   -3.5858    0.0000 O   0  0  0  0  0  0  0  0  0  0  0  0
    3.2286    3.5731    0.0000 C   0  0  0  0  0  0  0  0  0  0  0  0
   -3.2286    3.3695    0.0000 C   0  0  0  0  0  0  0  0  0  0  0  0
   -1.6024    4.1497    0.0000 C   0  0  0  0  0  0  0  0  0  0  0  0
   -0.8225   -4.1497    0.0000 C   0  0  0  0  0  0  0  0  0  0  0  0
  1  2  2  0
  1  3  1  0
  2  4  1  0
  5  7  1  0
  4  5  2  0
  1  6  1  0
  3  7  2  0
  8 16  1  0
  4  9  1  0
  6 10  1  0
  6 11  1  0
 12 25  1  0
  9 13  2  0
  9 14  1  0
 10 15  1  0
  8 15  1  0
 11 16  1  0
  7 17  1  0
  3 18  1  0
 19 20  1  0
 14 20  2  0
 13 21  1  0
 19 21  2  0
 19 22  1  0
  8 23  1  0
 17 24  1  0
 12 24  1  0
 18 25  1  0
 22 26  1  0
M  END
>  <IDNUMBER>  (266) 
S896-0132

>  <available>  (266) 
49

>  <H_acceptor>  (266) 
5

>  <H_donor>  (266) 
0

>  <B_rotN>  (266) 
3

>  <N_O>  (266) 
6

>  <logP>  (266) 
3.5697

>  <logD>  (266) 
2.3895

>  <logSw>  (266) 
-3.5767

>  <PSA>  (266) 
42.605

>  <pKa_ma>  (266) 
19.7965

>  <pKa_mb>  (266) 
8.5506

>  <N_Chirals>  (266) 
0

>  <Name>  (266) 
2-(4-methoxyphenyl)-4-(4-methylpiperazin-1-yl)-5,6,8,9-tetrahydrooxepino[4,5-d]pyrimidine

>  <Smile>  (266) 
CN(CC1)CCN1c1nc(-c(cc2)ccc2OC)nc2c1CCOCC2

>  <Color>  (266) 
ORANGE

>  <Collection>  (266) 
IC

>  <InChI>  (266) 
InChI=1S/C20H26N4O2/c1-23-9-11-24(12-10-23)20-17-7-13-26-14-8-18(17)21-19(22-20)15-3-5-16(25-2)6-4-15/h3-6H,7-14H2,1-2H3

>  <InChI Key>  (266) 
UKJKLUVNYHPCKS-UHFFFAOYSA-N

>  <PERCENTSP3>  (266) 
50

>  <Link>  (266) 
https://www.chemdiv.com/catalog/screening-compounds/compound-S896-0132/

>  <MFCDNUMBER>  (266) 
MFCD31956717

>  <CLNUMBER>  (266) 
CM3993

>  <STEREO>  (266) 
ACHIRAL

>  <State>  (266) 
Solid

>  <Similarity score>  (266) 
0.23

$$$$
N-(3,5-difluorophenyl)-2-(9-fluoro-6-methyl-10-oxo-3,4,5,10-tetrahydrobenzo[b][1
     RDKit          2D

 29 32  0  0  0  0  0  0  0  0999 V2000
   -0.8943   -1.2106    0.0000 C   0  0  0  0  0  0  0  0  0  0  0  0
   -1.7619   -0.7125    0.0000 C   0  0  0  0  0  0  0  0  0  0  0  0
   -2.6421   -1.2106    0.0000 C   0  0  0  0  0  0  0  0  0  0  0  0
   -1.7808   -2.6953    0.0000 N   0  0  0  0  0  0  0  0  0  0  0  0
   -2.6421   -2.1879    0.0000 C   0  0  0  0  0  0  0  0  0  0  0  0
   -0.8943   -2.2067    0.0000 C   0  0  0  0  0  0  0  0  0  0  0  0
    0.8786   -1.2106    0.0000 N   0  0  0  0  0  0  0  0  0  0  0  0
    0.0080   -0.7315    0.0000 C   0  0  0  0  0  0  0  0  0  0  0  0
    1.7652    0.2459    0.0000 C   0  0  0  0  0  0  0  0  0  0  0  0
    2.6671    1.7119    0.0000 C   0  0  0  0  0  0  0  0  0  0  0  0
   -3.5350   -0.7315    0.0000 C   0  0  0  0  0  0  0  0  0  0  0  0
   -0.0110   -2.6953    0.0000 C   0  0  0  0  0  0  0  0  0  0  0  0
    2.6671    0.7345    0.0000 N   0  0  0  0  0  0  0  0  0  0  0  0
   -3.5350   -2.6953    0.0000 C   0  0  0  0  0  0  0  0  0  0  0  0
   -1.7619    0.2646    0.0000 O   0  0  0  0  0  0  0  0  0  0  0  0
    1.7745    2.1943    0.0000 C   0  0  0  0  0  0  0  0  0  0  0  0
    3.5474    2.1943    0.0000 C   0  0  0  0  0  0  0  0  0  0  0  0
    1.7652   -0.7315    0.0000 C   0  0  0  0  0  0  0  0  0  0  0  0
    3.5474    3.1777    0.0000 C   0  0  0  0  0  0  0  0  0  0  0  0
    1.7745    3.1777    0.0000 C   0  0  0  0  0  0  0  0  0  0  0  0
    2.6671    3.6570    0.0000 C   0  0  0  0  0  0  0  0  0  0  0  0
    0.8786    0.7345    0.0000 O   0  0  0  0  0  0  0  0  0  0  0  0
    0.8786   -2.2067    0.0000 C   0  0  0  0  0  0  0  0  0  0  0  0
   -4.4026   -1.2106    0.0000 C   0  0  0  0  0  0  0  0  0  0  0  0
   -4.4026   -2.1879    0.0000 C   0  0  0  0  0  0  0  0  0  0  0  0
   -3.5350    0.2646    0.0000 F   0  0  0  0  0  0  0  0  0  0  0  0
    0.9193    3.6757    0.0000 F   0  0  0  0  0  0  0  0  0  0  0  0
    4.4026    3.6884    0.0000 F   0  0  0  0  0  0  0  0  0  0  0  0
   -3.5350   -3.6884    0.0000 C   0  0  0  0  0  0  0  0  0  0  0  0
  1  2  1  0
  2  3  1  0
  3  5  1  0
  4  6  1  0
  4  5  1  0
  1  6  2  0
  7  8  1  0
  1  8  1  0
  9 18  1  0
 10 13  1  0
  3 11  2  0
  6 12  1  0
 12 23  1  0
  9 13  1  0
  5 14  2  0
  2 15  2  0
 10 16  2  0
 10 17  1  0
  7 18  1  0
 17 19  2  0
 16 20  1  0
 20 21  2  0
 19 21  1  0
  9 22  2  0
  7 23  1  0
 11 24  1  0
 24 25  2  0
 14 25  1  0
 11 26  1  0
 20 27  1  0
 19 28  1  0
 14 29  1  0
M  END
>  <IDNUMBER>  (267) 
L489-1912

>  <available>  (267) 
81

>  <H_acceptor>  (267) 
5

>  <H_donor>  (267) 
2

>  <B_rotN>  (267) 
4

>  <N_O>  (267) 
5

>  <logP>  (267) 
4.0616

>  <logD>  (267) 
3.1646

>  <logSw>  (267) 
-4.1841

>  <PSA>  (267) 
48.811

>  <pKa_ma>  (267) 
6.5619

>  <pKa_mb>  (267) 
1.2894

>  <N_Chirals>  (267) 
0

>  <Name>  (267) 
N-(3,5-difluorophenyl)-2-(9-fluoro-6-methyl-10-oxo-3,4,5,10-tetrahydrobenzo[b][1,6]naphthyridin-2(1H)-yl)acetamide

>  <Smile>  (267) 
Cc(ccc(F)c12)c2NC(CCN(CC(Nc2cc(F)cc(F)c2)=O)C2)=C2C1=O

>  <Color>  (267) 
YELLOW

>  <Collection>  (267) 
NC

>  <InChI>  (267) 
InChI=1S/C21H18F3N3O2/c1-11-2-3-16(24)19-20(11)26-17-4-5-27(9-15(17)21(19)29)10-18(28)25-14-7-12(22)6-13(23)8-14/h2-3,6-8H,4-5,9-10H2,1H3,(H,25,28)(H,26,29)

>  <InChI Key>  (267) 
LGVSCCPGSDADDY-UHFFFAOYSA-N

>  <PERCENTSP3>  (267) 
23.8

>  <Link>  (267) 
https://www.chemdiv.com/catalog/screening-compounds/compound-L489-1912/

>  <MFCDNUMBER>  (267) 
MFCD27457677

>  <CLNUMBER>  (267) 
CL8213A

>  <STEREO>  (267) 
ACHIRAL

>  <State>  (267) 
Solid

>  <Similarity score>  (267) 
0.23

$$$$
2-(4-methoxyphenyl)-4-(morpholin-4-yl)-5,6,8,9-tetrahydrooxepino[4,5-d]pyrimidin
     RDKit          2D

 25 28  0  0  0  0  0  0  0  0999 V2000
   -0.0078    0.8382    0.0000 N   0  0  0  0  0  0  0  0  0  0  0  0
    0.0675    1.8349    0.0000 C   0  0  0  0  0  0  0  0  0  0  0  0
   -0.7505    2.4019    0.0000 C   0  0  0  0  0  0  0  0  0  0  0  0
   -0.9010    0.4089    0.0000 C   0  0  0  0  0  0  0  0  0  0  0  0
   -1.7221    0.9638    0.0000 N   0  0  0  0  0  0  0  0  0  0  0  0
   -1.6468    1.9602    0.0000 C   0  0  0  0  0  0  0  0  0  0  0  0
    0.9762    2.2674    0.0000 N   0  0  0  0  0  0  0  0  0  0  0  0
   -0.9762   -0.5969    0.0000 C   0  0  0  0  0  0  0  0  0  0  0  0
   -2.1545    4.1508    0.0000 O   0  0  0  0  0  0  0  0  0  0  0  0
    2.7751    3.1417    0.0000 O   0  0  0  0  0  0  0  0  0  0  0  0
   -1.8788   -1.0294    0.0000 C   0  0  0  0  0  0  0  0  0  0  0  0
   -0.1520   -1.1612    0.0000 C   0  0  0  0  0  0  0  0  0  0  0  0
   -2.5556    2.4019    0.0000 C   0  0  0  0  0  0  0  0  0  0  0  0
   -0.5282    3.3705    0.0000 C   0  0  0  0  0  0  0  0  0  0  0  0
   -1.1267   -2.5901    0.0000 C   0  0  0  0  0  0  0  0  0  0  0  0
   -0.2241   -2.1577    0.0000 C   0  0  0  0  0  0  0  0  0  0  0  0
   -1.9540   -2.0261    0.0000 C   0  0  0  0  0  0  0  0  0  0  0  0
    1.8067    1.7030    0.0000 C   0  0  0  0  0  0  0  0  0  0  0  0
    1.0515    3.2732    0.0000 C   0  0  0  0  0  0  0  0  0  0  0  0
   -1.2019   -3.5868    0.0000 O   0  0  0  0  0  0  0  0  0  0  0  0
   -2.7751    3.3705    0.0000 C   0  0  0  0  0  0  0  0  0  0  0  0
   -1.1485    4.1508    0.0000 C   0  0  0  0  0  0  0  0  0  0  0  0
    1.9571    3.7058    0.0000 C   0  0  0  0  0  0  0  0  0  0  0  0
    2.6999    2.1452    0.0000 C   0  0  0  0  0  0  0  0  0  0  0  0
   -0.3684   -4.1508    0.0000 C   0  0  0  0  0  0  0  0  0  0  0  0
  1  2  2  0
  2  3  1  0
  1  4  1  0
  4  5  2  0
  5  6  1  0
  3  6  2  0
  2  7  1  0
  4  8  1  0
  9 22  1  0
 10 23  1  0
  8 11  2  0
  8 12  1  0
  6 13  1  0
  3 14  1  0
 15 16  1  0
 12 16  2  0
 11 17  1  0
 15 17  2  0
  7 18  1  0
  7 19  1  0
 15 20  1  0
 13 21  1  0
  9 21  1  0
 14 22  1  0
 19 23  1  0
 18 24  1  0
 10 24  1  0
 20 25  1  0
M  END
>  <IDNUMBER>  (268) 
S896-0159

>  <available>  (268) 
67

>  <H_acceptor>  (268) 
5

>  <H_donor>  (268) 
0

>  <B_rotN>  (268) 
3

>  <N_O>  (268) 
6

>  <logP>  (268) 
3.593

>  <logD>  (268) 
3.5874

>  <logSw>  (268) 
-3.5815

>  <PSA>  (268) 
47.037

>  <pKa_ma>  (268) 
19.7965

>  <pKa_mb>  (268) 
5.5159

>  <N_Chirals>  (268) 
0

>  <Name>  (268) 
2-(4-methoxyphenyl)-4-(morpholin-4-yl)-5,6,8,9-tetrahydrooxepino[4,5-d]pyrimidine

>  <Smile>  (268) 
COc(cc1)ccc1-c1nc(CCOCC2)c2c(N2CCOCC2)n1

>  <Color>  (268) 
BROWN

>  <Collection>  (268) 
IC

>  <InChI>  (268) 
InChI=1S/C19H23N3O3/c1-23-15-4-2-14(3-5-15)18-20-17-7-11-24-10-6-16(17)19(21-18)22-8-12-25-13-9-22/h2-5H,6-13H2,1H3

>  <InChI Key>  (268) 
OPRIETUOCJNYOL-UHFFFAOYSA-N

>  <PERCENTSP3>  (268) 
47.37

>  <Link>  (268) 
https://www.chemdiv.com/catalog/screening-compounds/compound-S896-0159/

>  <MFCDNUMBER>  (268) 
MFCD31956802

>  <CLNUMBER>  (268) 
CM3993

>  <STEREO>  (268) 
ACHIRAL

>  <State>  (268) 
Solid

>  <Similarity score>  (268) 
0.23

$$$$
7-[(2-chloro-4-fluorophenyl)methyl]-2-(4-methylpiperazin-1-yl)-3,5,6,7,8,9-hexah
     RDKit          2D

 28 31  0  0  0  0  0  0  0  0999 V2000
    1.5151    1.0982    0.0000 C   0  0  0  0  0  0  0  0  0  0  0  0
    1.3052    2.0696    0.0000 N   0  0  0  0  0  0  0  0  0  0  0  0
   -0.3932    1.6844    0.0000 C   0  0  0  0  0  0  0  0  0  0  0  0
    0.7911    0.4122    0.0000 N   0  0  0  0  0  0  0  0  0  0  0  0
    0.3401    2.3580    0.0000 C   0  0  0  0  0  0  0  0  0  0  0  0
   -0.1709    0.7037    0.0000 C   0  0  0  0  0  0  0  0  0  0  0  0
    2.4768    0.7975    0.0000 N   0  0  0  0  0  0  0  0  0  0  0  0
   -3.6895   -0.4717    0.0000 C   0  0  0  0  0  0  0  0  0  0  0  0
   -2.4144    0.7037    0.0000 N   0  0  0  0  0  0  0  0  0  0  0  0
   -1.2955    2.1136    0.0000 C   0  0  0  0  0  0  0  0  0  0  0  0
   -4.6609   -0.6970    0.0000 C   0  0  0  0  0  0  0  0  0  0  0  0
   -0.7881   -0.0674    0.0000 C   0  0  0  0  0  0  0  0  0  0  0  0
    4.3915    0.2083    0.0000 N   0  0  0  0  0  0  0  0  0  0  0  0
   -4.9616   -1.6466    0.0000 C   0  0  0  0  0  0  0  0  0  0  0  0
   -3.3858    0.4874    0.0000 C   0  0  0  0  0  0  0  0  0  0  0  0
    0.1145    3.3387    0.0000 O   0  0  0  0  0  0  0  0  0  0  0  0
    3.2072    1.4838    0.0000 C   0  0  0  0  0  0  0  0  0  0  0  0
    2.7058   -0.1769    0.0000 C   0  0  0  0  0  0  0  0  0  0  0  0
   -3.0159   -1.2017    0.0000 C   0  0  0  0  0  0  0  0  0  0  0  0
   -2.1887    1.6844    0.0000 C   0  0  0  0  0  0  0  0  0  0  0  0
   -1.7939   -0.0674    0.0000 C   0  0  0  0  0  0  0  0  0  0  0  0
   -4.2850   -2.3890    0.0000 C   0  0  0  0  0  0  0  0  0  0  0  0
    3.6551   -0.4717    0.0000 C   0  0  0  0  0  0  0  0  0  0  0  0
    4.1659    1.1830    0.0000 C   0  0  0  0  0  0  0  0  0  0  0  0
   -5.3408    0.0424    0.0000 Cl  0  0  0  0  0  0  0  0  0  0  0  0
   -3.3010   -2.1634    0.0000 C   0  0  0  0  0  0  0  0  0  0  0  0
   -4.5764   -3.3387    0.0000 F   0  0  0  0  0  0  0  0  0  0  0  0
    5.3408   -0.0861    0.0000 C   0  0  0  0  0  0  0  0  0  0  0  0
  1  2  1  0
  3  6  2  0
  3  5  1  0
  1  4  2  0
  2  5  1  0
  4  6  1  0
  1  7  1  0
  8 15  1  0
  9 21  1  0
  9 20  1  0
  3 10  1  0
  8 11  2  0
  6 12  1  0
 13 23  1  0
 13 24  1  0
 11 14  1  0
 14 22  2  0
  9 15  1  0
  5 16  2  0
  7 17  1  0
  7 18  1  0
  8 19  1  0
 10 20  1  0
 12 21  1  0
 22 26  1  0
 18 23  1  0
 17 24  1  0
 11 25  1  0
 19 26  2  0
 22 27  1  0
 13 28  1  0
M  END
>  <IDNUMBER>  (269) 
S039-3696

>  <available>  (269) 
21

>  <H_acceptor>  (269) 
5

>  <H_donor>  (269) 
1

>  <B_rotN>  (269) 
3

>  <N_O>  (269) 
6

>  <logP>  (269) 
2.2166

>  <logD>  (269) 
0.9969

>  <logSw>  (269) 
-3.2984

>  <PSA>  (269) 
45.276

>  <pKa_ma>  (269) 
9.6889

>  <pKa_mb>  (269) 
8.5927

>  <N_Chirals>  (269) 
0

>  <Name>  (269) 
7-[(2-chloro-4-fluorophenyl)methyl]-2-(4-methylpiperazin-1-yl)-3,5,6,7,8,9-hexahydro-4H-pyrimido[4,5-d]azepin-4-one

>  <Smile>  (269) 
CN(CC1)CCN1C(N1)=NC(CCN(Cc(ccc(F)c2)c2Cl)CC2)=C2C1=O

>  <Color>  (269) 
NOT COLORED

>  <Collection>  (269) 
IC

>  <InChI>  (269) 
InChI=1S/C20H25ClFN5O/c1-25-8-10-27(11-9-25)20-23-18-5-7-26(6-4-16(18)19(28)24-20)13-14-2-3-15(22)12-17(14)21/h2-3,12H,4-11,13H2,1H3,(H,23,24,28)

>  <InChI Key>  (269) 
GJCDSONDNLLSMS-UHFFFAOYSA-N

>  <PERCENTSP3>  (269) 
50

>  <Link>  (269) 
https://www.chemdiv.com/catalog/screening-compounds/compound-S039-3696/

>  <MFCDNUMBER>  (269) 
MFCD28999997

>  <CLNUMBER>  (269) 
CM2417

>  <STEREO>  (269) 
ACHIRAL

>  <State>  (269) 
Solid

>  <Similarity score>  (269) 
0.23

$$$$
7-[(4-ethoxy-3-methoxyphenyl)methyl]-2-(morpholin-4-yl)-3,5,6,7,8,9-hexahydro-4H
     RDKit          2D

 30 33  0  0  0  0  0  0  0  0999 V2000
    1.8033   -1.9348    0.0000 C   0  0  0  0  0  0  0  0  0  0  0  0
    1.5808   -2.9030    0.0000 N   0  0  0  0  0  0  0  0  0  0  0  0
   -0.1019   -2.5239    0.0000 C   0  0  0  0  0  0  0  0  0  0  0  0
    1.0731   -1.2487    0.0000 N   0  0  0  0  0  0  0  0  0  0  0  0
    0.6219   -3.2039    0.0000 C   0  0  0  0  0  0  0  0  0  0  0  0
    0.1113   -1.5495    0.0000 C   0  0  0  0  0  0  0  0  0  0  0  0
    2.7558   -1.6339    0.0000 N   0  0  0  0  0  0  0  0  0  0  0  0
   -1.0135   -2.9501    0.0000 C   0  0  0  0  0  0  0  0  0  0  0  0
   -2.1322   -1.5495    0.0000 N   0  0  0  0  0  0  0  0  0  0  0  0
   -0.5059   -0.7661    0.0000 C   0  0  0  0  0  0  0  0  0  0  0  0
   -3.0222    1.3176    0.0000 C   0  0  0  0  0  0  0  0  0  0  0  0
    0.4025   -4.1783    0.0000 O   0  0  0  0  0  0  0  0  0  0  0  0
   -3.9934    1.5431    0.0000 C   0  0  0  0  0  0  0  0  0  0  0  0
   -2.7243    0.3680    0.0000 C   0  0  0  0  0  0  0  0  0  0  0  0
   -3.4043   -0.3745    0.0000 C   0  0  0  0  0  0  0  0  0  0  0  0
   -3.1037   -1.3237    0.0000 C   0  0  0  0  0  0  0  0  0  0  0  0
   -1.9067   -2.5239    0.0000 C   0  0  0  0  0  0  0  0  0  0  0  0
   -1.5057   -0.7661    0.0000 C   0  0  0  0  0  0  0  0  0  0  0  0
    4.6734   -1.0419    0.0000 O   0  0  0  0  0  0  0  0  0  0  0  0
   -4.6734    0.8132    0.0000 C   0  0  0  0  0  0  0  0  0  0  0  0
   -4.3790   -0.1490    0.0000 C   0  0  0  0  0  0  0  0  0  0  0  0
   -2.3390    2.0601    0.0000 O   0  0  0  0  0  0  0  0  0  0  0  0
   -4.2942    2.4956    0.0000 O   0  0  0  0  0  0  0  0  0  0  0  0
    2.9813   -0.6627    0.0000 C   0  0  0  0  0  0  0  0  0  0  0  0
    3.4951   -2.3171    0.0000 C   0  0  0  0  0  0  0  0  0  0  0  0
    4.4479   -2.0288    0.0000 C   0  0  0  0  0  0  0  0  0  0  0  0
    3.9402   -0.3745    0.0000 C   0  0  0  0  0  0  0  0  0  0  0  0
   -3.6081    3.2351    0.0000 C   0  0  0  0  0  0  0  0  0  0  0  0
   -1.3646    1.8346    0.0000 C   0  0  0  0  0  0  0  0  0  0  0  0
   -3.9087    4.1783    0.0000 C   0  0  0  0  0  0  0  0  0  0  0  0
  1  2  1  0
  3  6  2  0
  3  5  1  0
  1  4  2  0
  2  5  1  0
  4  6  1  0
  1  7  1  0
  3  8  1  0
  9 18  1  0
  9 17  1  0
  6 10  1  0
 11 14  1  0
 11 13  2  0
  5 12  2  0
 13 20  1  0
 14 15  2  0
 15 16  1  0
  9 16  1  0
  8 17  1  0
 10 18  1  0
 19 26  1  0
 19 27  1  0
 20 21  2  0
 15 21  1  0
 11 22  1  0
 13 23  1  0
  7 24  1  0
  7 25  1  0
 25 26  1  0
 24 27  1  0
 23 28  1  0
 22 29  1  0
 28 30  1  0
M  END
>  <IDNUMBER>  (270) 
S039-3104

>  <available>  (270) 
31

>  <H_acceptor>  (270) 
7

>  <H_donor>  (270) 
1

>  <B_rotN>  (270) 
6

>  <N_O>  (270) 
8

>  <logP>  (270) 
1.2796

>  <logD>  (270) 
-0.2572

>  <logSw>  (270) 
-2.3106

>  <PSA>  (270) 
64.548

>  <pKa_ma>  (270) 
9.6889

>  <pKa_mb>  (270) 
8.924

>  <N_Chirals>  (270) 
0

>  <Name>  (270) 
7-[(4-ethoxy-3-methoxyphenyl)methyl]-2-(morpholin-4-yl)-3,5,6,7,8,9-hexahydro-4H-pyrimido[4,5-d]azepin-4-one

>  <Smile>  (270) 
CCOc(ccc(CN(CC1)CCC(N=C(N2)N3CCOCC3)=C1C2=O)c1)c1OC

>  <Color>  (270) 
NOT COLORED

>  <Collection>  (270) 
IC

>  <InChI>  (270) 
InChI=1S/C22H30N4O4/c1-3-30-19-5-4-16(14-20(19)28-2)15-25-8-6-17-18(7-9-25)23-22(24-21(17)27)26-10-12-29-13-11-26/h4-5,14H,3,6-13,15H2,1-2H3,(H,23,24,27)

>  <InChI Key>  (270) 
CBMKUZXVKYNYMU-UHFFFAOYSA-N

>  <PERCENTSP3>  (270) 
54.5

>  <Link>  (270) 
https://www.chemdiv.com/catalog/screening-compounds/compound-S039-3104/

>  <MFCDNUMBER>  (270) 
MFCD29000065

>  <CLNUMBER>  (270) 
CM2417

>  <STEREO>  (270) 
ACHIRAL

>  <State>  (270) 
Solid

>  <Similarity score>  (270) 
0.23

$$$$
N-(2,4-difluorophenyl)-2-({6-[(2-methoxyphenyl)methyl]-4-oxo-3,4,5,6,7,8-hexahyd
     RDKit          2D

 33 36  0  0  0  0  0  0  0  0999 V2000
   -1.6713    0.5303    0.0000 C   0  0  0  0  0  0  0  0  0  0  0  0
    0.0554    0.4900    0.0000 N   0  0  0  0  0  0  0  0  0  0  0  0
   -0.7978    1.0048    0.0000 C   0  0  0  0  0  0  0  0  0  0  0  0
   -1.7015   -0.4697    0.0000 C   0  0  0  0  0  0  0  0  0  0  0  0
    0.0354   -0.5152    0.0000 C   0  0  0  0  0  0  0  0  0  0  0  0
   -0.8532   -0.9951    0.0000 N   0  0  0  0  0  0  0  0  0  0  0  0
   -3.4034    0.5807    0.0000 N   0  0  0  0  0  0  0  0  0  0  0  0
   -2.5200    1.0602    0.0000 C   0  0  0  0  0  0  0  0  0  0  0  0
    3.4948   -0.6060    0.0000 N   0  0  0  0  0  0  0  0  0  0  0  0
   -5.1307    0.6364    0.0000 C   0  0  0  0  0  0  0  0  0  0  0  0
    4.3431   -1.1313    0.0000 C   0  0  0  0  0  0  0  0  0  0  0  0
    5.2062   -0.6514    0.0000 C   0  0  0  0  0  0  0  0  0  0  0  0
   -2.5806   -0.9496    0.0000 C   0  0  0  0  0  0  0  0  0  0  0  0
    2.6157   -1.0858    0.0000 C   0  0  0  0  0  0  0  0  0  0  0  0
   -4.2517    1.1057    0.0000 C   0  0  0  0  0  0  0  0  0  0  0  0
    6.0702   -1.1617    0.0000 C   0  0  0  0  0  0  0  0  0  0  0  0
    0.8739   -1.0304    0.0000 S   0  0  0  0  0  0  0  0  0  0  0  0
   -0.7776    2.0048    0.0000 O   0  0  0  0  0  0  0  0  0  0  0  0
   -5.9788    1.1667    0.0000 C   0  0  0  0  0  0  0  0  0  0  0  0
   -3.4338   -0.4193    0.0000 C   0  0  0  0  0  0  0  0  0  0  0  0
    2.5855   -2.0755    0.0000 O   0  0  0  0  0  0  0  0  0  0  0  0
    4.3127   -2.1212    0.0000 C   0  0  0  0  0  0  0  0  0  0  0  0
    6.0499   -2.1667    0.0000 C   0  0  0  0  0  0  0  0  0  0  0  0
    1.7524   -0.5607    0.0000 C   0  0  0  0  0  0  0  0  0  0  0  0
    5.2366    0.3481    0.0000 F   0  0  0  0  0  0  0  0  0  0  0  0
    5.1609   -2.6511    0.0000 C   0  0  0  0  0  0  0  0  0  0  0  0
    6.8982   -2.6965    0.0000 F   0  0  0  0  0  0  0  0  0  0  0  0
   -5.9437    2.1662    0.0000 O   0  0  0  0  0  0  0  0  0  0  0  0
   -5.1609   -0.3587    0.0000 C   0  0  0  0  0  0  0  0  0  0  0  0
   -6.8676    0.6967    0.0000 C   0  0  0  0  0  0  0  0  0  0  0  0
   -6.7917    2.6965    0.0000 C   0  0  0  0  0  0  0  0  0  0  0  0
   -6.0394   -0.8336    0.0000 C   0  0  0  0  0  0  0  0  0  0  0  0
   -6.8982   -0.3033    0.0000 C   0  0  0  0  0  0  0  0  0  0  0  0
  2  3  1  0
  2  5  1  0
  1  3  1  0
  1  4  2  0
  5  6  2  0
  4  6  1  0
  7  8  1  0
  1  8  1  0
  9 14  1  0
 10 15  1  0
  9 11  1  0
 11 12  1  0
  4 13  1  0
 13 20  1  0
 14 24  1  0
  7 15  1  0
 12 16  2  0
  5 17  1  0
  3 18  2  0
 10 19  2  0
  7 20  1  0
 14 21  2  0
 11 22  2  0
 23 26  2  0
 16 23  1  0
 17 24  1  0
 12 25  1  0
 22 26  1  0
 23 27  1  0
 19 28  1  0
 10 29  1  0
 19 30  1  0
 28 31  1  0
 29 32  2  0
 32 33  1  0
 30 33  2  0
M  END
>  <IDNUMBER>  (271) 
E140-0959

>  <available>  (271) 
71

>  <H_acceptor>  (271) 
8

>  <H_donor>  (271) 
2

>  <B_rotN>  (271) 
8

>  <N_O>  (271) 
7

>  <logP>  (271) 
2.5552

>  <logD>  (271) 
2.0058

>  <logSw>  (271) 
-2.958

>  <PSA>  (271) 
68.028

>  <pKa_ma>  (271) 
6.9946

>  <pKa_mb>  (271) 
4.9727

>  <N_Chirals>  (271) 
0

>  <Name>  (271) 
N-(2,4-difluorophenyl)-2-({6-[(2-methoxyphenyl)methyl]-4-oxo-3,4,5,6,7,8-hexahydropyrido[4,3-d]pyrimidin-2-yl}sulfanyl)acetamide

>  <Smile>  (271) 
COc1c(CN(CC2)CC(C(N3)=O)=C2N=C3SCC(Nc(ccc(F)c2)c2F)=O)cccc1

>  <Color>  (271) 
NOT COLORED

>  <Collection>  (271) 
DC

>  <InChI>  (271) 
InChI=1S/C23H22F2N4O3S/c1-32-20-5-3-2-4-14(20)11-29-9-8-18-16(12-29)22(31)28-23(27-18)33-13-21(30)26-19-7-6-15(24)10-17(19)25/h2-7,10H,8-9,11-13H2,1H3,(H,26,30)(H,27,28,31)

>  <InChI Key>  (271) 
CFKYUOQHLINCHX-UHFFFAOYSA-N

>  <PERCENTSP3>  (271) 
26.1

>  <Link>  (271) 
https://www.chemdiv.com/catalog/screening-compounds/compound-E140-0959/

>  <MFCDNUMBER>  (271) 
MFCD16640590

>  <CLNUMBER>  (271) 
CL4129

>  <STEREO>  (271) 
ACHIRAL

>  <State>  (271) 
Solid

>  <Similarity score>  (271) 
0.23

$$$$
2-(9-chloro-6-methoxy-10-oxo-3,4,5,10-tetrahydrobenzo[b][1,6]naphthyridin-2(1H)-
     RDKit          2D

 30 33  0  0  0  0  0  0  0  0999 V2000
   -0.8853   -1.4573    0.0000 C   0  0  0  0  0  0  0  0  0  0  0  0
   -1.7596   -0.9528    0.0000 C   0  0  0  0  0  0  0  0  0  0  0  0
   -2.6340   -1.4573    0.0000 C   0  0  0  0  0  0  0  0  0  0  0  0
   -1.7784   -2.9332    0.0000 N   0  0  0  0  0  0  0  0  0  0  0  0
   -2.6340   -2.4380    0.0000 C   0  0  0  0  0  0  0  0  0  0  0  0
   -0.8853   -2.4477    0.0000 C   0  0  0  0  0  0  0  0  0  0  0  0
    0.8822   -1.4573    0.0000 N   0  0  0  0  0  0  0  0  0  0  0  0
    0.0079   -0.9716    0.0000 C   0  0  0  0  0  0  0  0  0  0  0  0
    1.7754    0.0094    0.0000 C   0  0  0  0  0  0  0  0  0  0  0  0
    2.6685    0.4952    0.0000 N   0  0  0  0  0  0  0  0  0  0  0  0
    2.6685    1.4761    0.0000 C   0  0  0  0  0  0  0  0  0  0  0  0
    3.5522    1.9616    0.0000 C   0  0  0  0  0  0  0  0  0  0  0  0
   -3.5271   -0.9716    0.0000 C   0  0  0  0  0  0  0  0  0  0  0  0
   -0.0109   -2.9332    0.0000 C   0  0  0  0  0  0  0  0  0  0  0  0
   -3.5271   -2.9332    0.0000 C   0  0  0  0  0  0  0  0  0  0  0  0
    3.5522    2.9426    0.0000 C   0  0  0  0  0  0  0  0  0  0  0  0
   -1.7596    0.0282    0.0000 O   0  0  0  0  0  0  0  0  0  0  0  0
    1.7754   -0.9716    0.0000 C   0  0  0  0  0  0  0  0  0  0  0  0
    0.8822    0.4952    0.0000 O   0  0  0  0  0  0  0  0  0  0  0  0
    0.8822   -2.4477    0.0000 C   0  0  0  0  0  0  0  0  0  0  0  0
   -4.4015   -1.4573    0.0000 C   0  0  0  0  0  0  0  0  0  0  0  0
   -4.4015   -2.4380    0.0000 C   0  0  0  0  0  0  0  0  0  0  0  0
    1.7847    1.9616    0.0000 C   0  0  0  0  0  0  0  0  0  0  0  0
    2.6685    3.4220    0.0000 C   0  0  0  0  0  0  0  0  0  0  0  0
    4.4015    1.4446    0.0000 F   0  0  0  0  0  0  0  0  0  0  0  0
   -3.5271    0.0282    0.0000 Cl  0  0  0  0  0  0  0  0  0  0  0  0
    1.7847    2.9426    0.0000 C   0  0  0  0  0  0  0  0  0  0  0  0
    2.6685    4.4187    0.0000 F   0  0  0  0  0  0  0  0  0  0  0  0
   -3.5177   -3.9237    0.0000 O   0  0  0  0  0  0  0  0  0  0  0  0
   -2.6561   -4.4187    0.0000 C   0  0  0  0  0  0  0  0  0  0  0  0
  1  2  1  0
  2  3  1  0
  3  5  1  0
  4  6  1  0
  4  5  1  0
  1  6  2  0
  7  8  1  0
  1  8  1  0
  9 18  1  0
  9 10  1  0
 10 11  1  0
 11 12  1  0
  3 13  2  0
  6 14  1  0
 14 20  1  0
  5 15  2  0
 12 16  2  0
 16 24  1  0
  2 17  2  0
  7 18  1  0
  9 19  2  0
  7 20  1  0
 13 21  1  0
 21 22  2  0
 15 22  1  0
 11 23  2  0
 24 27  2  0
 12 25  1  0
 13 26  1  0
 23 27  1  0
 24 28  1  0
 15 29  1  0
 29 30  1  0
M  END
>  <IDNUMBER>  (272) 
L489-1778

>  <available>  (272) 
37

>  <H_acceptor>  (272) 
6

>  <H_donor>  (272) 
2

>  <B_rotN>  (272) 
5

>  <N_O>  (272) 
6

>  <logP>  (272) 
3.3074

>  <logD>  (272) 
1.258

>  <logSw>  (272) 
-3.9848

>  <PSA>  (272) 
55.744

>  <pKa_ma>  (272) 
5.3545

>  <pKa_mb>  (272) 
0.736

>  <N_Chirals>  (272) 
0

>  <Name>  (272) 
2-(9-chloro-6-methoxy-10-oxo-3,4,5,10-tetrahydrobenzo[b][1,6]naphthyridin-2(1H)-yl)-N-(2,4-difluorophenyl)acetamide

>  <Smile>  (272) 
COc(ccc(Cl)c12)c2NC(CCN(CC(Nc(ccc(F)c2)c2F)=O)C2)=C2C1=O

>  <Color>  (272) 
YELLOW

>  <Collection>  (272) 
NC

>  <InChI>  (272) 
InChI=1S/C21H18ClF2N3O3/c1-30-17-5-3-13(22)19-20(17)26-15-6-7-27(9-12(15)21(19)29)10-18(28)25-16-4-2-11(23)8-14(16)24/h2-5,8H,6-7,9-10H2,1H3,(H,25,28)(H,26,29)

>  <InChI Key>  (272) 
WKGAEZXGGCTZIZ-UHFFFAOYSA-N

>  <PERCENTSP3>  (272) 
23.8

>  <Link>  (272) 
https://www.chemdiv.com/catalog/screening-compounds/compound-L489-1778/

>  <MFCDNUMBER>  (272) 
MFCD27457645

>  <CLNUMBER>  (272) 
CL8213A

>  <STEREO>  (272) 
ACHIRAL

>  <State>  (272) 
Solid

>  <Similarity score>  (272) 
0.23

$$$$
2-(morpholin-4-yl)-7-[(3,4,5-trifluorophenyl)methyl]-3,5,6,7,8,9-hexahydro-4H-py
     RDKit          2D

 28 31  0  0  0  0  0  0  0  0999 V2000
    2.6672   -0.6000    0.0000 C   0  0  0  0  0  0  0  0  0  0  0  0
    2.4603    0.3713    0.0000 N   0  0  0  0  0  0  0  0  0  0  0  0
    0.7648   -0.0172    0.0000 C   0  0  0  0  0  0  0  0  0  0  0  0
    1.9402   -1.2771    0.0000 N   0  0  0  0  0  0  0  0  0  0  0  0
    1.4918    0.6724    0.0000 C   0  0  0  0  0  0  0  0  0  0  0  0
    0.9841   -0.9888    0.0000 C   0  0  0  0  0  0  0  0  0  0  0  0
    3.6357   -0.8918    0.0000 N   0  0  0  0  0  0  0  0  0  0  0  0
   -4.2719    0.9919    0.0000 C   0  0  0  0  0  0  0  0  0  0  0  0
   -4.5727    0.0296    0.0000 C   0  0  0  0  0  0  0  0  0  0  0  0
   -3.2940    1.2144    0.0000 C   0  0  0  0  0  0  0  0  0  0  0  0
   -0.1348    0.4278    0.0000 C   0  0  0  0  0  0  0  0  0  0  0  0
   -1.2662   -0.9888    0.0000 N   0  0  0  0  0  0  0  0  0  0  0  0
    0.3635   -1.7660    0.0000 C   0  0  0  0  0  0  0  0  0  0  0  0
   -2.9180   -0.4687    0.0000 C   0  0  0  0  0  0  0  0  0  0  0  0
   -2.6169    0.4843    0.0000 C   0  0  0  0  0  0  0  0  0  0  0  0
   -3.8956   -0.6911    0.0000 C   0  0  0  0  0  0  0  0  0  0  0  0
    1.2755    1.6472    0.0000 O   0  0  0  0  0  0  0  0  0  0  0  0
   -2.2409   -1.2113    0.0000 C   0  0  0  0  0  0  0  0  0  0  0  0
   -1.0312   -0.0172    0.0000 C   0  0  0  0  0  0  0  0  0  0  0  0
   -0.6331   -1.7660    0.0000 C   0  0  0  0  0  0  0  0  0  0  0  0
    5.5443   -1.4809    0.0000 O   0  0  0  0  0  0  0  0  0  0  0  0
   -4.9584    1.7255    0.0000 F   0  0  0  0  0  0  0  0  0  0  0  0
   -3.0057    2.1673    0.0000 F   0  0  0  0  0  0  0  0  0  0  0  0
   -5.5443   -0.1831    0.0000 F   0  0  0  0  0  0  0  0  0  0  0  0
    4.3689   -0.2147    0.0000 C   0  0  0  0  0  0  0  0  0  0  0  0
    3.8582   -1.8662    0.0000 C   0  0  0  0  0  0  0  0  0  0  0  0
    4.8111   -2.1673    0.0000 C   0  0  0  0  0  0  0  0  0  0  0  0
    5.3187   -0.5030    0.0000 C   0  0  0  0  0  0  0  0  0  0  0  0
  1  2  1  0
  3  6  2  0
  3  5  1  0
  1  4  2  0
  2  5  1  0
  4  6  1  0
  1  7  1  0
  8  9  2  0
  8 10  1  0
  9 16  1  0
 10 15  2  0
  3 11  1  0
 12 20  1  0
 12 19  1  0
  6 13  1  0
 14 18  1  0
 14 15  1  0
 14 16  2  0
  5 17  2  0
 12 18  1  0
 11 19  1  0
 13 20  1  0
 21 27  1  0
 21 28  1  0
  8 22  1  0
 10 23  1  0
  9 24  1  0
  7 25  1  0
  7 26  1  0
 26 27  1  0
 25 28  1  0
M  END
>  <IDNUMBER>  (273) 
S039-3175

>  <available>  (273) 
1

>  <H_acceptor>  (273) 
5

>  <H_donor>  (273) 
1

>  <B_rotN>  (273) 
3

>  <N_O>  (273) 
6

>  <logP>  (273) 
1.7158

>  <logD>  (273) 
1.6126

>  <logSw>  (273) 
-2.5303

>  <PSA>  (273) 
49.708

>  <pKa_ma>  (273) 
9.6889

>  <pKa_mb>  (273) 
6.8179

>  <N_Chirals>  (273) 
0

>  <Name>  (273) 
2-(morpholin-4-yl)-7-[(3,4,5-trifluorophenyl)methyl]-3,5,6,7,8,9-hexahydro-4H-pyrimido[4,5-d]azepin-4-one

>  <Smile>  (273) 
O=C1NC(N2CCOCC2)=NC2=C1CCN(Cc(cc1F)cc(F)c1F)CC2

>  <Color>  (273) 
NOT COLORED

>  <Collection>  (273) 
IC

>  <InChI>  (273) 
InChI=1S/C19H21F3N4O2/c20-14-9-12(10-15(21)17(14)22)11-25-3-1-13-16(2-4-25)23-19(24-18(13)27)26-5-7-28-8-6-26/h9-10H,1-8,11H2,(H,23,24,27)

>  <InChI Key>  (273) 
CKCNEYORBGYAEM-UHFFFAOYSA-N

>  <PERCENTSP3>  (273) 
47.368

>  <Link>  (273) 
https://www.chemdiv.com/catalog/screening-compounds/compound-S039-3175/

>  <MFCDNUMBER>  (273) 
MFCD28999088

>  <CLNUMBER>  (273) 
CM2417

>  <STEREO>  (273) 
ACHIRAL

>  <State>  (273) 
Solid

>  <Similarity score>  (273) 
0.23

$$$$
N-(4-chloro-3-fluorophenyl)-2-(9-fluoro-6-methyl-10-oxo-3,4,5,10-tetrahydrobenzo
     RDKit          2D

 29 32  0  0  0  0  0  0  0  0999 V2000
   -0.8916   -1.7001    0.0000 C   0  0  0  0  0  0  0  0  0  0  0  0
   -1.7598   -1.2113    0.0000 C   0  0  0  0  0  0  0  0  0  0  0  0
   -2.6404   -1.7001    0.0000 C   0  0  0  0  0  0  0  0  0  0  0  0
   -1.7785   -3.1824    0.0000 N   0  0  0  0  0  0  0  0  0  0  0  0
   -2.6404   -2.6875    0.0000 C   0  0  0  0  0  0  0  0  0  0  0  0
   -0.8916   -2.6968    0.0000 C   0  0  0  0  0  0  0  0  0  0  0  0
    0.8822   -1.7001    0.0000 N   0  0  0  0  0  0  0  0  0  0  0  0
    0.0077   -1.2176    0.0000 C   0  0  0  0  0  0  0  0  0  0  0  0
    1.7692   -0.2396    0.0000 C   0  0  0  0  0  0  0  0  0  0  0  0
   -3.5334   -1.2176    0.0000 C   0  0  0  0  0  0  0  0  0  0  0  0
   -0.0077   -3.1824    0.0000 C   0  0  0  0  0  0  0  0  0  0  0  0
    3.5461    2.6842    0.0000 C   0  0  0  0  0  0  0  0  0  0  0  0
    3.5461    1.7065    0.0000 C   0  0  0  0  0  0  0  0  0  0  0  0
   -3.5334   -3.1730    0.0000 C   0  0  0  0  0  0  0  0  0  0  0  0
    2.6685    0.2459    0.0000 N   0  0  0  0  0  0  0  0  0  0  0  0
   -1.7598   -0.2242    0.0000 O   0  0  0  0  0  0  0  0  0  0  0  0
    2.6685    1.2333    0.0000 C   0  0  0  0  0  0  0  0  0  0  0  0
    2.6685    3.1700    0.0000 C   0  0  0  0  0  0  0  0  0  0  0  0
    1.7692   -1.2176    0.0000 C   0  0  0  0  0  0  0  0  0  0  0  0
    0.8822    0.2459    0.0000 O   0  0  0  0  0  0  0  0  0  0  0  0
    0.8822   -2.6968    0.0000 C   0  0  0  0  0  0  0  0  0  0  0  0
   -4.4016   -1.7001    0.0000 C   0  0  0  0  0  0  0  0  0  0  0  0
   -4.4016   -2.6875    0.0000 C   0  0  0  0  0  0  0  0  0  0  0  0
    1.7785    2.6842    0.0000 C   0  0  0  0  0  0  0  0  0  0  0  0
    4.4016    3.2014    0.0000 F   0  0  0  0  0  0  0  0  0  0  0  0
    1.7785    1.7065    0.0000 C   0  0  0  0  0  0  0  0  0  0  0  0
   -3.5334   -0.2242    0.0000 F   0  0  0  0  0  0  0  0  0  0  0  0
    2.6685    4.1697    0.0000 Cl  0  0  0  0  0  0  0  0  0  0  0  0
   -3.5334   -4.1697    0.0000 C   0  0  0  0  0  0  0  0  0  0  0  0
  1  2  1  0
  2  3  1  0
  3  5  1  0
  4  6  1  0
  4  5  1  0
  1  6  2  0
  7  8  1  0
  1  8  1  0
  9 19  1  0
  3 10  2  0
  6 11  1  0
 11 21  1  0
 12 13  2  0
 12 18  1  0
 13 17  1  0
  5 14  2  0
  9 15  1  0
  2 16  2  0
 15 17  1  0
 18 24  2  0
  7 19  1  0
  9 20  2  0
  7 21  1  0
 10 22  1  0
 22 23  2  0
 14 23  1  0
 24 26  1  0
 12 25  1  0
 17 26  2  0
 10 27  1  0
 18 28  1  0
 14 29  1  0
M  END
>  <IDNUMBER>  (274) 
L489-1909

>  <available>  (274) 
91

>  <H_acceptor>  (274) 
5

>  <H_donor>  (274) 
2

>  <B_rotN>  (274) 
4

>  <N_O>  (274) 
5

>  <logP>  (274) 
4.3068

>  <logD>  (274) 
3.4098

>  <logSw>  (274) 
-4.7254

>  <PSA>  (274) 
48.811

>  <pKa_ma>  (274) 
6.5619

>  <pKa_mb>  (274) 
1.2894

>  <N_Chirals>  (274) 
0

>  <Name>  (274) 
N-(4-chloro-3-fluorophenyl)-2-(9-fluoro-6-methyl-10-oxo-3,4,5,10-tetrahydrobenzo[b][1,6]naphthyridin-2(1H)-yl)acetamide

>  <Smile>  (274) 
Cc(c(NC1=C2CN(CC(Nc(cc3)cc(F)c3Cl)=O)CC1)c1C2=O)ccc1F

>  <Color>  (274) 
YELLOW

>  <Collection>  (274) 
NC

>  <InChI>  (274) 
InChI=1S/C21H18ClF2N3O2/c1-11-2-5-15(23)19-20(11)26-17-6-7-27(9-13(17)21(19)29)10-18(28)25-12-3-4-14(22)16(24)8-12/h2-5,8H,6-7,9-10H2,1H3,(H,25,28)(H,26,29)

>  <InChI Key>  (274) 
CZWUOARBKRPLEL-UHFFFAOYSA-N

>  <PERCENTSP3>  (274) 
23.8

>  <Link>  (274) 
https://www.chemdiv.com/catalog/screening-compounds/compound-L489-1909/

>  <MFCDNUMBER>  (274) 
MFCD27457675

>  <CLNUMBER>  (274) 
CL8213A

>  <STEREO>  (274) 
ACHIRAL

>  <State>  (274) 
Solid

>  <Similarity score>  (274) 
0.23

$$$$
N-tert-butyl-4-{2-cyclopropyl-6-ethyl-5-[(4-fluorophenyl)methyl]pyrimidin-4-yl}p
     RDKit          2D

 32 35  0  0  0  0  0  0  0  0999 V2000
    1.2940   -0.7876    0.0000 C   0  0  0  0  0  0  0  0  0  0  0  0
    1.2940   -1.7877    0.0000 N   0  0  0  0  0  0  0  0  0  0  0  0
    2.1565   -0.2918    0.0000 C   0  0  0  0  0  0  0  0  0  0  0  0
    2.1565   -2.2919    0.0000 C   0  0  0  0  0  0  0  0  0  0  0  0
   -2.1648    1.2210    0.0000 C   0  0  0  0  0  0  0  0  0  0  0  0
    3.0191   -1.7877    0.0000 N   0  0  0  0  0  0  0  0  0  0  0  0
    0.4271   -0.2875    0.0000 N   0  0  0  0  0  0  0  0  0  0  0  0
   -1.2980    0.7251    0.0000 N   0  0  0  0  0  0  0  0  0  0  0  0
    3.0191   -0.7876    0.0000 C   0  0  0  0  0  0  0  0  0  0  0  0
    2.1565   -3.2921    0.0000 C   0  0  0  0  0  0  0  0  0  0  0  0
   -3.0276    0.7251    0.0000 N   0  0  0  0  0  0  0  0  0  0  0  0
    2.6567   -4.1547    0.0000 C   0  0  0  0  0  0  0  0  0  0  0  0
    1.6566   -4.1589    0.0000 C   0  0  0  0  0  0  0  0  0  0  0  0
    2.1565    0.7126    0.0000 C   0  0  0  0  0  0  0  0  0  0  0  0
   -2.1648    2.2252    0.0000 O   0  0  0  0  0  0  0  0  0  0  0  0
   -0.4354   -0.7876    0.0000 C   0  0  0  0  0  0  0  0  0  0  0  0
    0.4312    0.7168    0.0000 C   0  0  0  0  0  0  0  0  0  0  0  0
   -0.4271    1.2167    0.0000 C   0  0  0  0  0  0  0  0  0  0  0  0
   -1.3024   -0.2833    0.0000 C   0  0  0  0  0  0  0  0  0  0  0  0
   -3.8943    1.2210    0.0000 C   0  0  0  0  0  0  0  0  0  0  0  0
    2.6607    1.5751    0.0000 C   0  0  0  0  0  0  0  0  0  0  0  0
    3.6694    3.3046    0.0000 C   0  0  0  0  0  0  0  0  0  0  0  0
    4.1776    4.1589    0.0000 F   0  0  0  0  0  0  0  0  0  0  0  0
    3.6569    1.5710    0.0000 C   0  0  0  0  0  0  0  0  0  0  0  0
    2.1607    2.4503    0.0000 C   0  0  0  0  0  0  0  0  0  0  0  0
    4.1610    2.4336    0.0000 C   0  0  0  0  0  0  0  0  0  0  0  0
    2.6692    3.3130    0.0000 C   0  0  0  0  0  0  0  0  0  0  0  0
    3.8859   -0.2833    0.0000 C   0  0  0  0  0  0  0  0  0  0  0  0
   -4.7569    1.7294    0.0000 C   0  0  0  0  0  0  0  0  0  0  0  0
   -4.3984    0.3584    0.0000 C   0  0  0  0  0  0  0  0  0  0  0  0
   -3.3984    2.0920    0.0000 C   0  0  0  0  0  0  0  0  0  0  0  0
    4.7569   -0.7792    0.0000 C   0  0  0  0  0  0  0  0  0  0  0  0
  1  2  2  0
  1  3  1  0
  2  4  1  0
  4  6  2  0
  5  8  1  0
  6  9  1  0
  1  7  1  0
  8 18  1  0
  3  9  2  0
  4 10  1  0
  5 11  1  0
 10 12  1  0
 12 13  1  0
 10 13  1  0
  3 14  1  0
  5 15  2  0
  7 16  1  0
  7 17  1  0
 17 18  1  0
 16 19  1  0
  8 19  1  0
 11 20  1  0
 14 21  1  0
 22 27  1  0
 22 23  1  0
 21 24  2  0
 21 25  1  0
 24 26  1  0
 22 26  2  0
 25 27  2  0
  9 28  1  0
 20 29  1  0
 20 30  1  0
 20 31  1  0
 28 32  1  0
M  END
>  <IDNUMBER>  (275) 
V029-4980F

>  <available>  (275) 
5

>  <H_acceptor>  (275) 
4

>  <H_donor>  (275) 
1

>  <B_rotN>  (275) 
8

>  <N_O>  (275) 
6

>  <logP>  (275) 
5.595

>  <logD>  (275) 
4.5088

>  <logSw>  (275) 
-5.3791

>  <PSA>  (275) 
49.135

>  <pKa_ma>  (275) 
16.5759

>  <pKa_mb>  (275) 
8.449

>  <N_Chirals>  (275) 
0

>  <Name>  (275) 
N-tert-butyl-4-{2-cyclopropyl-6-ethyl-5-[(4-fluorophenyl)methyl]pyrimidin-4-yl}piperazine-1-carboxamide

>  <Smile>  (275) 
CCc1nc(C2CC2)nc(N(CC2)CCN2C(NC(C)(C)C)=O)c1Cc(cc1)ccc1F

>  <Color>  (275) 
NOT COLORED

>  <Collection>  (275) 
DC

>  <InChI>  (275) 
InChI=1S/C25H34FN5O/c1-5-21-20(16-17-6-10-19(26)11-7-17)23(28-22(27-21)18-8-9-18)30-12-14-31(15-13-30)24(32)29-25(2,3)4/h6-7,10-11,18H,5,8-9,12-16H2,1-4H3,(H,29,32)

>  <InChI Key>  (275) 
ATGZXSWRUOXSIQ-UHFFFAOYSA-N

>  <PERCENTSP3>  (275) 
56

>  <Link>  (275) 
https://www.chemdiv.com/catalog/screening-compounds/compound-V029-4980F/

>  <MFCDNUMBER>  (275) 
MFCD19790228

>  <CLNUMBER>  (275) 
CV0037

>  <STEREO>  (275) 
ACHIRAL

>  <State>  (275) 
Solid

>  <Similarity score>  (275) 
0.23

$$$$
3-(6-fluoro-1,3,4,9-tetrahydro-2H-pyrido[3,4-b]indol-2-yl)-1-(2-methoxyphenyl)py
     RDKit          2D

 29 33  0  0  0  0  0  0  0  0999 V2000
    2.5976    0.2437    0.0000 N   0  0  0  0  0  0  0  0  0  0  0  0
    1.6226    0.4562    0.0000 C   0  0  0  0  0  0  0  0  0  0  0  0
    2.6811   -0.7520    0.0000 C   0  0  0  0  0  0  0  0  0  0  0  0
   -1.2813   -1.5435    0.0000 C   0  0  0  0  0  0  0  0  0  0  0  0
    1.1143   -0.4145    0.0000 C   0  0  0  0  0  0  0  0  0  0  0  0
   -1.8769   -0.7311    0.0000 C   0  0  0  0  0  0  0  0  0  0  0  0
    1.7936   -1.1561    0.0000 C   0  0  0  0  0  0  0  0  0  0  0  0
    0.1395   -0.5186    0.0000 N   0  0  0  0  0  0  0  0  0  0  0  0
   -1.8561   -2.3643    0.0000 N   0  0  0  0  0  0  0  0  0  0  0  0
   -2.8311   -1.0478    0.0000 C   0  0  0  0  0  0  0  0  0  0  0  0
   -2.8102   -2.0520    0.0000 C   0  0  0  0  0  0  0  0  0  0  0  0
    3.3184    0.9145    0.0000 C   0  0  0  0  0  0  0  0  0  0  0  0
   -0.2855   -1.4394    0.0000 C   0  0  0  0  0  0  0  0  0  0  0  0
   -1.4728    0.1939    0.0000 C   0  0  0  0  0  0  0  0  0  0  0  0
    1.1976    1.3603    0.0000 O   0  0  0  0  0  0  0  0  0  0  0  0
   -0.4562    0.3022    0.0000 C   0  0  0  0  0  0  0  0  0  0  0  0
    3.5517   -1.2394    0.0000 O   0  0  0  0  0  0  0  0  0  0  0  0
   -3.6809   -0.5603    0.0000 C   0  0  0  0  0  0  0  0  0  0  0  0
    4.2725    0.6062    0.0000 C   0  0  0  0  0  0  0  0  0  0  0  0
   -3.6809   -2.5561    0.0000 C   0  0  0  0  0  0  0  0  0  0  0  0
   -4.5477   -1.0478    0.0000 C   0  0  0  0  0  0  0  0  0  0  0  0
   -4.5477   -2.0520    0.0000 C   0  0  0  0  0  0  0  0  0  0  0  0
   -5.4183   -0.5478    0.0000 F   0  0  0  0  0  0  0  0  0  0  0  0
    4.4850   -0.3728    0.0000 O   0  0  0  0  0  0  0  0  0  0  0  0
    3.1061    1.8769    0.0000 C   0  0  0  0  0  0  0  0  0  0  0  0
    5.0142    1.2770    0.0000 C   0  0  0  0  0  0  0  0  0  0  0  0
    5.4183   -0.6770    0.0000 C   0  0  0  0  0  0  0  0  0  0  0  0
    3.8475    2.5561    0.0000 C   0  0  0  0  0  0  0  0  0  0  0  0
    4.8015    2.2520    0.0000 C   0  0  0  0  0  0  0  0  0  0  0  0
  1  2  1  0
  1  3  1  0
  4 13  1  0
  2  5  1  0
  5  7  1  0
  6 14  1  0
  4  6  2  0
  3  7  1  0
  5  8  1  0
  4  9  1  0
  6 10  1  0
 10 11  1  0
  9 11  1  0
  1 12  1  0
  8 13  1  0
 14 16  1  0
  2 15  2  0
  8 16  1  0
  3 17  2  0
 10 18  2  0
 12 19  2  0
 11 20  2  0
 18 21  1  0
 21 22  2  0
 20 22  1  0
 21 23  1  0
 19 24  1  0
 12 25  1  0
 19 26  1  0
 26 29  2  0
 24 27  1  0
 25 28  2  0
 28 29  1  0
M  END
>  <IDNUMBER>  (276) 
Y020-3931

>  <available>  (276) 
32

>  <H_acceptor>  (276) 
6

>  <H_donor>  (276) 
1

>  <B_rotN>  (276) 
3

>  <N_O>  (276) 
6

>  <logP>  (276) 
1.59

>  <logD>  (276) 
1.59

>  <logSw>  (276) 
-2.3454

>  <PSA>  (276) 
49.829

>  <pKa_ma>  (276) 
15.696

>  <pKa_mb>  (276) 
1.8149

>  <N_Chirals>  (276) 
1

>  <Name>  (276) 
3-(6-fluoro-1,3,4,9-tetrahydro-2H-pyrido[3,4-b]indol-2-yl)-1-(2-methoxyphenyl)pyrrolidine-2,5-dione

>  <Smile>  (276) 
COc(cccc1)c1N(C(CC1N(CC2)Cc3c2c(cc(cc2)F)c2[nH]3)=O)C1=O

>  <Color>  (276) 
NOT COLORED

>  <Collection>  (276) 
DC

>  <InChI>  (276) 
InChI=1S/C22H20FN3O3/c1-29-20-5-3-2-4-18(20)26-21(27)11-19(22(26)28)25-9-8-14-15-10-13(23)6-7-16(15)24-17(14)12-25/h2-7,10,19,24H,8-9,11-12H2,1H3/t19-/m0/s1

>  <InChI Key>  (276) 
NBEJFSCBNZMQRH-IBGZPJMESA-N

>  <PERCENTSP3>  (276) 
27.3

>  <Link>  (276) 
https://www.chemdiv.com/catalog/screening-compounds/compound-Y020-3931/

>  <MFCDNUMBER>  (276) 
MFCD13677017

>  <CLNUMBER>  (276) 
CL2165

>  <STEREO>  (276) 
RACEMIC MIXTURE

>  <State>  (276) 
Solid

>  <Similarity score>  (276) 
0.23

$$$$
5-[(5-chloro-2-fluorophenyl)methyl]-2-[2-(3,4-dihydroisoquinolin-2(1H)-yl)ethyl]
     RDKit          2D

 31 35  0  0  0  0  0  0  0  0999 V2000
   -0.0353    0.7710    0.0000 N   0  0  0  0  0  0  0  0  0  0  0  0
    1.5441    0.4333    0.0000 C   0  0  0  0  0  0  0  0  0  0  0  0
    1.0440   -0.4292    0.0000 C   0  0  0  0  0  0  0  0  0  0  0  0
    0.8813    1.1837    0.0000 C   0  0  0  0  0  0  0  0  0  0  0  0
    0.0688   -0.2167    0.0000 C   0  0  0  0  0  0  0  0  0  0  0  0
    2.6319   -0.7669    0.0000 N   0  0  0  0  0  0  0  0  0  0  0  0
    3.4947   -2.2673    0.0000 C   0  0  0  0  0  0  0  0  0  0  0  0
    2.5278    0.2252    0.0000 C   0  0  0  0  0  0  0  0  0  0  0  0
    1.7192   -1.1754    0.0000 C   0  0  0  0  0  0  0  0  0  0  0  0
   -0.8982    1.2712    0.0000 C   0  0  0  0  0  0  0  0  0  0  0  0
   -1.7692    2.7716    0.0000 N   0  0  0  0  0  0  0  0  0  0  0  0
    3.4947   -1.2669    0.0000 C   0  0  0  0  0  0  0  0  0  0  0  0
    1.0898    2.1587    0.0000 O   0  0  0  0  0  0  0  0  0  0  0  0
   -0.6730   -0.8918    0.0000 O   0  0  0  0  0  0  0  0  0  0  0  0
   -3.4987    2.7716    0.0000 C   0  0  0  0  0  0  0  0  0  0  0  0
    4.3655   -2.7675    0.0000 C   0  0  0  0  0  0  0  0  0  0  0  0
   -2.6319    2.2714    0.0000 C   0  0  0  0  0  0  0  0  0  0  0  0
    2.6319   -2.7675    0.0000 C   0  0  0  0  0  0  0  0  0  0  0  0
   -3.4987    3.7717    0.0000 C   0  0  0  0  0  0  0  0  0  0  0  0
   -0.8982    2.2714    0.0000 C   0  0  0  0  0  0  0  0  0  0  0  0
   -2.6319    4.2678    0.0000 C   0  0  0  0  0  0  0  0  0  0  0  0
    4.3655   -3.7676    0.0000 C   0  0  0  0  0  0  0  0  0  0  0  0
   -1.7692    3.7717    0.0000 C   0  0  0  0  0  0  0  0  0  0  0  0
    2.6319   -3.7676    0.0000 C   0  0  0  0  0  0  0  0  0  0  0  0
    5.2325   -2.2673    0.0000 F   0  0  0  0  0  0  0  0  0  0  0  0
    3.4947   -4.2678    0.0000 C   0  0  0  0  0  0  0  0  0  0  0  0
    1.7650   -4.2678    0.0000 Cl  0  0  0  0  0  0  0  0  0  0  0  0
   -4.3698    2.2714    0.0000 C   0  0  0  0  0  0  0  0  0  0  0  0
   -4.3698    4.2678    0.0000 C   0  0  0  0  0  0  0  0  0  0  0  0
   -5.2325    2.7716    0.0000 C   0  0  0  0  0  0  0  0  0  0  0  0
   -5.2325    3.7717    0.0000 C   0  0  0  0  0  0  0  0  0  0  0  0
  2  4  1  0
  2  8  1  1
  2  3  1  0
  3  5  1  0
  3  9  1  1
  1  4  1  0
  1  5  1  0
  6  9  1  0
  6  8  1  0
  7 12  1  0
  1 10  1  0
 11 20  1  0
  6 12  1  0
  4 13  2  0
  5 14  2  0
 15 17  1  0
 15 19  2  0
  7 16  2  0
 11 17  1  0
  7 18  1  0
 19 21  1  0
 10 20  1  0
 21 23  1  0
 16 22  1  0
 11 23  1  0
 18 24  2  0
 16 25  1  0
 24 26  1  0
 22 26  2  0
 24 27  1  0
 15 28  1  0
 19 29  1  0
 28 30  2  0
 29 31  2  0
 30 31  1  0
M  END
>  <IDNUMBER>  (277) 
S296-2551

>  <available>  (277) 
10

>  <H_acceptor>  (277) 
6

>  <H_donor>  (277) 
0

>  <B_rotN>  (277) 
5

>  <N_O>  (277) 
5

>  <logP>  (277) 
3.1908

>  <logD>  (277) 
2.5211

>  <logSw>  (277) 
-3.4535

>  <PSA>  (277) 
37.079

>  <pKa_ma>  (277) 
18.9296

>  <pKa_mb>  (277) 
7.9651

>  <N_Chirals>  (277) 
0

>  <Name>  (277) 
5-[(5-chloro-2-fluorophenyl)methyl]-2-[2-(3,4-dihydroisoquinolin-2(1H)-yl)ethyl]tetrahydropyrrolo[3,4-c]pyrrole-1,3(2H,3aH)-dione

>  <Smile>  (277) 
O=C([C@H]1[C@@H]2CN(Cc(cc(cc3)Cl)c3F)C1)N(CCN(CC1)Cc3c1cccc3)C2=O

>  <Color>  (277) 
NOT COLORED

>  <Collection>  (277) 
IC

>  <InChI>  (277) 
InChI=1S/C24H25ClFN3O2/c25-19-5-6-22(26)18(11-19)13-28-14-20-21(15-28)24(31)29(23(20)30)10-9-27-8-7-16-3-1-2-4-17(16)12-27/h1-6,11,20-21H,7-10,12-15H2/t20-,21+

>  <InChI Key>  (277) 
XSGRYDBVWFFELZ-OYRHEFFESA-N

>  <PERCENTSP3>  (277) 
41.7

>  <Link>  (277) 
https://www.chemdiv.com/catalog/screening-compounds/compound-S296-2551/

>  <CLNUMBER>  (277) 
CM2464

>  <STEREO>  (277) 
ACHIRAL

>  <State>  (277) 
Solid

>  <Similarity score>  (277) 
0.23

$$$$
2-(4-methoxyphenyl)-4-[4-(propan-2-yl)piperazin-1-yl]-5,6,8,9-tetrahydrooxepino[
     RDKit          2D

 28 31  0  0  0  0  0  0  0  0999 V2000
   -0.7943    1.6311    0.0000 C   0  0  0  0  0  0  0  0  0  0  0  0
   -0.8665    0.6313    0.0000 N   0  0  0  0  0  0  0  0  0  0  0  0
   -1.6125    2.2015    0.0000 C   0  0  0  0  0  0  0  0  0  0  0  0
   -1.7724    0.1928    0.0000 C   0  0  0  0  0  0  0  0  0  0  0  0
   -2.5903    0.7631    0.0000 N   0  0  0  0  0  0  0  0  0  0  0  0
    0.1113    2.0699    0.0000 N   0  0  0  0  0  0  0  0  0  0  0  0
   -2.5213    1.7627    0.0000 C   0  0  0  0  0  0  0  0  0  0  0  0
    1.9164    2.9287    0.0000 N   0  0  0  0  0  0  0  0  0  0  0  0
   -1.8443   -0.7977    0.0000 C   0  0  0  0  0  0  0  0  0  0  0  0
    0.1834    3.0602    0.0000 C   0  0  0  0  0  0  0  0  0  0  0  0
    0.9387    1.4996    0.0000 C   0  0  0  0  0  0  0  0  0  0  0  0
    1.0890    3.4990    0.0000 C   0  0  0  0  0  0  0  0  0  0  0  0
    1.8380    1.9384    0.0000 C   0  0  0  0  0  0  0  0  0  0  0  0
   -3.0290    3.9503    0.0000 O   0  0  0  0  0  0  0  0  0  0  0  0
   -2.7469   -1.2362    0.0000 C   0  0  0  0  0  0  0  0  0  0  0  0
   -1.0201   -1.3585    0.0000 C   0  0  0  0  0  0  0  0  0  0  0  0
    2.8095    3.3674    0.0000 C   0  0  0  0  0  0  0  0  0  0  0  0
   -3.4269    2.2015    0.0000 C   0  0  0  0  0  0  0  0  0  0  0  0
   -1.3962    3.1730    0.0000 C   0  0  0  0  0  0  0  0  0  0  0  0
   -1.9979   -2.7971    0.0000 C   0  0  0  0  0  0  0  0  0  0  0  0
   -2.8158   -2.2268    0.0000 C   0  0  0  0  0  0  0  0  0  0  0  0
   -1.0920   -2.3583    0.0000 C   0  0  0  0  0  0  0  0  0  0  0  0
   -2.0701   -3.7874    0.0000 O   0  0  0  0  0  0  0  0  0  0  0  0
   -3.6432    3.1730    0.0000 C   0  0  0  0  0  0  0  0  0  0  0  0
   -2.0229    3.9503    0.0000 C   0  0  0  0  0  0  0  0  0  0  0  0
    2.8942    4.3577    0.0000 C   0  0  0  0  0  0  0  0  0  0  0  0
    3.6432    2.8064    0.0000 C   0  0  0  0  0  0  0  0  0  0  0  0
   -1.2426   -4.3577    0.0000 C   0  0  0  0  0  0  0  0  0  0  0  0
  1  2  2  0
  1  3  1  0
  2  4  1  0
  5  7  1  0
  4  5  2  0
  1  6  1  0
  3  7  2  0
  8 13  1  0
  4  9  1  0
  6 10  1  0
  6 11  1  0
 10 12  1  0
  8 12  1  0
 11 13  1  0
 14 25  1  0
  9 15  2  0
  9 16  1  0
  8 17  1  0
  7 18  1  0
  3 19  1  0
 20 22  1  0
 15 21  1  0
 20 21  2  0
 16 22  2  0
 20 23  1  0
 18 24  1  0
 14 24  1  0
 19 25  1  0
 17 26  1  0
 17 27  1  0
 23 28  1  0
M  END
>  <IDNUMBER>  (278) 
S896-0142

>  <available>  (278) 
123

>  <H_acceptor>  (278) 
5

>  <H_donor>  (278) 
0

>  <B_rotN>  (278) 
4

>  <N_O>  (278) 
6

>  <logP>  (278) 
4.4056

>  <logD>  (278) 
2.7295

>  <logSw>  (278) 
-4.321

>  <PSA>  (278) 
42.992

>  <pKa_ma>  (278) 
19.7965

>  <pKa_mb>  (278) 
9.0668

>  <N_Chirals>  (278) 
0

>  <Name>  (278) 
2-(4-methoxyphenyl)-4-[4-(propan-2-yl)piperazin-1-yl]-5,6,8,9-tetrahydrooxepino[4,5-d]pyrimidine

>  <Smile>  (278) 
CC(C)N(CC1)CCN1c1nc(-c(cc2)ccc2OC)nc2c1CCOCC2

>  <Color>  (278) 
BROWN

>  <Collection>  (278) 
IC

>  <InChI>  (278) 
InChI=1S/C22H30N4O2/c1-16(2)25-10-12-26(13-11-25)22-19-8-14-28-15-9-20(19)23-21(24-22)17-4-6-18(27-3)7-5-17/h4-7,16H,8-15H2,1-3H3

>  <InChI Key>  (278) 
SLBPAOIDZGTIBV-UHFFFAOYSA-N

>  <PERCENTSP3>  (278) 
54.54

>  <Link>  (278) 
https://www.chemdiv.com/catalog/screening-compounds/compound-S896-0142/

>  <MFCDNUMBER>  (278) 
MFCD31956796

>  <CLNUMBER>  (278) 
CM3993

>  <STEREO>  (278) 
ACHIRAL

>  <State>  (278) 
Solid

>  <Similarity score>  (278) 
0.23

$$$$
4-[(2,6-difluorophenyl)methyl]-5,8-difluoro-7-(piperidin-1-yl)-3,4-dihydro-1lamb
     RDKit          2D

 29 32  0  0  0  0  0  0  0  0999 V2000
    0.4307   -1.2488    0.0000 C   0  0  0  0  0  0  0  0  0  0  0  0
    1.2979   -1.7494    0.0000 S   0  0  0  0  0  0  0  0  0  0  0  0
   -0.4365   -1.7494    0.0000 C   0  0  0  0  0  0  0  0  0  0  0  0
    0.4307   -0.2534    0.0000 C   0  0  0  0  0  0  0  0  0  0  0  0
   -1.3040   -1.2488    0.0000 C   0  0  0  0  0  0  0  0  0  0  0  0
   -1.3040   -0.2534    0.0000 N   0  0  0  0  0  0  0  0  0  0  0  0
    1.2979    0.2473    0.0000 N   0  0  0  0  0  0  0  0  0  0  0  0
   -0.4365    0.2473    0.0000 C   0  0  0  0  0  0  0  0  0  0  0  0
    2.1651    1.7494    0.0000 C   0  0  0  0  0  0  0  0  0  0  0  0
    1.2979    1.2488    0.0000 C   0  0  0  0  0  0  0  0  0  0  0  0
    2.1651   -1.2488    0.0000 C   0  0  0  0  0  0  0  0  0  0  0  0
   -2.1712   -1.7494    0.0000 N   0  0  0  0  0  0  0  0  0  0  0  0
    2.1651   -0.2534    0.0000 C   0  0  0  0  0  0  0  0  0  0  0  0
    2.1651   -2.2501    0.0000 O   0  0  0  0  0  0  0  0  0  0  0  0
    0.4307   -2.2501    0.0000 O   0  0  0  0  0  0  0  0  0  0  0  0
    3.0326    1.2488    0.0000 C   0  0  0  0  0  0  0  0  0  0  0  0
    2.1651    2.7509    0.0000 C   0  0  0  0  0  0  0  0  0  0  0  0
   -0.4365   -2.7448    0.0000 F   0  0  0  0  0  0  0  0  0  0  0  0
   -0.4365    1.2488    0.0000 F   0  0  0  0  0  0  0  0  0  0  0  0
    1.3040    3.2516    0.0000 F   0  0  0  0  0  0  0  0  0  0  0  0
    3.0326    0.2534    0.0000 F   0  0  0  0  0  0  0  0  0  0  0  0
   -3.0384   -1.2488    0.0000 C   0  0  0  0  0  0  0  0  0  0  0  0
   -2.1712   -2.7509    0.0000 C   0  0  0  0  0  0  0  0  0  0  0  0
    3.8998    2.7509    0.0000 C   0  0  0  0  0  0  0  0  0  0  0  0
    3.0326    3.2516    0.0000 C   0  0  0  0  0  0  0  0  0  0  0  0
    3.8998    1.7494    0.0000 C   0  0  0  0  0  0  0  0  0  0  0  0
   -3.8998   -1.7494    0.0000 C   0  0  0  0  0  0  0  0  0  0  0  0
   -3.0384   -3.2516    0.0000 C   0  0  0  0  0  0  0  0  0  0  0  0
   -3.8998   -2.7509    0.0000 C   0  0  0  0  0  0  0  0  0  0  0  0
  1  2  1  0
  1  3  1  0
  1  4  2  0
  3  5  2  0
  6  8  2  0
  5  6  1  0
  4  7  1  0
  4  8  1  0
  9 10  1  0
  7 10  1  0
  2 11  1  0
  5 12  1  0
  7 13  1  0
 11 13  1  0
  2 14  2  0
  2 15  2  0
  9 16  2  0
  9 17  1  0
  3 18  1  0
  8 19  1  0
 17 20  1  0
 16 21  1  0
 12 22  1  0
 12 23  1  0
 24 25  1  0
 24 26  2  0
 17 25  2  0
 16 26  1  0
 22 27  1  0
 23 28  1  0
 28 29  1  0
 27 29  1  0
M  END
>  <IDNUMBER>  (279) 
8610-0654

>  <available>  (279) 
74

>  <H_acceptor>  (279) 
5

>  <H_donor>  (279) 
0

>  <B_rotN>  (279) 
3

>  <N_O>  (279) 
5

>  <logP>  (279) 
3.8125

>  <logD>  (279) 
3.8125

>  <logSw>  (279) 
-4.0223

>  <PSA>  (279) 
47.137

>  <pKa_ma>  (279) 
21.3867

>  <pKa_mb>  (279) 
0.527

>  <N_Chirals>  (279) 
0

>  <Name>  (279) 
4-[(2,6-difluorophenyl)methyl]-5,8-difluoro-7-(piperidin-1-yl)-3,4-dihydro-1lambda~6~-pyrido[4,3-b][1,4]thiazine-1,1(2H)-dione

>  <Smile>  (279) 
O=S(CCN(Cc(c(F)ccc1)c1F)c1c(nc2N3CCCCC3)F)(c1c2F)=O

>  <Color>  (279) 
NOT COLORED

>  <Collection>  (279) 
DC

>  <InChI>  (279) 
InChI=1S/C19H19F4N3O2S/c20-13-5-4-6-14(21)12(13)11-26-9-10-29(27,28)17-15(22)19(24-18(23)16(17)26)25-7-2-1-3-8-25/h4-6H,1-3,7-11H2

>  <InChI Key>  (279) 
KNTZNEPRCXQUQI-UHFFFAOYSA-N

>  <PERCENTSP3>  (279) 
42.1

>  <Link>  (279) 
https://www.chemdiv.com/catalog/screening-compounds/compound-8610-0654/

>  <MFCDNUMBER>  (279) 
MFCD08053449

>  <STEREO>  (279) 
ACHIRAL

>  <State>  (279) 
Solid

>  <Similarity score>  (279) 
0.23

$$$$
N-(4-ethylphenyl)-2-(9-fluoro-6-methyl-10-oxo-3,4,5,10-tetrahydrobenzo[b][1,6]na
     RDKit          2D

 29 32  0  0  0  0  0  0  0  0999 V2000
   -0.4731   -1.9516    0.0000 C   0  0  0  0  0  0  0  0  0  0  0  0
   -1.3281   -1.4595    0.0000 C   0  0  0  0  0  0  0  0  0  0  0  0
   -2.2115   -1.9516    0.0000 C   0  0  0  0  0  0  0  0  0  0  0  0
   -1.3563   -3.4423    0.0000 N   0  0  0  0  0  0  0  0  0  0  0  0
   -2.2115   -2.9381    0.0000 C   0  0  0  0  0  0  0  0  0  0  0  0
   -0.4731   -2.9569    0.0000 C   0  0  0  0  0  0  0  0  0  0  0  0
    1.3093   -1.9516    0.0000 N   0  0  0  0  0  0  0  0  0  0  0  0
    0.4385   -1.4783    0.0000 C   0  0  0  0  0  0  0  0  0  0  0  0
    2.1958   -0.4948    0.0000 C   0  0  0  0  0  0  0  0  0  0  0  0
   -3.0980   -1.4783    0.0000 C   0  0  0  0  0  0  0  0  0  0  0  0
    0.4258   -3.4423    0.0000 C   0  0  0  0  0  0  0  0  0  0  0  0
   -3.0980   -3.4235    0.0000 C   0  0  0  0  0  0  0  0  0  0  0  0
   -1.3281   -0.4760    0.0000 O   0  0  0  0  0  0  0  0  0  0  0  0
    3.0978   -0.0064    0.0000 N   0  0  0  0  0  0  0  0  0  0  0  0
    2.1958   -1.4783    0.0000 C   0  0  0  0  0  0  0  0  0  0  0  0
    1.3093   -0.0064    0.0000 O   0  0  0  0  0  0  0  0  0  0  0  0
    1.3093   -2.9569    0.0000 C   0  0  0  0  0  0  0  0  0  0  0  0
   -3.9718   -1.9516    0.0000 C   0  0  0  0  0  0  0  0  0  0  0  0
   -3.9718   -2.9381    0.0000 C   0  0  0  0  0  0  0  0  0  0  0  0
    3.0978    0.9741    0.0000 C   0  0  0  0  0  0  0  0  0  0  0  0
   -3.0980   -0.4666    0.0000 F   0  0  0  0  0  0  0  0  0  0  0  0
    3.0978    2.9193    0.0000 C   0  0  0  0  0  0  0  0  0  0  0  0
    3.9718    1.4501    0.0000 C   0  0  0  0  0  0  0  0  0  0  0  0
    2.2207    1.4501    0.0000 C   0  0  0  0  0  0  0  0  0  0  0  0
    2.2207    2.4370    0.0000 C   0  0  0  0  0  0  0  0  0  0  0  0
    3.9718    2.4370    0.0000 C   0  0  0  0  0  0  0  0  0  0  0  0
   -3.1074   -4.4228    0.0000 C   0  0  0  0  0  0  0  0  0  0  0  0
    3.0978    3.9217    0.0000 C   0  0  0  0  0  0  0  0  0  0  0  0
    3.9530    4.4228    0.0000 C   0  0  0  0  0  0  0  0  0  0  0  0
  1  2  1  0
  2  3  1  0
  3  5  1  0
  4  6  1  0
  4  5  1  0
  1  6  2  0
  7  8  1  0
  1  8  1  0
  9 15  1  0
  3 10  2  0
  6 11  1  0
 11 17  1  0
  5 12  2  0
  2 13  2  0
  9 14  1  0
  7 15  1  0
  9 16  2  0
  7 17  1  0
 10 18  1  0
 18 19  2  0
 12 19  1  0
 14 20  1  0
 10 21  1  0
 22 25  2  0
 22 26  1  0
 20 23  1  0
 20 24  2  0
 24 25  1  0
 23 26  2  0
 12 27  1  0
 22 28  1  0
 28 29  1  0
M  END
>  <IDNUMBER>  (280) 
L489-1875

>  <available>  (280) 
80

>  <H_acceptor>  (280) 
5

>  <H_donor>  (280) 
2

>  <B_rotN>  (280) 
5

>  <N_O>  (280) 
5

>  <logP>  (280) 
4.5299

>  <logD>  (280) 
3.6329

>  <logSw>  (280) 
-4.3129

>  <PSA>  (280) 
48.811

>  <pKa_ma>  (280) 
6.5619

>  <pKa_mb>  (280) 
1.3454

>  <N_Chirals>  (280) 
0

>  <Name>  (280) 
N-(4-ethylphenyl)-2-(9-fluoro-6-methyl-10-oxo-3,4,5,10-tetrahydrobenzo[b][1,6]naphthyridin-2(1H)-yl)acetamide

>  <Smile>  (280) 
CCc(cc1)ccc1NC(CN(CC1)CC2=C1Nc1c(C)ccc(F)c1C2=O)=O

>  <Color>  (280) 
YELLOW

>  <Collection>  (280) 
NC

>  <InChI>  (280) 
InChI=1S/C23H24FN3O2/c1-3-15-5-7-16(8-6-15)25-20(28)13-27-11-10-19-17(12-27)23(29)21-18(24)9-4-14(2)22(21)26-19/h4-9H,3,10-13H2,1-2H3,(H,25,28)(H,26,29)

>  <InChI Key>  (280) 
OTIAHRQWKFYHIZ-UHFFFAOYSA-N

>  <PERCENTSP3>  (280) 
30.4

>  <Link>  (280) 
https://www.chemdiv.com/catalog/screening-compounds/compound-L489-1875/

>  <MFCDNUMBER>  (280) 
MFCD27457661

>  <CLNUMBER>  (280) 
CL8213A

>  <STEREO>  (280) 
ACHIRAL

>  <State>  (280) 
Solid

>  <Similarity score>  (280) 
0.23

$$$$
2-{4-[4-cyano-1-(2-methylpropyl)-6,7-dihydro-5H-cyclopenta[c]pyridin-3-yl]pipera
     RDKit          2D

 35 39  0  0  0  0  0  0  0  0999 V2000
   -1.8237   -1.2631    0.0000 C   0  0  0  0  0  0  0  0  0  0  0  0
   -2.6867   -0.7628    0.0000 C   0  0  0  0  0  0  0  0  0  0  0  0
   -1.8237   -2.2637    0.0000 N   0  0  0  0  0  0  0  0  0  0  0  0
   -2.6867   -2.7639    0.0000 C   0  0  0  0  0  0  0  0  0  0  0  0
   -3.5541   -1.2631    0.0000 C   0  0  0  0  0  0  0  0  0  0  0  0
   -0.9608   -0.7628    0.0000 N   0  0  0  0  0  0  0  0  0  0  0  0
   -3.5621   -2.2637    0.0000 C   0  0  0  0  0  0  0  0  0  0  0  0
   -2.6867    0.2376    0.0000 C   0  0  0  0  0  0  0  0  0  0  0  0
    2.5075    2.2512    0.0000 N   0  0  0  0  0  0  0  0  0  0  0  0
    1.6445    1.7509    0.0000 C   0  0  0  0  0  0  0  0  0  0  0  0
    2.5075    3.2683    0.0000 C   0  0  0  0  0  0  0  0  0  0  0  0
   -2.6867    1.2381    0.0000 N   0  0  0  0  0  0  0  0  0  0  0  0
    0.7816    0.2376    0.0000 N   0  0  0  0  0  0  0  0  0  0  0  0
    3.3703    3.7643    0.0000 C   0  0  0  0  0  0  0  0  0  0  0  0
   -2.6867   -3.7602    0.0000 C   0  0  0  0  0  0  0  0  0  0  0  0
   -0.9608    0.2376    0.0000 C   0  0  0  0  0  0  0  0  0  0  0  0
   -0.0981   -1.2631    0.0000 C   0  0  0  0  0  0  0  0  0  0  0  0
    1.6445    0.7503    0.0000 C   0  0  0  0  0  0  0  0  0  0  0  0
    0.7816    2.2512    0.0000 O   0  0  0  0  0  0  0  0  0  0  0  0
    0.7816   -0.7628    0.0000 C   0  0  0  0  0  0  0  0  0  0  0  0
   -0.0981    0.7378    0.0000 C   0  0  0  0  0  0  0  0  0  0  0  0
    3.3703    4.7606    0.0000 C   0  0  0  0  0  0  0  0  0  0  0  0
   -4.5000   -0.9463    0.0000 C   0  0  0  0  0  0  0  0  0  0  0  0
   -4.5170   -2.5637    0.0000 C   0  0  0  0  0  0  0  0  0  0  0  0
    1.6445    3.7643    0.0000 C   0  0  0  0  0  0  0  0  0  0  0  0
   -5.0962   -1.7591    0.0000 C   0  0  0  0  0  0  0  0  0  0  0  0
    1.6445    4.7606    0.0000 C   0  0  0  0  0  0  0  0  0  0  0  0
   -3.5621   -4.2603    0.0000 C   0  0  0  0  0  0  0  0  0  0  0  0
    4.2334    3.2683    0.0000 C   0  0  0  0  0  0  0  0  0  0  0  0
    2.5075    5.2609    0.0000 C   0  0  0  0  0  0  0  0  0  0  0  0
    4.2334    5.2609    0.0000 C   0  0  0  0  0  0  0  0  0  0  0  0
   -4.4251   -3.7602    0.0000 C   0  0  0  0  0  0  0  0  0  0  0  0
   -3.5621   -5.2609    0.0000 C   0  0  0  0  0  0  0  0  0  0  0  0
    5.0962    3.7643    0.0000 C   0  0  0  0  0  0  0  0  0  0  0  0
    5.0962    4.7606    0.0000 C   0  0  0  0  0  0  0  0  0  0  0  0
  1  2  2  0
  1  3  1  0
  3  4  2  0
  2  5  1  0
  1  6  1  0
  4  7  1  0
  5  7  2  0
  2  8  1  0
  9 10  1  0
 10 18  1  0
  9 11  1  0
  8 12  3  0
 13 20  1  0
 13 21  1  0
 11 14  2  0
  4 15  1  0
  6 16  1  0
  6 17  1  0
 13 18  1  0
 10 19  2  0
 17 20  1  0
 16 21  1  0
 14 22  1  0
 22 30  2  0
  5 23  1  0
  7 24  1  0
 11 25  1  0
 23 26  1  0
 24 26  1  0
 25 27  2  0
 15 28  1  0
 14 29  1  0
 27 30  1  0
 22 31  1  0
 28 32  1  0
 28 33  1  0
 29 34  2  0
 34 35  1  0
 31 35  2  0
M  END
>  <IDNUMBER>  (281) 
IB07-8271

>  <available>  (281) 
50

>  <H_acceptor>  (281) 
5

>  <H_donor>  (281) 
1

>  <B_rotN>  (281) 
8

>  <N_O>  (281) 
6

>  <logP>  (281) 
5.83

>  <logD>  (281) 
5.75

>  <logSw>  (281) 
-6.5

>  <PSA>  (281) 
89.37

>  <pKa_ma>  (281) 
11.87

>  <pKa_mb>  (281) 
6.7

>  <N_Chirals>  (281) 
0

>  <Name>  (281) 
2-{4-[4-cyano-1-(2-methylpropyl)-6,7-dihydro-5H-cyclopenta[c]pyridin-3-yl]piperazin-1-yl}-N-(naphthalen-1-yl)acetamide

>  <Smile>  (281) 
CC(C)Cc(nc1N2CCN(CC(Nc3cccc4ccccc34)=O)CC2)c(CCC2)c2c1C#N

>  <Color>  (281) 
NOT COLORED

>  <Collection>  (281) 
DC

>  <InChI>  (281) 
InChI=1S/C29H33N5O/c1-20(2)17-27-24-11-6-10-23(24)25(18-30)29(32-27)34-15-13-33(14-16-34)19-28(35)31-26-12-5-8-21-7-3-4-9-22(21)26/h3-5,7-9,12,20H,6,10-11,13-17,19H2,1-2H3,(H,31,35)

>  <InChI Key>  (281) 
XFCMUFICBXEFGY-UHFFFAOYSA-N

>  <PERCENTSP3>  (281) 
41.4

>  <Link>  (281) 
https://www.chemdiv.com/catalog/screening-compounds/compound-IB07-8271/

>  <STEREO>  (281) 
ACHIRAL

>  <State>  (281) 
Solid

>  <Similarity score>  (281) 
0.23

$$$$
rel-(3R,4R)-N-cyclopropyl-1-[(2,6-difluorophenyl)methyl]-4-(methoxymethyl)pyrrol
     RDKit          2D

 23 25  0  0  0  0  0  0  0  0999 V2000
    0.2936    1.2353    0.0000 C   0  0  0  0  0  0  0  0  0  0  0  0
    0.2936    2.2434    0.0000 C   0  0  0  0  0  0  0  0  0  0  0  0
   -1.7683   -1.0186    0.0000 C   0  0  0  0  0  0  0  0  0  0  0  0
   -0.1937   -0.3062    0.0000 N   0  0  0  0  0  0  0  0  0  0  0  0
    1.1143    0.6561    0.0000 C   0  0  0  0  0  0  0  0  0  0  0  0
   -0.5812    2.7309    0.0000 N   0  0  0  0  0  0  0  0  0  0  0  0
   -0.7729   -1.1186    0.0000 C   0  0  0  0  0  0  0  0  0  0  0  0
   -0.5062    0.6438    0.0000 C   0  0  0  0  0  0  0  0  0  0  0  0
    0.8061   -0.2936    0.0000 C   0  0  0  0  0  0  0  0  0  0  0  0
   -1.4435    2.2309    0.0000 C   0  0  0  0  0  0  0  0  0  0  0  0
   -2.3559   -1.8310    0.0000 C   0  0  0  0  0  0  0  0  0  0  0  0
   -2.1810   -0.1062    0.0000 C   0  0  0  0  0  0  0  0  0  0  0  0
   -2.4434    2.2184    0.0000 C   0  0  0  0  0  0  0  0  0  0  0  0
   -1.9309    1.3560    0.0000 C   0  0  0  0  0  0  0  0  0  0  0  0
    1.1561    2.7433    0.0000 O   0  0  0  0  0  0  0  0  0  0  0  0
   -1.5977    0.7062    0.0000 F   0  0  0  0  0  0  0  0  0  0  0  0
   -1.9352   -2.7433    0.0000 F   0  0  0  0  0  0  0  0  0  0  0  0
    2.0559    0.9686    0.0000 C   0  0  0  0  0  0  0  0  0  0  0  0
    2.8057    0.3062    0.0000 O   0  0  0  0  0  0  0  0  0  0  0  0
   -3.7557   -0.8187    0.0000 C   0  0  0  0  0  0  0  0  0  0  0  0
   -3.3433   -1.7310    0.0000 C   0  0  0  0  0  0  0  0  0  0  0  0
   -3.1807   -0.0063    0.0000 C   0  0  0  0  0  0  0  0  0  0  0  0
    3.7557    0.6229    0.0000 C   0  0  0  0  0  0  0  0  0  0  0  0
  1  2  1  1
  3  7  1  0
  4  8  1  0
  4  9  1  0
  1  5  1  0
  5 18  1  6
  2  6  1  0
  4  7  1  0
  1  8  1  0
  5  9  1  0
  6 10  1  0
  3 11  1  0
  3 12  2  0
 10 13  1  0
 13 14  1  0
 10 14  1  0
  2 15  2  0
 12 16  1  0
 11 17  1  0
 18 19  1  0
 20 22  2  0
 11 21  2  0
 20 21  1  0
 12 22  1  0
 19 23  1  0
M  END
>  <IDNUMBER>  (282) 
S836-6181

>  <available>  (282) 
3

>  <H_acceptor>  (282) 
4

>  <H_donor>  (282) 
1

>  <B_rotN>  (282) 
7

>  <N_O>  (282) 
4

>  <logP>  (282) 
1.8092

>  <logD>  (282) 
0.0705

>  <logSw>  (282) 
-2.4649

>  <PSA>  (282) 
37.097

>  <pKa_ma>  (282) 
12.3863

>  <pKa_mb>  (282) 
9.1307

>  <N_Chirals>  (282) 
2

>  <Name>  (282) 
rel-(3R,4R)-N-cyclopropyl-1-[(2,6-difluorophenyl)methyl]-4-(methoxymethyl)pyrrolidine-3-carboxamide

>  <Smile>  (282) 
COC[C@@H](CN(Cc(c(F)ccc1)c1F)C1)[C@H]1C(NC1CC1)=O

>  <Color>  (282) 
NOT COLORED

>  <Collection>  (282) 
IC

>  <InChI>  (282) 
InChI=1S/C17H22F2N2O2/c1-23-10-11-7-21(8-13(11)17(22)20-12-5-6-12)9-14-15(18)3-2-4-16(14)19/h2-4,11-13H,5-10H2,1H3,(H,20,22)/t11-,13+/m0/s1

>  <InChI Key>  (282) 
ROOSJTJOESJGMV-WCQYABFASA-N

>  <PERCENTSP3>  (282) 
58.82

>  <Link>  (282) 
https://www.chemdiv.com/catalog/screening-compounds/compound-S836-6181/

>  <CLNUMBER>  (282) 
CM4497

>  <STEREO>  (282) 
RELATIVE

>  <State>  (282) 
Solid

>  <Similarity score>  (282) 
0.23

$$$$
2,2,2-trifluoroethyl 2-{[2-(5-fluoro-2-methyl-1H-indol-3-yl)ethyl]carbamoyl}cycl
     RDKit          2D

 30 32  0  0  0  0  0  0  0  0999 V2000
    4.2060    1.2993    0.0000 N   0  0  0  0  0  0  0  0  0  0  0  0
    2.5968    1.1289    0.0000 C   0  0  0  0  0  0  0  0  0  0  0  0
    3.3397    1.7995    0.0000 C   0  0  0  0  0  0  0  0  0  0  0  0
    3.0008    0.2157    0.0000 C   0  0  0  0  0  0  0  0  0  0  0  0
    3.9955    0.3208    0.0000 C   0  0  0  0  0  0  0  0  0  0  0  0
   -3.6313    0.6814    0.0000 C   0  0  0  0  0  0  0  0  0  0  0  0
   -2.0348   -1.4278    0.0000 C   0  0  0  0  0  0  0  0  0  0  0  0
   -1.0563   -1.6361    0.0000 C   0  0  0  0  0  0  0  0  0  0  0  0
   -0.3914   -0.8935    0.0000 C   0  0  0  0  0  0  0  0  0  0  0  0
   -0.7013    0.0599    0.0000 C   0  0  0  0  0  0  0  0  0  0  0  0
   -2.3447   -0.4802    0.0000 O   0  0  0  0  0  0  0  0  0  0  0  0
    2.5968   -0.7011    0.0000 C   0  0  0  0  0  0  0  0  0  0  0  0
   -2.7052   -2.1709    0.0000 O   0  0  0  0  0  0  0  0  0  0  0  0
   -1.6744    0.2645    0.0000 O   0  0  0  0  0  0  0  0  0  0  0  0
    4.5826   -0.4891    0.0000 C   0  0  0  0  0  0  0  0  0  0  0  0
   -3.3233   -0.2717    0.0000 C   0  0  0  0  0  0  0  0  0  0  0  0
   -0.0306    0.7992    0.0000 N   0  0  0  0  0  0  0  0  0  0  0  0
   -2.6835    0.9911    0.0000 F   0  0  0  0  0  0  0  0  0  0  0  0
   -3.9392    1.6344    0.0000 F   0  0  0  0  0  0  0  0  0  0  0  0
   -4.5826    0.3732    0.0000 F   0  0  0  0  0  0  0  0  0  0  0  0
    3.1838   -1.5111    0.0000 C   0  0  0  0  0  0  0  0  0  0  0  0
    1.6182    1.3391    0.0000 C   0  0  0  0  0  0  0  0  0  0  0  0
    4.1788   -1.4061    0.0000 C   0  0  0  0  0  0  0  0  0  0  0  0
    2.7743   -2.4226    0.0000 F   0  0  0  0  0  0  0  0  0  0  0  0
    3.2345    2.7960    0.0000 C   0  0  0  0  0  0  0  0  0  0  0  0
    0.9477    0.5945    0.0000 C   0  0  0  0  0  0  0  0  0  0  0  0
   -0.7518   -2.5875    0.0000 C   0  0  0  0  0  0  0  0  0  0  0  0
    0.5871   -1.1017    0.0000 C   0  0  0  0  0  0  0  0  0  0  0  0
    0.2266   -2.7960    0.0000 C   0  0  0  0  0  0  0  0  0  0  0  0
    0.8952   -2.0547    0.0000 C   0  0  0  0  0  0  0  0  0  0  0  0
  2  3  2  0
  2  4  1  0
  1  3  1  0
  4  5  2  0
  1  5  1  0
  6 16  1  0
  6 18  1  0
  7  8  1  0
  8  9  1  0
  9 10  1  0
 10 17  1  0
  7 11  1  0
  4 12  1  0
  7 13  2  0
 10 14  2  0
  5 15  1  0
 11 16  1  0
 17 26  1  0
  6 19  1  0
  6 20  1  0
 21 23  1  0
 12 21  2  0
  2 22  1  0
 15 23  2  0
 21 24  1  0
  3 25  1  0
 22 26  1  0
  8 27  1  0
  9 28  1  0
 29 30  1  0
 27 29  1  0
 28 30  1  0
M  END
>  <IDNUMBER>  (283) 
8015-2270

>  <available>  (283) 
18

>  <H_acceptor>  (283) 
5

>  <H_donor>  (283) 
2

>  <B_rotN>  (283) 
9

>  <N_O>  (283) 
5

>  <logP>  (283) 
4.3268

>  <logD>  (283) 
4.3268

>  <logSw>  (283) 
-4.393

>  <PSA>  (283) 
55.741

>  <pKa_ma>  (283) 
13.6013

>  <pKa_mb>  (283) 
-0.2259

>  <N_Chirals>  (283) 
2

>  <Name>  (283) 
2,2,2-trifluoroethyl 2-{[2-(5-fluoro-2-methyl-1H-indol-3-yl)ethyl]carbamoyl}cyclohexane-1-carboxylate

>  <Smile>  (283) 
Cc1c(CCNC(C(CCCC2)C2C(OCC(F)(F)F)=O)=O)c(cc(cc2)F)c2[nH]1

>  <Color>  (283) 
NOT COLORED

>  <Collection>  (283) 
DC

>  <InChI>  (283) 
InChI=1S/C21H24F4N2O3/c1-12-14(17-10-13(22)6-7-18(17)27-12)8-9-26-19(28)15-4-2-3-5-16(15)20(29)30-11-21(23,24)25/h6-7,10,15-16,27H,2-5,8-9,11H2,1H3,(H,26,28)

>  <InChI Key>  (283) 
HQXIZVJDSDFGJE-UHFFFAOYSA-N

>  <PERCENTSP3>  (283) 
52.38

>  <Link>  (283) 
https://www.chemdiv.com/catalog/screening-compounds/compound-8015-2270/

>  <MFCDNUMBER>  (283) 
MFCD03856136

>  <CLNUMBER>  (283) 
CL2171

>  <STEREO>  (283) 
MIXTURE OF STEREOISOMERS

>  <State>  (283) 
Solid

>  <Similarity score>  (283) 
0.22

$$$$
rel-(3R,4R)-N-cyclopropyl-1-[(2,5-difluorophenyl)methyl]-4-(methoxymethyl)pyrrol
     RDKit          2D

 23 25  0  0  0  0  0  0  0  0999 V2000
    0.2937    1.2352    0.0000 C   0  0  0  0  0  0  0  0  0  0  0  0
    0.2937    2.2433    0.0000 C   0  0  0  0  0  0  0  0  0  0  0  0
   -0.1936   -0.3062    0.0000 N   0  0  0  0  0  0  0  0  0  0  0  0
    1.1143    0.6561    0.0000 C   0  0  0  0  0  0  0  0  0  0  0  0
   -1.7682   -1.0185    0.0000 C   0  0  0  0  0  0  0  0  0  0  0  0
   -0.5812    2.7307    0.0000 N   0  0  0  0  0  0  0  0  0  0  0  0
   -0.5062    0.6437    0.0000 C   0  0  0  0  0  0  0  0  0  0  0  0
   -0.7728   -1.1185    0.0000 C   0  0  0  0  0  0  0  0  0  0  0  0
    0.8061   -0.2937    0.0000 C   0  0  0  0  0  0  0  0  0  0  0  0
   -1.4434    2.2306    0.0000 C   0  0  0  0  0  0  0  0  0  0  0  0
   -2.3557   -1.8309    0.0000 C   0  0  0  0  0  0  0  0  0  0  0  0
   -2.4433    2.2183    0.0000 C   0  0  0  0  0  0  0  0  0  0  0  0
   -1.9308    1.3558    0.0000 C   0  0  0  0  0  0  0  0  0  0  0  0
   -2.1807   -0.1062    0.0000 C   0  0  0  0  0  0  0  0  0  0  0  0
    1.1560    2.7431    0.0000 O   0  0  0  0  0  0  0  0  0  0  0  0
   -3.3430   -1.7309    0.0000 C   0  0  0  0  0  0  0  0  0  0  0  0
   -3.1805   -0.0063    0.0000 C   0  0  0  0  0  0  0  0  0  0  0  0
   -1.9351   -2.7431    0.0000 F   0  0  0  0  0  0  0  0  0  0  0  0
   -3.7554   -0.8186    0.0000 C   0  0  0  0  0  0  0  0  0  0  0  0
   -3.5929    0.9061    0.0000 F   0  0  0  0  0  0  0  0  0  0  0  0
    2.0557    0.9686    0.0000 C   0  0  0  0  0  0  0  0  0  0  0  0
    2.8057    0.3062    0.0000 O   0  0  0  0  0  0  0  0  0  0  0  0
    3.7554    0.6229    0.0000 C   0  0  0  0  0  0  0  0  0  0  0  0
  1  2  1  1
  3  7  1  0
  3  9  1  0
  1  4  1  0
  4 21  1  6
  5  8  1  0
  2  6  1  0
  1  7  1  0
  3  8  1  0
  4  9  1  0
  6 10  1  0
  5 11  2  0
 10 12  1  0
 10 13  1  0
 12 13  1  0
  5 14  1  0
  2 15  2  0
 11 16  1  0
 16 19  2  0
 14 17  2  0
 11 18  1  0
 17 19  1  0
 17 20  1  0
 21 22  1  0
 22 23  1  0
M  END
>  <IDNUMBER>  (284) 
S836-6179

>  <available>  (284) 
4

>  <H_acceptor>  (284) 
4

>  <H_donor>  (284) 
1

>  <B_rotN>  (284) 
7

>  <N_O>  (284) 
4

>  <logP>  (284) 
2.1307

>  <logD>  (284) 
0.2583

>  <logSw>  (284) 
-2.8274

>  <PSA>  (284) 
37.097

>  <pKa_ma>  (284) 
12.3863

>  <pKa_mb>  (284) 
9.2665

>  <N_Chirals>  (284) 
2

>  <Name>  (284) 
rel-(3R,4R)-N-cyclopropyl-1-[(2,5-difluorophenyl)methyl]-4-(methoxymethyl)pyrrolidine-3-carboxamide

>  <Smile>  (284) 
COC[C@@H](CN(Cc(cc(cc1)F)c1F)C1)[C@H]1C(NC1CC1)=O

>  <Color>  (284) 
NOT COLORED

>  <Collection>  (284) 
IC

>  <InChI>  (284) 
InChI=1S/C17H22F2N2O2/c1-23-10-12-8-21(7-11-6-13(18)2-5-16(11)19)9-15(12)17(22)20-14-3-4-14/h2,5-6,12,14-15H,3-4,7-10H2,1H3,(H,20,22)/t12-,15+/m0/s1

>  <InChI Key>  (284) 
VXFRMPUXGUWVHF-SWLSCSKDSA-N

>  <PERCENTSP3>  (284) 
58.82

>  <Link>  (284) 
https://www.chemdiv.com/catalog/screening-compounds/compound-S836-6179/

>  <CLNUMBER>  (284) 
CM4497

>  <STEREO>  (284) 
RELATIVE

>  <State>  (284) 
Solid

>  <Similarity score>  (284) 
0.22

$$$$
N-(4-chloro-2-fluorophenyl)-1-(2,5,6-trimethylfuro[2,3-d]pyrimidin-4-yl)piperidi
     RDKit          2D

 29 32  0  0  0  0  0  0  0  0999 V2000
   -0.3543    2.4093    0.0000 C   0  0  0  0  0  0  0  0  0  0  0  0
   -1.0963    3.0721    0.0000 C   0  0  0  0  0  0  0  0  0  0  0  0
   -0.8921    4.0435    0.0000 C   0  0  0  0  0  0  0  0  0  0  0  0
   -0.5670    1.4256    0.0000 N   0  0  0  0  0  0  0  0  0  0  0  0
   -2.0927    2.9722    0.0000 C   0  0  0  0  0  0  0  0  0  0  0  0
    0.5962    2.7139    0.0000 N   0  0  0  0  0  0  0  0  0  0  0  0
    0.0584    4.3561    0.0000 N   0  0  0  0  0  0  0  0  0  0  0  0
   -1.7550    4.5437    0.0000 O   0  0  0  0  0  0  0  0  0  0  0  0
   -2.5051    3.8850    0.0000 C   0  0  0  0  0  0  0  0  0  0  0  0
    0.7171   -0.8921    0.0000 C   0  0  0  0  0  0  0  0  0  0  0  0
   -0.0293   -0.2168    0.0000 C   0  0  0  0  0  0  0  0  0  0  0  0
    0.8047    3.6974    0.0000 C   0  0  0  0  0  0  0  0  0  0  0  0
    0.5088   -1.8675    0.0000 N   0  0  0  0  0  0  0  0  0  0  0  0
    0.1793    0.7587    0.0000 C   0  0  0  0  0  0  0  0  0  0  0  0
    1.2465   -2.5387    0.0000 C   0  0  0  0  0  0  0  0  0  0  0  0
    2.2009   -2.2303    0.0000 C   0  0  0  0  0  0  0  0  0  0  0  0
    2.9473   -2.9013    0.0000 C   0  0  0  0  0  0  0  0  0  0  0  0
    1.6675   -0.5795    0.0000 O   0  0  0  0  0  0  0  0  0  0  0  0
    1.0422   -3.5183    0.0000 C   0  0  0  0  0  0  0  0  0  0  0  0
    2.7346   -3.8768    0.0000 C   0  0  0  0  0  0  0  0  0  0  0  0
    2.4094   -1.2505    0.0000 F   0  0  0  0  0  0  0  0  0  0  0  0
   -1.5173    1.1213    0.0000 C   0  0  0  0  0  0  0  0  0  0  0  0
    1.7843   -4.1893    0.0000 C   0  0  0  0  0  0  0  0  0  0  0  0
   -2.5928    2.1009    0.0000 C   0  0  0  0  0  0  0  0  0  0  0  0
    3.4808   -4.5437    0.0000 Cl  0  0  0  0  0  0  0  0  0  0  0  0
   -3.4808    4.0810    0.0000 C   0  0  0  0  0  0  0  0  0  0  0  0
   -0.9795   -0.5295    0.0000 C   0  0  0  0  0  0  0  0  0  0  0  0
   -1.7216    0.1376    0.0000 C   0  0  0  0  0  0  0  0  0  0  0  0
    1.7550    4.0019    0.0000 C   0  0  0  0  0  0  0  0  0  0  0  0
  1  2  1  0
  2  3  2  0
  3  7  1  0
  1  4  1  0
  2  5  1  0
  1  6  2  0
  7 12  2  0
  3  8  1  0
  5  9  2  0
  8  9  1  0
 10 11  1  0
 11 14  1  0
 11 27  1  0
  6 12  1  0
 10 13  1  0
  4 14  1  0
 13 15  1  0
 15 16  1  0
 16 17  2  0
 10 18  2  0
 15 19  2  0
 20 23  2  0
 17 20  1  0
 16 21  1  0
  4 22  1  0
 19 23  1  0
  5 24  1  0
 20 25  1  0
  9 26  1  0
 27 28  1  0
 22 28  1  0
 12 29  1  0
M  END
>  <IDNUMBER>  (285) 
F228-0952

>  <available>  (285) 
189

>  <H_acceptor>  (285) 
5

>  <H_donor>  (285) 
1

>  <B_rotN>  (285) 
4

>  <N_O>  (285) 
6

>  <logP>  (285) 
4.4002

>  <logD>  (285) 
4.0631

>  <logSw>  (285) 
-4.6591

>  <PSA>  (285) 
52.255

>  <pKa_ma>  (285) 
8.1865

>  <pKa_mb>  (285) 
7.4693

>  <N_Chirals>  (285) 
1

>  <Name>  (285) 
N-(4-chloro-2-fluorophenyl)-1-(2,5,6-trimethylfuro[2,3-d]pyrimidin-4-yl)piperidine-3-carboxamide

>  <Smile>  (285) 
Cc1c(C)oc2c1c(N(CCC1)CC1C(Nc(ccc(Cl)c1)c1F)=O)nc(C)n2

>  <Color>  (285) 
NOT COLORED

>  <Collection>  (285) 
NC

>  <InChI>  (285) 
InChI=1S/C21H22ClFN4O2/c1-11-12(2)29-21-18(11)19(24-13(3)25-21)27-8-4-5-14(10-27)20(28)26-17-7-6-15(22)9-16(17)23/h6-7,9,14H,4-5,8,10H2,1-3H3,(H,26,28)/t14-/m0/s1

>  <InChI Key>  (285) 
IZUZTPZCBTZNNN-AWEZNQCLSA-N

>  <PERCENTSP3>  (285) 
38.1

>  <Link>  (285) 
https://www.chemdiv.com/catalog/screening-compounds/compound-F228-0952/

>  <MFCDNUMBER>  (285) 
MFCD14945749

>  <CLNUMBER>  (285) 
CL1321B

>  <STEREO>  (285) 
RACEMIC MIXTURE

>  <State>  (285) 
Solid

>  <Similarity score>  (285) 
0.22

$$$$
N-[(2-chlorophenyl)methyl]-1-(2-methyl-5,6,8,9-tetrahydrooxepino[4,5-d]pyrimidin
     RDKit          2D

 29 32  0  0  0  0  0  0  0  0999 V2000
   -2.4274   -0.2525    0.0000 C   0  0  0  0  0  0  0  0  0  0  0  0
   -3.2863    0.2552    0.0000 C   0  0  0  0  0  0  0  0  0  0  0  0
   -2.4274   -1.2490    0.0000 N   0  0  0  0  0  0  0  0  0  0  0  0
   -1.5530    0.2552    0.0000 N   0  0  0  0  0  0  0  0  0  0  0  0
   -4.1573   -0.2525    0.0000 C   0  0  0  0  0  0  0  0  0  0  0  0
   -4.1573   -1.2490    0.0000 N   0  0  0  0  0  0  0  0  0  0  0  0
   -3.2863   -1.7473    0.0000 C   0  0  0  0  0  0  0  0  0  0  0  0
    1.0423    1.7503    0.0000 C   0  0  0  0  0  0  0  0  0  0  0  0
    1.9167    1.2551    0.0000 N   0  0  0  0  0  0  0  0  0  0  0  0
    3.6466    1.2456    0.0000 C   0  0  0  0  0  0  0  0  0  0  0  0
    0.1834    1.2551    0.0000 C   0  0  0  0  0  0  0  0  0  0  0  0
   -0.6910   -0.2525    0.0000 C   0  0  0  0  0  0  0  0  0  0  0  0
   -1.5530    1.2551    0.0000 C   0  0  0  0  0  0  0  0  0  0  0  0
    2.7722    1.7503    0.0000 C   0  0  0  0  0  0  0  0  0  0  0  0
    1.0423    2.7502    0.0000 O   0  0  0  0  0  0  0  0  0  0  0  0
    4.5085    1.7503    0.0000 C   0  0  0  0  0  0  0  0  0  0  0  0
    0.1675    0.2552    0.0000 C   0  0  0  0  0  0  0  0  0  0  0  0
   -0.6910    1.7503    0.0000 C   0  0  0  0  0  0  0  0  0  0  0  0
   -4.8157    1.9007    0.0000 O   0  0  0  0  0  0  0  0  0  0  0  0
   -5.0822    0.1236    0.0000 C   0  0  0  0  0  0  0  0  0  0  0  0
   -3.1450    1.2456    0.0000 C   0  0  0  0  0  0  0  0  0  0  0  0
    4.5085    2.7502    0.0000 Cl  0  0  0  0  0  0  0  0  0  0  0  0
   -3.2957   -2.7502    0.0000 C   0  0  0  0  0  0  0  0  0  0  0  0
   -5.3829    1.0828    0.0000 C   0  0  0  0  0  0  0  0  0  0  0  0
    3.6466    0.2461    0.0000 C   0  0  0  0  0  0  0  0  0  0  0  0
   -3.8283    1.9760    0.0000 C   0  0  0  0  0  0  0  0  0  0  0  0
    5.3829    1.2456    0.0000 C   0  0  0  0  0  0  0  0  0  0  0  0
    4.5085   -0.2525    0.0000 C   0  0  0  0  0  0  0  0  0  0  0  0
    5.3829    0.2461    0.0000 C   0  0  0  0  0  0  0  0  0  0  0  0
  1  2  1  0
  1  3  2  0
  1  4  1  0
  2  5  2  0
  6  7  2  0
  5  6  1  0
  3  7  1  0
  8 11  1  0
  8  9  1  0
 10 14  1  0
 11 18  1  0
  4 12  1  0
  4 13  1  0
  9 14  1  0
  8 15  2  0
 10 16  2  0
 12 17  1  0
 11 17  1  0
 13 18  1  0
 19 26  1  0
  5 20  1  0
  2 21  1  0
 16 22  1  0
  7 23  1  0
 20 24  1  0
 19 24  1  0
 10 25  1  0
 21 26  1  0
 16 27  1  0
 25 28  2  0
 28 29  1  0
 27 29  2  0
M  END
>  <IDNUMBER>  (286) 
S896-0387

>  <available>  (286) 
7

>  <H_acceptor>  (286) 
5

>  <H_donor>  (286) 
1

>  <B_rotN>  (286) 
5

>  <N_O>  (286) 
6

>  <logP>  (286) 
3.3222

>  <logD>  (286) 
3.3113

>  <logSw>  (286) 
-3.4819

>  <PSA>  (286) 
55.882

>  <pKa_ma>  (286) 
12.563

>  <pKa_mb>  (286) 
5.8035

>  <N_Chirals>  (286) 
0

>  <Name>  (286) 
N-[(2-chlorophenyl)methyl]-1-(2-methyl-5,6,8,9-tetrahydrooxepino[4,5-d]pyrimidin-4-yl)piperidine-4-carboxamide

>  <Smile>  (286) 
Cc1nc(CCOCC2)c2c(N(CC2)CCC2C(NCc(cccc2)c2Cl)=O)n1

>  <Color>  (286) 
NOT COLORED

>  <Collection>  (286) 
IC

>  <InChI>  (286) 
InChI=1S/C22H27ClN4O2/c1-15-25-20-9-13-29-12-8-18(20)21(26-15)27-10-6-16(7-11-27)22(28)24-14-17-4-2-3-5-19(17)23/h2-5,16H,6-14H2,1H3,(H,24,28)

>  <InChI Key>  (286) 
GOHYZUKKDQBUDH-UHFFFAOYSA-N

>  <PERCENTSP3>  (286) 
50

>  <Link>  (286) 
https://www.chemdiv.com/catalog/screening-compounds/compound-S896-0387/

>  <MFCDNUMBER>  (286) 
MFCD31957227

>  <CLNUMBER>  (286) 
CM3993

>  <STEREO>  (286) 
ACHIRAL

>  <State>  (286) 
Solid

>  <Similarity score>  (286) 
0.22

$$$$
rel-(2R,3S)-1-benzyl-2-(methoxymethyl)-N-(1-methyl-1,2,3,4-tetrahydroquinolin-7-
     RDKit          2D

 30 33  0  0  0  0  0  0  0  0999 V2000
   -0.2604   -0.4208    0.0000 C   0  0  0  0  0  0  0  0  0  0  0  0
    0.2313   -1.2834    0.0000 C   0  0  0  0  0  0  0  0  0  0  0  0
   -1.7604    0.4333    0.0000 N   0  0  0  0  0  0  0  0  0  0  0  0
   -1.2604   -0.4208    0.0000 C   0  0  0  0  0  0  0  0  0  0  0  0
    3.2312    0.4291    0.0000 C   0  0  0  0  0  0  0  0  0  0  0  0
    4.2439    0.4333    0.0000 N   0  0  0  0  0  0  0  0  0  0  0  0
    1.2313   -1.2834    0.0000 N   0  0  0  0  0  0  0  0  0  0  0  0
    2.7396   -0.4208    0.0000 C   0  0  0  0  0  0  0  0  0  0  0  0
   -2.7564    0.4291    0.0000 C   0  0  0  0  0  0  0  0  0  0  0  0
    1.7396   -0.4208    0.0000 C   0  0  0  0  0  0  0  0  0  0  0  0
    2.7312    1.3167    0.0000 C   0  0  0  0  0  0  0  0  0  0  0  0
   -0.2604   -2.1458    0.0000 O   0  0  0  0  0  0  0  0  0  0  0  0
    1.7313    1.3167    0.0000 C   0  0  0  0  0  0  0  0  0  0  0  0
   -1.2687    1.2959    0.0000 C   0  0  0  0  0  0  0  0  0  0  0  0
    1.2394    0.4416    0.0000 C   0  0  0  0  0  0  0  0  0  0  0  0
    0.2313    0.4333    0.0000 C   0  0  0  0  0  0  0  0  0  0  0  0
   -3.2605    1.2916    0.0000 C   0  0  0  0  0  0  0  0  0  0  0  0
    4.7562    1.3084    0.0000 C   0  0  0  0  0  0  0  0  0  0  0  0
   -1.7562   -1.2834    0.0000 C   0  0  0  0  0  0  0  0  0  0  0  0
    4.7312   -0.4333    0.0000 C   0  0  0  0  0  0  0  0  0  0  0  0
   -0.2604    1.3041    0.0000 C   0  0  0  0  0  0  0  0  0  0  0  0
    4.2439    2.1916    0.0000 C   0  0  0  0  0  0  0  0  0  0  0  0
   -1.2604   -2.1583    0.0000 O   0  0  0  0  0  0  0  0  0  0  0  0
    3.2312    2.1916    0.0000 C   0  0  0  0  0  0  0  0  0  0  0  0
   -2.7687    2.1543    0.0000 C   0  0  0  0  0  0  0  0  0  0  0  0
   -4.2562    1.2791    0.0000 C   0  0  0  0  0  0  0  0  0  0  0  0
   -1.7604   -3.0166    0.0000 C   0  0  0  0  0  0  0  0  0  0  0  0
   -4.7562    2.1416    0.0000 C   0  0  0  0  0  0  0  0  0  0  0  0
   -3.2687    3.0166    0.0000 C   0  0  0  0  0  0  0  0  0  0  0  0
   -4.2688    3.0166    0.0000 C   0  0  0  0  0  0  0  0  0  0  0  0
  1  2  1  1
  3  4  1  0
  1  4  1  0
  4 19  1  1
  5  8  2  0
  5 11  1  0
  5  6  1  0
  2  7  1  0
  8 10  1  0
  3  9  1  0
  7 10  1  0
 11 13  2  0
  2 12  2  0
 13 15  1  0
 14 21  1  0
  3 14  1  0
 10 15  2  0
  1 16  1  0
  9 17  1  0
  6 18  1  0
  6 20  1  0
 16 21  1  0
 22 24  1  0
 18 22  1  0
 19 23  1  0
 11 24  1  0
 17 25  2  0
 17 26  1  0
 23 27  1  0
 26 28  2  0
 25 29  1  0
 28 30  1  0
 29 30  2  0
M  END
>  <IDNUMBER>  (287) 
S761-0260

>  <available>  (287) 
14

>  <H_acceptor>  (287) 
4

>  <H_donor>  (287) 
1

>  <B_rotN>  (287) 
7

>  <N_O>  (287) 
5

>  <logP>  (287) 
3.213

>  <logD>  (287) 
3.1225

>  <logSw>  (287) 
-3.3738

>  <PSA>  (287) 
37.671

>  <pKa_ma>  (287) 
10.65

>  <pKa_mb>  (287) 
6.7634

>  <N_Chirals>  (287) 
2

>  <Name>  (287) 
rel-(2R,3S)-1-benzyl-2-(methoxymethyl)-N-(1-methyl-1,2,3,4-tetrahydroquinolin-7-yl)piperidine-3-carboxamide

>  <Smile>  (287) 
CN(CCC1)c2c1ccc(NC([C@@H]1[C@H](COC)N(Cc3ccccc3)CCC1)=O)c2

>  <Color>  (287) 
BROWN

>  <Collection>  (287) 
IC

>  <InChI>  (287) 
InChI=1S/C25H33N3O2/c1-27-14-6-10-20-12-13-21(16-23(20)27)26-25(29)22-11-7-15-28(24(22)18-30-2)17-19-8-4-3-5-9-19/h3-5,8-9,12-13,16,22,24H,6-7,10-11,14-15,17-18H2,1-2H3,(H,26,29)/t22-,24-/m0/s1

>  <InChI Key>  (287) 
LOAJKPBGYPNZQZ-UPVQGACJSA-N

>  <PERCENTSP3>  (287) 
48

>  <Link>  (287) 
https://www.chemdiv.com/catalog/screening-compounds/compound-S761-0260/

>  <CLNUMBER>  (287) 
CM4642

>  <STEREO>  (287) 
RELATIVE

>  <State>  (287) 
Liquid

>  <Similarity score>  (287) 
0.22

$$$$
3-(6-fluoro-1,3,4,5-tetrahydro-2H-pyrido[4,3-b]indol-2-yl)-1-(3-methoxyphenyl)py
     RDKit          2D

 29 33  0  0  0  0  0  0  0  0999 V2000
    1.7231    0.3063    0.0000 N   0  0  0  0  0  0  0  0  0  0  0  0
    1.0897   -0.4647    0.0000 C   0  0  0  0  0  0  0  0  0  0  0  0
   -2.4314   -0.5938    0.0000 C   0  0  0  0  0  0  0  0  0  0  0  0
    1.1773    1.1522    0.0000 C   0  0  0  0  0  0  0  0  0  0  0  0
   -3.3735   -1.8981    0.0000 N   0  0  0  0  0  0  0  0  0  0  0  0
    0.1603   -0.0937    0.0000 C   0  0  0  0  0  0  0  0  0  0  0  0
   -2.4314   -1.5899    0.0000 C   0  0  0  0  0  0  0  0  0  0  0  0
   -0.7022   -0.5938    0.0000 N   0  0  0  0  0  0  0  0  0  0  0  0
    0.2228    0.8980    0.0000 C   0  0  0  0  0  0  0  0  0  0  0  0
   -3.9609   -1.0980    0.0000 C   0  0  0  0  0  0  0  0  0  0  0  0
   -3.3735   -0.2814    0.0000 C   0  0  0  0  0  0  0  0  0  0  0  0
   -1.5731   -0.0937    0.0000 C   0  0  0  0  0  0  0  0  0  0  0  0
    2.7192    0.2064    0.0000 C   0  0  0  0  0  0  0  0  0  0  0  0
   -1.5731   -2.0898    0.0000 C   0  0  0  0  0  0  0  0  0  0  0  0
    3.1276   -0.7062    0.0000 C   0  0  0  0  0  0  0  0  0  0  0  0
    1.3440   -1.4315    0.0000 O   0  0  0  0  0  0  0  0  0  0  0  0
   -0.7022   -1.5899    0.0000 C   0  0  0  0  0  0  0  0  0  0  0  0
    1.5400    2.0898    0.0000 O   0  0  0  0  0  0  0  0  0  0  0  0
   -4.9570   -0.9939    0.0000 C   0  0  0  0  0  0  0  0  0  0  0  0
    4.1235   -0.8105    0.0000 C   0  0  0  0  0  0  0  0  0  0  0  0
   -5.5445   -1.8065    0.0000 F   0  0  0  0  0  0  0  0  0  0  0  0
   -3.7942    0.6314    0.0000 C   0  0  0  0  0  0  0  0  0  0  0  0
    3.3024    1.0188    0.0000 C   0  0  0  0  0  0  0  0  0  0  0  0
    4.5444   -1.7316    0.0000 O   0  0  0  0  0  0  0  0  0  0  0  0
   -4.7903    0.7314    0.0000 C   0  0  0  0  0  0  0  0  0  0  0  0
    4.3029    0.9147    0.0000 C   0  0  0  0  0  0  0  0  0  0  0  0
   -5.3693   -0.0854    0.0000 C   0  0  0  0  0  0  0  0  0  0  0  0
    4.7153    0.0062    0.0000 C   0  0  0  0  0  0  0  0  0  0  0  0
    5.5445   -1.8356    0.0000 C   0  0  0  0  0  0  0  0  0  0  0  0
  1  2  1  0
  3 12  1  0
  1  4  1  0
  5  7  1  0
  5 10  1  0
  2  6  1  0
  6  9  1  0
  7 14  1  0
  3  7  2  0
  6  8  1  0
  4  9  1  0
 10 11  2  0
  3 11  1  0
  8 12  1  0
  1 13  1  0
 14 17  1  0
 13 15  1  0
  2 16  2  0
  8 17  1  0
  4 18  2  0
 10 19  1  0
 19 27  2  0
 15 20  2  0
 19 21  1  0
 11 22  1  0
 13 23  2  0
 20 24  1  0
 22 25  2  0
 23 26  1  0
 25 27  1  0
 26 28  2  0
 20 28  1  0
 24 29  1  0
M  END
>  <IDNUMBER>  (288) 
IB03-9721

>  <available>  (288) 
50

>  <H_acceptor>  (288) 
6

>  <H_donor>  (288) 
1

>  <B_rotN>  (288) 
3

>  <N_O>  (288) 
6

>  <logP>  (288) 
2.29

>  <logD>  (288) 
2.29

>  <logSw>  (288) 
-3

>  <PSA>  (288) 
102.07

>  <pKa_ma>  (288) 
14

>  <pKa_mb>  (288) 
3.72

>  <N_Chirals>  (288) 
1

>  <Name>  (288) 
3-(6-fluoro-1,3,4,5-tetrahydro-2H-pyrido[4,3-b]indol-2-yl)-1-(3-methoxyphenyl)pyrrolidine-2,5-dione

>  <Smile>  (288) 
COc1cccc(N(C(CC2N(CC3)Cc(c4ccc5)c3[nH]c4c5F)=O)C2=O)c1

>  <Color>  (288) 
NOT COLORED

>  <Collection>  (288) 
DC

>  <InChI>  (288) 
InChI=1S/C22H20FN3O3/c1-29-14-5-2-4-13(10-14)26-20(27)11-19(22(26)28)25-9-8-18-16(12-25)15-6-3-7-17(23)21(15)24-18/h2-7,10,19,24H,8-9,11-12H2,1H3/t19-/m0/s1

>  <InChI Key>  (288) 
WJLATBUSRJQSHS-IBGZPJMESA-N

>  <PERCENTSP3>  (288) 
27.3

>  <Link>  (288) 
https://www.chemdiv.com/catalog/screening-compounds/compound-IB03-9721/

>  <STEREO>  (288) 
RACEMIC MIXTURE

>  <State>  (288) 
Solid

>  <Similarity score>  (288) 
0.22

$$$$
N-(3-chloro-4-fluorophenyl)-2-({6-[(2-methoxyphenyl)methyl]-4-oxo-3,4,5,6,7,8-he
     RDKit          2D

 33 36  0  0  0  0  0  0  0  0999 V2000
   -1.6987    0.5302    0.0000 C   0  0  0  0  0  0  0  0  0  0  0  0
    0.0251    0.4899    0.0000 N   0  0  0  0  0  0  0  0  0  0  0  0
   -0.8240    1.0021    0.0000 C   0  0  0  0  0  0  0  0  0  0  0  0
   -1.7288   -0.4750    0.0000 C   0  0  0  0  0  0  0  0  0  0  0  0
    0.0100   -0.5100    0.0000 C   0  0  0  0  0  0  0  0  0  0  0  0
   -0.8792   -0.9926    0.0000 N   0  0  0  0  0  0  0  0  0  0  0  0
   -3.4320    0.5804    0.0000 N   0  0  0  0  0  0  0  0  0  0  0  0
   -2.5528    1.0575    0.0000 C   0  0  0  0  0  0  0  0  0  0  0  0
   -5.1608    0.6358    0.0000 C   0  0  0  0  0  0  0  0  0  0  0  0
   -2.6130   -0.9476    0.0000 C   0  0  0  0  0  0  0  0  0  0  0  0
    6.0405   -1.1584    0.0000 C   0  0  0  0  0  0  0  0  0  0  0  0
    5.1909   -0.6457    0.0000 C   0  0  0  0  0  0  0  0  0  0  0  0
   -4.2766    1.1082    0.0000 C   0  0  0  0  0  0  0  0  0  0  0  0
    2.5879   -1.0831    0.0000 C   0  0  0  0  0  0  0  0  0  0  0  0
    0.8545   -1.0378    0.0000 S   0  0  0  0  0  0  0  0  0  0  0  0
    3.4625   -0.6107    0.0000 N   0  0  0  0  0  0  0  0  0  0  0  0
   -0.8039    2.0075    0.0000 O   0  0  0  0  0  0  0  0  0  0  0  0
    4.3167   -1.1283    0.0000 C   0  0  0  0  0  0  0  0  0  0  0  0
    6.0253   -2.1687    0.0000 C   0  0  0  0  0  0  0  0  0  0  0  0
   -6.0048    1.1683    0.0000 C   0  0  0  0  0  0  0  0  0  0  0  0
   -3.4621   -0.4198    0.0000 C   0  0  0  0  0  0  0  0  0  0  0  0
    2.5578   -2.0878    0.0000 O   0  0  0  0  0  0  0  0  0  0  0  0
    5.1357   -2.6457    0.0000 C   0  0  0  0  0  0  0  0  0  0  0  0
    1.7288   -0.5553    0.0000 C   0  0  0  0  0  0  0  0  0  0  0  0
    6.9247   -0.6860    0.0000 Cl  0  0  0  0  0  0  0  0  0  0  0  0
    4.2866   -2.1334    0.0000 C   0  0  0  0  0  0  0  0  0  0  0  0
    6.8693   -2.6909    0.0000 F   0  0  0  0  0  0  0  0  0  0  0  0
   -5.9747    2.1631    0.0000 O   0  0  0  0  0  0  0  0  0  0  0  0
   -5.1909   -0.3594    0.0000 C   0  0  0  0  0  0  0  0  0  0  0  0
   -6.8946    0.6959    0.0000 C   0  0  0  0  0  0  0  0  0  0  0  0
   -6.8191    2.6909    0.0000 C   0  0  0  0  0  0  0  0  0  0  0  0
   -6.0651   -0.8268    0.0000 C   0  0  0  0  0  0  0  0  0  0  0  0
   -6.9247   -0.2993    0.0000 C   0  0  0  0  0  0  0  0  0  0  0  0
  2  3  1  0
  2  5  1  0
  1  3  1  0
  1  4  2  0
  5  6  2  0
  4  6  1  0
  7  8  1  0
  1  8  1  0
  9 13  1  0
  4 10  1  0
 10 21  1  0
 11 12  2  0
 12 18  1  0
  7 13  1  0
 14 24  1  0
  5 15  1  0
 14 16  1  0
  3 17  2  0
 16 18  1  0
 19 23  2  0
 11 19  1  0
  9 20  2  0
  7 21  1  0
 14 22  2  0
 23 26  1  0
 15 24  1  0
 11 25  1  0
 18 26  2  0
 19 27  1  0
 20 28  1  0
  9 29  1  0
 20 30  1  0
 28 31  1  0
 29 32  2  0
 32 33  1  0
 30 33  2  0
M  END
>  <IDNUMBER>  (289) 
E140-0984

>  <available>  (289) 
72

>  <H_acceptor>  (289) 
8

>  <H_donor>  (289) 
2

>  <B_rotN>  (289) 
8

>  <N_O>  (289) 
7

>  <logP>  (289) 
3.3694

>  <logD>  (289) 
2.82

>  <logSw>  (289) 
-3.659

>  <PSA>  (289) 
68.726

>  <pKa_ma>  (289) 
6.9946

>  <pKa_mb>  (289) 
4.9727

>  <N_Chirals>  (289) 
0

>  <Name>  (289) 
N-(3-chloro-4-fluorophenyl)-2-({6-[(2-methoxyphenyl)methyl]-4-oxo-3,4,5,6,7,8-hexahydropyrido[4,3-d]pyrimidin-2-yl}sulfanyl)acetamide

>  <Smile>  (289) 
COc1c(CN(CC2)CC(C(N3)=O)=C2N=C3SCC(Nc(cc2)cc(Cl)c2F)=O)cccc1

>  <Color>  (289) 
NOT COLORED

>  <Collection>  (289) 
DC

>  <InChI>  (289) 
InChI=1S/C23H22ClFN4O3S/c1-32-20-5-3-2-4-14(20)11-29-9-8-19-16(12-29)22(31)28-23(27-19)33-13-21(30)26-15-6-7-18(25)17(24)10-15/h2-7,10H,8-9,11-13H2,1H3,(H,26,30)(H,27,28,31)

>  <InChI Key>  (289) 
KXWVQBIVQCGYNY-UHFFFAOYSA-N

>  <PERCENTSP3>  (289) 
26.1

>  <Link>  (289) 
https://www.chemdiv.com/catalog/screening-compounds/compound-E140-0984/

>  <MFCDNUMBER>  (289) 
MFCD27597682

>  <CLNUMBER>  (289) 
CL4129

>  <STEREO>  (289) 
ACHIRAL

>  <State>  (289) 
Solid

>  <Similarity score>  (289) 
0.22

$$$$
2-(9-chloro-6-methoxy-10-oxo-3,4,5,10-tetrahydrobenzo[b][1,6]naphthyridin-2(1H)-
     RDKit          2D

 30 33  0  0  0  0  0  0  0  0999 V2000
   -0.8871   -1.4512    0.0000 C   0  0  0  0  0  0  0  0  0  0  0  0
   -1.7615   -0.9560    0.0000 C   0  0  0  0  0  0  0  0  0  0  0  0
   -2.6362   -1.4512    0.0000 C   0  0  0  0  0  0  0  0  0  0  0  0
   -1.7803   -2.9308    0.0000 N   0  0  0  0  0  0  0  0  0  0  0  0
   -2.6362   -2.4324    0.0000 C   0  0  0  0  0  0  0  0  0  0  0  0
   -0.8871   -2.4418    0.0000 C   0  0  0  0  0  0  0  0  0  0  0  0
    0.8777   -1.4512    0.0000 N   0  0  0  0  0  0  0  0  0  0  0  0
   -0.0030   -0.9654    0.0000 C   0  0  0  0  0  0  0  0  0  0  0  0
    1.7709    0.0219    0.0000 C   0  0  0  0  0  0  0  0  0  0  0  0
   -3.5328   -0.9654    0.0000 C   0  0  0  0  0  0  0  0  0  0  0  0
   -0.0064   -2.9308    0.0000 C   0  0  0  0  0  0  0  0  0  0  0  0
   -3.5328   -2.9308    0.0000 C   0  0  0  0  0  0  0  0  0  0  0  0
    2.6675    0.4952    0.0000 N   0  0  0  0  0  0  0  0  0  0  0  0
   -1.7615    0.0252    0.0000 O   0  0  0  0  0  0  0  0  0  0  0  0
    3.5516    2.9496    0.0000 C   0  0  0  0  0  0  0  0  0  0  0  0
    1.7709   -0.9654    0.0000 C   0  0  0  0  0  0  0  0  0  0  0  0
    2.6675    3.4260    0.0000 C   0  0  0  0  0  0  0  0  0  0  0  0
    2.6675    1.4794    0.0000 C   0  0  0  0  0  0  0  0  0  0  0  0
    3.5516    1.9685    0.0000 C   0  0  0  0  0  0  0  0  0  0  0  0
    0.8777    0.4952    0.0000 O   0  0  0  0  0  0  0  0  0  0  0  0
    0.8777   -2.4418    0.0000 C   0  0  0  0  0  0  0  0  0  0  0  0
   -4.4072   -1.4512    0.0000 C   0  0  0  0  0  0  0  0  0  0  0  0
   -4.4072   -2.4324    0.0000 C   0  0  0  0  0  0  0  0  0  0  0  0
    1.7898    2.9496    0.0000 C   0  0  0  0  0  0  0  0  0  0  0  0
   -3.5422    0.0252    0.0000 Cl  0  0  0  0  0  0  0  0  0  0  0  0
    1.7898    1.9685    0.0000 C   0  0  0  0  0  0  0  0  0  0  0  0
    2.6769    4.4260    0.0000 F   0  0  0  0  0  0  0  0  0  0  0  0
   -3.5328   -3.9275    0.0000 O   0  0  0  0  0  0  0  0  0  0  0  0
    4.4072    3.4636    0.0000 C   0  0  0  0  0  0  0  0  0  0  0  0
   -2.6738   -4.4260    0.0000 C   0  0  0  0  0  0  0  0  0  0  0  0
  1  2  1  0
  2  3  1  0
  3  5  1  0
  4  6  1  0
  4  5  1  0
  1  6  2  0
  7  8  1  0
  1  8  1  0
  9 16  1  0
  3 10  2  0
  6 11  1  0
 11 21  1  0
  5 12  2  0
  9 13  1  0
  2 14  2  0
 15 19  2  0
 15 17  1  0
  7 16  1  0
 17 24  2  0
 13 18  1  0
 18 19  1  0
  9 20  2  0
  7 21  1  0
 10 22  1  0
 22 23  2  0
 12 23  1  0
 24 26  1  0
 10 25  1  0
 18 26  2  0
 17 27  1  0
 12 28  1  0
 15 29  1  0
 28 30  1  0
M  END
>  <IDNUMBER>  (290) 
L489-1798

>  <available>  (290) 
72

>  <H_acceptor>  (290) 
6

>  <H_donor>  (290) 
2

>  <B_rotN>  (290) 
5

>  <N_O>  (290) 
6

>  <logP>  (290) 
3.8493

>  <logD>  (290) 
1.8

>  <logSw>  (290) 
-4.5303

>  <PSA>  (290) 
56.441

>  <pKa_ma>  (290) 
5.3545

>  <pKa_mb>  (290) 
1.1333

>  <N_Chirals>  (290) 
0

>  <Name>  (290) 
2-(9-chloro-6-methoxy-10-oxo-3,4,5,10-tetrahydrobenzo[b][1,6]naphthyridin-2(1H)-yl)-N-(4-fluoro-3-methylphenyl)acetamide

>  <Smile>  (290) 
Cc(cc(cc1)NC(CN(CC2)CC(C(c3c(cc4)Cl)=O)=C2Nc3c4OC)=O)c1F

>  <Color>  (290) 
ORANGE

>  <Collection>  (290) 
NC

>  <InChI>  (290) 
InChI=1S/C22H21ClFN3O3/c1-12-9-13(3-5-16(12)24)25-19(28)11-27-8-7-17-14(10-27)22(29)20-15(23)4-6-18(30-2)21(20)26-17/h3-6,9H,7-8,10-11H2,1-2H3,(H,25,28)(H,26,29)

>  <InChI Key>  (290) 
YTLWIONGXFMGJR-UHFFFAOYSA-N

>  <PERCENTSP3>  (290) 
27.3

>  <Link>  (290) 
https://www.chemdiv.com/catalog/screening-compounds/compound-L489-1798/

>  <MFCDNUMBER>  (290) 
MFCD27457658

>  <CLNUMBER>  (290) 
CL8213A

>  <STEREO>  (290) 
ACHIRAL

>  <State>  (290) 
Solid

>  <Similarity score>  (290) 
0.22

$$$$
N-[2-(3,4-dimethoxyphenyl)ethyl]-1-(3-ethyl-6-methyl[1,2]oxazolo[5,4-d]pyrimidin
     RDKit          2D

 33 36  0  0  0  0  0  0  0  0999 V2000
   -1.9091    2.7510    0.0000 C   0  0  0  0  0  0  0  0  0  0  0  0
   -2.7802    3.2513    0.0000 C   0  0  0  0  0  0  0  0  0  0  0  0
   -2.7802    4.2516    0.0000 C   0  0  0  0  0  0  0  0  0  0  0  0
   -1.9091    1.7507    0.0000 N   0  0  0  0  0  0  0  0  0  0  0  0
   -1.0462    3.2513    0.0000 N   0  0  0  0  0  0  0  0  0  0  0  0
   -1.9091    4.7519    0.0000 N   0  0  0  0  0  0  0  0  0  0  0  0
   -4.3184    3.7516    0.0000 N   0  0  0  0  0  0  0  0  0  0  0  0
   -3.7306    4.5560    0.0000 O   0  0  0  0  0  0  0  0  0  0  0  0
   -1.0462    0.2500    0.0000 C   0  0  0  0  0  0  0  0  0  0  0  0
   -1.0462    4.2516    0.0000 C   0  0  0  0  0  0  0  0  0  0  0  0
   -3.7306    2.9471    0.0000 C   0  0  0  0  0  0  0  0  0  0  0  0
   -1.0462    1.2504    0.0000 C   0  0  0  0  0  0  0  0  0  0  0  0
   -0.1793   -0.2500    0.0000 C   0  0  0  0  0  0  0  0  0  0  0  0
    3.2847   -3.2513    0.0000 C   0  0  0  0  0  0  0  0  0  0  0  0
    3.2847   -4.2516    0.0000 C   0  0  0  0  0  0  0  0  0  0  0  0
    0.6836    0.2500    0.0000 O   0  0  0  0  0  0  0  0  0  0  0  0
    2.4218   -2.7510    0.0000 C   0  0  0  0  0  0  0  0  0  0  0  0
   -0.1793   -1.2504    0.0000 N   0  0  0  0  0  0  0  0  0  0  0  0
    2.4218   -4.7519    0.0000 C   0  0  0  0  0  0  0  0  0  0  0  0
   -2.7802    1.2504    0.0000 C   0  0  0  0  0  0  0  0  0  0  0  0
    1.5549   -3.2513    0.0000 C   0  0  0  0  0  0  0  0  0  0  0  0
    1.5549   -4.2516    0.0000 C   0  0  0  0  0  0  0  0  0  0  0  0
    4.1558   -2.7510    0.0000 O   0  0  0  0  0  0  0  0  0  0  0  0
   -1.9091   -0.2500    0.0000 C   0  0  0  0  0  0  0  0  0  0  0  0
    4.1558   -4.7519    0.0000 O   0  0  0  0  0  0  0  0  0  0  0  0
    0.6836   -1.7507    0.0000 C   0  0  0  0  0  0  0  0  0  0  0  0
   -2.7802    0.2500    0.0000 C   0  0  0  0  0  0  0  0  0  0  0  0
   -0.1793    4.7519    0.0000 C   0  0  0  0  0  0  0  0  0  0  0  0
   -4.0433    1.9967    0.0000 C   0  0  0  0  0  0  0  0  0  0  0  0
    0.6836   -2.7510    0.0000 C   0  0  0  0  0  0  0  0  0  0  0  0
    5.0187   -3.2513    0.0000 C   0  0  0  0  0  0  0  0  0  0  0  0
    5.0187   -4.2516    0.0000 C   0  0  0  0  0  0  0  0  0  0  0  0
   -5.0187    1.7840    0.0000 C   0  0  0  0  0  0  0  0  0  0  0  0
  1  2  1  0
  2  3  2  0
  3  6  1  0
  1  4  1  0
  1  5  2  0
  6 10  2  0
  7 11  2  0
  7  8  1  0
  3  8  1  0
  9 12  1  0
  9 24  1  0
  5 10  1  0
  2 11  1  0
  4 12  1  0
  9 13  1  0
 14 17  1  0
 15 19  1  0
 14 15  2  0
 13 16  2  0
 17 21  2  0
 13 18  1  0
 19 22  2  0
  4 20  1  0
 21 30  1  0
 21 22  1  0
 14 23  1  0
 24 27  1  0
 15 25  1  0
 18 26  1  0
 20 27  1  0
 10 28  1  0
 11 29  1  0
 26 30  1  0
 23 31  1  0
 25 32  1  0
 29 33  1  0
M  END
>  <IDNUMBER>  (291) 
E990-0823

>  <available>  (291) 
149

>  <H_acceptor>  (291) 
8

>  <H_donor>  (291) 
1

>  <B_rotN>  (291) 
9

>  <N_O>  (291) 
9

>  <logP>  (291) 
2.4733

>  <logD>  (291) 
2.473

>  <logSw>  (291) 
-2.9251

>  <PSA>  (291) 
84.125

>  <pKa_ma>  (291) 
13.7295

>  <pKa_mb>  (291) 
4.2171

>  <N_Chirals>  (291) 
1

>  <Name>  (291) 
N-[2-(3,4-dimethoxyphenyl)ethyl]-1-(3-ethyl-6-methyl[1,2]oxazolo[5,4-d]pyrimidin-4-yl)piperidine-3-carboxamide

>  <Smile>  (291) 
CCc1noc2c1c(N(CCC1)CC1C(NCCc(cc1)cc(OC)c1OC)=O)nc(C)n2

>  <Color>  (291) 
NOT COLORED

>  <Collection>  (291) 
DC

>  <InChI>  (291) 
InChI=1S/C24H31N5O4/c1-5-18-21-22(26-15(2)27-24(21)33-28-18)29-12-6-7-17(14-29)23(30)25-11-10-16-8-9-19(31-3)20(13-16)32-4/h8-9,13,17H,5-7,10-12,14H2,1-4H3,(H,25,30)/t17-/m0/s1

>  <InChI Key>  (291) 
IOVDUPIKCTWRBN-KRWDZBQOSA-N

>  <PERCENTSP3>  (291) 
50

>  <Link>  (291) 
https://www.chemdiv.com/catalog/screening-compounds/compound-E990-0823/

>  <MFCDNUMBER>  (291) 
MFCD14936792

>  <CLNUMBER>  (291) 
CL7467A

>  <STEREO>  (291) 
RACEMIC MIXTURE

>  <State>  (291) 
Solid

>  <Similarity score>  (291) 
0.22

$$$$
7-[(3-chloro-4-fluorophenyl)methyl]-2-(4-methylpiperazin-1-yl)-3,5,6,7,8,9-hexah
     RDKit          2D

 28 31  0  0  0  0  0  0  0  0999 V2000
    1.3270    1.0920    0.0000 C   0  0  0  0  0  0  0  0  0  0  0  0
    1.1015    2.0760    0.0000 N   0  0  0  0  0  0  0  0  0  0  0  0
   -0.5907    1.6811    0.0000 C   0  0  0  0  0  0  0  0  0  0  0  0
    0.5939    0.4121    0.0000 N   0  0  0  0  0  0  0  0  0  0  0  0
    0.1427    2.3610    0.0000 C   0  0  0  0  0  0  0  0  0  0  0  0
   -0.3649    0.7129    0.0000 C   0  0  0  0  0  0  0  0  0  0  0  0
    2.2861    0.7973    0.0000 N   0  0  0  0  0  0  0  0  0  0  0  0
   -1.4870    2.1137    0.0000 C   0  0  0  0  0  0  0  0  0  0  0  0
   -2.6214    0.7129    0.0000 N   0  0  0  0  0  0  0  0  0  0  0  0
   -0.9949   -0.0675    0.0000 C   0  0  0  0  0  0  0  0  0  0  0  0
    4.1944    0.2082    0.0000 N   0  0  0  0  0  0  0  0  0  0  0  0
   -3.4955   -2.1639    0.0000 C   0  0  0  0  0  0  0  0  0  0  0  0
   -0.0738    3.3388    0.0000 O   0  0  0  0  0  0  0  0  0  0  0  0
   -4.4734   -2.3800    0.0000 C   0  0  0  0  0  0  0  0  0  0  0  0
    3.0192    1.4743    0.0000 C   0  0  0  0  0  0  0  0  0  0  0  0
    2.5022   -0.1709    0.0000 C   0  0  0  0  0  0  0  0  0  0  0  0
   -3.2073   -1.2051    0.0000 C   0  0  0  0  0  0  0  0  0  0  0  0
   -3.8904   -0.4717    0.0000 C   0  0  0  0  0  0  0  0  0  0  0  0
   -3.5896    0.4871    0.0000 C   0  0  0  0  0  0  0  0  0  0  0  0
   -2.3956    1.6811    0.0000 C   0  0  0  0  0  0  0  0  0  0  0  0
   -1.9914   -0.0675    0.0000 C   0  0  0  0  0  0  0  0  0  0  0  0
   -5.1533   -1.6470    0.0000 C   0  0  0  0  0  0  0  0  0  0  0  0
    3.4611   -0.4717    0.0000 C   0  0  0  0  0  0  0  0  0  0  0  0
    3.9654    1.1861    0.0000 C   0  0  0  0  0  0  0  0  0  0  0  0
   -2.8188   -2.8941    0.0000 Cl  0  0  0  0  0  0  0  0  0  0  0  0
   -4.8586   -0.6878    0.0000 C   0  0  0  0  0  0  0  0  0  0  0  0
   -4.7742   -3.3388    0.0000 F   0  0  0  0  0  0  0  0  0  0  0  0
    5.1533   -0.0768    0.0000 C   0  0  0  0  0  0  0  0  0  0  0  0
  1  2  1  0
  3  6  2  0
  3  5  1  0
  1  4  2  0
  2  5  1  0
  4  6  1  0
  1  7  1  0
  3  8  1  0
  9 21  1  0
  9 20  1  0
  6 10  1  0
 11 23  1  0
 11 24  1  0
 12 17  1  0
 12 14  2  0
  5 13  2  0
 14 22  1  0
  7 15  1  0
  7 16  1  0
 17 18  2  0
 18 19  1  0
  9 19  1  0
  8 20  1  0
 10 21  1  0
 22 26  2  0
 16 23  1  0
 15 24  1  0
 12 25  1  0
 18 26  1  0
 14 27  1  0
 11 28  1  0
M  END
>  <IDNUMBER>  (292) 
S039-3676

>  <available>  (292) 
3

>  <H_acceptor>  (292) 
5

>  <H_donor>  (292) 
1

>  <B_rotN>  (292) 
3

>  <N_O>  (292) 
6

>  <logP>  (292) 
1.9108

>  <logD>  (292) 
0.691

>  <logSw>  (292) 
-3.0722

>  <PSA>  (292) 
45.276

>  <pKa_ma>  (292) 
9.6889

>  <pKa_mb>  (292) 
8.5927

>  <N_Chirals>  (292) 
0

>  <Name>  (292) 
7-[(3-chloro-4-fluorophenyl)methyl]-2-(4-methylpiperazin-1-yl)-3,5,6,7,8,9-hexahydro-4H-pyrimido[4,5-d]azepin-4-one

>  <Smile>  (292) 
CN(CC1)CCN1C(N1)=NC(CCN(Cc(cc2)cc(Cl)c2F)CC2)=C2C1=O

>  <Color>  (292) 
NOT COLORED

>  <Collection>  (292) 
IC

>  <InChI>  (292) 
InChI=1S/C20H25ClFN5O/c1-25-8-10-27(11-9-25)20-23-18-5-7-26(6-4-15(18)19(28)24-20)13-14-2-3-17(22)16(21)12-14/h2-3,12H,4-11,13H2,1H3,(H,23,24,28)

>  <InChI Key>  (292) 
NGIJKQIEVVMMNW-UHFFFAOYSA-N

>  <PERCENTSP3>  (292) 
50

>  <Link>  (292) 
https://www.chemdiv.com/catalog/screening-compounds/compound-S039-3676/

>  <MFCDNUMBER>  (292) 
MFCD28999064

>  <CLNUMBER>  (292) 
CM2417

>  <STEREO>  (292) 
ACHIRAL

>  <State>  (292) 
Solid

>  <Similarity score>  (292) 
0.22

$$$$
N-(2,5-difluorophenyl)-2-(9-fluoro-6-methyl-10-oxo-3,4,5,10-tetrahydrobenzo[b][1
     RDKit          2D

 29 32  0  0  0  0  0  0  0  0999 V2000
   -0.8802   -1.2138    0.0000 C   0  0  0  0  0  0  0  0  0  0  0  0
   -1.7638   -0.7157    0.0000 C   0  0  0  0  0  0  0  0  0  0  0  0
   -2.6317   -1.2138    0.0000 C   0  0  0  0  0  0  0  0  0  0  0  0
   -1.7825   -2.6895    0.0000 N   0  0  0  0  0  0  0  0  0  0  0  0
   -2.6317   -2.1977    0.0000 C   0  0  0  0  0  0  0  0  0  0  0  0
   -0.8802   -2.2071    0.0000 C   0  0  0  0  0  0  0  0  0  0  0  0
    0.8772   -1.2138    0.0000 N   0  0  0  0  0  0  0  0  0  0  0  0
    2.6723    1.7089    0.0000 C   0  0  0  0  0  0  0  0  0  0  0  0
    0.0220   -0.7253    0.0000 C   0  0  0  0  0  0  0  0  0  0  0  0
    2.6723    0.7314    0.0000 N   0  0  0  0  0  0  0  0  0  0  0  0
    1.7764    0.2522    0.0000 C   0  0  0  0  0  0  0  0  0  0  0  0
   -3.5306   -0.7253    0.0000 C   0  0  0  0  0  0  0  0  0  0  0  0
    0.0030   -2.6895    0.0000 C   0  0  0  0  0  0  0  0  0  0  0  0
    1.7858    2.1914    0.0000 C   0  0  0  0  0  0  0  0  0  0  0  0
   -3.5306   -2.6895    0.0000 C   0  0  0  0  0  0  0  0  0  0  0  0
   -1.7638    0.2649    0.0000 O   0  0  0  0  0  0  0  0  0  0  0  0
    3.5526    2.1914    0.0000 C   0  0  0  0  0  0  0  0  0  0  0  0
    1.7764   -0.7253    0.0000 C   0  0  0  0  0  0  0  0  0  0  0  0
    0.8772    0.7314    0.0000 O   0  0  0  0  0  0  0  0  0  0  0  0
    0.8772   -2.2071    0.0000 C   0  0  0  0  0  0  0  0  0  0  0  0
   -4.3985   -1.2138    0.0000 C   0  0  0  0  0  0  0  0  0  0  0  0
   -4.3985   -2.1977    0.0000 C   0  0  0  0  0  0  0  0  0  0  0  0
    3.5526    3.1783    0.0000 C   0  0  0  0  0  0  0  0  0  0  0  0
    1.7858    3.1783    0.0000 C   0  0  0  0  0  0  0  0  0  0  0  0
   -3.5306    0.2649    0.0000 F   0  0  0  0  0  0  0  0  0  0  0  0
    4.3985    1.6902    0.0000 F   0  0  0  0  0  0  0  0  0  0  0  0
    2.6723    3.6638    0.0000 C   0  0  0  0  0  0  0  0  0  0  0  0
    0.9209    3.6858    0.0000 F   0  0  0  0  0  0  0  0  0  0  0  0
   -3.5306   -3.6858    0.0000 C   0  0  0  0  0  0  0  0  0  0  0  0
  1  2  1  0
  2  3  1  0
  3  5  1  0
  4  6  1  0
  4  5  1  0
  1  6  2  0
  7  9  1  0
  8 10  1  0
  1  9  1  0
 10 11  1  0
 11 18  1  0
  3 12  2  0
  6 13  1  0
 13 20  1  0
  8 14  2  0
  5 15  2  0
  2 16  2  0
  8 17  1  0
  7 18  1  0
 11 19  2  0
  7 20  1  0
 12 21  1  0
 21 22  2  0
 15 22  1  0
 17 23  2  0
 14 24  1  0
 24 27  2  0
 12 25  1  0
 17 26  1  0
 23 27  1  0
 24 28  1  0
 15 29  1  0
M  END
>  <IDNUMBER>  (293) 
L489-1905

>  <available>  (293) 
71

>  <H_acceptor>  (293) 
5

>  <H_donor>  (293) 
2

>  <B_rotN>  (293) 
4

>  <N_O>  (293) 
5

>  <logP>  (293) 
3.7665

>  <logD>  (293) 
2.8695

>  <logSw>  (293) 
-4.07

>  <PSA>  (293) 
48.113

>  <pKa_ma>  (293) 
6.5619

>  <pKa_mb>  (293) 
0.8922

>  <N_Chirals>  (293) 
0

>  <Name>  (293) 
N-(2,5-difluorophenyl)-2-(9-fluoro-6-methyl-10-oxo-3,4,5,10-tetrahydrobenzo[b][1,6]naphthyridin-2(1H)-yl)acetamide

>  <Smile>  (293) 
Cc(ccc(F)c12)c2NC(CCN(CC(Nc(cc(cc2)F)c2F)=O)C2)=C2C1=O

>  <Color>  (293) 
NOT COLORED

>  <Collection>  (293) 
NC

>  <InChI>  (293) 
InChI=1S/C21H18F3N3O2/c1-11-2-4-15(24)19-20(11)26-16-6-7-27(9-13(16)21(19)29)10-18(28)25-17-8-12(22)3-5-14(17)23/h2-5,8H,6-7,9-10H2,1H3,(H,25,28)(H,26,29)

>  <InChI Key>  (293) 
SXOXSUDYYXRUMN-UHFFFAOYSA-N

>  <PERCENTSP3>  (293) 
23.8

>  <Link>  (293) 
https://www.chemdiv.com/catalog/screening-compounds/compound-L489-1905/

>  <MFCDNUMBER>  (293) 
MFCD27457671

>  <CLNUMBER>  (293) 
CL8213A

>  <STEREO>  (293) 
ACHIRAL

>  <State>  (293) 
Solid

>  <Similarity score>  (293) 
0.22

$$$$
methyl 4-[2-(9-fluoro-6-methyl-10-oxo-3,4,5,10-tetrahydrobenzo[b][1,6]naphthyrid
     RDKit          2D

 31 34  0  0  0  0  0  0  0  0999 V2000
   -0.8897   -1.9911    0.0000 C   0  0  0  0  0  0  0  0  0  0  0  0
   -1.7545   -1.4678    0.0000 C   0  0  0  0  0  0  0  0  0  0  0  0
   -2.6132   -1.9911    0.0000 C   0  0  0  0  0  0  0  0  0  0  0  0
   -1.7641   -3.4889    0.0000 N   0  0  0  0  0  0  0  0  0  0  0  0
   -2.6132   -2.9874    0.0000 C   0  0  0  0  0  0  0  0  0  0  0  0
   -0.8897   -3.0062    0.0000 C   0  0  0  0  0  0  0  0  0  0  0  0
    0.8491   -1.9911    0.0000 N   0  0  0  0  0  0  0  0  0  0  0  0
   -0.0095   -1.4868    0.0000 C   0  0  0  0  0  0  0  0  0  0  0  0
    1.7296   -0.4903    0.0000 C   0  0  0  0  0  0  0  0  0  0  0  0
    2.6067    3.9838    0.0000 C   0  0  0  0  0  0  0  0  0  0  0  0
   -3.4746   -1.4868    0.0000 C   0  0  0  0  0  0  0  0  0  0  0  0
   -0.0188   -3.4980    0.0000 C   0  0  0  0  0  0  0  0  0  0  0  0
   -3.4746   -3.4889    0.0000 C   0  0  0  0  0  0  0  0  0  0  0  0
   -1.7545   -0.4903    0.0000 O   0  0  0  0  0  0  0  0  0  0  0  0
    2.6067   -0.0078    0.0000 N   0  0  0  0  0  0  0  0  0  0  0  0
    2.6067    2.9874    0.0000 C   0  0  0  0  0  0  0  0  0  0  0  0
    1.7296   -1.4868    0.0000 C   0  0  0  0  0  0  0  0  0  0  0  0
    1.7296    4.4852    0.0000 O   0  0  0  0  0  0  0  0  0  0  0  0
    0.8491    0.0078    0.0000 O   0  0  0  0  0  0  0  0  0  0  0  0
    0.8491   -3.0062    0.0000 C   0  0  0  0  0  0  0  0  0  0  0  0
   -4.3332   -1.9911    0.0000 C   0  0  0  0  0  0  0  0  0  0  0  0
   -4.3332   -2.9874    0.0000 C   0  0  0  0  0  0  0  0  0  0  0  0
    1.7484    2.4893    0.0000 C   0  0  0  0  0  0  0  0  0  0  0  0
    3.4715    2.4893    0.0000 C   0  0  0  0  0  0  0  0  0  0  0  0
    2.6067    1.0041    0.0000 C   0  0  0  0  0  0  0  0  0  0  0  0
   -3.4654   -0.4810    0.0000 F   0  0  0  0  0  0  0  0  0  0  0  0
    3.4715    4.4852    0.0000 O   0  0  0  0  0  0  0  0  0  0  0  0
    1.7484    1.4930    0.0000 C   0  0  0  0  0  0  0  0  0  0  0  0
    3.4715    1.4930    0.0000 C   0  0  0  0  0  0  0  0  0  0  0  0
   -3.4746   -4.4852    0.0000 C   0  0  0  0  0  0  0  0  0  0  0  0
    4.3332    3.9838    0.0000 C   0  0  0  0  0  0  0  0  0  0  0  0
  1  2  1  0
  2  3  1  0
  3  5  1  0
  4  6  1  0
  4  5  1  0
  1  6  2  0
  7  8  1  0
  1  8  1  0
  9 17  1  0
 10 16  1  0
  3 11  2  0
  6 12  1  0
 12 20  1  0
  5 13  2  0
  2 14  2  0
  9 15  1  0
 16 24  1  0
 16 23  2  0
  7 17  1  0
 10 18  2  0
  9 19  2  0
  7 20  1  0
 11 21  1  0
 21 22  2  0
 13 22  1  0
 23 28  1  0
 24 29  2  0
 15 25  1  0
 11 26  1  0
 10 27  1  0
 25 28  2  0
 25 29  1  0
 13 30  1  0
 27 31  1  0
M  END
>  <IDNUMBER>  (294) 
L489-1911

>  <available>  (294) 
59

>  <H_acceptor>  (294) 
8

>  <H_donor>  (294) 
2

>  <B_rotN>  (294) 
6

>  <N_O>  (294) 
7

>  <logP>  (294) 
3.6899

>  <logD>  (294) 
2.7929

>  <logSw>  (294) 
-4.2378

>  <PSA>  (294) 
69.985

>  <pKa_ma>  (294) 
6.5619

>  <pKa_mb>  (294) 
1.2894

>  <N_Chirals>  (294) 
0

>  <Name>  (294) 
methyl 4-[2-(9-fluoro-6-methyl-10-oxo-3,4,5,10-tetrahydrobenzo[b][1,6]naphthyridin-2(1H)-yl)acetamido]benzoate

>  <Smile>  (294) 
Cc(ccc(F)c12)c2NC(CCN(CC(Nc(cc2)ccc2C(OC)=O)=O)C2)=C2C1=O

>  <Color>  (294) 
YELLOW

>  <Collection>  (294) 
NC

>  <InChI>  (294) 
InChI=1S/C23H22FN3O4/c1-13-3-8-17(24)20-21(13)26-18-9-10-27(11-16(18)22(20)29)12-19(28)25-15-6-4-14(5-7-15)23(30)31-2/h3-8H,9-12H2,1-2H3,(H,25,28)(H,26,29)

>  <InChI Key>  (294) 
FMJLAEBGIWJVRI-UHFFFAOYSA-N

>  <PERCENTSP3>  (294) 
26.1

>  <Link>  (294) 
https://www.chemdiv.com/catalog/screening-compounds/compound-L489-1911/

>  <MFCDNUMBER>  (294) 
MFCD27457676

>  <CLNUMBER>  (294) 
CL8213A

>  <STEREO>  (294) 
ACHIRAL

>  <State>  (294) 
Solid

>  <Similarity score>  (294) 
0.22

$$$$
1-(3-ethyl-6-methyl[1,2]oxazolo[5,4-d]pyrimidin-4-yl)-N-[(2-fluorophenyl)methyl]
     RDKit          2D

 29 32  0  0  0  0  0  0  0  0999 V2000
   -0.5324    2.7320    0.0000 C   0  0  0  0  0  0  0  0  0  0  0  0
   -1.3870    3.2370    0.0000 C   0  0  0  0  0  0  0  0  0  0  0  0
   -1.3870    4.2269    0.0000 C   0  0  0  0  0  0  0  0  0  0  0  0
   -0.5324    1.7370    0.0000 N   0  0  0  0  0  0  0  0  0  0  0  0
    0.3324    3.2370    0.0000 N   0  0  0  0  0  0  0  0  0  0  0  0
   -0.5324    4.7218    0.0000 N   0  0  0  0  0  0  0  0  0  0  0  0
   -2.9271    3.7320    0.0000 N   0  0  0  0  0  0  0  0  0  0  0  0
   -2.3373    4.5319    0.0000 O   0  0  0  0  0  0  0  0  0  0  0  0
    0.3324    0.2525    0.0000 C   0  0  0  0  0  0  0  0  0  0  0  0
    0.3324    4.2269    0.0000 C   0  0  0  0  0  0  0  0  0  0  0  0
   -2.3373    2.9221    0.0000 C   0  0  0  0  0  0  0  0  0  0  0  0
    1.1924   -0.2426    0.0000 C   0  0  0  0  0  0  0  0  0  0  0  0
    0.3324    1.2421    0.0000 C   0  0  0  0  0  0  0  0  0  0  0  0
    1.1924   -1.2426    0.0000 N   0  0  0  0  0  0  0  0  0  0  0  0
    2.0471   -2.7323    0.0000 C   0  0  0  0  0  0  0  0  0  0  0  0
    2.0471   -1.7425    0.0000 C   0  0  0  0  0  0  0  0  0  0  0  0
    2.0471    0.2525    0.0000 O   0  0  0  0  0  0  0  0  0  0  0  0
    2.9171   -3.2274    0.0000 C   0  0  0  0  0  0  0  0  0  0  0  0
   -1.3870    1.2421    0.0000 C   0  0  0  0  0  0  0  0  0  0  0  0
    3.7720   -2.7323    0.0000 F   0  0  0  0  0  0  0  0  0  0  0  0
   -0.5324   -0.2426    0.0000 C   0  0  0  0  0  0  0  0  0  0  0  0
   -1.3870    0.2525    0.0000 C   0  0  0  0  0  0  0  0  0  0  0  0
    1.1924    4.7218    0.0000 C   0  0  0  0  0  0  0  0  0  0  0  0
   -2.6470    1.9773    0.0000 C   0  0  0  0  0  0  0  0  0  0  0  0
    1.1924   -3.2274    0.0000 C   0  0  0  0  0  0  0  0  0  0  0  0
    2.9171   -4.2269    0.0000 C   0  0  0  0  0  0  0  0  0  0  0  0
   -3.7720    1.5771    0.0000 C   0  0  0  0  0  0  0  0  0  0  0  0
    1.1924   -4.2269    0.0000 C   0  0  0  0  0  0  0  0  0  0  0  0
    2.0471   -4.7218    0.0000 C   0  0  0  0  0  0  0  0  0  0  0  0
  1  2  1  0
  2  3  2  0
  3  6  1  0
  1  4  1  0
  1  5  2  0
  6 10  2  0
  7 11  2  0
  7  8  1  0
  3  8  1  0
  9 13  1  0
  9 21  1  0
  5 10  1  0
  2 11  1  0
  9 12  1  0
  4 13  1  0
 12 14  1  0
 15 16  1  0
 14 16  1  0
 12 17  2  0
 15 18  2  0
  4 19  1  0
 18 20  1  0
 21 22  1  0
 19 22  1  0
 10 23  1  0
 11 24  1  0
 15 25  1  0
 18 26  1  0
 24 27  1  0
 25 28  2  0
 28 29  1  0
 26 29  2  0
M  END
>  <IDNUMBER>  (295) 
E990-0930

>  <available>  (295) 
38

>  <H_acceptor>  (295) 
6

>  <H_donor>  (295) 
1

>  <B_rotN>  (295) 
6

>  <N_O>  (295) 
7

>  <logP>  (295) 
3.157

>  <logD>  (295) 
3.1567

>  <logSw>  (295) 
-3.2498

>  <PSA>  (295) 
69.022

>  <pKa_ma>  (295) 
12.356

>  <pKa_mb>  (295) 
4.2171

>  <N_Chirals>  (295) 
1

>  <Name>  (295) 
1-(3-ethyl-6-methyl[1,2]oxazolo[5,4-d]pyrimidin-4-yl)-N-[(2-fluorophenyl)methyl]piperidine-3-carboxamide

>  <Smile>  (295) 
CCc1noc2c1c(N(CCC1)CC1C(NCc(cccc1)c1F)=O)nc(C)n2

>  <Color>  (295) 
NOT COLORED

>  <Collection>  (295) 
NC

>  <InChI>  (295) 
InChI=1S/C21H24FN5O2/c1-3-17-18-19(24-13(2)25-21(18)29-26-17)27-10-6-8-15(12-27)20(28)23-11-14-7-4-5-9-16(14)22/h4-5,7,9,15H,3,6,8,10-12H2,1-2H3,(H,23,28)/t15-/m0/s1

>  <InChI Key>  (295) 
CGQSFOKZVAZAAF-HNNXBMFYSA-N

>  <PERCENTSP3>  (295) 
42.9

>  <Link>  (295) 
https://www.chemdiv.com/catalog/screening-compounds/compound-E990-0930/

>  <MFCDNUMBER>  (295) 
MFCD14936807

>  <CLNUMBER>  (295) 
CL7467A

>  <STEREO>  (295) 
RACEMIC MIXTURE

>  <State>  (295) 
Solid

>  <Similarity score>  (295) 
0.22

$$$$
N-(3,5-dimethylphenyl)-2-(9-fluoro-6-methyl-10-oxo-3,4,5,10-tetrahydrobenzo[b][1
     RDKit          2D

 29 32  0  0  0  0  0  0  0  0999 V2000
   -0.8943   -1.2154    0.0000 C   0  0  0  0  0  0  0  0  0  0  0  0
   -1.7619   -0.7204    0.0000 C   0  0  0  0  0  0  0  0  0  0  0  0
   -2.6422   -1.2154    0.0000 C   0  0  0  0  0  0  0  0  0  0  0  0
   -1.7809   -2.6939    0.0000 N   0  0  0  0  0  0  0  0  0  0  0  0
   -2.6422   -2.2022    0.0000 C   0  0  0  0  0  0  0  0  0  0  0  0
   -0.8943   -2.2052    0.0000 C   0  0  0  0  0  0  0  0  0  0  0  0
    0.8786   -1.2154    0.0000 N   0  0  0  0  0  0  0  0  0  0  0  0
    0.0080   -0.7300    0.0000 C   0  0  0  0  0  0  0  0  0  0  0  0
    1.7652    0.2474    0.0000 C   0  0  0  0  0  0  0  0  0  0  0  0
   -3.5352   -0.7300    0.0000 C   0  0  0  0  0  0  0  0  0  0  0  0
   -0.0110   -2.6939    0.0000 C   0  0  0  0  0  0  0  0  0  0  0  0
    2.6673    0.7361    0.0000 N   0  0  0  0  0  0  0  0  0  0  0  0
    2.6673    1.7135    0.0000 C   0  0  0  0  0  0  0  0  0  0  0  0
   -3.5352   -2.6846    0.0000 C   0  0  0  0  0  0  0  0  0  0  0  0
   -1.7619    0.2664    0.0000 O   0  0  0  0  0  0  0  0  0  0  0  0
    1.7652   -0.7300    0.0000 C   0  0  0  0  0  0  0  0  0  0  0  0
    0.8786    0.7361    0.0000 O   0  0  0  0  0  0  0  0  0  0  0  0
    0.8786   -2.2052    0.0000 C   0  0  0  0  0  0  0  0  0  0  0  0
   -4.4028   -1.2154    0.0000 C   0  0  0  0  0  0  0  0  0  0  0  0
   -4.4028   -2.2022    0.0000 C   0  0  0  0  0  0  0  0  0  0  0  0
    3.5475    3.1700    0.0000 C   0  0  0  0  0  0  0  0  0  0  0  0
    1.7746    3.1700    0.0000 C   0  0  0  0  0  0  0  0  0  0  0  0
    1.7746    2.1929    0.0000 C   0  0  0  0  0  0  0  0  0  0  0  0
    3.5475    2.1929    0.0000 C   0  0  0  0  0  0  0  0  0  0  0  0
    2.6673    3.6587    0.0000 C   0  0  0  0  0  0  0  0  0  0  0  0
   -3.5352    0.2664    0.0000 F   0  0  0  0  0  0  0  0  0  0  0  0
   -3.5352   -3.6807    0.0000 C   0  0  0  0  0  0  0  0  0  0  0  0
    0.9194    3.6807    0.0000 C   0  0  0  0  0  0  0  0  0  0  0  0
    4.4028    3.6807    0.0000 C   0  0  0  0  0  0  0  0  0  0  0  0
  1  2  1  0
  2  3  1  0
  3  5  1  0
  4  6  1  0
  4  5  1  0
  1  6  2  0
  7  8  1  0
  1  8  1  0
  9 16  1  0
  3 10  2  0
  6 11  1  0
 11 18  1  0
  9 12  1  0
 12 13  1  0
  5 14  2  0
  2 15  2  0
  7 16  1  0
  9 17  2  0
  7 18  1  0
 10 19  1  0
 19 20  2  0
 14 20  1  0
 21 24  2  0
 22 23  1  0
 22 25  2  0
 13 23  2  0
 13 24  1  0
 21 25  1  0
 10 26  1  0
 14 27  1  0
 22 28  1  0
 21 29  1  0
M  END
>  <IDNUMBER>  (296) 
L489-1898

>  <available>  (296) 
60

>  <H_acceptor>  (296) 
5

>  <H_donor>  (296) 
2

>  <B_rotN>  (296) 
4

>  <N_O>  (296) 
5

>  <logP>  (296) 
4.2922

>  <logD>  (296) 
3.3952

>  <logSw>  (296) 
-4.3231

>  <PSA>  (296) 
48.811

>  <pKa_ma>  (296) 
6.5619

>  <pKa_mb>  (296) 
1.2894

>  <N_Chirals>  (296) 
0

>  <Name>  (296) 
N-(3,5-dimethylphenyl)-2-(9-fluoro-6-methyl-10-oxo-3,4,5,10-tetrahydrobenzo[b][1,6]naphthyridin-2(1H)-yl)acetamide

>  <Smile>  (296) 
Cc1cc(NC(CN(CC2)CC3=C2Nc2c(C)ccc(F)c2C3=O)=O)cc(C)c1

>  <Color>  (296) 
YELLOW

>  <Collection>  (296) 
NC

>  <InChI>  (296) 
InChI=1S/C23H24FN3O2/c1-13-8-14(2)10-16(9-13)25-20(28)12-27-7-6-19-17(11-27)23(29)21-18(24)5-4-15(3)22(21)26-19/h4-5,8-10H,6-7,11-12H2,1-3H3,(H,25,28)(H,26,29)

>  <InChI Key>  (296) 
OOKGWXHUMHPKFD-UHFFFAOYSA-N

>  <PERCENTSP3>  (296) 
30.4

>  <Link>  (296) 
https://www.chemdiv.com/catalog/screening-compounds/compound-L489-1898/

>  <MFCDNUMBER>  (296) 
MFCD27457664

>  <CLNUMBER>  (296) 
CL8213A

>  <STEREO>  (296) 
ACHIRAL

>  <State>  (296) 
Solid

>  <Similarity score>  (296) 
0.22

$$$$
2-{4-[4-cyano-1-(2-methylpropyl)-6,7-dihydro-5H-cyclopenta[c]pyridin-3-yl]pipera
     RDKit          2D

 33 36  0  0  0  0  0  0  0  0999 V2000
   -0.9524   -2.0087    0.0000 C   0  0  0  0  0  0  0  0  0  0  0  0
   -1.8153   -1.5087    0.0000 C   0  0  0  0  0  0  0  0  0  0  0  0
   -0.9524   -3.0049    0.0000 N   0  0  0  0  0  0  0  0  0  0  0  0
   -1.8153   -3.5050    0.0000 C   0  0  0  0  0  0  0  0  0  0  0  0
   -2.6736   -2.0087    0.0000 C   0  0  0  0  0  0  0  0  0  0  0  0
   -0.0898   -1.5087    0.0000 N   0  0  0  0  0  0  0  0  0  0  0  0
   -2.6779   -3.0214    0.0000 C   0  0  0  0  0  0  0  0  0  0  0  0
   -1.8153   -0.5126    0.0000 C   0  0  0  0  0  0  0  0  0  0  0  0
    2.5066    1.0002    0.0000 C   0  0  0  0  0  0  0  0  0  0  0  0
   -1.8153    0.4876    0.0000 N   0  0  0  0  0  0  0  0  0  0  0  0
    1.6483   -0.5126    0.0000 N   0  0  0  0  0  0  0  0  0  0  0  0
    3.3695    1.4961    0.0000 N   0  0  0  0  0  0  0  0  0  0  0  0
   -1.8153   -4.5010    0.0000 C   0  0  0  0  0  0  0  0  0  0  0  0
   -0.0898   -0.5126    0.0000 C   0  0  0  0  0  0  0  0  0  0  0  0
    0.7689   -2.0212    0.0000 C   0  0  0  0  0  0  0  0  0  0  0  0
    2.5066   -0.0000    0.0000 C   0  0  0  0  0  0  0  0  0  0  0  0
    1.6483    1.4961    0.0000 O   0  0  0  0  0  0  0  0  0  0  0  0
    1.6483   -1.5087    0.0000 C   0  0  0  0  0  0  0  0  0  0  0  0
    0.7689   -0.0126    0.0000 C   0  0  0  0  0  0  0  0  0  0  0  0
    3.3695    2.4963    0.0000 C   0  0  0  0  0  0  0  0  0  0  0  0
    3.3695    4.5010    0.0000 C   0  0  0  0  0  0  0  0  0  0  0  0
   -3.6279   -1.6921    0.0000 C   0  0  0  0  0  0  0  0  0  0  0  0
    2.5066    2.9924    0.0000 C   0  0  0  0  0  0  0  0  0  0  0  0
    4.2323    2.9924    0.0000 C   0  0  0  0  0  0  0  0  0  0  0  0
   -3.6406   -3.3215    0.0000 C   0  0  0  0  0  0  0  0  0  0  0  0
    4.2323    4.0008    0.0000 C   0  0  0  0  0  0  0  0  0  0  0  0
    2.5066    4.0008    0.0000 C   0  0  0  0  0  0  0  0  0  0  0  0
    3.3695    5.4969    0.0000 O   0  0  0  0  0  0  0  0  0  0  0  0
   -4.2323   -2.5047    0.0000 C   0  0  0  0  0  0  0  0  0  0  0  0
   -2.6736   -5.0011    0.0000 C   0  0  0  0  0  0  0  0  0  0  0  0
    4.2323    5.9971    0.0000 C   0  0  0  0  0  0  0  0  0  0  0  0
   -3.5404   -4.4967    0.0000 C   0  0  0  0  0  0  0  0  0  0  0  0
   -2.6779   -5.9971    0.0000 C   0  0  0  0  0  0  0  0  0  0  0  0
  1  2  2  0
  1  3  1  0
  3  4  2  0
  2  5  1  0
  5  7  2  0
  1  6  1  0
  4  7  1  0
  2  8  1  0
  9 16  1  0
  8 10  3  0
 11 18  1  0
  9 12  1  0
  4 13  1  0
  6 14  1  0
  6 15  1  0
 11 16  1  0
  9 17  2  0
 15 18  1  0
 14 19  1  0
 11 19  1  0
 12 20  1  0
 21 26  2  0
 21 27  1  0
  5 22  1  0
 20 23  1  0
 20 24  2  0
  7 25  1  0
 25 29  1  0
 24 26  1  0
 23 27  2  0
 21 28  1  0
 22 29  1  0
 13 30  1  0
 28 31  1  0
 30 32  1  0
 30 33  1  0
M  END
>  <IDNUMBER>  (297) 
IB06-4186

>  <available>  (297) 
50

>  <H_acceptor>  (297) 
6

>  <H_donor>  (297) 
1

>  <B_rotN>  (297) 
9

>  <N_O>  (297) 
7

>  <logP>  (297) 
5.24

>  <logD>  (297) 
5.17

>  <logSw>  (297) 
-6.28

>  <PSA>  (297) 
100.62

>  <pKa_ma>  (297) 
12.26

>  <pKa_mb>  (297) 
6.7

>  <N_Chirals>  (297) 
0

>  <Name>  (297) 
2-{4-[4-cyano-1-(2-methylpropyl)-6,7-dihydro-5H-cyclopenta[c]pyridin-3-yl]piperazin-1-yl}-N-(4-methoxyphenyl)acetamide

>  <Smile>  (297) 
CC(C)Cc(nc1N2CCN(CC(Nc(cc3)ccc3OC)=O)CC2)c(CCC2)c2c1C#N

>  <Color>  (297) 
NOT COLORED

>  <Collection>  (297) 
DC

>  <InChI>  (297) 
InChI=1S/C26H33N5O2/c1-18(2)15-24-22-6-4-5-21(22)23(16-27)26(29-24)31-13-11-30(12-14-31)17-25(32)28-19-7-9-20(33-3)10-8-19/h7-10,18H,4-6,11-15,17H2,1-3H3,(H,28,32)

>  <InChI Key>  (297) 
GPIKTKHIYRHKRF-UHFFFAOYSA-N

>  <PERCENTSP3>  (297) 
50

>  <Link>  (297) 
https://www.chemdiv.com/catalog/screening-compounds/compound-IB06-4186/

>  <STEREO>  (297) 
ACHIRAL

>  <State>  (297) 
Solid

>  <Similarity score>  (297) 
0.22

$$$$
N-(3,4-difluorophenyl)-1-(5,6-dimethylfuro[2,3-d]pyrimidin-4-yl)piperidine-3-car
     RDKit          2D

 28 31  0  0  0  0  0  0  0  0999 V2000
   -3.4826   -0.0292    0.0000 C   0  0  0  0  0  0  0  0  0  0  0  0
   -4.3454    0.4710    0.0000 C   0  0  0  0  0  0  0  0  0  0  0  0
   -2.6196    0.4710    0.0000 C   0  0  0  0  0  0  0  0  0  0  0  0
   -3.6868   -1.0046    0.0000 C   0  0  0  0  0  0  0  0  0  0  0  0
   -1.7485   -0.0292    0.0000 N   0  0  0  0  0  0  0  0  0  0  0  0
   -5.0957   -0.1958    0.0000 O   0  0  0  0  0  0  0  0  0  0  0  0
   -4.6829   -1.1087    0.0000 C   0  0  0  0  0  0  0  0  0  0  0  0
    0.8525    0.4710    0.0000 C   0  0  0  0  0  0  0  0  0  0  0  0
   -0.0186   -0.0292    0.0000 C   0  0  0  0  0  0  0  0  0  0  0  0
   -4.3454    1.4714    0.0000 N   0  0  0  0  0  0  0  0  0  0  0  0
   -2.6196    1.4714    0.0000 N   0  0  0  0  0  0  0  0  0  0  0  0
   -0.8816    0.4710    0.0000 C   0  0  0  0  0  0  0  0  0  0  0  0
    1.7193   -0.0292    0.0000 N   0  0  0  0  0  0  0  0  0  0  0  0
    4.3161    0.4710    0.0000 C   0  0  0  0  0  0  0  0  0  0  0  0
    3.4450   -0.0292    0.0000 C   0  0  0  0  0  0  0  0  0  0  0  0
   -3.4826    1.9715    0.0000 C   0  0  0  0  0  0  0  0  0  0  0  0
    2.5820    0.4710    0.0000 C   0  0  0  0  0  0  0  0  0  0  0  0
    4.3161    1.4714    0.0000 C   0  0  0  0  0  0  0  0  0  0  0  0
    0.8525    1.4714    0.0000 O   0  0  0  0  0  0  0  0  0  0  0  0
    3.4450    1.9715    0.0000 C   0  0  0  0  0  0  0  0  0  0  0  0
    5.1831   -0.0292    0.0000 F   0  0  0  0  0  0  0  0  0  0  0  0
   -1.7485   -1.0295    0.0000 C   0  0  0  0  0  0  0  0  0  0  0  0
    2.5820    1.4714    0.0000 C   0  0  0  0  0  0  0  0  0  0  0  0
    5.1831    1.9715    0.0000 F   0  0  0  0  0  0  0  0  0  0  0  0
   -3.0198   -1.7465    0.0000 C   0  0  0  0  0  0  0  0  0  0  0  0
   -5.1831   -1.9715    0.0000 C   0  0  0  0  0  0  0  0  0  0  0  0
   -0.0186   -1.0295    0.0000 C   0  0  0  0  0  0  0  0  0  0  0  0
   -0.8816   -1.5297    0.0000 C   0  0  0  0  0  0  0  0  0  0  0  0
  1  2  2  0
  1  3  1  0
  1  4  1  0
  3  5  1  0
  2  6  1  0
  6  7  1  0
  4  7  2  0
  8  9  1  0
  9 12  1  0
  9 27  1  0
  2 10  1  0
  3 11  2  0
  5 12  1  0
  8 13  1  0
 14 15  1  0
 15 17  2  0
 11 16  1  0
 10 16  2  0
 13 17  1  0
 18 20  1  0
 14 18  2  0
  8 19  2  0
 20 23  2  0
 14 21  1  0
  5 22  1  0
 17 23  1  0
 18 24  1  0
  4 25  1  0
  7 26  1  0
 27 28  1  0
 22 28  1  0
M  END
>  <IDNUMBER>  (298) 
F228-0502

>  <available>  (298) 
53

>  <H_acceptor>  (298) 
5

>  <H_donor>  (298) 
1

>  <B_rotN>  (298) 
4

>  <N_O>  (298) 
6

>  <logP>  (298) 
3.6144

>  <logD>  (298) 
3.5334

>  <logSw>  (298) 
-3.9103

>  <PSA>  (298) 
54.579

>  <pKa_ma>  (298) 
8.1927

>  <pKa_mb>  (298) 
5.9759

>  <N_Chirals>  (298) 
1

>  <Name>  (298) 
N-(3,4-difluorophenyl)-1-(5,6-dimethylfuro[2,3-d]pyrimidin-4-yl)piperidine-3-carboxamide

>  <Smile>  (298) 
Cc1c(C)oc2c1c(N(CCC1)CC1C(Nc(cc1)cc(F)c1F)=O)ncn2

>  <Color>  (298) 
NOT COLORED

>  <Collection>  (298) 
DC

>  <InChI>  (298) 
InChI=1S/C20H20F2N4O2/c1-11-12(2)28-20-17(11)18(23-10-24-20)26-7-3-4-13(9-26)19(27)25-14-5-6-15(21)16(22)8-14/h5-6,8,10,13H,3-4,7,9H2,1-2H3,(H,25,27)/t13-/m0/s1

>  <InChI Key>  (298) 
LWCOEBJROCCYLB-ZDUSSCGKSA-N

>  <PERCENTSP3>  (298) 
35

>  <Link>  (298) 
https://www.chemdiv.com/catalog/screening-compounds/compound-F228-0502/

>  <MFCDNUMBER>  (298) 
MFCD14945552

>  <CLNUMBER>  (298) 
CL1321B

>  <STEREO>  (298) 
RACEMIC MIXTURE

>  <State>  (298) 
Solid

>  <Similarity score>  (298) 
0.22

$$$$
ethyl 4-[3-(6-methoxy-1,3,4,9-tetrahydro-2H-pyrido[3,4-b]indol-2-yl)-2,5-dioxopy
     RDKit          2D

 33 37  0  0  0  0  0  0  0  0999 V2000
    1.4674   -0.4315    0.0000 N   0  0  0  0  0  0  0  0  0  0  0  0
    0.4919   -0.2188    0.0000 C   0  0  0  0  0  0  0  0  0  0  0  0
    1.5715   -1.4155    0.0000 C   0  0  0  0  0  0  0  0  0  0  0  0
   -2.4011   -2.2240    0.0000 C   0  0  0  0  0  0  0  0  0  0  0  0
    0.0000   -1.0901    0.0000 C   0  0  0  0  0  0  0  0  0  0  0  0
   -2.9930   -1.4112    0.0000 C   0  0  0  0  0  0  0  0  0  0  0  0
    0.6586   -1.8196    0.0000 C   0  0  0  0  0  0  0  0  0  0  0  0
   -0.9962   -1.1817    0.0000 N   0  0  0  0  0  0  0  0  0  0  0  0
   -2.9930   -3.0329    0.0000 N   0  0  0  0  0  0  0  0  0  0  0  0
   -3.9518   -1.7278    0.0000 C   0  0  0  0  0  0  0  0  0  0  0  0
   -3.9518   -2.7324    0.0000 C   0  0  0  0  0  0  0  0  0  0  0  0
   -1.4006   -2.1158    0.0000 C   0  0  0  0  0  0  0  0  0  0  0  0
    2.2092    0.2397    0.0000 C   0  0  0  0  0  0  0  0  0  0  0  0
   -2.5886   -0.4816    0.0000 C   0  0  0  0  0  0  0  0  0  0  0  0
    4.4436    2.2446    0.0000 C   0  0  0  0  0  0  0  0  0  0  0  0
    0.0875    0.6858    0.0000 O   0  0  0  0  0  0  0  0  0  0  0  0
   -1.5924   -0.3771    0.0000 C   0  0  0  0  0  0  0  0  0  0  0  0
    2.4428   -1.9198    0.0000 O   0  0  0  0  0  0  0  0  0  0  0  0
    3.6975    1.5779    0.0000 C   0  0  0  0  0  0  0  0  0  0  0  0
   -4.8230   -1.2237    0.0000 C   0  0  0  0  0  0  0  0  0  0  0  0
    4.2311    3.2245    0.0000 O   0  0  0  0  0  0  0  0  0  0  0  0
   -4.8230   -3.2245    0.0000 C   0  0  0  0  0  0  0  0  0  0  0  0
    3.1682   -0.0687    0.0000 C   0  0  0  0  0  0  0  0  0  0  0  0
    2.0008    1.2194    0.0000 C   0  0  0  0  0  0  0  0  0  0  0  0
    2.7430    1.8820    0.0000 C   0  0  0  0  0  0  0  0  0  0  0  0
    3.9100    0.6023    0.0000 C   0  0  0  0  0  0  0  0  0  0  0  0
   -5.6693   -1.7278    0.0000 C   0  0  0  0  0  0  0  0  0  0  0  0
    5.3775    1.9403    0.0000 O   0  0  0  0  0  0  0  0  0  0  0  0
   -5.6693   -2.7324    0.0000 C   0  0  0  0  0  0  0  0  0  0  0  0
   -6.5363   -1.2237    0.0000 O   0  0  0  0  0  0  0  0  0  0  0  0
    5.5900    0.9649    0.0000 C   0  0  0  0  0  0  0  0  0  0  0  0
   -6.5447   -0.2272    0.0000 C   0  0  0  0  0  0  0  0  0  0  0  0
    6.5447    0.6649    0.0000 C   0  0  0  0  0  0  0  0  0  0  0  0
  1  2  1  0
  1  3  1  0
  4 12  1  0
  2  5  1  0
  5  7  1  0
  6 14  1  0
  4  6  2  0
  3  7  1  0
  5  8  1  0
  4  9  1  0
  6 10  1  0
 10 11  1  0
  9 11  1  0
  8 12  1  0
  1 13  1  0
 14 17  1  0
 15 19  1  0
  2 16  2  0
  8 17  1  0
  3 18  2  0
 19 25  1  0
 10 20  2  0
 15 21  2  0
 11 22  2  0
 13 23  2  0
 13 24  1  0
 24 25  2  0
 23 26  1  0
 19 26  2  0
 20 27  1  0
 27 29  2  0
 15 28  1  0
 22 29  1  0
 27 30  1  0
 28 31  1  0
 30 32  1  0
 31 33  1  0
M  END
>  <IDNUMBER>  (299) 
Y020-3913

>  <available>  (299) 
26

>  <H_acceptor>  (299) 
9

>  <H_donor>  (299) 
1

>  <B_rotN>  (299) 
6

>  <N_O>  (299) 
8

>  <logP>  (299) 
2.2999

>  <logD>  (299) 
2.2999

>  <logSw>  (299) 
-2.9455

>  <PSA>  (299) 
70.797

>  <pKa_ma>  (299) 
15.696

>  <pKa_mb>  (299) 
2.076

>  <N_Chirals>  (299) 
1

>  <Name>  (299) 
ethyl 4-[3-(6-methoxy-1,3,4,9-tetrahydro-2H-pyrido[3,4-b]indol-2-yl)-2,5-dioxopyrrolidin-1-yl]benzoate

>  <Smile>  (299) 
CCOC(c(cc1)ccc1N(C(CC1N(CC2)Cc3c2c(cc(cc2)OC)c2[nH]3)=O)C1=O)=O

>  <Color>  (299) 
NOT COLORED

>  <Collection>  (299) 
DC

>  <InChI>  (299) 
InChI=1S/C25H25N3O5/c1-3-33-25(31)15-4-6-16(7-5-15)28-23(29)13-22(24(28)30)27-11-10-18-19-12-17(32-2)8-9-20(19)26-21(18)14-27/h4-9,12,22,26H,3,10-11,13-14H2,1-2H3/t22-/m0/s1

>  <InChI Key>  (299) 
YKZPJWBLVJSWGG-QFIPXVFZSA-N

>  <PERCENTSP3>  (299) 
32

>  <Link>  (299) 
https://www.chemdiv.com/catalog/screening-compounds/compound-Y020-3913/

>  <MFCDNUMBER>  (299) 
MFCD13676886

>  <CLNUMBER>  (299) 
CL2165

>  <STEREO>  (299) 
RACEMIC MIXTURE

>  <State>  (299) 
Solid

>  <Similarity score>  (299) 
0.22

$$$$
7-[(4-chloro-3-fluorophenyl)methyl]-2-(morpholin-4-yl)-3,5,6,7,8,9-hexahydro-4H-
     RDKit          2D

 27 30  0  0  0  0  0  0  0  0999 V2000
    2.6727   -0.3792    0.0000 C   0  0  0  0  0  0  0  0  0  0  0  0
    2.4596    0.5984    0.0000 N   0  0  0  0  0  0  0  0  0  0  0  0
    0.7646    0.2066    0.0000 C   0  0  0  0  0  0  0  0  0  0  0  0
    1.9396   -1.0561    0.0000 N   0  0  0  0  0  0  0  0  0  0  0  0
    1.4976    0.8929    0.0000 C   0  0  0  0  0  0  0  0  0  0  0  0
    0.9838   -0.7710    0.0000 C   0  0  0  0  0  0  0  0  0  0  0  0
    3.6347   -0.6705    0.0000 N   0  0  0  0  0  0  0  0  0  0  0  0
   -0.1348    0.6390    0.0000 C   0  0  0  0  0  0  0  0  0  0  0  0
   -1.2627   -0.7710    0.0000 N   0  0  0  0  0  0  0  0  0  0  0  0
    0.3634   -1.5449    0.0000 C   0  0  0  0  0  0  0  0  0  0  0  0
   -4.5714    0.2506    0.0000 C   0  0  0  0  0  0  0  0  0  0  0  0
    1.2752    1.8580    0.0000 O   0  0  0  0  0  0  0  0  0  0  0  0
   -4.2707    1.2030    0.0000 C   0  0  0  0  0  0  0  0  0  0  0  0
   -3.8945   -0.4827    0.0000 C   0  0  0  0  0  0  0  0  0  0  0  0
   -2.9172   -0.2569    0.0000 C   0  0  0  0  0  0  0  0  0  0  0  0
   -2.2403   -0.9903    0.0000 C   0  0  0  0  0  0  0  0  0  0  0  0
   -1.0310    0.2066    0.0000 C   0  0  0  0  0  0  0  0  0  0  0  0
   -0.6329   -1.5449    0.0000 C   0  0  0  0  0  0  0  0  0  0  0  0
    5.5428   -1.2691    0.0000 O   0  0  0  0  0  0  0  0  0  0  0  0
   -3.2931    1.4382    0.0000 C   0  0  0  0  0  0  0  0  0  0  0  0
   -5.5428    0.0282    0.0000 F   0  0  0  0  0  0  0  0  0  0  0  0
   -2.6162    0.7048    0.0000 C   0  0  0  0  0  0  0  0  0  0  0  0
   -4.9570    1.9457    0.0000 Cl  0  0  0  0  0  0  0  0  0  0  0  0
    3.8602   -1.6450    0.0000 C   0  0  0  0  0  0  0  0  0  0  0  0
    4.3677    0.0061    0.0000 C   0  0  0  0  0  0  0  0  0  0  0  0
    5.3235   -0.2915    0.0000 C   0  0  0  0  0  0  0  0  0  0  0  0
    4.8098   -1.9457    0.0000 C   0  0  0  0  0  0  0  0  0  0  0  0
  1  2  1  0
  3  6  2  0
  3  5  1  0
  1  4  2  0
  2  5  1  0
  4  6  1  0
  1  7  1  0
  3  8  1  0
  9 18  1  0
  9 17  1  0
  6 10  1  0
 11 14  2  0
 11 13  1  0
  5 12  2  0
 13 20  2  0
 14 15  1  0
 15 16  1  0
  9 16  1  0
  8 17  1  0
 10 18  1  0
 19 26  1  0
 19 27  1  0
 20 22  1  0
 11 21  1  0
 15 22  2  0
 13 23  1  0
  7 24  1  0
  7 25  1  0
 25 26  1  0
 24 27  1  0
M  END
>  <IDNUMBER>  (300) 
S039-3191

>  <available>  (300) 
30

>  <H_acceptor>  (300) 
5

>  <H_donor>  (300) 
1

>  <B_rotN>  (300) 
3

>  <N_O>  (300) 
6

>  <logP>  (300) 
1.9374

>  <logD>  (300) 
1.8102

>  <logSw>  (300) 
-3.026

>  <PSA>  (300) 
49.708

>  <pKa_ma>  (300) 
9.6889

>  <pKa_mb>  (300) 
6.9233

>  <N_Chirals>  (300) 
0

>  <Name>  (300) 
7-[(4-chloro-3-fluorophenyl)methyl]-2-(morpholin-4-yl)-3,5,6,7,8,9-hexahydro-4H-pyrimido[4,5-d]azepin-4-one

>  <Smile>  (300) 
O=C1NC(N2CCOCC2)=NC2=C1CCN(Cc(cc1)cc(F)c1Cl)CC2

>  <Color>  (300) 
YELLOW

>  <Collection>  (300) 
IC

>  <InChI>  (300) 
InChI=1S/C19H22ClFN4O2/c20-15-2-1-13(11-16(15)21)12-24-5-3-14-17(4-6-24)22-19(23-18(14)26)25-7-9-27-10-8-25/h1-2,11H,3-10,12H2,(H,22,23,26)

>  <InChI Key>  (300) 
XQNHUTBJXXDVJX-UHFFFAOYSA-N

>  <PERCENTSP3>  (300) 
47.4

>  <Link>  (300) 
https://www.chemdiv.com/catalog/screening-compounds/compound-S039-3191/

>  <MFCDNUMBER>  (300) 
MFCD28999091

>  <CLNUMBER>  (300) 
CM2417

>  <STEREO>  (300) 
ACHIRAL

>  <State>  (300) 
Solid

>  <Similarity score>  (300) 
0.22

$$$$
5-[(2,4-dimethoxyphenyl)methyl]-N,N-dimethyl-4,5,6,7-tetrahydropyrazolo[1,5-a]py
     RDKit          2D

 25 27  0  0  0  0  0  0  0  0999 V2000
    2.6322   -1.4277    0.0000 C   0  0  0  0  0  0  0  0  0  0  0  0
    3.0407   -0.5106    0.0000 N   0  0  0  0  0  0  0  0  0  0  0  0
    2.2946    0.1564    0.0000 N   0  0  0  0  0  0  0  0  0  0  0  0
    1.4319   -0.3439    0.0000 C   0  0  0  0  0  0  0  0  0  0  0  0
    1.6401   -1.3192    0.0000 C   0  0  0  0  0  0  0  0  0  0  0  0
    3.1325   -2.2904    0.0000 C   0  0  0  0  0  0  0  0  0  0  0  0
    0.5646    1.1566    0.0000 N   0  0  0  0  0  0  0  0  0  0  0  0
   -1.1692    1.1566    0.0000 C   0  0  0  0  0  0  0  0  0  0  0  0
    0.5646    0.1564    0.0000 C   0  0  0  0  0  0  0  0  0  0  0  0
   -2.0362    1.6569    0.0000 C   0  0  0  0  0  0  0  0  0  0  0  0
    2.2946    1.1566    0.0000 C   0  0  0  0  0  0  0  0  0  0  0  0
   -0.3023    1.6569    0.0000 C   0  0  0  0  0  0  0  0  0  0  0  0
   -2.9033    1.1566    0.0000 C   0  0  0  0  0  0  0  0  0  0  0  0
    4.1326   -2.2904    0.0000 N   0  0  0  0  0  0  0  0  0  0  0  0
    2.6322   -3.1575    0.0000 O   0  0  0  0  0  0  0  0  0  0  0  0
   -1.1692    0.1564    0.0000 C   0  0  0  0  0  0  0  0  0  0  0  0
    1.4319    1.6569    0.0000 C   0  0  0  0  0  0  0  0  0  0  0  0
   -2.9033    0.1564    0.0000 C   0  0  0  0  0  0  0  0  0  0  0  0
   -2.0362   -0.3439    0.0000 C   0  0  0  0  0  0  0  0  0  0  0  0
   -2.0362    2.6573    0.0000 O   0  0  0  0  0  0  0  0  0  0  0  0
   -3.7660   -0.3439    0.0000 O   0  0  0  0  0  0  0  0  0  0  0  0
    4.6329   -1.4277    0.0000 C   0  0  0  0  0  0  0  0  0  0  0  0
    4.6329   -3.1575    0.0000 C   0  0  0  0  0  0  0  0  0  0  0  0
   -1.1692    3.1575    0.0000 C   0  0  0  0  0  0  0  0  0  0  0  0
   -4.6329    0.1564    0.0000 C   0  0  0  0  0  0  0  0  0  0  0  0
  1  2  2  0
  2  3  1  0
  4  5  2  0
  3  4  1  0
  1  5  1  0
  1  6  1  0
  7  9  1  0
  8 12  1  0
  4  9  1  0
  8 10  2  0
  3 11  1  0
  7 12  1  0
 10 13  1  0
 13 18  2  0
  6 14  1  0
  6 15  2  0
  8 16  1  0
 11 17  1  0
  7 17  1  0
 18 19  1  0
 16 19  2  0
 10 20  1  0
 18 21  1  0
 14 22  1  0
 14 23  1  0
 20 24  1  0
 21 25  1  0
M  END
>  <IDNUMBER>  (301) 
SB71-0078

>  <available>  (301) 
52

>  <H_acceptor>  (301) 
6

>  <H_donor>  (301) 
0

>  <B_rotN>  (301) 
6

>  <N_O>  (301) 
7

>  <logP>  (301) 
0.6815

>  <logD>  (301) 
0.6681

>  <logSw>  (301) 
-1.7173

>  <PSA>  (301) 
48.617

>  <pKa_ma>  (301) 
26.5144

>  <pKa_mb>  (301) 
5.8954

>  <N_Chirals>  (301) 
0

>  <Name>  (301) 
5-[(2,4-dimethoxyphenyl)methyl]-N,N-dimethyl-4,5,6,7-tetrahydropyrazolo[1,5-a]pyrazine-2-carboxamide

>  <Smile>  (301) 
CN(C)C(c1nn(CCN(Cc(ccc(OC)c2)c2OC)C2)c2c1)=O

>  <Color>  (301) 
ORANGE

>  <Collection>  (301) 
IC

>  <InChI>  (301) 
InChI=1S/C18H24N4O3/c1-20(2)18(23)16-9-14-12-21(7-8-22(14)19-16)11-13-5-6-15(24-3)10-17(13)25-4/h5-6,9-10H,7-8,11-12H2,1-4H3

>  <InChI Key>  (301) 
HXXYGZFOWJIEBO-UHFFFAOYSA-N

>  <PERCENTSP3>  (301) 
44.44

>  <Link>  (301) 
https://www.chemdiv.com/catalog/screening-compounds/compound-SB71-0078/

>  <MFCDNUMBER>  (301) 
MFCD32249252

>  <CLNUMBER>  (301) 
CM5543

>  <STEREO>  (301) 
ACHIRAL

>  <State>  (301) 
Solid

>  <Similarity score>  (301) 
0.33

$$$$
5-(2,3-dihydro-1H-indene-5-sulfonyl)-N,N-dimethyl-4,5,6,7-tetrahydropyrazolo[1,5
     RDKit          2D

 26 29  0  0  0  0  0  0  0  0999 V2000
   -0.8646   -1.1020    0.0000 S   0  0  0  0  0  0  0  0  0  0  0  0
    3.2145    0.1022    0.0000 C   0  0  0  0  0  0  0  0  0  0  0  0
    3.1103   -0.8938    0.0000 N   0  0  0  0  0  0  0  0  0  0  0  0
    0.1354   -1.1020    0.0000 N   0  0  0  0  0  0  0  0  0  0  0  0
    1.6354   -0.2353    0.0000 C   0  0  0  0  0  0  0  0  0  0  0  0
    2.1353   -1.1020    0.0000 N   0  0  0  0  0  0  0  0  0  0  0  0
    2.3021    0.5062    0.0000 C   0  0  0  0  0  0  0  0  0  0  0  0
    4.0811    0.6021    0.0000 C   0  0  0  0  0  0  0  0  0  0  0  0
    0.6353   -0.2353    0.0000 C   0  0  0  0  0  0  0  0  0  0  0  0
   -1.8645   -1.1020    0.0000 C   0  0  0  0  0  0  0  0  0  0  0  0
    0.6353   -1.9687    0.0000 C   0  0  0  0  0  0  0  0  0  0  0  0
    1.6354   -1.9687    0.0000 C   0  0  0  0  0  0  0  0  0  0  0  0
   -2.3646   -0.2353    0.0000 C   0  0  0  0  0  0  0  0  0  0  0  0
   -0.8646   -0.1020    0.0000 O   0  0  0  0  0  0  0  0  0  0  0  0
   -0.8646   -2.1020    0.0000 O   0  0  0  0  0  0  0  0  0  0  0  0
   -3.3646   -0.2353    0.0000 C   0  0  0  0  0  0  0  0  0  0  0  0
    4.0811    1.6021    0.0000 N   0  0  0  0  0  0  0  0  0  0  0  0
    4.9477    0.1022    0.0000 O   0  0  0  0  0  0  0  0  0  0  0  0
   -3.8645   -1.1020    0.0000 C   0  0  0  0  0  0  0  0  0  0  0  0
   -2.3646   -1.9687    0.0000 C   0  0  0  0  0  0  0  0  0  0  0  0
   -3.3646   -1.9687    0.0000 C   0  0  0  0  0  0  0  0  0  0  0  0
   -4.0352    0.5062    0.0000 C   0  0  0  0  0  0  0  0  0  0  0  0
   -4.9477    0.1022    0.0000 C   0  0  0  0  0  0  0  0  0  0  0  0
   -4.8434   -0.8938    0.0000 C   0  0  0  0  0  0  0  0  0  0  0  0
    3.2145    2.1020    0.0000 C   0  0  0  0  0  0  0  0  0  0  0  0
    4.9477    2.1020    0.0000 C   0  0  0  0  0  0  0  0  0  0  0  0
  2  7  1  0
  2  3  2  0
  3  6  1  0
  1  4  1  0
  5  9  1  0
  5  6  1  0
  6 12  1  0
  5  7  2  0
  2  8  1  0
  4  9  1  0
  1 10  1  0
  4 11  1  0
 11 12  1  0
 10 13  2  0
  1 14  2  0
  1 15  2  0
 13 16  1  0
  8 17  1  0
  8 18  2  0
 19 21  1  0
 16 19  2  0
 10 20  1  0
 20 21  2  0
 16 22  1  0
 22 23  1  0
 23 24  1  0
 19 24  1  0
 17 25  1  0
 17 26  1  0
M  END
>  <IDNUMBER>  (302) 
SB71-0055

>  <available>  (302) 
48

>  <H_acceptor>  (302) 
8

>  <H_donor>  (302) 
0

>  <B_rotN>  (302) 
4

>  <N_O>  (302) 
7

>  <logP>  (302) 
1.2302

>  <logD>  (302) 
1.2302

>  <logSw>  (302) 
-2.3928

>  <PSA>  (302) 
61.707

>  <pKa_ma>  (302) 
20.7697

>  <pKa_mb>  (302) 
-3.0085

>  <N_Chirals>  (302) 
0

>  <Name>  (302) 
5-(2,3-dihydro-1H-indene-5-sulfonyl)-N,N-dimethyl-4,5,6,7-tetrahydropyrazolo[1,5-a]pyrazine-2-carboxamide

>  <Smile>  (302) 
CN(C)C(c1nn(CCN(C2)S(c3cc(CCC4)c4cc3)(=O)=O)c2c1)=O

>  <Color>  (302) 
NOT COLORED

>  <Collection>  (302) 
IC

>  <InChI>  (302) 
InChI=1S/C18H22N4O3S/c1-20(2)18(23)17-11-15-12-21(8-9-22(15)19-17)26(24,25)16-7-6-13-4-3-5-14(13)10-16/h6-7,10-11H,3-5,8-9,12H2,1-2H3

>  <InChI Key>  (302) 
VRVMKUZDEIKUDW-UHFFFAOYSA-N

>  <PERCENTSP3>  (302) 
44.44

>  <Link>  (302) 
https://www.chemdiv.com/catalog/screening-compounds/compound-SB71-0055/

>  <MFCDNUMBER>  (302) 
MFCD32249219

>  <CLNUMBER>  (302) 
CM5543

>  <STEREO>  (302) 
ACHIRAL

>  <State>  (302) 
Solid

>  <Similarity score>  (302) 
0.31

$$$$
{5-[(2,4-dimethoxyphenyl)methyl]-4,5,6,7-tetrahydropyrazolo[1,5-a]pyrazin-2-yl}(
     RDKit          2D

 28 31  0  0  0  0  0  0  0  0999 V2000
    1.8818   -1.4274    0.0000 C   0  0  0  0  0  0  0  0  0  0  0  0
    2.2902   -0.5103    0.0000 N   0  0  0  0  0  0  0  0  0  0  0  0
    1.5484    0.1563    0.0000 N   0  0  0  0  0  0  0  0  0  0  0  0
    0.6812   -0.3438    0.0000 C   0  0  0  0  0  0  0  0  0  0  0  0
    0.8898   -1.3191    0.0000 C   0  0  0  0  0  0  0  0  0  0  0  0
    2.3818   -2.2902    0.0000 C   0  0  0  0  0  0  0  0  0  0  0  0
   -0.1855    1.1564    0.0000 N   0  0  0  0  0  0  0  0  0  0  0  0
    3.3820   -2.2902    0.0000 N   0  0  0  0  0  0  0  0  0  0  0  0
   -1.9193    1.1564    0.0000 C   0  0  0  0  0  0  0  0  0  0  0  0
   -0.1855    0.1563    0.0000 C   0  0  0  0  0  0  0  0  0  0  0  0
   -2.7862    1.6567    0.0000 C   0  0  0  0  0  0  0  0  0  0  0  0
    1.5484    1.1564    0.0000 C   0  0  0  0  0  0  0  0  0  0  0  0
   -1.0523    1.6567    0.0000 C   0  0  0  0  0  0  0  0  0  0  0  0
   -3.6532    1.1564    0.0000 C   0  0  0  0  0  0  0  0  0  0  0  0
    1.8818   -3.1571    0.0000 O   0  0  0  0  0  0  0  0  0  0  0  0
   -1.9193    0.1563    0.0000 C   0  0  0  0  0  0  0  0  0  0  0  0
    0.6812    1.6567    0.0000 C   0  0  0  0  0  0  0  0  0  0  0  0
    5.3827   -2.2902    0.0000 O   0  0  0  0  0  0  0  0  0  0  0  0
   -3.6532    0.1563    0.0000 C   0  0  0  0  0  0  0  0  0  0  0  0
   -2.7862   -0.3438    0.0000 C   0  0  0  0  0  0  0  0  0  0  0  0
   -2.7862    2.6570    0.0000 O   0  0  0  0  0  0  0  0  0  0  0  0
    3.8823   -3.1571    0.0000 C   0  0  0  0  0  0  0  0  0  0  0  0
    3.8823   -1.4274    0.0000 C   0  0  0  0  0  0  0  0  0  0  0  0
   -4.5159   -0.3438    0.0000 O   0  0  0  0  0  0  0  0  0  0  0  0
    4.8824   -3.1571    0.0000 C   0  0  0  0  0  0  0  0  0  0  0  0
    4.8824   -1.4274    0.0000 C   0  0  0  0  0  0  0  0  0  0  0  0
   -3.6532    3.1571    0.0000 C   0  0  0  0  0  0  0  0  0  0  0  0
   -5.3827    0.1563    0.0000 C   0  0  0  0  0  0  0  0  0  0  0  0
  1  2  2  0
  2  3  1  0
  4  5  2  0
  3  4  1  0
  1  5  1  0
  1  6  1  0
  7 10  1  0
  6  8  1  0
  9 13  1  0
  4 10  1  0
  9 11  2  0
  3 12  1  0
  7 13  1  0
 11 14  1  0
 14 19  2  0
  6 15  2  0
  9 16  1  0
 12 17  1  0
  7 17  1  0
 18 26  1  0
 18 25  1  0
 19 20  1  0
 16 20  2  0
 11 21  1  0
  8 22  1  0
  8 23  1  0
 19 24  1  0
 22 25  1  0
 23 26  1  0
 21 27  1  0
 24 28  1  0
M  END
>  <IDNUMBER>  (303) 
SB71-0256

>  <available>  (303) 
45

>  <H_acceptor>  (303) 
7

>  <H_donor>  (303) 
0

>  <B_rotN>  (303) 
6

>  <N_O>  (303) 
8

>  <logP>  (303) 
0.9984

>  <logD>  (303) 
0.985

>  <logSw>  (303) 
-2.1271

>  <PSA>  (303) 
57.173

>  <pKa_ma>  (303) 
26.5144

>  <pKa_mb>  (303) 
5.8954

>  <N_Chirals>  (303) 
0

>  <Name>  (303) 
{5-[(2,4-dimethoxyphenyl)methyl]-4,5,6,7-tetrahydropyrazolo[1,5-a]pyrazin-2-yl}(morpholin-4-yl)methanone

>  <Smile>  (303) 
COc1cc(OC)c(CN2Cc3cc(C(N4CCOCC4)=O)nn3CC2)cc1

>  <Color>  (303) 
ORANGE

>  <Collection>  (303) 
IC

>  <InChI>  (303) 
InChI=1S/C20H26N4O4/c1-26-17-4-3-15(19(12-17)27-2)13-22-5-6-24-16(14-22)11-18(21-24)20(25)23-7-9-28-10-8-23/h3-4,11-12H,5-10,13-14H2,1-2H3

>  <InChI Key>  (303) 
JKHZXKHQJCZELZ-UHFFFAOYSA-N

>  <PERCENTSP3>  (303) 
50

>  <Link>  (303) 
https://www.chemdiv.com/catalog/screening-compounds/compound-SB71-0256/

>  <MFCDNUMBER>  (303) 
MFCD32249201

>  <CLNUMBER>  (303) 
CM5543

>  <STEREO>  (303) 
ACHIRAL

>  <State>  (303) 
Oil

>  <Similarity score>  (303) 
0.30

$$$$
5-(4-fluoro-3-methylbenzene-1-sulfonyl)-N,N-dimethyl-4,5,6,7-tetrahydropyrazolo[
     RDKit          2D

 25 27  0  0  0  0  0  0  0  0999 V2000
   -0.9063   -1.1021    0.0000 S   0  0  0  0  0  0  0  0  0  0  0  0
    3.1773    0.1021    0.0000 C   0  0  0  0  0  0  0  0  0  0  0  0
    3.0691   -0.8938    0.0000 N   0  0  0  0  0  0  0  0  0  0  0  0
    0.0938   -1.1021    0.0000 N   0  0  0  0  0  0  0  0  0  0  0  0
    1.5939   -0.2354    0.0000 C   0  0  0  0  0  0  0  0  0  0  0  0
    2.0939   -1.1021    0.0000 N   0  0  0  0  0  0  0  0  0  0  0  0
    2.2606    0.5063    0.0000 C   0  0  0  0  0  0  0  0  0  0  0  0
    4.0400    0.6021    0.0000 C   0  0  0  0  0  0  0  0  0  0  0  0
    0.5939   -0.2354    0.0000 C   0  0  0  0  0  0  0  0  0  0  0  0
   -1.9064   -1.1021    0.0000 C   0  0  0  0  0  0  0  0  0  0  0  0
    0.5939   -1.9689    0.0000 C   0  0  0  0  0  0  0  0  0  0  0  0
    1.5939   -1.9689    0.0000 C   0  0  0  0  0  0  0  0  0  0  0  0
   -0.9063   -0.1021    0.0000 O   0  0  0  0  0  0  0  0  0  0  0  0
   -0.9063   -2.1022    0.0000 O   0  0  0  0  0  0  0  0  0  0  0  0
   -2.4064   -0.2354    0.0000 C   0  0  0  0  0  0  0  0  0  0  0  0
   -3.4066   -0.2354    0.0000 C   0  0  0  0  0  0  0  0  0  0  0  0
    4.0400    1.6023    0.0000 N   0  0  0  0  0  0  0  0  0  0  0  0
    4.9066    0.1021    0.0000 O   0  0  0  0  0  0  0  0  0  0  0  0
   -3.9066   -1.1021    0.0000 C   0  0  0  0  0  0  0  0  0  0  0  0
   -2.4064   -1.9689    0.0000 C   0  0  0  0  0  0  0  0  0  0  0  0
   -3.4066   -1.9689    0.0000 C   0  0  0  0  0  0  0  0  0  0  0  0
   -4.9066   -1.1021    0.0000 F   0  0  0  0  0  0  0  0  0  0  0  0
   -3.9066    0.6313    0.0000 C   0  0  0  0  0  0  0  0  0  0  0  0
    3.1773    2.1022    0.0000 C   0  0  0  0  0  0  0  0  0  0  0  0
    4.9066    2.1022    0.0000 C   0  0  0  0  0  0  0  0  0  0  0  0
  2  7  1  0
  2  3  2  0
  3  6  1  0
  1  4  1  0
  5  9  1  0
  5  6  1  0
  6 12  1  0
  5  7  2  0
  2  8  1  0
  4  9  1  0
  1 10  1  0
  4 11  1  0
 11 12  1  0
  1 13  2  0
  1 14  2  0
 10 15  2  0
 15 16  1  0
  8 17  1  0
  8 18  2  0
 19 21  1  0
 16 19  2  0
 10 20  1  0
 20 21  2  0
 19 22  1  0
 16 23  1  0
 17 24  1  0
 17 25  1  0
M  END
>  <IDNUMBER>  (304) 
SB71-0035

>  <available>  (304) 
67

>  <H_acceptor>  (304) 
8

>  <H_donor>  (304) 
0

>  <B_rotN>  (304) 
4

>  <N_O>  (304) 
7

>  <logP>  (304) 
0.7859

>  <logD>  (304) 
0.7859

>  <logSw>  (304) 
-2.2885

>  <PSA>  (304) 
61.421

>  <pKa_ma>  (304) 
26.1583

>  <pKa_mb>  (304) 
-3.0085

>  <N_Chirals>  (304) 
0

>  <Name>  (304) 
5-(4-fluoro-3-methylbenzene-1-sulfonyl)-N,N-dimethyl-4,5,6,7-tetrahydropyrazolo[1,5-a]pyrazine-2-carboxamide

>  <Smile>  (304) 
Cc(cc(cc1)S(N2Cc3cc(C(N(C)C)=O)nn3CC2)(=O)=O)c1F

>  <Color>  (304) 
YELLOW

>  <Collection>  (304) 
IC

>  <InChI>  (304) 
InChI=1S/C16H19FN4O3S/c1-11-8-13(4-5-14(11)17)25(23,24)20-6-7-21-12(10-20)9-15(18-21)16(22)19(2)3/h4-5,8-9H,6-7,10H2,1-3H3

>  <InChI Key>  (304) 
NVDMUQZCOWTSCF-UHFFFAOYSA-N

>  <PERCENTSP3>  (304) 
37.5

>  <Link>  (304) 
https://www.chemdiv.com/catalog/screening-compounds/compound-SB71-0035/

>  <MFCDNUMBER>  (304) 
MFCD32249189

>  <CLNUMBER>  (304) 
CM5543

>  <STEREO>  (304) 
ACHIRAL

>  <State>  (304) 
Solid

>  <Similarity score>  (304) 
0.30

$$$$
(3,4-dihydroisoquinolin-2(1H)-yl){5-[(2,4-dimethoxyphenyl)methyl]-4,5,6,7-tetrah
     RDKit          2D

 32 36  0  0  0  0  0  0  0  0999 V2000
    1.1293    0.9939    0.0000 C   0  0  0  0  0  0  0  0  0  0  0  0
    1.5377    0.0770    0.0000 N   0  0  0  0  0  0  0  0  0  0  0  0
    0.7960   -0.5897    0.0000 N   0  0  0  0  0  0  0  0  0  0  0  0
   -0.0709   -0.0897    0.0000 C   0  0  0  0  0  0  0  0  0  0  0  0
    0.1375    0.8897    0.0000 C   0  0  0  0  0  0  0  0  0  0  0  0
    1.6295    1.8565    0.0000 C   0  0  0  0  0  0  0  0  0  0  0  0
    2.6297    1.8565    0.0000 N   0  0  0  0  0  0  0  0  0  0  0  0
   -0.9377   -1.5898    0.0000 N   0  0  0  0  0  0  0  0  0  0  0  0
   -2.6713   -1.5898    0.0000 C   0  0  0  0  0  0  0  0  0  0  0  0
    3.1297    2.7234    0.0000 C   0  0  0  0  0  0  0  0  0  0  0  0
   -0.9377   -0.5897    0.0000 C   0  0  0  0  0  0  0  0  0  0  0  0
   -3.5381   -2.0900    0.0000 C   0  0  0  0  0  0  0  0  0  0  0  0
    0.7960   -1.5898    0.0000 C   0  0  0  0  0  0  0  0  0  0  0  0
   -1.8046   -2.0900    0.0000 C   0  0  0  0  0  0  0  0  0  0  0  0
    4.1299    2.7234    0.0000 C   0  0  0  0  0  0  0  0  0  0  0  0
   -4.4050   -1.5898    0.0000 C   0  0  0  0  0  0  0  0  0  0  0  0
    3.1297    0.9939    0.0000 C   0  0  0  0  0  0  0  0  0  0  0  0
    1.1293    2.7234    0.0000 O   0  0  0  0  0  0  0  0  0  0  0  0
    4.6301    1.8565    0.0000 C   0  0  0  0  0  0  0  0  0  0  0  0
   -2.6713   -0.5897    0.0000 C   0  0  0  0  0  0  0  0  0  0  0  0
   -0.0709   -2.0900    0.0000 C   0  0  0  0  0  0  0  0  0  0  0  0
    4.1299    0.9939    0.0000 C   0  0  0  0  0  0  0  0  0  0  0  0
   -4.4050   -0.5897    0.0000 C   0  0  0  0  0  0  0  0  0  0  0  0
   -3.5381   -0.0897    0.0000 C   0  0  0  0  0  0  0  0  0  0  0  0
   -3.5381   -3.0902    0.0000 O   0  0  0  0  0  0  0  0  0  0  0  0
   -5.2676   -0.0897    0.0000 O   0  0  0  0  0  0  0  0  0  0  0  0
    4.6301    3.5902    0.0000 C   0  0  0  0  0  0  0  0  0  0  0  0
    5.6303    1.8565    0.0000 C   0  0  0  0  0  0  0  0  0  0  0  0
   -4.4050   -3.5902    0.0000 C   0  0  0  0  0  0  0  0  0  0  0  0
   -6.1303   -0.5897    0.0000 C   0  0  0  0  0  0  0  0  0  0  0  0
    5.6303    3.5902    0.0000 C   0  0  0  0  0  0  0  0  0  0  0  0
    6.1303    2.7234    0.0000 C   0  0  0  0  0  0  0  0  0  0  0  0
  1  2  2  0
  2  3  1  0
  4  5  2  0
  3  4  1  0
  1  5  1  0
  1  6  1  0
  6  7  1  0
  8 11  1  0
  9 14  1  0
  7 10  1  0
  4 11  1  0
  9 12  2  0
  3 13  1  0
  8 14  1  0
 10 15  1  0
 12 16  1  0
 16 23  2  0
  7 17  1  0
  6 18  2  0
 19 22  1  0
 15 19  2  0
  9 20  1  0
 13 21  1  0
  8 21  1  0
 17 22  1  0
 23 24  1  0
 20 24  2  0
 12 25  1  0
 23 26  1  0
 15 27  1  0
 19 28  1  0
 25 29  1  0
 26 30  1  0
 27 31  2  0
 28 32  2  0
 31 32  1  0
M  END
>  <IDNUMBER>  (305) 
SB71-0446

>  <available>  (305) 
8

>  <H_acceptor>  (305) 
6

>  <H_donor>  (305) 
0

>  <B_rotN>  (305) 
6

>  <N_O>  (305) 
7

>  <logP>  (305) 
3.0264

>  <logD>  (305) 
3.013

>  <logSw>  (305) 
-3.2279

>  <PSA>  (305) 
48.926

>  <pKa_ma>  (305) 
25.6071

>  <pKa_mb>  (305) 
5.8954

>  <N_Chirals>  (305) 
0

>  <Name>  (305) 
(3,4-dihydroisoquinolin-2(1H)-yl){5-[(2,4-dimethoxyphenyl)methyl]-4,5,6,7-tetrahydropyrazolo[1,5-a]pyrazin-2-yl}methanone

>  <Smile>  (305) 
COc1cc(OC)c(CN2Cc3cc(C(N(CC4)Cc5c4cccc5)=O)nn3CC2)cc1

>  <Color>  (305) 
YELLOW

>  <Collection>  (305) 
IC

>  <InChI>  (305) 
InChI=1S/C25H28N4O3/c1-31-22-8-7-20(24(14-22)32-2)15-27-11-12-29-21(17-27)13-23(26-29)25(30)28-10-9-18-5-3-4-6-19(18)16-28/h3-8,13-14H,9-12,15-17H2,1-2H3

>  <InChI Key>  (305) 
OOKYVALBAPKVRN-UHFFFAOYSA-N

>  <PERCENTSP3>  (305) 
36

>  <Link>  (305) 
https://www.chemdiv.com/catalog/screening-compounds/compound-SB71-0446/

>  <MFCDNUMBER>  (305) 
MFCD32249643

>  <CLNUMBER>  (305) 
CM5543

>  <STEREO>  (305) 
ACHIRAL

>  <State>  (305) 
Solid

>  <Similarity score>  (305) 
0.30

$$$$
{5-[(3,4-difluorophenyl)methyl]-4,5,6,7-tetrahydropyrazolo[1,5-a]pyrazin-2-yl}(m
     RDKit          2D

 26 29  0  0  0  0  0  0  0  0999 V2000
    1.4484   -0.6772    0.0000 C   0  0  0  0  0  0  0  0  0  0  0  0
    1.8567    0.2397    0.0000 N   0  0  0  0  0  0  0  0  0  0  0  0
    1.1148    0.9064    0.0000 N   0  0  0  0  0  0  0  0  0  0  0  0
    0.2479    0.4064    0.0000 C   0  0  0  0  0  0  0  0  0  0  0  0
    0.4562   -0.5730    0.0000 C   0  0  0  0  0  0  0  0  0  0  0  0
    1.9484   -1.5399    0.0000 C   0  0  0  0  0  0  0  0  0  0  0  0
    2.9487   -1.5399    0.0000 N   0  0  0  0  0  0  0  0  0  0  0  0
   -0.6188    1.9065    0.0000 N   0  0  0  0  0  0  0  0  0  0  0  0
   -0.6188    0.9064    0.0000 C   0  0  0  0  0  0  0  0  0  0  0  0
    1.1148    1.9065    0.0000 C   0  0  0  0  0  0  0  0  0  0  0  0
   -3.2194    0.4064    0.0000 C   0  0  0  0  0  0  0  0  0  0  0  0
    1.4484   -2.4068    0.0000 O   0  0  0  0  0  0  0  0  0  0  0  0
   -4.0864    0.9064    0.0000 C   0  0  0  0  0  0  0  0  0  0  0  0
   -2.3527    0.9064    0.0000 C   0  0  0  0  0  0  0  0  0  0  0  0
   -2.3527    1.9065    0.0000 C   0  0  0  0  0  0  0  0  0  0  0  0
   -1.4856    2.4068    0.0000 C   0  0  0  0  0  0  0  0  0  0  0  0
    0.2479    2.4068    0.0000 C   0  0  0  0  0  0  0  0  0  0  0  0
    4.9490   -1.5399    0.0000 O   0  0  0  0  0  0  0  0  0  0  0  0
   -4.0864    1.9065    0.0000 C   0  0  0  0  0  0  0  0  0  0  0  0
   -3.2194   -0.5939    0.0000 F   0  0  0  0  0  0  0  0  0  0  0  0
   -3.2194    2.4068    0.0000 C   0  0  0  0  0  0  0  0  0  0  0  0
   -4.9490    0.4064    0.0000 F   0  0  0  0  0  0  0  0  0  0  0  0
    3.4487   -2.4068    0.0000 C   0  0  0  0  0  0  0  0  0  0  0  0
    3.4487   -0.6772    0.0000 C   0  0  0  0  0  0  0  0  0  0  0  0
    4.4489   -0.6772    0.0000 C   0  0  0  0  0  0  0  0  0  0  0  0
    4.4489   -2.4068    0.0000 C   0  0  0  0  0  0  0  0  0  0  0  0
  1  2  2  0
  2  3  1  0
  4  5  2  0
  3  4  1  0
  1  5  1  0
  1  6  1  0
  6  7  1  0
  8  9  1  0
  4  9  1  0
  3 10  1  0
 11 14  1  0
 11 13  2  0
  6 12  2  0
 13 19  1  0
 14 15  2  0
 15 16  1  0
  8 16  1  0
 10 17  1  0
  8 17  1  0
 18 25  1  0
 18 26  1  0
 19 21  2  0
 11 20  1  0
 15 21  1  0
 13 22  1  0
  7 23  1  0
  7 24  1  0
 24 25  1  0
 23 26  1  0
M  END
>  <IDNUMBER>  (306) 
SB71-0231

>  <available>  (306) 
8

>  <H_acceptor>  (306) 
5

>  <H_donor>  (306) 
0

>  <B_rotN>  (306) 
4

>  <N_O>  (306) 
6

>  <logP>  (306) 
1.1195

>  <logD>  (306) 
1.1144

>  <logSw>  (306) 
-1.9699

>  <PSA>  (306) 
41.999

>  <pKa_ma>  (306) 
26.5144

>  <pKa_mb>  (306) 
5.473

>  <N_Chirals>  (306) 
0

>  <Name>  (306) 
{5-[(3,4-difluorophenyl)methyl]-4,5,6,7-tetrahydropyrazolo[1,5-a]pyrazin-2-yl}(morpholin-4-yl)methanone

>  <Smile>  (306) 
O=C(c1nn(CCN(Cc(cc2)cc(F)c2F)C2)c2c1)N1CCOCC1

>  <Color>  (306) 
ORANGE

>  <Collection>  (306) 
IC

>  <InChI>  (306) 
InChI=1S/C18H20F2N4O2/c19-15-2-1-13(9-16(15)20)11-22-3-4-24-14(12-22)10-17(21-24)18(25)23-5-7-26-8-6-23/h1-2,9-10H,3-8,11-12H2

>  <InChI Key>  (306) 
AZPUVJUNRUEQDP-UHFFFAOYSA-N

>  <PERCENTSP3>  (306) 
44.44

>  <Link>  (306) 
https://www.chemdiv.com/catalog/screening-compounds/compound-SB71-0231/

>  <MFCDNUMBER>  (306) 
MFCD32249637

>  <CLNUMBER>  (306) 
CM5543

>  <STEREO>  (306) 
ACHIRAL

>  <State>  (306) 
Solid

>  <Similarity score>  (306) 
0.30

$$$$
5-(5-fluoro-2-methoxybenzene-1-sulfonyl)-N,N-dimethyl-4,5,6,7-tetrahydropyrazolo
     RDKit          2D

 26 28  0  0  0  0  0  0  0  0999 V2000
    1.4063   -0.7354    0.0000 S   0  0  0  0  0  0  0  0  0  0  0  0
   -2.6771    0.4689    0.0000 C   0  0  0  0  0  0  0  0  0  0  0  0
    0.4063   -0.7354    0.0000 N   0  0  0  0  0  0  0  0  0  0  0  0
    2.4063   -0.7354    0.0000 C   0  0  0  0  0  0  0  0  0  0  0  0
   -2.5689   -0.5271    0.0000 N   0  0  0  0  0  0  0  0  0  0  0  0
   -1.0937    0.1314    0.0000 C   0  0  0  0  0  0  0  0  0  0  0  0
   -1.5937   -0.7354    0.0000 N   0  0  0  0  0  0  0  0  0  0  0  0
   -1.7605    0.8730    0.0000 C   0  0  0  0  0  0  0  0  0  0  0  0
   -3.5396    0.9688    0.0000 C   0  0  0  0  0  0  0  0  0  0  0  0
   -0.0936    0.1314    0.0000 C   0  0  0  0  0  0  0  0  0  0  0  0
   -0.0936   -1.6021    0.0000 C   0  0  0  0  0  0  0  0  0  0  0  0
    2.9064   -1.6021    0.0000 C   0  0  0  0  0  0  0  0  0  0  0  0
   -1.0937   -1.6021    0.0000 C   0  0  0  0  0  0  0  0  0  0  0  0
    1.4063    0.2647    0.0000 O   0  0  0  0  0  0  0  0  0  0  0  0
    1.4063   -1.7354    0.0000 O   0  0  0  0  0  0  0  0  0  0  0  0
    2.9064    0.1314    0.0000 C   0  0  0  0  0  0  0  0  0  0  0  0
   -3.5396    1.9688    0.0000 N   0  0  0  0  0  0  0  0  0  0  0  0
   -4.4063    0.4689    0.0000 O   0  0  0  0  0  0  0  0  0  0  0  0
    3.9065    0.1314    0.0000 C   0  0  0  0  0  0  0  0  0  0  0  0
    3.9065   -1.6021    0.0000 C   0  0  0  0  0  0  0  0  0  0  0  0
    4.4063   -0.7354    0.0000 C   0  0  0  0  0  0  0  0  0  0  0  0
    4.4063   -2.4689    0.0000 F   0  0  0  0  0  0  0  0  0  0  0  0
    2.4063    0.9980    0.0000 O   0  0  0  0  0  0  0  0  0  0  0  0
   -2.6771    2.4689    0.0000 C   0  0  0  0  0  0  0  0  0  0  0  0
   -4.4063    2.4689    0.0000 C   0  0  0  0  0  0  0  0  0  0  0  0
    2.9064    1.8646    0.0000 C   0  0  0  0  0  0  0  0  0  0  0  0
  2  8  1  0
  2  5  2  0
  1  3  1  0
  1  4  1  0
  5  7  1  0
  6 10  1  0
  6  7  1  0
  7 13  1  0
  6  8  2  0
  2  9  1  0
  3 10  1  0
  3 11  1  0
  4 12  2  0
 11 13  1  0
  1 14  2  0
  1 15  2  0
  4 16  1  0
  9 17  1  0
  9 18  2  0
 16 19  2  0
 12 20  1  0
 19 21  1  0
 20 21  2  0
 20 22  1  0
 16 23  1  0
 17 24  1  0
 17 25  1  0
 23 26  1  0
M  END
>  <IDNUMBER>  (307) 
SB71-0033

>  <available>  (307) 
136

>  <H_acceptor>  (307) 
9

>  <H_donor>  (307) 
0

>  <B_rotN>  (307) 
5

>  <N_O>  (307) 
8

>  <logP>  (307) 
0.1468

>  <logD>  (307) 
0.1468

>  <logSw>  (307) 
-2.2062

>  <PSA>  (307) 
69.051

>  <pKa_ma>  (307) 
26.1583

>  <pKa_mb>  (307) 
-3.0085

>  <N_Chirals>  (307) 
0

>  <Name>  (307) 
5-(5-fluoro-2-methoxybenzene-1-sulfonyl)-N,N-dimethyl-4,5,6,7-tetrahydropyrazolo[1,5-a]pyrazine-2-carboxamide

>  <Smile>  (307) 
CN(C)C(c1nn(CCN(C2)S(c(cc(cc3)F)c3OC)(=O)=O)c2c1)=O

>  <Color>  (307) 
YELLOW

>  <Collection>  (307) 
IC

>  <InChI>  (307) 
InChI=1S/C16H19FN4O4S/c1-19(2)16(22)13-9-12-10-20(6-7-21(12)18-13)26(23,24)15-8-11(17)4-5-14(15)25-3/h4-5,8-9H,6-7,10H2,1-3H3

>  <InChI Key>  (307) 
FTPAUIANHBOYND-UHFFFAOYSA-N

>  <PERCENTSP3>  (307) 
37.5

>  <Link>  (307) 
https://www.chemdiv.com/catalog/screening-compounds/compound-SB71-0033/

>  <MFCDNUMBER>  (307) 
MFCD32249187

>  <CLNUMBER>  (307) 
CM5543

>  <STEREO>  (307) 
ACHIRAL

>  <State>  (307) 
Solid

>  <Similarity score>  (307) 
0.30

$$$$
N,N-dimethyl-5-{[4-(propan-2-yl)phenyl]methyl}-4,5,6,7-tetrahydropyrazolo[1,5-a]
     RDKit          2D

 24 26  0  0  0  0  0  0  0  0999 V2000
    2.6319    0.6773    0.0000 C   0  0  0  0  0  0  0  0  0  0  0  0
    3.0402   -0.2394    0.0000 N   0  0  0  0  0  0  0  0  0  0  0  0
    2.2984   -0.9065    0.0000 N   0  0  0  0  0  0  0  0  0  0  0  0
    1.4315   -0.4063    0.0000 C   0  0  0  0  0  0  0  0  0  0  0  0
    1.6398    0.5689    0.0000 C   0  0  0  0  0  0  0  0  0  0  0  0
    3.1319    1.5401    0.0000 C   0  0  0  0  0  0  0  0  0  0  0  0
    0.5647   -1.9066    0.0000 N   0  0  0  0  0  0  0  0  0  0  0  0
    0.5647   -0.9065    0.0000 C   0  0  0  0  0  0  0  0  0  0  0  0
    2.2984   -1.9066    0.0000 C   0  0  0  0  0  0  0  0  0  0  0  0
    4.1322    1.5401    0.0000 N   0  0  0  0  0  0  0  0  0  0  0  0
    2.6319    2.4069    0.0000 O   0  0  0  0  0  0  0  0  0  0  0  0
   -2.9029   -0.9065    0.0000 C   0  0  0  0  0  0  0  0  0  0  0  0
    1.4315   -2.4069    0.0000 C   0  0  0  0  0  0  0  0  0  0  0  0
   -0.3023   -2.4069    0.0000 C   0  0  0  0  0  0  0  0  0  0  0  0
   -2.9029   -1.9066    0.0000 C   0  0  0  0  0  0  0  0  0  0  0  0
   -2.0359   -0.4063    0.0000 C   0  0  0  0  0  0  0  0  0  0  0  0
   -1.1689   -1.9066    0.0000 C   0  0  0  0  0  0  0  0  0  0  0  0
   -3.7655   -0.4063    0.0000 C   0  0  0  0  0  0  0  0  0  0  0  0
   -2.0359   -2.4069    0.0000 C   0  0  0  0  0  0  0  0  0  0  0  0
   -1.1689   -0.9065    0.0000 C   0  0  0  0  0  0  0  0  0  0  0  0
    4.6323    0.6773    0.0000 C   0  0  0  0  0  0  0  0  0  0  0  0
    4.6323    2.4069    0.0000 C   0  0  0  0  0  0  0  0  0  0  0  0
   -3.7655    0.5940    0.0000 C   0  0  0  0  0  0  0  0  0  0  0  0
   -4.6323   -0.9065    0.0000 C   0  0  0  0  0  0  0  0  0  0  0  0
  1  2  2  0
  2  3  1  0
  4  5  2  0
  3  4  1  0
  1  5  1  0
  1  6  1  0
  7  8  1  0
  4  8  1  0
  3  9  1  0
  6 10  1  0
  6 11  2  0
 12 16  1  0
 12 15  2  0
  9 13  1  0
  7 13  1  0
  7 14  1  0
 15 19  1  0
 16 20  2  0
 14 17  1  0
 12 18  1  0
 17 19  2  0
 17 20  1  0
 10 21  1  0
 10 22  1  0
 18 23  1  0
 18 24  1  0
M  END
>  <IDNUMBER>  (308) 
SB71-0051

>  <available>  (308) 
17

>  <H_acceptor>  (308) 
4

>  <H_donor>  (308) 
0

>  <B_rotN>  (308) 
5

>  <N_O>  (308) 
5

>  <logP>  (308) 
1.9153

>  <logD>  (308) 
1.8408

>  <logSw>  (308) 
-2.5264

>  <PSA>  (308) 
33.442

>  <pKa_ma>  (308) 
24.078

>  <pKa_mb>  (308) 
6.6724

>  <N_Chirals>  (308) 
0

>  <Name>  (308) 
N,N-dimethyl-5-{[4-(propan-2-yl)phenyl]methyl}-4,5,6,7-tetrahydropyrazolo[1,5-a]pyrazine-2-carboxamide

>  <Smile>  (308) 
CC(C)c1ccc(CN2Cc3cc(C(N(C)C)=O)nn3CC2)cc1

>  <Color>  (308) 
ORANGE

>  <Collection>  (308) 
IC

>  <InChI>  (308) 
InChI=1S/C19H26N4O/c1-14(2)16-7-5-15(6-8-16)12-22-9-10-23-17(13-22)11-18(20-23)19(24)21(3)4/h5-8,11,14H,9-10,12-13H2,1-4H3

>  <InChI Key>  (308) 
BNJNKIDOGJGSCU-UHFFFAOYSA-N

>  <PERCENTSP3>  (308) 
47.37

>  <Link>  (308) 
https://www.chemdiv.com/catalog/screening-compounds/compound-SB71-0051/

>  <MFCDNUMBER>  (308) 
MFCD32249194

>  <CLNUMBER>  (308) 
CM5543

>  <STEREO>  (308) 
ACHIRAL

>  <State>  (308) 
Solid

>  <Similarity score>  (308) 
0.30

$$$$
5-[(4-chlorophenyl)methyl]-N,N-dimethyl-4,5,6,7-tetrahydropyrazolo[1,5-a]pyrazin
     RDKit          2D

 22 24  0  0  0  0  0  0  0  0999 V2000
    2.1986    0.6774    0.0000 C   0  0  0  0  0  0  0  0  0  0  0  0
    2.6071   -0.2397    0.0000 N   0  0  0  0  0  0  0  0  0  0  0  0
    1.8651   -0.9065    0.0000 N   0  0  0  0  0  0  0  0  0  0  0  0
    0.9982   -0.4064    0.0000 C   0  0  0  0  0  0  0  0  0  0  0  0
    1.2067    0.5689    0.0000 C   0  0  0  0  0  0  0  0  0  0  0  0
    2.6986    1.5402    0.0000 C   0  0  0  0  0  0  0  0  0  0  0  0
    0.1314   -1.9068    0.0000 N   0  0  0  0  0  0  0  0  0  0  0  0
    0.1314   -0.9065    0.0000 C   0  0  0  0  0  0  0  0  0  0  0  0
    1.8651   -1.9068    0.0000 C   0  0  0  0  0  0  0  0  0  0  0  0
    3.6989    1.5402    0.0000 N   0  0  0  0  0  0  0  0  0  0  0  0
    2.1986    2.4070    0.0000 O   0  0  0  0  0  0  0  0  0  0  0  0
    0.9982   -2.4070    0.0000 C   0  0  0  0  0  0  0  0  0  0  0  0
   -0.7356   -2.4070    0.0000 C   0  0  0  0  0  0  0  0  0  0  0  0
   -1.6025   -1.9068    0.0000 C   0  0  0  0  0  0  0  0  0  0  0  0
   -3.3365   -0.9065    0.0000 C   0  0  0  0  0  0  0  0  0  0  0  0
   -4.1991   -0.4064    0.0000 Cl  0  0  0  0  0  0  0  0  0  0  0  0
   -2.4695   -0.4064    0.0000 C   0  0  0  0  0  0  0  0  0  0  0  0
   -3.3365   -1.9068    0.0000 C   0  0  0  0  0  0  0  0  0  0  0  0
   -2.4695   -2.4070    0.0000 C   0  0  0  0  0  0  0  0  0  0  0  0
   -1.6025   -0.9065    0.0000 C   0  0  0  0  0  0  0  0  0  0  0  0
    4.1991    0.6774    0.0000 C   0  0  0  0  0  0  0  0  0  0  0  0
    4.1991    2.4070    0.0000 C   0  0  0  0  0  0  0  0  0  0  0  0
  1  2  2  0
  2  3  1  0
  4  5  2  0
  3  4  1  0
  1  5  1  0
  1  6  1  0
  7  8  1  0
  4  8  1  0
  3  9  1  0
  6 10  1  0
  6 11  2  0
  9 12  1  0
  7 12  1  0
  7 13  1  0
 13 14  1  0
 15 17  1  0
 15 16  1  0
 17 20  2  0
 18 19  1  0
 15 18  2  0
 14 19  2  0
 14 20  1  0
 10 21  1  0
 10 22  1  0
M  END
>  <IDNUMBER>  (309) 
SB71-0087

>  <available>  (309) 
100

>  <H_acceptor>  (309) 
4

>  <H_donor>  (309) 
0

>  <B_rotN>  (309) 
4

>  <N_O>  (309) 
5

>  <logP>  (309) 
1.1719

>  <logD>  (309) 
1.1654

>  <logSw>  (309) 
-2.5502

>  <PSA>  (309) 
33.442

>  <pKa_ma>  (309) 
26.5144

>  <pKa_mb>  (309) 
5.5784

>  <N_Chirals>  (309) 
0

>  <Name>  (309) 
5-[(4-chlorophenyl)methyl]-N,N-dimethyl-4,5,6,7-tetrahydropyrazolo[1,5-a]pyrazine-2-carboxamide

>  <Smile>  (309) 
CN(C)C(c1nn(CCN(Cc(cc2)ccc2Cl)C2)c2c1)=O

>  <Color>  (309) 
ORANGE

>  <Collection>  (309) 
IC

>  <InChI>  (309) 
InChI=1S/C16H19ClN4O/c1-19(2)16(22)15-9-14-11-20(7-8-21(14)18-15)10-12-3-5-13(17)6-4-12/h3-6,9H,7-8,10-11H2,1-2H3

>  <InChI Key>  (309) 
KOLMIYJNYJLXOW-UHFFFAOYSA-N

>  <PERCENTSP3>  (309) 
37.5

>  <Link>  (309) 
https://www.chemdiv.com/catalog/screening-compounds/compound-SB71-0087/

>  <MFCDNUMBER>  (309) 
MFCD32249256

>  <CLNUMBER>  (309) 
CM5543

>  <STEREO>  (309) 
ACHIRAL

>  <State>  (309) 
Solid

>  <Similarity score>  (309) 
0.29

$$$$
5-(2,5-dimethoxybenzene-1-sulfonyl)-N,N-dimethyl-4,5,6,7-tetrahydropyrazolo[1,5-
     RDKit          2D

 27 29  0  0  0  0  0  0  0  0999 V2000
    0.9062   -0.7353    0.0000 S   0  0  0  0  0  0  0  0  0  0  0  0
   -3.1770    0.4687    0.0000 C   0  0  0  0  0  0  0  0  0  0  0  0
   -0.0938   -0.7353    0.0000 N   0  0  0  0  0  0  0  0  0  0  0  0
    1.9062   -0.7353    0.0000 C   0  0  0  0  0  0  0  0  0  0  0  0
   -3.0727   -0.5271    0.0000 N   0  0  0  0  0  0  0  0  0  0  0  0
   -1.5936    0.1312    0.0000 C   0  0  0  0  0  0  0  0  0  0  0  0
   -2.0936   -0.7353    0.0000 N   0  0  0  0  0  0  0  0  0  0  0  0
   -2.2603    0.8729    0.0000 C   0  0  0  0  0  0  0  0  0  0  0  0
   -4.0393    0.9686    0.0000 C   0  0  0  0  0  0  0  0  0  0  0  0
   -0.5936    0.1312    0.0000 C   0  0  0  0  0  0  0  0  0  0  0  0
   -0.5936   -1.6019    0.0000 C   0  0  0  0  0  0  0  0  0  0  0  0
    2.4060   -1.6019    0.0000 C   0  0  0  0  0  0  0  0  0  0  0  0
   -1.5936   -1.6019    0.0000 C   0  0  0  0  0  0  0  0  0  0  0  0
    0.9062    0.2646    0.0000 O   0  0  0  0  0  0  0  0  0  0  0  0
    0.9062   -1.7353    0.0000 O   0  0  0  0  0  0  0  0  0  0  0  0
    2.4060    0.1312    0.0000 C   0  0  0  0  0  0  0  0  0  0  0  0
   -4.0393    1.9686    0.0000 N   0  0  0  0  0  0  0  0  0  0  0  0
   -4.9058    0.4687    0.0000 O   0  0  0  0  0  0  0  0  0  0  0  0
    3.4060    0.1312    0.0000 C   0  0  0  0  0  0  0  0  0  0  0  0
    3.4060   -1.6019    0.0000 C   0  0  0  0  0  0  0  0  0  0  0  0
    3.9059   -0.7353    0.0000 C   0  0  0  0  0  0  0  0  0  0  0  0
    1.9062    0.9979    0.0000 O   0  0  0  0  0  0  0  0  0  0  0  0
    3.9059   -2.4685    0.0000 O   0  0  0  0  0  0  0  0  0  0  0  0
   -3.1770    2.4685    0.0000 C   0  0  0  0  0  0  0  0  0  0  0  0
   -4.9058    2.4685    0.0000 C   0  0  0  0  0  0  0  0  0  0  0  0
    2.4060    1.8645    0.0000 C   0  0  0  0  0  0  0  0  0  0  0  0
    4.9058   -2.4685    0.0000 C   0  0  0  0  0  0  0  0  0  0  0  0
  2  8  1  0
  2  5  2  0
  1  3  1  0
  1  4  1  0
  5  7  1  0
  6 10  1  0
  6  7  1  0
  7 13  1  0
  6  8  2  0
  2  9  1  0
  3 10  1  0
  3 11  1  0
  4 12  1  0
 11 13  1  0
  1 14  2  0
  1 15  2  0
  4 16  2  0
  9 17  1  0
  9 18  2  0
 16 19  1  0
 12 20  2  0
 19 21  2  0
 20 21  1  0
 16 22  1  0
 20 23  1  0
 17 24  1  0
 17 25  1  0
 22 26  1  0
 23 27  1  0
M  END
>  <IDNUMBER>  (310) 
SB71-0037

>  <available>  (310) 
118

>  <H_acceptor>  (310) 
10

>  <H_donor>  (310) 
0

>  <B_rotN>  (310) 
6

>  <N_O>  (310) 
9

>  <logP>  (310) 
0.1113

>  <logD>  (310) 
0.1113

>  <logSw>  (310) 
-2.2276

>  <PSA>  (310) 
76.595

>  <pKa_ma>  (310) 
26.1583

>  <pKa_mb>  (310) 
-3.0085

>  <N_Chirals>  (310) 
0

>  <Name>  (310) 
5-(2,5-dimethoxybenzene-1-sulfonyl)-N,N-dimethyl-4,5,6,7-tetrahydropyrazolo[1,5-a]pyrazine-2-carboxamide

>  <Smile>  (310) 
CN(C)C(c1nn(CCN(C2)S(c(cc(cc3)OC)c3OC)(=O)=O)c2c1)=O

>  <Color>  (310) 
YELLOW

>  <Collection>  (310) 
IC

>  <InChI>  (310) 
InChI=1S/C17H22N4O5S/c1-19(2)17(22)14-9-12-11-20(7-8-21(12)18-14)27(23,24)16-10-13(25-3)5-6-15(16)26-4/h5-6,9-10H,7-8,11H2,1-4H3

>  <InChI Key>  (310) 
CPGFQDOAYBWHGY-UHFFFAOYSA-N

>  <PERCENTSP3>  (310) 
41.18

>  <Link>  (310) 
https://www.chemdiv.com/catalog/screening-compounds/compound-SB71-0037/

>  <MFCDNUMBER>  (310) 
MFCD32249190

>  <CLNUMBER>  (310) 
CM5543

>  <STEREO>  (310) 
ACHIRAL

>  <State>  (310) 
Solid

>  <Similarity score>  (310) 
0.29

$$$$
N,N-dimethyl-5-[(thiophen-2-yl)methyl]-4,5,6,7-tetrahydropyrazolo[1,5-a]pyrazine
     RDKit          2D

 20 22  0  0  0  0  0  0  0  0999 V2000
    1.6948    0.6774    0.0000 C   0  0  0  0  0  0  0  0  0  0  0  0
    2.0992   -0.2397    0.0000 N   0  0  0  0  0  0  0  0  0  0  0  0
    1.3571   -0.9068    0.0000 N   0  0  0  0  0  0  0  0  0  0  0  0
    0.4899   -0.4064    0.0000 C   0  0  0  0  0  0  0  0  0  0  0  0
    0.6983    0.5733    0.0000 C   0  0  0  0  0  0  0  0  0  0  0  0
    2.1908    1.5407    0.0000 C   0  0  0  0  0  0  0  0  0  0  0  0
   -0.3774   -1.9074    0.0000 N   0  0  0  0  0  0  0  0  0  0  0  0
   -0.3774   -0.9068    0.0000 C   0  0  0  0  0  0  0  0  0  0  0  0
    1.3571   -1.9074    0.0000 C   0  0  0  0  0  0  0  0  0  0  0  0
   -3.0247   -2.3159    0.0000 S   0  0  0  0  0  0  0  0  0  0  0  0
   -2.1117   -1.9074    0.0000 C   0  0  0  0  0  0  0  0  0  0  0  0
    3.1914    1.5407    0.0000 N   0  0  0  0  0  0  0  0  0  0  0  0
    1.6948    2.4077    0.0000 O   0  0  0  0  0  0  0  0  0  0  0  0
   -1.2445   -2.4077    0.0000 C   0  0  0  0  0  0  0  0  0  0  0  0
   -3.6918   -1.5696    0.0000 C   0  0  0  0  0  0  0  0  0  0  0  0
   -2.2160   -0.9151    0.0000 C   0  0  0  0  0  0  0  0  0  0  0  0
    0.4899   -2.4077    0.0000 C   0  0  0  0  0  0  0  0  0  0  0  0
   -3.1914   -0.7066    0.0000 C   0  0  0  0  0  0  0  0  0  0  0  0
    3.6918    0.6774    0.0000 C   0  0  0  0  0  0  0  0  0  0  0  0
    3.6918    2.4077    0.0000 C   0  0  0  0  0  0  0  0  0  0  0  0
  1  2  2  0
  2  3  1  0
  4  5  2  0
  3  4  1  0
  1  5  1  0
  1  6  1  0
  7  8  1  0
  4  8  1  0
  3  9  1  0
 10 11  1  0
 11 14  1  0
  6 12  1  0
  6 13  2  0
  7 14  1  0
 10 15  1  0
 15 18  2  0
 11 16  2  0
  9 17  1  0
  7 17  1  0
 16 18  1  0
 12 19  1  0
 12 20  1  0
M  END
>  <IDNUMBER>  (311) 
SB71-0052

>  <available>  (311) 
23

>  <H_acceptor>  (311) 
4

>  <H_donor>  (311) 
0

>  <B_rotN>  (311) 
4

>  <N_O>  (311) 
5

>  <logP>  (311) 
0.4059

>  <logD>  (311) 
0.3911

>  <logSw>  (311) 
-1.8927

>  <PSA>  (311) 
34.461

>  <pKa_ma>  (311) 
26.9104

>  <pKa_mb>  (311) 
5.9402

>  <N_Chirals>  (311) 
0

>  <Name>  (311) 
N,N-dimethyl-5-[(thiophen-2-yl)methyl]-4,5,6,7-tetrahydropyrazolo[1,5-a]pyrazine-2-carboxamide

>  <Smile>  (311) 
CN(C)C(c1nn(CCN(Cc2cccs2)C2)c2c1)=O

>  <Color>  (311) 
ORANGE

>  <Collection>  (311) 
IC

>  <InChI>  (311) 
InChI=1S/C14H18N4OS/c1-16(2)14(19)13-8-11-9-17(5-6-18(11)15-13)10-12-4-3-7-20-12/h3-4,7-8H,5-6,9-10H2,1-2H3

>  <InChI Key>  (311) 
RAMRRVYHYINKPE-UHFFFAOYSA-N

>  <PERCENTSP3>  (311) 
42.86

>  <Link>  (311) 
https://www.chemdiv.com/catalog/screening-compounds/compound-SB71-0052/

>  <MFCDNUMBER>  (311) 
MFCD32249218

>  <CLNUMBER>  (311) 
CM5543

>  <STEREO>  (311) 
ACHIRAL

>  <State>  (311) 
Solid

>  <Similarity score>  (311) 
0.28

$$$$
5-(4-methoxybenzene-1-sulfonyl)-N,N-dimethyl-4,5,6,7-tetrahydropyrazolo[1,5-a]py
     RDKit          2D

 25 27  0  0  0  0  0  0  0  0999 V2000
   -0.6562   -1.1020    0.0000 S   0  0  0  0  0  0  0  0  0  0  0  0
    3.4267    0.1020    0.0000 C   0  0  0  0  0  0  0  0  0  0  0  0
    3.3224   -0.8937    0.0000 N   0  0  0  0  0  0  0  0  0  0  0  0
    0.3437   -1.1020    0.0000 N   0  0  0  0  0  0  0  0  0  0  0  0
    1.8435   -0.2352    0.0000 C   0  0  0  0  0  0  0  0  0  0  0  0
    2.3435   -1.1020    0.0000 N   0  0  0  0  0  0  0  0  0  0  0  0
    2.5101    0.5061    0.0000 C   0  0  0  0  0  0  0  0  0  0  0  0
    4.2891    0.6019    0.0000 C   0  0  0  0  0  0  0  0  0  0  0  0
    0.8438   -0.2352    0.0000 C   0  0  0  0  0  0  0  0  0  0  0  0
   -1.6561   -1.1020    0.0000 C   0  0  0  0  0  0  0  0  0  0  0  0
    0.8438   -1.9687    0.0000 C   0  0  0  0  0  0  0  0  0  0  0  0
    1.8435   -1.9687    0.0000 C   0  0  0  0  0  0  0  0  0  0  0  0
   -0.6562   -0.1020    0.0000 O   0  0  0  0  0  0  0  0  0  0  0  0
   -0.6562   -2.1019    0.0000 O   0  0  0  0  0  0  0  0  0  0  0  0
    4.2891    1.6020    0.0000 N   0  0  0  0  0  0  0  0  0  0  0  0
    5.1558    0.1020    0.0000 O   0  0  0  0  0  0  0  0  0  0  0  0
   -2.1561   -1.9687    0.0000 C   0  0  0  0  0  0  0  0  0  0  0  0
   -2.1561   -0.2352    0.0000 C   0  0  0  0  0  0  0  0  0  0  0  0
   -3.6559   -1.1020    0.0000 C   0  0  0  0  0  0  0  0  0  0  0  0
   -3.1560   -1.9687    0.0000 C   0  0  0  0  0  0  0  0  0  0  0  0
   -3.1560   -0.2352    0.0000 C   0  0  0  0  0  0  0  0  0  0  0  0
   -4.6558   -1.1020    0.0000 O   0  0  0  0  0  0  0  0  0  0  0  0
    3.4267    2.1019    0.0000 C   0  0  0  0  0  0  0  0  0  0  0  0
    5.1558    2.1019    0.0000 C   0  0  0  0  0  0  0  0  0  0  0  0
   -5.1558   -0.2352    0.0000 C   0  0  0  0  0  0  0  0  0  0  0  0
  2  7  1  0
  2  3  2  0
  3  6  1  0
  1  4  1  0
  5  9  1  0
  5  6  1  0
  6 12  1  0
  5  7  2  0
  2  8  1  0
  4  9  1  0
  1 10  1  0
  4 11  1  0
 11 12  1  0
  1 13  2  0
  1 14  2  0
  8 15  1  0
  8 16  2  0
 10 17  1  0
 10 18  2  0
 19 21  2  0
 17 20  2  0
 19 20  1  0
 18 21  1  0
 19 22  1  0
 15 23  1  0
 15 24  1  0
 22 25  1  0
M  END
>  <IDNUMBER>  (312) 
SB71-0062

>  <available>  (312) 
50

>  <H_acceptor>  (312) 
9

>  <H_donor>  (312) 
0

>  <B_rotN>  (312) 
5

>  <N_O>  (312) 
8

>  <logP>  (312) 
0.2729

>  <logD>  (312) 
0.2729

>  <logSw>  (312) 
-2.2949

>  <PSA>  (312) 
68.965

>  <pKa_ma>  (312) 
26.1583

>  <pKa_mb>  (312) 
-3.0085

>  <N_Chirals>  (312) 
0

>  <Name>  (312) 
5-(4-methoxybenzene-1-sulfonyl)-N,N-dimethyl-4,5,6,7-tetrahydropyrazolo[1,5-a]pyrazine-2-carboxamide

>  <Smile>  (312) 
CN(C)C(c1nn(CCN(C2)S(c(cc3)ccc3OC)(=O)=O)c2c1)=O

>  <Color>  (312) 
NOT COLORED

>  <Collection>  (312) 
IC

>  <InChI>  (312) 
InChI=1S/C16H20N4O4S/c1-18(2)16(21)15-10-12-11-19(8-9-20(12)17-15)25(22,23)14-6-4-13(24-3)5-7-14/h4-7,10H,8-9,11H2,1-3H3

>  <InChI Key>  (312) 
ICQPWTYDCFLZDD-UHFFFAOYSA-N

>  <PERCENTSP3>  (312) 
37.5

>  <Link>  (312) 
https://www.chemdiv.com/catalog/screening-compounds/compound-SB71-0062/

>  <MFCDNUMBER>  (312) 
MFCD32249222

>  <CLNUMBER>  (312) 
CM5543

>  <STEREO>  (312) 
ACHIRAL

>  <State>  (312) 
Solid

>  <Similarity score>  (312) 
0.28

$$$$
(5-{[3-(4-fluorophenyl)-1H-pyrazol-4-yl]methyl}-4,5,6,7-tetrahydropyrazolo[1,5-a
     RDKit          2D

 30 34  0  0  0  0  0  0  0  0999 V2000
    2.3935    0.8520    0.0000 C   0  0  0  0  0  0  0  0  0  0  0  0
    2.2893   -0.1437    0.0000 N   0  0  0  0  0  0  0  0  0  0  0  0
    1.3102   -0.3520    0.0000 N   0  0  0  0  0  0  0  0  0  0  0  0
    0.8103    0.5146    0.0000 C   0  0  0  0  0  0  0  0  0  0  0  0
   -2.1894    0.5146    0.0000 C   0  0  0  0  0  0  0  0  0  0  0  0
    1.4811    1.2602    0.0000 C   0  0  0  0  0  0  0  0  0  0  0  0
    3.2601    1.3520    0.0000 C   0  0  0  0  0  0  0  0  0  0  0  0
   -3.1809    0.6188    0.0000 C   0  0  0  0  0  0  0  0  0  0  0  0
   -3.3892    1.5975    0.0000 N   0  0  0  0  0  0  0  0  0  0  0  0
   -0.6896   -0.3520    0.0000 N   0  0  0  0  0  0  0  0  0  0  0  0
    4.1268    0.8520    0.0000 N   0  0  0  0  0  0  0  0  0  0  0  0
   -2.5226    2.0976    0.0000 N   0  0  0  0  0  0  0  0  0  0  0  0
   -1.6894   -0.3520    0.0000 C   0  0  0  0  0  0  0  0  0  0  0  0
   -0.1895    0.5146    0.0000 C   0  0  0  0  0  0  0  0  0  0  0  0
   -1.7810    1.4269    0.0000 C   0  0  0  0  0  0  0  0  0  0  0  0
    0.8103   -1.2144    0.0000 C   0  0  0  0  0  0  0  0  0  0  0  0
   -3.8517   -0.1229    0.0000 C   0  0  0  0  0  0  0  0  0  0  0  0
    3.2601    2.3518    0.0000 O   0  0  0  0  0  0  0  0  0  0  0  0
   -0.1895   -1.2144    0.0000 C   0  0  0  0  0  0  0  0  0  0  0  0
    5.8598   -0.1480    0.0000 O   0  0  0  0  0  0  0  0  0  0  0  0
   -4.8307    0.0855    0.0000 C   0  0  0  0  0  0  0  0  0  0  0  0
   -3.5432   -1.0727    0.0000 C   0  0  0  0  0  0  0  0  0  0  0  0
   -5.1888   -1.6103    0.0000 C   0  0  0  0  0  0  0  0  0  0  0  0
   -4.2101   -1.8185    0.0000 C   0  0  0  0  0  0  0  0  0  0  0  0
   -5.4972   -0.6563    0.0000 C   0  0  0  0  0  0  0  0  0  0  0  0
   -5.8598   -2.3518    0.0000 F   0  0  0  0  0  0  0  0  0  0  0  0
    4.9933    1.3520    0.0000 C   0  0  0  0  0  0  0  0  0  0  0  0
    4.1268   -0.1480    0.0000 C   0  0  0  0  0  0  0  0  0  0  0  0
    4.9933   -0.6479    0.0000 C   0  0  0  0  0  0  0  0  0  0  0  0
    5.8598    0.8520    0.0000 C   0  0  0  0  0  0  0  0  0  0  0  0
  1  2  2  0
  2  3  1  0
  4  6  2  0
  3  4  1  0
  5 13  1  0
  1  6  1  0
  1  7  1  0
  5  8  1  0
  8  9  2  0
  9 12  1  0
 10 14  1  0
  7 11  1  0
 12 15  1  0
 10 13  1  0
  4 14  1  0
  5 15  2  0
  3 16  1  0
  8 17  1  0
  7 18  2  0
 16 19  1  0
 10 19  1  0
 20 29  1  0
 20 30  1  0
 17 21  2  0
 17 22  1  0
 23 24  1  0
 23 25  2  0
 22 24  2  0
 21 25  1  0
 23 26  1  0
 11 27  1  0
 11 28  1  0
 28 29  1  0
 27 30  1  0
M  END
>  <IDNUMBER>  (313) 
SB71-0205

>  <available>  (313) 
35

>  <H_acceptor>  (313) 
6

>  <H_donor>  (313) 
1

>  <B_rotN>  (313) 
5

>  <N_O>  (313) 
8

>  <logP>  (313) 
1.0536

>  <logD>  (313) 
0.6167

>  <logSw>  (313) 
-2.1435

>  <PSA>  (313) 
66.189

>  <pKa_ma>  (313) 
11.6652

>  <pKa_mb>  (313) 
7.6393

>  <N_Chirals>  (313) 
0

>  <Name>  (313) 
(5-{[3-(4-fluorophenyl)-1H-pyrazol-4-yl]methyl}-4,5,6,7-tetrahydropyrazolo[1,5-a]pyrazin-2-yl)(morpholin-4-yl)methanone

>  <Smile>  (313) 
O=C(c1nn(CCN(Cc2c[nH]nc2-c(cc2)ccc2F)C2)c2c1)N1CCOCC1

>  <Color>  (313) 
YELLOW

>  <Collection>  (313) 
IC

>  <InChI>  (313) 
InChI=1S/C21H23FN6O2/c22-17-3-1-15(2-4-17)20-16(12-23-24-20)13-26-5-6-28-18(14-26)11-19(25-28)21(29)27-7-9-30-10-8-27/h1-4,11-12H,5-10,13-14H2,(H,23,24)

>  <InChI Key>  (313) 
QLXNIYYACATFMT-UHFFFAOYSA-N

>  <PERCENTSP3>  (313) 
38.1

>  <Link>  (313) 
https://www.chemdiv.com/catalog/screening-compounds/compound-SB71-0205/

>  <MFCDNUMBER>  (313) 
MFCD32249566

>  <CLNUMBER>  (313) 
CM5543

>  <STEREO>  (313) 
ACHIRAL

>  <State>  (313) 
Solid

>  <Similarity score>  (313) 
0.28

$$$$
[5-(2,3-dihydro-1H-indene-5-sulfonyl)-4,5,6,7-tetrahydropyrazolo[1,5-a]pyrazin-2
     RDKit          2D

 29 33  0  0  0  0  0  0  0  0999 V2000
   -0.8646   -1.8521    0.0000 S   0  0  0  0  0  0  0  0  0  0  0  0
    3.2144   -0.6478    0.0000 C   0  0  0  0  0  0  0  0  0  0  0  0
    3.1102   -1.6437    0.0000 N   0  0  0  0  0  0  0  0  0  0  0  0
    0.1354   -1.8521    0.0000 N   0  0  0  0  0  0  0  0  0  0  0  0
    1.6354   -0.9854    0.0000 C   0  0  0  0  0  0  0  0  0  0  0  0
    2.1352   -1.8521    0.0000 N   0  0  0  0  0  0  0  0  0  0  0  0
    2.3020   -0.2438    0.0000 C   0  0  0  0  0  0  0  0  0  0  0  0
    4.0810   -0.1480    0.0000 C   0  0  0  0  0  0  0  0  0  0  0  0
    0.6353   -0.9854    0.0000 C   0  0  0  0  0  0  0  0  0  0  0  0
   -1.8646   -1.8521    0.0000 C   0  0  0  0  0  0  0  0  0  0  0  0
    4.0810    0.8521    0.0000 N   0  0  0  0  0  0  0  0  0  0  0  0
    0.6353   -2.7187    0.0000 C   0  0  0  0  0  0  0  0  0  0  0  0
    1.6354   -2.7187    0.0000 C   0  0  0  0  0  0  0  0  0  0  0  0
   -2.3645   -0.9854    0.0000 C   0  0  0  0  0  0  0  0  0  0  0  0
   -0.8646   -0.8521    0.0000 O   0  0  0  0  0  0  0  0  0  0  0  0
   -0.8646   -2.8519    0.0000 O   0  0  0  0  0  0  0  0  0  0  0  0
   -3.3644   -0.9854    0.0000 C   0  0  0  0  0  0  0  0  0  0  0  0
    4.9476   -0.6478    0.0000 O   0  0  0  0  0  0  0  0  0  0  0  0
   -3.8644   -1.8521    0.0000 C   0  0  0  0  0  0  0  0  0  0  0  0
   -2.3645   -2.7187    0.0000 C   0  0  0  0  0  0  0  0  0  0  0  0
   -3.3644   -2.7187    0.0000 C   0  0  0  0  0  0  0  0  0  0  0  0
    4.0810    2.8519    0.0000 O   0  0  0  0  0  0  0  0  0  0  0  0
    4.9476    1.3519    0.0000 C   0  0  0  0  0  0  0  0  0  0  0  0
    3.2144    1.3519    0.0000 C   0  0  0  0  0  0  0  0  0  0  0  0
   -4.0351   -0.2438    0.0000 C   0  0  0  0  0  0  0  0  0  0  0  0
   -4.9476   -0.6478    0.0000 C   0  0  0  0  0  0  0  0  0  0  0  0
   -4.8433   -1.6437    0.0000 C   0  0  0  0  0  0  0  0  0  0  0  0
    4.9476    2.3520    0.0000 C   0  0  0  0  0  0  0  0  0  0  0  0
    3.2144    2.3520    0.0000 C   0  0  0  0  0  0  0  0  0  0  0  0
  2  7  1  0
  2  3  2  0
  3  6  1  0
  1  4  1  0
  5  9  1  0
  5  6  1  0
  6 13  1  0
  5  7  2  0
  2  8  1  0
  4  9  1  0
  1 10  1  0
  8 11  1  0
  4 12  1  0
 12 13  1  0
 10 14  2  0
  1 15  2  0
  1 16  2  0
 14 17  1  0
  8 18  2  0
 19 21  1  0
 17 19  2  0
 10 20  1  0
 20 21  2  0
 22 29  1  0
 22 28  1  0
 11 23  1  0
 11 24  1  0
 17 25  1  0
 25 26  1  0
 26 27  1  0
 19 27  1  0
 23 28  1  0
 24 29  1  0
M  END
>  <IDNUMBER>  (314) 
SB71-0218

>  <available>  (314) 
28

>  <H_acceptor>  (314) 
9

>  <H_donor>  (314) 
0

>  <B_rotN>  (314) 
4

>  <N_O>  (314) 
8

>  <logP>  (314) 
1.5471

>  <logD>  (314) 
1.5471

>  <logSw>  (314) 
-2.4224

>  <PSA>  (314) 
70.264

>  <pKa_ma>  (314) 
20.7697

>  <pKa_mb>  (314) 
-4.4541

>  <N_Chirals>  (314) 
0

>  <Name>  (314) 
[5-(2,3-dihydro-1H-indene-5-sulfonyl)-4,5,6,7-tetrahydropyrazolo[1,5-a]pyrazin-2-yl](morpholin-4-yl)methanone

>  <Smile>  (314) 
O=C(c1nn(CCN(C2)S(c3cc(CCC4)c4cc3)(=O)=O)c2c1)N1CCOCC1

>  <Color>  (314) 
YELLOW

>  <Collection>  (314) 
IC

>  <InChI>  (314) 
InChI=1S/C20H24N4O4S/c25-20(22-8-10-28-11-9-22)19-13-17-14-23(6-7-24(17)21-19)29(26,27)18-5-4-15-2-1-3-16(15)12-18/h4-5,12-13H,1-3,6-11,14H2

>  <InChI Key>  (314) 
RZPGQJIOWYYXPT-UHFFFAOYSA-N

>  <PERCENTSP3>  (314) 
50

>  <Link>  (314) 
https://www.chemdiv.com/catalog/screening-compounds/compound-SB71-0218/

>  <MFCDNUMBER>  (314) 
MFCD32249599

>  <CLNUMBER>  (314) 
CM5543

>  <STEREO>  (314) 
ACHIRAL

>  <State>  (314) 
Solid

>  <Similarity score>  (314) 
0.28

$$$$
5-(5-methoxy-1H-indole-2-carbonyl)-N,N-dimethyl-4,5,6,7-tetrahydropyrazolo[1,5-a
     RDKit          2D

 27 30  0  0  0  0  0  0  0  0999 V2000
    3.1937    1.1770    0.0000 C   0  0  0  0  0  0  0  0  0  0  0  0
    3.5978    0.2603    0.0000 N   0  0  0  0  0  0  0  0  0  0  0  0
   -0.6104   -1.4064    0.0000 C   0  0  0  0  0  0  0  0  0  0  0  0
    1.9897    0.0936    0.0000 C   0  0  0  0  0  0  0  0  0  0  0  0
    2.8564   -0.4062    0.0000 N   0  0  0  0  0  0  0  0  0  0  0  0
    2.1979    1.0728    0.0000 C   0  0  0  0  0  0  0  0  0  0  0  0
    1.1228   -1.4064    0.0000 N   0  0  0  0  0  0  0  0  0  0  0  0
    0.2563   -1.9063    0.0000 C   0  0  0  0  0  0  0  0  0  0  0  0
   -0.7146   -0.4147    0.0000 N   0  0  0  0  0  0  0  0  0  0  0  0
    3.6937    2.0437    0.0000 C   0  0  0  0  0  0  0  0  0  0  0  0
   -1.5229   -1.8146    0.0000 C   0  0  0  0  0  0  0  0  0  0  0  0
   -2.1939   -1.0728    0.0000 C   0  0  0  0  0  0  0  0  0  0  0  0
    1.1228   -0.4062    0.0000 C   0  0  0  0  0  0  0  0  0  0  0  0
   -1.6936   -0.2065    0.0000 C   0  0  0  0  0  0  0  0  0  0  0  0
    2.8564   -1.4064    0.0000 C   0  0  0  0  0  0  0  0  0  0  0  0
    1.9897   -1.9063    0.0000 C   0  0  0  0  0  0  0  0  0  0  0  0
    4.6937    2.0437    0.0000 N   0  0  0  0  0  0  0  0  0  0  0  0
    0.2563   -2.9062    0.0000 O   0  0  0  0  0  0  0  0  0  0  0  0
    3.1937    2.9062    0.0000 O   0  0  0  0  0  0  0  0  0  0  0  0
   -3.1937   -1.0728    0.0000 C   0  0  0  0  0  0  0  0  0  0  0  0
   -2.1939    0.6603    0.0000 C   0  0  0  0  0  0  0  0  0  0  0  0
   -3.6937   -0.2065    0.0000 C   0  0  0  0  0  0  0  0  0  0  0  0
   -3.1937    0.6603    0.0000 C   0  0  0  0  0  0  0  0  0  0  0  0
   -4.6938   -0.2065    0.0000 O   0  0  0  0  0  0  0  0  0  0  0  0
    5.1937    1.1770    0.0000 C   0  0  0  0  0  0  0  0  0  0  0  0
    5.1937    2.9062    0.0000 C   0  0  0  0  0  0  0  0  0  0  0  0
   -5.1937    0.6603    0.0000 C   0  0  0  0  0  0  0  0  0  0  0  0
  1  2  2  0
  3  8  1  0
  4  6  2  0
  4  5  1  0
  2  5  1  0
  1  6  1  0
  7 13  1  0
  7  8  1  0
  3  9  1  0
  1 10  1  0
  3 11  2  0
 11 12  1  0
 12 14  1  0
  4 13  1  0
  9 14  1  0
  5 15  1  0
 15 16  1  0
  7 16  1  0
 10 17  1  0
  8 18  2  0
 10 19  2  0
 12 20  2  0
 14 21  2  0
 20 22  1  0
 22 23  2  0
 21 23  1  0
 22 24  1  0
 17 25  1  0
 17 26  1  0
 24 27  1  0
M  END
>  <IDNUMBER>  (315) 
SB71-0072

>  <available>  (315) 
254

>  <H_acceptor>  (315) 
6

>  <H_donor>  (315) 
1

>  <B_rotN>  (315) 
5

>  <N_O>  (315) 
8

>  <logP>  (315) 
0.9141

>  <logD>  (315) 
0.9141

>  <logSw>  (315) 
-2.3831

>  <PSA>  (315) 
63.251

>  <pKa_ma>  (315) 
15.1542

>  <pKa_mb>  (315) 
-2.791

>  <N_Chirals>  (315) 
0

>  <Name>  (315) 
5-(5-methoxy-1H-indole-2-carbonyl)-N,N-dimethyl-4,5,6,7-tetrahydropyrazolo[1,5-a]pyrazine-2-carboxamide

>  <Smile>  (315) 
CN(C)C(c1nn(CCN(C2)C(c3cc(cc(cc4)OC)c4[nH]3)=O)c2c1)=O

>  <Color>  (315) 
BROWN

>  <Collection>  (315) 
IC

>  <InChI>  (315) 
InChI=1S/C19H21N5O3/c1-22(2)18(25)17-10-13-11-23(6-7-24(13)21-17)19(26)16-9-12-8-14(27-3)4-5-15(12)20-16/h4-5,8-10,20H,6-7,11H2,1-3H3

>  <InChI Key>  (315) 
GFRPNJFMBFCEDK-UHFFFAOYSA-N

>  <PERCENTSP3>  (315) 
31.58

>  <Link>  (315) 
https://www.chemdiv.com/catalog/screening-compounds/compound-SB71-0072/

>  <MFCDNUMBER>  (315) 
MFCD32249251

>  <CLNUMBER>  (315) 
CM5543

>  <STEREO>  (315) 
ACHIRAL

>  <State>  (315) 
Solid

>  <Similarity score>  (315) 
0.28

$$$$
(3,4-dihydroisoquinolin-2(1H)-yl){5-[(6-methoxypyridin-2-yl)methyl]-4,5,6,7-tetr
     RDKit          2D

 30 34  0  0  0  0  0  0  0  0999 V2000
    1.1295    0.2437    0.0000 C   0  0  0  0  0  0  0  0  0  0  0  0
    1.5380   -0.6731    0.0000 N   0  0  0  0  0  0  0  0  0  0  0  0
    0.7961   -1.3400    0.0000 N   0  0  0  0  0  0  0  0  0  0  0  0
   -0.0709   -0.8400    0.0000 C   0  0  0  0  0  0  0  0  0  0  0  0
    0.1376    0.1397    0.0000 C   0  0  0  0  0  0  0  0  0  0  0  0
    1.6297    1.1107    0.0000 C   0  0  0  0  0  0  0  0  0  0  0  0
    2.6301    1.1107    0.0000 N   0  0  0  0  0  0  0  0  0  0  0  0
   -0.9379   -2.3404    0.0000 N   0  0  0  0  0  0  0  0  0  0  0  0
    3.1302    1.9735    0.0000 C   0  0  0  0  0  0  0  0  0  0  0  0
   -3.5387   -2.8405    0.0000 N   0  0  0  0  0  0  0  0  0  0  0  0
   -0.9379   -1.3400    0.0000 C   0  0  0  0  0  0  0  0  0  0  0  0
    0.7961   -2.3404    0.0000 C   0  0  0  0  0  0  0  0  0  0  0  0
    4.1305    1.9735    0.0000 C   0  0  0  0  0  0  0  0  0  0  0  0
    3.1302    0.2437    0.0000 C   0  0  0  0  0  0  0  0  0  0  0  0
   -4.4056   -2.3404    0.0000 C   0  0  0  0  0  0  0  0  0  0  0  0
    1.1295    1.9735    0.0000 O   0  0  0  0  0  0  0  0  0  0  0  0
   -2.6717   -2.3404    0.0000 C   0  0  0  0  0  0  0  0  0  0  0  0
    4.6308    1.1107    0.0000 C   0  0  0  0  0  0  0  0  0  0  0  0
   -1.8049   -2.8405    0.0000 C   0  0  0  0  0  0  0  0  0  0  0  0
   -0.0709   -2.8405    0.0000 C   0  0  0  0  0  0  0  0  0  0  0  0
    4.1305    0.2437    0.0000 C   0  0  0  0  0  0  0  0  0  0  0  0
   -5.2684   -2.8405    0.0000 O   0  0  0  0  0  0  0  0  0  0  0  0
   -3.5387   -0.8400    0.0000 C   0  0  0  0  0  0  0  0  0  0  0  0
   -4.4056   -1.3400    0.0000 C   0  0  0  0  0  0  0  0  0  0  0  0
    4.6308    2.8405    0.0000 C   0  0  0  0  0  0  0  0  0  0  0  0
   -2.6717   -1.3400    0.0000 C   0  0  0  0  0  0  0  0  0  0  0  0
    5.6311    1.1107    0.0000 C   0  0  0  0  0  0  0  0  0  0  0  0
   -6.1312   -2.3404    0.0000 C   0  0  0  0  0  0  0  0  0  0  0  0
    5.6311    2.8405    0.0000 C   0  0  0  0  0  0  0  0  0  0  0  0
    6.1312    1.9735    0.0000 C   0  0  0  0  0  0  0  0  0  0  0  0
  1  2  2  0
  2  3  1  0
  4  5  2  0
  3  4  1  0
  1  5  1  0
  1  6  1  0
  6  7  1  0
  8 11  1  0
  7  9  1  0
 10 17  2  0
  4 11  1  0
  3 12  1  0
  9 13  1  0
  7 14  1  0
 10 15  1  0
 15 24  2  0
  6 16  2  0
 17 19  1  0
 18 21  1  0
 13 18  2  0
  8 19  1  0
 12 20  1  0
  8 20  1  0
 14 21  1  0
 15 22  1  0
 23 26  2  0
 23 24  1  0
 13 25  1  0
 17 26  1  0
 18 27  1  0
 22 28  1  0
 25 29  2  0
 27 30  2  0
 29 30  1  0
M  END
>  <IDNUMBER>  (316) 
SB71-0422

>  <available>  (316) 
25

>  <H_acceptor>  (316) 
6

>  <H_donor>  (316) 
0

>  <B_rotN>  (316) 
5

>  <N_O>  (316) 
7

>  <logP>  (316) 
2.63

>  <logD>  (316) 
2.5194

>  <logSw>  (316) 
-2.8174

>  <PSA>  (316) 
50.307

>  <pKa_ma>  (316) 
25.6071

>  <pKa_mb>  (316) 
6.8625

>  <N_Chirals>  (316) 
0

>  <Name>  (316) 
(3,4-dihydroisoquinolin-2(1H)-yl){5-[(6-methoxypyridin-2-yl)methyl]-4,5,6,7-tetrahydropyrazolo[1,5-a]pyrazin-2-yl}methanone

>  <Smile>  (316) 
COc1cccc(CN2Cc3cc(C(N(CC4)Cc5c4cccc5)=O)nn3CC2)n1

>  <Color>  (316) 
YELLOW

>  <Collection>  (316) 
IC

>  <InChI>  (316) 
InChI=1S/C23H25N5O2/c1-30-22-8-4-7-19(24-22)15-26-11-12-28-20(16-26)13-21(25-28)23(29)27-10-9-17-5-2-3-6-18(17)14-27/h2-8,13H,9-12,14-16H2,1H3

>  <InChI Key>  (316) 
VYSHKRCGYDIPJQ-UHFFFAOYSA-N

>  <PERCENTSP3>  (316) 
34.78

>  <Link>  (316) 
https://www.chemdiv.com/catalog/screening-compounds/compound-SB71-0422/

>  <MFCDNUMBER>  (316) 
MFCD32249601

>  <CLNUMBER>  (316) 
CM5543

>  <STEREO>  (316) 
ACHIRAL

>  <State>  (316) 
Oil

>  <Similarity score>  (316) 
0.28

$$$$
5-(3-fluoro-4-methoxybenzoyl)-N,N-dimethyl-4,5,6,7-tetrahydropyrazolo[1,5-a]pyra
     RDKit          2D

 25 27  0  0  0  0  0  0  0  0999 V2000
    2.6326   -1.1777    0.0000 C   0  0  0  0  0  0  0  0  0  0  0  0
    3.0411   -0.2605    0.0000 N   0  0  0  0  0  0  0  0  0  0  0  0
    1.4321   -0.0937    0.0000 C   0  0  0  0  0  0  0  0  0  0  0  0
    2.2949    0.4065    0.0000 N   0  0  0  0  0  0  0  0  0  0  0  0
    1.6403   -1.0692    0.0000 C   0  0  0  0  0  0  0  0  0  0  0  0
    0.5649    1.4069    0.0000 N   0  0  0  0  0  0  0  0  0  0  0  0
    3.1327   -2.0405    0.0000 C   0  0  0  0  0  0  0  0  0  0  0  0
   -0.3023    1.9073    0.0000 C   0  0  0  0  0  0  0  0  0  0  0  0
    0.5649    0.4065    0.0000 C   0  0  0  0  0  0  0  0  0  0  0  0
   -1.1693    1.4069    0.0000 C   0  0  0  0  0  0  0  0  0  0  0  0
    2.2949    1.4069    0.0000 C   0  0  0  0  0  0  0  0  0  0  0  0
   -2.0365    1.9073    0.0000 C   0  0  0  0  0  0  0  0  0  0  0  0
   -2.8993    1.4069    0.0000 C   0  0  0  0  0  0  0  0  0  0  0  0
    1.4321    1.9073    0.0000 C   0  0  0  0  0  0  0  0  0  0  0  0
    4.1332   -2.0405    0.0000 N   0  0  0  0  0  0  0  0  0  0  0  0
    2.6326   -2.9077    0.0000 O   0  0  0  0  0  0  0  0  0  0  0  0
   -0.3023    2.9077    0.0000 O   0  0  0  0  0  0  0  0  0  0  0  0
   -2.8993    0.4065    0.0000 C   0  0  0  0  0  0  0  0  0  0  0  0
   -1.1693    0.4065    0.0000 C   0  0  0  0  0  0  0  0  0  0  0  0
   -2.0365   -0.0937    0.0000 C   0  0  0  0  0  0  0  0  0  0  0  0
   -3.7665    1.9073    0.0000 F   0  0  0  0  0  0  0  0  0  0  0  0
   -3.7665   -0.0937    0.0000 O   0  0  0  0  0  0  0  0  0  0  0  0
    4.6336   -1.1777    0.0000 C   0  0  0  0  0  0  0  0  0  0  0  0
    4.6336   -2.9077    0.0000 C   0  0  0  0  0  0  0  0  0  0  0  0
   -4.6336    0.4065    0.0000 C   0  0  0  0  0  0  0  0  0  0  0  0
  1  2  2  0
  3  5  2  0
  3  4  1  0
  2  4  1  0
  1  5  1  0
  6  9  1  0
  1  7  1  0
  6  8  1  0
  3  9  1  0
  8 10  1  0
  4 11  1  0
 10 12  2  0
 12 13  1  0
 13 18  2  0
 11 14  1  0
  6 14  1  0
  7 15  1  0
  7 16  2  0
  8 17  2  0
 18 20  1  0
 10 19  1  0
 19 20  2  0
 13 21  1  0
 18 22  1  0
 15 23  1  0
 15 24  1  0
 22 25  1  0
M  END
>  <IDNUMBER>  (317) 
SB71-0099

>  <available>  (317) 
87

>  <H_acceptor>  (317) 
6

>  <H_donor>  (317) 
0

>  <B_rotN>  (317) 
5

>  <N_O>  (317) 
7

>  <logP>  (317) 
0.0726

>  <logD>  (317) 
0.0726

>  <logSw>  (317) 
-1.6289

>  <PSA>  (317) 
53.989

>  <pKa_ma>  (317) 
25.9791

>  <pKa_mb>  (317) 
-2.791

>  <N_Chirals>  (317) 
0

>  <Name>  (317) 
5-(3-fluoro-4-methoxybenzoyl)-N,N-dimethyl-4,5,6,7-tetrahydropyrazolo[1,5-a]pyrazine-2-carboxamide

>  <Smile>  (317) 
CN(C)C(c1nn(CCN(C2)C(c(cc3)cc(F)c3OC)=O)c2c1)=O

>  <Color>  (317) 
NOT COLORED

>  <Collection>  (317) 
IC

>  <InChI>  (317) 
InChI=1S/C17H19FN4O3/c1-20(2)17(24)14-9-12-10-21(6-7-22(12)19-14)16(23)11-4-5-15(25-3)13(18)8-11/h4-5,8-9H,6-7,10H2,1-3H3

>  <InChI Key>  (317) 
VOEUUTJFGGVTTP-UHFFFAOYSA-N

>  <PERCENTSP3>  (317) 
35.29

>  <Link>  (317) 
https://www.chemdiv.com/catalog/screening-compounds/compound-SB71-0099/

>  <MFCDNUMBER>  (317) 
MFCD32249287

>  <CLNUMBER>  (317) 
CM5543

>  <STEREO>  (317) 
ACHIRAL

>  <State>  (317) 
Solid

>  <Similarity score>  (317) 
0.28

$$$$
N,N-dimethyl-5-(quinoline-8-sulfonyl)-4,5,6,7-tetrahydropyrazolo[1,5-a]pyrazine-
     RDKit          2D

 27 30  0  0  0  0  0  0  0  0999 V2000
    1.4063   -1.1021    0.0000 S   0  0  0  0  0  0  0  0  0  0  0  0
   -2.6771    0.1020    0.0000 C   0  0  0  0  0  0  0  0  0  0  0  0
    0.4063   -1.1021    0.0000 N   0  0  0  0  0  0  0  0  0  0  0  0
   -2.5687   -0.8938    0.0000 N   0  0  0  0  0  0  0  0  0  0  0  0
    2.4062   -1.1021    0.0000 C   0  0  0  0  0  0  0  0  0  0  0  0
   -1.0937   -0.2355    0.0000 C   0  0  0  0  0  0  0  0  0  0  0  0
   -1.5938   -1.1021    0.0000 N   0  0  0  0  0  0  0  0  0  0  0  0
   -1.7604    0.5063    0.0000 C   0  0  0  0  0  0  0  0  0  0  0  0
   -3.5396    0.6021    0.0000 C   0  0  0  0  0  0  0  0  0  0  0  0
   -0.0936   -0.2355    0.0000 C   0  0  0  0  0  0  0  0  0  0  0  0
    2.9063   -0.2355    0.0000 C   0  0  0  0  0  0  0  0  0  0  0  0
   -0.0936   -1.9688    0.0000 C   0  0  0  0  0  0  0  0  0  0  0  0
   -1.0937   -1.9688    0.0000 C   0  0  0  0  0  0  0  0  0  0  0  0
    1.4063   -0.1020    0.0000 O   0  0  0  0  0  0  0  0  0  0  0  0
    1.4063   -2.1021    0.0000 O   0  0  0  0  0  0  0  0  0  0  0  0
   -3.5396    1.6022    0.0000 N   0  0  0  0  0  0  0  0  0  0  0  0
    2.4062    0.6312    0.0000 N   0  0  0  0  0  0  0  0  0  0  0  0
   -4.4063    0.1020    0.0000 O   0  0  0  0  0  0  0  0  0  0  0  0
    3.9064   -0.2355    0.0000 C   0  0  0  0  0  0  0  0  0  0  0  0
    2.9063   -1.9688    0.0000 C   0  0  0  0  0  0  0  0  0  0  0  0
    3.9064   -1.9688    0.0000 C   0  0  0  0  0  0  0  0  0  0  0  0
    2.9063    1.4980    0.0000 C   0  0  0  0  0  0  0  0  0  0  0  0
   -2.6771    2.1021    0.0000 C   0  0  0  0  0  0  0  0  0  0  0  0
   -4.4063    2.1021    0.0000 C   0  0  0  0  0  0  0  0  0  0  0  0
    4.4063   -1.1021    0.0000 C   0  0  0  0  0  0  0  0  0  0  0  0
    4.4063    0.6312    0.0000 C   0  0  0  0  0  0  0  0  0  0  0  0
    3.9064    1.4980    0.0000 C   0  0  0  0  0  0  0  0  0  0  0  0
  2  8  1  0
  2  4  2  0
  1  3  1  0
  4  7  1  0
  1  5  1  0
  6 10  1  0
  6  7  1  0
  7 13  1  0
  6  8  2  0
  2  9  1  0
  3 10  1  0
  5 11  2  0
  3 12  1  0
 12 13  1  0
  1 14  2  0
  1 15  2  0
  9 16  1  0
 11 17  1  0
  9 18  2  0
 11 19  1  0
  5 20  1  0
 20 21  2  0
 17 22  2  0
 16 23  1  0
 16 24  1  0
 21 25  1  0
 19 25  2  0
 19 26  1  0
 26 27  2  0
 22 27  1  0
M  END
>  <IDNUMBER>  (318) 
SB71-0012

>  <available>  (318) 
49

>  <H_acceptor>  (318) 
9

>  <H_donor>  (318) 
0

>  <B_rotN>  (318) 
4

>  <N_O>  (318) 
8

>  <logP>  (318) 
0.0151

>  <logD>  (318) 
0.0151

>  <logSw>  (318) 
-2.2109

>  <PSA>  (318) 
70.954

>  <pKa_ma>  (318) 
26.1583

>  <pKa_mb>  (318) 
-1.0439

>  <N_Chirals>  (318) 
0

>  <Name>  (318) 
N,N-dimethyl-5-(quinoline-8-sulfonyl)-4,5,6,7-tetrahydropyrazolo[1,5-a]pyrazine-2-carboxamide

>  <Smile>  (318) 
CN(C)C(c1nn(CCN(C2)S(c3cccc4cccnc34)(=O)=O)c2c1)=O

>  <Color>  (318) 
NOT COLORED

>  <Collection>  (318) 
IC

>  <InChI>  (318) 
InChI=1S/C18H19N5O3S/c1-21(2)18(24)15-11-14-12-22(9-10-23(14)20-15)27(25,26)16-7-3-5-13-6-4-8-19-17(13)16/h3-8,11H,9-10,12H2,1-2H3

>  <InChI Key>  (318) 
QEFTWXALMPTCDU-UHFFFAOYSA-N

>  <PERCENTSP3>  (318) 
27.78

>  <Link>  (318) 
https://www.chemdiv.com/catalog/screening-compounds/compound-SB71-0012/

>  <MFCDNUMBER>  (318) 
MFCD32249626

>  <CLNUMBER>  (318) 
CM5543

>  <STEREO>  (318) 
ACHIRAL

>  <State>  (318) 
Solid

>  <Similarity score>  (318) 
0.28

$$$$
5-[(5-methoxy-1H-indol-3-yl)methyl]-N-(propan-2-yl)-4,5,6,7-tetrahydropyrazolo[1
     RDKit          2D

 27 30  0  0  0  0  0  0  0  0999 V2000
    1.2144    0.2770    0.0000 C   0  0  0  0  0  0  0  0  0  0  0  0
    1.3186   -0.7187    0.0000 N   0  0  0  0  0  0  0  0  0  0  0  0
    0.4021   -1.1228    0.0000 N   0  0  0  0  0  0  0  0  0  0  0  0
   -0.2646   -0.3814    0.0000 C   0  0  0  0  0  0  0  0  0  0  0  0
    0.2353    0.4852    0.0000 C   0  0  0  0  0  0  0  0  0  0  0  0
   -3.1976   -1.0062    0.0000 C   0  0  0  0  0  0  0  0  0  0  0  0
    1.9561    0.9435    0.0000 C   0  0  0  0  0  0  0  0  0  0  0  0
   -2.9933   -0.0272    0.0000 C   0  0  0  0  0  0  0  0  0  0  0  0
   -4.6016   -0.1980    0.0000 N   0  0  0  0  0  0  0  0  0  0  0  0
   -4.1933   -1.1103    0.0000 C   0  0  0  0  0  0  0  0  0  0  0  0
   -1.5519   -1.5395    0.0000 N   0  0  0  0  0  0  0  0  0  0  0  0
   -1.2436   -0.5896    0.0000 C   0  0  0  0  0  0  0  0  0  0  0  0
   -2.5310   -1.7479    0.0000 C   0  0  0  0  0  0  0  0  0  0  0  0
   -3.8558    0.4727    0.0000 C   0  0  0  0  0  0  0  0  0  0  0  0
    2.9059    0.6353    0.0000 N   0  0  0  0  0  0  0  0  0  0  0  0
    0.0938   -2.0769    0.0000 C   0  0  0  0  0  0  0  0  0  0  0  0
   -2.1268    0.4727    0.0000 C   0  0  0  0  0  0  0  0  0  0  0  0
    1.7477    1.9226    0.0000 O   0  0  0  0  0  0  0  0  0  0  0  0
   -0.8811   -2.2851    0.0000 C   0  0  0  0  0  0  0  0  0  0  0  0
   -3.8558    1.4728    0.0000 C   0  0  0  0  0  0  0  0  0  0  0  0
   -2.1268    1.4728    0.0000 C   0  0  0  0  0  0  0  0  0  0  0  0
   -2.9933    1.9726    0.0000 C   0  0  0  0  0  0  0  0  0  0  0  0
    3.6516    1.3060    0.0000 C   0  0  0  0  0  0  0  0  0  0  0  0
   -1.2602    1.9726    0.0000 O   0  0  0  0  0  0  0  0  0  0  0  0
   -0.3937    1.4728    0.0000 C   0  0  0  0  0  0  0  0  0  0  0  0
    4.6016    0.9977    0.0000 C   0  0  0  0  0  0  0  0  0  0  0  0
    3.4434    2.2851    0.0000 C   0  0  0  0  0  0  0  0  0  0  0  0
  1  2  2  0
  2  3  1  0
  4  5  2  0
  3  4  1  0
  1  5  1  0
  6 13  1  0
  1  7  1  0
  6  8  1  0
  9 10  1  0
  6 10  2  0
 11 12  1  0
  4 12  1  0
 11 13  1  0
  8 14  2  0
  9 14  1  0
  7 15  1  0
  3 16  1  0
  8 17  1  0
  7 18  2  0
 16 19  1  0
 11 19  1  0
 14 20  1  0
 20 22  2  0
 17 21  2  0
 21 22  1  0
 15 23  1  0
 21 24  1  0
 24 25  1  0
 23 26  1  0
 23 27  1  0
M  END
>  <IDNUMBER>  (319) 
SB71-0618

>  <available>  (319) 
10

>  <H_acceptor>  (319) 
5

>  <H_donor>  (319) 
2

>  <B_rotN>  (319) 
6

>  <N_O>  (319) 
7

>  <logP>  (319) 
1.8615

>  <logD>  (319) 
1.6327

>  <logSw>  (319) 
-2.5773

>  <PSA>  (319) 
58.515

>  <pKa_ma>  (319) 
14.8713

>  <pKa_mb>  (319) 
7.241

>  <N_Chirals>  (319) 
0

>  <Name>  (319) 
5-[(5-methoxy-1H-indol-3-yl)methyl]-N-(propan-2-yl)-4,5,6,7-tetrahydropyrazolo[1,5-a]pyrazine-2-carboxamide

>  <Smile>  (319) 
CC(C)NC(c1nn(CCN(Cc2c[nH]c(cc3)c2cc3OC)C2)c2c1)=O

>  <Color>  (319) 
BROWN

>  <Collection>  (319) 
IC

>  <InChI>  (319) 
InChI=1S/C20H25N5O2/c1-13(2)22-20(26)19-8-15-12-24(6-7-25(15)23-19)11-14-10-21-18-5-4-16(27-3)9-17(14)18/h4-5,8-10,13,21H,6-7,11-12H2,1-3H3,(H,22,26)

>  <InChI Key>  (319) 
ZQQGDISQWMCCFW-UHFFFAOYSA-N

>  <PERCENTSP3>  (319) 
40

>  <Link>  (319) 
https://www.chemdiv.com/catalog/screening-compounds/compound-SB71-0618/

>  <MFCDNUMBER>  (319) 
MFCD32249304

>  <CLNUMBER>  (319) 
CM5543

>  <STEREO>  (319) 
ACHIRAL

>  <State>  (319) 
Solid

>  <Similarity score>  (319) 
0.28

$$$$
5-cyclohexyl-N,N-dimethyl-4,5,6,7-tetrahydropyrazolo[1,5-a]pyrazine-2-carboxamid
     RDKit          2D

 20 22  0  0  0  0  0  0  0  0999 V2000
    1.6854   -0.3855    0.0000 C   0  0  0  0  0  0  0  0  0  0  0  0
    1.0979   -1.1938    0.0000 N   0  0  0  0  0  0  0  0  0  0  0  0
    0.1437    0.1146    0.0000 C   0  0  0  0  0  0  0  0  0  0  0  0
    0.1437   -0.8854    0.0000 N   0  0  0  0  0  0  0  0  0  0  0  0
    1.0979    0.4229    0.0000 C   0  0  0  0  0  0  0  0  0  0  0  0
    2.6854   -0.3855    0.0000 C   0  0  0  0  0  0  0  0  0  0  0  0
   -1.5854    0.1146    0.0000 N   0  0  0  0  0  0  0  0  0  0  0  0
   -0.7187    0.6147    0.0000 C   0  0  0  0  0  0  0  0  0  0  0  0
   -0.7187   -1.3854    0.0000 C   0  0  0  0  0  0  0  0  0  0  0  0
    3.1854   -1.2479    0.0000 N   0  0  0  0  0  0  0  0  0  0  0  0
   -1.5854   -0.8854    0.0000 C   0  0  0  0  0  0  0  0  0  0  0  0
    3.1854    0.4812    0.0000 O   0  0  0  0  0  0  0  0  0  0  0  0
   -2.4520    0.6147    0.0000 C   0  0  0  0  0  0  0  0  0  0  0  0
    2.6854   -2.1146    0.0000 C   0  0  0  0  0  0  0  0  0  0  0  0
    4.1855   -1.2479    0.0000 C   0  0  0  0  0  0  0  0  0  0  0  0
   -2.4520    1.6145    0.0000 C   0  0  0  0  0  0  0  0  0  0  0  0
   -3.3188    0.1146    0.0000 C   0  0  0  0  0  0  0  0  0  0  0  0
   -4.1855    0.6147    0.0000 C   0  0  0  0  0  0  0  0  0  0  0  0
   -3.3188    2.1146    0.0000 C   0  0  0  0  0  0  0  0  0  0  0  0
   -4.1855    1.6145    0.0000 C   0  0  0  0  0  0  0  0  0  0  0  0
  1  2  2  0
  3  5  2  0
  3  4  1  0
  2  4  1  0
  1  5  1  0
  1  6  1  0
  7  8  1  0
  3  8  1  0
  4  9  1  0
  6 10  1  0
  9 11  1  0
  7 11  1  0
  6 12  2  0
  7 13  1  0
 10 14  1  0
 10 15  1  0
 13 16  1  0
 13 17  1  0
 17 18  1  0
 16 19  1  0
 18 20  1  0
 19 20  1  0
M  END
>  <IDNUMBER>  (320) 
SB71-0061

>  <available>  (320) 
18

>  <H_acceptor>  (320) 
4

>  <H_donor>  (320) 
0

>  <B_rotN>  (320) 
3

>  <N_O>  (320) 
5

>  <logP>  (320) 
0.7883

>  <logD>  (320) 
0.564

>  <logSw>  (320) 
-0.868

>  <PSA>  (320) 
32.995

>  <pKa_ma>  (320) 
27.6275

>  <pKa_mb>  (320) 
7.2301

>  <N_Chirals>  (320) 
0

>  <Name>  (320) 
5-cyclohexyl-N,N-dimethyl-4,5,6,7-tetrahydropyrazolo[1,5-a]pyrazine-2-carboxamide

>  <Smile>  (320) 
CN(C)C(c1nn(CCN(C2)C3CCCCC3)c2c1)=O

>  <Color>  (320) 
ORANGE

>  <Collection>  (320) 
IC

>  <InChI>  (320) 
InChI=1S/C15H24N4O/c1-17(2)15(20)14-10-13-11-18(8-9-19(13)16-14)12-6-4-3-5-7-12/h10,12H,3-9,11H2,1-2H3

>  <InChI Key>  (320) 
UVCRNWKEVNIYJH-UHFFFAOYSA-N

>  <PERCENTSP3>  (320) 
73.33

>  <Link>  (320) 
https://www.chemdiv.com/catalog/screening-compounds/compound-SB71-0061/

>  <MFCDNUMBER>  (320) 
MFCD32249221

>  <CLNUMBER>  (320) 
CM5543

>  <STEREO>  (320) 
ACHIRAL

>  <State>  (320) 
Solid

>  <Similarity score>  (320) 
0.28

$$$$
(pyrrolidin-1-yl)[5-(5,6,7,8-tetrahydronaphthalene-2-sulfonyl)-4,5,6,7-tetrahydr
     RDKit          2D

 29 33  0  0  0  0  0  0  0  0999 V2000
   -0.6566   -1.6193    0.0000 S   0  0  0  0  0  0  0  0  0  0  0  0
    3.4284   -0.4190    0.0000 C   0  0  0  0  0  0  0  0  0  0  0  0
    3.3241   -1.4152    0.0000 N   0  0  0  0  0  0  0  0  0  0  0  0
    0.3438   -1.6193    0.0000 N   0  0  0  0  0  0  0  0  0  0  0  0
    1.8444   -0.7567    0.0000 C   0  0  0  0  0  0  0  0  0  0  0  0
    2.3447   -1.6193    0.0000 N   0  0  0  0  0  0  0  0  0  0  0  0
    2.5112   -0.0102    0.0000 C   0  0  0  0  0  0  0  0  0  0  0  0
    4.2913    0.0814    0.0000 C   0  0  0  0  0  0  0  0  0  0  0  0
    0.8440   -0.7567    0.0000 C   0  0  0  0  0  0  0  0  0  0  0  0
   -1.6570   -1.6193    0.0000 C   0  0  0  0  0  0  0  0  0  0  0  0
    4.2913    1.0817    0.0000 N   0  0  0  0  0  0  0  0  0  0  0  0
    0.8440   -2.4862    0.0000 C   0  0  0  0  0  0  0  0  0  0  0  0
    1.8444   -2.4862    0.0000 C   0  0  0  0  0  0  0  0  0  0  0  0
   -2.1572   -0.7567    0.0000 C   0  0  0  0  0  0  0  0  0  0  0  0
   -0.6566   -0.6230    0.0000 O   0  0  0  0  0  0  0  0  0  0  0  0
   -0.6566   -2.6198    0.0000 O   0  0  0  0  0  0  0  0  0  0  0  0
   -3.1576   -0.7567    0.0000 C   0  0  0  0  0  0  0  0  0  0  0  0
    5.1584   -0.4190    0.0000 O   0  0  0  0  0  0  0  0  0  0  0  0
   -3.6579   -1.6193    0.0000 C   0  0  0  0  0  0  0  0  0  0  0  0
   -2.1572   -2.4862    0.0000 C   0  0  0  0  0  0  0  0  0  0  0  0
   -3.1576   -2.4862    0.0000 C   0  0  0  0  0  0  0  0  0  0  0  0
    3.4827    1.6694    0.0000 C   0  0  0  0  0  0  0  0  0  0  0  0
    5.1041    1.6694    0.0000 C   0  0  0  0  0  0  0  0  0  0  0  0
   -3.6579    0.1104    0.0000 C   0  0  0  0  0  0  0  0  0  0  0  0
   -4.6582   -1.6193    0.0000 C   0  0  0  0  0  0  0  0  0  0  0  0
    4.7915    2.6198    0.0000 C   0  0  0  0  0  0  0  0  0  0  0  0
    3.7911    2.6198    0.0000 C   0  0  0  0  0  0  0  0  0  0  0  0
   -4.6582    0.1104    0.0000 C   0  0  0  0  0  0  0  0  0  0  0  0
   -5.1584   -0.7567    0.0000 C   0  0  0  0  0  0  0  0  0  0  0  0
  2  7  1  0
  2  3  2  0
  3  6  1  0
  1  4  1  0
  5  9  1  0
  5  6  1  0
  6 13  1  0
  5  7  2  0
  2  8  1  0
  4  9  1  0
  1 10  1  0
  8 11  1  0
  4 12  1  0
 12 13  1  0
 10 14  2  0
  1 15  2  0
  1 16  2  0
 14 17  1  0
 17 19  2  0
  8 18  2  0
 19 21  1  0
 10 20  1  0
 20 21  2  0
 11 22  1  0
 11 23  1  0
 17 24  1  0
 19 25  1  0
 23 26  1  0
 22 27  1  0
 26 27  1  0
 24 28  1  0
 25 29  1  0
 28 29  1  0
M  END
>  <IDNUMBER>  (321) 
SB71-0966

>  <available>  (321) 
144

>  <H_acceptor>  (321) 
8

>  <H_donor>  (321) 
0

>  <B_rotN>  (321) 
4

>  <N_O>  (321) 
7

>  <logP>  (321) 
2.8199

>  <logD>  (321) 
2.8199

>  <logSw>  (321) 
-3.3036

>  <PSA>  (321) 
62.355

>  <pKa_ma>  (321) 
25.4764

>  <pKa_mb>  (321) 
-3.592

>  <N_Chirals>  (321) 
0

>  <Name>  (321) 
(pyrrolidin-1-yl)[5-(5,6,7,8-tetrahydronaphthalene-2-sulfonyl)-4,5,6,7-tetrahydropyrazolo[1,5-a]pyrazin-2-yl]methanone

>  <Smile>  (321) 
O=C(c1nn(CCN(C2)S(c3cc(CCCC4)c4cc3)(=O)=O)c2c1)N1CCCC1

>  <Color>  (321) 
YELLOW

>  <Collection>  (321) 
IC

>  <InChI>  (321) 
InChI=1S/C21H26N4O3S/c26-21(23-9-3-4-10-23)20-14-18-15-24(11-12-25(18)22-20)29(27,28)19-8-7-16-5-1-2-6-17(16)13-19/h7-8,13-14H,1-6,9-12,15H2

>  <InChI Key>  (321) 
GOBVLYHAEKXRME-UHFFFAOYSA-N

>  <PERCENTSP3>  (321) 
52.38

>  <Link>  (321) 
https://www.chemdiv.com/catalog/screening-compounds/compound-SB71-0966/

>  <MFCDNUMBER>  (321) 
MFCD32249462

>  <CLNUMBER>  (321) 
CM5543

>  <STEREO>  (321) 
ACHIRAL

>  <State>  (321) 
Solid

>  <Similarity score>  (321) 
0.27

$$$$
(3,4-dihydroisoquinolin-2(1H)-yl){5-[(1-methyl-1H-pyrazol-4-yl)methyl]-4,5,6,7-t
     RDKit          2D

 28 32  0  0  0  0  0  0  0  0999 V2000
   -0.7518   -0.2852    0.0000 C   0  0  0  0  0  0  0  0  0  0  0  0
   -0.6477    0.7102    0.0000 N   0  0  0  0  0  0  0  0  0  0  0  0
    0.3311    0.9185    0.0000 N   0  0  0  0  0  0  0  0  0  0  0  0
    0.8311    0.0520    0.0000 C   0  0  0  0  0  0  0  0  0  0  0  0
    0.1604   -0.6892    0.0000 C   0  0  0  0  0  0  0  0  0  0  0  0
   -1.6180   -0.7850    0.0000 C   0  0  0  0  0  0  0  0  0  0  0  0
   -2.4804   -0.2852    0.0000 N   0  0  0  0  0  0  0  0  0  0  0  0
    3.8301    0.0520    0.0000 C   0  0  0  0  0  0  0  0  0  0  0  0
    4.1673   -1.5307    0.0000 N   0  0  0  0  0  0  0  0  0  0  0  0
    5.0338   -1.0309    0.0000 N   0  0  0  0  0  0  0  0  0  0  0  0
    2.3306    0.9185    0.0000 N   0  0  0  0  0  0  0  0  0  0  0  0
    4.8257   -0.0520    0.0000 C   0  0  0  0  0  0  0  0  0  0  0  0
   -3.3468   -0.7850    0.0000 C   0  0  0  0  0  0  0  0  0  0  0  0
    1.8308    0.0520    0.0000 C   0  0  0  0  0  0  0  0  0  0  0  0
    3.4219   -0.8599    0.0000 C   0  0  0  0  0  0  0  0  0  0  0  0
    0.8311    1.7849    0.0000 C   0  0  0  0  0  0  0  0  0  0  0  0
   -4.2132   -0.2852    0.0000 C   0  0  0  0  0  0  0  0  0  0  0  0
    3.3303    0.9185    0.0000 C   0  0  0  0  0  0  0  0  0  0  0  0
   -2.4804    0.7144    0.0000 C   0  0  0  0  0  0  0  0  0  0  0  0
   -1.6180   -1.7849    0.0000 O   0  0  0  0  0  0  0  0  0  0  0  0
   -4.2132    0.7144    0.0000 C   0  0  0  0  0  0  0  0  0  0  0  0
    1.8308    1.7849    0.0000 C   0  0  0  0  0  0  0  0  0  0  0  0
   -3.3468    1.2143    0.0000 C   0  0  0  0  0  0  0  0  0  0  0  0
    5.9459   -1.4391    0.0000 C   0  0  0  0  0  0  0  0  0  0  0  0
   -5.0795   -0.7850    0.0000 C   0  0  0  0  0  0  0  0  0  0  0  0
   -5.0795    1.2143    0.0000 C   0  0  0  0  0  0  0  0  0  0  0  0
   -5.9459   -0.2852    0.0000 C   0  0  0  0  0  0  0  0  0  0  0  0
   -5.9459    0.7144    0.0000 C   0  0  0  0  0  0  0  0  0  0  0  0
  1  2  2  0
  2  3  1  0
  4  5  2  0
  3  4  1  0
  1  5  1  0
  1  6  1  0
  6  7  1  0
  8 18  1  0
  9 15  2  0
  9 10  1  0
 10 12  1  0
 11 14  1  0
  8 12  2  0
  7 13  1  0
  4 14  1  0
  8 15  1  0
  3 16  1  0
 13 17  1  0
 11 18  1  0
  7 19  1  0
  6 20  2  0
 21 23  1  0
 17 21  2  0
 16 22  1  0
 11 22  1  0
 19 23  1  0
 10 24  1  0
 17 25  1  0
 21 26  1  0
 25 27  2  0
 26 28  2  0
 27 28  1  0
M  END
>  <IDNUMBER>  (322) 
SB71-0486

>  <available>  (322) 
50

>  <H_acceptor>  (322) 
5

>  <H_donor>  (322) 
0

>  <B_rotN>  (322) 
4

>  <N_O>  (322) 
7

>  <logP>  (322) 
1.0196

>  <logD>  (322) 
-1.6409

>  <logSw>  (322) 
-1.9406

>  <PSA>  (322) 
48.561

>  <pKa_ma>  (322) 
24.5979

>  <pKa_mb>  (322) 
10.0595

>  <N_Chirals>  (322) 
0

>  <Name>  (322) 
(3,4-dihydroisoquinolin-2(1H)-yl){5-[(1-methyl-1H-pyrazol-4-yl)methyl]-4,5,6,7-tetrahydropyrazolo[1,5-a]pyrazin-2-yl}methanone

>  <Smile>  (322) 
Cn1ncc(CN2Cc3cc(C(N(CC4)Cc5c4cccc5)=O)nn3CC2)c1

>  <Color>  (322) 
YELLOW

>  <Collection>  (322) 
IC

>  <InChI>  (322) 
InChI=1S/C21H24N6O/c1-24-12-16(11-22-24)13-25-8-9-27-19(15-25)10-20(23-27)21(28)26-7-6-17-4-2-3-5-18(17)14-26/h2-5,10-12H,6-9,13-15H2,1H3

>  <InChI Key>  (322) 
KCBNNECTERGJIS-UHFFFAOYSA-N

>  <PERCENTSP3>  (322) 
38.1

>  <Link>  (322) 
https://www.chemdiv.com/catalog/screening-compounds/compound-SB71-0486/

>  <MFCDNUMBER>  (322) 
MFCD32249238

>  <CLNUMBER>  (322) 
CM5543

>  <STEREO>  (322) 
ACHIRAL

>  <State>  (322) 
Solid

>  <Similarity score>  (322) 
0.27

$$$$
(3,4-dihydroisoquinolin-2(1H)-yl){5-[(1-ethyl-3,5-dimethyl-1H-pyrazol-4-yl)methy
     RDKit          2D

 31 35  0  0  0  0  0  0  0  0999 V2000
    1.1543   -0.2856    0.0000 C   0  0  0  0  0  0  0  0  0  0  0  0
   -3.4298    0.0522    0.0000 C   0  0  0  0  0  0  0  0  0  0  0  0
    1.0501    0.7105    0.0000 N   0  0  0  0  0  0  0  0  0  0  0  0
   -3.7674   -1.5316    0.0000 N   0  0  0  0  0  0  0  0  0  0  0  0
    0.0709    0.9187    0.0000 N   0  0  0  0  0  0  0  0  0  0  0  0
   -0.4293    0.0522    0.0000 C   0  0  0  0  0  0  0  0  0  0  0  0
   -4.6299   -1.0315    0.0000 N   0  0  0  0  0  0  0  0  0  0  0  0
   -4.4257   -0.0522    0.0000 C   0  0  0  0  0  0  0  0  0  0  0  0
    0.2417   -0.6899    0.0000 C   0  0  0  0  0  0  0  0  0  0  0  0
    2.0212   -0.7854    0.0000 C   0  0  0  0  0  0  0  0  0  0  0  0
    2.8880   -0.2856    0.0000 N   0  0  0  0  0  0  0  0  0  0  0  0
   -3.0213   -0.8606    0.0000 C   0  0  0  0  0  0  0  0  0  0  0  0
   -1.9295    0.9187    0.0000 N   0  0  0  0  0  0  0  0  0  0  0  0
   -2.9296    0.9187    0.0000 C   0  0  0  0  0  0  0  0  0  0  0  0
    3.7549   -0.7854    0.0000 C   0  0  0  0  0  0  0  0  0  0  0  0
   -1.4294    0.0522    0.0000 C   0  0  0  0  0  0  0  0  0  0  0  0
   -0.4293    1.7856    0.0000 C   0  0  0  0  0  0  0  0  0  0  0  0
    4.6174   -0.2856    0.0000 C   0  0  0  0  0  0  0  0  0  0  0  0
    2.8880    0.7149    0.0000 C   0  0  0  0  0  0  0  0  0  0  0  0
    2.0212   -1.7856    0.0000 O   0  0  0  0  0  0  0  0  0  0  0  0
    4.6174    0.7149    0.0000 C   0  0  0  0  0  0  0  0  0  0  0  0
   -1.4294    1.7856    0.0000 C   0  0  0  0  0  0  0  0  0  0  0  0
    3.7549    1.2146    0.0000 C   0  0  0  0  0  0  0  0  0  0  0  0
   -5.5467   -1.4355    0.0000 C   0  0  0  0  0  0  0  0  0  0  0  0
   -5.0926    0.6899    0.0000 C   0  0  0  0  0  0  0  0  0  0  0  0
   -2.0462   -1.0688    0.0000 C   0  0  0  0  0  0  0  0  0  0  0  0
    5.4842   -0.7854    0.0000 C   0  0  0  0  0  0  0  0  0  0  0  0
    5.4842    1.2146    0.0000 C   0  0  0  0  0  0  0  0  0  0  0  0
   -6.3511   -0.8481    0.0000 C   0  0  0  0  0  0  0  0  0  0  0  0
    6.3511   -0.2856    0.0000 C   0  0  0  0  0  0  0  0  0  0  0  0
    6.3511    0.7149    0.0000 C   0  0  0  0  0  0  0  0  0  0  0  0
  2 14  1  0
  1  3  2  0
  4 12  2  0
  3  5  1  0
  6  9  2  0
  5  6  1  0
  7  8  1  0
  4  7  1  0
  2  8  2  0
  1  9  1  0
  1 10  1  0
 10 11  1  0
  2 12  1  0
 13 16  1  0
 13 14  1  0
 11 15  1  0
  6 16  1  0
  5 17  1  0
 15 18  1  0
 11 19  1  0
 10 20  2  0
 21 23  1  0
 18 21  2  0
 17 22  1  0
 13 22  1  0
 19 23  1  0
  7 24  1  0
  8 25  1  0
 12 26  1  0
 18 27  1  0
 21 28  1  0
 24 29  1  0
 27 30  2  0
 28 31  2  0
 30 31  1  0
M  END
>  <IDNUMBER>  (323) 
SB71-0483

>  <available>  (323) 
88

>  <H_acceptor>  (323) 
5

>  <H_donor>  (323) 
0

>  <B_rotN>  (323) 
5

>  <N_O>  (323) 
7

>  <logP>  (323) 
1.9863

>  <logD>  (323) 
-0.9585

>  <logSw>  (323) 
-2.3142

>  <PSA>  (323) 
48.03

>  <pKa_ma>  (323) 
23.8661

>  <pKa_mb>  (323) 
10.3443

>  <N_Chirals>  (323) 
0

>  <Name>  (323) 
(3,4-dihydroisoquinolin-2(1H)-yl){5-[(1-ethyl-3,5-dimethyl-1H-pyrazol-4-yl)methyl]-4,5,6,7-tetrahydropyrazolo[1,5-a]pyrazin-2-yl}methanone

>  <Smile>  (323) 
CCn1nc(C)c(CN2Cc3cc(C(N(CC4)Cc5c4cccc5)=O)nn3CC2)c1C

>  <Color>  (323) 
YELLOW

>  <Collection>  (323) 
IC

>  <InChI>  (323) 
InChI=1S/C24H30N6O/c1-4-29-18(3)22(17(2)25-29)16-27-11-12-30-21(15-27)13-23(26-30)24(31)28-10-9-19-7-5-6-8-20(19)14-28/h5-8,13H,4,9-12,14-16H2,1-3H3

>  <InChI Key>  (323) 
OFJUWOLVZXBRCT-UHFFFAOYSA-N

>  <PERCENTSP3>  (323) 
45.83

>  <Link>  (323) 
https://www.chemdiv.com/catalog/screening-compounds/compound-SB71-0483/

>  <MFCDNUMBER>  (323) 
MFCD32249236

>  <CLNUMBER>  (323) 
CM5543

>  <STEREO>  (323) 
ACHIRAL

>  <State>  (323) 
Solid

>  <Similarity score>  (323) 
0.27

$$$$
(5-{[3-(3-methoxyphenyl)-1H-pyrazol-4-yl]methyl}-4,5,6,7-tetrahydropyrazolo[1,5-
     RDKit          2D

 31 35  0  0  0  0  0  0  0  0999 V2000
    2.2153   -1.4315    0.0000 C   0  0  0  0  0  0  0  0  0  0  0  0
    2.1110   -0.4355    0.0000 N   0  0  0  0  0  0  0  0  0  0  0  0
    1.1316   -0.2312    0.0000 N   0  0  0  0  0  0  0  0  0  0  0  0
    0.6314   -1.0940    0.0000 C   0  0  0  0  0  0  0  0  0  0  0  0
   -2.3693   -1.0940    0.0000 C   0  0  0  0  0  0  0  0  0  0  0  0
    1.3025   -1.8400    0.0000 C   0  0  0  0  0  0  0  0  0  0  0  0
    3.0822   -1.9317    0.0000 C   0  0  0  0  0  0  0  0  0  0  0  0
   -3.3611   -1.1982    0.0000 C   0  0  0  0  0  0  0  0  0  0  0  0
   -3.5694   -2.1775    0.0000 N   0  0  0  0  0  0  0  0  0  0  0  0
   -0.8690   -0.2312    0.0000 N   0  0  0  0  0  0  0  0  0  0  0  0
    3.9488   -1.4315    0.0000 N   0  0  0  0  0  0  0  0  0  0  0  0
   -2.7068   -2.6777    0.0000 N   0  0  0  0  0  0  0  0  0  0  0  0
   -4.0321   -0.4562    0.0000 C   0  0  0  0  0  0  0  0  0  0  0  0
   -1.8691   -0.2312    0.0000 C   0  0  0  0  0  0  0  0  0  0  0  0
   -0.3687   -1.0940    0.0000 C   0  0  0  0  0  0  0  0  0  0  0  0
   -1.9608   -2.0107    0.0000 C   0  0  0  0  0  0  0  0  0  0  0  0
    0.6314    0.6356    0.0000 C   0  0  0  0  0  0  0  0  0  0  0  0
    3.0822   -2.9320    0.0000 O   0  0  0  0  0  0  0  0  0  0  0  0
   -3.7238    0.4938    0.0000 C   0  0  0  0  0  0  0  0  0  0  0  0
   -0.3687    0.6356    0.0000 C   0  0  0  0  0  0  0  0  0  0  0  0
    5.6784   -0.4314    0.0000 O   0  0  0  0  0  0  0  0  0  0  0  0
   -4.3905    1.2358    0.0000 C   0  0  0  0  0  0  0  0  0  0  0  0
    4.8157   -1.9317    0.0000 C   0  0  0  0  0  0  0  0  0  0  0  0
    3.9488   -0.4314    0.0000 C   0  0  0  0  0  0  0  0  0  0  0  0
   -5.0114   -0.6647    0.0000 C   0  0  0  0  0  0  0  0  0  0  0  0
   -4.0821    2.1901    0.0000 O   0  0  0  0  0  0  0  0  0  0  0  0
   -5.6784    0.0770    0.0000 C   0  0  0  0  0  0  0  0  0  0  0  0
    5.6784   -1.4315    0.0000 C   0  0  0  0  0  0  0  0  0  0  0  0
    4.8157    0.0689    0.0000 C   0  0  0  0  0  0  0  0  0  0  0  0
   -5.3699    1.0315    0.0000 C   0  0  0  0  0  0  0  0  0  0  0  0
   -4.7532    2.9320    0.0000 C   0  0  0  0  0  0  0  0  0  0  0  0
  1  2  2  0
  2  3  1  0
  4  6  2  0
  3  4  1  0
  5 14  1  0
  1  6  1  0
  1  7  1  0
  5  8  1  0
  8  9  2  0
  9 12  1  0
 10 15  1  0
  7 11  1  0
 12 16  1  0
  8 13  1  0
 10 14  1  0
  4 15  1  0
  5 16  2  0
  3 17  1  0
  7 18  2  0
 13 19  2  0
 17 20  1  0
 10 20  1  0
 21 29  1  0
 21 28  1  0
 19 22  1  0
 11 23  1  0
 11 24  1  0
 13 25  1  0
 22 26  1  0
 25 27  2  0
 23 28  1  0
 24 29  1  0
 27 30  1  0
 22 30  2  0
 26 31  1  0
M  END
>  <IDNUMBER>  (324) 
SB71-0204

>  <available>  (324) 
124

>  <H_acceptor>  (324) 
7

>  <H_donor>  (324) 
1

>  <B_rotN>  (324) 
6

>  <N_O>  (324) 
9

>  <logP>  (324) 
1.1732

>  <logD>  (324) 
0.7363

>  <logSw>  (324) 
-2.2074

>  <PSA>  (324) 
73.732

>  <pKa_ma>  (324) 
11.9692

>  <pKa_mb>  (324) 
7.6393

>  <N_Chirals>  (324) 
0

>  <Name>  (324) 
(5-{[3-(3-methoxyphenyl)-1H-pyrazol-4-yl]methyl}-4,5,6,7-tetrahydropyrazolo[1,5-a]pyrazin-2-yl)(morpholin-4-yl)methanone

>  <Smile>  (324) 
COc1cccc(-c2n[nH]cc2CN2Cc3cc(C(N4CCOCC4)=O)nn3CC2)c1

>  <Color>  (324) 
YELLOW

>  <Collection>  (324) 
IC

>  <InChI>  (324) 
InChI=1S/C22H26N6O3/c1-30-19-4-2-3-16(11-19)21-17(13-23-24-21)14-26-5-6-28-18(15-26)12-20(25-28)22(29)27-7-9-31-10-8-27/h2-4,11-13H,5-10,14-15H2,1H3,(H,23,24)

>  <InChI Key>  (324) 
BIZYPYUBCRTFKM-UHFFFAOYSA-N

>  <PERCENTSP3>  (324) 
40.91

>  <Link>  (324) 
https://www.chemdiv.com/catalog/screening-compounds/compound-SB71-0204/

>  <MFCDNUMBER>  (324) 
MFCD32249565

>  <CLNUMBER>  (324) 
CM5543

>  <STEREO>  (324) 
ACHIRAL

>  <State>  (324) 
Oil

>  <Similarity score>  (324) 
0.27

$$$$
(3,4-dihydroisoquinolin-2(1H)-yl){5-[(3,5-dimethyl-1,2-oxazol-4-yl)methyl]-4,5,6
     RDKit          2D

 29 33  0  0  0  0  0  0  0  0999 V2000
   -0.5271   -0.2854    0.0000 C   0  0  0  0  0  0  0  0  0  0  0  0
   -0.4188    0.7104    0.0000 N   0  0  0  0  0  0  0  0  0  0  0  0
    0.5561    0.9186    0.0000 N   0  0  0  0  0  0  0  0  0  0  0  0
    4.0557    0.0520    0.0000 C   0  0  0  0  0  0  0  0  0  0  0  0
    1.0561    0.0520    0.0000 C   0  0  0  0  0  0  0  0  0  0  0  0
    0.3895   -0.6895    0.0000 C   0  0  0  0  0  0  0  0  0  0  0  0
   -1.3896   -0.7852    0.0000 C   0  0  0  0  0  0  0  0  0  0  0  0
   -2.2559   -0.2854    0.0000 N   0  0  0  0  0  0  0  0  0  0  0  0
    4.3931   -1.5310    0.0000 N   0  0  0  0  0  0  0  0  0  0  0  0
    5.2596   -1.0312    0.0000 O   0  0  0  0  0  0  0  0  0  0  0  0
    5.0513   -0.0520    0.0000 C   0  0  0  0  0  0  0  0  0  0  0  0
    3.6516   -0.8601    0.0000 C   0  0  0  0  0  0  0  0  0  0  0  0
    2.5558    0.9186    0.0000 N   0  0  0  0  0  0  0  0  0  0  0  0
    3.5557    0.9186    0.0000 C   0  0  0  0  0  0  0  0  0  0  0  0
   -3.1225   -0.7852    0.0000 C   0  0  0  0  0  0  0  0  0  0  0  0
    2.0560    0.0520    0.0000 C   0  0  0  0  0  0  0  0  0  0  0  0
    1.0561    1.7851    0.0000 C   0  0  0  0  0  0  0  0  0  0  0  0
   -3.9890   -0.2854    0.0000 C   0  0  0  0  0  0  0  0  0  0  0  0
   -2.2559    0.7145    0.0000 C   0  0  0  0  0  0  0  0  0  0  0  0
   -1.3896   -1.7851    0.0000 O   0  0  0  0  0  0  0  0  0  0  0  0
   -3.9890    0.7145    0.0000 C   0  0  0  0  0  0  0  0  0  0  0  0
    2.0560    1.7851    0.0000 C   0  0  0  0  0  0  0  0  0  0  0  0
   -3.1225    1.2145    0.0000 C   0  0  0  0  0  0  0  0  0  0  0  0
    5.7221    0.6895    0.0000 C   0  0  0  0  0  0  0  0  0  0  0  0
    2.6724   -1.0684    0.0000 C   0  0  0  0  0  0  0  0  0  0  0  0
   -4.8555   -0.7852    0.0000 C   0  0  0  0  0  0  0  0  0  0  0  0
   -4.8555    1.2145    0.0000 C   0  0  0  0  0  0  0  0  0  0  0  0
   -5.7221   -0.2854    0.0000 C   0  0  0  0  0  0  0  0  0  0  0  0
   -5.7221    0.7145    0.0000 C   0  0  0  0  0  0  0  0  0  0  0  0
  1  2  2  0
  2  3  1  0
  4 14  1  0
  5  6  2  0
  3  5  1  0
  1  6  1  0
  1  7  1  0
  7  8  1  0
  9 12  2  0
 10 11  1  0
  9 10  1  0
  4 11  2  0
  4 12  1  0
 13 16  1  0
 13 14  1  0
  8 15  1  0
  5 16  1  0
  3 17  1  0
 15 18  1  0
  8 19  1  0
  7 20  2  0
 21 23  1  0
 18 21  2  0
 17 22  1  0
 13 22  1  0
 19 23  1  0
 11 24  1  0
 12 25  1  0
 18 26  1  0
 21 27  1  0
 26 28  2  0
 27 29  2  0
 28 29  1  0
M  END
>  <IDNUMBER>  (325) 
SB71-0461

>  <available>  (325) 
49

>  <H_acceptor>  (325) 
6

>  <H_donor>  (325) 
0

>  <B_rotN>  (325) 
4

>  <N_O>  (325) 
7

>  <logP>  (325) 
2.0467

>  <logD>  (325) 
1.5685

>  <logSw>  (325) 
-2.4212

>  <PSA>  (325) 
55.79

>  <pKa_ma>  (325) 
24.0053

>  <pKa_mb>  (325) 
7.7028

>  <N_Chirals>  (325) 
0

>  <Name>  (325) 
(3,4-dihydroisoquinolin-2(1H)-yl){5-[(3,5-dimethyl-1,2-oxazol-4-yl)methyl]-4,5,6,7-tetrahydropyrazolo[1,5-a]pyrazin-2-yl}methanone

>  <Smile>  (325) 
Cc1noc(C)c1CN1Cc2cc(C(N(CC3)Cc4c3cccc4)=O)nn2CC1

>  <Color>  (325) 
ORANGE

>  <Collection>  (325) 
IC

>  <InChI>  (325) 
InChI=1S/C22H25N5O2/c1-15-20(16(2)29-24-15)14-25-9-10-27-19(13-25)11-21(23-27)22(28)26-8-7-17-5-3-4-6-18(17)12-26/h3-6,11H,7-10,12-14H2,1-2H3

>  <InChI Key>  (325) 
IGHCZAYKLRACLO-UHFFFAOYSA-N

>  <PERCENTSP3>  (325) 
40.91

>  <Link>  (325) 
https://www.chemdiv.com/catalog/screening-compounds/compound-SB71-0461/

>  <MFCDNUMBER>  (325) 
MFCD32249177

>  <CLNUMBER>  (325) 
CM5543

>  <STEREO>  (325) 
ACHIRAL

>  <State>  (325) 
Solid

>  <Similarity score>  (325) 
0.27

$$$$
N-(propan-2-yl)-5-[(quinolin-8-yl)methyl]-4,5,6,7-tetrahydropyrazolo[1,5-a]pyraz
     RDKit          2D

 26 29  0  0  0  0  0  0  0  0999 V2000
    1.6986    0.9941    0.0000 C   0  0  0  0  0  0  0  0  0  0  0  0
    2.1070    0.0771    0.0000 N   0  0  0  0  0  0  0  0  0  0  0  0
    1.3650   -0.5898    0.0000 N   0  0  0  0  0  0  0  0  0  0  0  0
    0.4981   -0.0896    0.0000 C   0  0  0  0  0  0  0  0  0  0  0  0
    0.7067    0.8900    0.0000 C   0  0  0  0  0  0  0  0  0  0  0  0
    2.1986    1.8611    0.0000 C   0  0  0  0  0  0  0  0  0  0  0  0
   -0.3689   -1.5902    0.0000 N   0  0  0  0  0  0  0  0  0  0  0  0
   -2.1027   -1.5902    0.0000 C   0  0  0  0  0  0  0  0  0  0  0  0
   -0.3689   -0.5898    0.0000 C   0  0  0  0  0  0  0  0  0  0  0  0
   -2.9698   -2.0904    0.0000 C   0  0  0  0  0  0  0  0  0  0  0  0
    3.1992    1.8611    0.0000 N   0  0  0  0  0  0  0  0  0  0  0  0
    1.3650   -1.5902    0.0000 C   0  0  0  0  0  0  0  0  0  0  0  0
   -1.2360   -2.0904    0.0000 C   0  0  0  0  0  0  0  0  0  0  0  0
   -2.9698   -3.0906    0.0000 N   0  0  0  0  0  0  0  0  0  0  0  0
    1.6986    2.7238    0.0000 O   0  0  0  0  0  0  0  0  0  0  0  0
    0.4981   -2.0904    0.0000 C   0  0  0  0  0  0  0  0  0  0  0  0
   -3.8324   -1.5902    0.0000 C   0  0  0  0  0  0  0  0  0  0  0  0
   -2.1027   -0.5898    0.0000 C   0  0  0  0  0  0  0  0  0  0  0  0
    3.6992    2.7238    0.0000 C   0  0  0  0  0  0  0  0  0  0  0  0
   -2.9698   -0.0896    0.0000 C   0  0  0  0  0  0  0  0  0  0  0  0
   -3.8324   -3.5908    0.0000 C   0  0  0  0  0  0  0  0  0  0  0  0
   -3.8324   -0.5898    0.0000 C   0  0  0  0  0  0  0  0  0  0  0  0
   -4.6995   -2.0904    0.0000 C   0  0  0  0  0  0  0  0  0  0  0  0
    4.6995    2.7238    0.0000 C   0  0  0  0  0  0  0  0  0  0  0  0
    3.1992    3.5908    0.0000 C   0  0  0  0  0  0  0  0  0  0  0  0
   -4.6995   -3.0906    0.0000 C   0  0  0  0  0  0  0  0  0  0  0  0
  1  2  2  0
  2  3  1  0
  4  5  2  0
  3  4  1  0
  1  5  1  0
  1  6  1  0
  7  9  1  0
  8 13  1  0
  4  9  1  0
  8 10  1  0
  6 11  1  0
  3 12  1  0
  7 13  1  0
 10 14  1  0
  6 15  2  0
 12 16  1  0
  7 16  1  0
 10 17  2  0
 17 22  1  0
  8 18  2  0
 11 19  1  0
 18 20  1  0
 14 21  2  0
 20 22  2  0
 17 23  1  0
 19 24  1  0
 19 25  1  0
 23 26  2  0
 21 26  1  0
M  END
>  <IDNUMBER>  (326) 
SB71-0639

>  <available>  (326) 
25

>  <H_acceptor>  (326) 
5

>  <H_donor>  (326) 
1

>  <B_rotN>  (326) 
5

>  <N_O>  (326) 
6

>  <logP>  (326) 
1.9555

>  <logD>  (326) 
1.9526

>  <logSw>  (326) 
-2.6328

>  <PSA>  (326) 
50.634

>  <pKa_ma>  (326) 
14.8713

>  <pKa_mb>  (326) 
5.2337

>  <N_Chirals>  (326) 
0

>  <Name>  (326) 
N-(propan-2-yl)-5-[(quinolin-8-yl)methyl]-4,5,6,7-tetrahydropyrazolo[1,5-a]pyrazine-2-carboxamide

>  <Smile>  (326) 
CC(C)NC(c1nn(CCN(Cc2cccc3cccnc23)C2)c2c1)=O

>  <Color>  (326) 
ORANGE

>  <Collection>  (326) 
IC

>  <InChI>  (326) 
InChI=1S/C20H23N5O/c1-14(2)22-20(26)18-11-17-13-24(9-10-25(17)23-18)12-16-6-3-5-15-7-4-8-21-19(15)16/h3-8,11,14H,9-10,12-13H2,1-2H3,(H,22,26)

>  <InChI Key>  (326) 
CCECUINNUFICLZ-UHFFFAOYSA-N

>  <PERCENTSP3>  (326) 
35

>  <Link>  (326) 
https://www.chemdiv.com/catalog/screening-compounds/compound-SB71-0639/

>  <MFCDNUMBER>  (326) 
MFCD32249368

>  <CLNUMBER>  (326) 
CM5543

>  <STEREO>  (326) 
ACHIRAL

>  <State>  (326) 
Oil

>  <Similarity score>  (326) 
0.27

$$$$
[5-(4-fluoro-3-methylbenzene-1-sulfonyl)-4,5,6,7-tetrahydropyrazolo[1,5-a]pyrazi
     RDKit          2D

 28 31  0  0  0  0  0  0  0  0999 V2000
   -0.9063   -1.8522    0.0000 S   0  0  0  0  0  0  0  0  0  0  0  0
    3.1774   -0.6478    0.0000 C   0  0  0  0  0  0  0  0  0  0  0  0
    3.0730   -1.6438    0.0000 N   0  0  0  0  0  0  0  0  0  0  0  0
    0.0938   -1.8522    0.0000 N   0  0  0  0  0  0  0  0  0  0  0  0
    1.5939   -0.9856    0.0000 C   0  0  0  0  0  0  0  0  0  0  0  0
    2.0940   -1.8522    0.0000 N   0  0  0  0  0  0  0  0  0  0  0  0
    2.2605   -0.2438    0.0000 C   0  0  0  0  0  0  0  0  0  0  0  0
    4.0399   -0.1480    0.0000 C   0  0  0  0  0  0  0  0  0  0  0  0
    0.5938   -0.9856    0.0000 C   0  0  0  0  0  0  0  0  0  0  0  0
   -1.9063   -1.8522    0.0000 C   0  0  0  0  0  0  0  0  0  0  0  0
    4.0399    0.8522    0.0000 N   0  0  0  0  0  0  0  0  0  0  0  0
    0.5938   -2.7190    0.0000 C   0  0  0  0  0  0  0  0  0  0  0  0
    1.5939   -2.7190    0.0000 C   0  0  0  0  0  0  0  0  0  0  0  0
   -0.9063   -0.8522    0.0000 O   0  0  0  0  0  0  0  0  0  0  0  0
   -0.9063   -2.8522    0.0000 O   0  0  0  0  0  0  0  0  0  0  0  0
   -2.4063   -0.9856    0.0000 C   0  0  0  0  0  0  0  0  0  0  0  0
   -3.4065   -0.9856    0.0000 C   0  0  0  0  0  0  0  0  0  0  0  0
    4.9065   -0.6478    0.0000 O   0  0  0  0  0  0  0  0  0  0  0  0
   -3.9064   -1.8522    0.0000 C   0  0  0  0  0  0  0  0  0  0  0  0
   -2.4063   -2.7190    0.0000 C   0  0  0  0  0  0  0  0  0  0  0  0
   -3.4065   -2.7190    0.0000 C   0  0  0  0  0  0  0  0  0  0  0  0
    4.0399    2.8522    0.0000 O   0  0  0  0  0  0  0  0  0  0  0  0
   -4.9065   -1.8522    0.0000 F   0  0  0  0  0  0  0  0  0  0  0  0
    4.9065    1.3522    0.0000 C   0  0  0  0  0  0  0  0  0  0  0  0
    3.1774    1.3522    0.0000 C   0  0  0  0  0  0  0  0  0  0  0  0
   -3.9064   -0.1188    0.0000 C   0  0  0  0  0  0  0  0  0  0  0  0
    4.9065    2.3522    0.0000 C   0  0  0  0  0  0  0  0  0  0  0  0
    3.1774    2.3522    0.0000 C   0  0  0  0  0  0  0  0  0  0  0  0
  2  7  1  0
  2  3  2  0
  3  6  1  0
  1  4  1  0
  5  9  1  0
  5  6  1  0
  6 13  1  0
  5  7  2  0
  2  8  1  0
  4  9  1  0
  1 10  1  0
  8 11  1  0
  4 12  1  0
 12 13  1  0
  1 14  2  0
  1 15  2  0
 10 16  2  0
 16 17  1  0
  8 18  2  0
 19 21  1  0
 17 19  2  0
 10 20  1  0
 20 21  2  0
 22 28  1  0
 22 27  1  0
 19 23  1  0
 11 24  1  0
 11 25  1  0
 17 26  1  0
 24 27  1  0
 25 28  1  0
M  END
>  <IDNUMBER>  (327) 
SB71-0286

>  <available>  (327) 
38

>  <H_acceptor>  (327) 
9

>  <H_donor>  (327) 
0

>  <B_rotN>  (327) 
4

>  <N_O>  (327) 
8

>  <logP>  (327) 
1.1028

>  <logD>  (327) 
1.1028

>  <logSw>  (327) 
-2.4552

>  <PSA>  (327) 
69.977

>  <pKa_ma>  (327) 
26.1583

>  <pKa_mb>  (327) 
-4.4541

>  <N_Chirals>  (327) 
0

>  <Name>  (327) 
[5-(4-fluoro-3-methylbenzene-1-sulfonyl)-4,5,6,7-tetrahydropyrazolo[1,5-a]pyrazin-2-yl](morpholin-4-yl)methanone

>  <Smile>  (327) 
Cc(cc(cc1)S(N2Cc3cc(C(N4CCOCC4)=O)nn3CC2)(=O)=O)c1F

>  <Color>  (327) 
NOT COLORED

>  <Collection>  (327) 
IC

>  <InChI>  (327) 
InChI=1S/C18H21FN4O4S/c1-13-10-15(2-3-16(13)19)28(25,26)22-4-5-23-14(12-22)11-17(20-23)18(24)21-6-8-27-9-7-21/h2-3,10-11H,4-9,12H2,1H3

>  <InChI Key>  (327) 
IGWCUOIARKHPTC-UHFFFAOYSA-N

>  <PERCENTSP3>  (327) 
44.44

>  <Link>  (327) 
https://www.chemdiv.com/catalog/screening-compounds/compound-SB71-0286/

>  <MFCDNUMBER>  (327) 
MFCD32249296

>  <CLNUMBER>  (327) 
CM5543

>  <STEREO>  (327) 
ACHIRAL

>  <State>  (327) 
Solid

>  <Similarity score>  (327) 
0.27

$$$$
(3,4-dihydroisoquinolin-2(1H)-yl)[5-(3-methylbutyl)-4,5,6,7-tetrahydropyrazolo[1
     RDKit          2D

 26 29  0  0  0  0  0  0  0  0999 V2000
    0.4437    0.2855    0.0000 C   0  0  0  0  0  0  0  0  0  0  0  0
    0.3396   -0.7103    0.0000 N   0  0  0  0  0  0  0  0  0  0  0  0
   -0.6397   -0.9188    0.0000 N   0  0  0  0  0  0  0  0  0  0  0  0
   -1.1394   -0.0522    0.0000 C   0  0  0  0  0  0  0  0  0  0  0  0
   -0.4686    0.6896    0.0000 C   0  0  0  0  0  0  0  0  0  0  0  0
    1.3104    0.7854    0.0000 C   0  0  0  0  0  0  0  0  0  0  0  0
    2.1770    0.2855    0.0000 N   0  0  0  0  0  0  0  0  0  0  0  0
    3.0395    0.7854    0.0000 C   0  0  0  0  0  0  0  0  0  0  0  0
   -2.6394   -0.9188    0.0000 N   0  0  0  0  0  0  0  0  0  0  0  0
   -2.1393   -0.0522    0.0000 C   0  0  0  0  0  0  0  0  0  0  0  0
   -1.1394   -1.7853    0.0000 C   0  0  0  0  0  0  0  0  0  0  0  0
    3.9060    0.2855    0.0000 C   0  0  0  0  0  0  0  0  0  0  0  0
    2.1770   -0.7146    0.0000 C   0  0  0  0  0  0  0  0  0  0  0  0
    1.3104    1.7853    0.0000 O   0  0  0  0  0  0  0  0  0  0  0  0
    3.9060   -0.7146    0.0000 C   0  0  0  0  0  0  0  0  0  0  0  0
    3.0395   -1.2143    0.0000 C   0  0  0  0  0  0  0  0  0  0  0  0
   -2.1393   -1.7853    0.0000 C   0  0  0  0  0  0  0  0  0  0  0  0
   -3.6393   -0.9188    0.0000 C   0  0  0  0  0  0  0  0  0  0  0  0
   -4.1393   -0.0522    0.0000 C   0  0  0  0  0  0  0  0  0  0  0  0
    4.7724    0.7854    0.0000 C   0  0  0  0  0  0  0  0  0  0  0  0
    4.7724   -1.2143    0.0000 C   0  0  0  0  0  0  0  0  0  0  0  0
   -5.1392   -0.0522    0.0000 C   0  0  0  0  0  0  0  0  0  0  0  0
   -5.6391    0.8143    0.0000 C   0  0  0  0  0  0  0  0  0  0  0  0
   -5.6391   -0.9188    0.0000 C   0  0  0  0  0  0  0  0  0  0  0  0
    5.6391    0.2855    0.0000 C   0  0  0  0  0  0  0  0  0  0  0  0
    5.6391   -0.7146    0.0000 C   0  0  0  0  0  0  0  0  0  0  0  0
  1  2  2  0
  2  3  1  0
  4  5  2  0
  3  4  1  0
  1  5  1  0
  1  6  1  0
  6  7  1  0
  7  8  1  0
  9 10  1  0
  4 10  1  0
  3 11  1  0
  8 12  1  0
  7 13  1  0
  6 14  2  0
 15 16  1  0
 12 15  2  0
 13 16  1  0
 11 17  1  0
  9 17  1  0
  9 18  1  0
 18 19  1  0
 12 20  1  0
 15 21  1  0
 19 22  1  0
 22 23  1  0
 22 24  1  0
 20 25  2  0
 21 26  2  0
 25 26  1  0
M  END
>  <IDNUMBER>  (328) 
SB71-0442

>  <available>  (328) 
47

>  <H_acceptor>  (328) 
4

>  <H_donor>  (328) 
0

>  <B_rotN>  (328) 
5

>  <N_O>  (328) 
5

>  <logP>  (328) 
3.0639

>  <logD>  (328) 
2.8524

>  <logSw>  (328) 
-3.2403

>  <PSA>  (328) 
34.002

>  <pKa_ma>  (328) 
25.6071

>  <pKa_mb>  (328) 
7.1974

>  <N_Chirals>  (328) 
0

>  <Name>  (328) 
(3,4-dihydroisoquinolin-2(1H)-yl)[5-(3-methylbutyl)-4,5,6,7-tetrahydropyrazolo[1,5-a]pyrazin-2-yl]methanone

>  <Smile>  (328) 
CC(C)CCN1Cc2cc(C(N(CC3)Cc4c3cccc4)=O)nn2CC1

>  <Color>  (328) 
ORANGE

>  <Collection>  (328) 
IC

>  <InChI>  (328) 
InChI=1S/C21H28N4O/c1-16(2)7-9-23-11-12-25-19(15-23)13-20(22-25)21(26)24-10-8-17-5-3-4-6-18(17)14-24/h3-6,13,16H,7-12,14-15H2,1-2H3

>  <InChI Key>  (328) 
QSVSDYXUDPSRHB-UHFFFAOYSA-N

>  <PERCENTSP3>  (328) 
52.38

>  <Link>  (328) 
https://www.chemdiv.com/catalog/screening-compounds/compound-SB71-0442/

>  <MFCDNUMBER>  (328) 
MFCD32249640

>  <CLNUMBER>  (328) 
CM5543

>  <STEREO>  (328) 
ACHIRAL

>  <State>  (328) 
Liquid

>  <Similarity score>  (328) 
0.27

$$$$
(3,4-dihydroisoquinolin-2(1H)-yl){5-[(1-ethyl-5-methyl-1H-pyrazol-4-yl)methyl]-4
     RDKit          2D

 30 34  0  0  0  0  0  0  0  0999 V2000
    1.1540   -0.2853    0.0000 C   0  0  0  0  0  0  0  0  0  0  0  0
    1.0499    0.7106    0.0000 N   0  0  0  0  0  0  0  0  0  0  0  0
    0.0708    0.9187    0.0000 N   0  0  0  0  0  0  0  0  0  0  0  0
   -0.4292    0.0522    0.0000 C   0  0  0  0  0  0  0  0  0  0  0  0
   -3.4290    0.0522    0.0000 C   0  0  0  0  0  0  0  0  0  0  0  0
    0.2417   -0.6895    0.0000 C   0  0  0  0  0  0  0  0  0  0  0  0
    2.0208   -0.7854    0.0000 C   0  0  0  0  0  0  0  0  0  0  0  0
    2.8873   -0.2853    0.0000 N   0  0  0  0  0  0  0  0  0  0  0  0
   -3.7665   -1.5311    0.0000 N   0  0  0  0  0  0  0  0  0  0  0  0
   -4.4247   -0.0522    0.0000 C   0  0  0  0  0  0  0  0  0  0  0  0
   -4.6330   -1.0314    0.0000 N   0  0  0  0  0  0  0  0  0  0  0  0
   -3.0206   -0.8604    0.0000 C   0  0  0  0  0  0  0  0  0  0  0  0
   -1.9291    0.9187    0.0000 N   0  0  0  0  0  0  0  0  0  0  0  0
    3.7499   -0.7854    0.0000 C   0  0  0  0  0  0  0  0  0  0  0  0
   -2.9290    0.9187    0.0000 C   0  0  0  0  0  0  0  0  0  0  0  0
   -1.4291    0.0522    0.0000 C   0  0  0  0  0  0  0  0  0  0  0  0
   -0.4292    1.7852    0.0000 C   0  0  0  0  0  0  0  0  0  0  0  0
    4.6164   -0.2853    0.0000 C   0  0  0  0  0  0  0  0  0  0  0  0
    2.8873    0.7145    0.0000 C   0  0  0  0  0  0  0  0  0  0  0  0
    2.0208   -1.7852    0.0000 O   0  0  0  0  0  0  0  0  0  0  0  0
    4.6164    0.7145    0.0000 C   0  0  0  0  0  0  0  0  0  0  0  0
   -1.4291    1.7852    0.0000 C   0  0  0  0  0  0  0  0  0  0  0  0
    3.7499    1.2144    0.0000 C   0  0  0  0  0  0  0  0  0  0  0  0
   -5.5454   -1.4396    0.0000 C   0  0  0  0  0  0  0  0  0  0  0  0
   -5.0914    0.6895    0.0000 C   0  0  0  0  0  0  0  0  0  0  0  0
    5.4829   -0.7854    0.0000 C   0  0  0  0  0  0  0  0  0  0  0  0
    5.4829    1.2144    0.0000 C   0  0  0  0  0  0  0  0  0  0  0  0
   -6.3496   -0.8479    0.0000 C   0  0  0  0  0  0  0  0  0  0  0  0
    6.3496   -0.2853    0.0000 C   0  0  0  0  0  0  0  0  0  0  0  0
    6.3496    0.7145    0.0000 C   0  0  0  0  0  0  0  0  0  0  0  0
  1  2  2  0
  2  3  1  0
  4  6  2  0
  3  4  1  0
  5 15  1  0
  1  6  1  0
  1  7  1  0
  7  8  1  0
  9 12  2  0
  9 11  1  0
  5 10  2  0
 10 11  1  0
  5 12  1  0
 13 16  1  0
  8 14  1  0
 13 15  1  0
  4 16  1  0
  3 17  1  0
 14 18  1  0
  8 19  1  0
  7 20  2  0
 21 23  1  0
 18 21  2  0
 17 22  1  0
 13 22  1  0
 19 23  1  0
 11 24  1  0
 10 25  1  0
 18 26  1  0
 21 27  1  0
 24 28  1  0
 26 29  2  0
 27 30  2  0
 29 30  1  0
M  END
>  <IDNUMBER>  (329) 
SB71-0460

>  <available>  (329) 
39

>  <H_acceptor>  (329) 
5

>  <H_donor>  (329) 
0

>  <B_rotN>  (329) 
5

>  <N_O>  (329) 
7

>  <logP>  (329) 
1.8619

>  <logD>  (329) 
-1.2987

>  <logSw>  (329) 
-2.1226

>  <PSA>  (329) 
47.677

>  <pKa_ma>  (329) 
24.232

>  <pKa_mb>  (329) 
10.5603

>  <N_Chirals>  (329) 
0

>  <Name>  (329) 
(3,4-dihydroisoquinolin-2(1H)-yl){5-[(1-ethyl-5-methyl-1H-pyrazol-4-yl)methyl]-4,5,6,7-tetrahydropyrazolo[1,5-a]pyrazin-2-yl}methanone

>  <Smile>  (329) 
CCn1ncc(CN2Cc3cc(C(N(CC4)Cc5c4cccc5)=O)nn3CC2)c1C

>  <Color>  (329) 
YELLOW

>  <Collection>  (329) 
IC

>  <InChI>  (329) 
InChI=1S/C23H28N6O/c1-3-28-17(2)20(13-24-28)14-26-10-11-29-21(16-26)12-22(25-29)23(30)27-9-8-18-6-4-5-7-19(18)15-27/h4-7,12-13H,3,8-11,14-16H2,1-2H3

>  <InChI Key>  (329) 
DHKVHRWJYQLVMB-UHFFFAOYSA-N

>  <PERCENTSP3>  (329) 
43.48

>  <Link>  (329) 
https://www.chemdiv.com/catalog/screening-compounds/compound-SB71-0460/

>  <MFCDNUMBER>  (329) 
MFCD32249176

>  <CLNUMBER>  (329) 
CM5543

>  <STEREO>  (329) 
ACHIRAL

>  <State>  (329) 
Solid

>  <Similarity score>  (329) 
0.27

$$$$
(3,4-dihydroisoquinolin-2(1H)-yl){5-[(furan-3-yl)methyl]-4,5,6,7-tetrahydropyraz
     RDKit          2D

 27 31  0  0  0  0  0  0  0  0999 V2000
    0.2939    0.2853    0.0000 C   0  0  0  0  0  0  0  0  0  0  0  0
    0.1896   -0.7104    0.0000 N   0  0  0  0  0  0  0  0  0  0  0  0
   -0.7897   -0.9188    0.0000 N   0  0  0  0  0  0  0  0  0  0  0  0
   -1.2897   -0.0522    0.0000 C   0  0  0  0  0  0  0  0  0  0  0  0
   -0.6188    0.6896    0.0000 C   0  0  0  0  0  0  0  0  0  0  0  0
    1.1604    0.7854    0.0000 C   0  0  0  0  0  0  0  0  0  0  0  0
    2.0271    0.2853    0.0000 N   0  0  0  0  0  0  0  0  0  0  0  0
   -2.7896   -0.9188    0.0000 N   0  0  0  0  0  0  0  0  0  0  0  0
    2.8937    0.7854    0.0000 C   0  0  0  0  0  0  0  0  0  0  0  0
   -4.2897   -0.0522    0.0000 C   0  0  0  0  0  0  0  0  0  0  0  0
   -2.2897   -0.0522    0.0000 C   0  0  0  0  0  0  0  0  0  0  0  0
   -1.2897   -1.7853    0.0000 C   0  0  0  0  0  0  0  0  0  0  0  0
    3.7604    0.2853    0.0000 C   0  0  0  0  0  0  0  0  0  0  0  0
    2.0271   -0.7147    0.0000 C   0  0  0  0  0  0  0  0  0  0  0  0
   -4.6230    1.5313    0.0000 O   0  0  0  0  0  0  0  0  0  0  0  0
    1.1604    1.7853    0.0000 O   0  0  0  0  0  0  0  0  0  0  0  0
   -3.8812    0.8603    0.0000 C   0  0  0  0  0  0  0  0  0  0  0  0
   -3.7896   -0.9188    0.0000 C   0  0  0  0  0  0  0  0  0  0  0  0
   -5.2812    0.0522    0.0000 C   0  0  0  0  0  0  0  0  0  0  0  0
    3.7604   -0.7147    0.0000 C   0  0  0  0  0  0  0  0  0  0  0  0
   -5.4897    1.0310    0.0000 C   0  0  0  0  0  0  0  0  0  0  0  0
   -2.2897   -1.7853    0.0000 C   0  0  0  0  0  0  0  0  0  0  0  0
    2.8937   -1.2146    0.0000 C   0  0  0  0  0  0  0  0  0  0  0  0
    4.6228    0.7854    0.0000 C   0  0  0  0  0  0  0  0  0  0  0  0
    4.6228   -1.2146    0.0000 C   0  0  0  0  0  0  0  0  0  0  0  0
    5.4897    0.2853    0.0000 C   0  0  0  0  0  0  0  0  0  0  0  0
    5.4897   -0.7147    0.0000 C   0  0  0  0  0  0  0  0  0  0  0  0
  1  2  2  0
  2  3  1  0
  4  5  2  0
  3  4  1  0
  1  5  1  0
  1  6  1  0
  6  7  1  0
  8 11  1  0
  7  9  1  0
 10 18  1  0
  4 11  1  0
  3 12  1  0
  9 13  1  0
  7 14  1  0
 15 17  1  0
  6 16  2  0
 10 17  2  0
  8 18  1  0
 10 19  1  0
 20 23  1  0
 13 20  2  0
 19 21  2  0
 15 21  1  0
 12 22  1  0
  8 22  1  0
 14 23  1  0
 13 24  1  0
 20 25  1  0
 24 26  2  0
 25 27  2  0
 26 27  1  0
M  END
>  <IDNUMBER>  (330) 
SB71-0413

>  <available>  (330) 
89

>  <H_acceptor>  (330) 
5

>  <H_donor>  (330) 
0

>  <B_rotN>  (330) 
4

>  <N_O>  (330) 
6

>  <logP>  (330) 
2.0193

>  <logD>  (330) 
1.5216

>  <logSw>  (330) 
-2.3937

>  <PSA>  (330) 
41.555

>  <pKa_ma>  (330) 
25.6071

>  <pKa_mb>  (330) 
7.7315

>  <N_Chirals>  (330) 
0

>  <Name>  (330) 
(3,4-dihydroisoquinolin-2(1H)-yl){5-[(furan-3-yl)methyl]-4,5,6,7-tetrahydropyrazolo[1,5-a]pyrazin-2-yl}methanone

>  <Smile>  (330) 
O=C(c1nn(CCN(Cc2cocc2)C2)c2c1)N(CC1)Cc2c1cccc2

>  <Color>  (330) 
BROWN

>  <Collection>  (330) 
IC

>  <InChI>  (330) 
InChI=1S/C21H22N4O2/c26-21(24-7-5-17-3-1-2-4-18(17)13-24)20-11-19-14-23(8-9-25(19)22-20)12-16-6-10-27-15-16/h1-4,6,10-11,15H,5,7-9,12-14H2

>  <InChI Key>  (330) 
CLYOICYKLNHKDA-UHFFFAOYSA-N

>  <PERCENTSP3>  (330) 
33.33

>  <Link>  (330) 
https://www.chemdiv.com/catalog/screening-compounds/compound-SB71-0413/

>  <MFCDNUMBER>  (330) 
MFCD32249572

>  <CLNUMBER>  (330) 
CM5543

>  <STEREO>  (330) 
ACHIRAL

>  <State>  (330) 
Oil

>  <Similarity score>  (330) 
0.27

$$$$
(3,4-dihydroisoquinolin-2(1H)-yl){5-[(1,3-dimethyl-1H-pyrazol-5-yl)methyl]-4,5,6
     RDKit          2D

 29 33  0  0  0  0  0  0  0  0999 V2000
   -0.5271   -0.0855    0.0000 C   0  0  0  0  0  0  0  0  0  0  0  0
   -0.4185   -1.0810    0.0000 N   0  0  0  0  0  0  0  0  0  0  0  0
    0.5560   -1.2892    0.0000 N   0  0  0  0  0  0  0  0  0  0  0  0
    1.0559   -0.4227    0.0000 C   0  0  0  0  0  0  0  0  0  0  0  0
    4.0551   -0.4227    0.0000 C   0  0  0  0  0  0  0  0  0  0  0  0
    0.3896    0.3229    0.0000 C   0  0  0  0  0  0  0  0  0  0  0  0
   -1.3892    0.4144    0.0000 C   0  0  0  0  0  0  0  0  0  0  0  0
   -2.2556   -0.0855    0.0000 N   0  0  0  0  0  0  0  0  0  0  0  0
    5.0506   -0.3186    0.0000 N   0  0  0  0  0  0  0  0  0  0  0  0
    5.2587    0.6603    0.0000 N   0  0  0  0  0  0  0  0  0  0  0  0
    3.6510    0.4893    0.0000 C   0  0  0  0  0  0  0  0  0  0  0  0
    2.5556   -1.2892    0.0000 N   0  0  0  0  0  0  0  0  0  0  0  0
    4.3923    1.1602    0.0000 C   0  0  0  0  0  0  0  0  0  0  0  0
   -3.1220    0.4144    0.0000 C   0  0  0  0  0  0  0  0  0  0  0  0
    3.5552   -1.2892    0.0000 C   0  0  0  0  0  0  0  0  0  0  0  0
    2.0557   -0.4227    0.0000 C   0  0  0  0  0  0  0  0  0  0  0  0
    1.0559   -2.1557    0.0000 C   0  0  0  0  0  0  0  0  0  0  0  0
   -3.9884   -0.0855    0.0000 C   0  0  0  0  0  0  0  0  0  0  0  0
   -2.2556   -1.0851    0.0000 C   0  0  0  0  0  0  0  0  0  0  0  0
   -1.3892    1.4142    0.0000 O   0  0  0  0  0  0  0  0  0  0  0  0
   -3.9884   -1.0851    0.0000 C   0  0  0  0  0  0  0  0  0  0  0  0
    2.0557   -2.1557    0.0000 C   0  0  0  0  0  0  0  0  0  0  0  0
   -3.1220   -1.5850    0.0000 C   0  0  0  0  0  0  0  0  0  0  0  0
    5.7212   -1.0600    0.0000 C   0  0  0  0  0  0  0  0  0  0  0  0
    4.2883    2.1557    0.0000 C   0  0  0  0  0  0  0  0  0  0  0  0
   -4.8548    0.4144    0.0000 C   0  0  0  0  0  0  0  0  0  0  0  0
   -4.8548   -1.5850    0.0000 C   0  0  0  0  0  0  0  0  0  0  0  0
   -5.7212   -0.0855    0.0000 C   0  0  0  0  0  0  0  0  0  0  0  0
   -5.7212   -1.0851    0.0000 C   0  0  0  0  0  0  0  0  0  0  0  0
  1  2  2  0
  2  3  1  0
  4  6  2  0
  3  4  1  0
  5 15  1  0
  1  6  1  0
  1  7  1  0
  7  8  1  0
  5  9  1  0
  9 10  1  0
 10 13  2  0
  5 11  2  0
 12 16  1  0
 11 13  1  0
  8 14  1  0
 12 15  1  0
  4 16  1  0
  3 17  1  0
 14 18  1  0
  8 19  1  0
  7 20  2  0
 21 23  1  0
 18 21  2  0
 17 22  1  0
 12 22  1  0
 19 23  1  0
  9 24  1  0
 13 25  1  0
 18 26  1  0
 21 27  1  0
 26 28  2  0
 27 29  2  0
 28 29  1  0
M  END
>  <IDNUMBER>  (331) 
SB71-0415

>  <available>  (331) 
97

>  <H_acceptor>  (331) 
5

>  <H_donor>  (331) 
0

>  <B_rotN>  (331) 
4

>  <N_O>  (331) 
7

>  <logP>  (331) 
1.2224

>  <logD>  (331) 
1.0867

>  <logSw>  (331) 
-2.0042

>  <PSA>  (331) 
47.555

>  <pKa_ma>  (331) 
25.6071

>  <pKa_mb>  (331) 
6.9645

>  <N_Chirals>  (331) 
0

>  <Name>  (331) 
(3,4-dihydroisoquinolin-2(1H)-yl){5-[(1,3-dimethyl-1H-pyrazol-5-yl)methyl]-4,5,6,7-tetrahydropyrazolo[1,5-a]pyrazin-2-yl}methanone

>  <Smile>  (331) 
Cc1nn(C)c(CN2Cc3cc(C(N(CC4)Cc5c4cccc5)=O)nn3CC2)c1

>  <Color>  (331) 
ORANGE

>  <Collection>  (331) 
IC

>  <InChI>  (331) 
InChI=1S/C22H26N6O/c1-16-11-19(25(2)23-16)14-26-9-10-28-20(15-26)12-21(24-28)22(29)27-8-7-17-5-3-4-6-18(17)13-27/h3-6,11-12H,7-10,13-15H2,1-2H3

>  <InChI Key>  (331) 
CUZXTBIYPXDJKE-UHFFFAOYSA-N

>  <PERCENTSP3>  (331) 
40.91

>  <Link>  (331) 
https://www.chemdiv.com/catalog/screening-compounds/compound-SB71-0415/

>  <MFCDNUMBER>  (331) 
MFCD32249574

>  <CLNUMBER>  (331) 
CM5543

>  <STEREO>  (331) 
ACHIRAL

>  <State>  (331) 
Oil

>  <Similarity score>  (331) 
0.27

$$$$
(3,4-dihydroisoquinolin-2(1H)-yl)(5-{[1-(propan-2-yl)-1H-pyrazol-4-yl]methyl}-4,
     RDKit          2D

 30 34  0  0  0  0  0  0  0  0999 V2000
   -0.2940   -0.3815    0.0000 C   0  0  0  0  0  0  0  0  0  0  0  0
   -0.1896   -1.3734    0.0000 N   0  0  0  0  0  0  0  0  0  0  0  0
    0.7899   -1.5818    0.0000 N   0  0  0  0  0  0  0  0  0  0  0  0
    1.2900   -0.7191    0.0000 C   0  0  0  0  0  0  0  0  0  0  0  0
    0.6188    0.0271    0.0000 C   0  0  0  0  0  0  0  0  0  0  0  0
   -1.1610    0.1188    0.0000 C   0  0  0  0  0  0  0  0  0  0  0  0
   -2.0280   -0.3815    0.0000 N   0  0  0  0  0  0  0  0  0  0  0  0
    4.6245    0.8649    0.0000 N   0  0  0  0  0  0  0  0  0  0  0  0
    5.4916    0.3649    0.0000 N   0  0  0  0  0  0  0  0  0  0  0  0
    4.2912   -0.7191    0.0000 C   0  0  0  0  0  0  0  0  0  0  0  0
    3.8826    0.1979    0.0000 C   0  0  0  0  0  0  0  0  0  0  0  0
    2.7906   -1.5818    0.0000 N   0  0  0  0  0  0  0  0  0  0  0  0
   -2.8948    0.1188    0.0000 C   0  0  0  0  0  0  0  0  0  0  0  0
    2.2904   -0.7191    0.0000 C   0  0  0  0  0  0  0  0  0  0  0  0
    5.2833   -0.6108    0.0000 C   0  0  0  0  0  0  0  0  0  0  0  0
    1.2900   -2.4488    0.0000 C   0  0  0  0  0  0  0  0  0  0  0  0
   -3.7618   -0.3815    0.0000 C   0  0  0  0  0  0  0  0  0  0  0  0
    3.7910   -1.5818    0.0000 C   0  0  0  0  0  0  0  0  0  0  0  0
   -2.0280   -1.3818    0.0000 C   0  0  0  0  0  0  0  0  0  0  0  0
   -1.1610    1.1193    0.0000 O   0  0  0  0  0  0  0  0  0  0  0  0
   -3.7618   -1.3818    0.0000 C   0  0  0  0  0  0  0  0  0  0  0  0
    2.2904   -2.4488    0.0000 C   0  0  0  0  0  0  0  0  0  0  0  0
    4.5205    1.8612    0.0000 C   0  0  0  0  0  0  0  0  0  0  0  0
   -2.8948   -1.8819    0.0000 C   0  0  0  0  0  0  0  0  0  0  0  0
   -4.6247    0.1188    0.0000 C   0  0  0  0  0  0  0  0  0  0  0  0
   -4.6247   -1.8819    0.0000 C   0  0  0  0  0  0  0  0  0  0  0  0
    3.6077    2.2696    0.0000 C   0  0  0  0  0  0  0  0  0  0  0  0
    5.3291    2.4488    0.0000 C   0  0  0  0  0  0  0  0  0  0  0  0
   -5.4916   -0.3815    0.0000 C   0  0  0  0  0  0  0  0  0  0  0  0
   -5.4916   -1.3818    0.0000 C   0  0  0  0  0  0  0  0  0  0  0  0
  1  2  2  0
  2  3  1  0
  4  5  2  0
  3  4  1  0
  1  5  1  0
  1  6  1  0
  6  7  1  0
  8 11  1  0
  8  9  1  0
  9 15  2  0
 10 18  1  0
 10 11  2  0
 12 14  1  0
  7 13  1  0
  4 14  1  0
 10 15  1  0
  3 16  1  0
 13 17  1  0
 12 18  1  0
  7 19  1  0
  6 20  2  0
 21 24  1  0
 17 21  2  0
 16 22  1  0
 12 22  1  0
  8 23  1  0
 19 24  1  0
 17 25  1  0
 21 26  1  0
 23 27  1  0
 23 28  1  0
 25 29  2  0
 26 30  2  0
 29 30  1  0
M  END
>  <IDNUMBER>  (332) 
SB71-0414

>  <available>  (332) 
5

>  <H_acceptor>  (332) 
5

>  <H_donor>  (332) 
0

>  <B_rotN>  (332) 
5

>  <N_O>  (332) 
7

>  <logP>  (332) 
2.019

>  <logD>  (332) 
-2.0741

>  <logSw>  (332) 
-2.2867

>  <PSA>  (332) 
48.713

>  <pKa_ma>  (332) 
24.5979

>  <pKa_mb>  (332) 
11.493

>  <N_Chirals>  (332) 
0

>  <Name>  (332) 
(3,4-dihydroisoquinolin-2(1H)-yl)(5-{[1-(propan-2-yl)-1H-pyrazol-4-yl]methyl}-4,5,6,7-tetrahydropyrazolo[1,5-a]pyrazin-2-yl)methanone

>  <Smile>  (332) 
CC(C)n1ncc(CN2Cc3cc(C(N(CC4)Cc5c4cccc5)=O)nn3CC2)c1

>  <Color>  (332) 
ORANGE

>  <Collection>  (332) 
IC

>  <InChI>  (332) 
InChI=1S/C23H28N6O/c1-17(2)29-14-18(12-24-29)13-26-9-10-28-21(16-26)11-22(25-28)23(30)27-8-7-19-5-3-4-6-20(19)15-27/h3-6,11-12,14,17H,7-10,13,15-16H2,1-2H3

>  <InChI Key>  (332) 
RGIHGOMKEULLNE-UHFFFAOYSA-N

>  <PERCENTSP3>  (332) 
43.48

>  <Link>  (332) 
https://www.chemdiv.com/catalog/screening-compounds/compound-SB71-0414/

>  <MFCDNUMBER>  (332) 
MFCD32249573

>  <CLNUMBER>  (332) 
CM5543

>  <STEREO>  (332) 
ACHIRAL

>  <State>  (332) 
Oil

>  <Similarity score>  (332) 
0.27

$$$$
(3,4-dihydroisoquinolin-2(1H)-yl){5-[(furan-2-yl)methyl]-4,5,6,7-tetrahydropyraz
     RDKit          2D

 27 31  0  0  0  0  0  0  0  0999 V2000
    0.2939    0.2853    0.0000 C   0  0  0  0  0  0  0  0  0  0  0  0
    0.1896   -0.7104    0.0000 N   0  0  0  0  0  0  0  0  0  0  0  0
   -0.7897   -0.9188    0.0000 N   0  0  0  0  0  0  0  0  0  0  0  0
   -1.2897   -0.0522    0.0000 C   0  0  0  0  0  0  0  0  0  0  0  0
   -0.6188    0.6896    0.0000 C   0  0  0  0  0  0  0  0  0  0  0  0
    1.1604    0.7854    0.0000 C   0  0  0  0  0  0  0  0  0  0  0  0
    2.0271    0.2853    0.0000 N   0  0  0  0  0  0  0  0  0  0  0  0
   -2.7896   -0.9188    0.0000 N   0  0  0  0  0  0  0  0  0  0  0  0
    2.8937    0.7854    0.0000 C   0  0  0  0  0  0  0  0  0  0  0  0
   -2.2897   -0.0522    0.0000 C   0  0  0  0  0  0  0  0  0  0  0  0
   -1.2897   -1.7853    0.0000 C   0  0  0  0  0  0  0  0  0  0  0  0
    3.7604    0.2853    0.0000 C   0  0  0  0  0  0  0  0  0  0  0  0
   -4.2897   -0.0522    0.0000 C   0  0  0  0  0  0  0  0  0  0  0  0
    2.0271   -0.7147    0.0000 C   0  0  0  0  0  0  0  0  0  0  0  0
   -3.8812    0.8603    0.0000 O   0  0  0  0  0  0  0  0  0  0  0  0
    1.1604    1.7853    0.0000 O   0  0  0  0  0  0  0  0  0  0  0  0
    3.7604   -0.7147    0.0000 C   0  0  0  0  0  0  0  0  0  0  0  0
   -3.7896   -0.9188    0.0000 C   0  0  0  0  0  0  0  0  0  0  0  0
   -5.2812    0.0522    0.0000 C   0  0  0  0  0  0  0  0  0  0  0  0
   -4.6230    1.5313    0.0000 C   0  0  0  0  0  0  0  0  0  0  0  0
   -2.2897   -1.7853    0.0000 C   0  0  0  0  0  0  0  0  0  0  0  0
   -5.4897    1.0310    0.0000 C   0  0  0  0  0  0  0  0  0  0  0  0
    2.8937   -1.2146    0.0000 C   0  0  0  0  0  0  0  0  0  0  0  0
    4.6228    0.7854    0.0000 C   0  0  0  0  0  0  0  0  0  0  0  0
    4.6228   -1.2146    0.0000 C   0  0  0  0  0  0  0  0  0  0  0  0
    5.4897    0.2853    0.0000 C   0  0  0  0  0  0  0  0  0  0  0  0
    5.4897   -0.7147    0.0000 C   0  0  0  0  0  0  0  0  0  0  0  0
  1  2  2  0
  2  3  1  0
  4  5  2  0
  3  4  1  0
  1  5  1  0
  1  6  1  0
  6  7  1  0
  8 10  1  0
  7  9  1  0
  4 10  1  0
  3 11  1  0
  9 12  1  0
 13 18  1  0
  7 14  1  0
 13 15  1  0
  6 16  2  0
 17 23  1  0
 12 17  2  0
  8 18  1  0
 13 19  2  0
 15 20  1  0
 11 21  1  0
  8 21  1  0
 19 22  1  0
 20 22  2  0
 14 23  1  0
 12 24  1  0
 17 25  1  0
 24 26  2  0
 25 27  2  0
 26 27  1  0
M  END
>  <IDNUMBER>  (333) 
SB71-0491

>  <available>  (333) 
24

>  <H_acceptor>  (333) 
5

>  <H_donor>  (333) 
0

>  <B_rotN>  (333) 
4

>  <N_O>  (333) 
6

>  <logP>  (333) 
2.3295

>  <logD>  (333) 
2.3223

>  <logSw>  (333) 
-2.661

>  <PSA>  (333) 
41.501

>  <pKa_ma>  (333) 
25.6071

>  <pKa_mb>  (333) 
5.6229

>  <N_Chirals>  (333) 
0

>  <Name>  (333) 
(3,4-dihydroisoquinolin-2(1H)-yl){5-[(furan-2-yl)methyl]-4,5,6,7-tetrahydropyrazolo[1,5-a]pyrazin-2-yl}methanone

>  <Smile>  (333) 
O=C(c1nn(CCN(Cc2ccco2)C2)c2c1)N(CC1)Cc2c1cccc2

>  <Color>  (333) 
BROWN

>  <Collection>  (333) 
IC

>  <InChI>  (333) 
InChI=1S/C21H22N4O2/c26-21(24-8-7-16-4-1-2-5-17(16)13-24)20-12-18-14-23(9-10-25(18)22-20)15-19-6-3-11-27-19/h1-6,11-12H,7-10,13-15H2

>  <InChI Key>  (333) 
JCAJYKLKJIZRTG-UHFFFAOYSA-N

>  <PERCENTSP3>  (333) 
33.33

>  <Link>  (333) 
https://www.chemdiv.com/catalog/screening-compounds/compound-SB71-0491/

>  <MFCDNUMBER>  (333) 
MFCD32249241

>  <CLNUMBER>  (333) 
CM5543

>  <STEREO>  (333) 
ACHIRAL

>  <State>  (333) 
Solid

>  <Similarity score>  (333) 
0.27

$$$$
(3,4-dihydroisoquinolin-2(1H)-yl){5-[(4-methyl-1,3-thiazol-5-yl)methyl]-4,5,6,7-
     RDKit          2D

 28 32  0  0  0  0  0  0  0  0999 V2000
   -0.2939   -0.2855    0.0000 C   0  0  0  0  0  0  0  0  0  0  0  0
   -0.1896    0.7104    0.0000 N   0  0  0  0  0  0  0  0  0  0  0  0
    0.7896    0.9185    0.0000 N   0  0  0  0  0  0  0  0  0  0  0  0
    1.2895    0.0521    0.0000 C   0  0  0  0  0  0  0  0  0  0  0  0
    0.6186   -0.6896    0.0000 C   0  0  0  0  0  0  0  0  0  0  0  0
   -1.1603   -0.7853    0.0000 C   0  0  0  0  0  0  0  0  0  0  0  0
   -2.0270   -0.2855    0.0000 N   0  0  0  0  0  0  0  0  0  0  0  0
    4.2893    0.0521    0.0000 C   0  0  0  0  0  0  0  0  0  0  0  0
    2.7895    0.9185    0.0000 N   0  0  0  0  0  0  0  0  0  0  0  0
    4.6226   -1.5314    0.0000 N   0  0  0  0  0  0  0  0  0  0  0  0
    3.8812   -0.8605    0.0000 C   0  0  0  0  0  0  0  0  0  0  0  0
    5.2812   -0.0521    0.0000 S   0  0  0  0  0  0  0  0  0  0  0  0
   -2.8938   -0.7853    0.0000 C   0  0  0  0  0  0  0  0  0  0  0  0
    5.4895   -1.0313    0.0000 C   0  0  0  0  0  0  0  0  0  0  0  0
    2.2895    0.0521    0.0000 C   0  0  0  0  0  0  0  0  0  0  0  0
    3.7894    0.9185    0.0000 C   0  0  0  0  0  0  0  0  0  0  0  0
    1.2895    1.7853    0.0000 C   0  0  0  0  0  0  0  0  0  0  0  0
   -3.7603   -0.2855    0.0000 C   0  0  0  0  0  0  0  0  0  0  0  0
   -2.0270    0.7145    0.0000 C   0  0  0  0  0  0  0  0  0  0  0  0
   -1.1603   -1.7853    0.0000 O   0  0  0  0  0  0  0  0  0  0  0  0
   -3.7603    0.7145    0.0000 C   0  0  0  0  0  0  0  0  0  0  0  0
    2.2895    1.7853    0.0000 C   0  0  0  0  0  0  0  0  0  0  0  0
   -2.8938    1.2145    0.0000 C   0  0  0  0  0  0  0  0  0  0  0  0
    2.9019   -1.0689    0.0000 C   0  0  0  0  0  0  0  0  0  0  0  0
   -4.6228   -0.7853    0.0000 C   0  0  0  0  0  0  0  0  0  0  0  0
   -4.6228    1.2145    0.0000 C   0  0  0  0  0  0  0  0  0  0  0  0
   -5.4895   -0.2855    0.0000 C   0  0  0  0  0  0  0  0  0  0  0  0
   -5.4895    0.7145    0.0000 C   0  0  0  0  0  0  0  0  0  0  0  0
  1  2  2  0
  2  3  1  0
  4  5  2  0
  3  4  1  0
  1  5  1  0
  1  6  1  0
  6  7  1  0
  8 16  1  0
  9 15  1  0
 10 11  1  0
  8 11  2  0
  8 12  1  0
  7 13  1  0
 12 14  1  0
 10 14  2  0
  4 15  1  0
  9 16  1  0
  3 17  1  0
 13 18  1  0
  7 19  1  0
  6 20  2  0
 21 23  1  0
 18 21  2  0
 17 22  1  0
  9 22  1  0
 19 23  1  0
 11 24  1  0
 18 25  1  0
 21 26  1  0
 25 27  2  0
 26 28  2  0
 27 28  1  0
M  END
>  <IDNUMBER>  (334) 
SB71-0441

>  <available>  (334) 
12

>  <H_acceptor>  (334) 
5

>  <H_donor>  (334) 
0

>  <B_rotN>  (334) 
4

>  <N_O>  (334) 
6

>  <logP>  (334) 
2.2298

>  <logD>  (334) 
2.2072

>  <logSw>  (334) 
-2.6298

>  <PSA>  (334) 
43.957

>  <pKa_ma>  (334) 
25.6071

>  <pKa_mb>  (334) 
6.1274

>  <N_Chirals>  (334) 
0

>  <Name>  (334) 
(3,4-dihydroisoquinolin-2(1H)-yl){5-[(4-methyl-1,3-thiazol-5-yl)methyl]-4,5,6,7-tetrahydropyrazolo[1,5-a]pyrazin-2-yl}methanone

>  <Smile>  (334) 
Cc1c(CN2Cc3cc(C(N(CC4)Cc5c4cccc5)=O)nn3CC2)scn1

>  <Color>  (334) 
ORANGE

>  <Collection>  (334) 
IC

>  <InChI>  (334) 
InChI=1S/C21H23N5OS/c1-15-20(28-14-22-15)13-24-8-9-26-18(12-24)10-19(23-26)21(27)25-7-6-16-4-2-3-5-17(16)11-25/h2-5,10,14H,6-9,11-13H2,1H3

>  <InChI Key>  (334) 
QWSQEEZRHZOKIY-UHFFFAOYSA-N

>  <PERCENTSP3>  (334) 
38.1

>  <Link>  (334) 
https://www.chemdiv.com/catalog/screening-compounds/compound-SB71-0441/

>  <MFCDNUMBER>  (334) 
MFCD32249639

>  <CLNUMBER>  (334) 
CM5543

>  <STEREO>  (334) 
ACHIRAL

>  <State>  (334) 
Solid

>  <Similarity score>  (334) 
0.27

$$$$
(3,4-dihydroisoquinolin-2(1H)-yl){5-[(pyridin-3-yl)methyl]-4,5,6,7-tetrahydropyr
     RDKit          2D

 28 32  0  0  0  0  0  0  0  0999 V2000
   -0.2646    0.2437    0.0000 C   0  0  0  0  0  0  0  0  0  0  0  0
   -0.6731   -0.6732    0.0000 N   0  0  0  0  0  0  0  0  0  0  0  0
    0.0688   -1.3400    0.0000 N   0  0  0  0  0  0  0  0  0  0  0  0
    0.9359   -0.8399    0.0000 C   0  0  0  0  0  0  0  0  0  0  0  0
    0.7274    0.1395    0.0000 C   0  0  0  0  0  0  0  0  0  0  0  0
   -0.7647    1.1065    0.0000 C   0  0  0  0  0  0  0  0  0  0  0  0
   -1.7649    1.1065    0.0000 N   0  0  0  0  0  0  0  0  0  0  0  0
    1.8028   -2.3402    0.0000 N   0  0  0  0  0  0  0  0  0  0  0  0
   -2.2650    1.9734    0.0000 C   0  0  0  0  0  0  0  0  0  0  0  0
    1.8028   -1.3400    0.0000 C   0  0  0  0  0  0  0  0  0  0  0  0
    0.0688   -2.3402    0.0000 C   0  0  0  0  0  0  0  0  0  0  0  0
   -3.2654    1.9734    0.0000 C   0  0  0  0  0  0  0  0  0  0  0  0
   -2.2650    0.2437    0.0000 C   0  0  0  0  0  0  0  0  0  0  0  0
   -0.2646    1.9734    0.0000 O   0  0  0  0  0  0  0  0  0  0  0  0
   -3.7655    1.1065    0.0000 C   0  0  0  0  0  0  0  0  0  0  0  0
    2.6695   -2.8403    0.0000 C   0  0  0  0  0  0  0  0  0  0  0  0
    4.4033   -0.8399    0.0000 N   0  0  0  0  0  0  0  0  0  0  0  0
    0.9359   -2.8403    0.0000 C   0  0  0  0  0  0  0  0  0  0  0  0
   -3.2654    0.2437    0.0000 C   0  0  0  0  0  0  0  0  0  0  0  0
    3.5364   -2.3402    0.0000 C   0  0  0  0  0  0  0  0  0  0  0  0
    3.5364   -1.3400    0.0000 C   0  0  0  0  0  0  0  0  0  0  0  0
   -3.7655    2.8403    0.0000 C   0  0  0  0  0  0  0  0  0  0  0  0
    5.2660   -1.3400    0.0000 C   0  0  0  0  0  0  0  0  0  0  0  0
   -4.7657    1.1065    0.0000 C   0  0  0  0  0  0  0  0  0  0  0  0
    4.4033   -2.8403    0.0000 C   0  0  0  0  0  0  0  0  0  0  0  0
    5.2660   -2.3402    0.0000 C   0  0  0  0  0  0  0  0  0  0  0  0
   -4.7657    2.8403    0.0000 C   0  0  0  0  0  0  0  0  0  0  0  0
   -5.2660    1.9734    0.0000 C   0  0  0  0  0  0  0  0  0  0  0  0
  1  2  2  0
  2  3  1  0
  4  5  2  0
  3  4  1  0
  1  5  1  0
  1  6  1  0
  6  7  1  0
  8 10  1  0
  7  9  1  0
  4 10  1  0
  3 11  1  0
  9 12  1  0
  7 13  1  0
  6 14  2  0
 15 19  1  0
 12 15  2  0
  8 16  1  0
 17 21  2  0
 11 18  1  0
  8 18  1  0
 13 19  1  0
 16 20  1  0
 20 21  1  0
 12 22  1  0
 23 26  2  0
 17 23  1  0
 15 24  1  0
 20 25  2  0
 25 26  1  0
 22 27  2  0
 24 28  2  0
 27 28  1  0
M  END
>  <IDNUMBER>  (335) 
SB71-0399

>  <available>  (335) 
9

>  <H_acceptor>  (335) 
5

>  <H_donor>  (335) 
0

>  <B_rotN>  (335) 
4

>  <N_O>  (335) 
6

>  <logP>  (335) 
1.6088

>  <logD>  (335) 
1.6035

>  <logSw>  (335) 
-1.3811

>  <PSA>  (335) 
43.27

>  <pKa_ma>  (335) 
25.1741

>  <pKa_mb>  (335) 
5.4893

>  <N_Chirals>  (335) 
0

>  <Name>  (335) 
(3,4-dihydroisoquinolin-2(1H)-yl){5-[(pyridin-3-yl)methyl]-4,5,6,7-tetrahydropyrazolo[1,5-a]pyrazin-2-yl}methanone

>  <Smile>  (335) 
O=C(c1nn(CCN(Cc2cnccc2)C2)c2c1)N(CC1)Cc2c1cccc2

>  <Color>  (335) 
YELLOW

>  <Collection>  (335) 
IC

>  <InChI>  (335) 
InChI=1S/C22H23N5O/c28-22(26-9-7-18-5-1-2-6-19(18)15-26)21-12-20-16-25(10-11-27(20)24-21)14-17-4-3-8-23-13-17/h1-6,8,12-13H,7,9-11,14-16H2

>  <InChI Key>  (335) 
AEDLKAQRJNFZRJ-UHFFFAOYSA-N

>  <PERCENTSP3>  (335) 
31.82

>  <Link>  (335) 
https://www.chemdiv.com/catalog/screening-compounds/compound-SB71-0399/

>  <MFCDNUMBER>  (335) 
MFCD32249543

>  <CLNUMBER>  (335) 
CM5543

>  <STEREO>  (335) 
ACHIRAL

>  <State>  (335) 
Oil

>  <Similarity score>  (335) 
0.27

$$$$
(3,4-dihydroisoquinolin-2(1H)-yl)[5-(oxan-4-yl)-4,5,6,7-tetrahydropyrazolo[1,5-a
     RDKit          2D

 27 31  0  0  0  0  0  0  0  0999 V2000
    0.4437    0.2855    0.0000 C   0  0  0  0  0  0  0  0  0  0  0  0
    0.3396   -0.7103    0.0000 N   0  0  0  0  0  0  0  0  0  0  0  0
   -1.1394   -0.0522    0.0000 C   0  0  0  0  0  0  0  0  0  0  0  0
   -0.6397   -0.9188    0.0000 N   0  0  0  0  0  0  0  0  0  0  0  0
   -0.4686    0.6895    0.0000 C   0  0  0  0  0  0  0  0  0  0  0  0
    1.3104    0.7854    0.0000 C   0  0  0  0  0  0  0  0  0  0  0  0
    2.1770    0.2855    0.0000 N   0  0  0  0  0  0  0  0  0  0  0  0
   -2.6394   -0.9188    0.0000 N   0  0  0  0  0  0  0  0  0  0  0  0
   -2.1393   -0.0522    0.0000 C   0  0  0  0  0  0  0  0  0  0  0  0
    3.0394    0.7854    0.0000 C   0  0  0  0  0  0  0  0  0  0  0  0
   -1.1394   -1.7853    0.0000 C   0  0  0  0  0  0  0  0  0  0  0  0
    3.9059    0.2855    0.0000 C   0  0  0  0  0  0  0  0  0  0  0  0
   -2.1393   -1.7853    0.0000 C   0  0  0  0  0  0  0  0  0  0  0  0
    2.1770   -0.7146    0.0000 C   0  0  0  0  0  0  0  0  0  0  0  0
   -3.6393   -0.9188    0.0000 C   0  0  0  0  0  0  0  0  0  0  0  0
    1.3104    1.7853    0.0000 O   0  0  0  0  0  0  0  0  0  0  0  0
    3.9059   -0.7146    0.0000 C   0  0  0  0  0  0  0  0  0  0  0  0
    3.0394   -1.2143    0.0000 C   0  0  0  0  0  0  0  0  0  0  0  0
   -5.6390   -0.9188    0.0000 O   0  0  0  0  0  0  0  0  0  0  0  0
   -4.1392   -1.7853    0.0000 C   0  0  0  0  0  0  0  0  0  0  0  0
   -4.1392   -0.0522    0.0000 C   0  0  0  0  0  0  0  0  0  0  0  0
   -5.1391   -1.7853    0.0000 C   0  0  0  0  0  0  0  0  0  0  0  0
   -5.1391   -0.0522    0.0000 C   0  0  0  0  0  0  0  0  0  0  0  0
    4.7724    0.7854    0.0000 C   0  0  0  0  0  0  0  0  0  0  0  0
    4.7724   -1.2143    0.0000 C   0  0  0  0  0  0  0  0  0  0  0  0
    5.6390    0.2855    0.0000 C   0  0  0  0  0  0  0  0  0  0  0  0
    5.6390   -0.7146    0.0000 C   0  0  0  0  0  0  0  0  0  0  0  0
  1  2  2  0
  3  5  2  0
  3  4  1  0
  2  4  1  0
  1  5  1  0
  1  6  1  0
  6  7  1  0
  8  9  1  0
  3  9  1  0
  7 10  1  0
  4 11  1  0
 10 12  1  0
 11 13  1  0
  8 13  1  0
  7 14  1  0
  8 15  1  0
  6 16  2  0
 17 18  1  0
 12 17  2  0
 14 18  1  0
 19 23  1  0
 15 20  1  0
 15 21  1  0
 20 22  1  0
 19 22  1  0
 21 23  1  0
 12 24  1  0
 17 25  1  0
 24 26  2  0
 25 27  2  0
 26 27  1  0
M  END
>  <IDNUMBER>  (336) 
SB71-0400

>  <available>  (336) 
51

>  <H_acceptor>  (336) 
5

>  <H_donor>  (336) 
0

>  <B_rotN>  (336) 
3

>  <N_O>  (336) 
6

>  <logP>  (336) 
1.6584

>  <logD>  (336) 
1.3603

>  <logSw>  (336) 
-2.1152

>  <PSA>  (336) 
41.214

>  <pKa_ma>  (336) 
25.6071

>  <pKa_mb>  (336) 
7.3941

>  <N_Chirals>  (336) 
0

>  <Name>  (336) 
(3,4-dihydroisoquinolin-2(1H)-yl)[5-(oxan-4-yl)-4,5,6,7-tetrahydropyrazolo[1,5-a]pyrazin-2-yl]methanone

>  <Smile>  (336) 
O=C(c1nn(CCN(C2)C3CCOCC3)c2c1)N(CC1)Cc2c1cccc2

>  <Color>  (336) 
ORANGE

>  <Collection>  (336) 
IC

>  <InChI>  (336) 
InChI=1S/C21H26N4O2/c26-21(24-8-5-16-3-1-2-4-17(16)14-24)20-13-19-15-23(9-10-25(19)22-20)18-6-11-27-12-7-18/h1-4,13,18H,5-12,14-15H2

>  <InChI Key>  (336) 
CFBNVSKHCAUJAM-UHFFFAOYSA-N

>  <PERCENTSP3>  (336) 
52.38

>  <Link>  (336) 
https://www.chemdiv.com/catalog/screening-compounds/compound-SB71-0400/

>  <MFCDNUMBER>  (336) 
MFCD32249544

>  <CLNUMBER>  (336) 
CM5543

>  <STEREO>  (336) 
ACHIRAL

>  <State>  (336) 
Oil

>  <Similarity score>  (336) 
0.27

$$$$
(3,4-dihydroisoquinolin-2(1H)-yl){5-[(thiophen-2-yl)methyl]-4,5,6,7-tetrahydropy
     RDKit          2D

 27 31  0  0  0  0  0  0  0  0999 V2000
    0.2939    0.2853    0.0000 C   0  0  0  0  0  0  0  0  0  0  0  0
    0.1896   -0.7104    0.0000 N   0  0  0  0  0  0  0  0  0  0  0  0
   -0.7897   -0.9188    0.0000 N   0  0  0  0  0  0  0  0  0  0  0  0
   -1.2897   -0.0522    0.0000 C   0  0  0  0  0  0  0  0  0  0  0  0
   -0.6188    0.6896    0.0000 C   0  0  0  0  0  0  0  0  0  0  0  0
    1.1604    0.7854    0.0000 C   0  0  0  0  0  0  0  0  0  0  0  0
    2.0271    0.2853    0.0000 N   0  0  0  0  0  0  0  0  0  0  0  0
   -2.7896   -0.9188    0.0000 N   0  0  0  0  0  0  0  0  0  0  0  0
    2.8937    0.7854    0.0000 C   0  0  0  0  0  0  0  0  0  0  0  0
   -2.2897   -0.0522    0.0000 C   0  0  0  0  0  0  0  0  0  0  0  0
   -1.2897   -1.7853    0.0000 C   0  0  0  0  0  0  0  0  0  0  0  0
   -5.2812    0.0522    0.0000 S   0  0  0  0  0  0  0  0  0  0  0  0
   -4.2897   -0.0522    0.0000 C   0  0  0  0  0  0  0  0  0  0  0  0
    3.7604    0.2853    0.0000 C   0  0  0  0  0  0  0  0  0  0  0  0
    2.0271   -0.7147    0.0000 C   0  0  0  0  0  0  0  0  0  0  0  0
    1.1604    1.7853    0.0000 O   0  0  0  0  0  0  0  0  0  0  0  0
    3.7604   -0.7147    0.0000 C   0  0  0  0  0  0  0  0  0  0  0  0
   -3.7896   -0.9188    0.0000 C   0  0  0  0  0  0  0  0  0  0  0  0
   -5.4897    1.0310    0.0000 C   0  0  0  0  0  0  0  0  0  0  0  0
   -3.8812    0.8603    0.0000 C   0  0  0  0  0  0  0  0  0  0  0  0
   -2.2897   -1.7853    0.0000 C   0  0  0  0  0  0  0  0  0  0  0  0
   -4.6230    1.5313    0.0000 C   0  0  0  0  0  0  0  0  0  0  0  0
    2.8937   -1.2146    0.0000 C   0  0  0  0  0  0  0  0  0  0  0  0
    4.6228    0.7854    0.0000 C   0  0  0  0  0  0  0  0  0  0  0  0
    4.6228   -1.2146    0.0000 C   0  0  0  0  0  0  0  0  0  0  0  0
    5.4897    0.2853    0.0000 C   0  0  0  0  0  0  0  0  0  0  0  0
    5.4897   -0.7147    0.0000 C   0  0  0  0  0  0  0  0  0  0  0  0
  1  2  2  0
  2  3  1  0
  4  5  2  0
  3  4  1  0
  1  5  1  0
  1  6  1  0
  6  7  1  0
  8 10  1  0
  7  9  1  0
  4 10  1  0
  3 11  1  0
 12 13  1  0
 13 18  1  0
  9 14  1  0
  7 15  1  0
  6 16  2  0
 17 23  1  0
 14 17  2  0
  8 18  1  0
 12 19  1  0
 19 22  2  0
 13 20  2  0
 11 21  1  0
  8 21  1  0
 20 22  1  0
 15 23  1  0
 14 24  1  0
 17 25  1  0
 24 26  2  0
 25 27  2  0
 26 27  1  0
M  END
>  <IDNUMBER>  (337) 
SB71-0412

>  <available>  (337) 
107

>  <H_acceptor>  (337) 
4

>  <H_donor>  (337) 
0

>  <B_rotN>  (337) 
4

>  <N_O>  (337) 
5

>  <logP>  (337) 
2.7508

>  <logD>  (337) 
2.7359

>  <logSw>  (337) 
-2.9716

>  <PSA>  (337) 
34.77

>  <pKa_ma>  (337) 
25.6071

>  <pKa_mb>  (337) 
5.9402

>  <N_Chirals>  (337) 
0

>  <Name>  (337) 
(3,4-dihydroisoquinolin-2(1H)-yl){5-[(thiophen-2-yl)methyl]-4,5,6,7-tetrahydropyrazolo[1,5-a]pyrazin-2-yl}methanone

>  <Smile>  (337) 
O=C(c1nn(CCN(Cc2cccs2)C2)c2c1)N(CC1)Cc2c1cccc2

>  <Color>  (337) 
ORANGE

>  <Collection>  (337) 
IC

>  <InChI>  (337) 
InChI=1S/C21H22N4OS/c26-21(24-8-7-16-4-1-2-5-17(16)13-24)20-12-18-14-23(9-10-25(18)22-20)15-19-6-3-11-27-19/h1-6,11-12H,7-10,13-15H2

>  <InChI Key>  (337) 
ZEOYJWAINOUJGG-UHFFFAOYSA-N

>  <PERCENTSP3>  (337) 
33.33

>  <Link>  (337) 
https://www.chemdiv.com/catalog/screening-compounds/compound-SB71-0412/

>  <MFCDNUMBER>  (337) 
MFCD32249571

>  <CLNUMBER>  (337) 
CM5543

>  <STEREO>  (337) 
ACHIRAL

>  <State>  (337) 
Oil

>  <Similarity score>  (337) 
0.27

$$$$
(morpholin-4-yl)(5-{[4-(propan-2-yl)phenyl]methyl}-4,5,6,7-tetrahydropyrazolo[1,
     RDKit          2D

 27 30  0  0  0  0  0  0  0  0999 V2000
    1.8818   -0.6772    0.0000 C   0  0  0  0  0  0  0  0  0  0  0  0
    2.2902    0.2397    0.0000 N   0  0  0  0  0  0  0  0  0  0  0  0
    1.5482    0.9063    0.0000 N   0  0  0  0  0  0  0  0  0  0  0  0
    0.6814    0.4062    0.0000 C   0  0  0  0  0  0  0  0  0  0  0  0
    0.8898   -0.5691    0.0000 C   0  0  0  0  0  0  0  0  0  0  0  0
    2.3821   -1.5400    0.0000 C   0  0  0  0  0  0  0  0  0  0  0  0
    3.3823   -1.5400    0.0000 N   0  0  0  0  0  0  0  0  0  0  0  0
   -0.1855    1.9069    0.0000 N   0  0  0  0  0  0  0  0  0  0  0  0
   -0.1855    0.9063    0.0000 C   0  0  0  0  0  0  0  0  0  0  0  0
    1.5482    1.9069    0.0000 C   0  0  0  0  0  0  0  0  0  0  0  0
    1.8818   -2.4070    0.0000 O   0  0  0  0  0  0  0  0  0  0  0  0
   -3.6533    0.9063    0.0000 C   0  0  0  0  0  0  0  0  0  0  0  0
    0.6814    2.4070    0.0000 C   0  0  0  0  0  0  0  0  0  0  0  0
   -1.0523    2.4070    0.0000 C   0  0  0  0  0  0  0  0  0  0  0  0
    5.3828   -1.5400    0.0000 O   0  0  0  0  0  0  0  0  0  0  0  0
   -3.6533    1.9069    0.0000 C   0  0  0  0  0  0  0  0  0  0  0  0
   -2.7863    0.4062    0.0000 C   0  0  0  0  0  0  0  0  0  0  0  0
   -1.9195    1.9069    0.0000 C   0  0  0  0  0  0  0  0  0  0  0  0
   -4.5160    0.4062    0.0000 C   0  0  0  0  0  0  0  0  0  0  0  0
   -2.7863    2.4070    0.0000 C   0  0  0  0  0  0  0  0  0  0  0  0
   -1.9195    0.9063    0.0000 C   0  0  0  0  0  0  0  0  0  0  0  0
    3.8824   -2.4070    0.0000 C   0  0  0  0  0  0  0  0  0  0  0  0
    3.8824   -0.6772    0.0000 C   0  0  0  0  0  0  0  0  0  0  0  0
    4.8826   -0.6772    0.0000 C   0  0  0  0  0  0  0  0  0  0  0  0
    4.8826   -2.4070    0.0000 C   0  0  0  0  0  0  0  0  0  0  0  0
   -4.5160   -0.5940    0.0000 C   0  0  0  0  0  0  0  0  0  0  0  0
   -5.3828    0.9063    0.0000 C   0  0  0  0  0  0  0  0  0  0  0  0
  1  2  2  0
  2  3  1  0
  4  5  2  0
  3  4  1  0
  1  5  1  0
  1  6  1  0
  6  7  1  0
  8  9  1  0
  4  9  1  0
  3 10  1  0
  6 11  2  0
 12 17  1  0
 12 16  2  0
 10 13  1  0
  8 13  1  0
  8 14  1  0
 15 24  1  0
 15 25  1  0
 16 20  1  0
 17 21  2  0
 14 18  1  0
 12 19  1  0
 18 20  2  0
 18 21  1  0
  7 22  1  0
  7 23  1  0
 23 24  1  0
 22 25  1  0
 19 26  1  0
 19 27  1  0
M  END
>  <IDNUMBER>  (338) 
SB71-0215

>  <available>  (338) 
17

>  <H_acceptor>  (338) 
5

>  <H_donor>  (338) 
0

>  <B_rotN>  (338) 
5

>  <N_O>  (338) 
6

>  <logP>  (338) 
2.2322

>  <logD>  (338) 
2.1577

>  <logSw>  (338) 
-2.6572

>  <PSA>  (338) 
41.999

>  <pKa_ma>  (338) 
24.078

>  <pKa_mb>  (338) 
6.6724

>  <N_Chirals>  (338) 
0

>  <Name>  (338) 
(morpholin-4-yl)(5-{[4-(propan-2-yl)phenyl]methyl}-4,5,6,7-tetrahydropyrazolo[1,5-a]pyrazin-2-yl)methanone

>  <Smile>  (338) 
CC(C)c1ccc(CN2Cc3cc(C(N4CCOCC4)=O)nn3CC2)cc1

>  <Color>  (338) 
ORANGE

>  <Collection>  (338) 
IC

>  <InChI>  (338) 
InChI=1S/C21H28N4O2/c1-16(2)18-5-3-17(4-6-18)14-23-7-8-25-19(15-23)13-20(22-25)21(26)24-9-11-27-12-10-24/h3-6,13,16H,7-12,14-15H2,1-2H3

>  <InChI Key>  (338) 
PCNNAZZWJXJWMJ-UHFFFAOYSA-N

>  <PERCENTSP3>  (338) 
52.38

>  <Link>  (338) 
https://www.chemdiv.com/catalog/screening-compounds/compound-SB71-0215/

>  <MFCDNUMBER>  (338) 
MFCD32249596

>  <CLNUMBER>  (338) 
CM5543

>  <STEREO>  (338) 
ACHIRAL

>  <State>  (338) 
Solid

>  <Similarity score>  (338) 
0.27

$$$$
[2-(3,4-dihydroisoquinoline-2(1H)-carbonyl)-6,7-dihydropyrazolo[1,5-a]pyrazin-5(
     RDKit          2D

 32 36  0  0  0  0  0  0  0  0999 V2000
    1.1295    0.7440    0.0000 C   0  0  0  0  0  0  0  0  0  0  0  0
    1.5381   -0.1730    0.0000 N   0  0  0  0  0  0  0  0  0  0  0  0
   -0.0709   -0.3397    0.0000 C   0  0  0  0  0  0  0  0  0  0  0  0
    0.7961   -0.8400    0.0000 N   0  0  0  0  0  0  0  0  0  0  0  0
    0.1376    0.6356    0.0000 C   0  0  0  0  0  0  0  0  0  0  0  0
    1.6298    1.6068    0.0000 C   0  0  0  0  0  0  0  0  0  0  0  0
   -0.9379   -1.8402    0.0000 N   0  0  0  0  0  0  0  0  0  0  0  0
    2.6302    1.6068    0.0000 N   0  0  0  0  0  0  0  0  0  0  0  0
   -1.8050   -2.3405    0.0000 C   0  0  0  0  0  0  0  0  0  0  0  0
   -0.9379   -0.8400    0.0000 C   0  0  0  0  0  0  0  0  0  0  0  0
   -2.6718   -1.8402    0.0000 C   0  0  0  0  0  0  0  0  0  0  0  0
    3.1303    2.4739    0.0000 C   0  0  0  0  0  0  0  0  0  0  0  0
    0.7961   -1.8402    0.0000 C   0  0  0  0  0  0  0  0  0  0  0  0
   -3.5388   -2.3405    0.0000 C   0  0  0  0  0  0  0  0  0  0  0  0
   -4.4017   -1.8402    0.0000 C   0  0  0  0  0  0  0  0  0  0  0  0
    4.1307    2.4739    0.0000 C   0  0  0  0  0  0  0  0  0  0  0  0
   -0.0709   -2.3405    0.0000 C   0  0  0  0  0  0  0  0  0  0  0  0
    3.1303    0.7440    0.0000 C   0  0  0  0  0  0  0  0  0  0  0  0
    1.1295    2.4739    0.0000 O   0  0  0  0  0  0  0  0  0  0  0  0
   -1.8050   -3.3409    0.0000 O   0  0  0  0  0  0  0  0  0  0  0  0
   -4.4017   -0.8400    0.0000 C   0  0  0  0  0  0  0  0  0  0  0  0
    4.6310    1.6068    0.0000 C   0  0  0  0  0  0  0  0  0  0  0  0
   -2.6718   -0.8400    0.0000 C   0  0  0  0  0  0  0  0  0  0  0  0
    4.1307    0.7440    0.0000 C   0  0  0  0  0  0  0  0  0  0  0  0
   -3.5388   -0.3397    0.0000 C   0  0  0  0  0  0  0  0  0  0  0  0
   -5.2687   -2.3405    0.0000 F   0  0  0  0  0  0  0  0  0  0  0  0
   -5.2687   -0.3397    0.0000 O   0  0  0  0  0  0  0  0  0  0  0  0
    4.6310    3.3409    0.0000 C   0  0  0  0  0  0  0  0  0  0  0  0
    5.6314    1.6068    0.0000 C   0  0  0  0  0  0  0  0  0  0  0  0
   -6.1315   -0.8400    0.0000 C   0  0  0  0  0  0  0  0  0  0  0  0
    5.6314    3.3409    0.0000 C   0  0  0  0  0  0  0  0  0  0  0  0
    6.1315    2.4739    0.0000 C   0  0  0  0  0  0  0  0  0  0  0  0
  1  2  2  0
  3  5  2  0
  3  4  1  0
  2  4  1  0
  1  5  1  0
  1  6  1  0
  7 10  1  0
  6  8  1  0
  7  9  1  0
  3 10  1  0
  9 11  1  0
  8 12  1  0
  4 13  1  0
 11 14  2  0
 14 15  1  0
 15 21  2  0
 12 16  1  0
 13 17  1  0
  7 17  1  0
  8 18  1  0
  6 19  2  0
  9 20  2  0
 21 25  1  0
 22 24  1  0
 16 22  2  0
 11 23  1  0
 18 24  1  0
 23 25  2  0
 15 26  1  0
 21 27  1  0
 16 28  1  0
 22 29  1  0
 27 30  1  0
 28 31  2  0
 29 32  2  0
 31 32  1  0
M  END
>  <IDNUMBER>  (339) 
SB71-0436

>  <available>  (339) 
22

>  <H_acceptor>  (339) 
6

>  <H_donor>  (339) 
0

>  <B_rotN>  (339) 
5

>  <N_O>  (339) 
7

>  <logP>  (339) 
2.4175

>  <logD>  (339) 
2.4175

>  <logSw>  (339) 
-2.7692

>  <PSA>  (339) 
54.298

>  <pKa_ma>  (339) 
25.6071

>  <pKa_mb>  (339) 
-4.5639

>  <N_Chirals>  (339) 
0

>  <Name>  (339) 
[2-(3,4-dihydroisoquinoline-2(1H)-carbonyl)-6,7-dihydropyrazolo[1,5-a]pyrazin-5(4H)-yl](3-fluoro-4-methoxyphenyl)methanone

>  <Smile>  (339) 
COc(ccc(C(N1Cc2cc(C(N(CC3)Cc4c3cccc4)=O)nn2CC1)=O)c1)c1F

>  <Color>  (339) 
NOT COLORED

>  <Collection>  (339) 
IC

>  <InChI>  (339) 
InChI=1S/C24H23FN4O3/c1-32-22-7-6-17(12-20(22)25)23(30)28-10-11-29-19(15-28)13-21(26-29)24(31)27-9-8-16-4-2-3-5-18(16)14-27/h2-7,12-13H,8-11,14-15H2,1H3

>  <InChI Key>  (339) 
HLDAPYMLNCJRNF-UHFFFAOYSA-N

>  <PERCENTSP3>  (339) 
29.17

>  <Link>  (339) 
https://www.chemdiv.com/catalog/screening-compounds/compound-SB71-0436/

>  <MFCDNUMBER>  (339) 
MFCD32249604

>  <CLNUMBER>  (339) 
CM5543

>  <STEREO>  (339) 
ACHIRAL

>  <State>  (339) 
Solid

>  <Similarity score>  (339) 
0.27

$$$$
5-[(1H-indol-3-yl)methyl]-N-(2-methoxyethyl)-4,5,6,7-tetrahydropyrazolo[1,5-a]py
     RDKit          2D

 26 29  0  0  0  0  0  0  0  0999 V2000
    2.7684   -1.4437    0.0000 C   0  0  0  0  0  0  0  0  0  0  0  0
    2.4601   -2.3935    0.0000 N   0  0  0  0  0  0  0  0  0  0  0  0
    1.4601   -2.3935    0.0000 N   0  0  0  0  0  0  0  0  0  0  0  0
    1.1520   -1.4437    0.0000 C   0  0  0  0  0  0  0  0  0  0  0  0
    1.9603   -0.8563    0.0000 C   0  0  0  0  0  0  0  0  0  0  0  0
   -1.7810   -0.8189    0.0000 C   0  0  0  0  0  0  0  0  0  0  0  0
   -1.7810    0.7977    0.0000 N   0  0  0  0  0  0  0  0  0  0  0  0
   -1.1936   -0.0105    0.0000 C   0  0  0  0  0  0  0  0  0  0  0  0
    3.7224   -1.1353    0.0000 C   0  0  0  0  0  0  0  0  0  0  0  0
   -0.4936   -1.9769    0.0000 N   0  0  0  0  0  0  0  0  0  0  0  0
   -2.7309   -0.5104    0.0000 C   0  0  0  0  0  0  0  0  0  0  0  0
    0.1728   -1.2354    0.0000 C   0  0  0  0  0  0  0  0  0  0  0  0
   -1.4727   -1.7728    0.0000 C   0  0  0  0  0  0  0  0  0  0  0  0
    0.7938   -3.1392    0.0000 C   0  0  0  0  0  0  0  0  0  0  0  0
   -2.7309    0.4895    0.0000 C   0  0  0  0  0  0  0  0  0  0  0  0
    4.4640   -1.8019    0.0000 O   0  0  0  0  0  0  0  0  0  0  0  0
   -0.1853   -2.9310    0.0000 C   0  0  0  0  0  0  0  0  0  0  0  0
    3.9308   -0.1564    0.0000 N   0  0  0  0  0  0  0  0  0  0  0  0
   -3.5976   -1.0104    0.0000 C   0  0  0  0  0  0  0  0  0  0  0  0
    2.6518    2.1600    0.0000 O   0  0  0  0  0  0  0  0  0  0  0  0
   -3.5976    0.9895    0.0000 C   0  0  0  0  0  0  0  0  0  0  0  0
    3.1851    0.5103    0.0000 C   0  0  0  0  0  0  0  0  0  0  0  0
    3.3933    1.4894    0.0000 C   0  0  0  0  0  0  0  0  0  0  0  0
    2.8600    3.1392    0.0000 C   0  0  0  0  0  0  0  0  0  0  0  0
   -4.4640   -0.5104    0.0000 C   0  0  0  0  0  0  0  0  0  0  0  0
   -4.4640    0.4895    0.0000 C   0  0  0  0  0  0  0  0  0  0  0  0
  1  2  2  0
  2  3  1  0
  4  5  2  0
  3  4  1  0
  1  5  1  0
  6 13  1  0
  7  8  1  0
  7 15  1  0
  6  8  2  0
  1  9  1  0
 10 12  1  0
  6 11  1  0
  4 12  1  0
 10 13  1  0
  3 14  1  0
 11 15  1  0
  9 16  2  0
 14 17  1  0
 10 17  1  0
  9 18  1  0
 11 19  2  0
 20 23  1  0
 15 21  2  0
 18 22  1  0
 22 23  1  0
 20 24  1  0
 19 25  1  0
 25 26  2  0
 21 26  1  0
M  END
>  <IDNUMBER>  (340) 
SB71-0317

>  <available>  (340) 
4

>  <H_acceptor>  (340) 
5

>  <H_donor>  (340) 
2

>  <B_rotN>  (340) 
7

>  <N_O>  (340) 
7

>  <logP>  (340) 
1.2257

>  <logD>  (340) 
0.8706

>  <logSw>  (340) 
-2.3228

>  <PSA>  (340) 
60.181

>  <pKa_ma>  (340) 
13.9875

>  <pKa_mb>  (340) 
7.502

>  <N_Chirals>  (340) 
0

>  <Name>  (340) 
5-[(1H-indol-3-yl)methyl]-N-(2-methoxyethyl)-4,5,6,7-tetrahydropyrazolo[1,5-a]pyrazine-2-carboxamide

>  <Smile>  (340) 
COCCNC(c1nn(CCN(Cc2c[nH]c3c2cccc3)C2)c2c1)=O

>  <Color>  (340) 
ORANGE

>  <Collection>  (340) 
IC

>  <InChI>  (340) 
InChI=1S/C19H23N5O2/c1-26-9-6-20-19(25)18-10-15-13-23(7-8-24(15)22-18)12-14-11-21-17-5-3-2-4-16(14)17/h2-5,10-11,21H,6-9,12-13H2,1H3,(H,20,25)

>  <InChI Key>  (340) 
XWWMRZNTHOLHNJ-UHFFFAOYSA-N

>  <PERCENTSP3>  (340) 
36.84

>  <Link>  (340) 
https://www.chemdiv.com/catalog/screening-compounds/compound-SB71-0317/

>  <MFCDNUMBER>  (340) 
MFCD32249386

>  <CLNUMBER>  (340) 
CM5543

>  <STEREO>  (340) 
ACHIRAL

>  <State>  (340) 
Oil

>  <Similarity score>  (340) 
0.27

$$$$
5-(1H-indole-5-carbonyl)-N,N-dimethyl-4,5,6,7-tetrahydropyrazolo[1,5-a]pyrazine-
     RDKit          2D

 25 28  0  0  0  0  0  0  0  0999 V2000
    2.1395   -1.1769    0.0000 C   0  0  0  0  0  0  0  0  0  0  0  0
    2.5437   -0.2603    0.0000 N   0  0  0  0  0  0  0  0  0  0  0  0
    0.9353   -0.0938    0.0000 C   0  0  0  0  0  0  0  0  0  0  0  0
    1.8020    0.4063    0.0000 N   0  0  0  0  0  0  0  0  0  0  0  0
    1.1437   -1.0726    0.0000 C   0  0  0  0  0  0  0  0  0  0  0  0
    0.0687    1.4063    0.0000 N   0  0  0  0  0  0  0  0  0  0  0  0
    2.6394   -2.0393    0.0000 C   0  0  0  0  0  0  0  0  0  0  0  0
   -0.7979    1.9062    0.0000 C   0  0  0  0  0  0  0  0  0  0  0  0
    0.0687    0.4063    0.0000 C   0  0  0  0  0  0  0  0  0  0  0  0
   -1.6645    1.4063    0.0000 C   0  0  0  0  0  0  0  0  0  0  0  0
    1.8020    1.4063    0.0000 C   0  0  0  0  0  0  0  0  0  0  0  0
   -2.5270   -0.0938    0.0000 C   0  0  0  0  0  0  0  0  0  0  0  0
   -1.6645    0.4063    0.0000 C   0  0  0  0  0  0  0  0  0  0  0  0
   -4.1395   -0.2603    0.0000 N   0  0  0  0  0  0  0  0  0  0  0  0
    0.9353    1.9062    0.0000 C   0  0  0  0  0  0  0  0  0  0  0  0
   -3.3936    0.4063    0.0000 C   0  0  0  0  0  0  0  0  0  0  0  0
    3.6394   -2.0393    0.0000 N   0  0  0  0  0  0  0  0  0  0  0  0
   -3.7312   -1.1769    0.0000 C   0  0  0  0  0  0  0  0  0  0  0  0
    2.1395   -2.9062    0.0000 O   0  0  0  0  0  0  0  0  0  0  0  0
   -0.7979    2.9062    0.0000 O   0  0  0  0  0  0  0  0  0  0  0  0
   -2.7354   -1.0726    0.0000 C   0  0  0  0  0  0  0  0  0  0  0  0
   -2.5270    1.9062    0.0000 C   0  0  0  0  0  0  0  0  0  0  0  0
   -3.3936    1.4063    0.0000 C   0  0  0  0  0  0  0  0  0  0  0  0
    4.1395   -1.1769    0.0000 C   0  0  0  0  0  0  0  0  0  0  0  0
    4.1395   -2.9062    0.0000 C   0  0  0  0  0  0  0  0  0  0  0  0
  1  2  2  0
  3  5  2  0
  3  4  1  0
  2  4  1  0
  1  5  1  0
  6  9  1  0
  1  7  1  0
  6  8  1  0
  3  9  1  0
  8 10  1  0
  4 11  1  0
 12 13  2  0
 10 13  1  0
 14 16  1  0
 11 15  1  0
  6 15  1  0
 16 23  2  0
 12 16  1  0
  7 17  1  0
 18 21  2  0
 14 18  1  0
  7 19  2  0
  8 20  2  0
 12 21  1  0
 10 22  2  0
 22 23  1  0
 17 24  1  0
 17 25  1  0
M  END
>  <IDNUMBER>  (341) 
SB71-0031

>  <available>  (341) 
49

>  <H_acceptor>  (341) 
5

>  <H_donor>  (341) 
1

>  <B_rotN>  (341) 
4

>  <N_O>  (341) 
7

>  <logP>  (341) 
-0.0138

>  <logD>  (341) 
-0.0138

>  <logSw>  (341) 
-2.1427

>  <PSA>  (341) 
56.139

>  <pKa_ma>  (341) 
17.0537

>  <pKa_mb>  (341) 
-2.791

>  <N_Chirals>  (341) 
0

>  <Name>  (341) 
5-(1H-indole-5-carbonyl)-N,N-dimethyl-4,5,6,7-tetrahydropyrazolo[1,5-a]pyrazine-2-carboxamide

>  <Smile>  (341) 
CN(C)C(c1nn(CCN(C2)C(c(cc3)cc4c3[nH]cc4)=O)c2c1)=O

>  <Color>  (341) 
NOT COLORED

>  <Collection>  (341) 
IC

>  <InChI>  (341) 
InChI=1S/C18H19N5O2/c1-21(2)18(25)16-10-14-11-22(7-8-23(14)20-16)17(24)13-3-4-15-12(9-13)5-6-19-15/h3-6,9-10,19H,7-8,11H2,1-2H3

>  <InChI Key>  (341) 
PUVZOXQPRHYALJ-UHFFFAOYSA-N

>  <PERCENTSP3>  (341) 
27.78

>  <Link>  (341) 
https://www.chemdiv.com/catalog/screening-compounds/compound-SB71-0031/

>  <MFCDNUMBER>  (341) 
MFCD32249162

>  <CLNUMBER>  (341) 
CM5543

>  <STEREO>  (341) 
ACHIRAL

>  <State>  (341) 
Solid

>  <Similarity score>  (341) 
0.27

$$$$
(3,4-dihydroisoquinolin-2(1H)-yl){5-[(3-methylthiophen-2-yl)methyl]-4,5,6,7-tetr
     RDKit          2D

 28 32  0  0  0  0  0  0  0  0999 V2000
    0.2939    0.2853    0.0000 C   0  0  0  0  0  0  0  0  0  0  0  0
    0.1896   -0.7104    0.0000 N   0  0  0  0  0  0  0  0  0  0  0  0
   -0.7896   -0.9190    0.0000 N   0  0  0  0  0  0  0  0  0  0  0  0
   -1.2897   -0.0521    0.0000 C   0  0  0  0  0  0  0  0  0  0  0  0
   -0.6186    0.6896    0.0000 C   0  0  0  0  0  0  0  0  0  0  0  0
    1.1602    0.7853    0.0000 C   0  0  0  0  0  0  0  0  0  0  0  0
    2.0270    0.2853    0.0000 N   0  0  0  0  0  0  0  0  0  0  0  0
   -4.2895   -0.0521    0.0000 C   0  0  0  0  0  0  0  0  0  0  0  0
   -2.7895   -0.9190    0.0000 N   0  0  0  0  0  0  0  0  0  0  0  0
    2.8938    0.7853    0.0000 C   0  0  0  0  0  0  0  0  0  0  0  0
   -3.8812    0.8605    0.0000 C   0  0  0  0  0  0  0  0  0  0  0  0
   -2.2896   -0.0521    0.0000 C   0  0  0  0  0  0  0  0  0  0  0  0
   -5.2812    0.0521    0.0000 S   0  0  0  0  0  0  0  0  0  0  0  0
   -1.2897   -1.7853    0.0000 C   0  0  0  0  0  0  0  0  0  0  0  0
   -3.7894   -0.9190    0.0000 C   0  0  0  0  0  0  0  0  0  0  0  0
    3.7603    0.2853    0.0000 C   0  0  0  0  0  0  0  0  0  0  0  0
   -5.4895    1.0312    0.0000 C   0  0  0  0  0  0  0  0  0  0  0  0
    2.0270   -0.7147    0.0000 C   0  0  0  0  0  0  0  0  0  0  0  0
    1.1602    1.7853    0.0000 O   0  0  0  0  0  0  0  0  0  0  0  0
   -4.6228    1.5312    0.0000 C   0  0  0  0  0  0  0  0  0  0  0  0
    3.7603   -0.7147    0.0000 C   0  0  0  0  0  0  0  0  0  0  0  0
   -2.2896   -1.7853    0.0000 C   0  0  0  0  0  0  0  0  0  0  0  0
    2.8938   -1.2145    0.0000 C   0  0  0  0  0  0  0  0  0  0  0  0
   -2.9022    1.0687    0.0000 C   0  0  0  0  0  0  0  0  0  0  0  0
    4.6226    0.7853    0.0000 C   0  0  0  0  0  0  0  0  0  0  0  0
    4.6226   -1.2145    0.0000 C   0  0  0  0  0  0  0  0  0  0  0  0
    5.4895    0.2853    0.0000 C   0  0  0  0  0  0  0  0  0  0  0  0
    5.4895   -0.7147    0.0000 C   0  0  0  0  0  0  0  0  0  0  0  0
  1  2  2  0
  2  3  1  0
  4  5  2  0
  3  4  1  0
  1  5  1  0
  1  6  1  0
  6  7  1  0
  8 15  1  0
  9 12  1  0
  7 10  1  0
  8 11  2  0
  4 12  1  0
  8 13  1  0
  3 14  1  0
  9 15  1  0
 10 16  1  0
 13 17  1  0
 17 20  2  0
  7 18  1  0
  6 19  2  0
 11 20  1  0
 21 23  1  0
 16 21  2  0
 14 22  1  0
  9 22  1  0
 18 23  1  0
 11 24  1  0
 16 25  1  0
 21 26  1  0
 25 27  2  0
 26 28  2  0
 27 28  1  0
M  END
>  <IDNUMBER>  (342) 
SB71-0438

>  <available>  (342) 
5

>  <H_acceptor>  (342) 
4

>  <H_donor>  (342) 
0

>  <B_rotN>  (342) 
4

>  <N_O>  (342) 
5

>  <logP>  (342) 
3.2087

>  <logD>  (342) 
3.1996

>  <logSw>  (342) 
-3.1372

>  <PSA>  (342) 
34.77

>  <pKa_ma>  (342) 
25.6071

>  <pKa_mb>  (342) 
5.7242

>  <N_Chirals>  (342) 
0

>  <Name>  (342) 
(3,4-dihydroisoquinolin-2(1H)-yl){5-[(3-methylthiophen-2-yl)methyl]-4,5,6,7-tetrahydropyrazolo[1,5-a]pyrazin-2-yl}methanone

>  <Smile>  (342) 
Cc1c(CN2Cc3cc(C(N(CC4)Cc5c4cccc5)=O)nn3CC2)scc1

>  <Color>  (342) 
ORANGE

>  <Collection>  (342) 
IC

>  <InChI>  (342) 
InChI=1S/C22H24N4OS/c1-16-7-11-28-21(16)15-24-9-10-26-19(14-24)12-20(23-26)22(27)25-8-6-17-4-2-3-5-18(17)13-25/h2-5,7,11-12H,6,8-10,13-15H2,1H3

>  <InChI Key>  (342) 
CIXZZFHURSJUSI-UHFFFAOYSA-N

>  <PERCENTSP3>  (342) 
36.36

>  <Link>  (342) 
https://www.chemdiv.com/catalog/screening-compounds/compound-SB71-0438/

>  <MFCDNUMBER>  (342) 
MFCD32249606

>  <CLNUMBER>  (342) 
CM5543

>  <STEREO>  (342) 
ACHIRAL

>  <State>  (342) 
Oil

>  <Similarity score>  (342) 
0.27

$$$$
(3,4-dihydroisoquinolin-2(1H)-yl){5-[(1,5-dimethyl-1H-pyrazol-4-yl)methyl]-4,5,6
     RDKit          2D

 29 33  0  0  0  0  0  0  0  0999 V2000
   -0.7520   -0.2855    0.0000 C   0  0  0  0  0  0  0  0  0  0  0  0
   -0.6477    0.7104    0.0000 N   0  0  0  0  0  0  0  0  0  0  0  0
    0.3312    0.9187    0.0000 N   0  0  0  0  0  0  0  0  0  0  0  0
    0.8314    0.0520    0.0000 C   0  0  0  0  0  0  0  0  0  0  0  0
    3.8311    0.0520    0.0000 C   0  0  0  0  0  0  0  0  0  0  0  0
    0.1604   -0.6894    0.0000 C   0  0  0  0  0  0  0  0  0  0  0  0
   -1.6187   -0.7853    0.0000 C   0  0  0  0  0  0  0  0  0  0  0  0
   -2.4851   -0.2855    0.0000 N   0  0  0  0  0  0  0  0  0  0  0  0
    4.1687   -1.5311    0.0000 N   0  0  0  0  0  0  0  0  0  0  0  0
    4.8270   -0.0520    0.0000 C   0  0  0  0  0  0  0  0  0  0  0  0
    5.0351   -1.0312    0.0000 N   0  0  0  0  0  0  0  0  0  0  0  0
    3.4228   -0.8603    0.0000 C   0  0  0  0  0  0  0  0  0  0  0  0
    2.3312    0.9187    0.0000 N   0  0  0  0  0  0  0  0  0  0  0  0
   -3.3477   -0.7853    0.0000 C   0  0  0  0  0  0  0  0  0  0  0  0
    3.3312    0.9187    0.0000 C   0  0  0  0  0  0  0  0  0  0  0  0
    1.8313    0.0520    0.0000 C   0  0  0  0  0  0  0  0  0  0  0  0
    0.8314    1.7852    0.0000 C   0  0  0  0  0  0  0  0  0  0  0  0
   -4.2144   -0.2855    0.0000 C   0  0  0  0  0  0  0  0  0  0  0  0
   -2.4851    0.7146    0.0000 C   0  0  0  0  0  0  0  0  0  0  0  0
   -1.6187   -1.7852    0.0000 O   0  0  0  0  0  0  0  0  0  0  0  0
   -4.2144    0.7146    0.0000 C   0  0  0  0  0  0  0  0  0  0  0  0
    1.8313    1.7852    0.0000 C   0  0  0  0  0  0  0  0  0  0  0  0
   -3.3477    1.2146    0.0000 C   0  0  0  0  0  0  0  0  0  0  0  0
    5.9475   -1.4354    0.0000 C   0  0  0  0  0  0  0  0  0  0  0  0
    5.4935    0.6895    0.0000 C   0  0  0  0  0  0  0  0  0  0  0  0
   -5.0809   -0.7853    0.0000 C   0  0  0  0  0  0  0  0  0  0  0  0
   -5.0809    1.2146    0.0000 C   0  0  0  0  0  0  0  0  0  0  0  0
   -5.9475   -0.2855    0.0000 C   0  0  0  0  0  0  0  0  0  0  0  0
   -5.9475    0.7146    0.0000 C   0  0  0  0  0  0  0  0  0  0  0  0
  1  2  2  0
  2  3  1  0
  4  6  2  0
  3  4  1  0
  5 15  1  0
  1  6  1  0
  1  7  1  0
  7  8  1  0
  9 12  2  0
  5 10  2  0
 10 11  1  0
  9 11  1  0
  5 12  1  0
 13 16  1  0
  8 14  1  0
 13 15  1  0
  4 16  1  0
  3 17  1  0
 14 18  1  0
  8 19  1  0
  7 20  2  0
 21 23  1  0
 18 21  2  0
 17 22  1  0
 13 22  1  0
 19 23  1  0
 11 24  1  0
 10 25  1  0
 18 26  1  0
 21 27  1  0
 26 28  2  0
 27 29  2  0
 28 29  1  0
M  END
>  <IDNUMBER>  (343) 
SB71-0489

>  <available>  (343) 
30

>  <H_acceptor>  (343) 
5

>  <H_donor>  (343) 
0

>  <B_rotN>  (343) 
4

>  <N_O>  (343) 
7

>  <logP>  (343) 
1.415

>  <logD>  (343) 
-1.0301

>  <logSw>  (343) 
-1.9228

>  <PSA>  (343) 
48.238

>  <pKa_ma>  (343) 
24.232

>  <pKa_mb>  (343) 
9.8435

>  <N_Chirals>  (343) 
0

>  <Name>  (343) 
(3,4-dihydroisoquinolin-2(1H)-yl){5-[(1,5-dimethyl-1H-pyrazol-4-yl)methyl]-4,5,6,7-tetrahydropyrazolo[1,5-a]pyrazin-2-yl}methanone

>  <Smile>  (343) 
Cc1c(CN2Cc3cc(C(N(CC4)Cc5c4cccc5)=O)nn3CC2)cnn1C

>  <Color>  (343) 
YELLOW

>  <Collection>  (343) 
IC

>  <InChI>  (343) 
InChI=1S/C22H26N6O/c1-16-19(12-23-25(16)2)13-26-9-10-28-20(15-26)11-21(24-28)22(29)27-8-7-17-5-3-4-6-18(17)14-27/h3-6,11-12H,7-10,13-15H2,1-2H3

>  <InChI Key>  (343) 
CTCWJDDTJFXJCA-UHFFFAOYSA-N

>  <PERCENTSP3>  (343) 
40.91

>  <Link>  (343) 
https://www.chemdiv.com/catalog/screening-compounds/compound-SB71-0489/

>  <MFCDNUMBER>  (343) 
MFCD32249240

>  <CLNUMBER>  (343) 
CM5543

>  <STEREO>  (343) 
ACHIRAL

>  <State>  (343) 
Solid

>  <Similarity score>  (343) 
0.27

$$$$
(5-cyclohexyl-4,5,6,7-tetrahydropyrazolo[1,5-a]pyrazin-2-yl)(3,4-dihydroisoquino
     RDKit          2D

 27 31  0  0  0  0  0  0  0  0999 V2000
    0.4437    0.2855    0.0000 C   0  0  0  0  0  0  0  0  0  0  0  0
    0.3396   -0.7103    0.0000 N   0  0  0  0  0  0  0  0  0  0  0  0
   -1.1394   -0.0522    0.0000 C   0  0  0  0  0  0  0  0  0  0  0  0
   -0.6397   -0.9188    0.0000 N   0  0  0  0  0  0  0  0  0  0  0  0
   -0.4686    0.6895    0.0000 C   0  0  0  0  0  0  0  0  0  0  0  0
    1.3104    0.7854    0.0000 C   0  0  0  0  0  0  0  0  0  0  0  0
    2.1770    0.2855    0.0000 N   0  0  0  0  0  0  0  0  0  0  0  0
   -2.6394   -0.9188    0.0000 N   0  0  0  0  0  0  0  0  0  0  0  0
   -2.1393   -0.0522    0.0000 C   0  0  0  0  0  0  0  0  0  0  0  0
    3.0394    0.7854    0.0000 C   0  0  0  0  0  0  0  0  0  0  0  0
   -1.1394   -1.7853    0.0000 C   0  0  0  0  0  0  0  0  0  0  0  0
    3.9059    0.2855    0.0000 C   0  0  0  0  0  0  0  0  0  0  0  0
   -2.1393   -1.7853    0.0000 C   0  0  0  0  0  0  0  0  0  0  0  0
    2.1770   -0.7146    0.0000 C   0  0  0  0  0  0  0  0  0  0  0  0
    1.3104    1.7853    0.0000 O   0  0  0  0  0  0  0  0  0  0  0  0
    3.9059   -0.7146    0.0000 C   0  0  0  0  0  0  0  0  0  0  0  0
   -3.6393   -0.9188    0.0000 C   0  0  0  0  0  0  0  0  0  0  0  0
    3.0394   -1.2143    0.0000 C   0  0  0  0  0  0  0  0  0  0  0  0
    4.7724    0.7854    0.0000 C   0  0  0  0  0  0  0  0  0  0  0  0
    4.7724   -1.2143    0.0000 C   0  0  0  0  0  0  0  0  0  0  0  0
   -4.1392   -0.0522    0.0000 C   0  0  0  0  0  0  0  0  0  0  0  0
   -4.1392   -1.7853    0.0000 C   0  0  0  0  0  0  0  0  0  0  0  0
    5.6390    0.2855    0.0000 C   0  0  0  0  0  0  0  0  0  0  0  0
    5.6390   -0.7146    0.0000 C   0  0  0  0  0  0  0  0  0  0  0  0
   -5.1391   -1.7853    0.0000 C   0  0  0  0  0  0  0  0  0  0  0  0
   -5.1391   -0.0522    0.0000 C   0  0  0  0  0  0  0  0  0  0  0  0
   -5.6390   -0.9188    0.0000 C   0  0  0  0  0  0  0  0  0  0  0  0
  1  2  2  0
  3  5  2  0
  3  4  1  0
  2  4  1  0
  1  5  1  0
  1  6  1  0
  6  7  1  0
  8  9  1  0
  3  9  1  0
  7 10  1  0
  4 11  1  0
 10 12  1  0
 11 13  1  0
  8 13  1  0
  7 14  1  0
  6 15  2  0
 16 18  1  0
 12 16  2  0
  8 17  1  0
 14 18  1  0
 12 19  1  0
 16 20  1  0
 17 21  1  0
 17 22  1  0
 19 23  2  0
 20 24  2  0
 23 24  1  0
 22 25  1  0
 21 26  1  0
 25 27  1  0
 26 27  1  0
M  END
>  <IDNUMBER>  (344) 
SB71-0494

>  <available>  (344) 
70

>  <H_acceptor>  (344) 
4

>  <H_donor>  (344) 
0

>  <B_rotN>  (344) 
3

>  <N_O>  (344) 
5

>  <logP>  (344) 
3.1331

>  <logD>  (344) 
2.9088

>  <logSw>  (344) 
-3.1324

>  <PSA>  (344) 
33.305

>  <pKa_ma>  (344) 
25.6071

>  <pKa_mb>  (344) 
7.2301

>  <N_Chirals>  (344) 
0

>  <Name>  (344) 
(5-cyclohexyl-4,5,6,7-tetrahydropyrazolo[1,5-a]pyrazin-2-yl)(3,4-dihydroisoquinolin-2(1H)-yl)methanone

>  <Smile>  (344) 
O=C(c1nn(CCN(C2)C3CCCCC3)c2c1)N(CC1)Cc2c1cccc2

>  <Color>  (344) 
BROWN

>  <Collection>  (344) 
IC

>  <InChI>  (344) 
InChI=1S/C22H28N4O/c27-22(25-11-10-17-6-4-5-7-18(17)15-25)21-14-20-16-24(12-13-26(20)23-21)19-8-2-1-3-9-19/h4-7,14,19H,1-3,8-13,15-16H2

>  <InChI Key>  (344) 
UKWLCXUCEPGMGD-UHFFFAOYSA-N

>  <PERCENTSP3>  (344) 
54.54

>  <Link>  (344) 
https://www.chemdiv.com/catalog/screening-compounds/compound-SB71-0494/

>  <MFCDNUMBER>  (344) 
MFCD32249267

>  <CLNUMBER>  (344) 
CM5543

>  <STEREO>  (344) 
ACHIRAL

>  <State>  (344) 
Liquid

>  <Similarity score>  (344) 
0.27

$$$$
5-[(2-fluorophenyl)acetyl]-N,N-dimethyl-4,5,6,7-tetrahydropyrazolo[1,5-a]pyrazin
     RDKit          2D

 24 26  0  0  0  0  0  0  0  0999 V2000
    2.1988    1.4277    0.0000 C   0  0  0  0  0  0  0  0  0  0  0  0
    2.6074    0.5106    0.0000 N   0  0  0  0  0  0  0  0  0  0  0  0
    0.9983    0.3440    0.0000 C   0  0  0  0  0  0  0  0  0  0  0  0
    1.8653   -0.1563    0.0000 N   0  0  0  0  0  0  0  0  0  0  0  0
    1.2067    1.3193    0.0000 C   0  0  0  0  0  0  0  0  0  0  0  0
    0.1312   -1.1567    0.0000 N   0  0  0  0  0  0  0  0  0  0  0  0
    2.6989    2.2906    0.0000 C   0  0  0  0  0  0  0  0  0  0  0  0
   -0.7357   -1.6569    0.0000 C   0  0  0  0  0  0  0  0  0  0  0  0
    0.1312   -0.1563    0.0000 C   0  0  0  0  0  0  0  0  0  0  0  0
   -1.6027   -1.1567    0.0000 C   0  0  0  0  0  0  0  0  0  0  0  0
    1.8653   -1.1567    0.0000 C   0  0  0  0  0  0  0  0  0  0  0  0
   -2.4696   -1.6569    0.0000 C   0  0  0  0  0  0  0  0  0  0  0  0
    3.6993    2.2906    0.0000 N   0  0  0  0  0  0  0  0  0  0  0  0
    0.9983   -1.6569    0.0000 C   0  0  0  0  0  0  0  0  0  0  0  0
    2.1988    3.1576    0.0000 O   0  0  0  0  0  0  0  0  0  0  0  0
   -0.7357   -2.6573    0.0000 O   0  0  0  0  0  0  0  0  0  0  0  0
   -3.3326   -1.1567    0.0000 C   0  0  0  0  0  0  0  0  0  0  0  0
   -3.3326   -0.1563    0.0000 F   0  0  0  0  0  0  0  0  0  0  0  0
   -2.4696   -2.6573    0.0000 C   0  0  0  0  0  0  0  0  0  0  0  0
    4.1996    1.4277    0.0000 C   0  0  0  0  0  0  0  0  0  0  0  0
    4.1996    3.1576    0.0000 C   0  0  0  0  0  0  0  0  0  0  0  0
   -4.1996   -1.6569    0.0000 C   0  0  0  0  0  0  0  0  0  0  0  0
   -3.3326   -3.1576    0.0000 C   0  0  0  0  0  0  0  0  0  0  0  0
   -4.1996   -2.6573    0.0000 C   0  0  0  0  0  0  0  0  0  0  0  0
  1  2  2  0
  3  5  2  0
  3  4  1  0
  2  4  1  0
  1  5  1  0
  6  9  1  0
  1  7  1  0
  6  8  1  0
  3  9  1  0
  8 10  1  0
  4 11  1  0
 10 12  1  0
  7 13  1  0
 11 14  1  0
  6 14  1  0
  7 15  2  0
  8 16  2  0
 12 17  1  0
 17 18  1  0
 12 19  2  0
 13 20  1  0
 13 21  1  0
 17 22  2  0
 22 24  1  0
 19 23  1  0
 23 24  2  0
M  END
>  <IDNUMBER>  (345) 
SB71-0024

>  <available>  (345) 
60

>  <H_acceptor>  (345) 
5

>  <H_donor>  (345) 
0

>  <B_rotN>  (345) 
5

>  <N_O>  (345) 
6

>  <logP>  (345) 
0.6474

>  <logD>  (345) 
0.6474

>  <logSw>  (345) 
-1.6137

>  <PSA>  (345) 
45.831

>  <pKa_ma>  (345) 
17.626

>  <pKa_mb>  (345) 
-2.791

>  <N_Chirals>  (345) 
0

>  <Name>  (345) 
5-[(2-fluorophenyl)acetyl]-N,N-dimethyl-4,5,6,7-tetrahydropyrazolo[1,5-a]pyrazine-2-carboxamide

>  <Smile>  (345) 
CN(C)C(c1nn(CCN(C2)C(Cc(cccc3)c3F)=O)c2c1)=O

>  <Color>  (345) 
YELLOW

>  <Collection>  (345) 
IC

>  <InChI>  (345) 
InChI=1S/C17H19FN4O2/c1-20(2)17(24)15-10-13-11-21(7-8-22(13)19-15)16(23)9-12-5-3-4-6-14(12)18/h3-6,10H,7-9,11H2,1-2H3

>  <InChI Key>  (345) 
WNIIJERNORKAOK-UHFFFAOYSA-N

>  <PERCENTSP3>  (345) 
35.29

>  <Link>  (345) 
https://www.chemdiv.com/catalog/screening-compounds/compound-SB71-0024/

>  <MFCDNUMBER>  (345) 
MFCD32249158

>  <CLNUMBER>  (345) 
CM5543

>  <STEREO>  (345) 
ACHIRAL

>  <State>  (345) 
Liquid

>  <Similarity score>  (345) 
0.27

$$$$
[5-(5-fluoro-2-methoxybenzene-1-sulfonyl)-4,5,6,7-tetrahydropyrazolo[1,5-a]pyraz
     RDKit          2D

 29 32  0  0  0  0  0  0  0  0999 V2000
    1.4064   -1.4855    0.0000 S   0  0  0  0  0  0  0  0  0  0  0  0
   -2.6774   -0.2813    0.0000 C   0  0  0  0  0  0  0  0  0  0  0  0
    0.4062   -1.4855    0.0000 N   0  0  0  0  0  0  0  0  0  0  0  0
    2.4065   -1.4855    0.0000 C   0  0  0  0  0  0  0  0  0  0  0  0
   -2.5691   -1.2773    0.0000 N   0  0  0  0  0  0  0  0  0  0  0  0
   -1.0938   -0.6189    0.0000 C   0  0  0  0  0  0  0  0  0  0  0  0
   -1.5939   -1.4855    0.0000 N   0  0  0  0  0  0  0  0  0  0  0  0
   -1.7606    0.1228    0.0000 C   0  0  0  0  0  0  0  0  0  0  0  0
   -3.5400    0.2188    0.0000 C   0  0  0  0  0  0  0  0  0  0  0  0
   -0.0936   -0.6189    0.0000 C   0  0  0  0  0  0  0  0  0  0  0  0
   -3.5400    1.2189    0.0000 N   0  0  0  0  0  0  0  0  0  0  0  0
   -0.0936   -2.3524    0.0000 C   0  0  0  0  0  0  0  0  0  0  0  0
    2.9066   -2.3524    0.0000 C   0  0  0  0  0  0  0  0  0  0  0  0
   -1.0938   -2.3524    0.0000 C   0  0  0  0  0  0  0  0  0  0  0  0
    1.4064   -0.4854    0.0000 O   0  0  0  0  0  0  0  0  0  0  0  0
    1.4064   -2.4857    0.0000 O   0  0  0  0  0  0  0  0  0  0  0  0
    2.9066   -0.6189    0.0000 C   0  0  0  0  0  0  0  0  0  0  0  0
   -4.4067   -0.2813    0.0000 O   0  0  0  0  0  0  0  0  0  0  0  0
   -3.5400    3.2191    0.0000 O   0  0  0  0  0  0  0  0  0  0  0  0
    3.9068   -0.6189    0.0000 C   0  0  0  0  0  0  0  0  0  0  0  0
    3.9068   -2.3524    0.0000 C   0  0  0  0  0  0  0  0  0  0  0  0
    4.4067   -1.4855    0.0000 C   0  0  0  0  0  0  0  0  0  0  0  0
    4.4067   -3.2191    0.0000 F   0  0  0  0  0  0  0  0  0  0  0  0
    2.4065    0.2480    0.0000 O   0  0  0  0  0  0  0  0  0  0  0  0
   -4.4067    1.7189    0.0000 C   0  0  0  0  0  0  0  0  0  0  0  0
   -2.6774    1.7189    0.0000 C   0  0  0  0  0  0  0  0  0  0  0  0
   -2.6774    2.7189    0.0000 C   0  0  0  0  0  0  0  0  0  0  0  0
   -4.4067    2.7189    0.0000 C   0  0  0  0  0  0  0  0  0  0  0  0
    2.9066    1.1148    0.0000 C   0  0  0  0  0  0  0  0  0  0  0  0
  2  8  1  0
  2  5  2  0
  1  3  1  0
  1  4  1  0
  5  7  1  0
  6 10  1  0
  6  7  1  0
  7 14  1  0
  6  8  2  0
  2  9  1  0
  3 10  1  0
  9 11  1  0
  3 12  1  0
  4 13  2  0
 12 14  1  0
  1 15  2  0
  1 16  2  0
  4 17  1  0
  9 18  2  0
 19 27  1  0
 19 28  1  0
 17 20  2  0
 13 21  1  0
 20 22  1  0
 21 22  2  0
 21 23  1  0
 17 24  1  0
 11 25  1  0
 11 26  1  0
 26 27  1  0
 25 28  1  0
 24 29  1  0
M  END
>  <IDNUMBER>  (346) 
SB71-0280

>  <available>  (346) 
44

>  <H_acceptor>  (346) 
10

>  <H_donor>  (346) 
0

>  <B_rotN>  (346) 
5

>  <N_O>  (346) 
9

>  <logP>  (346) 
0.4637

>  <logD>  (346) 
0.4637

>  <logSw>  (346) 
-2.2571

>  <PSA>  (346) 
77.607

>  <pKa_ma>  (346) 
26.1583

>  <pKa_mb>  (346) 
-4.4541

>  <N_Chirals>  (346) 
0

>  <Name>  (346) 
[5-(5-fluoro-2-methoxybenzene-1-sulfonyl)-4,5,6,7-tetrahydropyrazolo[1,5-a]pyrazin-2-yl](morpholin-4-yl)methanone

>  <Smile>  (346) 
COc(ccc(F)c1)c1S(N1Cc2cc(C(N3CCOCC3)=O)nn2CC1)(=O)=O

>  <Color>  (346) 
NOT COLORED

>  <Collection>  (346) 
IC

>  <InChI>  (346) 
InChI=1S/C18H21FN4O5S/c1-27-16-3-2-13(19)10-17(16)29(25,26)22-4-5-23-14(12-22)11-15(20-23)18(24)21-6-8-28-9-7-21/h2-3,10-11H,4-9,12H2,1H3

>  <InChI Key>  (346) 
GVHDBSSNFWJWCV-UHFFFAOYSA-N

>  <PERCENTSP3>  (346) 
44.44

>  <Link>  (346) 
https://www.chemdiv.com/catalog/screening-compounds/compound-SB71-0280/

>  <MFCDNUMBER>  (346) 
MFCD32249291

>  <CLNUMBER>  (346) 
CM5543

>  <STEREO>  (346) 
ACHIRAL

>  <State>  (346) 
Solid

>  <Similarity score>  (346) 
0.27

$$$$
[5-(2,4-difluorobenzene-1-sulfonyl)-4,5,6,7-tetrahydropyrazolo[1,5-a]pyrazin-2-y
     RDKit          2D

 27 30  0  0  0  0  0  0  0  0999 V2000
   -0.9064   -1.2565    0.0000 S   0  0  0  0  0  0  0  0  0  0  0  0
    3.1778   -0.0521    0.0000 C   0  0  0  0  0  0  0  0  0  0  0  0
    0.0938   -1.2565    0.0000 N   0  0  0  0  0  0  0  0  0  0  0  0
    3.0734   -1.0480    0.0000 N   0  0  0  0  0  0  0  0  0  0  0  0
   -1.9065   -1.2565    0.0000 C   0  0  0  0  0  0  0  0  0  0  0  0
    1.5940   -0.3897    0.0000 C   0  0  0  0  0  0  0  0  0  0  0  0
    2.0941   -1.2565    0.0000 N   0  0  0  0  0  0  0  0  0  0  0  0
    2.2608    0.3564    0.0000 C   0  0  0  0  0  0  0  0  0  0  0  0
    4.0403    0.4481    0.0000 C   0  0  0  0  0  0  0  0  0  0  0  0
    0.5939   -0.3897    0.0000 C   0  0  0  0  0  0  0  0  0  0  0  0
   -2.4066   -2.1191    0.0000 C   0  0  0  0  0  0  0  0  0  0  0  0
    4.0403    1.4480    0.0000 N   0  0  0  0  0  0  0  0  0  0  0  0
    0.5939   -2.1191    0.0000 C   0  0  0  0  0  0  0  0  0  0  0  0
    1.5940   -2.1191    0.0000 C   0  0  0  0  0  0  0  0  0  0  0  0
   -0.9064   -0.2562    0.0000 O   0  0  0  0  0  0  0  0  0  0  0  0
   -0.9064   -2.2566    0.0000 O   0  0  0  0  0  0  0  0  0  0  0  0
   -2.4066   -0.3897    0.0000 C   0  0  0  0  0  0  0  0  0  0  0  0
   -3.4069   -2.1191    0.0000 C   0  0  0  0  0  0  0  0  0  0  0  0
    4.9071   -0.0521    0.0000 O   0  0  0  0  0  0  0  0  0  0  0  0
   -3.9068   -1.2565    0.0000 C   0  0  0  0  0  0  0  0  0  0  0  0
   -1.9065   -2.9859    0.0000 F   0  0  0  0  0  0  0  0  0  0  0  0
   -3.4069   -0.3897    0.0000 C   0  0  0  0  0  0  0  0  0  0  0  0
   -4.9071   -1.2565    0.0000 F   0  0  0  0  0  0  0  0  0  0  0  0
    3.2319    2.0358    0.0000 C   0  0  0  0  0  0  0  0  0  0  0  0
    4.8529    2.0358    0.0000 C   0  0  0  0  0  0  0  0  0  0  0  0
    4.5404    2.9859    0.0000 C   0  0  0  0  0  0  0  0  0  0  0  0
    3.5403    2.9859    0.0000 C   0  0  0  0  0  0  0  0  0  0  0  0
  2  8  1  0
  2  4  2  0
  1  3  1  0
  4  7  1  0
  1  5  1  0
  6 10  1  0
  6  7  1  0
  7 14  1  0
  6  8  2  0
  2  9  1  0
  3 10  1  0
  5 11  2  0
  9 12  1  0
  3 13  1  0
 13 14  1  0
  1 15  2  0
  1 16  2  0
  5 17  1  0
 11 18  1  0
 18 20  2  0
  9 19  2  0
 20 22  1  0
 11 21  1  0
 17 22  2  0
 20 23  1  0
 12 24  1  0
 12 25  1  0
 25 26  1  0
 24 27  1  0
 26 27  1  0
M  END
>  <IDNUMBER>  (347) 
SB71-0929

>  <available>  (347) 
127

>  <H_acceptor>  (347) 
8

>  <H_donor>  (347) 
0

>  <B_rotN>  (347) 
4

>  <N_O>  (347) 
7

>  <logP>  (347) 
1.5199

>  <logD>  (347) 
1.5199

>  <logSw>  (347) 
-2.3906

>  <PSA>  (347) 
62.435

>  <pKa_ma>  (347) 
26.1583

>  <pKa_mb>  (347) 
-3.592

>  <N_Chirals>  (347) 
0

>  <Name>  (347) 
[5-(2,4-difluorobenzene-1-sulfonyl)-4,5,6,7-tetrahydropyrazolo[1,5-a]pyrazin-2-yl](pyrrolidin-1-yl)methanone

>  <Smile>  (347) 
O=C(c1nn(CCN(C2)S(c(ccc(F)c3)c3F)(=O)=O)c2c1)N1CCCC1

>  <Color>  (347) 
ORANGE

>  <Collection>  (347) 
IC

>  <InChI>  (347) 
InChI=1S/C17H18F2N4O3S/c18-12-3-4-16(14(19)9-12)27(25,26)22-7-8-23-13(11-22)10-15(20-23)17(24)21-5-1-2-6-21/h3-4,9-10H,1-2,5-8,11H2

>  <InChI Key>  (347) 
CKJACMMNRLZZHW-UHFFFAOYSA-N

>  <PERCENTSP3>  (347) 
41.18

>  <Link>  (347) 
https://www.chemdiv.com/catalog/screening-compounds/compound-SB71-0929/

>  <MFCDNUMBER>  (347) 
MFCD32249434

>  <CLNUMBER>  (347) 
CM5543

>  <STEREO>  (347) 
ACHIRAL

>  <State>  (347) 
Solid

>  <Similarity score>  (347) 
0.26

$$$$
{5-[(4-chlorophenyl)methyl]-4,5,6,7-tetrahydropyrazolo[1,5-a]pyrazin-2-yl}(morph
     RDKit          2D

 25 28  0  0  0  0  0  0  0  0999 V2000
    1.4486   -0.6776    0.0000 C   0  0  0  0  0  0  0  0  0  0  0  0
    1.8572    0.2398    0.0000 N   0  0  0  0  0  0  0  0  0  0  0  0
    1.1151    0.9067    0.0000 N   0  0  0  0  0  0  0  0  0  0  0  0
    0.2480    0.4065    0.0000 C   0  0  0  0  0  0  0  0  0  0  0  0
    0.4565   -0.5691    0.0000 C   0  0  0  0  0  0  0  0  0  0  0  0
    1.9489   -1.5403    0.0000 C   0  0  0  0  0  0  0  0  0  0  0  0
    2.9495   -1.5403    0.0000 N   0  0  0  0  0  0  0  0  0  0  0  0
   -0.6189    1.9071    0.0000 N   0  0  0  0  0  0  0  0  0  0  0  0
   -0.6189    0.9067    0.0000 C   0  0  0  0  0  0  0  0  0  0  0  0
    1.1151    1.9071    0.0000 C   0  0  0  0  0  0  0  0  0  0  0  0
    1.4486   -2.4074    0.0000 O   0  0  0  0  0  0  0  0  0  0  0  0
    0.2480    2.4074    0.0000 C   0  0  0  0  0  0  0  0  0  0  0  0
   -1.4862    2.4074    0.0000 C   0  0  0  0  0  0  0  0  0  0  0  0
    4.9504   -1.5403    0.0000 O   0  0  0  0  0  0  0  0  0  0  0  0
   -2.3533    1.9071    0.0000 C   0  0  0  0  0  0  0  0  0  0  0  0
   -4.0833    0.9067    0.0000 C   0  0  0  0  0  0  0  0  0  0  0  0
   -4.9504    0.4065    0.0000 Cl  0  0  0  0  0  0  0  0  0  0  0  0
   -3.2202    0.4065    0.0000 C   0  0  0  0  0  0  0  0  0  0  0  0
   -4.0833    1.9071    0.0000 C   0  0  0  0  0  0  0  0  0  0  0  0
   -3.2202    2.4074    0.0000 C   0  0  0  0  0  0  0  0  0  0  0  0
   -2.3533    0.9067    0.0000 C   0  0  0  0  0  0  0  0  0  0  0  0
    3.4496   -2.4074    0.0000 C   0  0  0  0  0  0  0  0  0  0  0  0
    3.4496   -0.6776    0.0000 C   0  0  0  0  0  0  0  0  0  0  0  0
    4.4502   -0.6776    0.0000 C   0  0  0  0  0  0  0  0  0  0  0  0
    4.4502   -2.4074    0.0000 C   0  0  0  0  0  0  0  0  0  0  0  0
  1  2  2  0
  2  3  1  0
  4  5  2  0
  3  4  1  0
  1  5  1  0
  1  6  1  0
  6  7  1  0
  8  9  1  0
  4  9  1  0
  3 10  1  0
  6 11  2  0
 10 12  1  0
  8 12  1  0
  8 13  1  0
 14 24  1  0
 14 25  1  0
 13 15  1  0
 16 18  1  0
 16 17  1  0
 18 21  2  0
 19 20  1  0
 16 19  2  0
 15 20  2  0
 15 21  1  0
  7 22  1  0
  7 23  1  0
 23 24  1  0
 22 25  1  0
M  END
>  <IDNUMBER>  (348) 
SB71-0261

>  <available>  (348) 
17

>  <H_acceptor>  (348) 
5

>  <H_donor>  (348) 
0

>  <B_rotN>  (348) 
4

>  <N_O>  (348) 
6

>  <logP>  (348) 
1.4887

>  <logD>  (348) 
1.4822

>  <logSw>  (348) 
-2.4516

>  <PSA>  (348) 
41.999

>  <pKa_ma>  (348) 
26.5144

>  <pKa_mb>  (348) 
5.5784

>  <N_Chirals>  (348) 
0

>  <Name>  (348) 
{5-[(4-chlorophenyl)methyl]-4,5,6,7-tetrahydropyrazolo[1,5-a]pyrazin-2-yl}(morpholin-4-yl)methanone

>  <Smile>  (348) 
O=C(c1nn(CCN(Cc(cc2)ccc2Cl)C2)c2c1)N1CCOCC1

>  <Color>  (348) 
ORANGE

>  <Collection>  (348) 
IC

>  <InChI>  (348) 
InChI=1S/C18H21ClN4O2/c19-15-3-1-14(2-4-15)12-21-5-6-23-16(13-21)11-17(20-23)18(24)22-7-9-25-10-8-22/h1-4,11H,5-10,12-13H2

>  <InChI Key>  (348) 
KVIHEUAGRFYMPQ-UHFFFAOYSA-N

>  <PERCENTSP3>  (348) 
44.44

>  <Link>  (348) 
https://www.chemdiv.com/catalog/screening-compounds/compound-SB71-0261/

>  <MFCDNUMBER>  (348) 
MFCD32249230

>  <CLNUMBER>  (348) 
CM5543

>  <STEREO>  (348) 
ACHIRAL

>  <State>  (348) 
Oil

>  <Similarity score>  (348) 
0.26

$$$$
N-benzyl-5-[(4-ethoxy-3-methoxyphenyl)methyl]-4,5,6,7-tetrahydropyrazolo[1,5-a]p
     RDKit          2D

 31 34  0  0  0  0  0  0  0  0999 V2000
    1.5630    0.2437    0.0000 C   0  0  0  0  0  0  0  0  0  0  0  0
    1.9715   -0.6731    0.0000 N   0  0  0  0  0  0  0  0  0  0  0  0
    1.2254   -1.3402    0.0000 N   0  0  0  0  0  0  0  0  0  0  0  0
    0.3627   -0.8401    0.0000 C   0  0  0  0  0  0  0  0  0  0  0  0
    0.5668    0.1395    0.0000 C   0  0  0  0  0  0  0  0  0  0  0  0
    2.0632    1.1107    0.0000 C   0  0  0  0  0  0  0  0  0  0  0  0
   -0.5045   -2.3405    0.0000 N   0  0  0  0  0  0  0  0  0  0  0  0
   -0.5045   -1.3402    0.0000 C   0  0  0  0  0  0  0  0  0  0  0  0
    1.2254   -2.3405    0.0000 C   0  0  0  0  0  0  0  0  0  0  0  0
    3.0635    1.1107    0.0000 N   0  0  0  0  0  0  0  0  0  0  0  0
   -3.1053   -0.8401    0.0000 C   0  0  0  0  0  0  0  0  0  0  0  0
   -3.9721   -1.3402    0.0000 C   0  0  0  0  0  0  0  0  0  0  0  0
   -2.2382   -1.3402    0.0000 C   0  0  0  0  0  0  0  0  0  0  0  0
    1.5630    1.9735    0.0000 O   0  0  0  0  0  0  0  0  0  0  0  0
   -2.2382   -2.3405    0.0000 C   0  0  0  0  0  0  0  0  0  0  0  0
   -1.3712   -2.8407    0.0000 C   0  0  0  0  0  0  0  0  0  0  0  0
    0.3627   -2.8407    0.0000 C   0  0  0  0  0  0  0  0  0  0  0  0
   -3.9721   -2.3405    0.0000 C   0  0  0  0  0  0  0  0  0  0  0  0
    3.5636    1.9735    0.0000 C   0  0  0  0  0  0  0  0  0  0  0  0
   -3.1053   -2.8407    0.0000 C   0  0  0  0  0  0  0  0  0  0  0  0
   -3.1053    0.1602    0.0000 O   0  0  0  0  0  0  0  0  0  0  0  0
   -4.8349   -0.8401    0.0000 O   0  0  0  0  0  0  0  0  0  0  0  0
    4.5641    1.9735    0.0000 C   0  0  0  0  0  0  0  0  0  0  0  0
   -5.7019   -1.3402    0.0000 C   0  0  0  0  0  0  0  0  0  0  0  0
   -3.9721    0.6606    0.0000 C   0  0  0  0  0  0  0  0  0  0  0  0
    5.0643    1.1107    0.0000 C   0  0  0  0  0  0  0  0  0  0  0  0
    5.0643    2.8407    0.0000 C   0  0  0  0  0  0  0  0  0  0  0  0
   -6.5647   -0.8401    0.0000 C   0  0  0  0  0  0  0  0  0  0  0  0
    6.0646    1.1107    0.0000 C   0  0  0  0  0  0  0  0  0  0  0  0
    6.0646    2.8407    0.0000 C   0  0  0  0  0  0  0  0  0  0  0  0
    6.5647    1.9735    0.0000 C   0  0  0  0  0  0  0  0  0  0  0  0
  1  2  2  0
  2  3  1  0
  4  5  2  0
  3  4  1  0
  1  5  1  0
  1  6  1  0
  7  8  1  0
  4  8  1  0
  3  9  1  0
  6 10  1  0
 11 13  1  0
 11 12  2  0
 12 18  1  0
 13 15  2  0
  6 14  2  0
 15 16  1  0
  7 16  1  0
  9 17  1  0
  7 17  1  0
 18 20  2  0
 10 19  1  0
 15 20  1  0
 11 21  1  0
 12 22  1  0
 19 23  1  0
 22 24  1  0
 21 25  1  0
 23 26  1  0
 23 27  2  0
 24 28  1  0
 26 29  2  0
 27 30  1  0
 30 31  2  0
 29 31  1  0
M  END
>  <IDNUMBER>  (349) 
SB71-0163

>  <available>  (349) 
119

>  <H_acceptor>  (349) 
6

>  <H_donor>  (349) 
1

>  <B_rotN>  (349) 
9

>  <N_O>  (349) 
7

>  <logP>  (349) 
2.4551

>  <logD>  (349) 
2.1933

>  <logSw>  (349) 
-2.7552

>  <PSA>  (349) 
56.696

>  <pKa_ma>  (349) 
12.5385

>  <pKa_mb>  (349) 
7.3176

>  <N_Chirals>  (349) 
0

>  <Name>  (349) 
N-benzyl-5-[(4-ethoxy-3-methoxyphenyl)methyl]-4,5,6,7-tetrahydropyrazolo[1,5-a]pyrazine-2-carboxamide

>  <Smile>  (349) 
CCOc(ccc(CN1Cc2cc(C(NCc3ccccc3)=O)nn2CC1)c1)c1OC

>  <Color>  (349) 
YELLOW

>  <Collection>  (349) 
IC

>  <InChI>  (349) 
InChI=1S/C24H28N4O3/c1-3-31-22-10-9-19(13-23(22)30-2)16-27-11-12-28-20(17-27)14-21(26-28)24(29)25-15-18-7-5-4-6-8-18/h4-10,13-14H,3,11-12,15-17H2,1-2H3,(H,25,29)

>  <InChI Key>  (349) 
BTSQYORZSJPOCH-UHFFFAOYSA-N

>  <PERCENTSP3>  (349) 
33.33

>  <Link>  (349) 
https://www.chemdiv.com/catalog/screening-compounds/compound-SB71-0163/

>  <MFCDNUMBER>  (349) 
MFCD32249471

>  <CLNUMBER>  (349) 
CM5543

>  <STEREO>  (349) 
ACHIRAL

>  <State>  (349) 
Solid

>  <Similarity score>  (349) 
0.26

$$$$
5-[4-(1H-indol-3-yl)butanoyl]-N,N-dimethyl-4,5,6,7-tetrahydropyrazolo[1,5-a]pyra
     RDKit          2D

 28 31  0  0  0  0  0  0  0  0999 V2000
    3.9836    0.2354    0.0000 C   0  0  0  0  0  0  0  0  0  0  0  0
    3.3960    1.0439    0.0000 N   0  0  0  0  0  0  0  0  0  0  0  0
    2.4460   -0.2646    0.0000 C   0  0  0  0  0  0  0  0  0  0  0  0
    2.4460    0.7355    0.0000 N   0  0  0  0  0  0  0  0  0  0  0  0
    3.3960   -0.5728    0.0000 C   0  0  0  0  0  0  0  0  0  0  0  0
    4.9835    0.2354    0.0000 C   0  0  0  0  0  0  0  0  0  0  0  0
    0.7126   -0.2646    0.0000 N   0  0  0  0  0  0  0  0  0  0  0  0
   -4.7003   -1.9688    0.0000 N   0  0  0  0  0  0  0  0  0  0  0  0
    1.5794   -0.7647    0.0000 C   0  0  0  0  0  0  0  0  0  0  0  0
   -3.7210   -1.7605    0.0000 C   0  0  0  0  0  0  0  0  0  0  0  0
   -0.1542   -0.7647    0.0000 C   0  0  0  0  0  0  0  0  0  0  0  0
   -3.6169   -0.7647    0.0000 C   0  0  0  0  0  0  0  0  0  0  0  0
    1.5794    1.2356    0.0000 C   0  0  0  0  0  0  0  0  0  0  0  0
   -4.5295   -0.3562    0.0000 C   0  0  0  0  0  0  0  0  0  0  0  0
   -5.2003   -1.1020    0.0000 C   0  0  0  0  0  0  0  0  0  0  0  0
    5.4836    1.1022    0.0000 N   0  0  0  0  0  0  0  0  0  0  0  0
    0.7126    0.7355    0.0000 C   0  0  0  0  0  0  0  0  0  0  0  0
    5.4836   -0.6314    0.0000 O   0  0  0  0  0  0  0  0  0  0  0  0
   -0.1542   -1.7646    0.0000 O   0  0  0  0  0  0  0  0  0  0  0  0
   -1.0208   -0.2646    0.0000 C   0  0  0  0  0  0  0  0  0  0  0  0
   -2.7501   -0.2646    0.0000 C   0  0  0  0  0  0  0  0  0  0  0  0
   -1.8835   -0.7647    0.0000 C   0  0  0  0  0  0  0  0  0  0  0  0
   -4.8419    0.5939    0.0000 C   0  0  0  0  0  0  0  0  0  0  0  0
    4.9835    1.9688    0.0000 C   0  0  0  0  0  0  0  0  0  0  0  0
    6.4837    1.1022    0.0000 C   0  0  0  0  0  0  0  0  0  0  0  0
   -6.1753   -0.8937    0.0000 C   0  0  0  0  0  0  0  0  0  0  0  0
   -5.8171    0.8022    0.0000 C   0  0  0  0  0  0  0  0  0  0  0  0
   -6.4837    0.0563    0.0000 C   0  0  0  0  0  0  0  0  0  0  0  0
  1  2  2  0
  3  5  2  0
  3  4  1  0
  2  4  1  0
  1  5  1  0
  1  6  1  0
  7  9  1  0
  8 10  1  0
  8 15  1  0
  3  9  1  0
 10 12  2  0
  7 11  1  0
 12 21  1  0
  4 13  1  0
 12 14  1  0
 14 15  1  0
  6 16  1  0
 13 17  1  0
  7 17  1  0
  6 18  2  0
 11 19  2  0
 11 20  1  0
 21 22  1  0
 20 22  1  0
 14 23  2  0
 16 24  1  0
 16 25  1  0
 15 26  2  0
 26 28  1  0
 23 27  1  0
 27 28  2  0
M  END
>  <IDNUMBER>  (350) 
SB71-0098

>  <available>  (350) 
104

>  <H_acceptor>  (350) 
5

>  <H_donor>  (350) 
1

>  <B_rotN>  (350) 
7

>  <N_O>  (350) 
7

>  <logP>  (350) 
1.0262

>  <logD>  (350) 
1.0262

>  <logSw>  (350) 
-2.3814

>  <PSA>  (350) 
55.702

>  <pKa_ma>  (350) 
18.4909

>  <pKa_mb>  (350) 
-2.791

>  <N_Chirals>  (350) 
0

>  <Name>  (350) 
5-[4-(1H-indol-3-yl)butanoyl]-N,N-dimethyl-4,5,6,7-tetrahydropyrazolo[1,5-a]pyrazine-2-carboxamide

>  <Smile>  (350) 
CN(C)C(c1nn(CCN(C2)C(CCCc3c[nH]c4c3cccc4)=O)c2c1)=O

>  <Color>  (350) 
YELLOW

>  <Collection>  (350) 
IC

>  <InChI>  (350) 
InChI=1S/C21H25N5O2/c1-24(2)21(28)19-12-16-14-25(10-11-26(16)23-19)20(27)9-5-6-15-13-22-18-8-4-3-7-17(15)18/h3-4,7-8,12-13,22H,5-6,9-11,14H2,1-2H3

>  <InChI Key>  (350) 
HTUPKZHTBTXCDZ-UHFFFAOYSA-N

>  <PERCENTSP3>  (350) 
38.1

>  <Link>  (350) 
https://www.chemdiv.com/catalog/screening-compounds/compound-SB71-0098/

>  <MFCDNUMBER>  (350) 
MFCD32249286

>  <CLNUMBER>  (350) 
CM5543

>  <STEREO>  (350) 
ACHIRAL

>  <State>  (350) 
Solid

>  <Similarity score>  (350) 
0.26

$$$$
(morpholin-4-yl)(5-{[4-(trifluoromethyl)phenyl]methyl}-4,5,6,7-tetrahydropyrazol
     RDKit          2D

 28 31  0  0  0  0  0  0  0  0999 V2000
    1.9485    0.6774    0.0000 C   0  0  0  0  0  0  0  0  0  0  0  0
    2.3571   -0.2394    0.0000 N   0  0  0  0  0  0  0  0  0  0  0  0
    1.6151   -0.9065    0.0000 N   0  0  0  0  0  0  0  0  0  0  0  0
    0.7483   -0.4063    0.0000 C   0  0  0  0  0  0  0  0  0  0  0  0
    0.9567    0.5731    0.0000 C   0  0  0  0  0  0  0  0  0  0  0  0
    2.4487    1.5402    0.0000 C   0  0  0  0  0  0  0  0  0  0  0  0
   -4.4492   -0.4063    0.0000 C   0  0  0  0  0  0  0  0  0  0  0  0
    3.4490    1.5402    0.0000 N   0  0  0  0  0  0  0  0  0  0  0  0
   -0.1187   -1.9070    0.0000 N   0  0  0  0  0  0  0  0  0  0  0  0
   -0.1187   -0.9065    0.0000 C   0  0  0  0  0  0  0  0  0  0  0  0
    1.6151   -1.9070    0.0000 C   0  0  0  0  0  0  0  0  0  0  0  0
   -3.5824   -0.9065    0.0000 C   0  0  0  0  0  0  0  0  0  0  0  0
    1.9485    2.4070    0.0000 O   0  0  0  0  0  0  0  0  0  0  0  0
    0.7483   -2.4070    0.0000 C   0  0  0  0  0  0  0  0  0  0  0  0
   -0.9857   -2.4070    0.0000 C   0  0  0  0  0  0  0  0  0  0  0  0
   -5.4495   -0.4063    0.0000 F   0  0  0  0  0  0  0  0  0  0  0  0
   -4.9494   -1.2733    0.0000 F   0  0  0  0  0  0  0  0  0  0  0  0
   -4.4492    0.5938    0.0000 F   0  0  0  0  0  0  0  0  0  0  0  0
    5.4495    1.5402    0.0000 O   0  0  0  0  0  0  0  0  0  0  0  0
   -3.5824   -1.9070    0.0000 C   0  0  0  0  0  0  0  0  0  0  0  0
   -2.7195   -0.4063    0.0000 C   0  0  0  0  0  0  0  0  0  0  0  0
   -1.8527   -1.9070    0.0000 C   0  0  0  0  0  0  0  0  0  0  0  0
   -2.7195   -2.4070    0.0000 C   0  0  0  0  0  0  0  0  0  0  0  0
   -1.8527   -0.9065    0.0000 C   0  0  0  0  0  0  0  0  0  0  0  0
    3.9492    2.4070    0.0000 C   0  0  0  0  0  0  0  0  0  0  0  0
    3.9492    0.6774    0.0000 C   0  0  0  0  0  0  0  0  0  0  0  0
    4.9495    0.6774    0.0000 C   0  0  0  0  0  0  0  0  0  0  0  0
    4.9495    2.4070    0.0000 C   0  0  0  0  0  0  0  0  0  0  0  0
  1  2  2  0
  2  3  1  0
  4  5  2  0
  3  4  1  0
  1  5  1  0
  1  6  1  0
  7 12  1  0
  6  8  1  0
  9 10  1  0
  4 10  1  0
  3 11  1  0
 12 21  1  0
 12 20  2  0
  6 13  2  0
 11 14  1  0
  9 14  1  0
  9 15  1  0
  7 16  1  0
  7 17  1  0
  7 18  1  0
 19 27  1  0
 19 28  1  0
 20 23  1  0
 21 24  2  0
 15 22  1  0
 22 23  2  0
 22 24  1  0
  8 25  1  0
  8 26  1  0
 26 27  1  0
 25 28  1  0
M  END
>  <IDNUMBER>  (351) 
SB71-0255

>  <available>  (351) 
11

>  <H_acceptor>  (351) 
5

>  <H_donor>  (351) 
0

>  <B_rotN>  (351) 
5

>  <N_O>  (351) 
6

>  <logP>  (351) 
1.7667

>  <logD>  (351) 
1.6922

>  <logSw>  (351) 
-2.2103

>  <PSA>  (351) 
41.999

>  <pKa_ma>  (351) 
26.5144

>  <pKa_mb>  (351) 
6.6724

>  <N_Chirals>  (351) 
0

>  <Name>  (351) 
(morpholin-4-yl)(5-{[4-(trifluoromethyl)phenyl]methyl}-4,5,6,7-tetrahydropyrazolo[1,5-a]pyrazin-2-yl)methanone

>  <Smile>  (351) 
O=C(c1nn(CCN(Cc2ccc(C(F)(F)F)cc2)C2)c2c1)N1CCOCC1

>  <Color>  (351) 
ORANGE

>  <Collection>  (351) 
IC

>  <InChI>  (351) 
InChI=1S/C19H21F3N4O2/c20-19(21,22)15-3-1-14(2-4-15)12-24-5-6-26-16(13-24)11-17(23-26)18(27)25-7-9-28-10-8-25/h1-4,11H,5-10,12-13H2

>  <InChI Key>  (351) 
GNIIRJQRHGUMIP-UHFFFAOYSA-N

>  <PERCENTSP3>  (351) 
47.37

>  <Link>  (351) 
https://www.chemdiv.com/catalog/screening-compounds/compound-SB71-0255/

>  <MFCDNUMBER>  (351) 
MFCD32249200

>  <CLNUMBER>  (351) 
CM5543

>  <STEREO>  (351) 
ACHIRAL

>  <State>  (351) 
Solid

>  <Similarity score>  (351) 
0.26

$$$$
{5-[(6-methoxypyridin-2-yl)methyl]-4,5,6,7-tetrahydropyrazolo[1,5-a]pyrazin-2-yl
     RDKit          2D

 26 29  0  0  0  0  0  0  0  0999 V2000
    1.8816    0.6729    0.0000 C   0  0  0  0  0  0  0  0  0  0  0  0
    2.2898   -0.2397    0.0000 N   0  0  0  0  0  0  0  0  0  0  0  0
    1.5481   -0.9065    0.0000 N   0  0  0  0  0  0  0  0  0  0  0  0
    0.6811   -0.4063    0.0000 C   0  0  0  0  0  0  0  0  0  0  0  0
    0.8897    0.5688    0.0000 C   0  0  0  0  0  0  0  0  0  0  0  0
    2.3816    1.5397    0.0000 C   0  0  0  0  0  0  0  0  0  0  0  0
    3.3816    1.5397    0.0000 N   0  0  0  0  0  0  0  0  0  0  0  0
   -0.1857   -1.9065    0.0000 N   0  0  0  0  0  0  0  0  0  0  0  0
   -2.7859   -2.4065    0.0000 N   0  0  0  0  0  0  0  0  0  0  0  0
   -0.1857   -0.9065    0.0000 C   0  0  0  0  0  0  0  0  0  0  0  0
    1.5481   -1.9065    0.0000 C   0  0  0  0  0  0  0  0  0  0  0  0
   -3.6525   -1.9065    0.0000 C   0  0  0  0  0  0  0  0  0  0  0  0
    1.8816    2.4065    0.0000 O   0  0  0  0  0  0  0  0  0  0  0  0
   -1.9191   -1.9065    0.0000 C   0  0  0  0  0  0  0  0  0  0  0  0
   -1.0521   -2.4065    0.0000 C   0  0  0  0  0  0  0  0  0  0  0  0
    0.6811   -2.4065    0.0000 C   0  0  0  0  0  0  0  0  0  0  0  0
    5.3817    1.5397    0.0000 O   0  0  0  0  0  0  0  0  0  0  0  0
   -4.5151   -2.4065    0.0000 O   0  0  0  0  0  0  0  0  0  0  0  0
    3.8816    2.4065    0.0000 C   0  0  0  0  0  0  0  0  0  0  0  0
    3.8816    0.6729    0.0000 C   0  0  0  0  0  0  0  0  0  0  0  0
   -2.7859   -0.4063    0.0000 C   0  0  0  0  0  0  0  0  0  0  0  0
   -3.6525   -0.9065    0.0000 C   0  0  0  0  0  0  0  0  0  0  0  0
   -1.9191   -0.9065    0.0000 C   0  0  0  0  0  0  0  0  0  0  0  0
    4.8816    2.4065    0.0000 C   0  0  0  0  0  0  0  0  0  0  0  0
    4.8816    0.6729    0.0000 C   0  0  0  0  0  0  0  0  0  0  0  0
   -5.3817   -1.9065    0.0000 C   0  0  0  0  0  0  0  0  0  0  0  0
  1  2  2  0
  2  3  1  0
  4  5  2  0
  3  4  1  0
  1  5  1  0
  1  6  1  0
  6  7  1  0
  8 10  1  0
  9 14  2  0
  4 10  1  0
  3 11  1  0
  9 12  1  0
 12 22  2  0
  6 13  2  0
 14 15  1  0
  8 15  1  0
 11 16  1  0
  8 16  1  0
 17 25  1  0
 17 24  1  0
 12 18  1  0
  7 19  1  0
  7 20  1  0
 21 23  2  0
 21 22  1  0
 14 23  1  0
 19 24  1  0
 20 25  1  0
 18 26  1  0
M  END
>  <IDNUMBER>  (352) 
SB71-0289

>  <available>  (352) 
14

>  <H_acceptor>  (352) 
7

>  <H_donor>  (352) 
0

>  <B_rotN>  (352) 
5

>  <N_O>  (352) 
8

>  <logP>  (352) 
0.602

>  <logD>  (352) 
0.4914

>  <logSw>  (352) 
-1.6042

>  <PSA>  (352) 
58.554

>  <pKa_ma>  (352) 
26.9104

>  <pKa_mb>  (352) 
6.8625

>  <N_Chirals>  (352) 
0

>  <Name>  (352) 
{5-[(6-methoxypyridin-2-yl)methyl]-4,5,6,7-tetrahydropyrazolo[1,5-a]pyrazin-2-yl}(morpholin-4-yl)methanone

>  <Smile>  (352) 
COc1cccc(CN2Cc3cc(C(N4CCOCC4)=O)nn3CC2)n1

>  <Color>  (352) 
YELLOW

>  <Collection>  (352) 
IC

>  <InChI>  (352) 
InChI=1S/C18H23N5O3/c1-25-17-4-2-3-14(19-17)12-21-5-6-23-15(13-21)11-16(20-23)18(24)22-7-9-26-10-8-22/h2-4,11H,5-10,12-13H2,1H3

>  <InChI Key>  (352) 
LMYVQFDNUMBTIP-UHFFFAOYSA-N

>  <PERCENTSP3>  (352) 
50

>  <Link>  (352) 
https://www.chemdiv.com/catalog/screening-compounds/compound-SB71-0289/

>  <MFCDNUMBER>  (352) 
MFCD32249322

>  <CLNUMBER>  (352) 
CM5543

>  <STEREO>  (352) 
ACHIRAL

>  <State>  (352) 
Solid

>  <Similarity score>  (352) 
0.26

$$$$
5-(4-methoxy-2-methylbenzoyl)-N,N-dimethyl-4,5,6,7-tetrahydropyrazolo[1,5-a]pyra
     RDKit          2D

 25 27  0  0  0  0  0  0  0  0999 V2000
    2.6319   -1.1773    0.0000 C   0  0  0  0  0  0  0  0  0  0  0  0
    3.0403   -0.2604    0.0000 N   0  0  0  0  0  0  0  0  0  0  0  0
    1.4317   -0.0937    0.0000 C   0  0  0  0  0  0  0  0  0  0  0  0
    2.2984    0.4063    0.0000 N   0  0  0  0  0  0  0  0  0  0  0  0
    1.6398   -1.0689    0.0000 C   0  0  0  0  0  0  0  0  0  0  0  0
    0.5647    1.4065    0.0000 N   0  0  0  0  0  0  0  0  0  0  0  0
   -0.3023    1.9068    0.0000 C   0  0  0  0  0  0  0  0  0  0  0  0
    3.1319   -2.0400    0.0000 C   0  0  0  0  0  0  0  0  0  0  0  0
   -1.1689    1.4065    0.0000 C   0  0  0  0  0  0  0  0  0  0  0  0
    0.5647    0.4063    0.0000 C   0  0  0  0  0  0  0  0  0  0  0  0
   -1.1689    0.4063    0.0000 C   0  0  0  0  0  0  0  0  0  0  0  0
    2.2984    1.4065    0.0000 C   0  0  0  0  0  0  0  0  0  0  0  0
    1.4317    1.9068    0.0000 C   0  0  0  0  0  0  0  0  0  0  0  0
   -2.0359    1.9068    0.0000 C   0  0  0  0  0  0  0  0  0  0  0  0
    4.1322   -2.0400    0.0000 N   0  0  0  0  0  0  0  0  0  0  0  0
   -0.3023    2.9069    0.0000 O   0  0  0  0  0  0  0  0  0  0  0  0
    2.6319   -2.9069    0.0000 O   0  0  0  0  0  0  0  0  0  0  0  0
   -2.0359   -0.0937    0.0000 C   0  0  0  0  0  0  0  0  0  0  0  0
   -2.9029    0.4063    0.0000 C   0  0  0  0  0  0  0  0  0  0  0  0
   -2.9029    1.4065    0.0000 C   0  0  0  0  0  0  0  0  0  0  0  0
   -3.7655   -0.0937    0.0000 O   0  0  0  0  0  0  0  0  0  0  0  0
   -0.3023   -0.0937    0.0000 C   0  0  0  0  0  0  0  0  0  0  0  0
    4.6323   -1.1773    0.0000 C   0  0  0  0  0  0  0  0  0  0  0  0
    4.6323   -2.9069    0.0000 C   0  0  0  0  0  0  0  0  0  0  0  0
   -4.6323    0.4063    0.0000 C   0  0  0  0  0  0  0  0  0  0  0  0
  1  2  2  0
  3  5  2  0
  3  4  1  0
  2  4  1  0
  1  5  1  0
  6 10  1  0
  6  7  1  0
  1  8  1  0
  7  9  1  0
  3 10  1  0
  9 11  2  0
  4 12  1  0
 12 13  1  0
  6 13  1  0
  9 14  1  0
  8 15  1  0
  7 16  2  0
  8 17  2  0
 11 18  1  0
 19 20  1  0
 18 19  2  0
 14 20  2  0
 19 21  1  0
 11 22  1  0
 15 23  1  0
 15 24  1  0
 21 25  1  0
M  END
>  <IDNUMBER>  (353) 
SB71-0029

>  <available>  (353) 
53

>  <H_acceptor>  (353) 
6

>  <H_donor>  (353) 
0

>  <B_rotN>  (353) 
5

>  <N_O>  (353) 
7

>  <logP>  (353) 
0.6176

>  <logD>  (353) 
0.6176

>  <logSw>  (353) 
-2.0988

>  <PSA>  (353) 
53.902

>  <pKa_ma>  (353) 
26.3679

>  <pKa_mb>  (353) 
-2.791

>  <N_Chirals>  (353) 
0

>  <Name>  (353) 
5-(4-methoxy-2-methylbenzoyl)-N,N-dimethyl-4,5,6,7-tetrahydropyrazolo[1,5-a]pyrazine-2-carboxamide

>  <Smile>  (353) 
Cc(cc(cc1)OC)c1C(N1Cc2cc(C(N(C)C)=O)nn2CC1)=O

>  <Color>  (353) 
YELLOW

>  <Collection>  (353) 
IC

>  <InChI>  (353) 
InChI=1S/C18H22N4O3/c1-12-9-14(25-4)5-6-15(12)17(23)21-7-8-22-13(11-21)10-16(19-22)18(24)20(2)3/h5-6,9-10H,7-8,11H2,1-4H3

>  <InChI Key>  (353) 
LRHSHBCWZNPCJS-UHFFFAOYSA-N

>  <PERCENTSP3>  (353) 
38.89

>  <Link>  (353) 
https://www.chemdiv.com/catalog/screening-compounds/compound-SB71-0029/

>  <MFCDNUMBER>  (353) 
MFCD32249160

>  <CLNUMBER>  (353) 
CM5543

>  <STEREO>  (353) 
ACHIRAL

>  <State>  (353) 
Liquid

>  <Similarity score>  (353) 
0.26

$$$$
N,N-dimethyl-5-(quinoline-2-carbonyl)-4,5,6,7-tetrahydropyrazolo[1,5-a]pyrazine-
     RDKit          2D

 26 29  0  0  0  0  0  0  0  0999 V2000
    2.6318    1.1775    0.0000 C   0  0  0  0  0  0  0  0  0  0  0  0
    3.0402    0.2606    0.0000 N   0  0  0  0  0  0  0  0  0  0  0  0
    1.4315    0.0938    0.0000 C   0  0  0  0  0  0  0  0  0  0  0  0
    2.2983   -0.4063    0.0000 N   0  0  0  0  0  0  0  0  0  0  0  0
    1.6398    1.0732    0.0000 C   0  0  0  0  0  0  0  0  0  0  0  0
    0.5646   -1.4065    0.0000 N   0  0  0  0  0  0  0  0  0  0  0  0
    3.1318    2.0401    0.0000 C   0  0  0  0  0  0  0  0  0  0  0  0
   -0.3023   -1.9064    0.0000 C   0  0  0  0  0  0  0  0  0  0  0  0
   -2.0359   -1.9064    0.0000 N   0  0  0  0  0  0  0  0  0  0  0  0
   -1.1691   -1.4065    0.0000 C   0  0  0  0  0  0  0  0  0  0  0  0
    0.5646   -0.4063    0.0000 C   0  0  0  0  0  0  0  0  0  0  0  0
    2.2983   -1.4065    0.0000 C   0  0  0  0  0  0  0  0  0  0  0  0
   -2.9027   -1.4065    0.0000 C   0  0  0  0  0  0  0  0  0  0  0  0
    1.4315   -1.9064    0.0000 C   0  0  0  0  0  0  0  0  0  0  0  0
    4.1321    2.0401    0.0000 N   0  0  0  0  0  0  0  0  0  0  0  0
    2.6318    2.9069    0.0000 O   0  0  0  0  0  0  0  0  0  0  0  0
   -0.3023   -2.9069    0.0000 O   0  0  0  0  0  0  0  0  0  0  0  0
   -1.1691   -0.4063    0.0000 C   0  0  0  0  0  0  0  0  0  0  0  0
   -2.9027   -0.4063    0.0000 C   0  0  0  0  0  0  0  0  0  0  0  0
   -2.0359    0.0938    0.0000 C   0  0  0  0  0  0  0  0  0  0  0  0
    4.6322    1.1775    0.0000 C   0  0  0  0  0  0  0  0  0  0  0  0
    4.6322    2.9069    0.0000 C   0  0  0  0  0  0  0  0  0  0  0  0
   -3.7654   -1.9064    0.0000 C   0  0  0  0  0  0  0  0  0  0  0  0
   -3.7654    0.0938    0.0000 C   0  0  0  0  0  0  0  0  0  0  0  0
   -4.6322   -1.4065    0.0000 C   0  0  0  0  0  0  0  0  0  0  0  0
   -4.6322   -0.4063    0.0000 C   0  0  0  0  0  0  0  0  0  0  0  0
  1  2  2  0
  3  5  2  0
  3  4  1  0
  2  4  1  0
  1  5  1  0
  6 11  1  0
  1  7  1  0
  6  8  1  0
  9 10  2  0
  8 10  1  0
  3 11  1  0
  4 12  1  0
  9 13  1  0
 13 19  2  0
 12 14  1  0
  6 14  1  0
  7 15  1  0
  7 16  2  0
  8 17  2  0
 10 18  1  0
 19 20  1  0
 18 20  2  0
 15 21  1  0
 15 22  1  0
 13 23  1  0
 19 24  1  0
 23 25  2  0
 25 26  1  0
 24 26  2  0
M  END
>  <IDNUMBER>  (354) 
SB71-0023

>  <available>  (354) 
22

>  <H_acceptor>  (354) 
6

>  <H_donor>  (354) 
0

>  <B_rotN>  (354) 
4

>  <N_O>  (354) 
7

>  <logP>  (354) 
0.7649

>  <logD>  (354) 
0.7649

>  <logSw>  (354) 
-2.0032

>  <PSA>  (354) 
54.689

>  <pKa_ma>  (354) 
26.7714

>  <pKa_mb>  (354) 
0.1146

>  <N_Chirals>  (354) 
0

>  <Name>  (354) 
N,N-dimethyl-5-(quinoline-2-carbonyl)-4,5,6,7-tetrahydropyrazolo[1,5-a]pyrazine-2-carboxamide

>  <Smile>  (354) 
CN(C)C(c1nn(CCN(C2)C(c3nc4ccccc4cc3)=O)c2c1)=O

>  <Color>  (354) 
YELLOW

>  <Collection>  (354) 
IC

>  <InChI>  (354) 
InChI=1S/C19H19N5O2/c1-22(2)18(25)17-11-14-12-23(9-10-24(14)21-17)19(26)16-8-7-13-5-3-4-6-15(13)20-16/h3-8,11H,9-10,12H2,1-2H3

>  <InChI Key>  (354) 
CMKOZXBPMZESIZ-UHFFFAOYSA-N

>  <PERCENTSP3>  (354) 
26.32

>  <Link>  (354) 
https://www.chemdiv.com/catalog/screening-compounds/compound-SB71-0023/

>  <MFCDNUMBER>  (354) 
MFCD32249157

>  <CLNUMBER>  (354) 
CM5543

>  <STEREO>  (354) 
ACHIRAL

>  <State>  (354) 
Solid

>  <Similarity score>  (354) 
0.26

$$$$
5-[(2,3-dihydro-1-benzofuran-5-yl)methyl]-N-(propan-2-yl)-4,5,6,7-tetrahydropyra
     RDKit          2D

 25 28  0  0  0  0  0  0  0  0999 V2000
    1.6395    0.2439    0.0000 C   0  0  0  0  0  0  0  0  0  0  0  0
    2.0438   -0.6729    0.0000 N   0  0  0  0  0  0  0  0  0  0  0  0
    1.3019   -1.3396    0.0000 N   0  0  0  0  0  0  0  0  0  0  0  0
    0.4354   -0.8396    0.0000 C   0  0  0  0  0  0  0  0  0  0  0  0
    0.6439    0.1396    0.0000 C   0  0  0  0  0  0  0  0  0  0  0  0
    2.1395    1.1104    0.0000 C   0  0  0  0  0  0  0  0  0  0  0  0
   -0.4312   -2.3396    0.0000 N   0  0  0  0  0  0  0  0  0  0  0  0
   -0.4312   -1.3396    0.0000 C   0  0  0  0  0  0  0  0  0  0  0  0
    3.1396    1.1104    0.0000 N   0  0  0  0  0  0  0  0  0  0  0  0
    1.3019   -2.3396    0.0000 C   0  0  0  0  0  0  0  0  0  0  0  0
   -3.0270   -0.8396    0.0000 C   0  0  0  0  0  0  0  0  0  0  0  0
   -3.8937   -1.3396    0.0000 C   0  0  0  0  0  0  0  0  0  0  0  0
    1.6395    1.9728    0.0000 O   0  0  0  0  0  0  0  0  0  0  0  0
   -4.6395   -0.6729    0.0000 O   0  0  0  0  0  0  0  0  0  0  0  0
   -2.1646   -1.3396    0.0000 C   0  0  0  0  0  0  0  0  0  0  0  0
   -2.1646   -2.3396    0.0000 C   0  0  0  0  0  0  0  0  0  0  0  0
   -1.2979   -2.8395    0.0000 C   0  0  0  0  0  0  0  0  0  0  0  0
    0.4354   -2.8395    0.0000 C   0  0  0  0  0  0  0  0  0  0  0  0
   -3.8937   -2.3396    0.0000 C   0  0  0  0  0  0  0  0  0  0  0  0
   -3.0270   -2.8395    0.0000 C   0  0  0  0  0  0  0  0  0  0  0  0
   -4.2309    0.2439    0.0000 C   0  0  0  0  0  0  0  0  0  0  0  0
    3.6395    1.9728    0.0000 C   0  0  0  0  0  0  0  0  0  0  0  0
   -3.2353    0.1396    0.0000 C   0  0  0  0  0  0  0  0  0  0  0  0
    4.6395    1.9728    0.0000 C   0  0  0  0  0  0  0  0  0  0  0  0
    3.1396    2.8395    0.0000 C   0  0  0  0  0  0  0  0  0  0  0  0
  1  2  2  0
  2  3  1  0
  4  5  2  0
  3  4  1  0
  1  5  1  0
  1  6  1  0
  7  8  1  0
  4  8  1  0
  6  9  1  0
  3 10  1  0
 11 15  2  0
 11 12  1  0
 12 19  2  0
  6 13  2  0
 12 14  1  0
 15 16  1  0
 16 17  1  0
  7 17  1  0
 10 18  1  0
  7 18  1  0
 19 20  1  0
 16 20  2  0
 21 23  1  0
 14 21  1  0
  9 22  1  0
 11 23  1  0
 22 24  1  0
 22 25  1  0
M  END
>  <IDNUMBER>  (355) 
SB71-0681

>  <available>  (355) 
78

>  <H_acceptor>  (355) 
5

>  <H_donor>  (355) 
1

>  <B_rotN>  (355) 
5

>  <N_O>  (355) 
6

>  <logP>  (355) 
1.6447

>  <logD>  (355) 
1.5257

>  <logSw>  (355) 
-2.3909

>  <PSA>  (355) 
49.339

>  <pKa_ma>  (355) 
14.8713

>  <pKa_mb>  (355) 
6.8989

>  <N_Chirals>  (355) 
0

>  <Name>  (355) 
5-[(2,3-dihydro-1-benzofuran-5-yl)methyl]-N-(propan-2-yl)-4,5,6,7-tetrahydropyrazolo[1,5-a]pyrazine-2-carboxamide

>  <Smile>  (355) 
CC(C)NC(c1nn(CCN(Cc(cc2)cc3c2OCC3)C2)c2c1)=O

>  <Color>  (355) 
ORANGE

>  <Collection>  (355) 
IC

>  <InChI>  (355) 
InChI=1S/C19H24N4O2/c1-13(2)20-19(24)17-10-16-12-22(6-7-23(16)21-17)11-14-3-4-18-15(9-14)5-8-25-18/h3-4,9-10,13H,5-8,11-12H2,1-2H3,(H,20,24)

>  <InChI Key>  (355) 
IAUNANUSXOATNB-UHFFFAOYSA-N

>  <PERCENTSP3>  (355) 
47.37

>  <Link>  (355) 
https://www.chemdiv.com/catalog/screening-compounds/compound-SB71-0681/

>  <MFCDNUMBER>  (355) 
MFCD32249485

>  <CLNUMBER>  (355) 
CM5543

>  <STEREO>  (355) 
ACHIRAL

>  <State>  (355) 
Oil

>  <Similarity score>  (355) 
0.26

$$$$
N-[(2,4-difluorophenyl)methyl]-4,5,6,7-tetrahydropyrazolo[1,5-a]pyridine-2-carbo
     RDKit          2D

 21 23  0  0  0  0  0  0  0  0999 V2000
    1.4860    0.2857    0.0000 C   0  0  0  0  0  0  0  0  0  0  0  0
    1.5903   -0.7107    0.0000 N   0  0  0  0  0  0  0  0  0  0  0  0
    2.5698   -0.9107    0.0000 N   0  0  0  0  0  0  0  0  0  0  0  0
    2.4073    0.6982    0.0000 C   0  0  0  0  0  0  0  0  0  0  0  0
    3.0741   -0.0521    0.0000 C   0  0  0  0  0  0  0  0  0  0  0  0
    0.6232    0.7857    0.0000 C   0  0  0  0  0  0  0  0  0  0  0  0
   -1.9778   -0.7107    0.0000 C   0  0  0  0  0  0  0  0  0  0  0  0
   -0.2357    0.2857    0.0000 N   0  0  0  0  0  0  0  0  0  0  0  0
   -1.9778    0.2857    0.0000 C   0  0  0  0  0  0  0  0  0  0  0  0
   -2.8492   -1.2151    0.0000 C   0  0  0  0  0  0  0  0  0  0  0  0
   -1.1066    0.7857    0.0000 C   0  0  0  0  0  0  0  0  0  0  0  0
    0.6232    1.7819    0.0000 O   0  0  0  0  0  0  0  0  0  0  0  0
   -2.8492    0.7857    0.0000 C   0  0  0  0  0  0  0  0  0  0  0  0
   -3.7036   -0.7107    0.0000 C   0  0  0  0  0  0  0  0  0  0  0  0
   -1.1066   -1.2151    0.0000 F   0  0  0  0  0  0  0  0  0  0  0  0
   -3.7036    0.2857    0.0000 C   0  0  0  0  0  0  0  0  0  0  0  0
    3.0741   -1.7819    0.0000 C   0  0  0  0  0  0  0  0  0  0  0  0
   -4.5706   -1.2151    0.0000 F   0  0  0  0  0  0  0  0  0  0  0  0
    4.0704   -0.0521    0.0000 C   0  0  0  0  0  0  0  0  0  0  0  0
    4.0704   -1.7819    0.0000 C   0  0  0  0  0  0  0  0  0  0  0  0
    4.5706   -0.9107    0.0000 C   0  0  0  0  0  0  0  0  0  0  0  0
  1  2  2  0
  2  3  1  0
  3  5  1  0
  1  4  1  0
  4  5  2  0
  1  6  1  0
  7  9  2  0
  6  8  1  0
  9 11  1  0
  7 10  1  0
  8 11  1  0
  6 12  2  0
  9 13  1  0
 14 16  1  0
 10 14  2  0
  7 15  1  0
 13 16  2  0
  3 17  1  0
 14 18  1  0
  5 19  1  0
 17 20  1  0
 20 21  1  0
 19 21  1  0
M  END
>  <IDNUMBER>  (356) 
P078-0328

>  <available>  (356) 
2

>  <H_acceptor>  (356) 
3

>  <H_donor>  (356) 
1

>  <B_rotN>  (356) 
4

>  <N_O>  (356) 
4

>  <logP>  (356) 
2.4853

>  <logD>  (356) 
2.4853

>  <logSw>  (356) 
-2.7914

>  <PSA>  (356) 
38.381

>  <pKa_ma>  (356) 
12.2696

>  <pKa_mb>  (356) 
-0.7771

>  <N_Chirals>  (356) 
0

>  <Name>  (356) 
N-[(2,4-difluorophenyl)methyl]-4,5,6,7-tetrahydropyrazolo[1,5-a]pyridine-2-carboxamide

>  <Smile>  (356) 
O=C(c1nn(CCCC2)c2c1)NCc(ccc(F)c1)c1F

>  <Color>  (356) 
YELLOW

>  <Collection>  (356) 
NC

>  <InChI>  (356) 
InChI=1S/C15H15F2N3O/c16-11-5-4-10(13(17)7-11)9-18-15(21)14-8-12-3-1-2-6-20(12)19-14/h4-5,7-8H,1-3,6,9H2,(H,18,21)

>  <InChI Key>  (356) 
BTEMBIYVWGBLGJ-UHFFFAOYSA-N

>  <PERCENTSP3>  (356) 
33.3

>  <Link>  (356) 
https://www.chemdiv.com/catalog/screening-compounds/compound-P078-0328/

>  <MFCDNUMBER>  (356) 
MFCD27563259

>  <CLNUMBER>  (356) 
CM0145

>  <STEREO>  (356) 
ACHIRAL

>  <State>  (356) 
Solid

>  <Similarity score>  (356) 
0.26

$$$$
5-{[3-(4-fluorophenyl)-1H-pyrazol-4-yl]methyl}-N-(propan-2-yl)-4,5,6,7-tetrahydr
     RDKit          2D

 28 31  0  0  0  0  0  0  0  0999 V2000
    2.7704   -0.6146    0.0000 C   0  0  0  0  0  0  0  0  0  0  0  0
    2.3621   -1.5269    0.0000 N   0  0  0  0  0  0  0  0  0  0  0  0
    1.3707   -1.4227    0.0000 N   0  0  0  0  0  0  0  0  0  0  0  0
    1.1624   -0.4438    0.0000 C   0  0  0  0  0  0  0  0  0  0  0  0
   -1.6915    0.4811    0.0000 C   0  0  0  0  0  0  0  0  0  0  0  0
    2.0289    0.0563    0.0000 C   0  0  0  0  0  0  0  0  0  0  0  0
    3.7495   -0.4062    0.0000 C   0  0  0  0  0  0  0  0  0  0  0  0
   -2.6038    0.8894    0.0000 C   0  0  0  0  0  0  0  0  0  0  0  0
   -2.4997    1.8852    0.0000 N   0  0  0  0  0  0  0  0  0  0  0  0
   -0.5332   -0.8062    0.0000 N   0  0  0  0  0  0  0  0  0  0  0  0
   -1.5207    2.0935    0.0000 N   0  0  0  0  0  0  0  0  0  0  0  0
   -1.4831   -0.4938    0.0000 C   0  0  0  0  0  0  0  0  0  0  0  0
    0.2125   -0.1353    0.0000 C   0  0  0  0  0  0  0  0  0  0  0  0
   -1.0206    1.2270    0.0000 C   0  0  0  0  0  0  0  0  0  0  0  0
    4.4162   -1.1478    0.0000 N   0  0  0  0  0  0  0  0  0  0  0  0
    0.6250   -2.0935    0.0000 C   0  0  0  0  0  0  0  0  0  0  0  0
   -3.4703    0.3895    0.0000 C   0  0  0  0  0  0  0  0  0  0  0  0
    4.0577    0.5437    0.0000 O   0  0  0  0  0  0  0  0  0  0  0  0
   -0.3249   -1.7811    0.0000 C   0  0  0  0  0  0  0  0  0  0  0  0
   -4.3370    0.8894    0.0000 C   0  0  0  0  0  0  0  0  0  0  0  0
   -3.4703   -0.6104    0.0000 C   0  0  0  0  0  0  0  0  0  0  0  0
   -5.2036   -0.6104    0.0000 C   0  0  0  0  0  0  0  0  0  0  0  0
   -4.3370   -1.1103    0.0000 C   0  0  0  0  0  0  0  0  0  0  0  0
   -5.2036    0.3895    0.0000 C   0  0  0  0  0  0  0  0  0  0  0  0
   -6.0660   -1.1103    0.0000 F   0  0  0  0  0  0  0  0  0  0  0  0
    5.3951   -0.9395    0.0000 C   0  0  0  0  0  0  0  0  0  0  0  0
    6.0660   -1.6852    0.0000 C   0  0  0  0  0  0  0  0  0  0  0  0
    5.7035    0.0104    0.0000 C   0  0  0  0  0  0  0  0  0  0  0  0
  1  2  2  0
  2  3  1  0
  4  6  2  0
  3  4  1  0
  5 12  1  0
  1  6  1  0
  1  7  1  0
  5  8  1  0
  8  9  2  0
  9 11  1  0
 10 13  1  0
 11 14  1  0
 10 12  1  0
  4 13  1  0
  5 14  2  0
  7 15  1  0
  3 16  1  0
  8 17  1  0
  7 18  2  0
 16 19  1  0
 10 19  1  0
 17 20  2  0
 17 21  1  0
 22 23  1  0
 22 24  2  0
 21 23  2  0
 20 24  1  0
 22 25  1  0
 15 26  1  0
 26 27  1  0
 26 28  1  0
M  END
>  <IDNUMBER>  (357) 
SB71-0664

>  <available>  (357) 
45

>  <H_acceptor>  (357) 
5

>  <H_donor>  (357) 
2

>  <B_rotN>  (357) 
6

>  <N_O>  (357) 
7

>  <logP>  (357) 
1.8059

>  <logD>  (357) 
1.369

>  <logSw>  (357) 
-2.4265

>  <PSA>  (357) 
65.291

>  <pKa_ma>  (357) 
11.6652

>  <pKa_mb>  (357) 
7.6393

>  <N_Chirals>  (357) 
0

>  <Name>  (357) 
5-{[3-(4-fluorophenyl)-1H-pyrazol-4-yl]methyl}-N-(propan-2-yl)-4,5,6,7-tetrahydropyrazolo[1,5-a]pyrazine-2-carboxamide

>  <Smile>  (357) 
CC(C)NC(c1nn(CCN(Cc2c[nH]nc2-c(cc2)ccc2F)C2)c2c1)=O

>  <Color>  (357) 
NOT COLORED

>  <Collection>  (357) 
IC

>  <InChI>  (357) 
InChI=1S/C20H23FN6O/c1-13(2)23-20(28)18-9-17-12-26(7-8-27(17)25-18)11-15-10-22-24-19(15)14-3-5-16(21)6-4-14/h3-6,9-10,13H,7-8,11-12H2,1-2H3,(H,22,24)(H,23,28)

>  <InChI Key>  (357) 
WCUQGSDYZMGPRF-UHFFFAOYSA-N

>  <PERCENTSP3>  (357) 
35

>  <Link>  (357) 
https://www.chemdiv.com/catalog/screening-compounds/compound-SB71-0664/

>  <MFCDNUMBER>  (357) 
MFCD32249430

>  <CLNUMBER>  (357) 
CM5543

>  <STEREO>  (357) 
ACHIRAL

>  <State>  (357) 
Solid

>  <Similarity score>  (357) 
0.26

$$$$
{5-[(3,5-dimethyl-1,2-oxazol-4-yl)methyl]-4,5,6,7-tetrahydropyrazolo[1,5-a]pyraz
     RDKit          2D

 25 28  0  0  0  0  0  0  0  0999 V2000
    1.3893   -0.2854    0.0000 C   0  0  0  0  0  0  0  0  0  0  0  0
    1.2852    0.7103    0.0000 N   0  0  0  0  0  0  0  0  0  0  0  0
    0.3064    0.9184    0.0000 N   0  0  0  0  0  0  0  0  0  0  0  0
   -3.1892    0.0520    0.0000 C   0  0  0  0  0  0  0  0  0  0  0  0
   -0.1938    0.0520    0.0000 C   0  0  0  0  0  0  0  0  0  0  0  0
    0.4771   -0.6895    0.0000 C   0  0  0  0  0  0  0  0  0  0  0  0
    2.2560   -0.7852    0.0000 C   0  0  0  0  0  0  0  0  0  0  0  0
   -3.5268   -1.5310    0.0000 N   0  0  0  0  0  0  0  0  0  0  0  0
   -4.3932   -1.0312    0.0000 O   0  0  0  0  0  0  0  0  0  0  0  0
   -4.1848   -0.0520    0.0000 C   0  0  0  0  0  0  0  0  0  0  0  0
   -2.7849   -0.8602    0.0000 C   0  0  0  0  0  0  0  0  0  0  0  0
   -1.6935    0.9184    0.0000 N   0  0  0  0  0  0  0  0  0  0  0  0
    3.1224   -0.2854    0.0000 N   0  0  0  0  0  0  0  0  0  0  0  0
   -2.6892    0.9184    0.0000 C   0  0  0  0  0  0  0  0  0  0  0  0
   -1.1935    0.0520    0.0000 C   0  0  0  0  0  0  0  0  0  0  0  0
   -0.1938    1.7852    0.0000 C   0  0  0  0  0  0  0  0  0  0  0  0
    2.2560   -1.7852    0.0000 O   0  0  0  0  0  0  0  0  0  0  0  0
   -1.1935    1.7852    0.0000 C   0  0  0  0  0  0  0  0  0  0  0  0
    4.8555    0.7145    0.0000 O   0  0  0  0  0  0  0  0  0  0  0  0
    3.9889   -0.7852    0.0000 C   0  0  0  0  0  0  0  0  0  0  0  0
    3.1224    0.7145    0.0000 C   0  0  0  0  0  0  0  0  0  0  0  0
   -4.8555    0.6895    0.0000 C   0  0  0  0  0  0  0  0  0  0  0  0
   -1.8059   -1.0687    0.0000 C   0  0  0  0  0  0  0  0  0  0  0  0
    3.9889    1.2143    0.0000 C   0  0  0  0  0  0  0  0  0  0  0  0
    4.8555   -0.2854    0.0000 C   0  0  0  0  0  0  0  0  0  0  0  0
  1  2  2  0
  2  3  1  0
  4 14  1  0
  5  6  2  0
  3  5  1  0
  1  6  1  0
  1  7  1  0
  8 11  2  0
  9 10  1  0
  8  9  1  0
  4 10  2  0
  4 11  1  0
 12 15  1  0
  7 13  1  0
 12 14  1  0
  5 15  1  0
  3 16  1  0
  7 17  2  0
 16 18  1  0
 12 18  1  0
 19 24  1  0
 19 25  1  0
 13 20  1  0
 13 21  1  0
 10 22  1  0
 11 23  1  0
 21 24  1  0
 20 25  1  0
M  END
>  <IDNUMBER>  (358) 
SB71-0224

>  <available>  (358) 
16

>  <H_acceptor>  (358) 
7

>  <H_donor>  (358) 
0

>  <B_rotN>  (358) 
4

>  <N_O>  (358) 
8

>  <logP>  (358) 
0.0187

>  <logD>  (358) 
-0.4595

>  <logSw>  (358) 
-0.5607

>  <PSA>  (358) 
64.037

>  <pKa_ma>  (358) 
24.0053

>  <pKa_mb>  (358) 
7.7028

>  <N_Chirals>  (358) 
0

>  <Name>  (358) 
{5-[(3,5-dimethyl-1,2-oxazol-4-yl)methyl]-4,5,6,7-tetrahydropyrazolo[1,5-a]pyrazin-2-yl}(morpholin-4-yl)methanone

>  <Smile>  (358) 
Cc1noc(C)c1CN1Cc2cc(C(N3CCOCC3)=O)nn2CC1

>  <Color>  (358) 
YELLOW

>  <Collection>  (358) 
IC

>  <InChI>  (358) 
InChI=1S/C17H23N5O3/c1-12-15(13(2)25-19-12)11-20-3-4-22-14(10-20)9-16(18-22)17(23)21-5-7-24-8-6-21/h9H,3-8,10-11H2,1-2H3

>  <InChI Key>  (358) 
XZCQZUYMBKDFLA-UHFFFAOYSA-N

>  <PERCENTSP3>  (358) 
58.82

>  <Link>  (358) 
https://www.chemdiv.com/catalog/screening-compounds/compound-SB71-0224/

>  <MFCDNUMBER>  (358) 
MFCD32249634

>  <CLNUMBER>  (358) 
CM5543

>  <STEREO>  (358) 
ACHIRAL

>  <State>  (358) 
Solid

>  <Similarity score>  (358) 
0.26

$$$$
[5-(2,5-dimethoxybenzene-1-sulfonyl)-4,5,6,7-tetrahydropyrazolo[1,5-a]pyrazin-2-
     RDKit          2D

 30 33  0  0  0  0  0  0  0  0999 V2000
    1.4064   -1.0522    0.0000 S   0  0  0  0  0  0  0  0  0  0  0  0
   -2.6773    0.1520    0.0000 C   0  0  0  0  0  0  0  0  0  0  0  0
    0.4062   -1.0522    0.0000 N   0  0  0  0  0  0  0  0  0  0  0  0
    2.4066   -1.0522    0.0000 C   0  0  0  0  0  0  0  0  0  0  0  0
   -2.5691   -0.8439    0.0000 N   0  0  0  0  0  0  0  0  0  0  0  0
   -1.0938   -0.1855    0.0000 C   0  0  0  0  0  0  0  0  0  0  0  0
   -1.5940   -1.0522    0.0000 N   0  0  0  0  0  0  0  0  0  0  0  0
   -1.7606    0.5563    0.0000 C   0  0  0  0  0  0  0  0  0  0  0  0
   -3.5399    0.6520    0.0000 C   0  0  0  0  0  0  0  0  0  0  0  0
   -0.0936   -0.1855    0.0000 C   0  0  0  0  0  0  0  0  0  0  0  0
   -3.5399    1.6522    0.0000 N   0  0  0  0  0  0  0  0  0  0  0  0
   -0.0936   -1.9189    0.0000 C   0  0  0  0  0  0  0  0  0  0  0  0
    2.9066   -1.9189    0.0000 C   0  0  0  0  0  0  0  0  0  0  0  0
   -1.0938   -1.9189    0.0000 C   0  0  0  0  0  0  0  0  0  0  0  0
    1.4064   -0.0521    0.0000 O   0  0  0  0  0  0  0  0  0  0  0  0
    1.4064   -2.0522    0.0000 O   0  0  0  0  0  0  0  0  0  0  0  0
    2.9066   -0.1855    0.0000 C   0  0  0  0  0  0  0  0  0  0  0  0
   -4.4066    0.1520    0.0000 O   0  0  0  0  0  0  0  0  0  0  0  0
   -3.5399    3.6524    0.0000 O   0  0  0  0  0  0  0  0  0  0  0  0
    3.9068   -0.1855    0.0000 C   0  0  0  0  0  0  0  0  0  0  0  0
    3.9068   -1.9189    0.0000 C   0  0  0  0  0  0  0  0  0  0  0  0
    4.4066   -1.0522    0.0000 C   0  0  0  0  0  0  0  0  0  0  0  0
    2.4066    0.6812    0.0000 O   0  0  0  0  0  0  0  0  0  0  0  0
   -4.4066    2.1522    0.0000 C   0  0  0  0  0  0  0  0  0  0  0  0
   -2.6773    2.1522    0.0000 C   0  0  0  0  0  0  0  0  0  0  0  0
    4.4066   -2.7857    0.0000 O   0  0  0  0  0  0  0  0  0  0  0  0
   -4.4066    3.1523    0.0000 C   0  0  0  0  0  0  0  0  0  0  0  0
   -2.6773    3.1523    0.0000 C   0  0  0  0  0  0  0  0  0  0  0  0
    2.9066    1.5481    0.0000 C   0  0  0  0  0  0  0  0  0  0  0  0
    3.9068   -3.6524    0.0000 C   0  0  0  0  0  0  0  0  0  0  0  0
  2  8  1  0
  2  5  2  0
  1  3  1  0
  1  4  1  0
  5  7  1  0
  6 10  1  0
  6  7  1  0
  7 14  1  0
  6  8  2  0
  2  9  1  0
  3 10  1  0
  9 11  1  0
  3 12  1  0
  4 13  1  0
 12 14  1  0
  1 15  2  0
  1 16  2  0
  4 17  2  0
  9 18  2  0
 19 28  1  0
 19 27  1  0
 17 20  1  0
 13 21  2  0
 20 22  2  0
 21 22  1  0
 17 23  1  0
 11 24  1  0
 11 25  1  0
 21 26  1  0
 24 27  1  0
 25 28  1  0
 23 29  1  0
 26 30  1  0
M  END
>  <IDNUMBER>  (359) 
SB71-0288

>  <available>  (359) 
128

>  <H_acceptor>  (359) 
11

>  <H_donor>  (359) 
0

>  <B_rotN>  (359) 
6

>  <N_O>  (359) 
10

>  <logP>  (359) 
0.4281

>  <logD>  (359) 
0.4281

>  <logSw>  (359) 
-2.267

>  <PSA>  (359) 
85.151

>  <pKa_ma>  (359) 
26.1583

>  <pKa_mb>  (359) 
-4.4541

>  <N_Chirals>  (359) 
0

>  <Name>  (359) 
[5-(2,5-dimethoxybenzene-1-sulfonyl)-4,5,6,7-tetrahydropyrazolo[1,5-a]pyrazin-2-yl](morpholin-4-yl)methanone

>  <Smile>  (359) 
COc(cc1)cc(S(N2Cc3cc(C(N4CCOCC4)=O)nn3CC2)(=O)=O)c1OC

>  <Color>  (359) 
YELLOW

>  <Collection>  (359) 
IC

>  <InChI>  (359) 
InChI=1S/C19H24N4O6S/c1-27-15-3-4-17(28-2)18(12-15)30(25,26)22-5-6-23-14(13-22)11-16(20-23)19(24)21-7-9-29-10-8-21/h3-4,11-12H,5-10,13H2,1-2H3

>  <InChI Key>  (359) 
TVLIZOQLGWUUER-UHFFFAOYSA-N

>  <PERCENTSP3>  (359) 
47.37

>  <Link>  (359) 
https://www.chemdiv.com/catalog/screening-compounds/compound-SB71-0288/

>  <MFCDNUMBER>  (359) 
MFCD32249321

>  <CLNUMBER>  (359) 
CM5543

>  <STEREO>  (359) 
ACHIRAL

>  <State>  (359) 
Solid

>  <Similarity score>  (359) 
0.26

$$$$
N-(2,4-difluorophenyl)-4,5,6,7-tetrahydropyrazolo[1,5-a]pyridine-2-carboxamide
     RDKit          2D

 20 22  0  0  0  0  0  0  0  0999 V2000
   -1.1144    0.3646    0.0000 C   0  0  0  0  0  0  0  0  0  0  0  0
   -1.7058   -0.4436    0.0000 N   0  0  0  0  0  0  0  0  0  0  0  0
   -2.6642   -0.1352    0.0000 N   0  0  0  0  0  0  0  0  0  0  0  0
   -1.7058    1.1810    0.0000 C   0  0  0  0  0  0  0  0  0  0  0  0
   -0.1145    0.3646    0.0000 C   0  0  0  0  0  0  0  0  0  0  0  0
   -2.6642    0.8645    0.0000 C   0  0  0  0  0  0  0  0  0  0  0  0
    0.3813   -0.4938    0.0000 N   0  0  0  0  0  0  0  0  0  0  0  0
    1.3852   -0.4938    0.0000 C   0  0  0  0  0  0  0  0  0  0  0  0
    1.8852    0.3646    0.0000 C   0  0  0  0  0  0  0  0  0  0  0  0
    2.8850    0.3646    0.0000 C   0  0  0  0  0  0  0  0  0  0  0  0
    0.3813    1.2310    0.0000 O   0  0  0  0  0  0  0  0  0  0  0  0
    1.8852   -1.3644    0.0000 C   0  0  0  0  0  0  0  0  0  0  0  0
    3.3807   -0.4938    0.0000 C   0  0  0  0  0  0  0  0  0  0  0  0
    1.3852    1.2310    0.0000 F   0  0  0  0  0  0  0  0  0  0  0  0
    2.8850   -1.3644    0.0000 C   0  0  0  0  0  0  0  0  0  0  0  0
   -3.5224   -0.6312    0.0000 C   0  0  0  0  0  0  0  0  0  0  0  0
    4.3889   -0.4938    0.0000 F   0  0  0  0  0  0  0  0  0  0  0  0
   -3.5224    1.3644    0.0000 C   0  0  0  0  0  0  0  0  0  0  0  0
   -4.3889   -0.1352    0.0000 C   0  0  0  0  0  0  0  0  0  0  0  0
   -4.3889    0.8645    0.0000 C   0  0  0  0  0  0  0  0  0  0  0  0
  1  2  2  0
  2  3  1  0
  3  6  1  0
  1  4  1  0
  1  5  1  0
  4  6  2  0
  5  7  1  0
  7  8  1  0
  8  9  2  0
  9 10  1  0
  5 11  2  0
  8 12  1  0
 13 15  1  0
 10 13  2  0
  9 14  1  0
 12 15  2  0
  3 16  1  0
 13 17  1  0
  6 18  1  0
 16 19  1  0
 19 20  1  0
 18 20  1  0
M  END
>  <IDNUMBER>  (360) 
P078-0321

>  <available>  (360) 
2

>  <H_acceptor>  (360) 
3

>  <H_donor>  (360) 
1

>  <B_rotN>  (360) 
3

>  <N_O>  (360) 
4

>  <logP>  (360) 
2.4421

>  <logD>  (360) 
2.4104

>  <logSw>  (360) 
-2.9325

>  <PSA>  (360) 
36.361

>  <pKa_ma>  (360) 
8.5202

>  <pKa_mb>  (360) 
-0.2253

>  <N_Chirals>  (360) 
0

>  <Name>  (360) 
N-(2,4-difluorophenyl)-4,5,6,7-tetrahydropyrazolo[1,5-a]pyridine-2-carboxamide

>  <Smile>  (360) 
O=C(c1nn(CCCC2)c2c1)Nc(ccc(F)c1)c1F

>  <Color>  (360) 
ORANGE

>  <Collection>  (360) 
NC

>  <InChI>  (360) 
InChI=1S/C14H13F2N3O/c15-9-4-5-12(11(16)7-9)17-14(20)13-8-10-3-1-2-6-19(10)18-13/h4-5,7-8H,1-3,6H2,(H,17,20)

>  <InChI Key>  (360) 
BYFXJZMKCVOWIH-UHFFFAOYSA-N

>  <PERCENTSP3>  (360) 
28.6

>  <Link>  (360) 
https://www.chemdiv.com/catalog/screening-compounds/compound-P078-0321/

>  <MFCDNUMBER>  (360) 
MFCD27563256

>  <CLNUMBER>  (360) 
CM0145

>  <STEREO>  (360) 
ACHIRAL

>  <State>  (360) 
Solid

>  <Similarity score>  (360) 
0.26

$$$$
N-(2-fluoro-5-methylphenyl)-4,5,6,7-tetrahydropyrazolo[1,5-a]pyridine-2-carboxam
     RDKit          2D

 20 22  0  0  0  0  0  0  0  0999 V2000
   -0.6145   -0.7980    0.0000 C   0  0  0  0  0  0  0  0  0  0  0  0
   -1.2063    0.0104    0.0000 N   0  0  0  0  0  0  0  0  0  0  0  0
   -2.1522   -0.2980    0.0000 N   0  0  0  0  0  0  0  0  0  0  0  0
   -1.2063   -1.6065    0.0000 C   0  0  0  0  0  0  0  0  0  0  0  0
    0.3854   -0.7980    0.0000 C   0  0  0  0  0  0  0  0  0  0  0  0
   -2.1522   -1.3022    0.0000 C   0  0  0  0  0  0  0  0  0  0  0  0
    0.8855    0.0646    0.0000 N   0  0  0  0  0  0  0  0  0  0  0  0
    1.8942    0.0646    0.0000 C   0  0  0  0  0  0  0  0  0  0  0  0
    2.3899   -0.7980    0.0000 C   0  0  0  0  0  0  0  0  0  0  0  0
    0.8855   -1.6689    0.0000 O   0  0  0  0  0  0  0  0  0  0  0  0
    2.3899    0.9397    0.0000 C   0  0  0  0  0  0  0  0  0  0  0  0
    3.3899   -0.7980    0.0000 C   0  0  0  0  0  0  0  0  0  0  0  0
    3.3899    0.9397    0.0000 C   0  0  0  0  0  0  0  0  0  0  0  0
    1.8942   -1.6689    0.0000 F   0  0  0  0  0  0  0  0  0  0  0  0
   -3.0274    0.1979    0.0000 C   0  0  0  0  0  0  0  0  0  0  0  0
    3.8857    0.0646    0.0000 C   0  0  0  0  0  0  0  0  0  0  0  0
   -3.0274   -1.7981    0.0000 C   0  0  0  0  0  0  0  0  0  0  0  0
    3.8857    1.7981    0.0000 C   0  0  0  0  0  0  0  0  0  0  0  0
   -3.8857   -0.2980    0.0000 C   0  0  0  0  0  0  0  0  0  0  0  0
   -3.8857   -1.3022    0.0000 C   0  0  0  0  0  0  0  0  0  0  0  0
  1  2  2  0
  2  3  1  0
  3  6  1  0
  1  4  1  0
  1  5  1  0
  4  6  2  0
  5  7  1  0
  7  8  1  0
  8  9  2  0
  5 10  2  0
  8 11  1  0
  9 12  1  0
 11 13  2  0
  9 14  1  0
  3 15  1  0
 13 16  1  0
 12 16  2  0
  6 17  1  0
 13 18  1  0
 15 19  1  0
 19 20  1  0
 17 20  1  0
M  END
>  <IDNUMBER>  (361) 
P078-0344

>  <available>  (361) 
2

>  <H_acceptor>  (361) 
3

>  <H_donor>  (361) 
1

>  <B_rotN>  (361) 
3

>  <N_O>  (361) 
4

>  <logP>  (361) 
2.8124

>  <logD>  (361) 
2.812

>  <logSw>  (361) 
-3.1794

>  <PSA>  (361) 
36.361

>  <pKa_ma>  (361) 
10.4984

>  <pKa_mb>  (361) 
-0.2253

>  <N_Chirals>  (361) 
0

>  <Name>  (361) 
N-(2-fluoro-5-methylphenyl)-4,5,6,7-tetrahydropyrazolo[1,5-a]pyridine-2-carboxamide

>  <Smile>  (361) 
Cc(cc1)cc(NC(c2nn(CCCC3)c3c2)=O)c1F

>  <Color>  (361) 
YELLOW

>  <Collection>  (361) 
NC

>  <InChI>  (361) 
InChI=1S/C15H16FN3O/c1-10-5-6-12(16)13(8-10)17-15(20)14-9-11-4-2-3-7-19(11)18-14/h5-6,8-9H,2-4,7H2,1H3,(H,17,20)

>  <InChI Key>  (361) 
JOVWGZCIYRVSMJ-UHFFFAOYSA-N

>  <PERCENTSP3>  (361) 
33.33

>  <Link>  (361) 
https://www.chemdiv.com/catalog/screening-compounds/compound-P078-0344/

>  <MFCDNUMBER>  (361) 
MFCD27563266

>  <CLNUMBER>  (361) 
CM0145

>  <STEREO>  (361) 
ACHIRAL

>  <State>  (361) 
Solid

>  <Similarity score>  (361) 
0.26

$$$$
2-(3,4-dimethoxyphenyl)-5-[(2-fluorophenyl)methyl]-5,6,7,8-tetrahydro-4H-pyrazol
     RDKit          2D

 28 31  0  0  0  0  0  0  0  0999 V2000
    0.9940   -1.1712    0.0000 N   0  0  0  0  0  0  0  0  0  0  0  0
   -0.3605   -0.3084    0.0000 C   0  0  0  0  0  0  0  0  0  0  0  0
    0.0019   -1.2420    0.0000 N   0  0  0  0  0  0  0  0  0  0  0  0
    0.4146    0.3293    0.0000 C   0  0  0  0  0  0  0  0  0  0  0  0
    1.2566   -0.2084    0.0000 C   0  0  0  0  0  0  0  0  0  0  0  0
   -2.1446   -0.5669    0.0000 N   0  0  0  0  0  0  0  0  0  0  0  0
    2.1819    0.1668    0.0000 C   0  0  0  0  0  0  0  0  0  0  0  0
   -1.3233   -0.0082    0.0000 C   0  0  0  0  0  0  0  0  0  0  0  0
   -3.8826   -0.5669    0.0000 C   0  0  0  0  0  0  0  0  0  0  0  0
    2.9572   -0.4669    0.0000 C   0  0  0  0  0  0  0  0  0  0  0  0
   -3.0073   -0.0710    0.0000 C   0  0  0  0  0  0  0  0  0  0  0  0
    3.8906   -0.0959    0.0000 C   0  0  0  0  0  0  0  0  0  0  0  0
    4.0450    0.8919    0.0000 C   0  0  0  0  0  0  0  0  0  0  0  0
   -3.8826   -1.5797    0.0000 C   0  0  0  0  0  0  0  0  0  0  0  0
    2.3319    1.1463    0.0000 C   0  0  0  0  0  0  0  0  0  0  0  0
    3.2657    1.5047    0.0000 C   0  0  0  0  0  0  0  0  0  0  0  0
   -0.4940   -2.1048    0.0000 C   0  0  0  0  0  0  0  0  0  0  0  0
   -1.4818   -2.2466    0.0000 C   0  0  0  0  0  0  0  0  0  0  0  0
   -3.0073   -2.0715    0.0000 F   0  0  0  0  0  0  0  0  0  0  0  0
   -2.2196   -1.5671    0.0000 C   0  0  0  0  0  0  0  0  0  0  0  0
    4.6786   -0.7210    0.0000 O   0  0  0  0  0  0  0  0  0  0  0  0
    4.9786    1.2546    0.0000 O   0  0  0  0  0  0  0  0  0  0  0  0
   -4.7453   -0.0710    0.0000 C   0  0  0  0  0  0  0  0  0  0  0  0
   -4.7453   -2.0715    0.0000 C   0  0  0  0  0  0  0  0  0  0  0  0
    5.6081   -0.3542    0.0000 C   0  0  0  0  0  0  0  0  0  0  0  0
    5.1204    2.2466    0.0000 C   0  0  0  0  0  0  0  0  0  0  0  0
   -5.6081   -0.5669    0.0000 C   0  0  0  0  0  0  0  0  0  0  0  0
   -5.6081   -1.5797    0.0000 C   0  0  0  0  0  0  0  0  0  0  0  0
  2  3  1  0
  2  4  2  0
  1  3  1  0
  4  5  1  0
  1  5  2  0
  6  8  1  0
  5  7  1  0
  2  8  1  0
  9 11  1  0
  7 10  2  0
  6 11  1  0
 10 12  1  0
 13 16  1  0
 12 13  2  0
  9 14  2  0
  7 15  1  0
 15 16  2  0
  3 17  1  0
 17 18  1  0
 14 19  1  0
 18 20  1  0
  6 20  1  0
 12 21  1  0
 13 22  1  0
  9 23  1  0
 14 24  1  0
 21 25  1  0
 22 26  1  0
 23 27  2  0
 27 28  1  0
 24 28  2  0
M  END
>  <IDNUMBER>  (362) 
T202-0841

>  <available>  (362) 
4

>  <H_acceptor>  (362) 
4

>  <H_donor>  (362) 
0

>  <B_rotN>  (362) 
5

>  <N_O>  (362) 
5

>  <logP>  (362) 
3.579

>  <logD>  (362) 
3.5376

>  <logSw>  (362) 
-3.598

>  <PSA>  (362) 
32.762

>  <pKa_ma>  (362) 
26.759

>  <pKa_mb>  (362) 
6.3995

>  <N_Chirals>  (362) 
0

>  <Name>  (362) 
2-(3,4-dimethoxyphenyl)-5-[(2-fluorophenyl)methyl]-5,6,7,8-tetrahydro-4H-pyrazolo[1,5-a][1,4]diazepine

>  <Smile>  (362) 
COc(ccc(-c1nn(CCCN(Cc(cccc2)c2F)C2)c2c1)c1)c1OC

>  <Color>  (362) 
ORANGE

>  <Collection>  (362) 
NC

>  <InChI>  (362) 
InChI=1S/C22H24FN3O2/c1-27-21-9-8-16(12-22(21)28-2)20-13-18-15-25(10-5-11-26(18)24-20)14-17-6-3-4-7-19(17)23/h3-4,6-9,12-13H,5,10-11,14-15H2,1-2H3

>  <InChI Key>  (362) 
NVRQFGQGPRIFAH-UHFFFAOYSA-N

>  <PERCENTSP3>  (362) 
31.8

>  <Link>  (362) 
https://www.chemdiv.com/catalog/screening-compounds/compound-T202-0841/

>  <MFCDNUMBER>  (362) 
MFCD27618720

>  <CLNUMBER>  (362) 
CM0222

>  <STEREO>  (362) 
ACHIRAL

>  <State>  (362) 
Liquid

>  <Similarity score>  (362) 
0.26

$$$$
N-cyclopentyl-5-[(1H-indol-3-yl)methyl]-4,5,6,7-tetrahydropyrazolo[1,5-a]pyrazin
     RDKit          2D

 27 31  0  0  0  0  0  0  0  0999 V2000
    1.7025   -0.1229    0.0000 C   0  0  0  0  0  0  0  0  0  0  0  0
    1.7025    0.8773    0.0000 N   0  0  0  0  0  0  0  0  0  0  0  0
    0.7523    1.1855    0.0000 N   0  0  0  0  0  0  0  0  0  0  0  0
    0.1646    0.3730    0.0000 C   0  0  0  0  0  0  0  0  0  0  0  0
    0.7523   -0.4356    0.0000 C   0  0  0  0  0  0  0  0  0  0  0  0
   -2.8193    0.6897    0.0000 C   0  0  0  0  0  0  0  0  0  0  0  0
    2.5150   -0.7147    0.0000 C   0  0  0  0  0  0  0  0  0  0  0  0
   -3.3194   -0.8524    0.0000 N   0  0  0  0  0  0  0  0  0  0  0  0
   -2.5109   -0.2606    0.0000 C   0  0  0  0  0  0  0  0  0  0  0  0
   -1.2357    1.3939    0.0000 N   0  0  0  0  0  0  0  0  0  0  0  0
   -3.8196    0.6897    0.0000 C   0  0  0  0  0  0  0  0  0  0  0  0
   -0.8313    0.4812    0.0000 C   0  0  0  0  0  0  0  0  0  0  0  0
   -2.2317    1.4982    0.0000 C   0  0  0  0  0  0  0  0  0  0  0  0
    3.4277   -0.3066    0.0000 N   0  0  0  0  0  0  0  0  0  0  0  0
    0.3479    2.0982    0.0000 C   0  0  0  0  0  0  0  0  0  0  0  0
   -4.1278   -0.2606    0.0000 C   0  0  0  0  0  0  0  0  0  0  0  0
    2.4109   -1.7066    0.0000 O   0  0  0  0  0  0  0  0  0  0  0  0
   -0.6482    2.2025    0.0000 C   0  0  0  0  0  0  0  0  0  0  0  0
    4.2363   -0.8941    0.0000 C   0  0  0  0  0  0  0  0  0  0  0  0
   -4.4864    1.4315    0.0000 C   0  0  0  0  0  0  0  0  0  0  0  0
   -5.1075   -0.4690    0.0000 C   0  0  0  0  0  0  0  0  0  0  0  0
    5.1863   -0.5855    0.0000 C   0  0  0  0  0  0  0  0  0  0  0  0
    4.2363   -1.8941    0.0000 C   0  0  0  0  0  0  0  0  0  0  0  0
   -5.4658    1.2230    0.0000 C   0  0  0  0  0  0  0  0  0  0  0  0
   -5.7742    0.2728    0.0000 C   0  0  0  0  0  0  0  0  0  0  0  0
    5.1863   -2.2025    0.0000 C   0  0  0  0  0  0  0  0  0  0  0  0
    5.7742   -1.3943    0.0000 C   0  0  0  0  0  0  0  0  0  0  0  0
  1  2  2  0
  2  3  1  0
  4  5  2  0
  3  4  1  0
  1  5  1  0
  6 13  1  0
  1  7  1  0
  8  9  1  0
  8 16  1  0
  6  9  2  0
 10 12  1  0
  6 11  1  0
  4 12  1  0
 10 13  1  0
  7 14  1  0
  3 15  1  0
 11 16  1  0
  7 17  2  0
 15 18  1  0
 10 18  1  0
 14 19  1  0
 11 20  2  0
 16 21  2  0
 19 22  1  0
 19 23  1  0
 20 24  1  0
 24 25  2  0
 21 25  1  0
 23 26  1  0
 26 27  1  0
 22 27  1  0
M  END
>  <IDNUMBER>  (363) 
SB71-0789

>  <available>  (363) 
12

>  <H_acceptor>  (363) 
4

>  <H_donor>  (363) 
2

>  <B_rotN>  (363) 
5

>  <N_O>  (363) 
6

>  <logP>  (363) 
2.566

>  <logD>  (363) 
2.2109

>  <logSw>  (363) 
-2.9596

>  <PSA>  (363) 
51.817

>  <pKa_ma>  (363) 
15.6721

>  <pKa_mb>  (363) 
7.502

>  <N_Chirals>  (363) 
0

>  <Name>  (363) 
N-cyclopentyl-5-[(1H-indol-3-yl)methyl]-4,5,6,7-tetrahydropyrazolo[1,5-a]pyrazine-2-carboxamide

>  <Smile>  (363) 
O=C(c1nn(CCN(Cc2c[nH]c3c2cccc3)C2)c2c1)NC1CCCC1

>  <Color>  (363) 
ORANGE

>  <Collection>  (363) 
IC

>  <InChI>  (363) 
InChI=1S/C21H25N5O/c27-21(23-16-5-1-2-6-16)20-11-17-14-25(9-10-26(17)24-20)13-15-12-22-19-8-4-3-7-18(15)19/h3-4,7-8,11-12,16,22H,1-2,5-6,9-10,13-14H2,(H,23,27)

>  <InChI Key>  (363) 
ZDUNLCLNXXVBQJ-UHFFFAOYSA-N

>  <PERCENTSP3>  (363) 
42.86

>  <Link>  (363) 
https://www.chemdiv.com/catalog/screening-compounds/compound-SB71-0789/

>  <MFCDNUMBER>  (363) 
MFCD32249652

>  <CLNUMBER>  (363) 
CM5543

>  <STEREO>  (363) 
ACHIRAL

>  <State>  (363) 
Solid

>  <Similarity score>  (363) 
0.26

$$$$
5-(isoquinoline-1-carbonyl)-N,N-dimethyl-4,5,6,7-tetrahydropyrazolo[1,5-a]pyrazi
     RDKit          2D

 26 29  0  0  0  0  0  0  0  0999 V2000
    1.7651    1.1776    0.0000 C   0  0  0  0  0  0  0  0  0  0  0  0
    2.1736    0.2606    0.0000 N   0  0  0  0  0  0  0  0  0  0  0  0
    0.5648    0.0938    0.0000 C   0  0  0  0  0  0  0  0  0  0  0  0
    1.4317   -0.4064    0.0000 N   0  0  0  0  0  0  0  0  0  0  0  0
    0.7731    1.0692    0.0000 C   0  0  0  0  0  0  0  0  0  0  0  0
   -0.3021   -1.4066    0.0000 N   0  0  0  0  0  0  0  0  0  0  0  0
   -1.1691   -1.9068    0.0000 C   0  0  0  0  0  0  0  0  0  0  0  0
    2.2654    2.0404    0.0000 C   0  0  0  0  0  0  0  0  0  0  0  0
   -2.0361   -1.4066    0.0000 C   0  0  0  0  0  0  0  0  0  0  0  0
   -0.3021   -0.4064    0.0000 C   0  0  0  0  0  0  0  0  0  0  0  0
   -2.0361   -0.4064    0.0000 C   0  0  0  0  0  0  0  0  0  0  0  0
    1.4317   -1.4066    0.0000 C   0  0  0  0  0  0  0  0  0  0  0  0
   -2.9032   -1.9068    0.0000 N   0  0  0  0  0  0  0  0  0  0  0  0
    0.5648   -1.9068    0.0000 C   0  0  0  0  0  0  0  0  0  0  0  0
    3.2657    2.0404    0.0000 N   0  0  0  0  0  0  0  0  0  0  0  0
   -1.1691   -2.9072    0.0000 O   0  0  0  0  0  0  0  0  0  0  0  0
    1.7651    2.9072    0.0000 O   0  0  0  0  0  0  0  0  0  0  0  0
   -2.9032    0.0938    0.0000 C   0  0  0  0  0  0  0  0  0  0  0  0
   -3.7659   -1.4066    0.0000 C   0  0  0  0  0  0  0  0  0  0  0  0
   -1.1691    0.0938    0.0000 C   0  0  0  0  0  0  0  0  0  0  0  0
    3.7659    1.1776    0.0000 C   0  0  0  0  0  0  0  0  0  0  0  0
    3.7659    2.9072    0.0000 C   0  0  0  0  0  0  0  0  0  0  0  0
   -3.7659   -0.4064    0.0000 C   0  0  0  0  0  0  0  0  0  0  0  0
   -2.9032    1.0941    0.0000 C   0  0  0  0  0  0  0  0  0  0  0  0
   -1.1691    1.0941    0.0000 C   0  0  0  0  0  0  0  0  0  0  0  0
   -2.0361    1.5943    0.0000 C   0  0  0  0  0  0  0  0  0  0  0  0
  1  2  2  0
  3  5  2  0
  3  4  1  0
  2  4  1  0
  1  5  1  0
  6 10  1  0
  6  7  1  0
  1  8  1  0
  7  9  1  0
  3 10  1  0
  9 11  2  0
  4 12  1  0
  9 13  1  0
 12 14  1  0
  6 14  1  0
  8 15  1  0
  7 16  2  0
  8 17  2  0
 11 18  1  0
 18 23  2  0
 13 19  2  0
 11 20  1  0
 15 21  1  0
 15 22  1  0
 19 23  1  0
 18 24  1  0
 24 26  2  0
 20 25  2  0
 25 26  1  0
M  END
>  <IDNUMBER>  (364) 
SB71-0022

>  <available>  (364) 
81

>  <H_acceptor>  (364) 
6

>  <H_donor>  (364) 
0

>  <B_rotN>  (364) 
4

>  <N_O>  (364) 
7

>  <logP>  (364) 
0.3487

>  <logD>  (364) 
0.3487

>  <logSw>  (364) 
-2.0105

>  <PSA>  (364) 
55.905

>  <pKa_ma>  (364) 
26.8326

>  <pKa_mb>  (364) 
1.5082

>  <N_Chirals>  (364) 
0

>  <Name>  (364) 
5-(isoquinoline-1-carbonyl)-N,N-dimethyl-4,5,6,7-tetrahydropyrazolo[1,5-a]pyrazine-2-carboxamide

>  <Smile>  (364) 
CN(C)C(c1nn(CCN(C2)C(c3nccc4ccccc34)=O)c2c1)=O

>  <Color>  (364) 
YELLOW

>  <Collection>  (364) 
IC

>  <InChI>  (364) 
InChI=1S/C19H19N5O2/c1-22(2)18(25)16-11-14-12-23(9-10-24(14)21-16)19(26)17-15-6-4-3-5-13(15)7-8-20-17/h3-8,11H,9-10,12H2,1-2H3

>  <InChI Key>  (364) 
RVLZCUVGNQOQDX-UHFFFAOYSA-N

>  <PERCENTSP3>  (364) 
26.32

>  <Link>  (364) 
https://www.chemdiv.com/catalog/screening-compounds/compound-SB71-0022/

>  <MFCDNUMBER>  (364) 
MFCD32249156

>  <CLNUMBER>  (364) 
CM5543

>  <STEREO>  (364) 
ACHIRAL

>  <State>  (364) 
Solid

>  <Similarity score>  (364) 
0.26

$$$$
N-cyclopentyl-5-[(4-ethoxy-3-methoxyphenyl)methyl]-4,5,6,7-tetrahydropyrazolo[1,
     RDKit          2D

 29 32  0  0  0  0  0  0  0  0999 V2000
   -0.4809   -2.4115    0.0000 C   0  0  0  0  0  0  0  0  0  0  0  0
    0.1062   -3.2194    0.0000 N   0  0  0  0  0  0  0  0  0  0  0  0
    1.0559   -2.9114    0.0000 N   0  0  0  0  0  0  0  0  0  0  0  0
    1.0559   -1.9118    0.0000 C   0  0  0  0  0  0  0  0  0  0  0  0
    0.1062   -1.5993    0.0000 C   0  0  0  0  0  0  0  0  0  0  0  0
   -1.4806   -2.4115    0.0000 C   0  0  0  0  0  0  0  0  0  0  0  0
    2.7885   -1.9118    0.0000 N   0  0  0  0  0  0  0  0  0  0  0  0
    1.9221   -1.4118    0.0000 C   0  0  0  0  0  0  0  0  0  0  0  0
   -1.9805   -3.2737    0.0000 N   0  0  0  0  0  0  0  0  0  0  0  0
    1.9221   -3.4111    0.0000 C   0  0  0  0  0  0  0  0  0  0  0  0
    2.7885    1.0870    0.0000 C   0  0  0  0  0  0  0  0  0  0  0  0
   -1.9805   -1.5452    0.0000 O   0  0  0  0  0  0  0  0  0  0  0  0
    3.6548    1.5869    0.0000 C   0  0  0  0  0  0  0  0  0  0  0  0
    2.7885    0.0875    0.0000 C   0  0  0  0  0  0  0  0  0  0  0  0
    3.6548   -0.4123    0.0000 C   0  0  0  0  0  0  0  0  0  0  0  0
    3.6548   -1.4118    0.0000 C   0  0  0  0  0  0  0  0  0  0  0  0
    2.7885   -2.9114    0.0000 C   0  0  0  0  0  0  0  0  0  0  0  0
    4.5210    1.0870    0.0000 C   0  0  0  0  0  0  0  0  0  0  0  0
    4.5210    0.0875    0.0000 C   0  0  0  0  0  0  0  0  0  0  0  0
   -2.9799   -3.2737    0.0000 C   0  0  0  0  0  0  0  0  0  0  0  0
    1.9221    1.5869    0.0000 O   0  0  0  0  0  0  0  0  0  0  0  0
    3.6548    2.5863    0.0000 O   0  0  0  0  0  0  0  0  0  0  0  0
    4.5210    3.0862    0.0000 C   0  0  0  0  0  0  0  0  0  0  0  0
    1.9221    2.5863    0.0000 C   0  0  0  0  0  0  0  0  0  0  0  0
   -3.5671   -4.0859    0.0000 C   0  0  0  0  0  0  0  0  0  0  0  0
   -3.5671   -2.4657    0.0000 C   0  0  0  0  0  0  0  0  0  0  0  0
    4.5210    4.0859    0.0000 C   0  0  0  0  0  0  0  0  0  0  0  0
   -4.5210   -3.7735    0.0000 C   0  0  0  0  0  0  0  0  0  0  0  0
   -4.5210   -2.7738    0.0000 C   0  0  0  0  0  0  0  0  0  0  0  0
  1  2  2  0
  2  3  1  0
  4  5  2  0
  3  4  1  0
  1  5  1  0
  1  6  1  0
  7  8  1  0
  4  8  1  0
  6  9  1  0
  3 10  1  0
 11 14  1  0
 11 13  2  0
  6 12  2  0
 13 18  1  0
 14 15  2  0
 15 16  1  0
  7 16  1  0
 10 17  1  0
  7 17  1  0
 18 19  2  0
 15 19  1  0
  9 20  1  0
 11 21  1  0
 13 22  1  0
 22 23  1  0
 21 24  1  0
 20 25  1  0
 20 26  1  0
 23 27  1  0
 25 28  1  0
 28 29  1  0
 26 29  1  0
M  END
>  <IDNUMBER>  (365) 
SB71-0776

>  <available>  (365) 
34

>  <H_acceptor>  (365) 
6

>  <H_donor>  (365) 
1

>  <B_rotN>  (365) 
8

>  <N_O>  (365) 
7

>  <logP>  (365) 
2.2882

>  <logD>  (365) 
2.0264

>  <logSw>  (365) 
-2.8018

>  <PSA>  (365) 
56.787

>  <pKa_ma>  (365) 
15.6721

>  <pKa_mb>  (365) 
7.3176

>  <N_Chirals>  (365) 
0

>  <Name>  (365) 
N-cyclopentyl-5-[(4-ethoxy-3-methoxyphenyl)methyl]-4,5,6,7-tetrahydropyrazolo[1,5-a]pyrazine-2-carboxamide

>  <Smile>  (365) 
CCOc(ccc(CN1Cc2cc(C(NC3CCCC3)=O)nn2CC1)c1)c1OC

>  <Color>  (365) 
ORANGE

>  <Collection>  (365) 
IC

>  <InChI>  (365) 
InChI=1S/C22H30N4O3/c1-3-29-20-9-8-16(12-21(20)28-2)14-25-10-11-26-18(15-25)13-19(24-26)22(27)23-17-6-4-5-7-17/h8-9,12-13,17H,3-7,10-11,14-15H2,1-2H3,(H,23,27)

>  <InChI Key>  (365) 
RPOZAIWICREGAI-UHFFFAOYSA-N

>  <PERCENTSP3>  (365) 
54.54

>  <Link>  (365) 
https://www.chemdiv.com/catalog/screening-compounds/compound-SB71-0776/

>  <MFCDNUMBER>  (365) 
MFCD32249614

>  <CLNUMBER>  (365) 
CM5543

>  <STEREO>  (365) 
ACHIRAL

>  <State>  (365) 
Oil

>  <Similarity score>  (365) 
0.25

$$$$
N-(2-methoxyethyl)-5-{[3-(4-methoxyphenyl)-1H-pyrazol-4-yl]methyl}-4,5,6,7-tetra
     RDKit          2D

 30 33  0  0  0  0  0  0  0  0999 V2000
    3.5980   -1.5273    0.0000 C   0  0  0  0  0  0  0  0  0  0  0  0
    3.1896   -2.4397    0.0000 N   0  0  0  0  0  0  0  0  0  0  0  0
    2.1939   -2.3355    0.0000 N   0  0  0  0  0  0  0  0  0  0  0  0
    1.9896   -1.3564    0.0000 C   0  0  0  0  0  0  0  0  0  0  0  0
   -0.8647   -0.4313    0.0000 C   0  0  0  0  0  0  0  0  0  0  0  0
    2.8520   -0.8564    0.0000 C   0  0  0  0  0  0  0  0  0  0  0  0
   -1.7813   -0.0229    0.0000 C   0  0  0  0  0  0  0  0  0  0  0  0
   -1.6771    0.9729    0.0000 N   0  0  0  0  0  0  0  0  0  0  0  0
    4.5730   -1.3190    0.0000 C   0  0  0  0  0  0  0  0  0  0  0  0
    0.2937   -1.7146    0.0000 N   0  0  0  0  0  0  0  0  0  0  0  0
   -0.6981    1.1812    0.0000 N   0  0  0  0  0  0  0  0  0  0  0  0
   -0.6563   -1.4063    0.0000 C   0  0  0  0  0  0  0  0  0  0  0  0
    1.0353   -1.0480    0.0000 C   0  0  0  0  0  0  0  0  0  0  0  0
   -0.1980    0.3146    0.0000 C   0  0  0  0  0  0  0  0  0  0  0  0
    1.4521   -3.0021    0.0000 C   0  0  0  0  0  0  0  0  0  0  0  0
   -2.6439   -0.5231    0.0000 C   0  0  0  0  0  0  0  0  0  0  0  0
    5.2439   -2.0605    0.0000 O   0  0  0  0  0  0  0  0  0  0  0  0
    0.5019   -2.6939    0.0000 C   0  0  0  0  0  0  0  0  0  0  0  0
    4.8855   -0.3646    0.0000 N   0  0  0  0  0  0  0  0  0  0  0  0
   -3.5106   -0.0229    0.0000 C   0  0  0  0  0  0  0  0  0  0  0  0
   -2.6439   -1.5229    0.0000 C   0  0  0  0  0  0  0  0  0  0  0  0
   -4.3773   -1.5229    0.0000 C   0  0  0  0  0  0  0  0  0  0  0  0
   -4.3773   -0.5231    0.0000 C   0  0  0  0  0  0  0  0  0  0  0  0
   -3.5106   -2.0230    0.0000 C   0  0  0  0  0  0  0  0  0  0  0  0
   -5.2439   -2.0230    0.0000 O   0  0  0  0  0  0  0  0  0  0  0  0
    3.8564    2.0730    0.0000 O   0  0  0  0  0  0  0  0  0  0  0  0
    4.2148    0.3771    0.0000 C   0  0  0  0  0  0  0  0  0  0  0  0
    4.5230    1.3270    0.0000 C   0  0  0  0  0  0  0  0  0  0  0  0
   -5.2439   -3.0229    0.0000 C   0  0  0  0  0  0  0  0  0  0  0  0
    4.1648    3.0229    0.0000 C   0  0  0  0  0  0  0  0  0  0  0  0
  1  2  2  0
  2  3  1  0
  4  6  2  0
  3  4  1  0
  5 12  1  0
  1  6  1  0
  5  7  1  0
  7  8  2  0
  1  9  1  0
 10 13  1  0
 11 14  1  0
  8 11  1  0
 10 12  1  0
  4 13  1  0
  5 14  2  0
  3 15  1  0
  7 16  1  0
  9 17  2  0
 15 18  1  0
 10 18  1  0
  9 19  1  0
 16 20  2  0
 16 21  1  0
 22 24  1  0
 20 23  1  0
 22 23  2  0
 21 24  2  0
 22 25  1  0
 26 28  1  0
 19 27  1  0
 27 28  1  0
 25 29  1  0
 26 30  1  0
M  END
>  <IDNUMBER>  (366) 
SB71-0388

>  <available>  (366) 
50

>  <H_acceptor>  (366) 
7

>  <H_donor>  (366) 
2

>  <B_rotN>  (366) 
9

>  <N_O>  (366) 
9

>  <logP>  (366) 
1.1423

>  <logD>  (366) 
0.7053

>  <logSw>  (366) 
-2.2434

>  <PSA>  (366) 
82.045

>  <pKa_ma>  (366) 
11.6652

>  <pKa_mb>  (366) 
7.6393

>  <N_Chirals>  (366) 
0

>  <Name>  (366) 
N-(2-methoxyethyl)-5-{[3-(4-methoxyphenyl)-1H-pyrazol-4-yl]methyl}-4,5,6,7-tetrahydropyrazolo[1,5-a]pyrazine-2-carboxamide

>  <Smile>  (366) 
COCCNC(c1nn(CCN(Cc2c[nH]nc2-c(cc2)ccc2OC)C2)c2c1)=O

>  <Color>  (366) 
NOT COLORED

>  <Collection>  (366) 
IC

>  <InChI>  (366) 
InChI=1S/C21H26N6O3/c1-29-10-7-22-21(28)19-11-17-14-26(8-9-27(17)25-19)13-16-12-23-24-20(16)15-3-5-18(30-2)6-4-15/h3-6,11-12H,7-10,13-14H2,1-2H3,(H,22,28)(H,23,24)

>  <InChI Key>  (366) 
LKJGCZNFGMSERI-UHFFFAOYSA-N

>  <PERCENTSP3>  (366) 
38.1

>  <Link>  (366) 
https://www.chemdiv.com/catalog/screening-compounds/compound-SB71-0388/

>  <MFCDNUMBER>  (366) 
MFCD32249513

>  <CLNUMBER>  (366) 
CM5543

>  <STEREO>  (366) 
ACHIRAL

>  <State>  (366) 
Solid

>  <Similarity score>  (366) 
0.25

$$$$
{5-[(furan-2-yl)methyl]-4,5,6,7-tetrahydropyrazolo[1,5-a]pyrazin-2-yl}(morpholin
     RDKit          2D

 23 26  0  0  0  0  0  0  0  0999 V2000
    1.1603    0.2855    0.0000 C   0  0  0  0  0  0  0  0  0  0  0  0
    1.0563   -0.7105    0.0000 N   0  0  0  0  0  0  0  0  0  0  0  0
    0.0771   -0.9188    0.0000 N   0  0  0  0  0  0  0  0  0  0  0  0
   -0.4230   -0.0522    0.0000 C   0  0  0  0  0  0  0  0  0  0  0  0
    0.2479    0.6897    0.0000 C   0  0  0  0  0  0  0  0  0  0  0  0
    2.0271    0.7854    0.0000 C   0  0  0  0  0  0  0  0  0  0  0  0
    2.8936    0.2855    0.0000 N   0  0  0  0  0  0  0  0  0  0  0  0
   -1.9229   -0.9188    0.0000 N   0  0  0  0  0  0  0  0  0  0  0  0
   -1.4228   -0.0522    0.0000 C   0  0  0  0  0  0  0  0  0  0  0  0
   -0.4230   -1.7854    0.0000 C   0  0  0  0  0  0  0  0  0  0  0  0
   -3.4227   -0.0522    0.0000 C   0  0  0  0  0  0  0  0  0  0  0  0
   -3.0145    0.8604    0.0000 O   0  0  0  0  0  0  0  0  0  0  0  0
    2.0271    1.7854    0.0000 O   0  0  0  0  0  0  0  0  0  0  0  0
   -2.9228   -0.9188    0.0000 C   0  0  0  0  0  0  0  0  0  0  0  0
   -4.4185    0.0522    0.0000 C   0  0  0  0  0  0  0  0  0  0  0  0
   -3.7602    1.5312    0.0000 C   0  0  0  0  0  0  0  0  0  0  0  0
   -1.4228   -1.7854    0.0000 C   0  0  0  0  0  0  0  0  0  0  0  0
   -4.6228    1.0310    0.0000 C   0  0  0  0  0  0  0  0  0  0  0  0
    4.6228   -0.7147    0.0000 O   0  0  0  0  0  0  0  0  0  0  0  0
    3.7602    0.7854    0.0000 C   0  0  0  0  0  0  0  0  0  0  0  0
    2.8936   -0.7147    0.0000 C   0  0  0  0  0  0  0  0  0  0  0  0
    3.7602   -1.2145    0.0000 C   0  0  0  0  0  0  0  0  0  0  0  0
    4.6228    0.2855    0.0000 C   0  0  0  0  0  0  0  0  0  0  0  0
  1  2  2  0
  2  3  1  0
  4  5  2  0
  3  4  1  0
  1  5  1  0
  1  6  1  0
  6  7  1  0
  8  9  1  0
  4  9  1  0
  3 10  1  0
 11 14  1  0
 11 12  1  0
  6 13  2  0
  8 14  1  0
 11 15  2  0
 12 16  1  0
 10 17  1  0
  8 17  1  0
 15 18  1  0
 16 18  2  0
 19 22  1  0
 19 23  1  0
  7 20  1  0
  7 21  1  0
 21 22  1  0
 20 23  1  0
M  END
>  <IDNUMBER>  (367) 
SB71-0207

>  <available>  (367) 
7

>  <H_acceptor>  (367) 
6

>  <H_donor>  (367) 
0

>  <B_rotN>  (367) 
4

>  <N_O>  (367) 
7

>  <logP>  (367) 
0.3015

>  <logD>  (367) 
0.2943

>  <logSw>  (367) 
-1.2892

>  <PSA>  (367) 
49.748

>  <pKa_ma>  (367) 
26.9104

>  <pKa_mb>  (367) 
5.6229

>  <N_Chirals>  (367) 
0

>  <Name>  (367) 
{5-[(furan-2-yl)methyl]-4,5,6,7-tetrahydropyrazolo[1,5-a]pyrazin-2-yl}(morpholin-4-yl)methanone

>  <Smile>  (367) 
O=C(c1nn(CCN(Cc2ccco2)C2)c2c1)N1CCOCC1

>  <Color>  (367) 
BROWN

>  <Collection>  (367) 
IC

>  <InChI>  (367) 
InChI=1S/C16H20N4O3/c21-16(19-5-8-22-9-6-19)15-10-13-11-18(3-4-20(13)17-15)12-14-2-1-7-23-14/h1-2,7,10H,3-6,8-9,11-12H2

>  <InChI Key>  (367) 
GXLLSYAKHKCXHK-UHFFFAOYSA-N

>  <PERCENTSP3>  (367) 
50

>  <Link>  (367) 
https://www.chemdiv.com/catalog/screening-compounds/compound-SB71-0207/

>  <MFCDNUMBER>  (367) 
MFCD32249567

>  <CLNUMBER>  (367) 
CM5543

>  <STEREO>  (367) 
ACHIRAL

>  <State>  (367) 
Solid

>  <Similarity score>  (367) 
0.25

$$$$
[5-(4-methoxybenzene-1-sulfonyl)-4,5,6,7-tetrahydropyrazolo[1,5-a]pyrazin-2-yl](
     RDKit          2D

 28 31  0  0  0  0  0  0  0  0999 V2000
   -0.6563   -1.8523    0.0000 S   0  0  0  0  0  0  0  0  0  0  0  0
    3.4271   -0.6479    0.0000 C   0  0  0  0  0  0  0  0  0  0  0  0
    3.3230   -1.6438    0.0000 N   0  0  0  0  0  0  0  0  0  0  0  0
    0.3439   -1.8523    0.0000 N   0  0  0  0  0  0  0  0  0  0  0  0
    1.8437   -0.9854    0.0000 C   0  0  0  0  0  0  0  0  0  0  0  0
    2.3437   -1.8523    0.0000 N   0  0  0  0  0  0  0  0  0  0  0  0
    2.5104   -0.2436    0.0000 C   0  0  0  0  0  0  0  0  0  0  0  0
    4.2896   -0.1478    0.0000 C   0  0  0  0  0  0  0  0  0  0  0  0
    0.8439   -0.9854    0.0000 C   0  0  0  0  0  0  0  0  0  0  0  0
    4.2896    0.8521    0.0000 N   0  0  0  0  0  0  0  0  0  0  0  0
   -1.6563   -1.8523    0.0000 C   0  0  0  0  0  0  0  0  0  0  0  0
    0.8439   -2.7189    0.0000 C   0  0  0  0  0  0  0  0  0  0  0  0
    1.8437   -2.7189    0.0000 C   0  0  0  0  0  0  0  0  0  0  0  0
   -0.6563   -0.8521    0.0000 O   0  0  0  0  0  0  0  0  0  0  0  0
   -0.6563   -2.8521    0.0000 O   0  0  0  0  0  0  0  0  0  0  0  0
    5.1564   -0.6479    0.0000 O   0  0  0  0  0  0  0  0  0  0  0  0
   -2.1563   -2.7189    0.0000 C   0  0  0  0  0  0  0  0  0  0  0  0
   -2.1563   -0.9854    0.0000 C   0  0  0  0  0  0  0  0  0  0  0  0
    4.2896    2.8521    0.0000 O   0  0  0  0  0  0  0  0  0  0  0  0
   -3.6564   -1.8523    0.0000 C   0  0  0  0  0  0  0  0  0  0  0  0
   -3.1564   -2.7189    0.0000 C   0  0  0  0  0  0  0  0  0  0  0  0
   -3.1564   -0.9854    0.0000 C   0  0  0  0  0  0  0  0  0  0  0  0
    5.1564    1.3523    0.0000 C   0  0  0  0  0  0  0  0  0  0  0  0
    3.4271    1.3523    0.0000 C   0  0  0  0  0  0  0  0  0  0  0  0
   -4.6564   -1.8523    0.0000 O   0  0  0  0  0  0  0  0  0  0  0  0
    5.1564    2.3521    0.0000 C   0  0  0  0  0  0  0  0  0  0  0  0
    3.4271    2.3521    0.0000 C   0  0  0  0  0  0  0  0  0  0  0  0
   -5.1564   -2.7189    0.0000 C   0  0  0  0  0  0  0  0  0  0  0  0
  2  7  1  0
  2  3  2  0
  3  6  1  0
  1  4  1  0
  5  9  1  0
  5  6  1  0
  6 13  1  0
  5  7  2  0
  2  8  1  0
  4  9  1  0
  8 10  1  0
  1 11  1  0
  4 12  1  0
 12 13  1  0
  1 14  2  0
  1 15  2  0
  8 16  2  0
 11 17  1  0
 11 18  2  0
 19 27  1  0
 19 26  1  0
 20 22  2  0
 17 21  2  0
 20 21  1  0
 18 22  1  0
 10 23  1  0
 10 24  1  0
 20 25  1  0
 23 26  1  0
 24 27  1  0
 25 28  1  0
M  END
>  <IDNUMBER>  (368) 
SB71-0274

>  <available>  (368) 
52

>  <H_acceptor>  (368) 
10

>  <H_donor>  (368) 
0

>  <B_rotN>  (368) 
5

>  <N_O>  (368) 
9

>  <logP>  (368) 
0.5898

>  <logD>  (368) 
0.5898

>  <logSw>  (368) 
-2.365

>  <PSA>  (368) 
77.521

>  <pKa_ma>  (368) 
26.1583

>  <pKa_mb>  (368) 
-4.4541

>  <N_Chirals>  (368) 
0

>  <Name>  (368) 
[5-(4-methoxybenzene-1-sulfonyl)-4,5,6,7-tetrahydropyrazolo[1,5-a]pyrazin-2-yl](morpholin-4-yl)methanone

>  <Smile>  (368) 
COc(cc1)ccc1S(N1Cc2cc(C(N3CCOCC3)=O)nn2CC1)(=O)=O

>  <Color>  (368) 
NOT COLORED

>  <Collection>  (368) 
IC

>  <InChI>  (368) 
InChI=1S/C18H22N4O5S/c1-26-15-2-4-16(5-3-15)28(24,25)21-6-7-22-14(13-21)12-17(19-22)18(23)20-8-10-27-11-9-20/h2-5,12H,6-11,13H2,1H3

>  <InChI Key>  (368) 
ANQGPMKYYLTIAI-UHFFFAOYSA-N

>  <PERCENTSP3>  (368) 
44.44

>  <Link>  (368) 
https://www.chemdiv.com/catalog/screening-compounds/compound-SB71-0274/

>  <MFCDNUMBER>  (368) 
MFCD32249262

>  <CLNUMBER>  (368) 
CM5543

>  <STEREO>  (368) 
ACHIRAL

>  <State>  (368) 
Solid

>  <Similarity score>  (368) 
0.25

$$$$
5-[(1H-indol-6-yl)methyl]-N-(propan-2-yl)-4,5,6,7-tetrahydropyrazolo[1,5-a]pyraz
     RDKit          2D

 25 28  0  0  0  0  0  0  0  0999 V2000
    1.6392   -0.2437    0.0000 C   0  0  0  0  0  0  0  0  0  0  0  0
    2.0435    0.6728    0.0000 N   0  0  0  0  0  0  0  0  0  0  0  0
    1.3018    1.3395    0.0000 N   0  0  0  0  0  0  0  0  0  0  0  0
    0.4353    0.8395    0.0000 C   0  0  0  0  0  0  0  0  0  0  0  0
    0.6436   -0.1396    0.0000 C   0  0  0  0  0  0  0  0  0  0  0  0
    2.1392   -1.1061    0.0000 C   0  0  0  0  0  0  0  0  0  0  0  0
   -0.4311    2.3393    0.0000 N   0  0  0  0  0  0  0  0  0  0  0  0
   -0.4311    1.3395    0.0000 C   0  0  0  0  0  0  0  0  0  0  0  0
   -3.0265    0.8395    0.0000 C   0  0  0  0  0  0  0  0  0  0  0  0
    3.1392   -1.1061    0.0000 N   0  0  0  0  0  0  0  0  0  0  0  0
   -3.2348   -0.1396    0.0000 N   0  0  0  0  0  0  0  0  0  0  0  0
    1.3018    2.3393    0.0000 C   0  0  0  0  0  0  0  0  0  0  0  0
   -4.2304   -0.2437    0.0000 C   0  0  0  0  0  0  0  0  0  0  0  0
   -3.8931    1.3395    0.0000 C   0  0  0  0  0  0  0  0  0  0  0  0
    1.6392   -1.9727    0.0000 O   0  0  0  0  0  0  0  0  0  0  0  0
   -2.1641    1.3395    0.0000 C   0  0  0  0  0  0  0  0  0  0  0  0
   -4.6388    0.6728    0.0000 C   0  0  0  0  0  0  0  0  0  0  0  0
   -2.1641    2.3393    0.0000 C   0  0  0  0  0  0  0  0  0  0  0  0
   -1.2976    2.8391    0.0000 C   0  0  0  0  0  0  0  0  0  0  0  0
    0.4353    2.8391    0.0000 C   0  0  0  0  0  0  0  0  0  0  0  0
   -3.8931    2.3393    0.0000 C   0  0  0  0  0  0  0  0  0  0  0  0
   -3.0265    2.8391    0.0000 C   0  0  0  0  0  0  0  0  0  0  0  0
    3.6390   -1.9727    0.0000 C   0  0  0  0  0  0  0  0  0  0  0  0
    4.6388   -1.9727    0.0000 C   0  0  0  0  0  0  0  0  0  0  0  0
    3.1392   -2.8391    0.0000 C   0  0  0  0  0  0  0  0  0  0  0  0
  1  2  2  0
  2  3  1  0
  4  5  2  0
  3  4  1  0
  1  5  1  0
  1  6  1  0
  7  8  1  0
  4  8  1  0
  9 16  2  0
  9 14  1  0
  6 10  1  0
  9 11  1  0
  3 12  1  0
 11 13  1  0
 14 21  2  0
  6 15  2  0
 16 18  1  0
 14 17  1  0
 13 17  2  0
 18 19  1  0
  7 19  1  0
 12 20  1  0
  7 20  1  0
 21 22  1  0
 18 22  2  0
 10 23  1  0
 23 24  1  0
 23 25  1  0
M  END
>  <IDNUMBER>  (369) 
SB71-0619

>  <available>  (369) 
20

>  <H_acceptor>  (369) 
4

>  <H_donor>  (369) 
2

>  <B_rotN>  (369) 
5

>  <N_O>  (369) 
6

>  <logP>  (369) 
1.8388

>  <logD>  (369) 
1.822

>  <logSw>  (369) 
-2.6435

>  <PSA>  (369) 
50.882

>  <pKa_ma>  (369) 
14.8713

>  <pKa_mb>  (369) 
5.9974

>  <N_Chirals>  (369) 
0

>  <Name>  (369) 
5-[(1H-indol-6-yl)methyl]-N-(propan-2-yl)-4,5,6,7-tetrahydropyrazolo[1,5-a]pyrazine-2-carboxamide

>  <Smile>  (369) 
CC(C)NC(c1nn(CCN(Cc2cc([nH]cc3)c3cc2)C2)c2c1)=O

>  <Color>  (369) 
ORANGE

>  <Collection>  (369) 
IC

>  <InChI>  (369) 
InChI=1S/C19H23N5O/c1-13(2)21-19(25)18-10-16-12-23(7-8-24(16)22-18)11-14-3-4-15-5-6-20-17(15)9-14/h3-6,9-10,13,20H,7-8,11-12H2,1-2H3,(H,21,25)

>  <InChI Key>  (369) 
NLJSQHXGTQVVPW-UHFFFAOYSA-N

>  <PERCENTSP3>  (369) 
36.84

>  <Link>  (369) 
https://www.chemdiv.com/catalog/screening-compounds/compound-SB71-0619/

>  <MFCDNUMBER>  (369) 
MFCD32249305

>  <CLNUMBER>  (369) 
CM5543

>  <STEREO>  (369) 
ACHIRAL

>  <State>  (369) 
Solid

>  <Similarity score>  (369) 
0.25

$$$$
5-[(1H-indol-3-yl)acetyl]-N,N-dimethyl-4,5,6,7-tetrahydropyrazolo[1,5-a]pyrazine
     RDKit          2D

 26 29  0  0  0  0  0  0  0  0999 V2000
    2.6809   -0.0271    0.0000 C   0  0  0  0  0  0  0  0  0  0  0  0
    2.3725   -0.9770    0.0000 N   0  0  0  0  0  0  0  0  0  0  0  0
    1.0603   -0.0271    0.0000 C   0  0  0  0  0  0  0  0  0  0  0  0
    1.3725   -0.9770    0.0000 N   0  0  0  0  0  0  0  0  0  0  0  0
    1.8727    0.5646    0.0000 C   0  0  0  0  0  0  0  0  0  0  0  0
   -0.5854   -0.5603    0.0000 N   0  0  0  0  0  0  0  0  0  0  0  0
    3.6307    0.2811    0.0000 C   0  0  0  0  0  0  0  0  0  0  0  0
   -2.8515    0.8063    0.0000 C   0  0  0  0  0  0  0  0  0  0  0  0
   -1.5643   -0.3520    0.0000 C   0  0  0  0  0  0  0  0  0  0  0  0
   -4.2514    1.6144    0.0000 N   0  0  0  0  0  0  0  0  0  0  0  0
   -3.2557    1.7186    0.0000 C   0  0  0  0  0  0  0  0  0  0  0  0
    0.0852    0.1813    0.0000 C   0  0  0  0  0  0  0  0  0  0  0  0
   -1.8727    0.5979    0.0000 C   0  0  0  0  0  0  0  0  0  0  0  0
   -3.5932    0.1355    0.0000 C   0  0  0  0  0  0  0  0  0  0  0  0
    0.7019   -1.7186    0.0000 C   0  0  0  0  0  0  0  0  0  0  0  0
   -4.4597    0.6353    0.0000 C   0  0  0  0  0  0  0  0  0  0  0  0
    4.3722   -0.3853    0.0000 N   0  0  0  0  0  0  0  0  0  0  0  0
   -0.2770   -1.5102    0.0000 C   0  0  0  0  0  0  0  0  0  0  0  0
    3.8389    1.2602    0.0000 O   0  0  0  0  0  0  0  0  0  0  0  0
   -2.2307   -1.0935    0.0000 O   0  0  0  0  0  0  0  0  0  0  0  0
   -3.5932   -0.8644    0.0000 C   0  0  0  0  0  0  0  0  0  0  0  0
    4.1638   -1.3644    0.0000 C   0  0  0  0  0  0  0  0  0  0  0  0
    5.3263   -0.0771    0.0000 C   0  0  0  0  0  0  0  0  0  0  0  0
   -5.3263    0.1355    0.0000 C   0  0  0  0  0  0  0  0  0  0  0  0
   -4.4597   -1.3644    0.0000 C   0  0  0  0  0  0  0  0  0  0  0  0
   -5.3263   -0.8644    0.0000 C   0  0  0  0  0  0  0  0  0  0  0  0
  1  2  2  0
  3  5  2  0
  3  4  1  0
  2  4  1  0
  1  5  1  0
  6 12  1  0
  1  7  1  0
  8 13  1  0
  6  9  1  0
 10 11  1  0
  8 11  2  0
  3 12  1  0
  9 13  1  0
  8 14  1  0
  4 15  1  0
 14 16  2  0
 10 16  1  0
  7 17  1  0
 15 18  1  0
  6 18  1  0
  7 19  2  0
  9 20  2  0
 14 21  1  0
 17 22  1  0
 17 23  1  0
 16 24  1  0
 24 26  2  0
 21 25  2  0
 25 26  1  0
M  END
>  <IDNUMBER>  (370) 
SB71-0028

>  <available>  (370) 
49

>  <H_acceptor>  (370) 
5

>  <H_donor>  (370) 
1

>  <B_rotN>  (370) 
5

>  <N_O>  (370) 
7

>  <logP>  (370) 
0.5716

>  <logD>  (370) 
0.5716

>  <logSw>  (370) 
-2.1904

>  <PSA>  (370) 
55.702

>  <pKa_ma>  (370) 
17.7747

>  <pKa_mb>  (370) 
-2.791

>  <N_Chirals>  (370) 
0

>  <Name>  (370) 
5-[(1H-indol-3-yl)acetyl]-N,N-dimethyl-4,5,6,7-tetrahydropyrazolo[1,5-a]pyrazine-2-carboxamide

>  <Smile>  (370) 
CN(C)C(c1nn(CCN(C2)C(Cc3c[nH]c4c3cccc4)=O)c2c1)=O

>  <Color>  (370) 
NOT COLORED

>  <Collection>  (370) 
IC

>  <InChI>  (370) 
InChI=1S/C19H21N5O2/c1-22(2)19(26)17-10-14-12-23(7-8-24(14)21-17)18(25)9-13-11-20-16-6-4-3-5-15(13)16/h3-6,10-11,20H,7-9,12H2,1-2H3

>  <InChI Key>  (370) 
QIDUWVZYCHZKFH-UHFFFAOYSA-N

>  <PERCENTSP3>  (370) 
31.58

>  <Link>  (370) 
https://www.chemdiv.com/catalog/screening-compounds/compound-SB71-0028/

>  <MFCDNUMBER>  (370) 
MFCD32249159

>  <CLNUMBER>  (370) 
CM5543

>  <STEREO>  (370) 
ACHIRAL

>  <State>  (370) 
Solid

>  <Similarity score>  (370) 
0.25

$$$$
[5-(4-ethylbenzene-1-sulfonyl)-4,5,6,7-tetrahydropyrazolo[1,5-a]pyrazin-2-yl](py
     RDKit          2D

 27 30  0  0  0  0  0  0  0  0999 V2000
   -0.6565   -1.6192    0.0000 S   0  0  0  0  0  0  0  0  0  0  0  0
    3.4282   -0.4189    0.0000 C   0  0  0  0  0  0  0  0  0  0  0  0
    3.3241   -1.4151    0.0000 N   0  0  0  0  0  0  0  0  0  0  0  0
    0.3438   -1.6192    0.0000 N   0  0  0  0  0  0  0  0  0  0  0  0
    1.8443   -0.7565    0.0000 C   0  0  0  0  0  0  0  0  0  0  0  0
    2.3445   -1.6192    0.0000 N   0  0  0  0  0  0  0  0  0  0  0  0
    2.5110   -0.0102    0.0000 C   0  0  0  0  0  0  0  0  0  0  0  0
    4.2910    0.0814    0.0000 C   0  0  0  0  0  0  0  0  0  0  0  0
    0.8442   -0.7565    0.0000 C   0  0  0  0  0  0  0  0  0  0  0  0
    4.2910    1.0816    0.0000 N   0  0  0  0  0  0  0  0  0  0  0  0
   -1.6569   -1.6192    0.0000 C   0  0  0  0  0  0  0  0  0  0  0  0
    0.8442   -2.4860    0.0000 C   0  0  0  0  0  0  0  0  0  0  0  0
    1.8443   -2.4860    0.0000 C   0  0  0  0  0  0  0  0  0  0  0  0
   -0.6565   -0.6230    0.0000 O   0  0  0  0  0  0  0  0  0  0  0  0
   -0.6565   -2.6197    0.0000 O   0  0  0  0  0  0  0  0  0  0  0  0
    5.1581   -0.4189    0.0000 O   0  0  0  0  0  0  0  0  0  0  0  0
   -2.1570   -2.4860    0.0000 C   0  0  0  0  0  0  0  0  0  0  0  0
   -2.1570   -0.7565    0.0000 C   0  0  0  0  0  0  0  0  0  0  0  0
   -3.1574   -0.7565    0.0000 C   0  0  0  0  0  0  0  0  0  0  0  0
   -3.1574   -2.4860    0.0000 C   0  0  0  0  0  0  0  0  0  0  0  0
   -3.6576   -1.6192    0.0000 C   0  0  0  0  0  0  0  0  0  0  0  0
    3.4825    1.6694    0.0000 C   0  0  0  0  0  0  0  0  0  0  0  0
    5.1038    1.6694    0.0000 C   0  0  0  0  0  0  0  0  0  0  0  0
   -4.6579   -1.6192    0.0000 C   0  0  0  0  0  0  0  0  0  0  0  0
    3.7907    2.6197    0.0000 C   0  0  0  0  0  0  0  0  0  0  0  0
    4.7912    2.6197    0.0000 C   0  0  0  0  0  0  0  0  0  0  0  0
   -5.1581   -2.4860    0.0000 C   0  0  0  0  0  0  0  0  0  0  0  0
  2  7  1  0
  2  3  2  0
  3  6  1  0
  1  4  1  0
  5  9  1  0
  5  6  1  0
  6 13  1  0
  5  7  2  0
  2  8  1  0
  4  9  1  0
  8 10  1  0
  1 11  1  0
  4 12  1  0
 12 13  1  0
  1 14  2  0
  1 15  2  0
  8 16  2  0
 11 17  2  0
 11 18  1  0
 18 19  2  0
 17 20  1  0
 20 21  2  0
 19 21  1  0
 10 22  1  0
 10 23  1  0
 21 24  1  0
 22 25  1  0
 25 26  1  0
 23 26  1  0
 24 27  1  0
M  END
>  <IDNUMBER>  (371) 
SB71-0983

>  <available>  (371) 
100

>  <H_acceptor>  (371) 
8

>  <H_donor>  (371) 
0

>  <B_rotN>  (371) 
5

>  <N_O>  (371) 
7

>  <logP>  (371) 
2.4094

>  <logD>  (371) 
2.4094

>  <logSw>  (371) 
-2.7565

>  <PSA>  (371) 
62.435

>  <pKa_ma>  (371) 
26.1583

>  <pKa_mb>  (371) 
-3.592

>  <N_Chirals>  (371) 
0

>  <Name>  (371) 
[5-(4-ethylbenzene-1-sulfonyl)-4,5,6,7-tetrahydropyrazolo[1,5-a]pyrazin-2-yl](pyrrolidin-1-yl)methanone

>  <Smile>  (371) 
CCc(cc1)ccc1S(N1Cc2cc(C(N3CCCC3)=O)nn2CC1)(=O)=O

>  <Color>  (371) 
ORANGE

>  <Collection>  (371) 
IC

>  <InChI>  (371) 
InChI=1S/C19H24N4O3S/c1-2-15-5-7-17(8-6-15)27(25,26)22-11-12-23-16(14-22)13-18(20-23)19(24)21-9-3-4-10-21/h5-8,13H,2-4,9-12,14H2,1H3

>  <InChI Key>  (371) 
LNCMAVGCOMJCIM-UHFFFAOYSA-N

>  <PERCENTSP3>  (371) 
47.37

>  <Link>  (371) 
https://www.chemdiv.com/catalog/screening-compounds/compound-SB71-0983/

>  <MFCDNUMBER>  (371) 
MFCD32249466

>  <CLNUMBER>  (371) 
CM5543

>  <STEREO>  (371) 
ACHIRAL

>  <State>  (371) 
Solid

>  <Similarity score>  (371) 
0.25

$$$$
[5-(3-fluoro-4-methoxybenzoyl)-4,5,6,7-tetrahydropyrazolo[1,5-a]pyrazin-2-yl](mo
     RDKit          2D

 28 31  0  0  0  0  0  0  0  0999 V2000
    1.8818   -1.1775    0.0000 C   0  0  0  0  0  0  0  0  0  0  0  0
    2.2902   -0.2604    0.0000 N   0  0  0  0  0  0  0  0  0  0  0  0
    0.6813   -0.0939    0.0000 C   0  0  0  0  0  0  0  0  0  0  0  0
    1.5482    0.4062    0.0000 N   0  0  0  0  0  0  0  0  0  0  0  0
    0.8898   -1.0732    0.0000 C   0  0  0  0  0  0  0  0  0  0  0  0
   -0.1855    1.4064    0.0000 N   0  0  0  0  0  0  0  0  0  0  0  0
    2.3819   -2.0402    0.0000 C   0  0  0  0  0  0  0  0  0  0  0  0
   -1.0523    1.9068    0.0000 C   0  0  0  0  0  0  0  0  0  0  0  0
   -0.1855    0.4062    0.0000 C   0  0  0  0  0  0  0  0  0  0  0  0
    3.3820   -2.0402    0.0000 N   0  0  0  0  0  0  0  0  0  0  0  0
   -1.9193    1.4064    0.0000 C   0  0  0  0  0  0  0  0  0  0  0  0
    1.5482    1.4064    0.0000 C   0  0  0  0  0  0  0  0  0  0  0  0
   -2.7862    1.9068    0.0000 C   0  0  0  0  0  0  0  0  0  0  0  0
   -3.6532    1.4064    0.0000 C   0  0  0  0  0  0  0  0  0  0  0  0
    0.6813    1.9068    0.0000 C   0  0  0  0  0  0  0  0  0  0  0  0
    1.8818   -2.9070    0.0000 O   0  0  0  0  0  0  0  0  0  0  0  0
   -1.0523    2.9070    0.0000 O   0  0  0  0  0  0  0  0  0  0  0  0
   -3.6532    0.4062    0.0000 C   0  0  0  0  0  0  0  0  0  0  0  0
   -1.9193    0.4062    0.0000 C   0  0  0  0  0  0  0  0  0  0  0  0
   -2.7862   -0.0939    0.0000 C   0  0  0  0  0  0  0  0  0  0  0  0
    5.3827   -2.0402    0.0000 O   0  0  0  0  0  0  0  0  0  0  0  0
   -4.5160    1.9068    0.0000 F   0  0  0  0  0  0  0  0  0  0  0  0
   -4.5160   -0.0939    0.0000 O   0  0  0  0  0  0  0  0  0  0  0  0
    3.8823   -2.9070    0.0000 C   0  0  0  0  0  0  0  0  0  0  0  0
    3.8823   -1.1775    0.0000 C   0  0  0  0  0  0  0  0  0  0  0  0
    4.8825   -1.1775    0.0000 C   0  0  0  0  0  0  0  0  0  0  0  0
    4.8825   -2.9070    0.0000 C   0  0  0  0  0  0  0  0  0  0  0  0
   -5.3827    0.4062    0.0000 C   0  0  0  0  0  0  0  0  0  0  0  0
  1  2  2  0
  3  5  2  0
  3  4  1  0
  2  4  1  0
  1  5  1  0
  6  9  1  0
  1  7  1  0
  6  8  1  0
  3  9  1  0
  7 10  1  0
  8 11  1  0
  4 12  1  0
 11 13  2  0
 13 14  1  0
 14 18  2  0
 12 15  1  0
  6 15  1  0
  7 16  2  0
  8 17  2  0
 18 20  1  0
 11 19  1  0
 19 20  2  0
 21 26  1  0
 21 27  1  0
 14 22  1  0
 18 23  1  0
 10 24  1  0
 10 25  1  0
 25 26  1  0
 24 27  1  0
 23 28  1  0
M  END
>  <IDNUMBER>  (372) 
SB71-0227

>  <available>  (372) 
75

>  <H_acceptor>  (372) 
7

>  <H_donor>  (372) 
0

>  <B_rotN>  (372) 
5

>  <N_O>  (372) 
8

>  <logP>  (372) 
0.3895

>  <logD>  (372) 
0.3895

>  <logSw>  (372) 
-1.6678

>  <PSA>  (372) 
62.545

>  <pKa_ma>  (372) 
25.9791

>  <pKa_mb>  (372) 
-4.3408

>  <N_Chirals>  (372) 
0

>  <Name>  (372) 
[5-(3-fluoro-4-methoxybenzoyl)-4,5,6,7-tetrahydropyrazolo[1,5-a]pyrazin-2-yl](morpholin-4-yl)methanone

>  <Smile>  (372) 
COc(ccc(C(N1Cc2cc(C(N3CCOCC3)=O)nn2CC1)=O)c1)c1F

>  <Color>  (372) 
YELLOW

>  <Collection>  (372) 
IC

>  <InChI>  (372) 
InChI=1S/C19H21FN4O4/c1-27-17-3-2-13(10-15(17)20)18(25)23-4-5-24-14(12-23)11-16(21-24)19(26)22-6-8-28-9-7-22/h2-3,10-11H,4-9,12H2,1H3

>  <InChI Key>  (372) 
UXZKEQYPCHMXSX-UHFFFAOYSA-N

>  <PERCENTSP3>  (372) 
42.1

>  <Link>  (372) 
https://www.chemdiv.com/catalog/screening-compounds/compound-SB71-0227/

>  <MFCDNUMBER>  (372) 
MFCD32249635

>  <CLNUMBER>  (372) 
CM5543

>  <STEREO>  (372) 
ACHIRAL

>  <State>  (372) 
Solid

>  <Similarity score>  (372) 
0.25

$$$$
[5-(3-methoxybenzene-1-sulfonyl)-4,5,6,7-tetrahydropyrazolo[1,5-a]pyrazin-2-yl](
     RDKit          2D

 27 30  0  0  0  0  0  0  0  0999 V2000
   -0.9066   -1.6192    0.0000 S   0  0  0  0  0  0  0  0  0  0  0  0
    3.1782   -0.4189    0.0000 C   0  0  0  0  0  0  0  0  0  0  0  0
    3.0739   -1.4150    0.0000 N   0  0  0  0  0  0  0  0  0  0  0  0
    0.0939   -1.6192    0.0000 N   0  0  0  0  0  0  0  0  0  0  0  0
    1.5943   -0.7564    0.0000 C   0  0  0  0  0  0  0  0  0  0  0  0
    2.0945   -1.6192    0.0000 N   0  0  0  0  0  0  0  0  0  0  0  0
    2.2612   -0.0103    0.0000 C   0  0  0  0  0  0  0  0  0  0  0  0
    4.0411    0.0813    0.0000 C   0  0  0  0  0  0  0  0  0  0  0  0
    0.5940   -0.7564    0.0000 C   0  0  0  0  0  0  0  0  0  0  0  0
   -1.9069   -1.6192    0.0000 C   0  0  0  0  0  0  0  0  0  0  0  0
    4.0411    1.0817    0.0000 N   0  0  0  0  0  0  0  0  0  0  0  0
    0.5940   -2.4862    0.0000 C   0  0  0  0  0  0  0  0  0  0  0  0
    1.5943   -2.4862    0.0000 C   0  0  0  0  0  0  0  0  0  0  0  0
   -0.9066   -0.6230    0.0000 O   0  0  0  0  0  0  0  0  0  0  0  0
   -0.9066   -2.6196    0.0000 O   0  0  0  0  0  0  0  0  0  0  0  0
   -2.4070   -0.7564    0.0000 C   0  0  0  0  0  0  0  0  0  0  0  0
    4.9079   -0.4189    0.0000 O   0  0  0  0  0  0  0  0  0  0  0  0
   -3.4075   -0.7564    0.0000 C   0  0  0  0  0  0  0  0  0  0  0  0
   -2.4070   -2.4862    0.0000 C   0  0  0  0  0  0  0  0  0  0  0  0
    3.2325    1.6695    0.0000 C   0  0  0  0  0  0  0  0  0  0  0  0
    4.8538    1.6695    0.0000 C   0  0  0  0  0  0  0  0  0  0  0  0
   -3.9075    0.1104    0.0000 O   0  0  0  0  0  0  0  0  0  0  0  0
   -3.4075   -2.4862    0.0000 C   0  0  0  0  0  0  0  0  0  0  0  0
   -3.9075   -1.6192    0.0000 C   0  0  0  0  0  0  0  0  0  0  0  0
   -4.9079    0.1104    0.0000 C   0  0  0  0  0  0  0  0  0  0  0  0
    4.5412    2.6196    0.0000 C   0  0  0  0  0  0  0  0  0  0  0  0
    3.5408    2.6196    0.0000 C   0  0  0  0  0  0  0  0  0  0  0  0
  2  7  1  0
  2  3  2  0
  3  6  1  0
  1  4  1  0
  5  9  1  0
  5  6  1  0
  6 13  1  0
  5  7  2  0
  2  8  1  0
  4  9  1  0
  1 10  1  0
  8 11  1  0
  4 12  1  0
 12 13  1  0
  1 14  2  0
  1 15  2  0
 10 16  1  0
  8 17  2  0
 16 18  2  0
 18 24  1  0
 10 19  2  0
 11 20  1  0
 11 21  1  0
 18 22  1  0
 19 23  1  0
 23 24  2  0
 22 25  1  0
 21 26  1  0
 20 27  1  0
 26 27  1  0
M  END
>  <IDNUMBER>  (373) 
SB71-0930

>  <available>  (373) 
116

>  <H_acceptor>  (373) 
9

>  <H_donor>  (373) 
0

>  <B_rotN>  (373) 
5

>  <N_O>  (373) 
8

>  <logP>  (373) 
1.4584

>  <logD>  (373) 
1.4584

>  <logSw>  (373) 
-2.4341

>  <PSA>  (373) 
69.978

>  <pKa_ma>  (373) 
26.1583

>  <pKa_mb>  (373) 
-3.592

>  <N_Chirals>  (373) 
0

>  <Name>  (373) 
[5-(3-methoxybenzene-1-sulfonyl)-4,5,6,7-tetrahydropyrazolo[1,5-a]pyrazin-2-yl](pyrrolidin-1-yl)methanone

>  <Smile>  (373) 
COc1cccc(S(N2Cc3cc(C(N4CCCC4)=O)nn3CC2)(=O)=O)c1

>  <Color>  (373) 
ORANGE

>  <Collection>  (373) 
IC

>  <InChI>  (373) 
InChI=1S/C18H22N4O4S/c1-26-15-5-4-6-16(12-15)27(24,25)21-9-10-22-14(13-21)11-17(19-22)18(23)20-7-2-3-8-20/h4-6,11-12H,2-3,7-10,13H2,1H3

>  <InChI Key>  (373) 
IXDHWBUAHNIGCR-UHFFFAOYSA-N

>  <PERCENTSP3>  (373) 
44.44

>  <Link>  (373) 
https://www.chemdiv.com/catalog/screening-compounds/compound-SB71-0930/

>  <MFCDNUMBER>  (373) 
MFCD32249435

>  <CLNUMBER>  (373) 
CM5543

>  <STEREO>  (373) 
ACHIRAL

>  <State>  (373) 
Solid

>  <Similarity score>  (373) 
0.25

$$$$
N-(2-methoxyethyl)-5-[(1-methyl-1H-indol-3-yl)methyl]-4,5,6,7-tetrahydropyrazolo
     RDKit          2D

 27 30  0  0  0  0  0  0  0  0999 V2000
    2.7686   -1.4437    0.0000 C   0  0  0  0  0  0  0  0  0  0  0  0
    2.4603   -2.3936    0.0000 N   0  0  0  0  0  0  0  0  0  0  0  0
   -1.7811   -0.8188    0.0000 C   0  0  0  0  0  0  0  0  0  0  0  0
    1.4602   -2.3936    0.0000 N   0  0  0  0  0  0  0  0  0  0  0  0
    1.1520   -1.4437    0.0000 C   0  0  0  0  0  0  0  0  0  0  0  0
    1.9603   -0.8563    0.0000 C   0  0  0  0  0  0  0  0  0  0  0  0
   -1.7811    0.7977    0.0000 N   0  0  0  0  0  0  0  0  0  0  0  0
   -1.1936   -0.0105    0.0000 C   0  0  0  0  0  0  0  0  0  0  0  0
   -2.7309   -0.5104    0.0000 C   0  0  0  0  0  0  0  0  0  0  0  0
   -2.7309    0.4897    0.0000 C   0  0  0  0  0  0  0  0  0  0  0  0
    3.7225   -1.1354    0.0000 C   0  0  0  0  0  0  0  0  0  0  0  0
   -0.4937   -1.9769    0.0000 N   0  0  0  0  0  0  0  0  0  0  0  0
   -1.4728   -1.7728    0.0000 C   0  0  0  0  0  0  0  0  0  0  0  0
    0.1728   -1.2355    0.0000 C   0  0  0  0  0  0  0  0  0  0  0  0
    0.7938   -3.1393    0.0000 C   0  0  0  0  0  0  0  0  0  0  0  0
    4.4641   -1.8020    0.0000 O   0  0  0  0  0  0  0  0  0  0  0  0
   -0.1854   -2.9311    0.0000 C   0  0  0  0  0  0  0  0  0  0  0  0
    3.9308   -0.1564    0.0000 N   0  0  0  0  0  0  0  0  0  0  0  0
   -1.4728    1.7477    0.0000 C   0  0  0  0  0  0  0  0  0  0  0  0
   -3.5975   -1.0104    0.0000 C   0  0  0  0  0  0  0  0  0  0  0  0
   -3.5975    0.9895    0.0000 C   0  0  0  0  0  0  0  0  0  0  0  0
    2.6518    2.1601    0.0000 O   0  0  0  0  0  0  0  0  0  0  0  0
    3.1852    0.5103    0.0000 C   0  0  0  0  0  0  0  0  0  0  0  0
    3.3936    1.4895    0.0000 C   0  0  0  0  0  0  0  0  0  0  0  0
    2.8601    3.1393    0.0000 C   0  0  0  0  0  0  0  0  0  0  0  0
   -4.4641    0.4897    0.0000 C   0  0  0  0  0  0  0  0  0  0  0  0
   -4.4641   -0.5104    0.0000 C   0  0  0  0  0  0  0  0  0  0  0  0
  1  2  2  0
  3 13  1  0
  2  4  1  0
  5  6  2  0
  4  5  1  0
  1  6  1  0
  7  8  1  0
  7 10  1  0
  3  8  2  0
  3  9  1  0
  9 10  2  0
  1 11  1  0
 12 14  1  0
 12 13  1  0
  5 14  1  0
  4 15  1  0
 11 16  2  0
 15 17  1  0
 12 17  1  0
 11 18  1  0
  7 19  1  0
  9 20  1  0
 10 21  1  0
 21 26  2  0
 22 24  1  0
 18 23  1  0
 23 24  1  0
 22 25  1  0
 26 27  1  0
 20 27  2  0
M  END
>  <IDNUMBER>  (374) 
SB71-0329

>  <available>  (374) 
12

>  <H_acceptor>  (374) 
5

>  <H_donor>  (374) 
1

>  <B_rotN>  (374) 
7

>  <N_O>  (374) 
7

>  <logP>  (374) 
1.2876

>  <logD>  (374) 
0.1264

>  <logSw>  (374) 
-2.3038

>  <PSA>  (374) 
52.87

>  <pKa_ma>  (374) 
13.9875

>  <pKa_mb>  (374) 
8.5302

>  <N_Chirals>  (374) 
0

>  <Name>  (374) 
N-(2-methoxyethyl)-5-[(1-methyl-1H-indol-3-yl)methyl]-4,5,6,7-tetrahydropyrazolo[1,5-a]pyrazine-2-carboxamide

>  <Smile>  (374) 
Cn1c(cccc2)c2c(CN2Cc3cc(C(NCCOC)=O)nn3CC2)c1

>  <Color>  (374) 
ORANGE

>  <Collection>  (374) 
IC

>  <InChI>  (374) 
InChI=1S/C20H25N5O2/c1-23-12-15(17-5-3-4-6-19(17)23)13-24-8-9-25-16(14-24)11-18(22-25)20(26)21-7-10-27-2/h3-6,11-12H,7-10,13-14H2,1-2H3,(H,21,26)

>  <InChI Key>  (374) 
FKRCFIXATVLHOF-UHFFFAOYSA-N

>  <PERCENTSP3>  (374) 
40

>  <Link>  (374) 
https://www.chemdiv.com/catalog/screening-compounds/compound-SB71-0329/

>  <MFCDNUMBER>  (374) 
MFCD32249417

>  <CLNUMBER>  (374) 
CM5543

>  <STEREO>  (374) 
ACHIRAL

>  <State>  (374) 
Oil

>  <Similarity score>  (374) 
0.25

$$$$
5-[3-(5-chloro-1H-benzimidazol-2-yl)propanoyl]-N,N-dimethyl-4,5,6,7-tetrahydropy
     RDKit          2D

 28 31  0  0  0  0  0  0  0  0999 V2000
    4.1584    0.1355    0.0000 C   0  0  0  0  0  0  0  0  0  0  0  0
    3.5708    0.9438    0.0000 N   0  0  0  0  0  0  0  0  0  0  0  0
    2.6167   -0.3645    0.0000 C   0  0  0  0  0  0  0  0  0  0  0  0
    2.6167    0.6355    0.0000 N   0  0  0  0  0  0  0  0  0  0  0  0
    3.5708   -0.6771    0.0000 C   0  0  0  0  0  0  0  0  0  0  0  0
   -3.4917   -0.7728    0.0000 N   0  0  0  0  0  0  0  0  0  0  0  0
    5.1584    0.1355    0.0000 C   0  0  0  0  0  0  0  0  0  0  0  0
    0.8874   -0.3645    0.0000 N   0  0  0  0  0  0  0  0  0  0  0  0
   -2.5793   -0.3645    0.0000 C   0  0  0  0  0  0  0  0  0  0  0  0
   -2.6833    0.6271    0.0000 N   0  0  0  0  0  0  0  0  0  0  0  0
   -4.1625   -0.0312    0.0000 C   0  0  0  0  0  0  0  0  0  0  0  0
    1.7543   -0.8645    0.0000 C   0  0  0  0  0  0  0  0  0  0  0  0
    0.0208   -0.8645    0.0000 C   0  0  0  0  0  0  0  0  0  0  0  0
   -3.6625    0.8354    0.0000 C   0  0  0  0  0  0  0  0  0  0  0  0
    1.7543    1.1355    0.0000 C   0  0  0  0  0  0  0  0  0  0  0  0
   -5.1625   -0.0312    0.0000 C   0  0  0  0  0  0  0  0  0  0  0  0
    5.6584    1.0021    0.0000 N   0  0  0  0  0  0  0  0  0  0  0  0
    0.8874    0.6355    0.0000 C   0  0  0  0  0  0  0  0  0  0  0  0
    5.6584   -0.7314    0.0000 O   0  0  0  0  0  0  0  0  0  0  0  0
    0.0208   -1.8645    0.0000 O   0  0  0  0  0  0  0  0  0  0  0  0
   -0.8458   -0.3645    0.0000 C   0  0  0  0  0  0  0  0  0  0  0  0
   -4.1625    1.7020    0.0000 C   0  0  0  0  0  0  0  0  0  0  0  0
   -1.7124   -0.8645    0.0000 C   0  0  0  0  0  0  0  0  0  0  0  0
   -5.6625    0.8354    0.0000 C   0  0  0  0  0  0  0  0  0  0  0  0
   -5.1625    1.7020    0.0000 C   0  0  0  0  0  0  0  0  0  0  0  0
   -6.6584    0.8354    0.0000 Cl  0  0  0  0  0  0  0  0  0  0  0  0
    5.1584    1.8645    0.0000 C   0  0  0  0  0  0  0  0  0  0  0  0
    6.6584    1.0021    0.0000 C   0  0  0  0  0  0  0  0  0  0  0  0
  1  2  2  0
  3  5  2  0
  3  4  1  0
  2  4  1  0
  1  5  1  0
  6  9  2  0
  1  7  1  0
  8 12  1  0
  9 23  1  0
  9 10  1  0
  6 11  1  0
 11 14  1  0
  3 12  1  0
  8 13  1  0
 10 14  1  0
  4 15  1  0
 11 16  2  0
  7 17  1  0
 15 18  1  0
  8 18  1  0
  7 19  2  0
 13 20  2  0
 13 21  1  0
 14 22  2  0
 21 23  1  0
 16 24  1  0
 24 25  2  0
 22 25  1  0
 24 26  1  0
 17 27  1  0
 17 28  1  0
M  END
>  <IDNUMBER>  (375) 
SB71-0047

>  <available>  (375) 
92

>  <H_acceptor>  (375) 
6

>  <H_donor>  (375) 
1

>  <B_rotN>  (375) 
6

>  <N_O>  (375) 
8

>  <logP>  (375) 
0.917

>  <logD>  (375) 
0.8494

>  <logSw>  (375) 
-2.5782

>  <PSA>  (375) 
66.112

>  <pKa_ma>  (375) 
10.7268

>  <pKa_mb>  (375) 
6.6262

>  <N_Chirals>  (375) 
0

>  <Name>  (375) 
5-[3-(5-chloro-1H-benzimidazol-2-yl)propanoyl]-N,N-dimethyl-4,5,6,7-tetrahydropyrazolo[1,5-a]pyrazine-2-carboxamide

>  <Smile>  (375) 
CN(C)C(c1nn(CCN(C2)C(CCc3nc(cc(cc4)Cl)c4[nH]3)=O)c2c1)=O

>  <Color>  (375) 
BROWN

>  <Collection>  (375) 
IC

>  <InChI>  (375) 
InChI=1S/C19H21ClN6O2/c1-24(2)19(28)16-10-13-11-25(7-8-26(13)23-16)18(27)6-5-17-21-14-4-3-12(20)9-15(14)22-17/h3-4,9-10H,5-8,11H2,1-2H3,(H,21,22)

>  <InChI Key>  (375) 
KWUWDOBJMQPEJO-UHFFFAOYSA-N

>  <PERCENTSP3>  (375) 
36.84

>  <Link>  (375) 
https://www.chemdiv.com/catalog/screening-compounds/compound-SB71-0047/

>  <MFCDNUMBER>  (375) 
MFCD32249192

>  <CLNUMBER>  (375) 
CM5543

>  <STEREO>  (375) 
ACHIRAL

>  <State>  (375) 
Solid

>  <Similarity score>  (375) 
0.25

$$$$
5-[(1-ethyl-1H-indol-3-yl)methyl]-N-(propan-2-yl)-4,5,6,7-tetrahydropyrazolo[1,5
     RDKit          2D

 27 30  0  0  0  0  0  0  0  0999 V2000
    1.9231   -0.8523    0.0000 C   0  0  0  0  0  0  0  0  0  0  0  0
    1.6148   -1.8023    0.0000 N   0  0  0  0  0  0  0  0  0  0  0  0
   -2.6275   -0.2314    0.0000 C   0  0  0  0  0  0  0  0  0  0  0  0
    0.6146   -1.8023    0.0000 N   0  0  0  0  0  0  0  0  0  0  0  0
    0.3062   -0.8523    0.0000 C   0  0  0  0  0  0  0  0  0  0  0  0
    1.1147   -0.2646    0.0000 C   0  0  0  0  0  0  0  0  0  0  0  0
   -2.6275    1.3899    0.0000 N   0  0  0  0  0  0  0  0  0  0  0  0
   -2.0400    0.5814    0.0000 C   0  0  0  0  0  0  0  0  0  0  0  0
    2.8732   -0.5439    0.0000 C   0  0  0  0  0  0  0  0  0  0  0  0
   -3.5817    0.0813    0.0000 C   0  0  0  0  0  0  0  0  0  0  0  0
   -3.5817    1.0813    0.0000 C   0  0  0  0  0  0  0  0  0  0  0  0
   -1.3439   -1.3899    0.0000 N   0  0  0  0  0  0  0  0  0  0  0  0
   -2.3190   -1.1814    0.0000 C   0  0  0  0  0  0  0  0  0  0  0  0
   -0.6730   -0.6438    0.0000 C   0  0  0  0  0  0  0  0  0  0  0  0
    3.6192   -1.2148    0.0000 N   0  0  0  0  0  0  0  0  0  0  0  0
   -0.0563   -2.5484    0.0000 C   0  0  0  0  0  0  0  0  0  0  0  0
    3.0818    0.4354    0.0000 O   0  0  0  0  0  0  0  0  0  0  0  0
   -1.0314   -2.3399    0.0000 C   0  0  0  0  0  0  0  0  0  0  0  0
   -2.3190    2.3399    0.0000 C   0  0  0  0  0  0  0  0  0  0  0  0
    4.5694   -0.9064    0.0000 C   0  0  0  0  0  0  0  0  0  0  0  0
   -4.4486   -0.4188    0.0000 C   0  0  0  0  0  0  0  0  0  0  0  0
   -4.4486    1.5814    0.0000 C   0  0  0  0  0  0  0  0  0  0  0  0
   -1.3439    2.5484    0.0000 C   0  0  0  0  0  0  0  0  0  0  0  0
    5.3112   -1.5731    0.0000 C   0  0  0  0  0  0  0  0  0  0  0  0
    4.7777    0.0730    0.0000 C   0  0  0  0  0  0  0  0  0  0  0  0
   -5.3112    0.0813    0.0000 C   0  0  0  0  0  0  0  0  0  0  0  0
   -5.3112    1.0813    0.0000 C   0  0  0  0  0  0  0  0  0  0  0  0
  1  2  2  0
  3 13  1  0
  2  4  1  0
  5  6  2  0
  4  5  1  0
  1  6  1  0
  7  8  1  0
  7 11  1  0
  3  8  2  0
  1  9  1  0
  3 10  1  0
 10 11  2  0
 12 14  1  0
 12 13  1  0
  5 14  1  0
  9 15  1  0
  4 16  1  0
  9 17  2  0
 16 18  1  0
 12 18  1  0
  7 19  1  0
 15 20  1  0
 10 21  1  0
 11 22  1  0
 22 27  2  0
 19 23  1  0
 20 24  1  0
 20 25  1  0
 21 26  2  0
 26 27  1  0
M  END
>  <IDNUMBER>  (376) 
SB71-0673

>  <available>  (376) 
1

>  <H_acceptor>  (376) 
4

>  <H_donor>  (376) 
1

>  <B_rotN>  (376) 
6

>  <N_O>  (376) 
6

>  <logP>  (376) 
2.1801

>  <logD>  (376) 
0.327

>  <logSw>  (376) 
-2.7783

>  <PSA>  (376) 
42.829

>  <pKa_ma>  (376) 
14.8713

>  <pKa_mb>  (376) 
9.2469

>  <N_Chirals>  (376) 
0

>  <Name>  (376) 
5-[(1-ethyl-1H-indol-3-yl)methyl]-N-(propan-2-yl)-4,5,6,7-tetrahydropyrazolo[1,5-a]pyrazine-2-carboxamide

>  <Smile>  (376) 
CCn1c(cccc2)c2c(CN2Cc3cc(C(NC(C)C)=O)nn3CC2)c1

>  <Color>  (376) 
BROWN

>  <Collection>  (376) 
IC

>  <InChI>  (376) 
InChI=1S/C21H27N5O/c1-4-25-13-16(18-7-5-6-8-20(18)25)12-24-9-10-26-17(14-24)11-19(23-26)21(27)22-15(2)3/h5-8,11,13,15H,4,9-10,12,14H2,1-3H3,(H,22,27)

>  <InChI Key>  (376) 
UARUBTJTJPKBAK-UHFFFAOYSA-N

>  <PERCENTSP3>  (376) 
42.9

>  <Link>  (376) 
https://www.chemdiv.com/catalog/screening-compounds/compound-SB71-0673/

>  <MFCDNUMBER>  (376) 
MFCD32249456

>  <CLNUMBER>  (376) 
CM5543

>  <STEREO>  (376) 
ACHIRAL

>  <State>  (376) 
Solid

>  <Similarity score>  (376) 
0.25

$$$$
5-(2,3-dihydro-1H-indene-5-sulfonyl)-N-(propan-2-yl)-4,5,6,7-tetrahydropyrazolo[
     RDKit          2D

 27 30  0  0  0  0  0  0  0  0999 V2000
    1.2977   -1.6019    0.0000 S   0  0  0  0  0  0  0  0  0  0  0  0
   -2.7851   -0.3980    0.0000 C   0  0  0  0  0  0  0  0  0  0  0  0
    0.2978   -1.6019    0.0000 N   0  0  0  0  0  0  0  0  0  0  0  0
   -2.6808   -1.3935    0.0000 N   0  0  0  0  0  0  0  0  0  0  0  0
   -1.2020   -0.7353    0.0000 C   0  0  0  0  0  0  0  0  0  0  0  0
   -1.7019   -1.6019    0.0000 N   0  0  0  0  0  0  0  0  0  0  0  0
   -1.8685    0.0061    0.0000 C   0  0  0  0  0  0  0  0  0  0  0  0
   -3.6475    0.1021    0.0000 C   0  0  0  0  0  0  0  0  0  0  0  0
   -0.2023   -0.7353    0.0000 C   0  0  0  0  0  0  0  0  0  0  0  0
    2.2975   -1.6019    0.0000 C   0  0  0  0  0  0  0  0  0  0  0  0
   -0.2023   -2.4685    0.0000 C   0  0  0  0  0  0  0  0  0  0  0  0
   -1.2020   -2.4685    0.0000 C   0  0  0  0  0  0  0  0  0  0  0  0
   -3.6475    1.1020    0.0000 N   0  0  0  0  0  0  0  0  0  0  0  0
    2.7973   -0.7353    0.0000 C   0  0  0  0  0  0  0  0  0  0  0  0
    1.2977   -0.6021    0.0000 O   0  0  0  0  0  0  0  0  0  0  0  0
    1.2977   -2.6016    0.0000 O   0  0  0  0  0  0  0  0  0  0  0  0
    3.7971   -0.7353    0.0000 C   0  0  0  0  0  0  0  0  0  0  0  0
   -4.5141   -0.3980    0.0000 O   0  0  0  0  0  0  0  0  0  0  0  0
    4.2973   -1.6019    0.0000 C   0  0  0  0  0  0  0  0  0  0  0  0
    2.7973   -2.4685    0.0000 C   0  0  0  0  0  0  0  0  0  0  0  0
    3.7971   -2.4685    0.0000 C   0  0  0  0  0  0  0  0  0  0  0  0
   -4.5141    1.6019    0.0000 C   0  0  0  0  0  0  0  0  0  0  0  0
    4.4680    0.0061    0.0000 C   0  0  0  0  0  0  0  0  0  0  0  0
    5.3805   -0.3980    0.0000 C   0  0  0  0  0  0  0  0  0  0  0  0
    5.2762   -1.3935    0.0000 C   0  0  0  0  0  0  0  0  0  0  0  0
   -4.5141    2.6016    0.0000 C   0  0  0  0  0  0  0  0  0  0  0  0
   -5.3805    1.1020    0.0000 C   0  0  0  0  0  0  0  0  0  0  0  0
  2  7  1  0
  2  4  2  0
  1  3  1  0
  4  6  1  0
  5  9  1  0
  5  6  1  0
  6 12  1  0
  5  7  2  0
  2  8  1  0
  3  9  1  0
  1 10  1  0
  3 11  1  0
 11 12  1  0
  8 13  1  0
 10 14  2  0
  1 15  2  0
  1 16  2  0
 14 17  1  0
  8 18  2  0
 19 21  1  0
 17 19  2  0
 10 20  1  0
 20 21  2  0
 13 22  1  0
 17 23  1  0
 23 24  1  0
 24 25  1  0
 19 25  1  0
 22 26  1  0
 22 27  1  0
M  END
>  <IDNUMBER>  (377) 
SB71-0602

>  <available>  (377) 
30

>  <H_acceptor>  (377) 
8

>  <H_donor>  (377) 
1

>  <B_rotN>  (377) 
5

>  <N_O>  (377) 
7

>  <logP>  (377) 
2.2994

>  <logD>  (377) 
2.2994

>  <logSw>  (377) 
-2.9223

>  <PSA>  (377) 
69.366

>  <pKa_ma>  (377) 
14.8713

>  <pKa_mb>  (377) 
-1.8306

>  <N_Chirals>  (377) 
0

>  <Name>  (377) 
5-(2,3-dihydro-1H-indene-5-sulfonyl)-N-(propan-2-yl)-4,5,6,7-tetrahydropyrazolo[1,5-a]pyrazine-2-carboxamide

>  <Smile>  (377) 
CC(C)NC(c1nn(CCN(C2)S(c3cc(CCC4)c4cc3)(=O)=O)c2c1)=O

>  <Color>  (377) 
NOT COLORED

>  <Collection>  (377) 
IC

>  <InChI>  (377) 
InChI=1S/C19H24N4O3S/c1-13(2)20-19(24)18-11-16-12-22(8-9-23(16)21-18)27(25,26)17-7-6-14-4-3-5-15(14)10-17/h6-7,10-11,13H,3-5,8-9,12H2,1-2H3,(H,20,24)

>  <InChI Key>  (377) 
CUHOZMQCGMROPA-UHFFFAOYSA-N

>  <PERCENTSP3>  (377) 
47.37

>  <Link>  (377) 
https://www.chemdiv.com/catalog/screening-compounds/compound-SB71-0602/

>  <MFCDNUMBER>  (377) 
MFCD32249271

>  <CLNUMBER>  (377) 
CM5543

>  <STEREO>  (377) 
ACHIRAL

>  <State>  (377) 
Solid

>  <Similarity score>  (377) 
0.25

$$$$
(5S)-N-[3-(3,4-dihydroquinolin-1(2H)-yl)propyl]-5-[(pyridin-3-yl)oxy]-5,6-dihydr
     RDKit          2D

 31 35  0  0  1  0  0  0  0  0999 V2000
   -0.7436   -0.4934    0.0000 C   0  0  0  0  0  0  0  0  0  0  0  0
   -1.9433    0.6020    0.0000 N   0  0  0  0  0  0  0  0  0  0  0  0
   -1.7432   -0.3768    0.0000 N   0  0  0  0  0  0  0  0  0  0  0  0
   -1.0685    1.0976    0.0000 C   0  0  0  0  0  0  0  0  0  0  0  0
   -0.3269    0.4102    0.0000 C   0  0  0  0  0  0  0  0  0  0  0  0
   -0.2395   -1.3684    0.0000 C   0  0  0  0  0  0  0  0  0  0  0  0
    3.7384   -3.1053    0.0000 N   0  0  0  0  0  0  0  0  0  0  0  0
   -2.6763    1.2892    0.0000 C   0  0  0  0  0  0  0  0  0  0  0  0
   -1.2683    2.0764    0.0000 C   0  0  0  0  0  0  0  0  0  0  0  0
    4.2465   -2.2431    0.0000 C   0  0  0  0  0  0  0  0  0  0  0  0
   -2.2598    2.1972    0.0000 C   0  0  0  0  0  0  0  0  0  0  0  0
   -0.7436   -2.2388    0.0000 O   0  0  0  0  0  0  0  0  0  0  0  0
   -2.7554    3.0804    0.0000 O   0  0  0  0  0  0  0  0  0  0  0  0
   -5.2463    2.2431    0.0000 N   0  0  0  0  0  0  0  0  0  0  0  0
    5.2422   -2.2431    0.0000 C   0  0  0  0  0  0  0  0  0  0  0  0
    0.7601   -1.3684    0.0000 N   0  0  0  0  0  0  0  0  0  0  0  0
   -3.7468    3.0928    0.0000 C   0  0  0  0  0  0  0  0  0  0  0  0
    2.7429   -3.1053    0.0000 C   0  0  0  0  0  0  0  0  0  0  0  0
    4.2383   -3.9758    0.0000 C   0  0  0  0  0  0  0  0  0  0  0  0
    2.2555   -2.2388    0.0000 C   0  0  0  0  0  0  0  0  0  0  0  0
   -4.2508    2.2390    0.0000 C   0  0  0  0  0  0  0  0  0  0  0  0
    5.2422   -3.9758    0.0000 C   0  0  0  0  0  0  0  0  0  0  0  0
    3.7384   -1.3849    0.0000 C   0  0  0  0  0  0  0  0  0  0  0  0
    1.2600   -2.2388    0.0000 C   0  0  0  0  0  0  0  0  0  0  0  0
    5.7419   -3.1053    0.0000 C   0  0  0  0  0  0  0  0  0  0  0  0
   -5.7419    3.1137    0.0000 C   0  0  0  0  0  0  0  0  0  0  0  0
    5.7419   -1.3849    0.0000 C   0  0  0  0  0  0  0  0  0  0  0  0
   -4.2383    3.9634    0.0000 C   0  0  0  0  0  0  0  0  0  0  0  0
   -5.2338    3.9758    0.0000 C   0  0  0  0  0  0  0  0  0  0  0  0
    4.2383   -0.5225    0.0000 C   0  0  0  0  0  0  0  0  0  0  0  0
    5.2338   -0.5225    0.0000 C   0  0  0  0  0  0  0  0  0  0  0  0
  2  3  1  0
  1  3  2  0
  4  5  2  0
  2  4  1  0
  1  5  1  0
  1  6  1  0
  7 18  1  0
  2  8  1  0
  8 11  1  0
  4  9  1  0
  7 10  1  0
  9 11  1  0
 11 13  1  1
  6 12  2  0
 14 21  2  0
 10 15  1  0
  6 16  1  0
 13 17  1  0
 18 20  1  0
  7 19  1  0
 20 24  1  0
 17 21  1  0
 19 22  1  0
 10 23  2  0
 16 24  1  0
 22 25  1  0
 15 25  1  0
 26 29  2  0
 14 26  1  0
 15 27  2  0
 17 28  2  0
 28 29  1  0
 23 30  1  0
 30 31  2  0
 27 31  1  0
M  END
>  <IDNUMBER>  (378) 
SB69-0445

>  <available>  (378) 
88

>  <H_acceptor>  (378) 
5

>  <H_donor>  (378) 
1

>  <B_rotN>  (378) 
8

>  <N_O>  (378) 
7

>  <logP>  (378) 
2.5744

>  <logD>  (378) 
2.525

>  <logSw>  (378) 
-2.7204

>  <PSA>  (378) 
57.114

>  <pKa_ma>  (378) 
14.6297

>  <pKa_mb>  (378) 
7.7151

>  <N_Chirals>  (378) 
1

>  <Name>  (378) 
(5S)-N-[3-(3,4-dihydroquinolin-1(2H)-yl)propyl]-5-[(pyridin-3-yl)oxy]-5,6-dihydro-4H-pyrrolo[1,2-b]pyrazole-2-carboxamide

>  <Smile>  (378) 
O=C(c1nn(C[C@H](C2)Oc3cnccc3)c2c1)NCCCN(CCC1)c2c1cccc2

>  <Color>  (378) 
PINK

>  <Collection>  (378) 
IC

>  <InChI>  (378) 
InChI=1S/C24H27N5O2/c30-24(26-11-5-13-28-12-4-7-18-6-1-2-9-23(18)28)22-15-19-14-21(17-29(19)27-22)31-20-8-3-10-25-16-20/h1-3,6,8-10,15-16,21H,4-5,7,11-14,17H2,(H,26,30)/t21-/m1/s1

>  <InChI Key>  (378) 
ZBZVJFCWFPNVDP-OAQYLSRUSA-N

>  <PERCENTSP3>  (378) 
37.5

>  <Link>  (378) 
https://www.chemdiv.com/catalog/screening-compounds/compound-SB69-0445/

>  <MFCDNUMBER>  (378) 
MFCD32731843

>  <CLNUMBER>  (378) 
CM5520

>  <STEREO>  (378) 
ABSOLUTE

>  <State>  (378) 
Oil

>  <Similarity score>  (378) 
0.25

$$$$
(morpholin-4-yl)[5-(quinoline-8-sulfonyl)-4,5,6,7-tetrahydropyrazolo[1,5-a]pyraz
     RDKit          2D

 30 34  0  0  0  0  0  0  0  0999 V2000
    1.4064   -1.8523    0.0000 S   0  0  0  0  0  0  0  0  0  0  0  0
   -2.6773   -0.6480    0.0000 C   0  0  0  0  0  0  0  0  0  0  0  0
    0.4062   -1.8523    0.0000 N   0  0  0  0  0  0  0  0  0  0  0  0
   -2.5690   -1.6439    0.0000 N   0  0  0  0  0  0  0  0  0  0  0  0
    2.4064   -1.8523    0.0000 C   0  0  0  0  0  0  0  0  0  0  0  0
   -1.0938   -0.9856    0.0000 C   0  0  0  0  0  0  0  0  0  0  0  0
   -1.5939   -1.8523    0.0000 N   0  0  0  0  0  0  0  0  0  0  0  0
   -1.7606   -0.2439    0.0000 C   0  0  0  0  0  0  0  0  0  0  0  0
   -3.5399   -0.1479    0.0000 C   0  0  0  0  0  0  0  0  0  0  0  0
   -0.0936   -0.9856    0.0000 C   0  0  0  0  0  0  0  0  0  0  0  0
    2.9066   -0.9856    0.0000 C   0  0  0  0  0  0  0  0  0  0  0  0
   -3.5399    0.8523    0.0000 N   0  0  0  0  0  0  0  0  0  0  0  0
   -0.0936   -2.7191    0.0000 C   0  0  0  0  0  0  0  0  0  0  0  0
   -1.0938   -2.7191    0.0000 C   0  0  0  0  0  0  0  0  0  0  0  0
    1.4064   -0.8523    0.0000 O   0  0  0  0  0  0  0  0  0  0  0  0
    1.4064   -2.8523    0.0000 O   0  0  0  0  0  0  0  0  0  0  0  0
    2.4064   -0.1188    0.0000 N   0  0  0  0  0  0  0  0  0  0  0  0
   -4.4066   -0.6480    0.0000 O   0  0  0  0  0  0  0  0  0  0  0  0
   -3.5399    2.8523    0.0000 O   0  0  0  0  0  0  0  0  0  0  0  0
    3.9066   -0.9856    0.0000 C   0  0  0  0  0  0  0  0  0  0  0  0
    2.9066   -2.7191    0.0000 C   0  0  0  0  0  0  0  0  0  0  0  0
   -4.4066    1.3521    0.0000 C   0  0  0  0  0  0  0  0  0  0  0  0
   -2.6773    1.3521    0.0000 C   0  0  0  0  0  0  0  0  0  0  0  0
    3.9066   -2.7191    0.0000 C   0  0  0  0  0  0  0  0  0  0  0  0
    2.9066    0.7479    0.0000 C   0  0  0  0  0  0  0  0  0  0  0  0
   -2.6773    2.3522    0.0000 C   0  0  0  0  0  0  0  0  0  0  0  0
   -4.4066    2.3522    0.0000 C   0  0  0  0  0  0  0  0  0  0  0  0
    4.4066   -1.8523    0.0000 C   0  0  0  0  0  0  0  0  0  0  0  0
    4.4066   -0.1188    0.0000 C   0  0  0  0  0  0  0  0  0  0  0  0
    3.9066    0.7479    0.0000 C   0  0  0  0  0  0  0  0  0  0  0  0
  2  8  1  0
  2  4  2  0
  1  3  1  0
  4  7  1  0
  1  5  1  0
  6 10  1  0
  6  7  1  0
  7 14  1  0
  6  8  2  0
  2  9  1  0
  3 10  1  0
  5 11  2  0
  9 12  1  0
  3 13  1  0
 13 14  1  0
  1 15  2  0
  1 16  2  0
 11 17  1  0
  9 18  2  0
 19 26  1  0
 19 27  1  0
 11 20  1  0
  5 21  1  0
 12 22  1  0
 12 23  1  0
 21 24  2  0
 17 25  2  0
 23 26  1  0
 22 27  1  0
 24 28  1  0
 20 28  2  0
 20 29  1  0
 29 30  2  0
 25 30  1  0
M  END
>  <IDNUMBER>  (379) 
SB71-0263

>  <available>  (379) 
19

>  <H_acceptor>  (379) 
10

>  <H_donor>  (379) 
0

>  <B_rotN>  (379) 
4

>  <N_O>  (379) 
9

>  <logP>  (379) 
0.3319

>  <logD>  (379) 
0.3319

>  <logSw>  (379) 
-2.2693

>  <PSA>  (379) 
79.51

>  <pKa_ma>  (379) 
26.1583

>  <pKa_mb>  (379) 
-1.0439

>  <N_Chirals>  (379) 
0

>  <Name>  (379) 
(morpholin-4-yl)[5-(quinoline-8-sulfonyl)-4,5,6,7-tetrahydropyrazolo[1,5-a]pyrazin-2-yl]methanone

>  <Smile>  (379) 
O=C(c1nn(CCN(C2)S(c3cccc4cccnc34)(=O)=O)c2c1)N1CCOCC1

>  <Color>  (379) 
NOT COLORED

>  <Collection>  (379) 
IC

>  <InChI>  (379) 
InChI=1S/C20H21N5O4S/c26-20(23-9-11-29-12-10-23)17-13-16-14-24(7-8-25(16)22-17)30(27,28)18-5-1-3-15-4-2-6-21-19(15)18/h1-6,13H,7-12,14H2

>  <InChI Key>  (379) 
QKQJSOLJOISTNR-UHFFFAOYSA-N

>  <PERCENTSP3>  (379) 
35

>  <Link>  (379) 
https://www.chemdiv.com/catalog/screening-compounds/compound-SB71-0263/

>  <MFCDNUMBER>  (379) 
MFCD32249231

>  <CLNUMBER>  (379) 
CM5543

>  <STEREO>  (379) 
ACHIRAL

>  <State>  (379) 
Solid

>  <Similarity score>  (379) 
0.25

$$$$
(pyrrolidin-1-yl)[5-(quinoline-8-sulfonyl)-4,5,6,7-tetrahydropyrazolo[1,5-a]pyra
     RDKit          2D

 29 33  0  0  0  0  0  0  0  0999 V2000
    1.4066   -1.6191    0.0000 S   0  0  0  0  0  0  0  0  0  0  0  0
   -2.6777   -0.4188    0.0000 C   0  0  0  0  0  0  0  0  0  0  0  0
    0.4064   -1.6191    0.0000 N   0  0  0  0  0  0  0  0  0  0  0  0
   -2.5694   -1.4147    0.0000 N   0  0  0  0  0  0  0  0  0  0  0  0
    2.4068   -1.6191    0.0000 C   0  0  0  0  0  0  0  0  0  0  0  0
   -1.0938   -0.7564    0.0000 C   0  0  0  0  0  0  0  0  0  0  0  0
   -1.5941   -1.6191    0.0000 N   0  0  0  0  0  0  0  0  0  0  0  0
   -1.7608   -0.0103    0.0000 C   0  0  0  0  0  0  0  0  0  0  0  0
   -3.5404    0.0814    0.0000 C   0  0  0  0  0  0  0  0  0  0  0  0
   -0.0937   -0.7564    0.0000 C   0  0  0  0  0  0  0  0  0  0  0  0
    2.9070   -0.7564    0.0000 C   0  0  0  0  0  0  0  0  0  0  0  0
   -3.5404    1.0816    0.0000 N   0  0  0  0  0  0  0  0  0  0  0  0
   -0.0937   -2.4858    0.0000 C   0  0  0  0  0  0  0  0  0  0  0  0
   -1.0938   -2.4858    0.0000 C   0  0  0  0  0  0  0  0  0  0  0  0
    1.4066   -0.6189    0.0000 O   0  0  0  0  0  0  0  0  0  0  0  0
    1.4066   -2.6194    0.0000 O   0  0  0  0  0  0  0  0  0  0  0  0
    2.4068    0.1106    0.0000 N   0  0  0  0  0  0  0  0  0  0  0  0
   -4.4073   -0.4188    0.0000 O   0  0  0  0  0  0  0  0  0  0  0  0
    3.9073   -0.7564    0.0000 C   0  0  0  0  0  0  0  0  0  0  0  0
    2.9070   -2.4858    0.0000 C   0  0  0  0  0  0  0  0  0  0  0  0
   -2.7318    1.6692    0.0000 C   0  0  0  0  0  0  0  0  0  0  0  0
   -4.3531    1.6692    0.0000 C   0  0  0  0  0  0  0  0  0  0  0  0
    3.9073   -2.4858    0.0000 C   0  0  0  0  0  0  0  0  0  0  0  0
    2.9070    0.9774    0.0000 C   0  0  0  0  0  0  0  0  0  0  0  0
    4.4073   -1.6191    0.0000 C   0  0  0  0  0  0  0  0  0  0  0  0
    4.4073    0.1106    0.0000 C   0  0  0  0  0  0  0  0  0  0  0  0
   -4.0406    2.6194    0.0000 C   0  0  0  0  0  0  0  0  0  0  0  0
   -3.0403    2.6194    0.0000 C   0  0  0  0  0  0  0  0  0  0  0  0
    3.9073    0.9774    0.0000 C   0  0  0  0  0  0  0  0  0  0  0  0
  2  8  1  0
  2  4  2  0
  1  3  1  0
  4  7  1  0
  1  5  1  0
  6 10  1  0
  6  7  1  0
  7 14  1  0
  6  8  2  0
  2  9  1  0
  3 10  1  0
  5 11  2  0
  9 12  1  0
  3 13  1  0
 13 14  1  0
  1 15  2  0
  1 16  2  0
 11 17  1  0
  9 18  2  0
 11 19  1  0
  5 20  1  0
 12 21  1  0
 12 22  1  0
 20 23  2  0
 17 24  2  0
 23 25  1  0
 19 25  2  0
 19 26  1  0
 22 27  1  0
 27 28  1  0
 21 28  1  0
 26 29  2  0
 24 29  1  0
M  END
>  <IDNUMBER>  (380) 
SB71-0913

>  <available>  (380) 
145

>  <H_acceptor>  (380) 
9

>  <H_donor>  (380) 
0

>  <B_rotN>  (380) 
4

>  <N_O>  (380) 
8

>  <logP>  (380) 
1.2033

>  <logD>  (380) 
1.2033

>  <logSw>  (380) 
-2.4407

>  <PSA>  (380) 
71.968

>  <pKa_ma>  (380) 
26.1583

>  <pKa_mb>  (380) 
-1.0439

>  <N_Chirals>  (380) 
0

>  <Name>  (380) 
(pyrrolidin-1-yl)[5-(quinoline-8-sulfonyl)-4,5,6,7-tetrahydropyrazolo[1,5-a]pyrazin-2-yl]methanone

>  <Smile>  (380) 
O=C(c1nn(CCN(C2)S(c3cccc4cccnc34)(=O)=O)c2c1)N1CCCC1

>  <Color>  (380) 
ORANGE

>  <Collection>  (380) 
IC

>  <InChI>  (380) 
InChI=1S/C20H21N5O3S/c26-20(23-9-1-2-10-23)17-13-16-14-24(11-12-25(16)22-17)29(27,28)18-7-3-5-15-6-4-8-21-19(15)18/h3-8,13H,1-2,9-12,14H2

>  <InChI Key>  (380) 
DRGFJHIAFUPHIU-UHFFFAOYSA-N

>  <PERCENTSP3>  (380) 
35

>  <Link>  (380) 
https://www.chemdiv.com/catalog/screening-compounds/compound-SB71-0913/

>  <MFCDNUMBER>  (380) 
MFCD32249406

>  <CLNUMBER>  (380) 
CM5543

>  <STEREO>  (380) 
ACHIRAL

>  <State>  (380) 
Solid

>  <Similarity score>  (380) 
0.25

$$$$
N-benzyl-5-(3,4-difluorobenzene-1-sulfonyl)-4,5,6,7-tetrahydropyrazolo[1,5-a]pyr
     RDKit          2D

 30 33  0  0  0  0  0  0  0  0999 V2000
   -2.5865   -1.2299    0.0000 S   0  0  0  0  0  0  0  0  0  0  0  0
    1.5496   -0.2305    0.0000 C   0  0  0  0  0  0  0  0  0  0  0  0
   -1.7185   -0.7225    0.0000 N   0  0  0  0  0  0  0  0  0  0  0  0
    0.9696    0.5842    0.0000 N   0  0  0  0  0  0  0  0  0  0  0  0
    0.0110   -0.7225    0.0000 C   0  0  0  0  0  0  0  0  0  0  0  0
    0.0110    0.2679    0.0000 N   0  0  0  0  0  0  0  0  0  0  0  0
    0.9696   -1.0387    0.0000 C   0  0  0  0  0  0  0  0  0  0  0  0
   -3.4484   -1.7280    0.0000 C   0  0  0  0  0  0  0  0  0  0  0  0
   -0.8570   -1.2299    0.0000 C   0  0  0  0  0  0  0  0  0  0  0  0
    2.5551   -0.2305    0.0000 C   0  0  0  0  0  0  0  0  0  0  0  0
   -4.3163   -1.2299    0.0000 C   0  0  0  0  0  0  0  0  0  0  0  0
   -1.7185    0.2679    0.0000 C   0  0  0  0  0  0  0  0  0  0  0  0
   -0.8570    0.7754    0.0000 C   0  0  0  0  0  0  0  0  0  0  0  0
   -3.0848   -0.3620    0.0000 O   0  0  0  0  0  0  0  0  0  0  0  0
   -2.0790   -2.0915    0.0000 O   0  0  0  0  0  0  0  0  0  0  0  0
   -5.1778   -1.7280    0.0000 C   0  0  0  0  0  0  0  0  0  0  0  0
    3.0471    0.6314    0.0000 N   0  0  0  0  0  0  0  0  0  0  0  0
   -5.1778   -2.7338    0.0000 C   0  0  0  0  0  0  0  0  0  0  0  0
   -3.4484   -2.7338    0.0000 C   0  0  0  0  0  0  0  0  0  0  0  0
    3.0471   -1.0984    0.0000 O   0  0  0  0  0  0  0  0  0  0  0  0
   -4.3163   -3.2288    0.0000 C   0  0  0  0  0  0  0  0  0  0  0  0
   -6.0458   -1.2299    0.0000 F   0  0  0  0  0  0  0  0  0  0  0  0
    4.0529    0.6314    0.0000 C   0  0  0  0  0  0  0  0  0  0  0  0
   -6.0458   -3.2288    0.0000 F   0  0  0  0  0  0  0  0  0  0  0  0
    4.5513    1.4993    0.0000 C   0  0  0  0  0  0  0  0  0  0  0  0
    5.5538    1.4993    0.0000 C   0  0  0  0  0  0  0  0  0  0  0  0
    4.0529    2.3703    0.0000 C   0  0  0  0  0  0  0  0  0  0  0  0
    4.5513    3.2288    0.0000 C   0  0  0  0  0  0  0  0  0  0  0  0
    6.0458    2.3703    0.0000 C   0  0  0  0  0  0  0  0  0  0  0  0
    5.5538    3.2288    0.0000 C   0  0  0  0  0  0  0  0  0  0  0  0
  2  7  1  0
  2  4  2  0
  1  3  1  0
  4  6  1  0
  5  9  1  0
  5  6  1  0
  6 13  1  0
  5  7  2  0
  1  8  1  0
  3  9  1  0
  2 10  1  0
  8 11  2  0
  3 12  1  0
 12 13  1  0
  1 14  2  0
  1 15  2  0
 11 16  1  0
 16 18  2  0
 10 17  1  0
 18 21  1  0
  8 19  1  0
 10 20  2  0
 19 21  2  0
 16 22  1  0
 17 23  1  0
 18 24  1  0
 23 25  1  0
 25 26  1  0
 25 27  2  0
 27 28  1  0
 26 29  2  0
 29 30  1  0
 28 30  2  0
M  END
>  <IDNUMBER>  (381) 
SB71-1040

>  <available>  (381) 
132

>  <H_acceptor>  (381) 
8

>  <H_donor>  (381) 
1

>  <B_rotN>  (381) 
6

>  <N_O>  (381) 
7

>  <logP>  (381) 
2.613

>  <logD>  (381) 
2.613

>  <logSw>  (381) 
-3.0789

>  <PSA>  (381) 
69.834

>  <pKa_ma>  (381) 
12.5385

>  <pKa_mb>  (381) 
-4.4549

>  <N_Chirals>  (381) 
0

>  <Name>  (381) 
N-benzyl-5-(3,4-difluorobenzene-1-sulfonyl)-4,5,6,7-tetrahydropyrazolo[1,5-a]pyrazine-2-carboxamide

>  <Smile>  (381) 
O=C(c1nn(CCN(C2)S(c(cc3)cc(F)c3F)(=O)=O)c2c1)NCc1ccccc1

>  <Color>  (381) 
NOT COLORED

>  <Collection>  (381) 
IC

>  <InChI>  (381) 
InChI=1S/C20H18F2N4O3S/c21-17-7-6-16(11-18(17)22)30(28,29)25-8-9-26-15(13-25)10-19(24-26)20(27)23-12-14-4-2-1-3-5-14/h1-7,10-11H,8-9,12-13H2,(H,23,27)

>  <InChI Key>  (381) 
GDNAKFDDMGJKCC-UHFFFAOYSA-N

>  <PERCENTSP3>  (381) 
20

>  <Link>  (381) 
https://www.chemdiv.com/catalog/screening-compounds/compound-SB71-1040/

>  <MFCDNUMBER>  (381) 
MFCD32249555

>  <CLNUMBER>  (381) 
CM5543

>  <STEREO>  (381) 
ACHIRAL

>  <State>  (381) 
Solid

>  <Similarity score>  (381) 
0.25

$$$$
5-[(2-fluoro-4-methoxyphenyl)methyl]-2-phenyl-5,6,7,8-tetrahydro-4H-pyrazolo[1,5
     RDKit          2D

 26 29  0  0  0  0  0  0  0  0999 V2000
    0.0041   -1.0341    0.0000 C   0  0  0  0  0  0  0  0  0  0  0  0
    1.4801   -1.6970    0.0000 N   0  0  0  0  0  0  0  0  0  0  0  0
    0.5045   -1.8971    0.0000 N   0  0  0  0  0  0  0  0  0  0  0  0
    0.6712   -0.2918    0.0000 C   0  0  0  0  0  0  0  0  0  0  0  0
    1.5843   -0.6963    0.0000 C   0  0  0  0  0  0  0  0  0  0  0  0
   -1.7219   -1.5594    0.0000 N   0  0  0  0  0  0  0  0  0  0  0  0
   -2.7976   -0.2086    0.0000 C   0  0  0  0  0  0  0  0  0  0  0  0
   -0.9840   -0.8839    0.0000 C   0  0  0  0  0  0  0  0  0  0  0  0
   -2.0221    0.4169    0.0000 C   0  0  0  0  0  0  0  0  0  0  0  0
   -2.6475   -1.1966    0.0000 C   0  0  0  0  0  0  0  0  0  0  0  0
   -2.1680    1.3966    0.0000 C   0  0  0  0  0  0  0  0  0  0  0  0
    2.4473   -0.1959    0.0000 C   0  0  0  0  0  0  0  0  0  0  0  0
   -3.7357    0.1542    0.0000 C   0  0  0  0  0  0  0  0  0  0  0  0
   -3.1061    1.7677    0.0000 C   0  0  0  0  0  0  0  0  0  0  0  0
    0.1334   -2.8309    0.0000 C   0  0  0  0  0  0  0  0  0  0  0  0
   -1.0841    0.0457    0.0000 F   0  0  0  0  0  0  0  0  0  0  0  0
   -0.8173   -3.1228    0.0000 C   0  0  0  0  0  0  0  0  0  0  0  0
   -1.6469   -2.5599    0.0000 C   0  0  0  0  0  0  0  0  0  0  0  0
   -3.8815    1.1464    0.0000 C   0  0  0  0  0  0  0  0  0  0  0  0
   -3.2561    2.7557    0.0000 O   0  0  0  0  0  0  0  0  0  0  0  0
    2.4473    0.8046    0.0000 C   0  0  0  0  0  0  0  0  0  0  0  0
    3.3103   -0.6963    0.0000 C   0  0  0  0  0  0  0  0  0  0  0  0
   -4.1817    3.1228    0.0000 C   0  0  0  0  0  0  0  0  0  0  0  0
    4.1817   -0.1959    0.0000 C   0  0  0  0  0  0  0  0  0  0  0  0
    3.3103    1.3050    0.0000 C   0  0  0  0  0  0  0  0  0  0  0  0
    4.1817    0.8046    0.0000 C   0  0  0  0  0  0  0  0  0  0  0  0
  2  3  1  0
  1  3  1  0
  1  4  2  0
  4  5  1  0
  2  5  2  0
  6  8  1  0
  7 10  1  0
  1  8  1  0
  7  9  2  0
  6 10  1  0
  9 11  1  0
  5 12  1  0
  7 13  1  0
 14 19  1  0
 11 14  2  0
  3 15  1  0
  9 16  1  0
 15 17  1  0
  6 18  1  0
 17 18  1  0
 13 19  2  0
 14 20  1  0
 12 21  1  0
 12 22  2  0
 20 23  1  0
 22 24  1  0
 21 25  2  0
 24 26  2  0
 25 26  1  0
M  END
>  <IDNUMBER>  (382) 
T202-1813

>  <available>  (382) 
1

>  <H_acceptor>  (382) 
3

>  <H_donor>  (382) 
0

>  <B_rotN>  (382) 
4

>  <N_O>  (382) 
4

>  <logP>  (382) 
4.08

>  <logD>  (382) 
4.056

>  <logSw>  (382) 
-4.186

>  <PSA>  (382) 
25.05

>  <pKa_ma>  (382) 
26.76

>  <pKa_mb>  (382) 
6.138

>  <N_Chirals>  (382) 
0

>  <Name>  (382) 
5-[(2-fluoro-4-methoxyphenyl)methyl]-2-phenyl-5,6,7,8-tetrahydro-4H-pyrazolo[1,5-a][1,4]diazepine

>  <Smile>  (382) 
COc1cc(F)c(CN2Cc3cc(-c4ccccc4)nn3CCC2)cc1

>  <Color>  (382) 
YELLOW

>  <Collection>  (382) 
NC

>  <InChI>  (382) 
InChI=1S/C21H22FN3O/c1-26-19-9-8-17(20(22)13-19)14-24-10-5-11-25-18(15-24)12-21(23-25)16-6-3-2-4-7-16/h2-4,6-9,12-13H,5,10-11,14-15H2,1H3

>  <InChI Key>  (382) 
WHBMHOGYBWTNGW-UHFFFAOYSA-N

>  <PERCENTSP3>  (382) 
28.5714

>  <Link>  (382) 
https://www.chemdiv.com/catalog/screening-compounds/compound-T202-1813/

>  <MFCDNUMBER>  (382) 
MFCD27618765

>  <CLNUMBER>  (382) 
CM0222

>  <STEREO>  (382) 
ACHIRAL

>  <State>  (382) 
Oil

>  <Similarity score>  (382) 
0.25

$$$$
N-(2-fluoro-4-methylphenyl)-4,5,6,7-tetrahydropyrazolo[1,5-a]pyridine-2-carboxam
     RDKit          2D

 20 22  0  0  0  0  0  0  0  0999 V2000
   -1.1144   -0.7978    0.0000 C   0  0  0  0  0  0  0  0  0  0  0  0
   -1.7057    0.0060    0.0000 N   0  0  0  0  0  0  0  0  0  0  0  0
   -2.6640   -0.2977    0.0000 N   0  0  0  0  0  0  0  0  0  0  0  0
   -1.7057   -1.6060    0.0000 C   0  0  0  0  0  0  0  0  0  0  0  0
   -0.1145   -0.7978    0.0000 C   0  0  0  0  0  0  0  0  0  0  0  0
   -2.6640   -1.2977    0.0000 C   0  0  0  0  0  0  0  0  0  0  0  0
    0.3813    0.0728    0.0000 N   0  0  0  0  0  0  0  0  0  0  0  0
    1.3852    0.0728    0.0000 C   0  0  0  0  0  0  0  0  0  0  0  0
    1.8851    0.9309    0.0000 C   0  0  0  0  0  0  0  0  0  0  0  0
    0.3813   -1.6643    0.0000 O   0  0  0  0  0  0  0  0  0  0  0  0
    2.8807    0.9309    0.0000 C   0  0  0  0  0  0  0  0  0  0  0  0
    1.8851   -0.7978    0.0000 C   0  0  0  0  0  0  0  0  0  0  0  0
    1.3852    1.7976    0.0000 F   0  0  0  0  0  0  0  0  0  0  0  0
    3.3847    0.0728    0.0000 C   0  0  0  0  0  0  0  0  0  0  0  0
   -3.5179    0.2063    0.0000 C   0  0  0  0  0  0  0  0  0  0  0  0
    2.8807   -0.7978    0.0000 C   0  0  0  0  0  0  0  0  0  0  0  0
   -3.5179   -1.7976    0.0000 C   0  0  0  0  0  0  0  0  0  0  0  0
    4.3886    0.0728    0.0000 C   0  0  0  0  0  0  0  0  0  0  0  0
   -4.3886   -0.2977    0.0000 C   0  0  0  0  0  0  0  0  0  0  0  0
   -4.3886   -1.2977    0.0000 C   0  0  0  0  0  0  0  0  0  0  0  0
  1  2  2  0
  2  3  1  0
  3  6  1  0
  1  4  1  0
  1  5  1  0
  4  6  2  0
  5  7  1  0
  7  8  1  0
  8  9  2  0
  5 10  2  0
  9 11  1  0
  8 12  1  0
  9 13  1  0
 14 16  1  0
 11 14  2  0
  3 15  1  0
 12 16  2  0
  6 17  1  0
 14 18  1  0
 15 19  1  0
 19 20  1  0
 17 20  1  0
M  END
>  <IDNUMBER>  (383) 
P078-0343

>  <available>  (383) 
1

>  <H_acceptor>  (383) 
3

>  <H_donor>  (383) 
1

>  <B_rotN>  (383) 
3

>  <N_O>  (383) 
4

>  <logP>  (383) 
2.8688

>  <logD>  (383) 
2.8681

>  <logSw>  (383) 
-3.2163

>  <PSA>  (383) 
36.361

>  <pKa_ma>  (383) 
10.1958

>  <pKa_mb>  (383) 
-0.2253

>  <N_Chirals>  (383) 
0

>  <Name>  (383) 
N-(2-fluoro-4-methylphenyl)-4,5,6,7-tetrahydropyrazolo[1,5-a]pyridine-2-carboxamide

>  <Smile>  (383) 
Cc(cc1)cc(F)c1NC(c1nn(CCCC2)c2c1)=O

>  <Color>  (383) 
ORANGE

>  <Collection>  (383) 
NC

>  <InChI>  (383) 
InChI=1S/C15H16FN3O/c1-10-5-6-13(12(16)8-10)17-15(20)14-9-11-4-2-3-7-19(11)18-14/h5-6,8-9H,2-4,7H2,1H3,(H,17,20)

>  <InChI Key>  (383) 
LHVCCVRXXSKIFO-UHFFFAOYSA-N

>  <PERCENTSP3>  (383) 
33.3

>  <Link>  (383) 
https://www.chemdiv.com/catalog/screening-compounds/compound-P078-0343/

>  <MFCDNUMBER>  (383) 
MFCD27563265

>  <CLNUMBER>  (383) 
CM0145

>  <STEREO>  (383) 
ACHIRAL

>  <State>  (383) 
Solid

>  <Similarity score>  (383) 
0.25

$$$$
5-(2,3-dihydro-1H-indene-5-sulfonyl)-N-(2-methylpropyl)-4,5,6,7-tetrahydropyrazo
     RDKit          2D

 28 31  0  0  0  0  0  0  0  0999 V2000
    1.2977   -1.8519    0.0000 S   0  0  0  0  0  0  0  0  0  0  0  0
   -2.7850   -0.6478    0.0000 C   0  0  0  0  0  0  0  0  0  0  0  0
    0.2978   -1.8519    0.0000 N   0  0  0  0  0  0  0  0  0  0  0  0
   -2.6808   -1.6435    0.0000 N   0  0  0  0  0  0  0  0  0  0  0  0
   -1.2018   -0.9853    0.0000 C   0  0  0  0  0  0  0  0  0  0  0  0
   -1.7019   -1.8519    0.0000 N   0  0  0  0  0  0  0  0  0  0  0  0
   -1.8685   -0.2438    0.0000 C   0  0  0  0  0  0  0  0  0  0  0  0
   -0.2023   -0.9853    0.0000 C   0  0  0  0  0  0  0  0  0  0  0  0
    2.2974   -1.8519    0.0000 C   0  0  0  0  0  0  0  0  0  0  0  0
   -3.6474   -0.1480    0.0000 C   0  0  0  0  0  0  0  0  0  0  0  0
   -0.2023   -2.7183    0.0000 C   0  0  0  0  0  0  0  0  0  0  0  0
   -1.2018   -2.7183    0.0000 C   0  0  0  0  0  0  0  0  0  0  0  0
    2.7973   -0.9853    0.0000 C   0  0  0  0  0  0  0  0  0  0  0  0
    1.2977   -0.8520    0.0000 O   0  0  0  0  0  0  0  0  0  0  0  0
    1.2977   -2.8516    0.0000 O   0  0  0  0  0  0  0  0  0  0  0  0
   -3.6474    0.8520    0.0000 N   0  0  0  0  0  0  0  0  0  0  0  0
    3.7972   -0.9853    0.0000 C   0  0  0  0  0  0  0  0  0  0  0  0
    4.2973   -1.8519    0.0000 C   0  0  0  0  0  0  0  0  0  0  0  0
    2.7973   -2.7183    0.0000 C   0  0  0  0  0  0  0  0  0  0  0  0
   -4.5140   -0.6478    0.0000 O   0  0  0  0  0  0  0  0  0  0  0  0
    3.7972   -2.7183    0.0000 C   0  0  0  0  0  0  0  0  0  0  0  0
   -4.5140    1.3520    0.0000 C   0  0  0  0  0  0  0  0  0  0  0  0
    4.4679   -0.2438    0.0000 C   0  0  0  0  0  0  0  0  0  0  0  0
    5.3804   -0.6478    0.0000 C   0  0  0  0  0  0  0  0  0  0  0  0
    5.2761   -1.6435    0.0000 C   0  0  0  0  0  0  0  0  0  0  0  0
   -4.5140    2.3517    0.0000 C   0  0  0  0  0  0  0  0  0  0  0  0
   -3.6474    2.8516    0.0000 C   0  0  0  0  0  0  0  0  0  0  0  0
   -5.3804    2.8516    0.0000 C   0  0  0  0  0  0  0  0  0  0  0  0
  2  7  1  0
  2  4  2  0
  1  3  1  0
  4  6  1  0
  5  8  1  0
  5  6  1  0
  6 12  1  0
  5  7  2  0
  3  8  1  0
  1  9  1  0
  2 10  1  0
  3 11  1  0
 11 12  1  0
  9 13  2  0
  1 14  2  0
  1 15  2  0
 10 16  1  0
 13 17  1  0
 18 21  1  0
 17 18  2  0
  9 19  1  0
 10 20  2  0
 19 21  2  0
 16 22  1  0
 17 23  1  0
 23 24  1  0
 24 25  1  0
 18 25  1  0
 22 26  1  0
 26 27  1  0
 26 28  1  0
M  END
>  <IDNUMBER>  (384) 
SB71-0866

>  <available>  (384) 
18

>  <H_acceptor>  (384) 
8

>  <H_donor>  (384) 
1

>  <B_rotN>  (384) 
6

>  <N_O>  (384) 
7

>  <logP>  (384) 
2.7749

>  <logD>  (384) 
2.7749

>  <logSw>  (384) 
-3.4564

>  <PSA>  (384) 
70.392

>  <pKa_ma>  (384) 
15.4496

>  <pKa_mb>  (384) 
-2.2329

>  <N_Chirals>  (384) 
0

>  <Name>  (384) 
5-(2,3-dihydro-1H-indene-5-sulfonyl)-N-(2-methylpropyl)-4,5,6,7-tetrahydropyrazolo[1,5-a]pyrazine-2-carboxamide

>  <Smile>  (384) 
CC(C)CNC(c1nn(CCN(C2)S(c3cc(CCC4)c4cc3)(=O)=O)c2c1)=O

>  <Color>  (384) 
NOT COLORED

>  <Collection>  (384) 
IC

>  <InChI>  (384) 
InChI=1S/C20H26N4O3S/c1-14(2)12-21-20(25)19-11-17-13-23(8-9-24(17)22-19)28(26,27)18-7-6-15-4-3-5-16(15)10-18/h6-7,10-11,14H,3-5,8-9,12-13H2,1-2H3,(H,21,25)

>  <InChI Key>  (384) 
QAKFNSQHAKGGFY-UHFFFAOYSA-N

>  <PERCENTSP3>  (384) 
50

>  <Link>  (384) 
https://www.chemdiv.com/catalog/screening-compounds/compound-SB71-0866/

>  <MFCDNUMBER>  (384) 
MFCD32249338

>  <CLNUMBER>  (384) 
CM5543

>  <STEREO>  (384) 
ACHIRAL

>  <State>  (384) 
Solid

>  <Similarity score>  (384) 
0.25

$$$$
[5-(cyclopropanesulfonyl)-4,5,6,7-tetrahydropyrazolo[1,5-a]pyrazin-2-yl](morphol
     RDKit          2D

 23 26  0  0  0  0  0  0  0  0999 V2000
   -1.9730   -1.8521    0.0000 S   0  0  0  0  0  0  0  0  0  0  0  0
    2.1061   -0.6479    0.0000 C   0  0  0  0  0  0  0  0  0  0  0  0
    2.0020   -1.6438    0.0000 N   0  0  0  0  0  0  0  0  0  0  0  0
   -0.9729   -1.8521    0.0000 N   0  0  0  0  0  0  0  0  0  0  0  0
    0.5271   -0.9855    0.0000 C   0  0  0  0  0  0  0  0  0  0  0  0
    1.0271   -1.8521    0.0000 N   0  0  0  0  0  0  0  0  0  0  0  0
    1.1938   -0.2438    0.0000 C   0  0  0  0  0  0  0  0  0  0  0  0
    2.9729   -0.1478    0.0000 C   0  0  0  0  0  0  0  0  0  0  0  0
   -0.4729   -0.9855    0.0000 C   0  0  0  0  0  0  0  0  0  0  0  0
   -2.9729   -1.8521    0.0000 C   0  0  0  0  0  0  0  0  0  0  0  0
    2.9729    0.8522    0.0000 N   0  0  0  0  0  0  0  0  0  0  0  0
   -0.4729   -2.7188    0.0000 C   0  0  0  0  0  0  0  0  0  0  0  0
    0.5271   -2.7188    0.0000 C   0  0  0  0  0  0  0  0  0  0  0  0
   -3.8396   -2.3521    0.0000 C   0  0  0  0  0  0  0  0  0  0  0  0
   -3.8396   -1.3521    0.0000 C   0  0  0  0  0  0  0  0  0  0  0  0
   -1.9730   -0.8522    0.0000 O   0  0  0  0  0  0  0  0  0  0  0  0
   -1.9730   -2.8520    0.0000 O   0  0  0  0  0  0  0  0  0  0  0  0
    3.8396   -0.6479    0.0000 O   0  0  0  0  0  0  0  0  0  0  0  0
    2.9729    2.8520    0.0000 O   0  0  0  0  0  0  0  0  0  0  0  0
    3.8396    1.3521    0.0000 C   0  0  0  0  0  0  0  0  0  0  0  0
    2.1061    1.3521    0.0000 C   0  0  0  0  0  0  0  0  0  0  0  0
    2.1061    2.3521    0.0000 C   0  0  0  0  0  0  0  0  0  0  0  0
    3.8396    2.3521    0.0000 C   0  0  0  0  0  0  0  0  0  0  0  0
  2  7  1  0
  2  3  2  0
  3  6  1  0
  1  4  1  0
  5  9  1  0
  5  6  1  0
  6 13  1  0
  5  7  2  0
  2  8  1  0
  4  9  1  0
  1 10  1  0
  8 11  1  0
  4 12  1  0
 12 13  1  0
 10 14  1  0
 10 15  1  0
 14 15  1  0
  1 16  2  0
  1 17  2  0
  8 18  2  0
 19 22  1  0
 19 23  1  0
 11 20  1  0
 11 21  1  0
 21 22  1  0
 20 23  1  0
M  END
>  <IDNUMBER>  (385) 
SB71-0264

>  <available>  (385) 
17

>  <H_acceptor>  (385) 
9

>  <H_donor>  (385) 
0

>  <B_rotN>  (385) 
4

>  <N_O>  (385) 
8

>  <logP>  (385) 
-0.4681

>  <logD>  (385) 
-0.4681

>  <logSw>  (385) 
-1.3913

>  <PSA>  (385) 
70.5

>  <pKa_ma>  (385) 
19.4577

>  <pKa_mb>  (385) 
-4.2166

>  <N_Chirals>  (385) 
0

>  <Name>  (385) 
[5-(cyclopropanesulfonyl)-4,5,6,7-tetrahydropyrazolo[1,5-a]pyrazin-2-yl](morpholin-4-yl)methanone

>  <Smile>  (385) 
O=C(c1nn(CCN(C2)S(C3CC3)(=O)=O)c2c1)N1CCOCC1

>  <Color>  (385) 
NOT COLORED

>  <Collection>  (385) 
IC

>  <InChI>  (385) 
InChI=1S/C14H20N4O4S/c19-14(16-5-7-22-8-6-16)13-9-11-10-17(3-4-18(11)15-13)23(20,21)12-1-2-12/h9,12H,1-8,10H2

>  <InChI Key>  (385) 
CGJWZOFVMIZYTJ-UHFFFAOYSA-N

>  <PERCENTSP3>  (385) 
71.43

>  <Link>  (385) 
https://www.chemdiv.com/catalog/screening-compounds/compound-SB71-0264/

>  <MFCDNUMBER>  (385) 
MFCD32249232

>  <CLNUMBER>  (385) 
CM5543

>  <STEREO>  (385) 
ACHIRAL

>  <State>  (385) 
Solid

>  <Similarity score>  (385) 
0.25

$$$$
5-(2-fluorobenzamido)-2-{methyl[(3-methyl-1-propyl-1H-pyrazol-5-yl)methyl]amino}
     RDKit          2D

 31 33  0  0  0  0  0  0  0  0999 V2000
   -2.6332   -0.9317    0.0000 C   0  0  0  0  0  0  0  0  0  0  0  0
   -0.0300    0.5939    0.0000 C   0  0  0  0  0  0  0  0  0  0  0  0
   -2.6284   -1.9285    0.0000 N   0  0  0  0  0  0  0  0  0  0  0  0
   -3.5699   -2.2407    0.0000 N   0  0  0  0  0  0  0  0  0  0  0  0
    2.5778    2.0895    0.0000 C   0  0  0  0  0  0  0  0  0  0  0  0
   -0.0300   -0.4031    0.0000 C   0  0  0  0  0  0  0  0  0  0  0  0
   -3.5800   -0.6243    0.0000 C   0  0  0  0  0  0  0  0  0  0  0  0
    3.4389    2.5880    0.0000 C   0  0  0  0  0  0  0  0  0  0  0  0
   -0.8963   -0.9166    0.0000 N   0  0  0  0  0  0  0  0  0  0  0  0
   -0.8963    1.0976    0.0000 C   0  0  0  0  0  0  0  0  0  0  0  0
   -1.7724   -0.4181    0.0000 C   0  0  0  0  0  0  0  0  0  0  0  0
   -4.1690   -1.4302    0.0000 C   0  0  0  0  0  0  0  0  0  0  0  0
    2.5680    1.0924    0.0000 N   0  0  0  0  0  0  0  0  0  0  0  0
    0.8308    1.0924    0.0000 C   0  0  0  0  0  0  0  0  0  0  0  0
    0.8308   -0.9011    0.0000 C   0  0  0  0  0  0  0  0  0  0  0  0
    1.7017    0.5939    0.0000 C   0  0  0  0  0  0  0  0  0  0  0  0
    3.4389    3.5900    0.0000 C   0  0  0  0  0  0  0  0  0  0  0  0
    1.7069    2.5880    0.0000 O   0  0  0  0  0  0  0  0  0  0  0  0
   -1.7574    0.5991    0.0000 O   0  0  0  0  0  0  0  0  0  0  0  0
    1.7017   -0.4031    0.0000 C   0  0  0  0  0  0  0  0  0  0  0  0
   -0.8963    2.1045    0.0000 O   0  0  0  0  0  0  0  0  0  0  0  0
    2.5680    4.1036    0.0000 F   0  0  0  0  0  0  0  0  0  0  0  0
   -1.8126   -2.5176    0.0000 C   0  0  0  0  0  0  0  0  0  0  0  0
    4.2997    2.0895    0.0000 C   0  0  0  0  0  0  0  0  0  0  0  0
   -0.8813   -1.9134    0.0000 C   0  0  0  0  0  0  0  0  0  0  0  0
   -5.1660   -1.4400    0.0000 C   0  0  0  0  0  0  0  0  0  0  0  0
    4.2997    4.0882    0.0000 C   0  0  0  0  0  0  0  0  0  0  0  0
   -1.9083   -3.5146    0.0000 C   0  0  0  0  0  0  0  0  0  0  0  0
    5.1660    2.5880    0.0000 C   0  0  0  0  0  0  0  0  0  0  0  0
   -1.1025   -4.1036    0.0000 C   0  0  0  0  0  0  0  0  0  0  0  0
    5.1660    3.5900    0.0000 C   0  0  0  0  0  0  0  0  0  0  0  0
  2  6  2  0
  1  3  1  0
  3  4  1  0
  4 12  2  0
  5 13  1  0
  6  9  1  0
  1  7  2  0
  5  8  1  0
  9 11  1  0
  2 10  1  0
  1 11  1  0
  7 12  1  0
 13 16  1  0
  2 14  1  0
 14 16  2  0
  6 15  1  0
 16 20  1  0
  8 17  1  0
  5 18  2  0
 10 19  2  0
 15 20  2  0
 10 21  1  0
 17 22  1  0
  3 23  1  0
  8 24  2  0
  9 25  1  0
 12 26  1  0
 17 27  2  0
 23 28  1  0
 24 29  1  0
 28 30  1  0
 29 31  2  0
 27 31  1  0
M  END
>  <IDNUMBER>  (386) 
G889-1305

>  <available>  (386) 
31

>  <H_acceptor>  (386) 
6

>  <H_donor>  (386) 
2

>  <B_rotN>  (386) 
9

>  <N_O>  (386) 
7

>  <logP>  (386) 
3.4891

>  <logD>  (386) 
1.5228

>  <logSw>  (386) 
-3.7732

>  <PSA>  (386) 
67.887

>  <pKa_ma>  (386) 
5.4385

>  <pKa_mb>  (386) 
2.6798

>  <N_Chirals>  (386) 
0

>  <Name>  (386) 
5-(2-fluorobenzamido)-2-{methyl[(3-methyl-1-propyl-1H-pyrazol-5-yl)methyl]amino}benzoic acid

>  <Smile>  (386) 
CCCn1nc(C)cc1CN(C)c(ccc(NC(c(cccc1)c1F)=O)c1)c1C(O)=O

>  <Color>  (386) 
NOT COLORED

>  <Collection>  (386) 
NC

>  <InChI>  (386) 
InChI=1S/C23H25FN4O3/c1-4-11-28-17(12-15(2)26-28)14-27(3)21-10-9-16(13-19(21)23(30)31)25-22(29)18-7-5-6-8-20(18)24/h5-10,12-13H,4,11,14H2,1-3H3,(H,25,29)(H,30,31)

>  <InChI Key>  (386) 
NRIACKALIYKVOE-UHFFFAOYSA-N

>  <PERCENTSP3>  (386) 
26.1

>  <Link>  (386) 
https://www.chemdiv.com/catalog/screening-compounds/compound-G889-1305/

>  <MFCDNUMBER>  (386) 
MFCD27166452

>  <CLNUMBER>  (386) 
CL7339

>  <Saltdata>  (386) 
CF3COOH

>  <Saltdata_MW>  (386) 
114.024

>  <STEREO>  (386) 
ACHIRAL

>  <State>  (386) 
Liquid

>  <Similarity score>  (386) 
0.25

$$$$
5-(6-methoxypyridine-3-carbonyl)-N,N-dimethyl-4,5,6,7-tetrahydropyrazolo[1,5-a]p
     RDKit          2D

 24 26  0  0  0  0  0  0  0  0999 V2000
    2.6323   -1.1775    0.0000 C   0  0  0  0  0  0  0  0  0  0  0  0
    3.0408   -0.2605    0.0000 N   0  0  0  0  0  0  0  0  0  0  0  0
    1.4318   -0.0937    0.0000 C   0  0  0  0  0  0  0  0  0  0  0  0
    2.2947    0.4064    0.0000 N   0  0  0  0  0  0  0  0  0  0  0  0
    1.6401   -1.0691    0.0000 C   0  0  0  0  0  0  0  0  0  0  0  0
    0.5648    1.4069    0.0000 N   0  0  0  0  0  0  0  0  0  0  0  0
    3.1326   -2.0403    0.0000 C   0  0  0  0  0  0  0  0  0  0  0  0
   -0.3023    1.9071    0.0000 C   0  0  0  0  0  0  0  0  0  0  0  0
    0.5648    0.4064    0.0000 C   0  0  0  0  0  0  0  0  0  0  0  0
   -1.1691    1.4069    0.0000 C   0  0  0  0  0  0  0  0  0  0  0  0
    2.2947    1.4069    0.0000 C   0  0  0  0  0  0  0  0  0  0  0  0
   -2.0363   -0.0937    0.0000 N   0  0  0  0  0  0  0  0  0  0  0  0
    1.4318    1.9071    0.0000 C   0  0  0  0  0  0  0  0  0  0  0  0
    4.1329   -2.0403    0.0000 N   0  0  0  0  0  0  0  0  0  0  0  0
   -1.1691    0.4064    0.0000 C   0  0  0  0  0  0  0  0  0  0  0  0
   -2.9034    0.4064    0.0000 C   0  0  0  0  0  0  0  0  0  0  0  0
   -0.3023    2.9074    0.0000 O   0  0  0  0  0  0  0  0  0  0  0  0
    2.6323   -2.9074    0.0000 O   0  0  0  0  0  0  0  0  0  0  0  0
   -2.0363    1.9071    0.0000 C   0  0  0  0  0  0  0  0  0  0  0  0
   -2.9034    1.4069    0.0000 C   0  0  0  0  0  0  0  0  0  0  0  0
   -3.7661   -0.0937    0.0000 O   0  0  0  0  0  0  0  0  0  0  0  0
    4.6331   -1.1775    0.0000 C   0  0  0  0  0  0  0  0  0  0  0  0
    4.6331   -2.9074    0.0000 C   0  0  0  0  0  0  0  0  0  0  0  0
   -4.6331    0.4064    0.0000 C   0  0  0  0  0  0  0  0  0  0  0  0
  1  2  2  0
  3  5  2  0
  3  4  1  0
  2  4  1  0
  1  5  1  0
  6  9  1  0
  1  7  1  0
  6  8  1  0
  3  9  1  0
  8 10  1  0
  4 11  1  0
 12 15  1  0
 12 16  2  0
 11 13  1  0
  6 13  1  0
  7 14  1  0
 10 15  2  0
 16 20  1  0
  8 17  2  0
  7 18  2  0
 10 19  1  0
 19 20  2  0
 16 21  1  0
 14 22  1  0
 14 23  1  0
 21 24  1  0
M  END
>  <IDNUMBER>  (387) 
SB71-0007

>  <available>  (387) 
31

>  <H_acceptor>  (387) 
7

>  <H_donor>  (387) 
0

>  <B_rotN>  (387) 
5

>  <N_O>  (387) 
8

>  <logP>  (387) 
-0.4906

>  <logD>  (387) 
-0.4906

>  <logSw>  (387) 
-1.5071

>  <PSA>  (387) 
62.94

>  <pKa_ma>  (387) 
25.8532

>  <pKa_mb>  (387) 
0.7412

>  <N_Chirals>  (387) 
0

>  <Name>  (387) 
5-(6-methoxypyridine-3-carbonyl)-N,N-dimethyl-4,5,6,7-tetrahydropyrazolo[1,5-a]pyrazine-2-carboxamide

>  <Smile>  (387) 
CN(C)C(c1nn(CCN(C2)C(c(cc3)cnc3OC)=O)c2c1)=O

>  <Color>  (387) 
NOT COLORED

>  <Collection>  (387) 
IC

>  <InChI>  (387) 
InChI=1S/C16H19N5O3/c1-19(2)16(23)13-8-12-10-20(6-7-21(12)18-13)15(22)11-4-5-14(24-3)17-9-11/h4-5,8-9H,6-7,10H2,1-3H3

>  <InChI Key>  (387) 
YAOMOTINPVSZDM-UHFFFAOYSA-N

>  <PERCENTSP3>  (387) 
37.5

>  <Link>  (387) 
https://www.chemdiv.com/catalog/screening-compounds/compound-SB71-0007/

>  <MFCDNUMBER>  (387) 
MFCD32249622

>  <CLNUMBER>  (387) 
CM5543

>  <STEREO>  (387) 
ACHIRAL

>  <State>  (387) 
Solid

>  <Similarity score>  (387) 
0.25

$$$$
[5-(2-fluorobenzene-1-sulfonyl)-4,5,6,7-tetrahydropyrazolo[1,5-a]pyrazin-2-yl](m
     RDKit          2D

 27 30  0  0  0  0  0  0  0  0999 V2000
   -1.4065   -1.4856    0.0000 S   0  0  0  0  0  0  0  0  0  0  0  0
    2.6775   -0.2814    0.0000 C   0  0  0  0  0  0  0  0  0  0  0  0
   -0.4063   -1.4856    0.0000 N   0  0  0  0  0  0  0  0  0  0  0  0
    2.5692   -1.2772    0.0000 N   0  0  0  0  0  0  0  0  0  0  0  0
    1.0940   -0.6189    0.0000 C   0  0  0  0  0  0  0  0  0  0  0  0
    1.5940   -1.4856    0.0000 N   0  0  0  0  0  0  0  0  0  0  0  0
    1.7607    0.1228    0.0000 C   0  0  0  0  0  0  0  0  0  0  0  0
   -2.4066   -1.4856    0.0000 C   0  0  0  0  0  0  0  0  0  0  0  0
    3.5402    0.2188    0.0000 C   0  0  0  0  0  0  0  0  0  0  0  0
    0.0938   -0.6189    0.0000 C   0  0  0  0  0  0  0  0  0  0  0  0
    3.5402    1.2190    0.0000 N   0  0  0  0  0  0  0  0  0  0  0  0
    0.0938   -2.3525    0.0000 C   0  0  0  0  0  0  0  0  0  0  0  0
    1.0940   -2.3525    0.0000 C   0  0  0  0  0  0  0  0  0  0  0  0
   -1.4065   -0.4855    0.0000 O   0  0  0  0  0  0  0  0  0  0  0  0
   -1.4065   -2.4857    0.0000 O   0  0  0  0  0  0  0  0  0  0  0  0
   -2.9067   -2.3525    0.0000 C   0  0  0  0  0  0  0  0  0  0  0  0
    4.4070   -0.2814    0.0000 O   0  0  0  0  0  0  0  0  0  0  0  0
    3.5402    3.2193    0.0000 O   0  0  0  0  0  0  0  0  0  0  0  0
   -2.4066   -3.2193    0.0000 F   0  0  0  0  0  0  0  0  0  0  0  0
   -2.9067   -0.6189    0.0000 C   0  0  0  0  0  0  0  0  0  0  0  0
    4.4070    1.7190    0.0000 C   0  0  0  0  0  0  0  0  0  0  0  0
    2.6775    1.7190    0.0000 C   0  0  0  0  0  0  0  0  0  0  0  0
    2.6775    2.7191    0.0000 C   0  0  0  0  0  0  0  0  0  0  0  0
    4.4070    2.7191    0.0000 C   0  0  0  0  0  0  0  0  0  0  0  0
   -3.9068   -2.3525    0.0000 C   0  0  0  0  0  0  0  0  0  0  0  0
   -3.9068   -0.6189    0.0000 C   0  0  0  0  0  0  0  0  0  0  0  0
   -4.4070   -1.4856    0.0000 C   0  0  0  0  0  0  0  0  0  0  0  0
  2  7  1  0
  2  4  2  0
  1  3  1  0
  4  6  1  0
  5 10  1  0
  5  6  1  0
  6 13  1  0
  5  7  2  0
  1  8  1  0
  2  9  1  0
  3 10  1  0
  9 11  1  0
  3 12  1  0
 12 13  1  0
  1 14  2  0
  1 15  2  0
  8 16  1  0
  9 17  2  0
 18 23  1  0
 18 24  1  0
 16 19  1  0
  8 20  2  0
 11 21  1  0
 11 22  1  0
 22 23  1  0
 21 24  1  0
 16 25  2  0
 25 27  1  0
 20 26  1  0
 26 27  2  0
M  END
>  <IDNUMBER>  (388) 
SB71-0243

>  <available>  (388) 
30

>  <H_acceptor>  (388) 
9

>  <H_donor>  (388) 
0

>  <B_rotN>  (388) 
4

>  <N_O>  (388) 
8

>  <logP>  (388) 
0.469

>  <logD>  (388) 
0.469

>  <logSw>  (388) 
-2.1712

>  <PSA>  (388) 
69.977

>  <pKa_ma>  (388) 
26.1583

>  <pKa_mb>  (388) 
-4.4541

>  <N_Chirals>  (388) 
0

>  <Name>  (388) 
[5-(2-fluorobenzene-1-sulfonyl)-4,5,6,7-tetrahydropyrazolo[1,5-a]pyrazin-2-yl](morpholin-4-yl)methanone

>  <Smile>  (388) 
O=C(c1nn(CCN(C2)S(c(cccc3)c3F)(=O)=O)c2c1)N1CCOCC1

>  <Color>  (388) 
NOT COLORED

>  <Collection>  (388) 
IC

>  <InChI>  (388) 
InChI=1S/C17H19FN4O4S/c18-14-3-1-2-4-16(14)27(24,25)21-5-6-22-13(12-21)11-15(19-22)17(23)20-7-9-26-10-8-20/h1-4,11H,5-10,12H2

>  <InChI Key>  (388) 
JZHHONSVOXZZML-UHFFFAOYSA-N

>  <PERCENTSP3>  (388) 
41.18

>  <Link>  (388) 
https://www.chemdiv.com/catalog/screening-compounds/compound-SB71-0243/

>  <MFCDNUMBER>  (388) 
MFCD32249170

>  <CLNUMBER>  (388) 
CM5543

>  <STEREO>  (388) 
ACHIRAL

>  <State>  (388) 
Solid

>  <Similarity score>  (388) 
0.25

$$$$
5-{[3-(3-methoxyphenyl)-1H-pyrazol-4-yl]methyl}-N-(propan-2-yl)-4,5,6,7-tetrahyd
     RDKit          2D

 29 32  0  0  0  0  0  0  0  0999 V2000
   -1.9683    1.3810    0.0000 C   0  0  0  0  0  0  0  0  0  0  0  0
   -2.1768    0.4022    0.0000 N   0  0  0  0  0  0  0  0  0  0  0  0
   -1.3101   -0.0979    0.0000 N   0  0  0  0  0  0  0  0  0  0  0  0
   -0.5644    0.5729    0.0000 C   0  0  0  0  0  0  0  0  0  0  0  0
    1.7518   -2.0016    0.0000 C   0  0  0  0  0  0  0  0  0  0  0  0
   -0.9726    1.4852    0.0000 C   0  0  0  0  0  0  0  0  0  0  0  0
    2.6642   -2.4099    0.0000 C   0  0  0  0  0  0  0  0  0  0  0  0
   -2.6349    2.1224    0.0000 C   0  0  0  0  0  0  0  0  0  0  0  0
    2.5599   -3.4014    0.0000 N   0  0  0  0  0  0  0  0  0  0  0  0
    0.5936   -0.7144    0.0000 N   0  0  0  0  0  0  0  0  0  0  0  0
    1.5811   -3.6097    0.0000 N   0  0  0  0  0  0  0  0  0  0  0  0
    3.5306   -1.9059    0.0000 C   0  0  0  0  0  0  0  0  0  0  0  0
    1.5435   -1.0226    0.0000 C   0  0  0  0  0  0  0  0  0  0  0  0
    0.3854    0.2645    0.0000 C   0  0  0  0  0  0  0  0  0  0  0  0
    1.0810   -2.7432    0.0000 C   0  0  0  0  0  0  0  0  0  0  0  0
   -3.6140    1.9184    0.0000 N   0  0  0  0  0  0  0  0  0  0  0  0
   -1.1019   -1.0726    0.0000 C   0  0  0  0  0  0  0  0  0  0  0  0
   -2.3267    3.0766    0.0000 O   0  0  0  0  0  0  0  0  0  0  0  0
    3.5306   -0.9101    0.0000 C   0  0  0  0  0  0  0  0  0  0  0  0
   -0.1522   -1.3851    0.0000 C   0  0  0  0  0  0  0  0  0  0  0  0
    4.3971   -0.4102    0.0000 C   0  0  0  0  0  0  0  0  0  0  0  0
   -4.2846    2.6599    0.0000 C   0  0  0  0  0  0  0  0  0  0  0  0
    4.3971   -2.4099    0.0000 C   0  0  0  0  0  0  0  0  0  0  0  0
    4.3971    0.5895    0.0000 O   0  0  0  0  0  0  0  0  0  0  0  0
    5.2636   -1.9059    0.0000 C   0  0  0  0  0  0  0  0  0  0  0  0
    5.2636   -0.9101    0.0000 C   0  0  0  0  0  0  0  0  0  0  0  0
    3.5306    1.0894    0.0000 C   0  0  0  0  0  0  0  0  0  0  0  0
   -5.2636    2.4517    0.0000 C   0  0  0  0  0  0  0  0  0  0  0  0
   -3.9762    3.6097    0.0000 C   0  0  0  0  0  0  0  0  0  0  0  0
  1  2  2  0
  2  3  1  0
  4  6  2  0
  3  4  1  0
  5 13  1  0
  1  6  1  0
  5  7  1  0
  1  8  1  0
  7  9  2  0
  9 11  1  0
 10 14  1  0
 11 15  1  0
  7 12  1  0
 10 13  1  0
  4 14  1  0
  5 15  2  0
  8 16  1  0
  3 17  1  0
  8 18  2  0
 12 19  2  0
 17 20  1  0
 10 20  1  0
 19 21  1  0
 16 22  1  0
 12 23  1  0
 21 24  1  0
 23 25  2  0
 25 26  1  0
 21 26  2  0
 24 27  1  0
 22 28  1  0
 22 29  1  0
M  END
>  <IDNUMBER>  (389) 
SB71-0654

>  <available>  (389) 
128

>  <H_acceptor>  (389) 
6

>  <H_donor>  (389) 
2

>  <B_rotN>  (389) 
7

>  <N_O>  (389) 
8

>  <logP>  (389) 
1.9255

>  <logD>  (389) 
1.4886

>  <logSw>  (389) 
-2.5876

>  <PSA>  (389) 
72.835

>  <pKa_ma>  (389) 
11.9692

>  <pKa_mb>  (389) 
7.6393

>  <N_Chirals>  (389) 
0

>  <Name>  (389) 
5-{[3-(3-methoxyphenyl)-1H-pyrazol-4-yl]methyl}-N-(propan-2-yl)-4,5,6,7-tetrahydropyrazolo[1,5-a]pyrazine-2-carboxamide

>  <Smile>  (389) 
CC(C)NC(c1nn(CCN(Cc2c[nH]nc2-c2cc(OC)ccc2)C2)c2c1)=O

>  <Color>  (389) 
NOT COLORED

>  <Collection>  (389) 
IC

>  <InChI>  (389) 
InChI=1S/C21H26N6O2/c1-14(2)23-21(28)19-10-17-13-26(7-8-27(17)25-19)12-16-11-22-24-20(16)15-5-4-6-18(9-15)29-3/h4-6,9-11,14H,7-8,12-13H2,1-3H3,(H,22,24)(H,23,28)

>  <InChI Key>  (389) 
CMNFKLCLXVYLPU-UHFFFAOYSA-N

>  <PERCENTSP3>  (389) 
38.1

>  <Link>  (389) 
https://www.chemdiv.com/catalog/screening-compounds/compound-SB71-0654/

>  <MFCDNUMBER>  (389) 
MFCD32249425

>  <CLNUMBER>  (389) 
CM5543

>  <STEREO>  (389) 
ACHIRAL

>  <State>  (389) 
Solid

>  <Similarity score>  (389) 
0.25

$$$$
N-cyclopentyl-5-{[3-(4-methylphenyl)-1H-pyrazol-4-yl]methyl}-4,5,6,7-tetrahydrop
     RDKit          2D

 30 34  0  0  0  0  0  0  0  0999 V2000
    2.3550   -0.9315    0.0000 C   0  0  0  0  0  0  0  0  0  0  0  0
    1.7673   -1.7401    0.0000 N   0  0  0  0  0  0  0  0  0  0  0  0
    0.8128   -1.4316    0.0000 N   0  0  0  0  0  0  0  0  0  0  0  0
    0.8128   -0.4314    0.0000 C   0  0  0  0  0  0  0  0  0  0  0  0
   -1.7839    1.0692    0.0000 C   0  0  0  0  0  0  0  0  0  0  0  0
    1.7673   -0.1229    0.0000 C   0  0  0  0  0  0  0  0  0  0  0  0
    3.3554   -0.9315    0.0000 C   0  0  0  0  0  0  0  0  0  0  0  0
   -2.5925    1.6568    0.0000 C   0  0  0  0  0  0  0  0  0  0  0  0
   -2.2840    2.6071    0.0000 N   0  0  0  0  0  0  0  0  0  0  0  0
   -0.9169   -0.4314    0.0000 N   0  0  0  0  0  0  0  0  0  0  0  0
   -1.2838    2.6071    0.0000 N   0  0  0  0  0  0  0  0  0  0  0  0
   -1.7839    0.0687    0.0000 C   0  0  0  0  0  0  0  0  0  0  0  0
   -0.0500    0.0687    0.0000 C   0  0  0  0  0  0  0  0  0  0  0  0
    3.8555   -1.7985    0.0000 N   0  0  0  0  0  0  0  0  0  0  0  0
   -0.9753    1.6568    0.0000 C   0  0  0  0  0  0  0  0  0  0  0  0
   -0.0500   -1.9320    0.0000 C   0  0  0  0  0  0  0  0  0  0  0  0
   -3.5428    1.3485    0.0000 C   0  0  0  0  0  0  0  0  0  0  0  0
    3.8555   -0.0645    0.0000 O   0  0  0  0  0  0  0  0  0  0  0  0
   -0.9169   -1.4316    0.0000 C   0  0  0  0  0  0  0  0  0  0  0  0
   -4.2889    2.0155    0.0000 C   0  0  0  0  0  0  0  0  0  0  0  0
   -3.7512    0.3688    0.0000 C   0  0  0  0  0  0  0  0  0  0  0  0
    4.8560   -1.7985    0.0000 C   0  0  0  0  0  0  0  0  0  0  0  0
   -4.7059    0.0605    0.0000 C   0  0  0  0  0  0  0  0  0  0  0  0
   -5.2394    1.7070    0.0000 C   0  0  0  0  0  0  0  0  0  0  0  0
   -5.4476    0.7275    0.0000 C   0  0  0  0  0  0  0  0  0  0  0  0
   -6.3939    0.4190    0.0000 C   0  0  0  0  0  0  0  0  0  0  0  0
    5.4436   -2.6071    0.0000 C   0  0  0  0  0  0  0  0  0  0  0  0
    5.4436   -0.9899    0.0000 C   0  0  0  0  0  0  0  0  0  0  0  0
    6.3939   -1.2982    0.0000 C   0  0  0  0  0  0  0  0  0  0  0  0
    6.3939   -2.2986    0.0000 C   0  0  0  0  0  0  0  0  0  0  0  0
  1  2  2  0
  2  3  1  0
  4  6  2  0
  3  4  1  0
  5 12  1  0
  1  6  1  0
  1  7  1  0
  5  8  1  0
  8  9  2  0
  9 11  1  0
 10 13  1  0
 11 15  1  0
 10 12  1  0
  4 13  1  0
  7 14  1  0
  5 15  2  0
  3 16  1  0
  8 17  1  0
  7 18  2  0
 16 19  1  0
 10 19  1  0
 17 20  2  0
 17 21  1  0
 14 22  1  0
 21 23  2  0
 20 24  1  0
 23 25  1  0
 24 25  2  0
 25 26  1  0
 22 27  1  0
 22 28  1  0
 28 29  1  0
 27 30  1  0
 29 30  1  0
M  END
>  <IDNUMBER>  (390) 
SB71-0699

>  <available>  (390) 
72

>  <H_acceptor>  (390) 
5

>  <H_donor>  (390) 
2

>  <B_rotN>  (390) 
6

>  <N_O>  (390) 
7

>  <logP>  (390) 
2.9236

>  <logD>  (390) 
2.4866

>  <logSw>  (390) 
-3.2561

>  <PSA>  (390) 
66.136

>  <pKa_ma>  (390) 
11.6652

>  <pKa_mb>  (390) 
7.6393

>  <N_Chirals>  (390) 
0

>  <Name>  (390) 
N-cyclopentyl-5-{[3-(4-methylphenyl)-1H-pyrazol-4-yl]methyl}-4,5,6,7-tetrahydropyrazolo[1,5-a]pyrazine-2-carboxamide

>  <Smile>  (390) 
Cc(cc1)ccc1-c1n[nH]cc1CN1Cc2cc(C(NC3CCCC3)=O)nn2CC1

>  <Color>  (390) 
YELLOW

>  <Collection>  (390) 
IC

>  <InChI>  (390) 
InChI=1S/C23H28N6O/c1-16-6-8-17(9-7-16)22-18(13-24-26-22)14-28-10-11-29-20(15-28)12-21(27-29)23(30)25-19-4-2-3-5-19/h6-9,12-13,19H,2-5,10-11,14-15H2,1H3,(H,24,26)(H,25,30)

>  <InChI Key>  (390) 
NSQOZRYNNKWTKC-UHFFFAOYSA-N

>  <PERCENTSP3>  (390) 
43.48

>  <Link>  (390) 
https://www.chemdiv.com/catalog/screening-compounds/compound-SB71-0699/

>  <MFCDNUMBER>  (390) 
MFCD32249520

>  <CLNUMBER>  (390) 
CM5543

>  <STEREO>  (390) 
ACHIRAL

>  <State>  (390) 
Solid

>  <Similarity score>  (390) 
0.25

$$$$
{5-[(4-methylphenyl)methanesulfonyl]-4,5,6,7-tetrahydropyrazolo[1,5-a]pyrazin-2-
     RDKit          2D

 27 30  0  0  0  0  0  0  0  0999 V2000
   -1.8853   -1.5854    0.0000 C   0  0  0  0  0  0  0  0  0  0  0  0
    2.1980   -0.3813    0.0000 S   0  0  0  0  0  0  0  0  0  0  0  0
   -1.7813   -0.5895    0.0000 N   0  0  0  0  0  0  0  0  0  0  0  0
   -0.3021   -1.2477    0.0000 C   0  0  0  0  0  0  0  0  0  0  0  0
   -0.8021   -0.3813    0.0000 N   0  0  0  0  0  0  0  0  0  0  0  0
    1.1980   -0.3813    0.0000 N   0  0  0  0  0  0  0  0  0  0  0  0
   -0.9686   -1.9897    0.0000 C   0  0  0  0  0  0  0  0  0  0  0  0
   -2.7480   -2.0854    0.0000 C   0  0  0  0  0  0  0  0  0  0  0  0
    0.6980   -1.2477    0.0000 C   0  0  0  0  0  0  0  0  0  0  0  0
   -3.6148   -1.5854    0.0000 N   0  0  0  0  0  0  0  0  0  0  0  0
   -0.3021    0.4855    0.0000 C   0  0  0  0  0  0  0  0  0  0  0  0
    0.6980    0.4855    0.0000 C   0  0  0  0  0  0  0  0  0  0  0  0
    3.1980   -0.3813    0.0000 C   0  0  0  0  0  0  0  0  0  0  0  0
    2.1980    0.6187    0.0000 O   0  0  0  0  0  0  0  0  0  0  0  0
    2.1980   -1.3812    0.0000 O   0  0  0  0  0  0  0  0  0  0  0  0
   -2.7480   -3.0814    0.0000 O   0  0  0  0  0  0  0  0  0  0  0  0
    3.6980    0.4855    0.0000 C   0  0  0  0  0  0  0  0  0  0  0  0
    4.6980    2.2188    0.0000 C   0  0  0  0  0  0  0  0  0  0  0  0
    3.1980    1.3523    0.0000 C   0  0  0  0  0  0  0  0  0  0  0  0
    4.6980    0.4855    0.0000 C   0  0  0  0  0  0  0  0  0  0  0  0
    3.6980    2.2188    0.0000 C   0  0  0  0  0  0  0  0  0  0  0  0
    5.1981    1.3523    0.0000 C   0  0  0  0  0  0  0  0  0  0  0  0
   -3.7188   -0.5895    0.0000 C   0  0  0  0  0  0  0  0  0  0  0  0
   -4.5313   -1.9897    0.0000 C   0  0  0  0  0  0  0  0  0  0  0  0
    5.1981    3.0814    0.0000 C   0  0  0  0  0  0  0  0  0  0  0  0
   -4.6980   -0.3813    0.0000 C   0  0  0  0  0  0  0  0  0  0  0  0
   -5.1981   -1.2477    0.0000 C   0  0  0  0  0  0  0  0  0  0  0  0
  2  6  1  0
  1  3  2  0
  4  7  2  0
  4  5  1  0
  3  5  1  0
  6  9  1  0
  1  7  1  0
  1  8  1  0
  4  9  1  0
  8 10  1  0
  5 11  1  0
 11 12  1  0
  6 12  1  0
  2 13  1  0
  2 14  2  0
  2 15  2  0
  8 16  2  0
 13 17  1  0
 18 22  2  0
 17 19  1  0
 17 20  2  0
 19 21  2  0
 18 21  1  0
 20 22  1  0
 10 23  1  0
 10 24  1  0
 18 25  1  0
 23 26  1  0
 24 27  1  0
 26 27  1  0
M  END
>  <IDNUMBER>  (391) 
SB71-0959

>  <available>  (391) 
24

>  <H_acceptor>  (391) 
8

>  <H_donor>  (391) 
0

>  <B_rotN>  (391) 
5

>  <N_O>  (391) 
7

>  <logP>  (391) 
1.5193

>  <logD>  (391) 
1.5193

>  <logSw>  (391) 
-2.34

>  <PSA>  (391) 
62.329

>  <pKa_ma>  (391) 
20.298

>  <pKa_mb>  (391) 
-3.3545

>  <N_Chirals>  (391) 
0

>  <Name>  (391) 
{5-[(4-methylphenyl)methanesulfonyl]-4,5,6,7-tetrahydropyrazolo[1,5-a]pyrazin-2-yl}(pyrrolidin-1-yl)methanone

>  <Smile>  (391) 
Cc1ccc(CS(N2Cc3cc(C(N4CCCC4)=O)nn3CC2)(=O)=O)cc1

>  <Color>  (391) 
ORANGE

>  <Collection>  (391) 
IC

>  <InChI>  (391) 
InChI=1S/C19H24N4O3S/c1-15-4-6-16(7-5-15)14-27(25,26)22-10-11-23-17(13-22)12-18(20-23)19(24)21-8-2-3-9-21/h4-7,12H,2-3,8-11,13-14H2,1H3

>  <InChI Key>  (391) 
KPWJKCYDPBZZDE-UHFFFAOYSA-N

>  <PERCENTSP3>  (391) 
47.37

>  <Link>  (391) 
https://www.chemdiv.com/catalog/screening-compounds/compound-SB71-0959/

>  <MFCDNUMBER>  (391) 
MFCD18531480

>  <CLNUMBER>  (391) 
CM5543

>  <STEREO>  (391) 
ACHIRAL

>  <State>  (391) 
Solid

>  <Similarity score>  (391) 
0.25

$$$$
N,N-dimethyl-5-(4-phenylbutanoyl)-4,5,6,7-tetrahydropyrazolo[1,5-a]pyrazine-2-ca
     RDKit          2D

 25 27  0  0  0  0  0  0  0  0999 V2000
    3.4140    0.3852    0.0000 C   0  0  0  0  0  0  0  0  0  0  0  0
    2.8265    1.1936    0.0000 N   0  0  0  0  0  0  0  0  0  0  0  0
    1.8767   -0.1147    0.0000 C   0  0  0  0  0  0  0  0  0  0  0  0
    1.8767    0.8853    0.0000 N   0  0  0  0  0  0  0  0  0  0  0  0
    2.8265   -0.4228    0.0000 C   0  0  0  0  0  0  0  0  0  0  0  0
    4.4138    0.3852    0.0000 C   0  0  0  0  0  0  0  0  0  0  0  0
    0.1437   -0.1147    0.0000 N   0  0  0  0  0  0  0  0  0  0  0  0
    1.0103   -0.6145    0.0000 C   0  0  0  0  0  0  0  0  0  0  0  0
   -0.7186   -0.6145    0.0000 C   0  0  0  0  0  0  0  0  0  0  0  0
    1.0103    1.3851    0.0000 C   0  0  0  0  0  0  0  0  0  0  0  0
    4.9179    1.2520    0.0000 N   0  0  0  0  0  0  0  0  0  0  0  0
    0.1437    0.8853    0.0000 C   0  0  0  0  0  0  0  0  0  0  0  0
    4.9179   -0.4814    0.0000 O   0  0  0  0  0  0  0  0  0  0  0  0
   -0.7186   -1.6145    0.0000 O   0  0  0  0  0  0  0  0  0  0  0  0
   -1.5852   -0.1147    0.0000 C   0  0  0  0  0  0  0  0  0  0  0  0
   -4.1848   -0.6145    0.0000 C   0  0  0  0  0  0  0  0  0  0  0  0
   -2.4518   -0.6145    0.0000 C   0  0  0  0  0  0  0  0  0  0  0  0
    4.4138    2.1143    0.0000 C   0  0  0  0  0  0  0  0  0  0  0  0
    5.9178    1.2520    0.0000 C   0  0  0  0  0  0  0  0  0  0  0  0
   -3.3182   -0.1147    0.0000 C   0  0  0  0  0  0  0  0  0  0  0  0
   -4.1848   -1.6145    0.0000 C   0  0  0  0  0  0  0  0  0  0  0  0
   -5.0514   -0.1147    0.0000 C   0  0  0  0  0  0  0  0  0  0  0  0
   -5.9178   -0.6145    0.0000 C   0  0  0  0  0  0  0  0  0  0  0  0
   -5.0514   -2.1143    0.0000 C   0  0  0  0  0  0  0  0  0  0  0  0
   -5.9178   -1.6145    0.0000 C   0  0  0  0  0  0  0  0  0  0  0  0
  1  2  2  0
  3  5  2  0
  3  4  1  0
  2  4  1  0
  1  5  1  0
  1  6  1  0
  7  8  1  0
  3  8  1  0
  7  9  1  0
  4 10  1  0
  6 11  1  0
 10 12  1  0
  7 12  1  0
  6 13  2  0
  9 14  2  0
  9 15  1  0
 16 20  1  0
 15 17  1  0
 11 18  1  0
 11 19  1  0
 17 20  1  0
 16 21  2  0
 16 22  1  0
 22 23  2  0
 21 24  1  0
 24 25  2  0
 23 25  1  0
M  END
>  <IDNUMBER>  (392) 
SB71-0020

>  <available>  (392) 
96

>  <H_acceptor>  (392) 
5

>  <H_donor>  (392) 
0

>  <B_rotN>  (392) 
7

>  <N_O>  (392) 
6

>  <logP>  (392) 
1.3035

>  <logD>  (392) 
1.3035

>  <logSw>  (392) 
-1.8225

>  <PSA>  (392) 
45.831

>  <pKa_ma>  (392) 
21.894

>  <pKa_mb>  (392) 
-2.791

>  <N_Chirals>  (392) 
0

>  <Name>  (392) 
N,N-dimethyl-5-(4-phenylbutanoyl)-4,5,6,7-tetrahydropyrazolo[1,5-a]pyrazine-2-carboxamide

>  <Smile>  (392) 
CN(C)C(c1nn(CCN(C2)C(CCCc3ccccc3)=O)c2c1)=O

>  <Color>  (392) 
YELLOW

>  <Collection>  (392) 
IC

>  <InChI>  (392) 
InChI=1S/C19H24N4O2/c1-21(2)19(25)17-13-16-14-22(11-12-23(16)20-17)18(24)10-6-9-15-7-4-3-5-8-15/h3-5,7-8,13H,6,9-12,14H2,1-2H3

>  <InChI Key>  (392) 
ZEHWGFJTTXSSDS-UHFFFAOYSA-N

>  <PERCENTSP3>  (392) 
42.1

>  <Link>  (392) 
https://www.chemdiv.com/catalog/screening-compounds/compound-SB71-0020/

>  <MFCDNUMBER>  (392) 
MFCD32249630

>  <CLNUMBER>  (392) 
CM5543

>  <STEREO>  (392) 
ACHIRAL

>  <State>  (392) 
Solid

>  <Similarity score>  (392) 
0.25

$$$$
[5-(benzenesulfonyl)-4,5,6,7-tetrahydropyrazolo[1,5-a]pyrazin-2-yl](morpholin-4-
     RDKit          2D

 26 29  0  0  0  0  0  0  0  0999 V2000
   -1.4065   -1.8525    0.0000 S   0  0  0  0  0  0  0  0  0  0  0  0
    2.6775   -0.6481    0.0000 C   0  0  0  0  0  0  0  0  0  0  0  0
    2.5692   -1.6441    0.0000 N   0  0  0  0  0  0  0  0  0  0  0  0
   -0.4063   -1.8525    0.0000 N   0  0  0  0  0  0  0  0  0  0  0  0
    1.0940   -0.9857    0.0000 C   0  0  0  0  0  0  0  0  0  0  0  0
    1.5940   -1.8525    0.0000 N   0  0  0  0  0  0  0  0  0  0  0  0
    1.7607   -0.2439    0.0000 C   0  0  0  0  0  0  0  0  0  0  0  0
    3.5402   -0.1479    0.0000 C   0  0  0  0  0  0  0  0  0  0  0  0
    0.0938   -0.9857    0.0000 C   0  0  0  0  0  0  0  0  0  0  0  0
    3.5402    0.8523    0.0000 N   0  0  0  0  0  0  0  0  0  0  0  0
    0.0938   -2.7194    0.0000 C   0  0  0  0  0  0  0  0  0  0  0  0
    1.0940   -2.7194    0.0000 C   0  0  0  0  0  0  0  0  0  0  0  0
   -1.4065   -0.8523    0.0000 O   0  0  0  0  0  0  0  0  0  0  0  0
   -1.4065   -2.8526    0.0000 O   0  0  0  0  0  0  0  0  0  0  0  0
   -2.4066   -1.8525    0.0000 C   0  0  0  0  0  0  0  0  0  0  0  0
    4.4070   -0.6481    0.0000 O   0  0  0  0  0  0  0  0  0  0  0  0
    3.5402    2.8526    0.0000 O   0  0  0  0  0  0  0  0  0  0  0  0
    4.4070    1.3523    0.0000 C   0  0  0  0  0  0  0  0  0  0  0  0
    2.6775    1.3523    0.0000 C   0  0  0  0  0  0  0  0  0  0  0  0
    2.6775    2.3524    0.0000 C   0  0  0  0  0  0  0  0  0  0  0  0
    4.4070    2.3524    0.0000 C   0  0  0  0  0  0  0  0  0  0  0  0
   -2.9067   -2.7194    0.0000 C   0  0  0  0  0  0  0  0  0  0  0  0
   -2.9067   -0.9857    0.0000 C   0  0  0  0  0  0  0  0  0  0  0  0
   -3.9068   -0.9857    0.0000 C   0  0  0  0  0  0  0  0  0  0  0  0
   -3.9068   -2.7194    0.0000 C   0  0  0  0  0  0  0  0  0  0  0  0
   -4.4070   -1.8525    0.0000 C   0  0  0  0  0  0  0  0  0  0  0  0
  2  7  1  0
  2  3  2  0
  3  6  1  0
  1  4  1  0
  5  9  1  0
  5  6  1  0
  6 12  1  0
  5  7  2  0
  2  8  1  0
  4  9  1  0
  8 10  1  0
  4 11  1  0
 11 12  1  0
  1 13  2  0
  1 14  2  0
  1 15  1  0
  8 16  2  0
 17 20  1  0
 17 21  1  0
 10 18  1  0
 10 19  1  0
 19 20  1  0
 18 21  1  0
 15 22  2  0
 15 23  1  0
 23 24  2  0
 22 25  1  0
 25 26  2  0
 24 26  1  0
M  END
>  <IDNUMBER>  (393) 
SB71-0249

>  <available>  (393) 
44

>  <H_acceptor>  (393) 
9

>  <H_donor>  (393) 
0

>  <B_rotN>  (393) 
4

>  <N_O>  (393) 
8

>  <logP>  (393) 
0.4224

>  <logD>  (393) 
0.4224

>  <logSw>  (393) 
-2.2243

>  <PSA>  (393) 
69.977

>  <pKa_ma>  (393) 
26.1583

>  <pKa_mb>  (393) 
-4.4541

>  <N_Chirals>  (393) 
0

>  <Name>  (393) 
[5-(benzenesulfonyl)-4,5,6,7-tetrahydropyrazolo[1,5-a]pyrazin-2-yl](morpholin-4-yl)methanone

>  <Smile>  (393) 
O=C(c1nn(CCN(C2)S(c3ccccc3)(=O)=O)c2c1)N1CCOCC1

>  <Color>  (393) 
NOT COLORED

>  <Collection>  (393) 
IC

>  <InChI>  (393) 
InChI=1S/C17H20N4O4S/c22-17(19-8-10-25-11-9-19)16-12-14-13-20(6-7-21(14)18-16)26(23,24)15-4-2-1-3-5-15/h1-5,12H,6-11,13H2

>  <InChI Key>  (393) 
XFYARZCQKVXCQD-UHFFFAOYSA-N

>  <PERCENTSP3>  (393) 
41.18

>  <Link>  (393) 
https://www.chemdiv.com/catalog/screening-compounds/compound-SB71-0249/

>  <MFCDNUMBER>  (393) 
MFCD32249197

>  <CLNUMBER>  (393) 
CM5543

>  <STEREO>  (393) 
ACHIRAL

>  <State>  (393) 
Solid

>  <Similarity score>  (393) 
0.25

$$$$
N,N-dimethyl-5-(phenoxyacetyl)-4,5,6,7-tetrahydropyrazolo[1,5-a]pyrazine-2-carbo
     RDKit          2D

 24 26  0  0  0  0  0  0  0  0999 V2000
    2.6320    1.1775    0.0000 C   0  0  0  0  0  0  0  0  0  0  0  0
    3.0403    0.2604    0.0000 N   0  0  0  0  0  0  0  0  0  0  0  0
    1.4316    0.0938    0.0000 C   0  0  0  0  0  0  0  0  0  0  0  0
    2.2984   -0.4064    0.0000 N   0  0  0  0  0  0  0  0  0  0  0  0
    1.6399    1.0733    0.0000 C   0  0  0  0  0  0  0  0  0  0  0  0
    3.1321    2.0402    0.0000 C   0  0  0  0  0  0  0  0  0  0  0  0
    0.5647   -1.4065    0.0000 N   0  0  0  0  0  0  0  0  0  0  0  0
    0.5647   -0.4064    0.0000 C   0  0  0  0  0  0  0  0  0  0  0  0
   -0.3023   -1.9067    0.0000 C   0  0  0  0  0  0  0  0  0  0  0  0
    2.2984   -1.4065    0.0000 C   0  0  0  0  0  0  0  0  0  0  0  0
    4.1321    2.0402    0.0000 N   0  0  0  0  0  0  0  0  0  0  0  0
    1.4316   -1.9067    0.0000 C   0  0  0  0  0  0  0  0  0  0  0  0
    2.6320    2.9070    0.0000 O   0  0  0  0  0  0  0  0  0  0  0  0
   -1.1691   -1.4065    0.0000 C   0  0  0  0  0  0  0  0  0  0  0  0
   -0.3023   -2.9070    0.0000 O   0  0  0  0  0  0  0  0  0  0  0  0
   -2.0360   -1.9067    0.0000 O   0  0  0  0  0  0  0  0  0  0  0  0
   -2.9028   -1.4065    0.0000 C   0  0  0  0  0  0  0  0  0  0  0  0
    4.6324    1.1775    0.0000 C   0  0  0  0  0  0  0  0  0  0  0  0
    4.6324    2.9070    0.0000 C   0  0  0  0  0  0  0  0  0  0  0  0
   -2.9028   -0.4064    0.0000 C   0  0  0  0  0  0  0  0  0  0  0  0
   -3.7656   -1.9067    0.0000 C   0  0  0  0  0  0  0  0  0  0  0  0
   -4.6324   -1.4065    0.0000 C   0  0  0  0  0  0  0  0  0  0  0  0
   -3.7656    0.0938    0.0000 C   0  0  0  0  0  0  0  0  0  0  0  0
   -4.6324   -0.4064    0.0000 C   0  0  0  0  0  0  0  0  0  0  0  0
  1  2  2  0
  3  5  2  0
  3  4  1  0
  2  4  1  0
  1  5  1  0
  1  6  1  0
  7  8  1  0
  3  8  1  0
  7  9  1  0
  4 10  1  0
  6 11  1  0
 10 12  1  0
  7 12  1  0
  6 13  2  0
  9 14  1  0
  9 15  2  0
 14 16  1  0
 16 17  1  0
 11 18  1  0
 11 19  1  0
 17 20  1  0
 17 21  2  0
 21 22  1  0
 20 23  2  0
 23 24  1  0
 22 24  2  0
M  END
>  <IDNUMBER>  (394) 
SB71-0015

>  <available>  (394) 
53

>  <H_acceptor>  (394) 
6

>  <H_donor>  (394) 
0

>  <B_rotN>  (394) 
6

>  <N_O>  (394) 
7

>  <logP>  (394) 
-0.1129

>  <logD>  (394) 
-0.1129

>  <logSw>  (394) 
-1.5118

>  <PSA>  (394) 
53.33

>  <pKa_ma>  (394) 
24.6503

>  <pKa_mb>  (394) 
-2.791

>  <N_Chirals>  (394) 
0

>  <Name>  (394) 
N,N-dimethyl-5-(phenoxyacetyl)-4,5,6,7-tetrahydropyrazolo[1,5-a]pyrazine-2-carboxamide

>  <Smile>  (394) 
CN(C)C(c1nn(CCN(C2)C(COc3ccccc3)=O)c2c1)=O

>  <Color>  (394) 
NOT COLORED

>  <Collection>  (394) 
IC

>  <InChI>  (394) 
InChI=1S/C17H20N4O3/c1-19(2)17(23)15-10-13-11-20(8-9-21(13)18-15)16(22)12-24-14-6-4-3-5-7-14/h3-7,10H,8-9,11-12H2,1-2H3

>  <InChI Key>  (394) 
BLTVPTQMGUEWCX-UHFFFAOYSA-N

>  <PERCENTSP3>  (394) 
35.29

>  <Link>  (394) 
https://www.chemdiv.com/catalog/screening-compounds/compound-SB71-0015/

>  <MFCDNUMBER>  (394) 
MFCD32249628

>  <CLNUMBER>  (394) 
CM5543

>  <STEREO>  (394) 
ACHIRAL

>  <State>  (394) 
Solid

>  <Similarity score>  (394) 
0.25

$$$$
N-benzyl-5-(3-phenylpropyl)-4,5,6,7-tetrahydropyrazolo[1,5-a]pyrazine-2-carboxam
     RDKit          2D

 28 31  0  0  0  0  0  0  0  0999 V2000
    1.1298    0.2438    0.0000 C   0  0  0  0  0  0  0  0  0  0  0  0
    1.5384   -0.6733    0.0000 N   0  0  0  0  0  0  0  0  0  0  0  0
    0.7963   -1.3405    0.0000 N   0  0  0  0  0  0  0  0  0  0  0  0
   -0.0709   -0.8402    0.0000 C   0  0  0  0  0  0  0  0  0  0  0  0
    0.1376    0.1397    0.0000 C   0  0  0  0  0  0  0  0  0  0  0  0
    1.6302    1.1110    0.0000 C   0  0  0  0  0  0  0  0  0  0  0  0
   -0.9382   -2.3411    0.0000 N   0  0  0  0  0  0  0  0  0  0  0  0
   -0.9382   -1.3405    0.0000 C   0  0  0  0  0  0  0  0  0  0  0  0
    0.7963   -2.3411    0.0000 C   0  0  0  0  0  0  0  0  0  0  0  0
    2.6309    1.1110    0.0000 N   0  0  0  0  0  0  0  0  0  0  0  0
    1.1298    1.9741    0.0000 O   0  0  0  0  0  0  0  0  0  0  0  0
   -0.0709   -2.8413    0.0000 C   0  0  0  0  0  0  0  0  0  0  0  0
    3.1311    1.9741    0.0000 C   0  0  0  0  0  0  0  0  0  0  0  0
    4.1318    1.9741    0.0000 C   0  0  0  0  0  0  0  0  0  0  0  0
   -1.8054   -2.8413    0.0000 C   0  0  0  0  0  0  0  0  0  0  0  0
   -4.4070   -2.3411    0.0000 C   0  0  0  0  0  0  0  0  0  0  0  0
   -2.6725   -2.3411    0.0000 C   0  0  0  0  0  0  0  0  0  0  0  0
   -3.5397   -2.8413    0.0000 C   0  0  0  0  0  0  0  0  0  0  0  0
    4.6322    1.1110    0.0000 C   0  0  0  0  0  0  0  0  0  0  0  0
    4.6322    2.8413    0.0000 C   0  0  0  0  0  0  0  0  0  0  0  0
   -4.4070   -1.3405    0.0000 C   0  0  0  0  0  0  0  0  0  0  0  0
   -5.2700   -2.8413    0.0000 C   0  0  0  0  0  0  0  0  0  0  0  0
    5.6328    2.8413    0.0000 C   0  0  0  0  0  0  0  0  0  0  0  0
    5.6328    1.1110    0.0000 C   0  0  0  0  0  0  0  0  0  0  0  0
   -6.1331   -2.3411    0.0000 C   0  0  0  0  0  0  0  0  0  0  0  0
   -5.2700   -0.8402    0.0000 C   0  0  0  0  0  0  0  0  0  0  0  0
    6.1331    1.9741    0.0000 C   0  0  0  0  0  0  0  0  0  0  0  0
   -6.1331   -1.3405    0.0000 C   0  0  0  0  0  0  0  0  0  0  0  0
  1  2  2  0
  2  3  1  0
  4  5  2  0
  3  4  1  0
  1  5  1  0
  1  6  1  0
  7  8  1  0
  4  8  1  0
  3  9  1  0
  6 10  1  0
  6 11  2  0
  9 12  1  0
  7 12  1  0
 10 13  1  0
 13 14  1  0
  7 15  1  0
 16 18  1  0
 15 17  1  0
 17 18  1  0
 14 19  2  0
 14 20  1  0
 16 21  2  0
 16 22  1  0
 20 23  2  0
 19 24  1  0
 22 25  2  0
 21 26  1  0
 23 27  1  0
 24 27  2  0
 25 28  1  0
 26 28  2  0
M  END
>  <IDNUMBER>  (395) 
SB71-0182

>  <available>  (395) 
40

>  <H_acceptor>  (395) 
4

>  <H_donor>  (395) 
1

>  <B_rotN>  (395) 
8

>  <N_O>  (395) 
5

>  <logP>  (395) 
3.3215

>  <logD>  (395) 
3.2169

>  <logSw>  (395) 
-3.5345

>  <PSA>  (395) 
41.834

>  <pKa_ma>  (395) 
12.5385

>  <pKa_mb>  (395) 
6.8349

>  <N_Chirals>  (395) 
0

>  <Name>  (395) 
N-benzyl-5-(3-phenylpropyl)-4,5,6,7-tetrahydropyrazolo[1,5-a]pyrazine-2-carboxamide

>  <Smile>  (395) 
O=C(c1nn(CCN(CCCc2ccccc2)C2)c2c1)NCc1ccccc1

>  <Color>  (395) 
NOT COLORED

>  <Collection>  (395) 
IC

>  <InChI>  (395) 
InChI=1S/C23H26N4O/c28-23(24-17-20-10-5-2-6-11-20)22-16-21-18-26(14-15-27(21)25-22)13-7-12-19-8-3-1-4-9-19/h1-6,8-11,16H,7,12-15,17-18H2,(H,24,28)

>  <InChI Key>  (395) 
NGDKVECAHOAMBT-UHFFFAOYSA-N

>  <PERCENTSP3>  (395) 
30.43

>  <Link>  (395) 
https://www.chemdiv.com/catalog/screening-compounds/compound-SB71-0182/

>  <MFCDNUMBER>  (395) 
MFCD32249505

>  <CLNUMBER>  (395) 
CM5543

>  <STEREO>  (395) 
ACHIRAL

>  <State>  (395) 
Solid

>  <Similarity score>  (395) 
0.25

$$$$
N-cyclopentyl-5-[(1-methyl-1H-indol-3-yl)methyl]-4,5,6,7-tetrahydropyrazolo[1,5-
     RDKit          2D

 28 32  0  0  0  0  0  0  0  0999 V2000
    1.7028   -0.1229    0.0000 C   0  0  0  0  0  0  0  0  0  0  0  0
    1.7028    0.8775    0.0000 N   0  0  0  0  0  0  0  0  0  0  0  0
   -2.8197    0.6898    0.0000 C   0  0  0  0  0  0  0  0  0  0  0  0
    0.7524    1.1859    0.0000 N   0  0  0  0  0  0  0  0  0  0  0  0
    0.1646    0.3772    0.0000 C   0  0  0  0  0  0  0  0  0  0  0  0
    0.7524   -0.4357    0.0000 C   0  0  0  0  0  0  0  0  0  0  0  0
   -3.3200   -0.8482    0.0000 N   0  0  0  0  0  0  0  0  0  0  0  0
   -2.5113   -0.2604    0.0000 C   0  0  0  0  0  0  0  0  0  0  0  0
    2.5154   -0.7109    0.0000 C   0  0  0  0  0  0  0  0  0  0  0  0
   -3.8202    0.6898    0.0000 C   0  0  0  0  0  0  0  0  0  0  0  0
   -4.1287   -0.2604    0.0000 C   0  0  0  0  0  0  0  0  0  0  0  0
   -1.2359    1.3941    0.0000 N   0  0  0  0  0  0  0  0  0  0  0  0
   -2.2321    1.4985    0.0000 C   0  0  0  0  0  0  0  0  0  0  0  0
   -0.8314    0.4813    0.0000 C   0  0  0  0  0  0  0  0  0  0  0  0
    3.4282   -0.3066    0.0000 N   0  0  0  0  0  0  0  0  0  0  0  0
    0.3479    2.0985    0.0000 C   0  0  0  0  0  0  0  0  0  0  0  0
    2.4113   -1.7071    0.0000 O   0  0  0  0  0  0  0  0  0  0  0  0
   -0.6483    2.2028    0.0000 C   0  0  0  0  0  0  0  0  0  0  0  0
   -3.3200   -1.8488    0.0000 C   0  0  0  0  0  0  0  0  0  0  0  0
    4.2369   -0.8942    0.0000 C   0  0  0  0  0  0  0  0  0  0  0  0
   -4.4871    1.4317    0.0000 C   0  0  0  0  0  0  0  0  0  0  0  0
   -5.1083   -0.4690    0.0000 C   0  0  0  0  0  0  0  0  0  0  0  0
    5.1873   -0.5856    0.0000 C   0  0  0  0  0  0  0  0  0  0  0  0
    4.2369   -1.8944    0.0000 C   0  0  0  0  0  0  0  0  0  0  0  0
   -5.7751    0.2731    0.0000 C   0  0  0  0  0  0  0  0  0  0  0  0
   -5.4667    1.2232    0.0000 C   0  0  0  0  0  0  0  0  0  0  0  0
    5.1873   -2.2028    0.0000 C   0  0  0  0  0  0  0  0  0  0  0  0
    5.7751   -1.3945    0.0000 C   0  0  0  0  0  0  0  0  0  0  0  0
  1  2  2  0
  3 13  1  0
  2  4  1  0
  5  6  2  0
  4  5  1  0
  1  6  1  0
  7  8  1  0
  7 11  1  0
  3  8  2  0
  1  9  1  0
  3 10  1  0
 10 11  2  0
 12 14  1  0
 12 13  1  0
  5 14  1  0
  9 15  1  0
  4 16  1  0
  9 17  2  0
 16 18  1  0
 12 18  1  0
  7 19  1  0
 15 20  1  0
 10 21  1  0
 11 22  1  0
 22 25  2  0
 20 23  1  0
 20 24  1  0
 25 26  1  0
 21 26  2  0
 24 27  1  0
 23 28  1  0
 27 28  1  0
M  END
>  <IDNUMBER>  (396) 
SB71-0704

>  <available>  (396) 
4

>  <H_acceptor>  (396) 
4

>  <H_donor>  (396) 
1

>  <B_rotN>  (396) 
5

>  <N_O>  (396) 
6

>  <logP>  (396) 
2.6279

>  <logD>  (396) 
1.4667

>  <logSw>  (396) 
-2.9637

>  <PSA>  (396) 
44.506

>  <pKa_ma>  (396) 
15.6721

>  <pKa_mb>  (396) 
8.5302

>  <N_Chirals>  (396) 
0

>  <Name>  (396) 
N-cyclopentyl-5-[(1-methyl-1H-indol-3-yl)methyl]-4,5,6,7-tetrahydropyrazolo[1,5-a]pyrazine-2-carboxamide

>  <Smile>  (396) 
Cn1c(cccc2)c2c(CN2Cc3cc(C(NC4CCCC4)=O)nn3CC2)c1

>  <Color>  (396) 
YELLOW

>  <Collection>  (396) 
IC

>  <InChI>  (396) 
InChI=1S/C22H27N5O/c1-25-13-16(19-8-4-5-9-21(19)25)14-26-10-11-27-18(15-26)12-20(24-27)22(28)23-17-6-2-3-7-17/h4-5,8-9,12-13,17H,2-3,6-7,10-11,14-15H2,1H3,(H,23,28)

>  <InChI Key>  (396) 
JVPWTIPNJIQLNW-UHFFFAOYSA-N

>  <PERCENTSP3>  (396) 
45.46

>  <Link>  (396) 
https://www.chemdiv.com/catalog/screening-compounds/compound-SB71-0704/

>  <MFCDNUMBER>  (396) 
MFCD32249522

>  <CLNUMBER>  (396) 
CM5543

>  <STEREO>  (396) 
ACHIRAL

>  <State>  (396) 
Solid

>  <Similarity score>  (396) 
0.25

$$$$
N-(5-fluoro-2-methylphenyl)-4,5,6,7-tetrahydropyrazolo[1,5-a]pyridine-2-carboxam
     RDKit          2D

 20 22  0  0  0  0  0  0  0  0999 V2000
   -0.6145   -0.7980    0.0000 C   0  0  0  0  0  0  0  0  0  0  0  0
   -1.2063    0.0104    0.0000 N   0  0  0  0  0  0  0  0  0  0  0  0
   -2.1522   -0.2980    0.0000 N   0  0  0  0  0  0  0  0  0  0  0  0
   -1.2063   -1.6065    0.0000 C   0  0  0  0  0  0  0  0  0  0  0  0
    0.3854   -0.7980    0.0000 C   0  0  0  0  0  0  0  0  0  0  0  0
   -2.1522   -1.3022    0.0000 C   0  0  0  0  0  0  0  0  0  0  0  0
    0.8855    0.0646    0.0000 N   0  0  0  0  0  0  0  0  0  0  0  0
    1.8942    0.0646    0.0000 C   0  0  0  0  0  0  0  0  0  0  0  0
    2.3899   -0.7980    0.0000 C   0  0  0  0  0  0  0  0  0  0  0  0
    2.3899    0.9397    0.0000 C   0  0  0  0  0  0  0  0  0  0  0  0
    0.8855   -1.6689    0.0000 O   0  0  0  0  0  0  0  0  0  0  0  0
    3.3899    0.9397    0.0000 C   0  0  0  0  0  0  0  0  0  0  0  0
    3.3899   -0.7980    0.0000 C   0  0  0  0  0  0  0  0  0  0  0  0
   -3.0274    0.1979    0.0000 C   0  0  0  0  0  0  0  0  0  0  0  0
    3.8857    0.0646    0.0000 C   0  0  0  0  0  0  0  0  0  0  0  0
    3.8857   -1.6689    0.0000 F   0  0  0  0  0  0  0  0  0  0  0  0
   -3.0274   -1.7981    0.0000 C   0  0  0  0  0  0  0  0  0  0  0  0
    1.8942    1.7981    0.0000 C   0  0  0  0  0  0  0  0  0  0  0  0
   -3.8857   -0.2980    0.0000 C   0  0  0  0  0  0  0  0  0  0  0  0
   -3.8857   -1.3022    0.0000 C   0  0  0  0  0  0  0  0  0  0  0  0
  1  2  2  0
  2  3  1  0
  3  6  1  0
  1  4  1  0
  1  5  1  0
  4  6  2  0
  5  7  1  0
  7  8  1  0
  8  9  1  0
  8 10  2  0
  5 11  2  0
 10 12  1  0
  9 13  2  0
  3 14  1  0
 12 15  2  0
 13 15  1  0
 13 16  1  0
  6 17  1  0
 10 18  1  0
 14 19  1  0
 19 20  1  0
 17 20  1  0
M  END
>  <IDNUMBER>  (397) 
P078-0345

>  <available>  (397) 
3

>  <H_acceptor>  (397) 
3

>  <H_donor>  (397) 
1

>  <B_rotN>  (397) 
3

>  <N_O>  (397) 
4

>  <logP>  (397) 
2.4485

>  <logD>  (397) 
2.4476

>  <logSw>  (397) 
-2.8139

>  <PSA>  (397) 
36.361

>  <pKa_ma>  (397) 
10.0845

>  <pKa_mb>  (397) 
1.0431

>  <N_Chirals>  (397) 
0

>  <Name>  (397) 
N-(5-fluoro-2-methylphenyl)-4,5,6,7-tetrahydropyrazolo[1,5-a]pyridine-2-carboxamide

>  <Smile>  (397) 
Cc(ccc(F)c1)c1NC(c1nn(CCCC2)c2c1)=O

>  <Color>  (397) 
YELLOW

>  <Collection>  (397) 
NC

>  <InChI>  (397) 
InChI=1S/C15H16FN3O/c1-10-5-6-11(16)8-13(10)17-15(20)14-9-12-4-2-3-7-19(12)18-14/h5-6,8-9H,2-4,7H2,1H3,(H,17,20)

>  <InChI Key>  (397) 
HPCKYPJOWNOCQG-UHFFFAOYSA-N

>  <PERCENTSP3>  (397) 
33.33

>  <Link>  (397) 
https://www.chemdiv.com/catalog/screening-compounds/compound-P078-0345/

>  <MFCDNUMBER>  (397) 
MFCD27563267

>  <CLNUMBER>  (397) 
CM0145

>  <STEREO>  (397) 
ACHIRAL

>  <State>  (397) 
Solid

>  <Similarity score>  (397) 
0.25

$$$$
5-[(4-methoxyphenyl)acetyl]-N,N-dimethyl-4,5,6,7-tetrahydropyrazolo[1,5-a]pyrazi
     RDKit          2D

 25 27  0  0  0  0  0  0  0  0999 V2000
    3.0650    1.4273    0.0000 C   0  0  0  0  0  0  0  0  0  0  0  0
    3.4734    0.5105    0.0000 N   0  0  0  0  0  0  0  0  0  0  0  0
    1.8649    0.3438    0.0000 C   0  0  0  0  0  0  0  0  0  0  0  0
    2.7274   -0.1562    0.0000 N   0  0  0  0  0  0  0  0  0  0  0  0
    2.0691    1.3231    0.0000 C   0  0  0  0  0  0  0  0  0  0  0  0
    0.9980   -1.1564    0.0000 N   0  0  0  0  0  0  0  0  0  0  0  0
    3.5651    2.2899    0.0000 C   0  0  0  0  0  0  0  0  0  0  0  0
    0.1314   -1.6566    0.0000 C   0  0  0  0  0  0  0  0  0  0  0  0
    0.9980   -0.1562    0.0000 C   0  0  0  0  0  0  0  0  0  0  0  0
    2.7274   -1.1564    0.0000 C   0  0  0  0  0  0  0  0  0  0  0  0
    4.5653    2.2899    0.0000 N   0  0  0  0  0  0  0  0  0  0  0  0
    1.8649   -1.6566    0.0000 C   0  0  0  0  0  0  0  0  0  0  0  0
   -0.7356   -1.1564    0.0000 C   0  0  0  0  0  0  0  0  0  0  0  0
    3.0650    3.1567    0.0000 O   0  0  0  0  0  0  0  0  0  0  0  0
    0.1314   -2.6565    0.0000 O   0  0  0  0  0  0  0  0  0  0  0  0
   -1.6023   -1.6566    0.0000 C   0  0  0  0  0  0  0  0  0  0  0  0
   -3.3357   -2.6565    0.0000 C   0  0  0  0  0  0  0  0  0  0  0  0
   -1.6023   -2.6565    0.0000 C   0  0  0  0  0  0  0  0  0  0  0  0
   -2.4689   -1.1564    0.0000 C   0  0  0  0  0  0  0  0  0  0  0  0
   -3.3357   -1.6566    0.0000 C   0  0  0  0  0  0  0  0  0  0  0  0
   -2.4689   -3.1567    0.0000 C   0  0  0  0  0  0  0  0  0  0  0  0
   -4.1984   -3.1567    0.0000 O   0  0  0  0  0  0  0  0  0  0  0  0
    5.0651    1.4273    0.0000 C   0  0  0  0  0  0  0  0  0  0  0  0
    5.0651    3.1567    0.0000 C   0  0  0  0  0  0  0  0  0  0  0  0
   -5.0651   -2.6565    0.0000 C   0  0  0  0  0  0  0  0  0  0  0  0
  1  2  2  0
  3  5  2  0
  3  4  1  0
  2  4  1  0
  1  5  1  0
  6  9  1  0
  1  7  1  0
  6  8  1  0
  3  9  1  0
  4 10  1  0
  7 11  1  0
 10 12  1  0
  6 12  1  0
  8 13  1  0
  7 14  2  0
  8 15  2  0
 13 16  1  0
 17 20  1  0
 17 21  2  0
 16 18  2  0
 16 19  1  0
 19 20  2  0
 18 21  1  0
 17 22  1  0
 11 23  1  0
 11 24  1  0
 22 25  1  0
M  END
>  <IDNUMBER>  (398) 
SB71-0095

>  <available>  (398) 
116

>  <H_acceptor>  (398) 
6

>  <H_donor>  (398) 
0

>  <B_rotN>  (398) 
6

>  <N_O>  (398) 
7

>  <logP>  (398) 
0.3961

>  <logD>  (398) 
0.3961

>  <logSw>  (398) 
-1.7386

>  <PSA>  (398) 
53.375

>  <pKa_ma>  (398) 
17.626

>  <pKa_mb>  (398) 
-2.791

>  <N_Chirals>  (398) 
0

>  <Name>  (398) 
5-[(4-methoxyphenyl)acetyl]-N,N-dimethyl-4,5,6,7-tetrahydropyrazolo[1,5-a]pyrazine-2-carboxamide

>  <Smile>  (398) 
CN(C)C(c1nn(CCN(C2)C(Cc(cc3)ccc3OC)=O)c2c1)=O

>  <Color>  (398) 
YELLOW

>  <Collection>  (398) 
IC

>  <InChI>  (398) 
InChI=1S/C18H22N4O3/c1-20(2)18(24)16-11-14-12-21(8-9-22(14)19-16)17(23)10-13-4-6-15(25-3)7-5-13/h4-7,11H,8-10,12H2,1-3H3

>  <InChI Key>  (398) 
CXAYIQJBOBSTCX-UHFFFAOYSA-N

>  <PERCENTSP3>  (398) 
38.89

>  <Link>  (398) 
https://www.chemdiv.com/catalog/screening-compounds/compound-SB71-0095/

>  <MFCDNUMBER>  (398) 
MFCD32249284

>  <CLNUMBER>  (398) 
CM5543

>  <STEREO>  (398) 
ACHIRAL

>  <State>  (398) 
Liquid

>  <Similarity score>  (398) 
0.25

$$$$
N-(2-ethylphenyl)-4,5,6,7-tetrahydropyrazolo[1,5-a]pyridine-2-carboxamide
     RDKit          2D

 20 22  0  0  0  0  0  0  0  0999 V2000
   -0.6146   -0.0021    0.0000 C   0  0  0  0  0  0  0  0  0  0  0  0
   -1.2060   -0.8103    0.0000 N   0  0  0  0  0  0  0  0  0  0  0  0
   -2.1518   -0.4978    0.0000 N   0  0  0  0  0  0  0  0  0  0  0  0
   -1.2060    0.8063    0.0000 C   0  0  0  0  0  0  0  0  0  0  0  0
    0.3855   -0.0021    0.0000 C   0  0  0  0  0  0  0  0  0  0  0  0
   -2.1518    0.4979    0.0000 C   0  0  0  0  0  0  0  0  0  0  0  0
    0.8853   -0.8687    0.0000 N   0  0  0  0  0  0  0  0  0  0  0  0
    1.8894   -0.8687    0.0000 C   0  0  0  0  0  0  0  0  0  0  0  0
    0.8853    0.8645    0.0000 O   0  0  0  0  0  0  0  0  0  0  0  0
    2.3851   -0.0021    0.0000 C   0  0  0  0  0  0  0  0  0  0  0  0
   -3.0269   -1.0061    0.0000 C   0  0  0  0  0  0  0  0  0  0  0  0
   -3.0269    1.0061    0.0000 C   0  0  0  0  0  0  0  0  0  0  0  0
    2.3851   -1.7311    0.0000 C   0  0  0  0  0  0  0  0  0  0  0  0
    1.8894    0.8645    0.0000 C   0  0  0  0  0  0  0  0  0  0  0  0
    3.3893   -0.0021    0.0000 C   0  0  0  0  0  0  0  0  0  0  0  0
   -3.8850   -0.4978    0.0000 C   0  0  0  0  0  0  0  0  0  0  0  0
   -3.8850    0.4979    0.0000 C   0  0  0  0  0  0  0  0  0  0  0  0
    2.3851    1.7311    0.0000 C   0  0  0  0  0  0  0  0  0  0  0  0
    3.3893   -1.7311    0.0000 C   0  0  0  0  0  0  0  0  0  0  0  0
    3.8850   -0.8687    0.0000 C   0  0  0  0  0  0  0  0  0  0  0  0
  1  2  2  0
  2  3  1  0
  3  6  1  0
  1  4  1  0
  1  5  1  0
  4  6  2  0
  5  7  1  0
  7  8  1  0
  5  9  2  0
  8 10  2  0
  3 11  1  0
  6 12  1  0
  8 13  1  0
 10 14  1  0
 10 15  1  0
 11 16  1  0
 16 17  1  0
 12 17  1  0
 14 18  1  0
 13 19  2  0
 19 20  1  0
 15 20  2  0
M  END
>  <IDNUMBER>  (399) 
P078-0372

>  <available>  (399) 
1

>  <H_acceptor>  (399) 
3

>  <H_donor>  (399) 
1

>  <B_rotN>  (399) 
4

>  <N_O>  (399) 
4

>  <logP>  (399) 
3.0258

>  <logD>  (399) 
3.0258

>  <logSw>  (399) 
-3.2834

>  <PSA>  (399) 
36.361

>  <pKa_ma>  (399) 
12.4106

>  <pKa_mb>  (399) 
1.0431

>  <N_Chirals>  (399) 
0

>  <Name>  (399) 
N-(2-ethylphenyl)-4,5,6,7-tetrahydropyrazolo[1,5-a]pyridine-2-carboxamide

>  <Smile>  (399) 
CCc(cccc1)c1NC(c1nn(CCCC2)c2c1)=O

>  <Color>  (399) 
ORANGE

>  <Collection>  (399) 
NC

>  <InChI>  (399) 
InChI=1S/C16H19N3O/c1-2-12-7-3-4-9-14(12)17-16(20)15-11-13-8-5-6-10-19(13)18-15/h3-4,7,9,11H,2,5-6,8,10H2,1H3,(H,17,20)

>  <InChI Key>  (399) 
LWVRNRXWWPNCBJ-UHFFFAOYSA-N

>  <PERCENTSP3>  (399) 
37.5

>  <Link>  (399) 
https://www.chemdiv.com/catalog/screening-compounds/compound-P078-0372/

>  <MFCDNUMBER>  (399) 
MFCD27563272

>  <CLNUMBER>  (399) 
CM0145

>  <STEREO>  (399) 
ACHIRAL

>  <State>  (399) 
Solid

>  <Similarity score>  (399) 
0.25

$$$$
[2-(3,4-dihydroisoquinoline-2(1H)-carbonyl)-6,7-dihydropyrazolo[1,5-a]pyrazin-5(
     RDKit          2D

 31 35  0  0  0  0  0  0  0  0999 V2000
   -1.1338    0.7441    0.0000 C   0  0  0  0  0  0  0  0  0  0  0  0
   -1.5424   -0.1730    0.0000 N   0  0  0  0  0  0  0  0  0  0  0  0
    0.0667   -0.3397    0.0000 C   0  0  0  0  0  0  0  0  0  0  0  0
   -0.7962   -0.8401    0.0000 N   0  0  0  0  0  0  0  0  0  0  0  0
   -0.1418    0.6356    0.0000 C   0  0  0  0  0  0  0  0  0  0  0  0
   -1.6340    1.6069    0.0000 C   0  0  0  0  0  0  0  0  0  0  0  0
    0.9338   -1.8403    0.0000 N   0  0  0  0  0  0  0  0  0  0  0  0
   -2.6344    1.6069    0.0000 N   0  0  0  0  0  0  0  0  0  0  0  0
    1.8009   -2.3407    0.0000 C   0  0  0  0  0  0  0  0  0  0  0  0
    0.9338   -0.8401    0.0000 C   0  0  0  0  0  0  0  0  0  0  0  0
    2.6680   -1.8403    0.0000 C   0  0  0  0  0  0  0  0  0  0  0  0
   -3.1348    2.4740    0.0000 C   0  0  0  0  0  0  0  0  0  0  0  0
   -0.7962   -1.8403    0.0000 C   0  0  0  0  0  0  0  0  0  0  0  0
    3.5349   -0.3397    0.0000 N   0  0  0  0  0  0  0  0  0  0  0  0
   -4.1352    2.4740    0.0000 C   0  0  0  0  0  0  0  0  0  0  0  0
    0.0667   -2.3407    0.0000 C   0  0  0  0  0  0  0  0  0  0  0  0
   -3.1348    0.7441    0.0000 C   0  0  0  0  0  0  0  0  0  0  0  0
    2.6680   -0.8401    0.0000 C   0  0  0  0  0  0  0  0  0  0  0  0
    4.4020   -0.8401    0.0000 C   0  0  0  0  0  0  0  0  0  0  0  0
   -1.1338    2.4740    0.0000 O   0  0  0  0  0  0  0  0  0  0  0  0
    1.8009   -3.3411    0.0000 O   0  0  0  0  0  0  0  0  0  0  0  0
   -4.6354    1.6069    0.0000 C   0  0  0  0  0  0  0  0  0  0  0  0
    3.5349   -2.3407    0.0000 C   0  0  0  0  0  0  0  0  0  0  0  0
   -4.1352    0.7441    0.0000 C   0  0  0  0  0  0  0  0  0  0  0  0
    4.4020   -1.8403    0.0000 C   0  0  0  0  0  0  0  0  0  0  0  0
    5.2648   -0.3397    0.0000 O   0  0  0  0  0  0  0  0  0  0  0  0
   -4.6354    3.3411    0.0000 C   0  0  0  0  0  0  0  0  0  0  0  0
   -5.6358    1.6069    0.0000 C   0  0  0  0  0  0  0  0  0  0  0  0
    6.1319   -0.8401    0.0000 C   0  0  0  0  0  0  0  0  0  0  0  0
   -5.6358    3.3411    0.0000 C   0  0  0  0  0  0  0  0  0  0  0  0
   -6.1319    2.4740    0.0000 C   0  0  0  0  0  0  0  0  0  0  0  0
  1  2  2  0
  3  5  2  0
  3  4  1  0
  2  4  1  0
  1  5  1  0
  1  6  1  0
  7 10  1  0
  6  8  1  0
  7  9  1  0
  3 10  1  0
  9 11  1  0
  8 12  1  0
  4 13  1  0
 14 18  1  0
 14 19  2  0
 12 15  1  0
 13 16  1  0
  7 16  1  0
  8 17  1  0
 11 18  2  0
 19 25  1  0
  6 20  2  0
  9 21  2  0
 22 24  1  0
 15 22  2  0
 11 23  1  0
 17 24  1  0
 23 25  2  0
 19 26  1  0
 15 27  1  0
 22 28  1  0
 26 29  1  0
 27 30  2  0
 28 31  2  0
 30 31  1  0
M  END
>  <IDNUMBER>  (400) 
SB71-0398

>  <available>  (400) 
7

>  <H_acceptor>  (400) 
7

>  <H_donor>  (400) 
0

>  <B_rotN>  (400) 
5

>  <N_O>  (400) 
8

>  <logP>  (400) 
1.8542

>  <logD>  (400) 
1.8542

>  <logSw>  (400) 
-2.2527

>  <PSA>  (400) 
63.25

>  <pKa_ma>  (400) 
25.6071

>  <pKa_mb>  (400) 
0.7412

>  <N_Chirals>  (400) 
0

>  <Name>  (400) 
[2-(3,4-dihydroisoquinoline-2(1H)-carbonyl)-6,7-dihydropyrazolo[1,5-a]pyrazin-5(4H)-yl](6-methoxypyridin-3-yl)methanone

>  <Smile>  (400) 
COc(cc1)ncc1C(N1Cc2cc(C(N(CC3)Cc4c3cccc4)=O)nn2CC1)=O

>  <Color>  (400) 
NOT COLORED

>  <Collection>  (400) 
IC

>  <InChI>  (400) 
InChI=1S/C23H23N5O3/c1-31-21-7-6-17(13-24-21)22(29)27-10-11-28-19(15-27)12-20(25-28)23(30)26-9-8-16-4-2-3-5-18(16)14-26/h2-7,12-13H,8-11,14-15H2,1H3

>  <InChI Key>  (400) 
FYQDMUYLSYICIR-UHFFFAOYSA-N

>  <PERCENTSP3>  (400) 
30.43

>  <Link>  (400) 
https://www.chemdiv.com/catalog/screening-compounds/compound-SB71-0398/

>  <MFCDNUMBER>  (400) 
MFCD32249542

>  <CLNUMBER>  (400) 
CM5543

>  <STEREO>  (400) 
ACHIRAL

>  <State>  (400) 
Solid

>  <Similarity score>  (400) 
0.25

$$$$
2-amino-5,6-dihydro-4H-cyclopenta[b]thiophene-3-carbonitrile
     RDKit          2D

 11 12  0  0  0  0  0  0  0  0999 V2000
    0.6813   -0.0354    0.0000 C   0  0  0  0  0  0  0  0  0  0  0  0
    0.9841   -0.9894    0.0000 C   0  0  0  0  0  0  0  0  0  0  0  0
   -0.3181   -0.0354    0.0000 C   0  0  0  0  0  0  0  0  0  0  0  0
    0.1766   -1.5748    0.0000 S   0  0  0  0  0  0  0  0  0  0  0  0
   -0.6260   -0.9894    0.0000 C   0  0  0  0  0  0  0  0  0  0  0  0
    1.2667    0.7673    0.0000 C   0  0  0  0  0  0  0  0  0  0  0  0
    1.8575    1.5748    0.0000 N   0  0  0  0  0  0  0  0  0  0  0  0
    1.9382   -1.3022    0.0000 N   0  0  0  0  0  0  0  0  0  0  0  0
   -1.1258    0.5552    0.0000 C   0  0  0  0  0  0  0  0  0  0  0  0
   -1.6254   -0.9894    0.0000 C   0  0  0  0  0  0  0  0  0  0  0  0
   -1.9382   -0.0354    0.0000 C   0  0  0  0  0  0  0  0  0  0  0  0
  1  2  2  0
  1  3  1  0
  2  4  1  0
  3  5  2  0
  4  5  1  0
  1  6  1  0
  6  7  3  0
  2  8  1  0
  3  9  1  0
  5 10  1  0
  9 11  1  0
 10 11  1  0
M  END
>  <IDNUMBER>  (401) 
R052-2295

>  <available>  (401) 
1082

>  <H_acceptor>  (401) 
1

>  <H_donor>  (401) 
2

>  <B_rotN>  (401) 
1

>  <N_O>  (401) 
2

>  <logP>  (401) 
1.736

>  <logD>  (401) 
1.736

>  <logSw>  (401) 
-1.8508

>  <PSA>  (401) 
38.857

>  <pKa_ma>  (401) 
15.973

>  <pKa_mb>  (401) 
-1.8136

>  <N_Chirals>  (401) 
0

>  <Name>  (401) 
2-amino-5,6-dihydro-4H-cyclopenta[b]thiophene-3-carbonitrile

>  <Smile>  (401) 
Nc(sc1c2CCC1)c2C#N

>  <Color>  (401) 
ORANGE

>  <Collection>  (401) 
NC

>  <InChI>  (401) 
InChI=1S/C8H8N2S/c9-4-6-5-2-1-3-7(5)11-8(6)10/h1-3,10H2

>  <InChI Key>  (401) 
RILAXFOADRDGPQ-UHFFFAOYSA-N

>  <PERCENTSP3>  (401) 
37.5

>  <Link>  (401) 
https://www.chemdiv.com/catalog/screening-compounds/compound-R052-2295/

>  <MFCDNUMBER>  (401) 
MFCD00121495

>  <STEREO>  (401) 
ACHIRAL

>  <State>  (401) 
Solid

>  <Similarity score>  (401) 
0.21

$$$$
N-(3-cyano-6-methyl-4,5,6,7-tetrahydro-1-benzothiophen-2-yl)-4-[3-(4-methoxyphen
     RDKit          2D

 31 34  0  0  0  0  0  0  0  0999 V2000
    2.5373    2.0664    0.0000 C   0  0  0  0  0  0  0  0  0  0  0  0
    2.7498    1.0665    0.0000 C   0  0  0  0  0  0  0  0  0  0  0  0
    3.7247    0.9666    0.0000 C   0  0  0  0  0  0  0  0  0  0  0  0
    4.1372    1.8915    0.0000 C   0  0  0  0  0  0  0  0  0  0  0  0
    3.3998    2.5415    0.0000 S   0  0  0  0  0  0  0  0  0  0  0  0
   -1.5582   -0.9207    0.0000 N   0  0  0  0  0  0  0  0  0  0  0  0
   -2.1749   -1.7080    0.0000 C   0  0  0  0  0  0  0  0  0  0  0  0
   -1.6083   -2.5415    0.0000 N   0  0  0  0  0  0  0  0  0  0  0  0
    1.6166    2.4665    0.0000 N   0  0  0  0  0  0  0  0  0  0  0  0
    2.0666    0.3165    0.0000 C   0  0  0  0  0  0  0  0  0  0  0  0
   -0.6207   -1.2538    0.0000 C   0  0  0  0  0  0  0  0  0  0  0  0
   -0.6500   -2.2663    0.0000 O   0  0  0  0  0  0  0  0  0  0  0  0
    1.3916   -0.4290    0.0000 N   0  0  0  0  0  0  0  0  0  0  0  0
    4.2996    0.1544    0.0000 C   0  0  0  0  0  0  0  0  0  0  0  0
    0.8166    1.8915    0.0000 C   0  0  0  0  0  0  0  0  0  0  0  0
   -3.1872   -1.6914    0.0000 C   0  0  0  0  0  0  0  0  0  0  0  0
    5.1371    1.9793    0.0000 C   0  0  0  0  0  0  0  0  0  0  0  0
   -0.0750    2.2790    0.0000 O   0  0  0  0  0  0  0  0  0  0  0  0
   -3.7080   -2.5415    0.0000 C   0  0  0  0  0  0  0  0  0  0  0  0
   -3.6705   -0.8040    0.0000 C   0  0  0  0  0  0  0  0  0  0  0  0
    5.2913    0.2415    0.0000 C   0  0  0  0  0  0  0  0  0  0  0  0
   -5.1953   -1.6288    0.0000 C   0  0  0  0  0  0  0  0  0  0  0  0
   -4.6829   -0.7833    0.0000 C   0  0  0  0  0  0  0  0  0  0  0  0
   -4.7204   -2.5206    0.0000 C   0  0  0  0  0  0  0  0  0  0  0  0
    5.7038    1.1585    0.0000 C   0  0  0  0  0  0  0  0  0  0  0  0
    0.1917   -0.6708    0.0000 C   0  0  0  0  0  0  0  0  0  0  0  0
   -6.1871   -1.5913    0.0000 O   0  0  0  0  0  0  0  0  0  0  0  0
    0.9167    0.9165    0.0000 C   0  0  0  0  0  0  0  0  0  0  0  0
    0.1041    0.3291    0.0000 C   0  0  0  0  0  0  0  0  0  0  0  0
   -6.7037   -2.4456    0.0000 C   0  0  0  0  0  0  0  0  0  0  0  0
    6.7037    1.2540    0.0000 C   0  0  0  0  0  0  0  0  0  0  0  0
  1  2  2  0
  2  3  1  0
  4  5  1  0
  3  4  2  0
  1  5  1  0
  6 11  2  0
  6  7  1  0
  8 12  1  0
  7  8  2  0
  1  9  1  0
  2 10  1  0
 11 26  1  0
 11 12  1  0
 10 13  3  0
  3 14  1  0
  9 15  1  0
  7 16  1  0
  4 17  1  0
 15 18  2  0
 16 19  2  0
 16 20  1  0
 14 21  1  0
 22 23  1  0
 20 23  2  0
 19 24  1  0
 22 24  2  0
 17 25  1  0
 21 25  1  0
 26 29  1  0
 22 27  1  0
 15 28  1  0
 28 29  1  0
 27 30  1  0
 25 31  1  0
M  END
>  <IDNUMBER>  (402) 
D321-0807

>  <available>  (402) 
128

>  <H_acceptor>  (402) 
7

>  <H_donor>  (402) 
1

>  <B_rotN>  (402) 
9

>  <N_O>  (402) 
7

>  <logP>  (402) 
4.8665

>  <logD>  (402) 
3.5533

>  <logSw>  (402) 
-4.7326

>  <PSA>  (402) 
78.774

>  <pKa_ma>  (402) 
6.1085

>  <pKa_mb>  (402) 
-4.0588

>  <N_Chirals>  (402) 
1

>  <Name>  (402) 
N-(3-cyano-6-methyl-4,5,6,7-tetrahydro-1-benzothiophen-2-yl)-4-[3-(4-methoxyphenyl)-1,2,4-oxadiazol-5-yl]butanamide

>  <Smile>  (402) 
CC(CC1)Cc2c1c(C#N)c(NC(CCCc1nc(-c(cc3)ccc3OC)no1)=O)s2

>  <Color>  (402) 
ORANGE

>  <Collection>  (402) 
DC

>  <InChI>  (402) 
InChI=1S/C23H24N4O3S/c1-14-6-11-17-18(13-24)23(31-19(17)12-14)25-20(28)4-3-5-21-26-22(27-30-21)15-7-9-16(29-2)10-8-15/h7-10,14H,3-6,11-12H2,1-2H3,(H,25,28)/t14-/m1/s1

>  <InChI Key>  (402) 
XLLNDVBSZBVZLD-CQSZACIVSA-N

>  <PERCENTSP3>  (402) 
39.1

>  <Link>  (402) 
https://www.chemdiv.com/catalog/screening-compounds/compound-D321-0807/

>  <MFCDNUMBER>  (402) 
MFCD09764581

>  <CLNUMBER>  (402) 
CL5000

>  <STEREO>  (402) 
RACEMIC MIXTURE

>  <State>  (402) 
Solid

>  <Similarity score>  (402) 
0.21

$$$$
2-amino-4,5,6,7-tetrahydro-1-benzothiophene-3-carbonitrile
     RDKit          2D

 12 13  0  0  0  0  0  0  0  0999 V2000
    0.5778   -0.0290    0.0000 C   0  0  0  0  0  0  0  0  0  0  0  0
    1.1355   -0.8321    0.0000 C   0  0  0  0  0  0  0  0  0  0  0  0
   -0.3994   -0.3280    0.0000 C   0  0  0  0  0  0  0  0  0  0  0  0
    0.5778   -1.6352    0.0000 S   0  0  0  0  0  0  0  0  0  0  0  0
   -0.3994   -1.3319    0.0000 C   0  0  0  0  0  0  0  0  0  0  0  0
    0.9213    0.9035    0.0000 C   0  0  0  0  0  0  0  0  0  0  0  0
    1.2604    1.8404    0.0000 N   0  0  0  0  0  0  0  0  0  0  0  0
    2.1304   -0.8321    0.0000 N   0  0  0  0  0  0  0  0  0  0  0  0
   -1.2693    0.1718    0.0000 C   0  0  0  0  0  0  0  0  0  0  0  0
   -1.2693   -1.8404    0.0000 C   0  0  0  0  0  0  0  0  0  0  0  0
   -2.1304   -0.3280    0.0000 C   0  0  0  0  0  0  0  0  0  0  0  0
   -2.1304   -1.3319    0.0000 C   0  0  0  0  0  0  0  0  0  0  0  0
  1  2  2  0
  1  3  1  0
  2  4  1  0
  3  5  2  0
  4  5  1  0
  1  6  1  0
  6  7  3  0
  2  8  1  0
  3  9  1  0
  5 10  1  0
  9 11  1  0
 11 12  1  0
 10 12  1  0
M  END
>  <IDNUMBER>  (403) 
0848-0050

>  <available>  (403) 
7

>  <H_acceptor>  (403) 
1

>  <H_donor>  (403) 
2

>  <B_rotN>  (403) 
1

>  <N_O>  (403) 
2

>  <logP>  (403) 
2.1463

>  <logD>  (403) 
2.1463

>  <logSw>  (403) 
-2.0208

>  <PSA>  (403) 
38.492

>  <pKa_ma>  (403) 
15.9936

>  <pKa_mb>  (403) 
-2.0609

>  <N_Chirals>  (403) 
0

>  <Name>  (403) 
2-amino-4,5,6,7-tetrahydro-1-benzothiophene-3-carbonitrile

>  <Smile>  (403) 
Nc(sc1c2CCCC1)c2C#N

>  <Color>  (403) 
ORANGE

>  <Collection>  (403) 
DC

>  <InChI>  (403) 
InChI=1S/C9H10N2S/c10-5-7-6-3-1-2-4-8(6)12-9(7)11/h1-4,11H2

>  <InChI Key>  (403) 
ADHVMGAFAKSNOM-UHFFFAOYSA-N

>  <PERCENTSP3>  (403) 
44.4

>  <Link>  (403) 
https://www.chemdiv.com/catalog/screening-compounds/compound-0848-0050/

>  <MFCDNUMBER>  (403) 
MFCD00128278

>  <STEREO>  (403) 
ACHIRAL

>  <State>  (403) 
Solid

>  <Similarity score>  (403) 
0.21

$$$$
2-amino-5,6,7,8-tetrahydro-4H-cyclohepta[b]thiophene-3-carbonitrile
     RDKit          2D

 13 14  0  0  0  0  0  0  0  0999 V2000
   -0.3355   -0.3963    0.0000 C   0  0  0  0  0  0  0  0  0  0  0  0
    0.1678   -1.2911    0.0000 C   0  0  0  0  0  0  0  0  0  0  0  0
    0.3449    0.3307    0.0000 C   0  0  0  0  0  0  0  0  0  0  0  0
    1.1282   -1.0674    0.0000 S   0  0  0  0  0  0  0  0  0  0  0  0
    1.2400   -0.0794    0.0000 C   0  0  0  0  0  0  0  0  0  0  0  0
   -1.3329   -0.2751    0.0000 C   0  0  0  0  0  0  0  0  0  0  0  0
   -2.3492   -0.1633    0.0000 N   0  0  0  0  0  0  0  0  0  0  0  0
   -0.3355   -2.1207    0.0000 N   0  0  0  0  0  0  0  0  0  0  0  0
    0.1118    1.3097    0.0000 C   0  0  0  0  0  0  0  0  0  0  0  0
    2.1348    0.3683    0.0000 C   0  0  0  0  0  0  0  0  0  0  0  0
    0.7270    2.1207    0.0000 C   0  0  0  0  0  0  0  0  0  0  0  0
    2.3492    1.3097    0.0000 C   0  0  0  0  0  0  0  0  0  0  0  0
    1.7340    2.1207    0.0000 C   0  0  0  0  0  0  0  0  0  0  0  0
  1  2  2  0
  1  3  1  0
  2  4  1  0
  3  5  2  0
  4  5  1  0
  1  6  1  0
  6  7  3  0
  2  8  1  0
  3  9  1  0
  5 10  1  0
  9 11  1  0
 10 12  1  0
 11 13  1  0
 12 13  1  0
M  END
>  <IDNUMBER>  (404) 
R052-0786

>  <available>  (404) 
327

>  <H_acceptor>  (404) 
1

>  <H_donor>  (404) 
2

>  <B_rotN>  (404) 
1

>  <N_O>  (404) 
2

>  <logP>  (404) 
2.6422

>  <logD>  (404) 
2.6422

>  <logSw>  (404) 
-2.7776

>  <PSA>  (404) 
38.822

>  <pKa_ma>  (404) 
15.9936

>  <pKa_mb>  (404) 
-1.0762

>  <N_Chirals>  (404) 
0

>  <Name>  (404) 
2-amino-5,6,7,8-tetrahydro-4H-cyclohepta[b]thiophene-3-carbonitrile

>  <Smile>  (404) 
Nc(sc1c2CCCCC1)c2C#N

>  <Color>  (404) 
ORANGE

>  <Collection>  (404) 
NC

>  <InChI>  (404) 
InChI=1S/C10H12N2S/c11-6-8-7-4-2-1-3-5-9(7)13-10(8)12/h1-5,12H2

>  <InChI Key>  (404) 
GBQACFCEZPKMTA-UHFFFAOYSA-N

>  <PERCENTSP3>  (404) 
50

>  <Link>  (404) 
https://www.chemdiv.com/catalog/screening-compounds/compound-R052-0786/

>  <MFCDNUMBER>  (404) 
MFCD00121496

>  <STEREO>  (404) 
ACHIRAL

>  <State>  (404) 
Solid

>  <Similarity score>  (404) 
0.21

$$$$
2-amino-4,5,6,7,8,9,10,11,12,13-decahydrocyclododeca[b]thiophene-3-carbonitrile
     RDKit          2D

 18 19  0  0  0  0  0  0  0  0999 V2000
    2.1285    0.2218    0.0000 C   0  0  0  0  0  0  0  0  0  0  0  0
    2.1285   -0.7769    0.0000 C   0  0  0  0  0  0  0  0  0  0  0  0
    0.5566    0.2218    0.0000 C   0  0  0  0  0  0  0  0  0  0  0  0
    1.3501   -1.2233    0.0000 S   0  0  0  0  0  0  0  0  0  0  0  0
    0.5566   -0.7527    0.0000 C   0  0  0  0  0  0  0  0  0  0  0  0
    2.9642    0.7457    0.0000 C   0  0  0  0  0  0  0  0  0  0  0  0
    3.8029    1.2687    0.0000 N   0  0  0  0  0  0  0  0  0  0  0  0
    2.9431   -1.2687    0.0000 N   0  0  0  0  0  0  0  0  0  0  0  0
   -0.4118    0.2218    0.0000 C   0  0  0  0  0  0  0  0  0  0  0  0
   -0.4058   -0.7527    0.0000 C   0  0  0  0  0  0  0  0  0  0  0  0
   -1.2505    0.6945    0.0000 C   0  0  0  0  0  0  0  0  0  0  0  0
   -1.2505   -1.2385    0.0000 C   0  0  0  0  0  0  0  0  0  0  0  0
   -3.8029    0.2067    0.0000 C   0  0  0  0  0  0  0  0  0  0  0  0
   -2.9582    0.6945    0.0000 C   0  0  0  0  0  0  0  0  0  0  0  0
   -2.1044    0.2067    0.0000 C   0  0  0  0  0  0  0  0  0  0  0  0
   -2.1044   -0.7527    0.0000 C   0  0  0  0  0  0  0  0  0  0  0  0
   -2.9582   -1.2385    0.0000 C   0  0  0  0  0  0  0  0  0  0  0  0
   -3.8029   -0.7527    0.0000 C   0  0  0  0  0  0  0  0  0  0  0  0
  1  2  2  0
  1  3  1  0
  2  4  1  0
  4  5  1  0
  3  5  2  0
  1  6  1  0
  6  7  3  0
  2  8  1  0
  3  9  1  0
  5 10  1  0
  9 11  1  0
 10 12  1  0
 13 14  1  0
 14 15  1  0
 11 15  1  0
 12 16  1  0
 16 17  1  0
 17 18  1  0
 13 18  1  0
M  END
>  <IDNUMBER>  (405) 
8003-0436

>  <available>  (405) 
24

>  <H_acceptor>  (405) 
1

>  <H_donor>  (405) 
2

>  <B_rotN>  (405) 
1

>  <N_O>  (405) 
2

>  <logP>  (405) 
5.1218

>  <logD>  (405) 
5.1218

>  <logSw>  (405) 
-5.2389

>  <PSA>  (405) 
38.822

>  <pKa_ma>  (405) 
15.9936

>  <pKa_mb>  (405) 
-1.1592

>  <N_Chirals>  (405) 
0

>  <Name>  (405) 
2-amino-4,5,6,7,8,9,10,11,12,13-decahydrocyclododeca[b]thiophene-3-carbonitrile

>  <Smile>  (405) 
Nc(sc1c2CCCCCCCCCC1)c2C#N

>  <Color>  (405) 
ORANGE

>  <Collection>  (405) 
DC

>  <InChI>  (405) 
InChI=1S/C15H22N2S/c16-11-13-12-9-7-5-3-1-2-4-6-8-10-14(12)18-15(13)17/h1-10,17H2

>  <InChI Key>  (405) 
NJKJOVJKMPBQIL-UHFFFAOYSA-N

>  <PERCENTSP3>  (405) 
66.7

>  <Link>  (405) 
https://www.chemdiv.com/catalog/screening-compounds/compound-8003-0436/

>  <MFCDNUMBER>  (405) 
MFCD00742783

>  <STEREO>  (405) 
ACHIRAL

>  <State>  (405) 
Solid

>  <Similarity score>  (405) 
0.21

$$$$
N-(3-cyano-4,5,6,7-tetrahydro-1-benzothiophen-2-yl)-4-(3-phenyl-1,2,4-oxadiazol-
     RDKit          2D

 28 31  0  0  0  0  0  0  0  0999 V2000
    2.2770    2.0584    0.0000 C   0  0  0  0  0  0  0  0  0  0  0  0
    2.4813    1.0708    0.0000 C   0  0  0  0  0  0  0  0  0  0  0  0
   -1.8189   -0.9293    0.0000 N   0  0  0  0  0  0  0  0  0  0  0  0
    3.1313    2.5502    0.0000 S   0  0  0  0  0  0  0  0  0  0  0  0
    3.4689    0.9707    0.0000 C   0  0  0  0  0  0  0  0  0  0  0  0
   -2.4314   -1.7167    0.0000 C   0  0  0  0  0  0  0  0  0  0  0  0
    3.8773    1.8958    0.0000 C   0  0  0  0  0  0  0  0  0  0  0  0
   -1.8688   -2.5502    0.0000 N   0  0  0  0  0  0  0  0  0  0  0  0
    1.3646    2.4626    0.0000 N   0  0  0  0  0  0  0  0  0  0  0  0
    1.8189    0.3209    0.0000 C   0  0  0  0  0  0  0  0  0  0  0  0
   -0.8812   -1.2543    0.0000 C   0  0  0  0  0  0  0  0  0  0  0  0
   -0.9105   -2.2668    0.0000 O   0  0  0  0  0  0  0  0  0  0  0  0
    1.1564   -0.4292    0.0000 N   0  0  0  0  0  0  0  0  0  0  0  0
    0.5520    1.8709    0.0000 C   0  0  0  0  0  0  0  0  0  0  0  0
   -3.4437   -1.6918    0.0000 C   0  0  0  0  0  0  0  0  0  0  0  0
   -0.3313    2.2709    0.0000 O   0  0  0  0  0  0  0  0  0  0  0  0
    4.0439    0.1582    0.0000 C   0  0  0  0  0  0  0  0  0  0  0  0
    4.8690    1.9832    0.0000 C   0  0  0  0  0  0  0  0  0  0  0  0
   -0.0563   -0.6751    0.0000 C   0  0  0  0  0  0  0  0  0  0  0  0
    0.6561    0.9126    0.0000 C   0  0  0  0  0  0  0  0  0  0  0  0
   -0.1564    0.3209    0.0000 C   0  0  0  0  0  0  0  0  0  0  0  0
   -3.9607   -2.5502    0.0000 C   0  0  0  0  0  0  0  0  0  0  0  0
   -3.9230   -0.8125    0.0000 C   0  0  0  0  0  0  0  0  0  0  0  0
    5.0564    0.2583    0.0000 C   0  0  0  0  0  0  0  0  0  0  0  0
    5.4564    1.1709    0.0000 C   0  0  0  0  0  0  0  0  0  0  0  0
   -4.9357   -0.7876    0.0000 C   0  0  0  0  0  0  0  0  0  0  0  0
   -4.9732   -2.5166    0.0000 C   0  0  0  0  0  0  0  0  0  0  0  0
   -5.4564   -1.6293    0.0000 C   0  0  0  0  0  0  0  0  0  0  0  0
  1  2  2  0
  3 11  2  0
  1  4  1  0
  2  5  1  0
  3  6  1  0
  4  7  1  0
  5  7  2  0
  8 12  1  0
  6  8  2  0
  1  9  1  0
  2 10  1  0
 11 19  1  0
 11 12  1  0
 10 13  3  0
  9 14  1  0
  6 15  1  0
 14 16  2  0
  5 17  1  0
  7 18  1  0
 19 21  1  0
 14 20  1  0
 20 21  1  0
 15 22  2  0
 15 23  1  0
 17 24  1  0
 18 25  1  0
 24 25  1  0
 23 26  2  0
 22 27  1  0
 27 28  2  0
 26 28  1  0
M  END
>  <IDNUMBER>  (406) 
D321-0073

>  <available>  (406) 
73

>  <H_acceptor>  (406) 
6

>  <H_donor>  (406) 
1

>  <B_rotN>  (406) 
8

>  <N_O>  (406) 
6

>  <logP>  (406) 
4.3451

>  <logD>  (406) 
3.0319

>  <logSw>  (406) 
-4.5909

>  <PSA>  (406) 
71.23

>  <pKa_ma>  (406) 
6.1085

>  <pKa_mb>  (406) 
-3.8515

>  <N_Chirals>  (406) 
0

>  <Name>  (406) 
N-(3-cyano-4,5,6,7-tetrahydro-1-benzothiophen-2-yl)-4-(3-phenyl-1,2,4-oxadiazol-5-yl)butanamide

>  <Smile>  (406) 
N#Cc1c(NC(CCCc2nc(-c3ccccc3)no2)=O)sc2c1CCCC2

>  <Color>  (406) 
BROWN

>  <Collection>  (406) 
DC

>  <InChI>  (406) 
InChI=1S/C21H20N4O2S/c22-13-16-15-9-4-5-10-17(15)28-21(16)23-18(26)11-6-12-19-24-20(25-27-19)14-7-2-1-3-8-14/h1-3,7-8H,4-6,9-12H2,(H,23,26)

>  <InChI Key>  (406) 
JSCZVXYKOMCNNE-UHFFFAOYSA-N

>  <PERCENTSP3>  (406) 
33.3

>  <Link>  (406) 
https://www.chemdiv.com/catalog/screening-compounds/compound-D321-0073/

>  <MFCDNUMBER>  (406) 
MFCD14819067

>  <CLNUMBER>  (406) 
CL5000

>  <STEREO>  (406) 
ACHIRAL

>  <State>  (406) 
Solid

>  <Similarity score>  (406) 
0.21

$$$$
N-(3-cyano-4,5,6,7-tetrahydro-1-benzothiophen-2-yl)-2-[(4-methylpyrimidin-2-yl)s
     RDKit          2D

 23 25  0  0  0  0  0  0  0  0999 V2000
    1.9102    0.1312    0.0000 C   0  0  0  0  0  0  0  0  0  0  0  0
    2.8311   -0.2729    0.0000 C   0  0  0  0  0  0  0  0  0  0  0  0
    2.0145    1.1312    0.0000 S   0  0  0  0  0  0  0  0  0  0  0  0
    3.4937    0.4646    0.0000 C   0  0  0  0  0  0  0  0  0  0  0  0
    2.9812    1.3438    0.0000 C   0  0  0  0  0  0  0  0  0  0  0  0
    1.0477   -0.3645    0.0000 N   0  0  0  0  0  0  0  0  0  0  0  0
    3.0394   -1.2395    0.0000 C   0  0  0  0  0  0  0  0  0  0  0  0
   -2.4062   -0.3812    0.0000 C   0  0  0  0  0  0  0  0  0  0  0  0
   -3.2731    0.1188    0.0000 N   0  0  0  0  0  0  0  0  0  0  0  0
    3.2518   -2.2188    0.0000 N   0  0  0  0  0  0  0  0  0  0  0  0
    0.1852    0.1188    0.0000 C   0  0  0  0  0  0  0  0  0  0  0  0
   -2.4062   -1.3936    0.0000 N   0  0  0  0  0  0  0  0  0  0  0  0
   -1.5479    0.1188    0.0000 S   0  0  0  0  0  0  0  0  0  0  0  0
    0.1770    1.1147    0.0000 O   0  0  0  0  0  0  0  0  0  0  0  0
   -4.1352   -0.3937    0.0000 C   0  0  0  0  0  0  0  0  0  0  0  0
   -0.6731   -0.3812    0.0000 C   0  0  0  0  0  0  0  0  0  0  0  0
   -3.2731   -1.8895    0.0000 C   0  0  0  0  0  0  0  0  0  0  0  0
    4.4935    0.4813    0.0000 C   0  0  0  0  0  0  0  0  0  0  0  0
   -4.1352   -1.3936    0.0000 C   0  0  0  0  0  0  0  0  0  0  0  0
    3.4812    2.2188    0.0000 C   0  0  0  0  0  0  0  0  0  0  0  0
   -4.9937    0.1021    0.0000 C   0  0  0  0  0  0  0  0  0  0  0  0
    4.9937    1.3438    0.0000 C   0  0  0  0  0  0  0  0  0  0  0  0
    4.4935    2.2188    0.0000 C   0  0  0  0  0  0  0  0  0  0  0  0
  1  2  2  0
  1  3  1  0
  2  4  1  0
  4  5  2  0
  3  5  1  0
  1  6  1  0
  2  7  1  0
  8 13  1  0
  8  9  2  0
  7 10  3  0
  6 11  1  0
  8 12  1  0
 13 16  1  0
 11 14  2  0
  9 15  1  0
 11 16  1  0
 12 17  2  0
  4 18  1  0
 17 19  1  0
 15 19  2  0
  5 20  1  0
 15 21  1  0
 18 22  1  0
 20 23  1  0
 22 23  1  0
M  END
>  <IDNUMBER>  (407) 
IB05-5403

>  <available>  (407) 
50

>  <H_acceptor>  (407) 
6

>  <H_donor>  (407) 
1

>  <B_rotN>  (407) 
6

>  <N_O>  (407) 
5

>  <logP>  (407) 
3.05

>  <logD>  (407) 
2.02

>  <logSw>  (407) 
-3.84

>  <PSA>  (407) 
163.76

>  <pKa_ma>  (407) 
6.41

>  <pKa_mb>  (407) 
1.45

>  <N_Chirals>  (407) 
0

>  <Name>  (407) 
N-(3-cyano-4,5,6,7-tetrahydro-1-benzothiophen-2-yl)-2-[(4-methylpyrimidin-2-yl)sulfanyl]acetamide

>  <Smile>  (407) 
Cc1ccnc(SCC(Nc(sc2c3CCCC2)c3C#N)=O)n1

>  <Color>  (407) 
NOT COLORED

>  <Collection>  (407) 
DC

>  <InChI>  (407) 
InChI=1S/C16H16N4OS2/c1-10-6-7-18-16(19-10)22-9-14(21)20-15-12(8-17)11-4-2-3-5-13(11)23-15/h6-7H,2-5,9H2,1H3,(H,20,21)

>  <InChI Key>  (407) 
JEZSJYMVVWXKKF-UHFFFAOYSA-N

>  <PERCENTSP3>  (407) 
37.5

>  <Link>  (407) 
https://www.chemdiv.com/catalog/screening-compounds/compound-IB05-5403/

>  <STEREO>  (407) 
ACHIRAL

>  <State>  (407) 
Solid

>  <Similarity score>  (407) 
0.21

$$$$
4-[3-(4-chlorophenyl)-1,2,4-oxadiazol-5-yl]-N-(3-cyano-4,5,6,7-tetrahydro-1-benz
     RDKit          2D

 29 32  0  0  0  0  0  0  0  0999 V2000
    2.7760    2.0576    0.0000 C   0  0  0  0  0  0  0  0  0  0  0  0
    2.9926    1.0663    0.0000 C   0  0  0  0  0  0  0  0  0  0  0  0
   -1.3182   -0.9327    0.0000 N   0  0  0  0  0  0  0  0  0  0  0  0
    3.6298    2.5447    0.0000 S   0  0  0  0  0  0  0  0  0  0  0  0
    3.9671    0.9705    0.0000 C   0  0  0  0  0  0  0  0  0  0  0  0
   -1.9346   -1.7201    0.0000 C   0  0  0  0  0  0  0  0  0  0  0  0
    4.3794    1.8909    0.0000 C   0  0  0  0  0  0  0  0  0  0  0  0
   -1.3683   -2.5447    0.0000 N   0  0  0  0  0  0  0  0  0  0  0  0
    1.8556    2.4575    0.0000 N   0  0  0  0  0  0  0  0  0  0  0  0
    2.3136    0.3081    0.0000 C   0  0  0  0  0  0  0  0  0  0  0  0
   -0.3812   -1.2578    0.0000 C   0  0  0  0  0  0  0  0  0  0  0  0
   -0.4062   -2.2699    0.0000 O   0  0  0  0  0  0  0  0  0  0  0  0
    1.6555   -0.4331    0.0000 N   0  0  0  0  0  0  0  0  0  0  0  0
    1.0559    1.8784    0.0000 C   0  0  0  0  0  0  0  0  0  0  0  0
   -2.9466   -1.6952    0.0000 C   0  0  0  0  0  0  0  0  0  0  0  0
    0.1645    2.2699    0.0000 O   0  0  0  0  0  0  0  0  0  0  0  0
   -3.4672   -2.5447    0.0000 C   0  0  0  0  0  0  0  0  0  0  0  0
   -3.4298   -0.8081    0.0000 C   0  0  0  0  0  0  0  0  0  0  0  0
   -4.9542   -1.6408    0.0000 C   0  0  0  0  0  0  0  0  0  0  0  0
    4.5419    0.1541    0.0000 C   0  0  0  0  0  0  0  0  0  0  0  0
   -4.4420   -0.7911    0.0000 C   0  0  0  0  0  0  0  0  0  0  0  0
   -4.4794   -2.5323    0.0000 C   0  0  0  0  0  0  0  0  0  0  0  0
    5.3749    1.9826    0.0000 C   0  0  0  0  0  0  0  0  0  0  0  0
   -5.9539   -1.5951    0.0000 Cl  0  0  0  0  0  0  0  0  0  0  0  0
    0.4395   -0.6787    0.0000 C   0  0  0  0  0  0  0  0  0  0  0  0
    1.1640    0.9082    0.0000 C   0  0  0  0  0  0  0  0  0  0  0  0
    0.3436    0.3208    0.0000 C   0  0  0  0  0  0  0  0  0  0  0  0
    5.5416    0.2582    0.0000 C   0  0  0  0  0  0  0  0  0  0  0  0
    5.9539    1.1662    0.0000 C   0  0  0  0  0  0  0  0  0  0  0  0
  1  2  2  0
  3 11  2  0
  1  4  1  0
  2  5  1  0
  3  6  1  0
  4  7  1  0
  5  7  2  0
  8 12  1  0
  6  8  2  0
  1  9  1  0
  2 10  1  0
 11 25  1  0
 11 12  1  0
 10 13  3  0
  9 14  1  0
  6 15  1  0
 14 16  2  0
 15 17  2  0
 15 18  1  0
 19 21  1  0
  5 20  1  0
 18 21  2  0
 17 22  1  0
 19 22  2  0
  7 23  1  0
 19 24  1  0
 25 27  1  0
 14 26  1  0
 26 27  1  0
 20 28  1  0
 23 29  1  0
 28 29  1  0
M  END
>  <IDNUMBER>  (408) 
D321-0411

>  <available>  (408) 
131

>  <H_acceptor>  (408) 
6

>  <H_donor>  (408) 
1

>  <B_rotN>  (408) 
8

>  <N_O>  (408) 
6

>  <logP>  (408) 
5.0449

>  <logD>  (408) 
3.7317

>  <logSw>  (408) 
-5.5402

>  <PSA>  (408) 
71.23

>  <pKa_ma>  (408) 
6.1085

>  <pKa_mb>  (408) 
-3.8515

>  <N_Chirals>  (408) 
0

>  <Name>  (408) 
4-[3-(4-chlorophenyl)-1,2,4-oxadiazol-5-yl]-N-(3-cyano-4,5,6,7-tetrahydro-1-benzothiophen-2-yl)butanamide

>  <Smile>  (408) 
N#Cc1c(NC(CCCc2nc(-c(cc3)ccc3Cl)no2)=O)sc2c1CCCC2

>  <Color>  (408) 
NOT COLORED

>  <Collection>  (408) 
DC

>  <InChI>  (408) 
InChI=1S/C21H19ClN4O2S/c22-14-10-8-13(9-11-14)20-25-19(28-26-20)7-3-6-18(27)24-21-16(12-23)15-4-1-2-5-17(15)29-21/h8-11H,1-7H2,(H,24,27)

>  <InChI Key>  (408) 
RLKNCKNRMYVAGU-UHFFFAOYSA-N

>  <PERCENTSP3>  (408) 
33.3

>  <Link>  (408) 
https://www.chemdiv.com/catalog/screening-compounds/compound-D321-0411/

>  <MFCDNUMBER>  (408) 
MFCD14819087

>  <CLNUMBER>  (408) 
CL5000

>  <STEREO>  (408) 
ACHIRAL

>  <State>  (408) 
Solid

>  <Similarity score>  (408) 
0.21

$$$$
N-(3-cyano-5,6,7,8-tetrahydro-4H-cyclohepta[b]thiophen-2-yl)-2-[(4-methylpyrimid
     RDKit          2D

 24 26  0  0  0  0  0  0  0  0999 V2000
    1.8143   -0.0229    0.0000 C   0  0  0  0  0  0  0  0  0  0  0  0
    2.7307   -0.4394    0.0000 C   0  0  0  0  0  0  0  0  0  0  0  0
    1.9184    0.9562    0.0000 S   0  0  0  0  0  0  0  0  0  0  0  0
    3.3973    0.3104    0.0000 C   0  0  0  0  0  0  0  0  0  0  0  0
    2.8973    1.1644    0.0000 C   0  0  0  0  0  0  0  0  0  0  0  0
    0.9435   -0.5229    0.0000 N   0  0  0  0  0  0  0  0  0  0  0  0
    2.9390   -1.4101    0.0000 C   0  0  0  0  0  0  0  0  0  0  0  0
   -2.5223   -0.5229    0.0000 C   0  0  0  0  0  0  0  0  0  0  0  0
   -3.3931   -0.0229    0.0000 N   0  0  0  0  0  0  0  0  0  0  0  0
    3.1347   -2.3932    0.0000 N   0  0  0  0  0  0  0  0  0  0  0  0
    0.0771   -0.0229    0.0000 C   0  0  0  0  0  0  0  0  0  0  0  0
   -2.5223   -1.5268    0.0000 N   0  0  0  0  0  0  0  0  0  0  0  0
   -1.6559   -0.0229    0.0000 S   0  0  0  0  0  0  0  0  0  0  0  0
    0.0771    0.9562    0.0000 O   0  0  0  0  0  0  0  0  0  0  0  0
   -4.2638   -0.5229    0.0000 C   0  0  0  0  0  0  0  0  0  0  0  0
   -0.7936   -0.5229    0.0000 C   0  0  0  0  0  0  0  0  0  0  0  0
   -3.3931   -2.0267    0.0000 C   0  0  0  0  0  0  0  0  0  0  0  0
    4.3845    0.1563    0.0000 C   0  0  0  0  0  0  0  0  0  0  0  0
   -4.2638   -1.5268    0.0000 C   0  0  0  0  0  0  0  0  0  0  0  0
    3.2640    2.1018    0.0000 C   0  0  0  0  0  0  0  0  0  0  0  0
   -5.1261   -0.0229    0.0000 C   0  0  0  0  0  0  0  0  0  0  0  0
    5.1261    0.8352    0.0000 C   0  0  0  0  0  0  0  0  0  0  0  0
    4.2221    2.3932    0.0000 C   0  0  0  0  0  0  0  0  0  0  0  0
    5.0511    1.8351    0.0000 C   0  0  0  0  0  0  0  0  0  0  0  0
  1  2  2  0
  1  3  1  0
  2  4  1  0
  4  5  2  0
  3  5  1  0
  1  6  1  0
  2  7  1  0
  8 13  1  0
  8  9  1  0
  7 10  3  0
  6 11  1  0
  8 12  2  0
 13 16  1  0
 11 14  2  0
  9 15  2  0
 11 16  1  0
 12 17  1  0
  4 18  1  0
 17 19  2  0
 15 19  1  0
  5 20  1  0
 15 21  1  0
 18 22  1  0
 22 24  1  0
 20 23  1  0
 23 24  1  0
M  END
>  <IDNUMBER>  (409) 
Y206-0447

>  <available>  (409) 
12

>  <H_acceptor>  (409) 
6

>  <H_donor>  (409) 
1

>  <B_rotN>  (409) 
6

>  <N_O>  (409) 
5

>  <logP>  (409) 
3.5509

>  <logD>  (409) 
2.5181

>  <logSw>  (409) 
-3.8866

>  <PSA>  (409) 
57.75

>  <pKa_ma>  (409) 
6.4095

>  <pKa_mb>  (409) 
0.036

>  <N_Chirals>  (409) 
0

>  <Name>  (409) 
N-(3-cyano-5,6,7,8-tetrahydro-4H-cyclohepta[b]thiophen-2-yl)-2-[(4-methylpyrimidin-2-yl)sulfanyl]acetamide

>  <Smile>  (409) 
Cc1ccnc(SCC(Nc(sc2c3CCCCC2)c3C#N)=O)n1

>  <Color>  (409) 
BROWN

>  <Collection>  (409) 
DC

>  <InChI>  (409) 
InChI=1S/C17H18N4OS2/c1-11-7-8-19-17(20-11)23-10-15(22)21-16-13(9-18)12-5-3-2-4-6-14(12)24-16/h7-8H,2-6,10H2,1H3,(H,21,22)

>  <InChI Key>  (409) 
XFJHMWAIDNSWDH-UHFFFAOYSA-N

>  <PERCENTSP3>  (409) 
41.18

>  <Link>  (409) 
https://www.chemdiv.com/catalog/screening-compounds/compound-Y206-0447/

>  <MFCDNUMBER>  (409) 
MFCD06157225

>  <STEREO>  (409) 
ACHIRAL

>  <State>  (409) 
Solid

>  <Similarity score>  (409) 
0.21

$$$$
N-(3-cyano-6-methyl-4,5,6,7-tetrahydro-1-benzothiophen-2-yl)-4-(3-phenyl-1,2,4-o
     RDKit          2D

 29 32  0  0  0  0  0  0  0  0999 V2000
    1.7771    2.0606    0.0000 C   0  0  0  0  0  0  0  0  0  0  0  0
    1.9897    1.0688    0.0000 C   0  0  0  0  0  0  0  0  0  0  0  0
    2.9690    0.9605    0.0000 C   0  0  0  0  0  0  0  0  0  0  0  0
    3.3897    1.8814    0.0000 C   0  0  0  0  0  0  0  0  0  0  0  0
    2.6440    2.5440    0.0000 S   0  0  0  0  0  0  0  0  0  0  0  0
   -2.3188   -0.9272    0.0000 N   0  0  0  0  0  0  0  0  0  0  0  0
   -2.9230   -1.7189    0.0000 C   0  0  0  0  0  0  0  0  0  0  0  0
   -2.3607   -2.5440    0.0000 N   0  0  0  0  0  0  0  0  0  0  0  0
    0.8646    2.4688    0.0000 N   0  0  0  0  0  0  0  0  0  0  0  0
    1.3188    0.3105    0.0000 C   0  0  0  0  0  0  0  0  0  0  0  0
   -1.3814   -1.2438    0.0000 C   0  0  0  0  0  0  0  0  0  0  0  0
   -1.4104   -2.2564    0.0000 O   0  0  0  0  0  0  0  0  0  0  0  0
    0.6396   -0.4272    0.0000 N   0  0  0  0  0  0  0  0  0  0  0  0
    3.5440    0.1562    0.0000 C   0  0  0  0  0  0  0  0  0  0  0  0
    0.0562    1.8814    0.0000 C   0  0  0  0  0  0  0  0  0  0  0  0
    4.3815    1.9689    0.0000 C   0  0  0  0  0  0  0  0  0  0  0  0
   -3.9357   -1.6813    0.0000 C   0  0  0  0  0  0  0  0  0  0  0  0
   -0.8311    2.2689    0.0000 O   0  0  0  0  0  0  0  0  0  0  0  0
    4.5397    0.2357    0.0000 C   0  0  0  0  0  0  0  0  0  0  0  0
    4.9565    1.1563    0.0000 C   0  0  0  0  0  0  0  0  0  0  0  0
   -0.5562   -0.6688    0.0000 C   0  0  0  0  0  0  0  0  0  0  0  0
    0.1562    0.9186    0.0000 C   0  0  0  0  0  0  0  0  0  0  0  0
   -0.6563    0.3230    0.0000 C   0  0  0  0  0  0  0  0  0  0  0  0
   -4.4690   -2.5440    0.0000 C   0  0  0  0  0  0  0  0  0  0  0  0
   -4.4191   -0.8064    0.0000 C   0  0  0  0  0  0  0  0  0  0  0  0
    5.9566    1.2438    0.0000 C   0  0  0  0  0  0  0  0  0  0  0  0
   -5.4732   -2.5187    0.0000 C   0  0  0  0  0  0  0  0  0  0  0  0
   -5.4315   -0.7812    0.0000 C   0  0  0  0  0  0  0  0  0  0  0  0
   -5.9566   -1.6271    0.0000 C   0  0  0  0  0  0  0  0  0  0  0  0
  1  2  2  0
  2  3  1  0
  4  5  1  0
  3  4  2  0
  1  5  1  0
  6 11  2  0
  6  7  1  0
  8 12  1  0
  7  8  2  0
  1  9  1  0
  2 10  1  0
 11 21  1  0
 11 12  1  0
 10 13  3  0
  3 14  1  0
  9 15  1  0
  4 16  1  0
  7 17  1  0
 15 18  2  0
 14 19  1  0
 16 20  1  0
 19 20  1  0
 21 23  1  0
 15 22  1  0
 22 23  1  0
 17 24  2  0
 17 25  1  0
 20 26  1  0
 24 27  1  0
 27 29  2  0
 25 28  2  0
 28 29  1  0
M  END
>  <IDNUMBER>  (410) 
D321-0131

>  <available>  (410) 
150

>  <H_acceptor>  (410) 
6

>  <H_donor>  (410) 
1

>  <B_rotN>  (410) 
8

>  <N_O>  (410) 
6

>  <logP>  (410) 
4.7791

>  <logD>  (410) 
3.4659

>  <logSw>  (410) 
-4.7143

>  <PSA>  (410) 
71.23

>  <pKa_ma>  (410) 
6.1085

>  <pKa_mb>  (410) 
-3.8515

>  <N_Chirals>  (410) 
1

>  <Name>  (410) 
N-(3-cyano-6-methyl-4,5,6,7-tetrahydro-1-benzothiophen-2-yl)-4-(3-phenyl-1,2,4-oxadiazol-5-yl)butanamide

>  <Smile>  (410) 
CC(CC1)Cc2c1c(C#N)c(NC(CCCc1nc(-c3ccccc3)no1)=O)s2

>  <Color>  (410) 
ORANGE

>  <Collection>  (410) 
DC

>  <InChI>  (410) 
InChI=1S/C22H22N4O2S/c1-14-10-11-16-17(13-23)22(29-18(16)12-14)24-19(27)8-5-9-20-25-21(26-28-20)15-6-3-2-4-7-15/h2-4,6-7,14H,5,8-12H2,1H3,(H,24,27)/t14-/m1/s1

>  <InChI Key>  (410) 
NLKYBZFYKWKHNJ-CQSZACIVSA-N

>  <PERCENTSP3>  (410) 
36.4

>  <Link>  (410) 
https://www.chemdiv.com/catalog/screening-compounds/compound-D321-0131/

>  <MFCDNUMBER>  (410) 
MFCD14819072

>  <CLNUMBER>  (410) 
CL5000

>  <STEREO>  (410) 
RACEMIC MIXTURE

>  <State>  (410) 
Solid

>  <Similarity score>  (410) 
0.21

$$$$
4-[3-(4-chlorophenyl)-1,2,4-oxadiazol-5-yl]-N-(3-cyano-6-methyl-4,5,6,7-tetrahyd
     RDKit          2D

 30 33  0  0  0  0  0  0  0  0999 V2000
    2.2786    2.0660    0.0000 C   0  0  0  0  0  0  0  0  0  0  0  0
    2.4911    1.0662    0.0000 C   0  0  0  0  0  0  0  0  0  0  0  0
    3.4657    0.9664    0.0000 C   0  0  0  0  0  0  0  0  0  0  0  0
    3.8781    1.8912    0.0000 C   0  0  0  0  0  0  0  0  0  0  0  0
    3.1367    2.5410    0.0000 S   0  0  0  0  0  0  0  0  0  0  0  0
   -1.8203   -0.9207    0.0000 N   0  0  0  0  0  0  0  0  0  0  0  0
   -2.4327   -1.7080    0.0000 C   0  0  0  0  0  0  0  0  0  0  0  0
   -1.8620   -2.5410    0.0000 N   0  0  0  0  0  0  0  0  0  0  0  0
    1.3538    2.4659    0.0000 N   0  0  0  0  0  0  0  0  0  0  0  0
    1.8038    0.3166    0.0000 C   0  0  0  0  0  0  0  0  0  0  0  0
   -0.8831   -1.2540    0.0000 C   0  0  0  0  0  0  0  0  0  0  0  0
   -0.9080   -2.2661    0.0000 O   0  0  0  0  0  0  0  0  0  0  0  0
    1.1288   -0.4291    0.0000 N   0  0  0  0  0  0  0  0  0  0  0  0
    4.0407    0.1540    0.0000 C   0  0  0  0  0  0  0  0  0  0  0  0
    0.5540    1.8912    0.0000 C   0  0  0  0  0  0  0  0  0  0  0  0
   -3.4448   -1.6913    0.0000 C   0  0  0  0  0  0  0  0  0  0  0  0
    4.8737    1.9785    0.0000 C   0  0  0  0  0  0  0  0  0  0  0  0
   -0.3333    2.2786    0.0000 O   0  0  0  0  0  0  0  0  0  0  0  0
   -3.9614   -2.5410    0.0000 C   0  0  0  0  0  0  0  0  0  0  0  0
   -3.9322   -0.8040    0.0000 C   0  0  0  0  0  0  0  0  0  0  0  0
    5.0361    0.2415    0.0000 C   0  0  0  0  0  0  0  0  0  0  0  0
   -5.4569   -1.6287    0.0000 C   0  0  0  0  0  0  0  0  0  0  0  0
   -4.9445   -0.7833    0.0000 C   0  0  0  0  0  0  0  0  0  0  0  0
   -4.9737   -2.5203    0.0000 C   0  0  0  0  0  0  0  0  0  0  0  0
    5.4487    1.1580    0.0000 C   0  0  0  0  0  0  0  0  0  0  0  0
   -6.4400   -1.5913    0.0000 Cl  0  0  0  0  0  0  0  0  0  0  0  0
   -0.0624   -0.6708    0.0000 C   0  0  0  0  0  0  0  0  0  0  0  0
    0.6623    0.9163    0.0000 C   0  0  0  0  0  0  0  0  0  0  0  0
   -0.1582    0.3290    0.0000 C   0  0  0  0  0  0  0  0  0  0  0  0
    6.4400    1.2538    0.0000 C   0  0  0  0  0  0  0  0  0  0  0  0
  1  2  2  0
  2  3  1  0
  4  5  1  0
  3  4  2  0
  1  5  1  0
  6 11  2  0
  6  7  1  0
  8 12  1  0
  7  8  2  0
  1  9  1  0
  2 10  1  0
 11 27  1  0
 11 12  1  0
 10 13  3  0
  3 14  1  0
  9 15  1  0
  7 16  1  0
  4 17  1  0
 15 18  2  0
 16 19  2  0
 16 20  1  0
 14 21  1  0
 22 23  1  0
 20 23  2  0
 19 24  1  0
 22 24  2  0
 17 25  1  0
 21 25  1  0
 22 26  1  0
 27 29  1  0
 15 28  1  0
 28 29  1  0
 25 30  1  0
M  END
>  <IDNUMBER>  (411) 
D321-0469

>  <available>  (411) 
97

>  <H_acceptor>  (411) 
6

>  <H_donor>  (411) 
1

>  <B_rotN>  (411) 
8

>  <N_O>  (411) 
6

>  <logP>  (411) 
5.4789

>  <logD>  (411) 
4.1657

>  <logSw>  (411) 
-6.1582

>  <PSA>  (411) 
71.23

>  <pKa_ma>  (411) 
6.1085

>  <pKa_mb>  (411) 
-3.8515

>  <N_Chirals>  (411) 
1

>  <Name>  (411) 
4-[3-(4-chlorophenyl)-1,2,4-oxadiazol-5-yl]-N-(3-cyano-6-methyl-4,5,6,7-tetrahydro-1-benzothiophen-2-yl)butanamide

>  <Smile>  (411) 
CC(CC1)Cc2c1c(C#N)c(NC(CCCc1nc(-c(cc3)ccc3Cl)no1)=O)s2

>  <Color>  (411) 
NOT COLORED

>  <Collection>  (411) 
DC

>  <InChI>  (411) 
InChI=1S/C22H21ClN4O2S/c1-13-5-10-16-17(12-24)22(30-18(16)11-13)25-19(28)3-2-4-20-26-21(27-29-20)14-6-8-15(23)9-7-14/h6-9,13H,2-5,10-11H2,1H3,(H,25,28)/t13-/m1/s1

>  <InChI Key>  (411) 
WEKULDGCPFUSPF-CYBMUJFWSA-N

>  <PERCENTSP3>  (411) 
36.4

>  <Link>  (411) 
https://www.chemdiv.com/catalog/screening-compounds/compound-D321-0469/

>  <MFCDNUMBER>  (411) 
MFCD14819089

>  <CLNUMBER>  (411) 
CL5000

>  <STEREO>  (411) 
RACEMIC MIXTURE

>  <State>  (411) 
Solid

>  <Similarity score>  (411) 
0.20

$$$$
2-({3-fluoro-3-[3-(pyridin-4-yl)-1,2,4-oxadiazol-5-yl]piperidin-1-yl}methyl)-6-m
     RDKit          2D

 27 30  0  0  0  0  0  0  0  0999 V2000
   -0.1395    2.2389    0.0000 N   0  0  0  0  0  0  0  0  0  0  0  0
    0.8444    2.3955    0.0000 C   0  0  0  0  0  0  0  0  0  0  0  0
   -0.5907    3.1320    0.0000 C   0  0  0  0  0  0  0  0  0  0  0  0
    1.5528    1.6906    0.0000 C   0  0  0  0  0  0  0  0  0  0  0  0
    0.1051    3.8338    0.0000 N   0  0  0  0  0  0  0  0  0  0  0  0
    0.9980    3.3763    0.0000 O   0  0  0  0  0  0  0  0  0  0  0  0
    3.0567    0.8256    0.0000 N   0  0  0  0  0  0  0  0  0  0  0  0
    3.5549   -1.7751    0.0000 N   0  0  0  0  0  0  0  0  0  0  0  0
    2.0510    0.8256    0.0000 C   0  0  0  0  0  0  0  0  0  0  0  0
    3.0567   -2.6431    0.0000 C   0  0  0  0  0  0  0  0  0  0  0  0
   -1.5776    3.2790    0.0000 C   0  0  0  0  0  0  0  0  0  0  0  0
    3.0567   -0.9104    0.0000 C   0  0  0  0  0  0  0  0  0  0  0  0
    3.5549   -0.0454    0.0000 C   0  0  0  0  0  0  0  0  0  0  0  0
    1.1671    0.7598    0.0000 F   0  0  0  0  0  0  0  0  0  0  0  0
   -3.5549    3.5988    0.0000 N   0  0  0  0  0  0  0  0  0  0  0  0
    2.0510    2.5554    0.0000 C   0  0  0  0  0  0  0  0  0  0  0  0
    3.5549   -3.5081    0.0000 O   0  0  0  0  0  0  0  0  0  0  0  0
    3.5549    1.6906    0.0000 C   0  0  0  0  0  0  0  0  0  0  0  0
    3.0567    2.5554    0.0000 C   0  0  0  0  0  0  0  0  0  0  0  0
    1.5528   -1.7751    0.0000 C   0  0  0  0  0  0  0  0  0  0  0  0
    2.0510   -2.6431    0.0000 C   0  0  0  0  0  0  0  0  0  0  0  0
   -3.1977    2.6587    0.0000 C   0  0  0  0  0  0  0  0  0  0  0  0
   -2.9250    4.3728    0.0000 C   0  0  0  0  0  0  0  0  0  0  0  0
    2.0510   -0.9104    0.0000 C   0  0  0  0  0  0  0  0  0  0  0  0
   -1.9381    4.2192    0.0000 C   0  0  0  0  0  0  0  0  0  0  0  0
   -2.2076    2.5116    0.0000 C   0  0  0  0  0  0  0  0  0  0  0  0
    3.0567   -4.3728    0.0000 C   0  0  0  0  0  0  0  0  0  0  0  0
  1  2  2  0
  1  3  1  0
  2  4  1  0
  3  5  2  0
  5  6  1  0
  2  6  1  0
  7  9  1  0
  8 12  2  0
  4  9  1  0
  8 10  1  0
  3 11  1  0
 12 13  1  0
  7 13  1  0
  4 14  1  0
 15 22  1  0
 15 23  2  0
  4 16  1  0
 10 17  1  0
 18 19  1  0
  7 18  1  0
 16 19  1  0
 20 24  2  0
 20 21  1  0
 10 21  2  0
 22 26  2  0
 23 25  1  0
 12 24  1  0
 11 25  2  0
 11 26  1  0
 17 27  1  0
M  END
>  <IDNUMBER>  (412) 
SA92-0282

>  <available>  (412) 
35

>  <H_acceptor>  (412) 
7

>  <H_donor>  (412) 
0

>  <B_rotN>  (412) 
5

>  <N_O>  (412) 
7

>  <logP>  (412) 
2.8635

>  <logD>  (412) 
2.5807

>  <logSw>  (412) 
-2.837

>  <PSA>  (412) 
61.294

>  <pKa_ma>  (412) 
26.9519

>  <pKa_mb>  (412) 
7.3627

>  <N_Chirals>  (412) 
1

>  <Name>  (412) 
2-({3-fluoro-3-[3-(pyridin-4-yl)-1,2,4-oxadiazol-5-yl]piperidin-1-yl}methyl)-6-methoxypyridine

>  <Smile>  (412) 
COc1cccc(CN(CCC2)CC2(c2nc(-c3ccncc3)no2)F)n1

>  <Color>  (412) 
BROWN

>  <Collection>  (412) 
IC

>  <InChI>  (412) 
InChI=1S/C19H20FN5O2/c1-26-16-5-2-4-15(22-16)12-25-11-3-8-19(20,13-25)18-23-17(24-27-18)14-6-9-21-10-7-14/h2,4-7,9-10H,3,8,11-13H2,1H3/t19-/m0/s1

>  <InChI Key>  (412) 
GCMWKYPPKPEIQH-IBGZPJMESA-N

>  <PERCENTSP3>  (412) 
36.84

>  <Link>  (412) 
https://www.chemdiv.com/catalog/screening-compounds/compound-SA92-0282/

>  <MFCDNUMBER>  (412) 
MFCD32242463

>  <CLNUMBER>  (412) 
CM4899

>  <STEREO>  (412) 
RACEMIC MIXTURE

>  <State>  (412) 
Oil

>  <Similarity score>  (412) 
0.20

$$$$
2-amino-6-methyl-4,5,6,7-tetrahydro-1-benzothiophene-3-carbonitrile
     RDKit          2D

 13 14  0  0  0  0  0  0  0  0999 V2000
    1.1928    0.2240    0.0000 C   0  0  0  0  0  0  0  0  0  0  0  0
    1.1928   -0.7084    0.0000 C   0  0  0  0  0  0  0  0  0  0  0  0
   -0.4331    0.2240    0.0000 C   0  0  0  0  0  0  0  0  0  0  0  0
   -0.4331   -0.7084    0.0000 C   0  0  0  0  0  0  0  0  0  0  0  0
    0.3787   -1.1700    0.0000 S   0  0  0  0  0  0  0  0  0  0  0  0
    2.0543    0.7163    0.0000 C   0  0  0  0  0  0  0  0  0  0  0  0
    2.9181    1.2102    0.0000 N   0  0  0  0  0  0  0  0  0  0  0  0
   -1.2449    0.6761    0.0000 C   0  0  0  0  0  0  0  0  0  0  0  0
   -1.2449   -1.1700    0.0000 C   0  0  0  0  0  0  0  0  0  0  0  0
    2.0543   -1.2102    0.0000 N   0  0  0  0  0  0  0  0  0  0  0  0
   -2.0567    0.2240    0.0000 C   0  0  0  0  0  0  0  0  0  0  0  0
   -2.0567   -0.7084    0.0000 C   0  0  0  0  0  0  0  0  0  0  0  0
   -2.9181   -1.2102    0.0000 C   0  0  0  0  0  0  0  0  0  0  0  0
  1  2  2  0
  1  3  1  0
  3  4  2  0
  4  5  1  0
  2  5  1  0
  1  6  1  0
  6  7  3  0
  3  8  1  0
  4  9  1  0
  9 12  1  0
  2 10  1  0
  8 11  1  0
 11 12  1  0
 12 13  1  0
M  END
>  <IDNUMBER>  (413) 
8002-2657

>  <available>  (413) 
19

>  <H_acceptor>  (413) 
1

>  <H_donor>  (413) 
2

>  <B_rotN>  (413) 
1

>  <N_O>  (413) 
2

>  <logP>  (413) 
2.5802

>  <logD>  (413) 
2.5802

>  <logSw>  (413) 
-2.7257

>  <PSA>  (413) 
38.492

>  <pKa_ma>  (413) 
15.9936

>  <pKa_mb>  (413) 
-2.1439

>  <N_Chirals>  (413) 
1

>  <Name>  (413) 
2-amino-6-methyl-4,5,6,7-tetrahydro-1-benzothiophene-3-carbonitrile

>  <Smile>  (413) 
CC(CC1)Cc2c1c(C#N)c(N)s2

>  <Color>  (413) 
NOT COLORED

>  <Collection>  (413) 
DC

>  <InChI>  (413) 
InChI=1S/C10H12N2S/c1-6-2-3-7-8(5-11)10(12)13-9(7)4-6/h6H,2-4,12H2,1H3/t6-/m1/s1

>  <InChI Key>  (413) 
VDMBPDMXBJUYMB-ZCFIWIBFSA-N

>  <PERCENTSP3>  (413) 
50

>  <Link>  (413) 
https://www.chemdiv.com/catalog/screening-compounds/compound-8002-2657/

>  <MFCDNUMBER>  (413) 
MFCD00128282

>  <STEREO>  (413) 
RACEMIC MIXTURE

>  <State>  (413) 
Solid

>  <Similarity score>  (413) 
0.20

$$$$
2-amino-7-methoxy-4,5-dihydronaphtho[2,1-b]thiophene-1-carbonitrile
     RDKit          2D

 18 20  0  0  0  0  0  0  0  0999 V2000
    1.8553    0.0355    0.0000 C   0  0  0  0  0  0  0  0  0  0  0  0
    0.9640   -0.4268    0.0000 C   0  0  0  0  0  0  0  0  0  0  0  0
    2.5632   -0.6642    0.0000 C   0  0  0  0  0  0  0  0  0  0  0  0
    1.1348   -1.4180    0.0000 C   0  0  0  0  0  0  0  0  0  0  0  0
    2.1426   -1.5428    0.0000 S   0  0  0  0  0  0  0  0  0  0  0  0
    0.0439   -0.1103    0.0000 C   0  0  0  0  0  0  0  0  0  0  0  0
    1.9802    1.0349    0.0000 C   0  0  0  0  0  0  0  0  0  0  0  0
   -0.7267   -0.7559    0.0000 C   0  0  0  0  0  0  0  0  0  0  0  0
    2.1176    2.0550    0.0000 N   0  0  0  0  0  0  0  0  0  0  0  0
   -0.1270    0.8724    0.0000 C   0  0  0  0  0  0  0  0  0  0  0  0
    0.3645   -2.0550    0.0000 C   0  0  0  0  0  0  0  0  0  0  0  0
   -1.6637   -0.4102    0.0000 C   0  0  0  0  0  0  0  0  0  0  0  0
   -0.5558   -1.7178    0.0000 C   0  0  0  0  0  0  0  0  0  0  0  0
    3.5709   -0.4976    0.0000 N   0  0  0  0  0  0  0  0  0  0  0  0
   -1.8426    0.5644    0.0000 C   0  0  0  0  0  0  0  0  0  0  0  0
   -1.0556    1.2097    0.0000 C   0  0  0  0  0  0  0  0  0  0  0  0
   -2.8088    0.9099    0.0000 O   0  0  0  0  0  0  0  0  0  0  0  0
   -3.5709    0.2728    0.0000 C   0  0  0  0  0  0  0  0  0  0  0  0
  1  2  1  0
  1  3  2  0
  2  4  2  0
  4  5  1  0
  3  5  1  0
  2  6  1  0
  1  7  1  0
  6  8  1  0
  7  9  3  0
  6 10  2  0
  4 11  1  0
  8 12  2  0
 12 15  1  0
  8 13  1  0
 11 13  1  0
  3 14  1  0
 15 16  2  0
 10 16  1  0
 15 17  1  0
 17 18  1  0
M  END
>  <IDNUMBER>  (414) 
Y203-3906

>  <available>  (414) 
14

>  <H_acceptor>  (414) 
2

>  <H_donor>  (414) 
2

>  <B_rotN>  (414) 
2

>  <N_O>  (414) 
3

>  <logP>  (414) 
3.1388

>  <logD>  (414) 
3.1388

>  <logSw>  (414) 
-3.3986

>  <PSA>  (414) 
45.764

>  <pKa_ma>  (414) 
19.2967

>  <pKa_mb>  (414) 
-4.5006

>  <N_Chirals>  (414) 
0

>  <Name>  (414) 
2-amino-7-methoxy-4,5-dihydronaphtho[2,1-b]thiophene-1-carbonitrile

>  <Smile>  (414) 
COc(cc1)cc(CC2)c1-c1c2sc(N)c1C#N

>  <Color>  (414) 
BROWN

>  <Collection>  (414) 
DC

>  <InChI>  (414) 
InChI=1S/C14H12N2OS/c1-17-9-3-4-10-8(6-9)2-5-12-13(10)11(7-15)14(16)18-12/h3-4,6H,2,5,16H2,1H3

>  <InChI Key>  (414) 
DARFGQSXUDRHIP-UHFFFAOYSA-N

>  <PERCENTSP3>  (414) 
21.43

>  <Link>  (414) 
https://www.chemdiv.com/catalog/screening-compounds/compound-Y203-3906/

>  <MFCDNUMBER>  (414) 
MFCD02853930

>  <STEREO>  (414) 
ACHIRAL

>  <State>  (414) 
Solid

>  <Similarity score>  (414) 
0.20

$$$$
4-[3-(2-chlorophenyl)-1,2,4-oxadiazol-5-yl]-N-(3-cyano-6-methyl-4,5,6,7-tetrahyd
     RDKit          2D

 30 33  0  0  0  0  0  0  0  0999 V2000
    1.7822    2.0654    0.0000 C   0  0  0  0  0  0  0  0  0  0  0  0
    1.9947    1.0661    0.0000 C   0  0  0  0  0  0  0  0  0  0  0  0
   -2.9272   -1.7074    0.0000 C   0  0  0  0  0  0  0  0  0  0  0  0
    2.9691    0.9660    0.0000 C   0  0  0  0  0  0  0  0  0  0  0  0
    3.3813    1.8906    0.0000 C   0  0  0  0  0  0  0  0  0  0  0  0
   -2.3151   -0.9203    0.0000 N   0  0  0  0  0  0  0  0  0  0  0  0
    2.6442    2.5401    0.0000 S   0  0  0  0  0  0  0  0  0  0  0  0
   -2.3567   -2.5401    0.0000 N   0  0  0  0  0  0  0  0  0  0  0  0
   -3.9394   -1.6907    0.0000 C   0  0  0  0  0  0  0  0  0  0  0  0
    0.8580    2.4652    0.0000 N   0  0  0  0  0  0  0  0  0  0  0  0
    1.3160    0.3165    0.0000 C   0  0  0  0  0  0  0  0  0  0  0  0
   -1.3701   -1.2535    0.0000 C   0  0  0  0  0  0  0  0  0  0  0  0
   -1.4032   -2.2653    0.0000 O   0  0  0  0  0  0  0  0  0  0  0  0
    0.6330   -0.4290    0.0000 N   0  0  0  0  0  0  0  0  0  0  0  0
    3.5437    0.1540    0.0000 C   0  0  0  0  0  0  0  0  0  0  0  0
    0.0584    1.8906    0.0000 C   0  0  0  0  0  0  0  0  0  0  0  0
    4.3806    1.9780    0.0000 C   0  0  0  0  0  0  0  0  0  0  0  0
   -4.4180   -0.8039    0.0000 C   0  0  0  0  0  0  0  0  0  0  0  0
   -0.8284    2.2777    0.0000 O   0  0  0  0  0  0  0  0  0  0  0  0
    4.5389    0.2414    0.0000 C   0  0  0  0  0  0  0  0  0  0  0  0
   -3.9018    0.0459    0.0000 Cl  0  0  0  0  0  0  0  0  0  0  0  0
    4.9513    1.1575    0.0000 C   0  0  0  0  0  0  0  0  0  0  0  0
   -4.4638   -2.5401    0.0000 C   0  0  0  0  0  0  0  0  0  0  0  0
   -0.5580   -0.6705    0.0000 C   0  0  0  0  0  0  0  0  0  0  0  0
    0.1666    0.9160    0.0000 C   0  0  0  0  0  0  0  0  0  0  0  0
   -0.6454    0.3289    0.0000 C   0  0  0  0  0  0  0  0  0  0  0  0
   -5.4300   -0.7829    0.0000 C   0  0  0  0  0  0  0  0  0  0  0  0
    5.9504    1.2535    0.0000 C   0  0  0  0  0  0  0  0  0  0  0  0
   -5.4675   -2.5193    0.0000 C   0  0  0  0  0  0  0  0  0  0  0  0
   -5.9504   -1.6282    0.0000 C   0  0  0  0  0  0  0  0  0  0  0  0
  1  2  2  0
  3  6  1  0
  2  4  1  0
  5  7  1  0
  4  5  2  0
  6 12  2  0
  1  7  1  0
  8 13  1  0
  3  8  2  0
  3  9  1  0
  1 10  1  0
  2 11  1  0
 12 24  1  0
 12 13  1  0
 11 14  3  0
  4 15  1  0
 10 16  1  0
  5 17  1  0
  9 18  1  0
 16 19  2  0
 15 20  1  0
 18 21  1  0
 17 22  1  0
 20 22  1  0
  9 23  2  0
 24 26  1  0
 16 25  1  0
 25 26  1  0
 18 27  2  0
 27 30  1  0
 22 28  1  0
 23 29  1  0
 29 30  2  0
M  END
>  <IDNUMBER>  (415) 
D321-0300

>  <available>  (415) 
275

>  <H_acceptor>  (415) 
6

>  <H_donor>  (415) 
1

>  <B_rotN>  (415) 
8

>  <N_O>  (415) 
6

>  <logP>  (415) 
5.0503

>  <logD>  (415) 
3.7371

>  <logSw>  (415) 
-5.1567

>  <PSA>  (415) 
71.23

>  <pKa_ma>  (415) 
6.1085

>  <pKa_mb>  (415) 
-3.8515

>  <N_Chirals>  (415) 
1

>  <Name>  (415) 
4-[3-(2-chlorophenyl)-1,2,4-oxadiazol-5-yl]-N-(3-cyano-6-methyl-4,5,6,7-tetrahydro-1-benzothiophen-2-yl)butanamide

>  <Smile>  (415) 
CC(CC1)Cc2c1c(C#N)c(NC(CCCc1nc(-c(cccc3)c3Cl)no1)=O)s2

>  <Color>  (415) 
BROWN

>  <Collection>  (415) 
DC

>  <InChI>  (415) 
InChI=1S/C22H21ClN4O2S/c1-13-9-10-14-16(12-24)22(30-18(14)11-13)25-19(28)7-4-8-20-26-21(27-29-20)15-5-2-3-6-17(15)23/h2-3,5-6,13H,4,7-11H2,1H3,(H,25,28)/t13-/m1/s1

>  <InChI Key>  (415) 
JEIZBYACTGUTQR-CYBMUJFWSA-N

>  <PERCENTSP3>  (415) 
36.4

>  <Link>  (415) 
https://www.chemdiv.com/catalog/screening-compounds/compound-D321-0300/

>  <MFCDNUMBER>  (415) 
MFCD09764499

>  <CLNUMBER>  (415) 
CL5000

>  <STEREO>  (415) 
RACEMIC MIXTURE

>  <State>  (415) 
Solid

>  <Similarity score>  (415) 
0.20

$$$$
2-({3-fluoro-3-[3-(pyridin-3-yl)-1,2,4-oxadiazol-5-yl]piperidin-1-yl}methyl)-6-m
     RDKit          2D

 27 30  0  0  0  0  0  0  0  0999 V2000
    0.0958   -1.3056    0.0000 N   0  0  0  0  0  0  0  0  0  0  0  0
    0.4539   -2.2427    0.0000 C   0  0  0  0  0  0  0  0  0  0  0  0
   -0.9037   -1.3639    0.0000 C   0  0  0  0  0  0  0  0  0  0  0  0
    1.4202   -2.5010    0.0000 C   0  0  0  0  0  0  0  0  0  0  0  0
   -1.1661   -2.3302    0.0000 N   0  0  0  0  0  0  0  0  0  0  0  0
   -0.3207   -2.8674    0.0000 O   0  0  0  0  0  0  0  0  0  0  0  0
    2.2822   -1.0058    0.0000 N   0  0  0  0  0  0  0  0  0  0  0  0
   -1.5326   -0.5810    0.0000 C   0  0  0  0  0  0  0  0  0  0  0  0
    1.4202    1.4973    0.0000 N   0  0  0  0  0  0  0  0  0  0  0  0
    1.4202   -1.5056    0.0000 C   0  0  0  0  0  0  0  0  0  0  0  0
    0.5539    1.9928    0.0000 C   0  0  0  0  0  0  0  0  0  0  0  0
    1.4202    0.4934    0.0000 C   0  0  0  0  0  0  0  0  0  0  0  0
   -3.1527    0.0354    0.0000 N   0  0  0  0  0  0  0  0  0  0  0  0
    2.2822   -0.0062    0.0000 C   0  0  0  0  0  0  0  0  0  0  0  0
    1.5451   -3.4921    0.0000 F   0  0  0  0  0  0  0  0  0  0  0  0
    2.2822   -3.0007    0.0000 C   0  0  0  0  0  0  0  0  0  0  0  0
   -2.5195   -0.7434    0.0000 C   0  0  0  0  0  0  0  0  0  0  0  0
    0.5539    2.9923    0.0000 O   0  0  0  0  0  0  0  0  0  0  0  0
    3.1527   -1.5056    0.0000 C   0  0  0  0  0  0  0  0  0  0  0  0
   -1.1786    0.3478    0.0000 C   0  0  0  0  0  0  0  0  0  0  0  0
    3.1527   -2.5010    0.0000 C   0  0  0  0  0  0  0  0  0  0  0  0
   -0.3166    0.4934    0.0000 C   0  0  0  0  0  0  0  0  0  0  0  0
   -0.3166    1.4973    0.0000 C   0  0  0  0  0  0  0  0  0  0  0  0
   -2.7903    0.9683    0.0000 C   0  0  0  0  0  0  0  0  0  0  0  0
    0.5539   -0.0062    0.0000 C   0  0  0  0  0  0  0  0  0  0  0  0
   -0.3166    3.4921    0.0000 C   0  0  0  0  0  0  0  0  0  0  0  0
   -1.8033    1.1224    0.0000 C   0  0  0  0  0  0  0  0  0  0  0  0
  1  2  2  0
  1  3  1  0
  2  4  1  0
  3  5  2  0
  5  6  1  0
  2  6  1  0
  7 10  1  0
  7 19  1  0
  3  8  1  0
  9 12  2  0
  4 10  1  0
  9 11  1  0
 11 23  2  0
 12 14  1  0
 13 17  2  0
 13 24  1  0
  7 14  1  0
  4 15  1  0
  4 16  1  0
  8 17  1  0
 11 18  1  0
 19 21  1  0
  8 20  2  0
 16 21  1  0
 22 25  2  0
 22 23  1  0
 24 27  2  0
 12 25  1  0
 18 26  1  0
 20 27  1  0
M  END
>  <IDNUMBER>  (416) 
SA92-0603

>  <available>  (416) 
65

>  <H_acceptor>  (416) 
7

>  <H_donor>  (416) 
0

>  <B_rotN>  (416) 
5

>  <N_O>  (416) 
7

>  <logP>  (416) 
2.6319

>  <logD>  (416) 
1.9932

>  <logSw>  (416) 
-2.3518

>  <PSA>  (416) 
61.383

>  <pKa_ma>  (416) 
26.9519

>  <pKa_mb>  (416) 
7.9253

>  <N_Chirals>  (416) 
1

>  <Name>  (416) 
2-({3-fluoro-3-[3-(pyridin-3-yl)-1,2,4-oxadiazol-5-yl]piperidin-1-yl}methyl)-6-methoxypyridine

>  <Smile>  (416) 
COc1cccc(CN(CCC2)CC2(c2nc(-c3cnccc3)no2)F)n1

>  <Color>  (416) 
BROWN

>  <Collection>  (416) 
IC

>  <InChI>  (416) 
InChI=1S/C19H20FN5O2/c1-26-16-7-2-6-15(22-16)12-25-10-4-8-19(20,13-25)18-23-17(24-27-18)14-5-3-9-21-11-14/h2-3,5-7,9,11H,4,8,10,12-13H2,1H3/t19-/m0/s1

>  <InChI Key>  (416) 
UCLWADBLORRJDC-IBGZPJMESA-N

>  <PERCENTSP3>  (416) 
36.84

>  <Link>  (416) 
https://www.chemdiv.com/catalog/screening-compounds/compound-SA92-0603/

>  <MFCDNUMBER>  (416) 
MFCD32243092

>  <CLNUMBER>  (416) 
CM4899

>  <STEREO>  (416) 
RACEMIC MIXTURE

>  <State>  (416) 
Liquid

>  <Similarity score>  (416) 
0.20

$$$$
2-amino-6-tert-butyl-4,5,6,7-tetrahydro-1-benzothiophene-3-carbonitrile
     RDKit          2D

 16 17  0  0  0  0  0  0  0  0999 V2000
    1.4271    0.4072    0.0000 C   0  0  0  0  0  0  0  0  0  0  0  0
    1.9993   -0.4100    0.0000 C   0  0  0  0  0  0  0  0  0  0  0  0
    0.4664   -0.9057    0.0000 C   0  0  0  0  0  0  0  0  0  0  0  0
    0.4664    0.1106    0.0000 C   0  0  0  0  0  0  0  0  0  0  0  0
    1.4271   -1.2203    0.0000 S   0  0  0  0  0  0  0  0  0  0  0  0
    1.7528    1.3386    0.0000 C   0  0  0  0  0  0  0  0  0  0  0  0
   -0.3996   -1.4208    0.0000 C   0  0  0  0  0  0  0  0  0  0  0  0
    2.0786    2.2687    0.0000 N   0  0  0  0  0  0  0  0  0  0  0  0
   -0.3996    0.6063    0.0000 C   0  0  0  0  0  0  0  0  0  0  0  0
   -1.2655   -0.9057    0.0000 C   0  0  0  0  0  0  0  0  0  0  0  0
   -2.1343   -1.4027    0.0000 C   0  0  0  0  0  0  0  0  0  0  0  0
    2.9934   -0.4100    0.0000 N   0  0  0  0  0  0  0  0  0  0  0  0
   -1.2655    0.1106    0.0000 C   0  0  0  0  0  0  0  0  0  0  0  0
   -2.9934   -1.8831    0.0000 C   0  0  0  0  0  0  0  0  0  0  0  0
   -1.6372   -2.2687    0.0000 C   0  0  0  0  0  0  0  0  0  0  0  0
   -2.6313   -0.5340    0.0000 C   0  0  0  0  0  0  0  0  0  0  0  0
  1  2  2  0
  3  4  2  0
  3  5  1  0
  1  4  1  0
  2  5  1  0
  1  6  1  0
  3  7  1  0
  6  8  3  0
  4  9  1  0
 10 13  1  0
 10 11  1  0
  7 10  1  0
 11 14  1  0
  2 12  1  0
  9 13  1  0
 11 15  1  0
 11 16  1  0
M  END
>  <IDNUMBER>  (417) 
8010-3876

>  <available>  (417) 
13

>  <H_acceptor>  (417) 
1

>  <H_donor>  (417) 
2

>  <B_rotN>  (417) 
2

>  <N_O>  (417) 
2

>  <logP>  (417) 
3.7035

>  <logD>  (417) 
3.7035

>  <logSw>  (417) 
-4.2816

>  <PSA>  (417) 
38.492

>  <pKa_ma>  (417) 
15.9936

>  <pKa_mb>  (417) 
-2.1439

>  <N_Chirals>  (417) 
1

>  <Name>  (417) 
2-amino-6-tert-butyl-4,5,6,7-tetrahydro-1-benzothiophene-3-carbonitrile

>  <Smile>  (417) 
CC(C)(C)C(CC1)Cc2c1c(C#N)c(N)s2

>  <Color>  (417) 
NOT COLORED

>  <Collection>  (417) 
DC

>  <InChI>  (417) 
InChI=1S/C13H18N2S/c1-13(2,3)8-4-5-9-10(7-14)12(15)16-11(9)6-8/h8H,4-6,15H2,1-3H3/t8-/m1/s1

>  <InChI Key>  (417) 
QDIYAWBTKKYATE-MRVPVSSYSA-N

>  <PERCENTSP3>  (417) 
61.5

>  <Link>  (417) 
https://www.chemdiv.com/catalog/screening-compounds/compound-8010-3876/

>  <MFCDNUMBER>  (417) 
MFCD00128283

>  <STEREO>  (417) 
RACEMIC MIXTURE

>  <State>  (417) 
Solid

>  <Similarity score>  (417) 
0.20

$$$$
N-(3-cyano-6-methyl-4,5,6,7-tetrahydro-1-benzothiophen-2-yl)-2-[(4-methylpyrimid
     RDKit          2D

 24 26  0  0  0  0  0  0  0  0999 V2000
    1.9234   -0.2854    0.0000 C   0  0  0  0  0  0  0  0  0  0  0  0
    2.8402   -0.6898    0.0000 C   0  0  0  0  0  0  0  0  0  0  0  0
    3.5071    0.0602    0.0000 C   0  0  0  0  0  0  0  0  0  0  0  0
    3.0111    0.9148    0.0000 C   0  0  0  0  0  0  0  0  0  0  0  0
    2.0276    0.7104    0.0000 S   0  0  0  0  0  0  0  0  0  0  0  0
    1.0564   -0.7856    0.0000 N   0  0  0  0  0  0  0  0  0  0  0  0
    3.0403   -1.6650    0.0000 C   0  0  0  0  0  0  0  0  0  0  0  0
   -2.4069   -0.7856    0.0000 C   0  0  0  0  0  0  0  0  0  0  0  0
   -3.2737   -0.2854    0.0000 N   0  0  0  0  0  0  0  0  0  0  0  0
    3.2529   -2.6485    0.0000 N   0  0  0  0  0  0  0  0  0  0  0  0
    0.1937   -0.2854    0.0000 C   0  0  0  0  0  0  0  0  0  0  0  0
    4.5115    0.0602    0.0000 C   0  0  0  0  0  0  0  0  0  0  0  0
   -2.4069   -1.7817    0.0000 N   0  0  0  0  0  0  0  0  0  0  0  0
    3.5071    1.7816    0.0000 C   0  0  0  0  0  0  0  0  0  0  0  0
   -1.5401   -0.2854    0.0000 S   0  0  0  0  0  0  0  0  0  0  0  0
    0.1937    0.7272    0.0000 O   0  0  0  0  0  0  0  0  0  0  0  0
   -4.1364   -0.7856    0.0000 C   0  0  0  0  0  0  0  0  0  0  0  0
   -0.6732   -0.7856    0.0000 C   0  0  0  0  0  0  0  0  0  0  0  0
   -3.2737   -2.2819    0.0000 C   0  0  0  0  0  0  0  0  0  0  0  0
    5.0075    0.9148    0.0000 C   0  0  0  0  0  0  0  0  0  0  0  0
   -4.1364   -1.7817    0.0000 C   0  0  0  0  0  0  0  0  0  0  0  0
    4.5115    1.7816    0.0000 C   0  0  0  0  0  0  0  0  0  0  0  0
   -5.0075   -0.2854    0.0000 C   0  0  0  0  0  0  0  0  0  0  0  0
    5.0075    2.6485    0.0000 C   0  0  0  0  0  0  0  0  0  0  0  0
  1  2  2  0
  2  3  1  0
  4  5  1  0
  3  4  2  0
  1  5  1  0
  1  6  1  0
  2  7  1  0
  8 15  1  0
  8  9  1  0
  7 10  3  0
  6 11  1  0
  3 12  1  0
  8 13  2  0
  4 14  1  0
 15 18  1  0
 11 16  2  0
  9 17  2  0
 11 18  1  0
 13 19  1  0
 12 20  1  0
 19 21  2  0
 17 21  1  0
 14 22  1  0
 20 22  1  0
 17 23  1  0
 22 24  1  0
M  END
>  <IDNUMBER>  (418) 
Y205-9572

>  <available>  (418) 
15

>  <H_acceptor>  (418) 
6

>  <H_donor>  (418) 
1

>  <B_rotN>  (418) 
6

>  <N_O>  (418) 
5

>  <logP>  (418) 
3.4889

>  <logD>  (418) 
2.4562

>  <logSw>  (418) 
-3.9517

>  <PSA>  (418) 
57.419

>  <pKa_ma>  (418) 
6.4095

>  <pKa_mb>  (418) 
0.036

>  <N_Chirals>  (418) 
1

>  <Name>  (418) 
N-(3-cyano-6-methyl-4,5,6,7-tetrahydro-1-benzothiophen-2-yl)-2-[(4-methylpyrimidin-2-yl)sulfanyl]acetamide

>  <Smile>  (418) 
CC(CC1)Cc2c1c(C#N)c(NC(CSc1nc(C)ccn1)=O)s2

>  <Color>  (418) 
YELLOW

>  <Collection>  (418) 
DC

>  <InChI>  (418) 
InChI=1S/C17H18N4OS2/c1-10-3-4-12-13(8-18)16(24-14(12)7-10)21-15(22)9-23-17-19-6-5-11(2)20-17/h5-6,10H,3-4,7,9H2,1-2H3,(H,21,22)/t10-/m1/s1

>  <InChI Key>  (418) 
GQRWEEVSTZMFDM-SNVBAGLBSA-N

>  <PERCENTSP3>  (418) 
41.18

>  <Link>  (418) 
https://www.chemdiv.com/catalog/screening-compounds/compound-Y205-9572/

>  <MFCDNUMBER>  (418) 
MFCD07048720

>  <STEREO>  (418) 
RACEMIC MIXTURE

>  <State>  (418) 
Solid

>  <Similarity score>  (418) 
0.20

$$$$
2-amino-6-ethyl-4,5,6,7-tetrahydro-1-benzothiophene-3-carbonitrile
     RDKit          2D

 14 15  0  0  0  0  0  0  0  0999 V2000
    1.2479   -0.1146    0.0000 C   0  0  0  0  0  0  0  0  0  0  0  0
    0.9189   -1.0647    0.0000 C   0  0  0  0  0  0  0  0  0  0  0  0
    0.4271    0.4772    0.0000 C   0  0  0  0  0  0  0  0  0  0  0  0
   -0.3604   -0.1146    0.0000 C   0  0  0  0  0  0  0  0  0  0  0  0
   -0.0646   -1.0647    0.0000 S   0  0  0  0  0  0  0  0  0  0  0  0
    2.1856    0.1812    0.0000 C   0  0  0  0  0  0  0  0  0  0  0  0
    3.1233    0.4772    0.0000 N   0  0  0  0  0  0  0  0  0  0  0  0
    0.3271    1.4606    0.0000 C   0  0  0  0  0  0  0  0  0  0  0  0
   -1.2813    0.3146    0.0000 C   0  0  0  0  0  0  0  0  0  0  0  0
    1.5440   -1.8898    0.0000 N   0  0  0  0  0  0  0  0  0  0  0  0
   -0.5605    1.8898    0.0000 C   0  0  0  0  0  0  0  0  0  0  0  0
   -1.4148    1.2980    0.0000 C   0  0  0  0  0  0  0  0  0  0  0  0
   -2.3357    1.6606    0.0000 C   0  0  0  0  0  0  0  0  0  0  0  0
   -3.1233    1.0355    0.0000 C   0  0  0  0  0  0  0  0  0  0  0  0
  1  2  2  0
  1  3  1  0
  3  4  2  0
  4  5  1  0
  2  5  1  0
  1  6  1  0
  6  7  3  0
  3  8  1  0
  4  9  1  0
  9 12  1  0
  2 10  1  0
  8 11  1  0
 11 12  1  0
 12 13  1  0
 13 14  1  0
M  END
>  <IDNUMBER>  (419) 
Y503-0029

>  <available>  (419) 
19

>  <H_acceptor>  (419) 
1

>  <H_donor>  (419) 
2

>  <B_rotN>  (419) 
2

>  <N_O>  (419) 
2

>  <logP>  (419) 
3.1257

>  <logD>  (419) 
3.1257

>  <logSw>  (419) 
-3.2209

>  <PSA>  (419) 
38.492

>  <pKa_ma>  (419) 
15.9936

>  <pKa_mb>  (419) 
-2.1439

>  <N_Chirals>  (419) 
1

>  <Name>  (419) 
2-amino-6-ethyl-4,5,6,7-tetrahydro-1-benzothiophene-3-carbonitrile

>  <Smile>  (419) 
CCC(CC1)Cc2c1c(C#N)c(N)s2

>  <Color>  (419) 
ORANGE

>  <Collection>  (419) 
DC

>  <InChI>  (419) 
InChI=1S/C11H14N2S/c1-2-7-3-4-8-9(6-12)11(13)14-10(8)5-7/h7H,2-5,13H2,1H3/t7-/m1/s1

>  <InChI Key>  (419) 
UJSSIVVJQQNBCO-SSDOTTSWSA-N

>  <PERCENTSP3>  (419) 
54.55

>  <Link>  (419) 
https://www.chemdiv.com/catalog/screening-compounds/compound-Y503-0029/

>  <MFCDNUMBER>  (419) 
MFCD01114964

>  <STEREO>  (419) 
RACEMIC MIXTURE

>  <State>  (419) 
Solid

>  <Similarity score>  (419) 
0.20

$$$$
2-{[3-fluoro-3-(3-phenyl-1,2,4-oxadiazol-5-yl)piperidin-1-yl]methyl}-6-methoxypy
     RDKit          2D

 27 30  0  0  0  0  0  0  0  0999 V2000
    0.1362    2.2426    0.0000 N   0  0  0  0  0  0  0  0  0  0  0  0
   -0.8566    2.3994    0.0000 C   0  0  0  0  0  0  0  0  0  0  0  0
    0.5905    3.1356    0.0000 C   0  0  0  0  0  0  0  0  0  0  0  0
   -1.5551    1.6946    0.0000 C   0  0  0  0  0  0  0  0  0  0  0  0
   -0.1176    3.8371    0.0000 N   0  0  0  0  0  0  0  0  0  0  0  0
   -1.0070    3.3798    0.0000 O   0  0  0  0  0  0  0  0  0  0  0  0
   -3.0587    0.8238    0.0000 N   0  0  0  0  0  0  0  0  0  0  0  0
   -3.5568   -1.7728    0.0000 N   0  0  0  0  0  0  0  0  0  0  0  0
   -2.0627    0.8238    0.0000 C   0  0  0  0  0  0  0  0  0  0  0  0
   -3.0587   -2.6376    0.0000 C   0  0  0  0  0  0  0  0  0  0  0  0
    1.5772    3.2827    0.0000 C   0  0  0  0  0  0  0  0  0  0  0  0
   -3.0587   -0.9083    0.0000 C   0  0  0  0  0  0  0  0  0  0  0  0
   -3.5568   -0.0438    0.0000 C   0  0  0  0  0  0  0  0  0  0  0  0
   -1.1763    0.7644    0.0000 F   0  0  0  0  0  0  0  0  0  0  0  0
   -2.0627    2.5591    0.0000 C   0  0  0  0  0  0  0  0  0  0  0  0
   -3.5568   -3.5081    0.0000 O   0  0  0  0  0  0  0  0  0  0  0  0
   -3.5568    1.6946    0.0000 C   0  0  0  0  0  0  0  0  0  0  0  0
   -3.0587    2.5591    0.0000 C   0  0  0  0  0  0  0  0  0  0  0  0
   -1.5551   -1.7728    0.0000 C   0  0  0  0  0  0  0  0  0  0  0  0
   -2.0627   -2.6376    0.0000 C   0  0  0  0  0  0  0  0  0  0  0  0
   -2.0627   -0.9083    0.0000 C   0  0  0  0  0  0  0  0  0  0  0  0
    1.9341    4.2223    0.0000 C   0  0  0  0  0  0  0  0  0  0  0  0
    2.2068    2.5120    0.0000 C   0  0  0  0  0  0  0  0  0  0  0  0
   -3.0587   -4.3759    0.0000 C   0  0  0  0  0  0  0  0  0  0  0  0
    2.9272    4.3759    0.0000 C   0  0  0  0  0  0  0  0  0  0  0  0
    3.1996    2.6625    0.0000 C   0  0  0  0  0  0  0  0  0  0  0  0
    3.5568    3.6022    0.0000 C   0  0  0  0  0  0  0  0  0  0  0  0
  1  2  2  0
  1  3  1  0
  2  4  1  0
  3  5  2  0
  5  6  1  0
  2  6  1  0
  7  9  1  0
  8 12  2  0
  4  9  1  0
  8 10  1  0
  3 11  1  0
 12 13  1  0
  7 13  1  0
  4 14  1  0
  4 15  1  0
 10 16  1  0
 17 18  1  0
  7 17  1  0
 15 18  1  0
 19 21  2  0
 19 20  1  0
 10 20  2  0
 12 21  1  0
 11 22  2  0
 11 23  1  0
 16 24  1  0
 22 25  1  0
 23 26  2  0
 26 27  1  0
 25 27  2  0
M  END
>  <IDNUMBER>  (420) 
SA92-0077

>  <available>  (420) 
49

>  <H_acceptor>  (420) 
6

>  <H_donor>  (420) 
0

>  <B_rotN>  (420) 
5

>  <N_O>  (420) 
6

>  <logP>  (420) 
4.0075

>  <logD>  (420) 
3.7247

>  <logSw>  (420) 
-4.1279

>  <PSA>  (420) 
51.866

>  <pKa_ma>  (420) 
26.9519

>  <pKa_mb>  (420) 
7.3627

>  <N_Chirals>  (420) 
1

>  <Name>  (420) 
2-{[3-fluoro-3-(3-phenyl-1,2,4-oxadiazol-5-yl)piperidin-1-yl]methyl}-6-methoxypyridine

>  <Smile>  (420) 
COc1cccc(CN(CCC2)CC2(c2nc(-c3ccccc3)no2)F)n1

>  <Color>  (420) 
YELLOW

>  <Collection>  (420) 
IC

>  <InChI>  (420) 
InChI=1S/C20H21FN4O2/c1-26-17-10-5-9-16(22-17)13-25-12-6-11-20(21,14-25)19-23-18(24-27-19)15-7-3-2-4-8-15/h2-5,7-10H,6,11-14H2,1H3/t20-/m0/s1

>  <InChI Key>  (420) 
LRELFQGZKVTTRX-FQEVSTJZSA-N

>  <PERCENTSP3>  (420) 
35

>  <Link>  (420) 
https://www.chemdiv.com/catalog/screening-compounds/compound-SA92-0077/

>  <MFCDNUMBER>  (420) 
MFCD32242320

>  <CLNUMBER>  (420) 
CM4899

>  <STEREO>  (420) 
RACEMIC MIXTURE

>  <State>  (420) 
Liquid

>  <Similarity score>  (420) 
0.20

$$$$
2-amino-5-propyl-4,7-dihydro-5H-thieno[2,3-c]pyran-3-carbonitrile
     RDKit          2D

 17 18  0  0  0  0  0  0  0  0999 V2000
    2.0668    0.4792    0.0000 C   0  0  0  0  0  0  0  0  0  0  0  0
    0.4166    0.4667    0.0000 C   0  0  0  0  0  0  0  0  0  0  0  0
    2.0710   -0.4959    0.0000 C   0  0  0  0  0  0  0  0  0  0  0  0
    1.2334   -0.9709    0.0000 S   0  0  0  0  0  0  0  0  0  0  0  0
    0.4166   -0.4959    0.0000 C   0  0  0  0  0  0  0  0  0  0  0  0
    2.8960    0.9709    0.0000 C   0  0  0  0  0  0  0  0  0  0  0  0
    2.8918    1.9293    0.0000 N   0  0  0  0  0  0  0  0  0  0  0  0
   -0.4335    0.9542    0.0000 C   0  0  0  0  0  0  0  0  0  0  0  0
   -1.2543   -0.5042    0.0000 O   0  0  0  0  0  0  0  0  0  0  0  0
   -0.4166   -0.9917    0.0000 C   0  0  0  0  0  0  0  0  0  0  0  0
    2.9210   -0.9709    0.0000 N   0  0  0  0  0  0  0  0  0  0  0  0
   -1.2543    0.4667    0.0000 C   0  0  0  0  0  0  0  0  0  0  0  0
   -2.0835    0.9334    0.0000 C   0  0  0  0  0  0  0  0  0  0  0  0
   -2.9085    0.4542    0.0000 C   0  0  0  0  0  0  0  0  0  0  0  0
   -3.7336    0.9292    0.0000 C   0  0  0  0  0  0  0  0  0  0  0  0
    2.9335   -1.9293    0.0000 H   0  0  0  0  0  0  0  0  0  0  0  0
    3.7336   -0.4834    0.0000 H   0  0  0  0  0  0  0  0  0  0  0  0
  1  2  1  0
  1  3  2  0
  3  4  1  0
  4  5  1  0
  2  5  2  0
  1  6  1  0
  6  7  3  0
  2  8  1  0
  9 12  1  0
  5 10  1  0
  9 10  1  0
  3 11  1  0
  8 12  1  0
 12 13  1  0
 13 14  1  0
 14 15  1  0
 11 16  1  0
 11 17  1  0
M  END
>  <IDNUMBER>  (421) 
8640-0074

>  <available>  (421) 
79

>  <H_acceptor>  (421) 
2

>  <H_donor>  (421) 
2

>  <B_rotN>  (421) 
3

>  <N_O>  (421) 
3

>  <logP>  (421) 
2.381

>  <logD>  (421) 
2.381

>  <logSw>  (421) 
-2.2284

>  <PSA>  (421) 
47.086

>  <pKa_ma>  (421) 
15.973

>  <pKa_mb>  (421) 
-1.5134

>  <N_Chirals>  (421) 
1

>  <Name>  (421) 
2-amino-5-propyl-4,7-dihydro-5H-thieno[2,3-c]pyran-3-carbonitrile

>  <Smile>  (421) 
CCCC(C1)OCc2c1c(C#N)c(N)s2

>  <Color>  (421) 
BROWN

>  <Collection>  (421) 
DC

>  <InChI>  (421) 
InChI=1S/C11H14N2OS/c1-2-3-7-4-8-9(5-12)11(13)15-10(8)6-14-7/h7H,2-4,6,13H2,1H3/t7-/m1/s1

>  <InChI Key>  (421) 
FGTHHTWHWXEGFI-SSDOTTSWSA-N

>  <PERCENTSP3>  (421) 
54.5

>  <Link>  (421) 
https://www.chemdiv.com/catalog/screening-compounds/compound-8640-0074/

>  <MFCDNUMBER>  (421) 
MFCD03675056

>  <STEREO>  (421) 
RACEMIC MIXTURE

>  <State>  (421) 
Solid

>  <Similarity score>  (421) 
0.19

$$$$
2-amino-6-benzyl-4,5,6,7-tetrahydrothieno[2,3-c]pyridine-3-carbonitrile
     RDKit          2D

 19 21  0  0  0  0  0  0  0  0999 V2000
    2.4979   -0.1417    0.0000 C   0  0  0  0  0  0  0  0  0  0  0  0
    2.7980   -1.1050    0.0000 C   0  0  0  0  0  0  0  0  0  0  0  0
    1.1843   -1.1050    0.0000 C   0  0  0  0  0  0  0  0  0  0  0  0
    1.4969   -0.1417    0.0000 C   0  0  0  0  0  0  0  0  0  0  0  0
    1.9973   -1.6721    0.0000 S   0  0  0  0  0  0  0  0  0  0  0  0
    3.0857    0.6588    0.0000 C   0  0  0  0  0  0  0  0  0  0  0  0
   -0.4669   -0.5670    0.0000 N   0  0  0  0  0  0  0  0  0  0  0  0
    3.6735    1.4720    0.0000 N   0  0  0  0  0  0  0  0  0  0  0  0
    0.1960   -1.3176    0.0000 C   0  0  0  0  0  0  0  0  0  0  0  0
    0.8214    0.5920    0.0000 C   0  0  0  0  0  0  0  0  0  0  0  0
    3.7486   -1.4053    0.0000 N   0  0  0  0  0  0  0  0  0  0  0  0
   -0.1458    0.3918    0.0000 C   0  0  0  0  0  0  0  0  0  0  0  0
   -1.4426   -0.7839    0.0000 C   0  0  0  0  0  0  0  0  0  0  0  0
   -2.1181   -0.0333    0.0000 C   0  0  0  0  0  0  0  0  0  0  0  0
   -1.8055    0.9299    0.0000 C   0  0  0  0  0  0  0  0  0  0  0  0
   -3.0814   -0.2335    0.0000 C   0  0  0  0  0  0  0  0  0  0  0  0
   -3.7486    0.5171    0.0000 C   0  0  0  0  0  0  0  0  0  0  0  0
   -2.4685    1.6721    0.0000 C   0  0  0  0  0  0  0  0  0  0  0  0
   -3.4567    1.4595    0.0000 C   0  0  0  0  0  0  0  0  0  0  0  0
  1  2  2  0
  3  4  2  0
  3  5  1  0
  1  4  1  0
  2  5  1  0
  1  6  1  0
  7 12  1  0
  7  9  1  0
  6  8  3  0
  3  9  1  0
  4 10  1  0
  2 11  1  0
 10 12  1  0
  7 13  1  0
 13 14  1  0
 14 15  1  0
 14 16  2  0
 16 17  1  0
 15 18  2  0
 18 19  1  0
 17 19  2  0
M  END
>  <IDNUMBER>  (422) 
Y512-7452

>  <available>  (422) 
33

>  <H_acceptor>  (422) 
2

>  <H_donor>  (422) 
2

>  <B_rotN>  (422) 
3

>  <N_O>  (422) 
3

>  <logP>  (422) 
2.536

>  <logD>  (422) 
2.535

>  <logSw>  (422) 
-2.519

>  <PSA>  (422) 
41.97

>  <pKa_ma>  (422) 
15.47

>  <pKa_mb>  (422) 
4.753

>  <N_Chirals>  (422) 
0

>  <Name>  (422) 
2-amino-6-benzyl-4,5,6,7-tetrahydrothieno[2,3-c]pyridine-3-carbonitrile

>  <Smile>  (422) 
c1(c(sc2c1CCN(C2)Cc1ccccc1)N)C#N

>  <Color>  (422) 
BROWN

>  <Collection>  (422) 
DC

>  <InChI>  (422) 
InChI=1S/C15H15N3S/c16-8-13-12-6-7-18(10-14(12)19-15(13)17)9-11-4-2-1-3-5-11/h1-5H,6-7,9-10,17H2

>  <InChI Key>  (422) 
BWNBNBHFRHCKTK-UHFFFAOYSA-N

>  <PERCENTSP3>  (422) 
26.67

>  <Link>  (422) 
https://www.chemdiv.com/catalog/screening-compounds/compound-Y512-7452/

>  <MFCDNUMBER>  (422) 
MFCD00425859

>  <STEREO>  (422) 
ACHIRAL

>  <State>  (422) 
Solid

>  <Similarity score>  (422) 
0.19

$$$$
2-amino-4,5-dihydronaphtho[2,1-b]thiophene-1-carbonitrile
     RDKit          2D

 16 18  0  0  0  0  0  0  0  0999 V2000
    0.9270   -0.3728    0.0000 C   0  0  0  0  0  0  0  0  0  0  0  0
   -0.0562   -0.4354    0.0000 C   0  0  0  0  0  0  0  0  0  0  0  0
    1.3062   -1.3187    0.0000 C   0  0  0  0  0  0  0  0  0  0  0  0
   -0.3146   -1.3978    0.0000 C   0  0  0  0  0  0  0  0  0  0  0  0
    0.5270   -1.9519    0.0000 S   0  0  0  0  0  0  0  0  0  0  0  0
   -0.7604    0.2771    0.0000 C   0  0  0  0  0  0  0  0  0  0  0  0
    1.4561    0.4603    0.0000 C   0  0  0  0  0  0  0  0  0  0  0  0
    2.4435    0.4187    0.0000 N   0  0  0  0  0  0  0  0  0  0  0  0
   -1.2645   -1.6645    0.0000 C   0  0  0  0  0  0  0  0  0  0  0  0
   -1.7270    0.0062    0.0000 C   0  0  0  0  0  0  0  0  0  0  0  0
    2.2769   -1.5687    0.0000 N   0  0  0  0  0  0  0  0  0  0  0  0
   -1.9686   -0.9729    0.0000 C   0  0  0  0  0  0  0  0  0  0  0  0
   -0.5104    1.2520    0.0000 C   0  0  0  0  0  0  0  0  0  0  0  0
   -2.4435    0.7061    0.0000 C   0  0  0  0  0  0  0  0  0  0  0  0
   -1.2311    1.9519    0.0000 C   0  0  0  0  0  0  0  0  0  0  0  0
   -2.2061    1.6728    0.0000 C   0  0  0  0  0  0  0  0  0  0  0  0
  1  2  1  0
  1  3  2  0
  2  4  2  0
  4  5  1  0
  3  5  1  0
  2  6  1  0
  1  7  1  0
  7  8  3  0
  4  9  1  0
  9 12  1  0
  6 10  2  0
  3 11  1  0
 10 12  1  0
  6 13  1  0
 10 14  1  0
 13 15  2  0
 15 16  1  0
 14 16  2  0
M  END
>  <IDNUMBER>  (423) 
8019-5962

>  <available>  (423) 
15

>  <H_acceptor>  (423) 
1

>  <H_donor>  (423) 
2

>  <B_rotN>  (423) 
1

>  <N_O>  (423) 
2

>  <logP>  (423) 
3.0359

>  <logD>  (423) 
3.0359

>  <logSw>  (423) 
-3.4122

>  <PSA>  (423) 
38.22

>  <pKa_ma>  (423) 
19.2967

>  <pKa_mb>  (423) 
-4.5006

>  <N_Chirals>  (423) 
0

>  <Name>  (423) 
2-amino-4,5-dihydronaphtho[2,1-b]thiophene-1-carbonitrile

>  <Smile>  (423) 
Nc(sc(CC1)c2-c3c1cccc3)c2C#N

>  <Color>  (423) 
BROWN

>  <Collection>  (423) 
DC

>  <InChI>  (423) 
InChI=1S/C13H10N2S/c14-7-10-12-9-4-2-1-3-8(9)5-6-11(12)16-13(10)15/h1-4H,5-6,15H2

>  <InChI Key>  (423) 
KMUDCZOBMKTNNP-UHFFFAOYSA-N

>  <PERCENTSP3>  (423) 
15.38

>  <Link>  (423) 
https://www.chemdiv.com/catalog/screening-compounds/compound-8019-5962/

>  <MFCDNUMBER>  (423) 
MFCD00128275

>  <STEREO>  (423) 
ACHIRAL

>  <State>  (423) 
Solid

>  <Similarity score>  (423) 
0.19

$$$$
{3-fluoro-3-[3-(pyridin-4-yl)-1,2,4-oxadiazol-5-yl]piperidin-1-yl}(6-methoxypyri
     RDKit          2D

 28 31  0  0  0  0  0  0  0  0999 V2000
   -2.3906   -0.5015    0.0000 N   0  0  0  0  0  0  0  0  0  0  0  0
   -1.4036   -0.6517    0.0000 C   0  0  0  0  0  0  0  0  0  0  0  0
   -0.6985    0.0533    0.0000 C   0  0  0  0  0  0  0  0  0  0  0  0
   -2.8449   -1.4007    0.0000 C   0  0  0  0  0  0  0  0  0  0  0  0
    0.8019    0.9119    0.0000 N   0  0  0  0  0  0  0  0  0  0  0  0
   -2.1369   -2.1086    0.0000 N   0  0  0  0  0  0  0  0  0  0  0  0
    1.3034    1.7828    0.0000 C   0  0  0  0  0  0  0  0  0  0  0  0
   -1.2439   -1.6449    0.0000 O   0  0  0  0  0  0  0  0  0  0  0  0
    2.3093    1.7828    0.0000 C   0  0  0  0  0  0  0  0  0  0  0  0
   -0.2007    0.9119    0.0000 C   0  0  0  0  0  0  0  0  0  0  0  0
    3.8101    0.9119    0.0000 N   0  0  0  0  0  0  0  0  0  0  0  0
    2.8137    0.9119    0.0000 C   0  0  0  0  0  0  0  0  0  0  0  0
    4.3112    1.7828    0.0000 C   0  0  0  0  0  0  0  0  0  0  0  0
    0.8019    2.6413    0.0000 O   0  0  0  0  0  0  0  0  0  0  0  0
   -3.8319   -1.5509    0.0000 C   0  0  0  0  0  0  0  0  0  0  0  0
    2.8137    2.6413    0.0000 C   0  0  0  0  0  0  0  0  0  0  0  0
   -1.0777    0.9743    0.0000 F   0  0  0  0  0  0  0  0  0  0  0  0
   -5.8059   -1.8644    0.0000 N   0  0  0  0  0  0  0  0  0  0  0  0
    3.8101    2.6413    0.0000 C   0  0  0  0  0  0  0  0  0  0  0  0
   -0.2007   -0.8179    0.0000 C   0  0  0  0  0  0  0  0  0  0  0  0
    1.3034    0.0533    0.0000 C   0  0  0  0  0  0  0  0  0  0  0  0
    5.3077    1.7828    0.0000 O   0  0  0  0  0  0  0  0  0  0  0  0
    0.8019   -0.8179    0.0000 C   0  0  0  0  0  0  0  0  0  0  0  0
   -5.4488   -0.9337    0.0000 C   0  0  0  0  0  0  0  0  0  0  0  0
   -5.1825   -2.6413    0.0000 C   0  0  0  0  0  0  0  0  0  0  0  0
   -4.4586   -0.7740    0.0000 C   0  0  0  0  0  0  0  0  0  0  0  0
   -4.1955   -2.4911    0.0000 C   0  0  0  0  0  0  0  0  0  0  0  0
    5.8059    2.6413    0.0000 C   0  0  0  0  0  0  0  0  0  0  0  0
  1  2  2  0
  2  3  1  0
  1  4  1  0
  5 10  1  0
  4  6  2  0
  6  8  1  0
  5  7  1  0
  2  8  1  0
  7  9  1  0
  3 10  1  0
 11 12  1  0
  9 12  2  0
 13 19  1  0
 11 13  2  0
  7 14  2  0
  4 15  1  0
  9 16  1  0
  3 17  1  0
 18 25  2  0
 18 24  1  0
 16 19  2  0
  3 20  1  0
 21 23  1  0
  5 21  1  0
 13 22  1  0
 20 23  1  0
 24 26  2  0
 25 27  1  0
 15 26  1  0
 15 27  2  0
 22 28  1  0
M  END
>  <IDNUMBER>  (424) 
SA92-0193

>  <available>  (424) 
86

>  <H_acceptor>  (424) 
8

>  <H_donor>  (424) 
0

>  <B_rotN>  (424) 
5

>  <N_O>  (424) 
8

>  <logP>  (424) 
2.0953

>  <logD>  (424) 
2.0952

>  <logSw>  (424) 
-2.123

>  <PSA>  (424) 
74.236

>  <pKa_ma>  (424) 
27.08

>  <pKa_mb>  (424) 
3.6841

>  <N_Chirals>  (424) 
1

>  <Name>  (424) 
{3-fluoro-3-[3-(pyridin-4-yl)-1,2,4-oxadiazol-5-yl]piperidin-1-yl}(6-methoxypyridin-3-yl)methanone

>  <Smile>  (424) 
COc(cc1)ncc1C(N(CCC1)CC1(c1nc(-c2ccncc2)no1)F)=O

>  <Color>  (424) 
BROWN

>  <Collection>  (424) 
IC

>  <InChI>  (424) 
InChI=1S/C19H18FN5O3/c1-27-15-4-3-14(11-22-15)17(26)25-10-2-7-19(20,12-25)18-23-16(24-28-18)13-5-8-21-9-6-13/h3-6,8-9,11H,2,7,10,12H2,1H3/t19-/m0/s1

>  <InChI Key>  (424) 
BERFUGYEBNEHOP-IBGZPJMESA-N

>  <PERCENTSP3>  (424) 
31.58

>  <Link>  (424) 
https://www.chemdiv.com/catalog/screening-compounds/compound-SA92-0193/

>  <MFCDNUMBER>  (424) 
MFCD32241574

>  <CLNUMBER>  (424) 
CM4899

>  <STEREO>  (424) 
RACEMIC MIXTURE

>  <State>  (424) 
Solid

>  <Similarity score>  (424) 
0.19

$$$$
N-(3-cyano-4,5,6,7-tetrahydro-1-benzothiophen-2-yl)-5-(2-methyl-2,3-dihydro-1-be
     RDKit          2D

 30 34  0  0  0  0  0  0  0  0999 V2000
   -1.9170    1.4959    0.0000 C   0  0  0  0  0  0  0  0  0  0  0  0
   -2.5045    2.3002    0.0000 C   0  0  0  0  0  0  0  0  0  0  0  0
    0.5708    0.6083    0.0000 C   0  0  0  0  0  0  0  0  0  0  0  0
   -2.5087    0.6833    0.0000 S   0  0  0  0  0  0  0  0  0  0  0  0
   -3.4547    1.9961    0.0000 C   0  0  0  0  0  0  0  0  0  0  0  0
    1.1585    1.4084    0.0000 N   0  0  0  0  0  0  0  0  0  0  0  0
   -0.9168    1.4834    0.0000 N   0  0  0  0  0  0  0  0  0  0  0  0
    1.1585   -0.2043    0.0000 C   0  0  0  0  0  0  0  0  0  0  0  0
   -3.4588    0.9960    0.0000 C   0  0  0  0  0  0  0  0  0  0  0  0
   -0.4168    0.6125    0.0000 C   0  0  0  0  0  0  0  0  0  0  0  0
    2.1086    0.0875    0.0000 C   0  0  0  0  0  0  0  0  0  0  0  0
    2.1086    1.0876    0.0000 O   0  0  0  0  0  0  0  0  0  0  0  0
   -2.1920    3.2504    0.0000 C   0  0  0  0  0  0  0  0  0  0  0  0
    3.5964   -2.0794    0.0000 C   0  0  0  0  0  0  0  0  0  0  0  0
    5.1924   -2.4295    0.0000 O   0  0  0  0  0  0  0  0  0  0  0  0
    4.5216   -1.6877    0.0000 C   0  0  0  0  0  0  0  0  0  0  0  0
    2.9171   -0.5041    0.0000 C   0  0  0  0  0  0  0  0  0  0  0  0
   -1.9337    4.2172    0.0000 N   0  0  0  0  0  0  0  0  0  0  0  0
    2.7964   -1.4920    0.0000 C   0  0  0  0  0  0  0  0  0  0  0  0
    3.6965   -3.0878    0.0000 C   0  0  0  0  0  0  0  0  0  0  0  0
   -0.9293   -0.2500    0.0000 O   0  0  0  0  0  0  0  0  0  0  0  0
    4.6840   -3.3046    0.0000 C   0  0  0  0  0  0  0  0  0  0  0  0
    4.6298   -0.6794    0.0000 C   0  0  0  0  0  0  0  0  0  0  0  0
    3.8172   -0.0957    0.0000 C   0  0  0  0  0  0  0  0  0  0  0  0
   -4.3090    2.5003    0.0000 C   0  0  0  0  0  0  0  0  0  0  0  0
   -4.3298    0.5084    0.0000 C   0  0  0  0  0  0  0  0  0  0  0  0
    5.0716   -4.2172    0.0000 C   0  0  0  0  0  0  0  0  0  0  0  0
   -5.1799    2.0169    0.0000 C   0  0  0  0  0  0  0  0  0  0  0  0
   -5.1924    1.0127    0.0000 C   0  0  0  0  0  0  0  0  0  0  0  0
   -0.4168    2.3460    0.0000 H   0  0  0  0  0  0  0  0  0  0  0  0
  1  2  2  0
  3 10  1  0
  1  4  1  0
  2  5  1  0
  3  6  2  0
  1  7  1  0
  3  8  1  0
  4  9  1  0
  5  9  2  0
  7 10  1  0
  8 11  2  0
 11 12  1  0
  6 12  1  0
  2 13  1  0
 14 19  1  0
 15 16  1  0
 16 23  1  0
 14 16  2  0
 11 17  1  0
 13 18  3  0
 17 19  2  0
 14 20  1  0
 10 21  2  0
 20 22  1  0
 15 22  1  0
 23 24  2  0
 17 24  1  0
  5 25  1  0
  9 26  1  0
 22 27  1  0
 25 28  1  0
 26 29  1  0
 28 29  1  0
  7 30  1  0
M  END
>  <IDNUMBER>  (425) 
D337-1093

>  <available>  (425) 
64

>  <H_acceptor>  (425) 
6

>  <H_donor>  (425) 
1

>  <B_rotN>  (425) 
5

>  <N_O>  (425) 
6

>  <logP>  (425) 
4.8655

>  <logD>  (425) 
3.5744

>  <logSw>  (425) 
-4.7257

>  <PSA>  (425) 
69.038

>  <pKa_ma>  (425) 
6.1318

>  <pKa_mb>  (425) 
-6.3269

>  <N_Chirals>  (425) 
1

>  <Name>  (425) 
N-(3-cyano-4,5,6,7-tetrahydro-1-benzothiophen-2-yl)-5-(2-methyl-2,3-dihydro-1-benzofuran-5-yl)-1,2-oxazole-3-carboxamide

>  <Smile>  (425) 
CC(C1)Oc(cc2)c1cc2-c1cc(C(Nc(sc2c3CCCC2)c3C#N)=O)no1

>  <Color>  (425) 
ORANGE

>  <Collection>  (425) 
DC

>  <InChI>  (425) 
InChI=1S/C22H19N3O3S/c1-12-8-14-9-13(6-7-18(14)27-12)19-10-17(25-28-19)21(26)24-22-16(11-23)15-4-2-3-5-20(15)29-22/h6-7,9-10,12H,2-5,8H2,1H3,(H,24,26)/t12-/m1/s1

>  <InChI Key>  (425) 
ZRFPTQSWEYXVAA-GFCCVEGCSA-N

>  <PERCENTSP3>  (425) 
31.8

>  <Link>  (425) 
https://www.chemdiv.com/catalog/screening-compounds/compound-D337-1093/

>  <MFCDNUMBER>  (425) 
MFCD08545738

>  <CLNUMBER>  (425) 
CL2028

>  <STEREO>  (425) 
RACEMIC MIXTURE

>  <State>  (425) 
Solid

>  <Similarity score>  (425) 
0.19

$$$$
6-acetyl-2-amino-4,5,6,7-tetrahydrothieno[2,3-c]pyridine-3-carbonitrile
     RDKit          2D

 15 16  0  0  0  0  0  0  0  0999 V2000
   -1.6639   -0.0438    0.0000 C   0  0  0  0  0  0  0  0  0  0  0  0
   -1.9763   -0.9850    0.0000 C   0  0  0  0  0  0  0  0  0  0  0  0
   -0.3602   -1.0016    0.0000 C   0  0  0  0  0  0  0  0  0  0  0  0
   -0.6684   -0.0438    0.0000 C   0  0  0  0  0  0  0  0  0  0  0  0
   -1.1682   -1.5764    0.0000 S   0  0  0  0  0  0  0  0  0  0  0  0
    1.2808   -0.4685    0.0000 N   0  0  0  0  0  0  0  0  0  0  0  0
    0.6143   -1.2141    0.0000 C   0  0  0  0  0  0  0  0  0  0  0  0
   -2.2512    0.7643    0.0000 C   0  0  0  0  0  0  0  0  0  0  0  0
    2.2637   -0.6810    0.0000 C   0  0  0  0  0  0  0  0  0  0  0  0
   -2.7593    1.6306    0.0000 N   0  0  0  0  0  0  0  0  0  0  0  0
   -0.0021    0.7060    0.0000 C   0  0  0  0  0  0  0  0  0  0  0  0
    0.9809    0.4935    0.0000 C   0  0  0  0  0  0  0  0  0  0  0  0
   -2.9259   -1.3015    0.0000 N   0  0  0  0  0  0  0  0  0  0  0  0
    2.9259    0.0604    0.0000 O   0  0  0  0  0  0  0  0  0  0  0  0
    2.5636   -1.6306    0.0000 C   0  0  0  0  0  0  0  0  0  0  0  0
  1  2  2  0
  3  4  2  0
  3  5  1  0
  1  4  1  0
  2  5  1  0
  6 12  1  0
  6  7  1  0
  3  7  1  0
  1  8  1  0
  6  9  1  0
  8 10  3  0
  4 11  1  0
 11 12  1  0
  2 13  1  0
  9 14  2  0
  9 15  1  0
M  END
>  <IDNUMBER>  (426) 
FF01-4909

>  <available>  (426) 
617

>  <H_acceptor>  (426) 
3

>  <H_donor>  (426) 
2

>  <B_rotN>  (426) 
2

>  <N_O>  (426) 
4

>  <logP>  (426) 
0.6311

>  <logD>  (426) 
0.6311

>  <logSw>  (426) 
-1.0388

>  <PSA>  (426) 
55.62

>  <pKa_ma>  (426) 
15.7067

>  <pKa_mb>  (426) 
-0.8396

>  <N_Chirals>  (426) 
0

>  <Name>  (426) 
6-acetyl-2-amino-4,5,6,7-tetrahydrothieno[2,3-c]pyridine-3-carbonitrile

>  <Smile>  (426) 
CC(N(CC1)Cc2c1c(C#N)c(N)s2)=O

>  <Color>  (426) 
ORANGE

>  <Collection>  (426) 
NC

>  <InChI>  (426) 
InChI=1S/C10H11N3OS/c1-6(14)13-3-2-7-8(4-11)10(12)15-9(7)5-13/h2-3,5,12H2,1H3

>  <InChI Key>  (426) 
ONWFDBVICXATKK-UHFFFAOYSA-N

>  <PERCENTSP3>  (426) 
40

>  <Link>  (426) 
https://www.chemdiv.com/catalog/screening-compounds/compound-FF01-4909/

>  <MFCDNUMBER>  (426) 
MFCD09743161

>  <STEREO>  (426) 
ACHIRAL

>  <State>  (426) 
Solid

>  <Similarity score>  (426) 
0.19

$$$$
2-amino-6-(2-methylbutan-2-yl)-4,5,6,7-tetrahydro-1-benzothiophene-3-carbonitril
     RDKit          2D

 17 18  0  0  0  0  0  0  0  0999 V2000
    1.6932   -0.4603    0.0000 C   0  0  0  0  0  0  0  0  0  0  0  0
    1.3725   -1.3892    0.0000 C   0  0  0  0  0  0  0  0  0  0  0  0
    0.0688   -0.4603    0.0000 C   0  0  0  0  0  0  0  0  0  0  0  0
    0.8643    0.1437    0.0000 C   0  0  0  0  0  0  0  0  0  0  0  0
    0.4186   -1.3892    0.0000 S   0  0  0  0  0  0  0  0  0  0  0  0
    2.6471   -0.2062    0.0000 C   0  0  0  0  0  0  0  0  0  0  0  0
   -0.8267   -0.0479    0.0000 C   0  0  0  0  0  0  0  0  0  0  0  0
    3.6093    0.0479    0.0000 N   0  0  0  0  0  0  0  0  0  0  0  0
    0.7685    1.1350    0.0000 C   0  0  0  0  0  0  0  0  0  0  0  0
   -0.9559    0.9434    0.0000 C   0  0  0  0  0  0  0  0  0  0  0  0
   -1.9139    1.3225    0.0000 C   0  0  0  0  0  0  0  0  0  0  0  0
    1.9472   -2.2514    0.0000 N   0  0  0  0  0  0  0  0  0  0  0  0
   -0.1561    1.5474    0.0000 C   0  0  0  0  0  0  0  0  0  0  0  0
   -2.8428    1.6766    0.0000 C   0  0  0  0  0  0  0  0  0  0  0  0
   -1.5307    2.2514    0.0000 C   0  0  0  0  0  0  0  0  0  0  0  0
   -2.2639    0.3686    0.0000 C   0  0  0  0  0  0  0  0  0  0  0  0
   -3.6093    1.0559    0.0000 C   0  0  0  0  0  0  0  0  0  0  0  0
  1  2  2  0
  3  4  2  0
  3  5  1  0
  1  4  1  0
  2  5  1  0
  1  6  1  0
  3  7  1  0
  7 10  1  0
  6  8  3  0
  4  9  1  0
 10 13  1  0
 10 11  1  0
  2 12  1  0
  9 13  1  0
 11 14  1  0
 11 15  1  0
 11 16  1  0
 14 17  1  0
M  END
>  <IDNUMBER>  (427) 
Y503-0012

>  <available>  (427) 
20

>  <H_acceptor>  (427) 
1

>  <H_donor>  (427) 
2

>  <B_rotN>  (427) 
3

>  <N_O>  (427) 
2

>  <logP>  (427) 
3.612

>  <logD>  (427) 
3.612

>  <logSw>  (427) 
-3.9177

>  <PSA>  (427) 
38.492

>  <pKa_ma>  (427) 
15.9936

>  <pKa_mb>  (427) 
-2.1439

>  <N_Chirals>  (427) 
1

>  <Name>  (427) 
2-amino-6-(2-methylbutan-2-yl)-4,5,6,7-tetrahydro-1-benzothiophene-3-carbonitrile

>  <Smile>  (427) 
CCC(C)(C)C(CC1)Cc2c1c(C#N)c(N)s2

>  <Color>  (427) 
ORANGE

>  <Collection>  (427) 
DC

>  <InChI>  (427) 
InChI=1S/C14H20N2S/c1-4-14(2,3)9-5-6-10-11(8-15)13(16)17-12(10)7-9/h9H,4-7,16H2,1-3H3/t9-/m1/s1

>  <InChI Key>  (427) 
KWZDWUOSGNGFOU-SECBINFHSA-N

>  <PERCENTSP3>  (427) 
64.29

>  <Link>  (427) 
https://www.chemdiv.com/catalog/screening-compounds/compound-Y503-0012/

>  <MFCDNUMBER>  (427) 
MFCD01335783

>  <STEREO>  (427) 
RACEMIC MIXTURE

>  <State>  (427) 
Solid

>  <Similarity score>  (427) 
0.19

$$$$
2-amino-6-(2-phenylethyl)-4,5,6,7-tetrahydrothieno[2,3-c]pyridine-3-carbonitrile
     RDKit          2D

 20 22  0  0  0  0  0  0  0  0999 V2000
    2.7431    0.6914    0.0000 C   0  0  0  0  0  0  0  0  0  0  0  0
    3.3055   -0.1084    0.0000 C   0  0  0  0  0  0  0  0  0  0  0  0
    1.7934    0.3791    0.0000 C   0  0  0  0  0  0  0  0  0  0  0  0
    1.7934   -0.6208    0.0000 C   0  0  0  0  0  0  0  0  0  0  0  0
    2.7431   -0.9289    0.0000 S   0  0  0  0  0  0  0  0  0  0  0  0
    3.0680    1.6331    0.0000 C   0  0  0  0  0  0  0  0  0  0  0  0
    0.0562   -0.6208    0.0000 N   0  0  0  0  0  0  0  0  0  0  0  0
    3.3931    2.5787    0.0000 N   0  0  0  0  0  0  0  0  0  0  0  0
    0.9267   -1.1206    0.0000 C   0  0  0  0  0  0  0  0  0  0  0  0
    0.9267    0.8915    0.0000 C   0  0  0  0  0  0  0  0  0  0  0  0
    4.3055   -0.1084    0.0000 N   0  0  0  0  0  0  0  0  0  0  0  0
    0.0562    0.3791    0.0000 C   0  0  0  0  0  0  0  0  0  0  0  0
   -0.8436   -1.1206    0.0000 C   0  0  0  0  0  0  0  0  0  0  0  0
   -1.6935   -0.6041    0.0000 C   0  0  0  0  0  0  0  0  0  0  0  0
   -2.5683   -1.0914    0.0000 C   0  0  0  0  0  0  0  0  0  0  0  0
   -3.4181   -0.5791    0.0000 C   0  0  0  0  0  0  0  0  0  0  0  0
   -2.5807   -2.0912    0.0000 C   0  0  0  0  0  0  0  0  0  0  0  0
   -3.4473   -2.5787    0.0000 C   0  0  0  0  0  0  0  0  0  0  0  0
   -4.2928   -1.0707    0.0000 C   0  0  0  0  0  0  0  0  0  0  0  0
   -4.3055   -2.0704    0.0000 C   0  0  0  0  0  0  0  0  0  0  0  0
  1  2  2  0
  1  3  1  0
  3  4  2  0
  4  5  1  0
  2  5  1  0
  1  6  1  0
  7 12  1  0
  6  8  3  0
  4  9  1  0
  7  9  1  0
  3 10  1  0
  2 11  1  0
 10 12  1  0
  7 13  1  0
 13 14  1  0
 14 15  1  0
 15 16  2  0
 15 17  1  0
 17 18  2  0
 16 19  1  0
 19 20  2  0
 18 20  1  0
M  END
>  <IDNUMBER>  (428) 
Y512-6622

>  <available>  (428) 
10

>  <H_acceptor>  (428) 
2

>  <H_donor>  (428) 
2

>  <B_rotN>  (428) 
4

>  <N_O>  (428) 
3

>  <logP>  (428) 
2.769

>  <logD>  (428) 
2.767

>  <logSw>  (428) 
-2.953

>  <PSA>  (428) 
41.94

>  <pKa_ma>  (428) 
15.47

>  <pKa_mb>  (428) 
5.053

>  <N_Chirals>  (428) 
0

>  <Name>  (428) 
2-amino-6-(2-phenylethyl)-4,5,6,7-tetrahydrothieno[2,3-c]pyridine-3-carbonitrile

>  <Smile>  (428) 
c1(c(sc2c1CCN(C2)CCc1ccccc1)N)C#N

>  <Color>  (428) 
BROWN

>  <Collection>  (428) 
DC

>  <InChI>  (428) 
InChI=1S/C16H17N3S/c17-10-14-13-7-9-19(11-15(13)20-16(14)18)8-6-12-4-2-1-3-5-12/h1-5H,6-9,11,18H2

>  <InChI Key>  (428) 
NEZXGGXPFJZLFK-UHFFFAOYSA-N

>  <PERCENTSP3>  (428) 
31.3

>  <Link>  (428) 
https://www.chemdiv.com/catalog/screening-compounds/compound-Y512-6622/

>  <MFCDNUMBER>  (428) 
MFCD01565102

>  <STEREO>  (428) 
ACHIRAL

>  <State>  (428) 
Solid

>  <Similarity score>  (428) 
0.19

$$$$
3-(3-{[(1H-benzimidazol-2-yl)sulfanyl]methyl}-1,2,4-oxadiazol-5-yl)-N-(3-cyano-4
     RDKit          2D

 32 36  0  0  0  0  0  0  0  0999 V2000
    3.8430    1.2736    0.0000 C   0  0  0  0  0  0  0  0  0  0  0  0
    4.8181    0.9817    0.0000 C   0  0  0  0  0  0  0  0  0  0  0  0
    3.8303    2.2697    0.0000 S   0  0  0  0  0  0  0  0  0  0  0  0
    5.3767    1.7859    0.0000 C   0  0  0  0  0  0  0  0  0  0  0  0
   -3.5136   -2.6280    0.0000 C   0  0  0  0  0  0  0  0  0  0  0  0
   -4.1095   -1.8024    0.0000 N   0  0  0  0  0  0  0  0  0  0  0  0
   -0.3710   -0.9066    0.0000 N   0  0  0  0  0  0  0  0  0  0  0  0
    4.7764    2.5948    0.0000 C   0  0  0  0  0  0  0  0  0  0  0  0
   -0.9711   -1.7400    0.0000 C   0  0  0  0  0  0  0  0  0  0  0  0
   -4.0970   -3.4322    0.0000 N   0  0  0  0  0  0  0  0  0  0  0  0
    3.0551    0.6733    0.0000 N   0  0  0  0  0  0  0  0  0  0  0  0
   -0.3710   -2.5779    0.0000 N   0  0  0  0  0  0  0  0  0  0  0  0
    5.1517    0.0313    0.0000 C   0  0  0  0  0  0  0  0  0  0  0  0
    0.6043   -1.2190    0.0000 C   0  0  0  0  0  0  0  0  0  0  0  0
    0.6128   -2.2570    0.0000 O   0  0  0  0  0  0  0  0  0  0  0  0
   -5.0474   -2.1195    0.0000 C   0  0  0  0  0  0  0  0  0  0  0  0
   -5.0474   -3.1155    0.0000 C   0  0  0  0  0  0  0  0  0  0  0  0
    5.4766   -0.9066    0.0000 N   0  0  0  0  0  0  0  0  0  0  0  0
    2.1298    1.0608    0.0000 C   0  0  0  0  0  0  0  0  0  0  0  0
   -2.5216   -2.6193    0.0000 S   0  0  0  0  0  0  0  0  0  0  0  0
    2.0507    1.7819    0.0000 O   0  0  0  0  0  0  0  0  0  0  0  0
   -2.0131   -1.7527    0.0000 C   0  0  0  0  0  0  0  0  0  0  0  0
    1.4422   -0.5940    0.0000 C   0  0  0  0  0  0  0  0  0  0  0  0
    1.3129    0.4233    0.0000 C   0  0  0  0  0  0  0  0  0  0  0  0
    6.3686    1.8986    0.0000 C   0  0  0  0  0  0  0  0  0  0  0  0
    5.1766    3.5073    0.0000 C   0  0  0  0  0  0  0  0  0  0  0  0
   -5.9102   -1.6190    0.0000 C   0  0  0  0  0  0  0  0  0  0  0  0
   -5.9102   -3.6200    0.0000 C   0  0  0  0  0  0  0  0  0  0  0  0
    6.7688    2.8321    0.0000 C   0  0  0  0  0  0  0  0  0  0  0  0
    6.1687    3.6200    0.0000 C   0  0  0  0  0  0  0  0  0  0  0  0
   -6.7646   -3.1198    0.0000 C   0  0  0  0  0  0  0  0  0  0  0  0
   -6.7688   -2.1195    0.0000 C   0  0  0  0  0  0  0  0  0  0  0  0
  1  2  2  0
  1  3  1  0
  2  4  1  0
  5 20  1  0
  5  6  2  0
  7 14  2  0
  3  8  1  0
  4  8  2  0
  7  9  1  0
  5 10  1  0
  1 11  1  0
 12 15  1  0
  9 12  2  0
  2 13  1  0
 14 23  1  0
 14 15  1  0
  6 16  1  0
 10 17  1  0
 16 17  2  0
 13 18  3  0
 11 19  1  0
 20 22  1  0
 19 21  2  0
  9 22  1  0
 23 24  1  0
 19 24  1  0
  4 25  1  0
  8 26  1  0
 16 27  1  0
 17 28  1  0
 25 29  1  0
 26 30  1  0
 29 30  1  0
 28 31  2  0
 27 32  2  0
 31 32  1  0
M  END
>  <IDNUMBER>  (429) 
J021-0366

>  <available>  (429) 
82

>  <H_acceptor>  (429) 
8

>  <H_donor>  (429) 
2

>  <B_rotN>  (429) 
9

>  <N_O>  (429) 
8

>  <logP>  (429) 
3.7147

>  <logD>  (429) 
2.3958

>  <logSw>  (429) 
-4.4343

>  <PSA>  (429) 
90.234

>  <pKa_ma>  (429) 
6.1024

>  <pKa_mb>  (429) 
6.7942

>  <N_Chirals>  (429) 
0

>  <Name>  (429) 
3-(3-{[(1H-benzimidazol-2-yl)sulfanyl]methyl}-1,2,4-oxadiazol-5-yl)-N-(3-cyano-4,5,6,7-tetrahydro-1-benzothiophen-2-yl)propanamide

>  <Smile>  (429) 
N#Cc1c(NC(CCc2nc(CSc3nc(cccc4)c4[nH]3)no2)=O)sc2c1CCCC2

>  <Color>  (429) 
NOT COLORED

>  <Collection>  (429) 
DC

>  <InChI>  (429) 
InChI=1S/C22H20N6O2S2/c23-11-14-13-5-1-4-8-17(13)32-21(14)27-19(29)9-10-20-26-18(28-30-20)12-31-22-24-15-6-2-3-7-16(15)25-22/h2-3,6-7H,1,4-5,8-10,12H2,(H,24,25)(H,27,29)

>  <InChI Key>  (429) 
VCTVEJYTLRSQRV-UHFFFAOYSA-N

>  <PERCENTSP3>  (429) 
31.8

>  <Link>  (429) 
https://www.chemdiv.com/catalog/screening-compounds/compound-J021-0366/

>  <MFCDNUMBER>  (429) 
MFCD27218401

>  <CLNUMBER>  (429) 
CL8315

>  <STEREO>  (429) 
ACHIRAL

>  <State>  (429) 
Solid

>  <Similarity score>  (429) 
0.19

$$$$
2-(2-bromophenoxy)-N-(3-cyano-5,6-dihydro-4H-cyclopenta[b]thiophen-2-yl)propanam
     RDKit          2D

 23 25  0  0  0  0  0  0  0  0999 V2000
   -0.5177    1.4451    0.0000 C   0  0  0  0  0  0  0  0  0  0  0  0
   -0.5177    2.3413    0.0000 C   0  0  0  0  0  0  0  0  0  0  0  0
   -1.2957    1.0004    0.0000 S   0  0  0  0  0  0  0  0  0  0  0  0
   -2.0877    2.3413    0.0000 C   0  0  0  0  0  0  0  0  0  0  0  0
    0.3231    0.9725    0.0000 N   0  0  0  0  0  0  0  0  0  0  0  0
   -2.0877    1.4590    0.0000 C   0  0  0  0  0  0  0  0  0  0  0  0
    0.3231   -0.0000    0.0000 C   0  0  0  0  0  0  0  0  0  0  0  0
    0.3856    2.8623    0.0000 C   0  0  0  0  0  0  0  0  0  0  0  0
    1.2957    3.3626    0.0000 N   0  0  0  0  0  0  0  0  0  0  0  0
    1.1637   -1.4451    0.0000 O   0  0  0  0  0  0  0  0  0  0  0  0
    1.9904   -1.9175    0.0000 C   0  0  0  0  0  0  0  0  0  0  0  0
    1.1567   -0.4794    0.0000 C   0  0  0  0  0  0  0  0  0  0  0  0
   -0.5106   -0.4724    0.0000 O   0  0  0  0  0  0  0  0  0  0  0  0
    2.8309   -1.4451    0.0000 C   0  0  0  0  0  0  0  0  0  0  0  0
   -2.8797    2.7998    0.0000 C   0  0  0  0  0  0  0  0  0  0  0  0
    2.8450   -0.4933    0.0000 Br  0  0  0  0  0  0  0  0  0  0  0  0
   -3.6648    1.4590    0.0000 C   0  0  0  0  0  0  0  0  0  0  0  0
   -3.6648    2.3552    0.0000 C   0  0  0  0  0  0  0  0  0  0  0  0
    1.9904   -2.8832    0.0000 C   0  0  0  0  0  0  0  0  0  0  0  0
    1.9904   -0.0000    0.0000 C   0  0  0  0  0  0  0  0  0  0  0  0
    3.6578   -1.9197    0.0000 C   0  0  0  0  0  0  0  0  0  0  0  0
    2.8172   -3.3626    0.0000 C   0  0  0  0  0  0  0  0  0  0  0  0
    3.6648   -2.8901    0.0000 C   0  0  0  0  0  0  0  0  0  0  0  0
  1  2  2  0
  1  3  1  0
  2  4  1  0
  4  6  2  0
  1  5  1  0
  3  6  1  0
  5  7  1  0
  2  8  1  0
  8  9  3  0
 10 11  1  0
 10 12  1  0
  7 12  1  0
  7 13  2  0
 11 14  2  0
  4 15  1  0
 15 18  1  0
 14 16  1  0
  6 17  1  0
 17 18  1  0
 11 19  1  0
 12 20  1  0
 14 21  1  0
 19 22  2  0
 22 23  1  0
 21 23  2  0
M  END
>  <IDNUMBER>  (430) 
8011-9345

>  <available>  (430) 
21

>  <H_acceptor>  (430) 
4

>  <H_donor>  (430) 
1

>  <B_rotN>  (430) 
6

>  <N_O>  (430) 
4

>  <logP>  (430) 
4.2925

>  <logD>  (430) 
2.8547

>  <logSw>  (430) 
-4.4401

>  <PSA>  (430) 
47.342

>  <pKa_ma>  (430) 
5.9783

>  <pKa_mb>  (430) 
-5.9657

>  <N_Chirals>  (430) 
1

>  <Name>  (430) 
2-(2-bromophenoxy)-N-(3-cyano-5,6-dihydro-4H-cyclopenta[b]thiophen-2-yl)propanamide

>  <Smile>  (430) 
CC(C(Nc(sc1c2CCC1)c2C#N)=O)Oc(cccc1)c1Br

>  <Color>  (430) 
BROWN

>  <Collection>  (430) 
DC

>  <InChI>  (430) 
InChI=1S/C17H15BrN2O2S/c1-10(22-14-7-3-2-6-13(14)18)16(21)20-17-12(9-19)11-5-4-8-15(11)23-17/h2-3,6-7,10H,4-5,8H2,1H3,(H,20,21)/t10-/m0/s1

>  <InChI Key>  (430) 
FCIOKRPXKFICSS-JTQLQIEISA-N

>  <PERCENTSP3>  (430) 
29.41

>  <Link>  (430) 
https://www.chemdiv.com/catalog/screening-compounds/compound-8011-9345/

>  <MFCDNUMBER>  (430) 
MFCD02928295

>  <STEREO>  (430) 
RACEMIC MIXTURE

>  <State>  (430) 
Solid

>  <Similarity score>  (430) 
0.19

$$$$
N-(3-cyano-5,6,7,8-tetrahydro-4H-cyclohepta[b]thiophen-2-yl)-2-(4-propylphenoxy)
     RDKit          2D

 27 29  0  0  0  0  0  0  0  0999 V2000
   -2.3662    0.0462    0.0000 C   0  0  0  0  0  0  0  0  0  0  0  0
   -2.3662    0.9946    0.0000 C   0  0  0  0  0  0  0  0  0  0  0  0
   -3.1983   -0.4257    0.0000 S   0  0  0  0  0  0  0  0  0  0  0  0
   -4.0530    0.9946    0.0000 C   0  0  0  0  0  0  0  0  0  0  0  0
   -1.5612   -0.4257    0.0000 N   0  0  0  0  0  0  0  0  0  0  0  0
   -4.0530    0.0205    0.0000 C   0  0  0  0  0  0  0  0  0  0  0  0
   -0.6999    0.0462    0.0000 C   0  0  0  0  0  0  0  0  0  0  0  0
   -1.5100    1.4716    0.0000 C   0  0  0  0  0  0  0  0  0  0  0  0
   -0.6487    1.9380    0.0000 N   0  0  0  0  0  0  0  0  0  0  0  0
    0.1359   -0.4257    0.0000 C   0  0  0  0  0  0  0  0  0  0  0  0
    1.0075    0.0616    0.0000 O   0  0  0  0  0  0  0  0  0  0  0  0
   -0.6999    1.0204    0.0000 O   0  0  0  0  0  0  0  0  0  0  0  0
    1.9713   -0.4409    0.0000 C   0  0  0  0  0  0  0  0  0  0  0  0
   -4.8630    1.5858    0.0000 C   0  0  0  0  0  0  0  0  0  0  0  0
   -4.8630   -0.5641    0.0000 C   0  0  0  0  0  0  0  0  0  0  0  0
    3.6275   -1.3895    0.0000 C   0  0  0  0  0  0  0  0  0  0  0  0
    1.9713   -1.3638    0.0000 C   0  0  0  0  0  0  0  0  0  0  0  0
    2.7917    0.0462    0.0000 C   0  0  0  0  0  0  0  0  0  0  0  0
    2.8174   -1.8355    0.0000 C   0  0  0  0  0  0  0  0  0  0  0  0
    3.6275   -0.4409    0.0000 C   0  0  0  0  0  0  0  0  0  0  0  0
    0.1462   -1.4254    0.0000 C   0  0  0  0  0  0  0  0  0  0  0  0
    4.4853   -1.8612    0.0000 C   0  0  0  0  0  0  0  0  0  0  0  0
    5.3246   -1.3895    0.0000 C   0  0  0  0  0  0  0  0  0  0  0  0
   -5.7962    1.4047    0.0000 C   0  0  0  0  0  0  0  0  0  0  0  0
   -5.7962   -0.3641    0.0000 C   0  0  0  0  0  0  0  0  0  0  0  0
    6.2371   -1.9380    0.0000 C   0  0  0  0  0  0  0  0  0  0  0  0
   -6.2371    0.5229    0.0000 C   0  0  0  0  0  0  0  0  0  0  0  0
  1  2  2  0
  1  3  1  0
  2  4  1  0
  1  5  1  0
  3  6  1  0
  4  6  2  0
  5  7  1  0
  2  8  1  0
  8  9  3  0
  7 10  1  0
 10 11  1  0
  7 12  2  0
 11 13  1  0
  4 14  1  0
  6 15  1  0
 16 20  2  0
 13 17  1  0
 13 18  2  0
 17 19  2  0
 16 19  1  0
 18 20  1  0
 10 21  1  0
 16 22  1  0
 22 23  1  0
 14 24  1  0
 15 25  1  0
 23 26  1  0
 25 27  1  0
 24 27  1  0
M  END
>  <IDNUMBER>  (431) 
8010-3485

>  <available>  (431) 
23

>  <H_acceptor>  (431) 
4

>  <H_donor>  (431) 
1

>  <B_rotN>  (431) 
8

>  <N_O>  (431) 
4

>  <logP>  (431) 
5.9046

>  <logD>  (431) 
4.4866

>  <logSw>  (431) 
-5.3852

>  <PSA>  (431) 
47.221

>  <pKa_ma>  (431) 
5.9989

>  <pKa_mb>  (431) 
-4.7655

>  <N_Chirals>  (431) 
1

>  <Name>  (431) 
N-(3-cyano-5,6,7,8-tetrahydro-4H-cyclohepta[b]thiophen-2-yl)-2-(4-propylphenoxy)propanamide

>  <Smile>  (431) 
CCCc(cc1)ccc1OC(C)C(Nc(sc1c2CCCCC1)c2C#N)=O

>  <Color>  (431) 
NOT COLORED

>  <Collection>  (431) 
DC

>  <InChI>  (431) 
InChI=1S/C22H26N2O2S/c1-3-7-16-10-12-17(13-11-16)26-15(2)21(25)24-22-19(14-23)18-8-5-4-6-9-20(18)27-22/h10-13,15H,3-9H2,1-2H3,(H,24,25)/t15-/m0/s1

>  <InChI Key>  (431) 
XDQQVUDIOGXBDB-HNNXBMFYSA-N

>  <PERCENTSP3>  (431) 
45.46

>  <Link>  (431) 
https://www.chemdiv.com/catalog/screening-compounds/compound-8010-3485/

>  <MFCDNUMBER>  (431) 
MFCD01871928

>  <STEREO>  (431) 
RACEMIC MIXTURE

>  <State>  (431) 
Solid

>  <Similarity score>  (431) 
0.19

$$$$
1-{3-fluoro-3-[3-(pyridin-4-yl)-1,2,4-oxadiazol-5-yl]piperidin-1-yl}-2-(4-methox
     RDKit          2D

 29 32  0  0  0  0  0  0  0  0999 V2000
   -0.8929    2.6707    0.0000 N   0  0  0  0  0  0  0  0  0  0  0  0
    0.0970    2.8271    0.0000 C   0  0  0  0  0  0  0  0  0  0  0  0
    0.8083    2.1161    0.0000 C   0  0  0  0  0  0  0  0  0  0  0  0
   -1.3502    3.5603    0.0000 C   0  0  0  0  0  0  0  0  0  0  0  0
   -0.6359    4.2683    0.0000 N   0  0  0  0  0  0  0  0  0  0  0  0
    2.3056    1.2484    0.0000 N   0  0  0  0  0  0  0  0  0  0  0  0
    0.2474    3.8170    0.0000 O   0  0  0  0  0  0  0  0  0  0  0  0
    2.8037    0.3837    0.0000 C   0  0  0  0  0  0  0  0  0  0  0  0
    1.3064    1.2484    0.0000 C   0  0  0  0  0  0  0  0  0  0  0  0
    2.3056   -0.4810    0.0000 C   0  0  0  0  0  0  0  0  0  0  0  0
   -2.3371    3.7200    0.0000 C   0  0  0  0  0  0  0  0  0  0  0  0
    3.8062    0.3837    0.0000 O   0  0  0  0  0  0  0  0  0  0  0  0
    0.4227    1.1920    0.0000 F   0  0  0  0  0  0  0  0  0  0  0  0
   -4.3043    4.0302    0.0000 N   0  0  0  0  0  0  0  0  0  0  0  0
    2.8037   -1.3454    0.0000 C   0  0  0  0  0  0  0  0  0  0  0  0
    1.3064    2.9901    0.0000 C   0  0  0  0  0  0  0  0  0  0  0  0
    2.8037    2.1161    0.0000 C   0  0  0  0  0  0  0  0  0  0  0  0
    3.8062   -3.0748    0.0000 C   0  0  0  0  0  0  0  0  0  0  0  0
    2.3056   -2.2101    0.0000 C   0  0  0  0  0  0  0  0  0  0  0  0
    3.8062   -1.3454    0.0000 C   0  0  0  0  0  0  0  0  0  0  0  0
    4.3043   -2.2101    0.0000 C   0  0  0  0  0  0  0  0  0  0  0  0
    2.8037   -3.0748    0.0000 C   0  0  0  0  0  0  0  0  0  0  0  0
    4.3043   -3.9392    0.0000 O   0  0  0  0  0  0  0  0  0  0  0  0
    2.3056    2.9901    0.0000 C   0  0  0  0  0  0  0  0  0  0  0  0
   -3.6810    4.8039    0.0000 C   0  0  0  0  0  0  0  0  0  0  0  0
   -3.9533    3.0934    0.0000 C   0  0  0  0  0  0  0  0  0  0  0  0
   -2.6941    4.6505    0.0000 C   0  0  0  0  0  0  0  0  0  0  0  0
   -2.9604    2.9400    0.0000 C   0  0  0  0  0  0  0  0  0  0  0  0
    3.8062   -4.8039    0.0000 C   0  0  0  0  0  0  0  0  0  0  0  0
  1  2  2  0
  2  3  1  0
  1  4  1  0
  4  5  2  0
  5  7  1  0
  6  9  1  0
  2  7  1  0
  6  8  1  0
  3  9  1  0
  8 10  1  0
  4 11  1  0
  8 12  2  0
  3 13  1  0
 14 26  1  0
 14 25  2  0
 10 15  1  0
  3 16  1  0
 17 24  1  0
  6 17  1  0
 18 21  1  0
 15 19  2  0
 15 20  1  0
 20 21  2  0
 19 22  1  0
 18 22  2  0
 18 23  1  0
 16 24  1  0
 25 27  1  0
 26 28  2  0
 11 27  2  0
 11 28  1  0
 23 29  1  0
M  END
>  <IDNUMBER>  (432) 
SA92-0168

>  <available>  (432) 
28

>  <H_acceptor>  (432) 
7

>  <H_donor>  (432) 
0

>  <B_rotN>  (432) 
6

>  <N_O>  (432) 
7

>  <logP>  (432) 
2.982

>  <logD>  (432) 
2.9819

>  <logSw>  (432) 
-2.9525

>  <PSA>  (432) 
64.671

>  <pKa_ma>  (432) 
17.9425

>  <pKa_mb>  (432) 
3.6841

>  <N_Chirals>  (432) 
1

>  <Name>  (432) 
1-{3-fluoro-3-[3-(pyridin-4-yl)-1,2,4-oxadiazol-5-yl]piperidin-1-yl}-2-(4-methoxyphenyl)ethan-1-one

>  <Smile>  (432) 
COc1ccc(CC(N(CCC2)CC2(c2nc(-c3ccncc3)no2)F)=O)cc1

>  <Color>  (432) 
YELLOW

>  <Collection>  (432) 
IC

>  <InChI>  (432) 
InChI=1S/C21H21FN4O3/c1-28-17-5-3-15(4-6-17)13-18(27)26-12-2-9-21(22,14-26)20-24-19(25-29-20)16-7-10-23-11-8-16/h3-8,10-11H,2,9,12-14H2,1H3/t21-/m0/s1

>  <InChI Key>  (432) 
PZWRWFORUQNVMQ-NRFANRHFSA-N

>  <PERCENTSP3>  (432) 
33.33

>  <Link>  (432) 
https://www.chemdiv.com/catalog/screening-compounds/compound-SA92-0168/

>  <MFCDNUMBER>  (432) 
MFCD32243200

>  <CLNUMBER>  (432) 
CM4899

>  <STEREO>  (432) 
RACEMIC MIXTURE

>  <State>  (432) 
Liquid

>  <Similarity score>  (432) 
0.19

$$$$
N-(3-cyano-4,5,6,7-tetrahydro-1-benzothiophen-2-yl)-5-(propan-2-yl)-1,2-oxazole-
     RDKit          2D

 22 24  0  0  0  0  0  0  0  0999 V2000
   -0.5790   -1.4913    0.0000 C   0  0  0  0  0  0  0  0  0  0  0  0
    0.0277   -2.2642    0.0000 C   0  0  0  0  0  0  0  0  0  0  0  0
    0.2397    1.6850    0.0000 C   0  0  0  0  0  0  0  0  0  0  0  0
   -1.5043   -1.8257    0.0000 S   0  0  0  0  0  0  0  0  0  0  0  0
   -0.5030   -3.0808    0.0000 C   0  0  0  0  0  0  0  0  0  0  0  0
   -0.4592    2.3218    0.0000 N   0  0  0  0  0  0  0  0  0  0  0  0
   -0.5790   -0.4763    0.0000 N   0  0  0  0  0  0  0  0  0  0  0  0
    1.0126    2.3032    0.0000 C   0  0  0  0  0  0  0  0  0  0  0  0
   -1.4627   -2.8200    0.0000 C   0  0  0  0  0  0  0  0  0  0  0  0
    0.2859    0.0243    0.0000 C   0  0  0  0  0  0  0  0  0  0  0  0
    0.7336    3.1729    0.0000 C   0  0  0  0  0  0  0  0  0  0  0  0
   -0.1755    3.1822    0.0000 O   0  0  0  0  0  0  0  0  0  0  0  0
    1.0426   -2.2018    0.0000 C   0  0  0  0  0  0  0  0  0  0  0  0
    2.0506   -2.1718    0.0000 N   0  0  0  0  0  0  0  0  0  0  0  0
    1.0588   -0.4602    0.0000 O   0  0  0  0  0  0  0  0  0  0  0  0
    1.2847    3.9134    0.0000 C   0  0  0  0  0  0  0  0  0  0  0  0
   -0.2469   -4.0518    0.0000 C   0  0  0  0  0  0  0  0  0  0  0  0
   -2.1868   -3.5212    0.0000 C   0  0  0  0  0  0  0  0  0  0  0  0
    0.9225    4.7646    0.0000 C   0  0  0  0  0  0  0  0  0  0  0  0
    2.1868    3.8234    0.0000 C   0  0  0  0  0  0  0  0  0  0  0  0
   -0.9575   -4.7646    0.0000 C   0  0  0  0  0  0  0  0  0  0  0  0
   -1.9285   -4.5016    0.0000 C   0  0  0  0  0  0  0  0  0  0  0  0
  1  2  2  0
  3 10  1  0
  1  4  1  0
  2  5  1  0
  3  6  2  0
  1  7  1  0
  3  8  1  0
  4  9  1  0
  5  9  2  0
  7 10  1  0
  8 11  2  0
 11 12  1  0
  6 12  1  0
  2 13  1  0
 13 14  3  0
 10 15  2  0
 11 16  1  0
  5 17  1  0
  9 18  1  0
 16 19  1  0
 16 20  1  0
 17 21  1  0
 21 22  1  0
 18 22  1  0
M  END
>  <IDNUMBER>  (433) 
C226-2941

>  <available>  (433) 
48

>  <H_acceptor>  (433) 
5

>  <H_donor>  (433) 
1

>  <B_rotN>  (433) 
5

>  <N_O>  (433) 
5

>  <logP>  (433) 
3.9048

>  <logD>  (433) 
2.2344

>  <logSw>  (433) 
-4.1434

>  <PSA>  (433) 
61.908

>  <pKa_ma>  (433) 
5.739

>  <pKa_mb>  (433) 
-5.3583

>  <N_Chirals>  (433) 
0

>  <Name>  (433) 
N-(3-cyano-4,5,6,7-tetrahydro-1-benzothiophen-2-yl)-5-(propan-2-yl)-1,2-oxazole-3-carboxamide

>  <Smile>  (433) 
CC(C)c1cc(C(Nc(sc2c3CCCC2)c3C#N)=O)no1

>  <Color>  (433) 
ORANGE

>  <Collection>  (433) 
DC

>  <InChI>  (433) 
InChI=1S/C16H17N3O2S/c1-9(2)13-7-12(19-21-13)15(20)18-16-11(8-17)10-5-3-4-6-14(10)22-16/h7,9H,3-6H2,1-2H3,(H,18,20)

>  <InChI Key>  (433) 
DFPPLONANWUOAM-UHFFFAOYSA-N

>  <PERCENTSP3>  (433) 
43.8

>  <Link>  (433) 
https://www.chemdiv.com/catalog/screening-compounds/compound-C226-2941/

>  <MFCDNUMBER>  (433) 
MFCD09782910

>  <CLNUMBER>  (433) 
CL2030

>  <STEREO>  (433) 
ACHIRAL

>  <State>  (433) 
Solid

>  <Similarity score>  (433) 
0.19

$$$$
N-(3-cyano-4,5,6,7-tetrahydro-1-benzothiophen-2-yl)-6-cyclopropyl-3-(4-methoxyph
     RDKit          2D

 34 39  0  0  0  0  0  0  0  0999 V2000
    0.1208    1.0978    0.0000 C   0  0  0  0  0  0  0  0  0  0  0  0
    0.3457    2.0935    0.0000 C   0  0  0  0  0  0  0  0  0  0  0  0
    0.7833   -2.2935    0.0000 C   0  0  0  0  0  0  0  0  0  0  0  0
    1.4415   -3.0433    0.0000 C   0  0  0  0  0  0  0  0  0  0  0  0
    1.1081   -1.3435    0.0000 C   0  0  0  0  0  0  0  0  0  0  0  0
   -0.0458   -3.6808    0.0000 N   0  0  0  0  0  0  0  0  0  0  0  0
   -0.8707    1.0102    0.0000 S   0  0  0  0  0  0  0  0  0  0  0  0
   -0.5083    2.5934    0.0000 C   0  0  0  0  0  0  0  0  0  0  0  0
   -0.1332   -2.6809    0.0000 C   0  0  0  0  0  0  0  0  0  0  0  0
    0.7790    0.3562    0.0000 N   0  0  0  0  0  0  0  0  0  0  0  0
    0.4542   -0.5935    0.0000 C   0  0  0  0  0  0  0  0  0  0  0  0
    2.4206   -2.8559    0.0000 N   0  0  0  0  0  0  0  0  0  0  0  0
   -1.2706    1.9518    0.0000 C   0  0  0  0  0  0  0  0  0  0  0  0
    0.9291   -3.9057    0.0000 O   0  0  0  0  0  0  0  0  0  0  0  0
    2.7454   -1.9058    0.0000 C   0  0  0  0  0  0  0  0  0  0  0  0
    2.0913   -1.1560    0.0000 C   0  0  0  0  0  0  0  0  0  0  0  0
    1.2456    2.4975    0.0000 C   0  0  0  0  0  0  0  0  0  0  0  0
    3.7286   -1.7184    0.0000 C   0  0  0  0  0  0  0  0  0  0  0  0
    2.1371    2.9058    0.0000 N   0  0  0  0  0  0  0  0  0  0  0  0
    4.6701   -2.0435    0.0000 C   0  0  0  0  0  0  0  0  0  0  0  0
    4.4827   -1.0562    0.0000 C   0  0  0  0  0  0  0  0  0  0  0  0
   -1.0789   -2.3642    0.0000 C   0  0  0  0  0  0  0  0  0  0  0  0
   -0.5290   -0.7812    0.0000 O   0  0  0  0  0  0  0  0  0  0  0  0
   -1.8372   -3.0183    0.0000 C   0  0  0  0  0  0  0  0  0  0  0  0
   -1.2706   -1.3810    0.0000 C   0  0  0  0  0  0  0  0  0  0  0  0
   -2.9705   -1.7144    0.0000 C   0  0  0  0  0  0  0  0  0  0  0  0
   -0.6833    3.5599    0.0000 C   0  0  0  0  0  0  0  0  0  0  0  0
   -2.2205   -1.0562    0.0000 C   0  0  0  0  0  0  0  0  0  0  0  0
   -2.7787   -2.6933    0.0000 C   0  0  0  0  0  0  0  0  0  0  0  0
   -2.2288    2.2683    0.0000 C   0  0  0  0  0  0  0  0  0  0  0  0
   -3.9162   -1.3810    0.0000 O   0  0  0  0  0  0  0  0  0  0  0  0
   -4.6701   -2.0435    0.0000 C   0  0  0  0  0  0  0  0  0  0  0  0
   -1.6332    3.9057    0.0000 C   0  0  0  0  0  0  0  0  0  0  0  0
   -2.3955    3.2641    0.0000 C   0  0  0  0  0  0  0  0  0  0  0  0
  1  2  2  0
  3  5  1  0
  3  4  2  0
  5 11  1  0
  6  9  2  0
  6 14  1  0
  1  7  1  0
  2  8  1  0
  3  9  1  0
  1 10  1  0
 10 11  1  0
 12 15  2  0
  4 12  1  0
  7 13  1  0
  8 13  2  0
  4 14  1  0
 15 16  1  0
  5 16  2  0
  2 17  1  0
 15 18  1  0
 17 19  3  0
 18 20  1  0
 18 21  1  0
 20 21  1  0
  9 22  1  0
 11 23  2  0
 22 24  2  0
 22 25  1  0
 26 28  1  0
 26 29  2  0
  8 27  1  0
 25 28  2  0
 24 29  1  0
 13 30  1  0
 26 31  1  0
 31 32  1  0
 27 33  1  0
 30 34  1  0
 33 34  1  0
M  END
>  <IDNUMBER>  (434) 
Y505-2298

>  <available>  (434) 
17

>  <H_acceptor>  (434) 
7

>  <H_donor>  (434) 
1

>  <B_rotN>  (434) 
7

>  <N_O>  (434) 
7

>  <logP>  (434) 
5.6464

>  <logD>  (434) 
4.141

>  <logSw>  (434) 
-5.6909

>  <PSA>  (434) 
78.613

>  <pKa_ma>  (434) 
5.9084

>  <pKa_mb>  (434) 
-0.3426

>  <N_Chirals>  (434) 
0

>  <Name>  (434) 
N-(3-cyano-4,5,6,7-tetrahydro-1-benzothiophen-2-yl)-6-cyclopropyl-3-(4-methoxyphenyl)[1,2]oxazolo[5,4-b]pyridine-4-carboxamide

>  <Smile>  (434) 
COc(cc1)ccc1-c1noc2nc(C3CC3)cc(C(Nc(sc3c4CCCC3)c4C#N)=O)c12

>  <Color>  (434) 
BROWN

>  <Collection>  (434) 
DC

>  <InChI>  (434) 
InChI=1S/C26H22N4O3S/c1-32-16-10-8-15(9-11-16)23-22-18(12-20(14-6-7-14)28-25(22)33-30-23)24(31)29-26-19(13-27)17-4-2-3-5-21(17)34-26/h8-12,14H,2-7H2,1H3,(H,29,31)

>  <InChI Key>  (434) 
FSQSTPJPFLTSGF-UHFFFAOYSA-N

>  <PERCENTSP3>  (434) 
30.8

>  <Link>  (434) 
https://www.chemdiv.com/catalog/screening-compounds/compound-Y505-2298/

>  <MFCDNUMBER>  (434) 
MFCD10701920

>  <CLNUMBER>  (434) 
CL7490

>  <STEREO>  (434) 
ACHIRAL

>  <State>  (434) 
Solid

>  <Similarity score>  (434) 
0.19

$$$$
N-(3-cyano-5,6,7,8-tetrahydro-4H-cyclohepta[b]thiophen-2-yl)-6-cyclopropyl-3-(4-
     RDKit          2D

 35 40  0  0  0  0  0  0  0  0999 V2000
    1.6182    0.6311    0.0000 C   0  0  0  0  0  0  0  0  0  0  0  0
    2.3057    1.3808    0.0000 C   0  0  0  0  0  0  0  0  0  0  0  0
   -0.2062   -1.7683    0.0000 C   0  0  0  0  0  0  0  0  0  0  0  0
    0.1813   -2.6888    0.0000 C   0  0  0  0  0  0  0  0  0  0  0  0
    0.3936   -0.9686    0.0000 C   0  0  0  0  0  0  0  0  0  0  0  0
   -1.4308   -2.8304    0.0000 N   0  0  0  0  0  0  0  0  0  0  0  0
    2.1181   -0.2145    0.0000 S   0  0  0  0  0  0  0  0  0  0  0  0
    3.2136    0.9559    0.0000 C   0  0  0  0  0  0  0  0  0  0  0  0
   -1.2058   -1.8557    0.0000 C   0  0  0  0  0  0  0  0  0  0  0  0
    0.6018    0.7560    0.0000 N   0  0  0  0  0  0  0  0  0  0  0  0
    0.0022   -0.0439    0.0000 C   0  0  0  0  0  0  0  0  0  0  0  0
    1.1768   -2.8055    0.0000 N   0  0  0  0  0  0  0  0  0  0  0  0
    3.0888   -0.0312    0.0000 C   0  0  0  0  0  0  0  0  0  0  0  0
   -0.5686   -3.3427    0.0000 O   0  0  0  0  0  0  0  0  0  0  0  0
    1.7766   -2.0059    0.0000 C   0  0  0  0  0  0  0  0  0  0  0  0
    1.3810   -1.0892    0.0000 C   0  0  0  0  0  0  0  0  0  0  0  0
    2.1348    2.3680    0.0000 C   0  0  0  0  0  0  0  0  0  0  0  0
    2.7679   -2.1307    0.0000 C   0  0  0  0  0  0  0  0  0  0  0  0
    1.9682    3.3427    0.0000 N   0  0  0  0  0  0  0  0  0  0  0  0
    3.5678   -2.7305    0.0000 C   0  0  0  0  0  0  0  0  0  0  0  0
    3.6926   -1.7309    0.0000 C   0  0  0  0  0  0  0  0  0  0  0  0
   -2.0056   -1.2558    0.0000 C   0  0  0  0  0  0  0  0  0  0  0  0
   -0.9935    0.0729    0.0000 O   0  0  0  0  0  0  0  0  0  0  0  0
   -2.9221   -1.6432    0.0000 C   0  0  0  0  0  0  0  0  0  0  0  0
   -1.8806   -0.2645    0.0000 C   0  0  0  0  0  0  0  0  0  0  0  0
   -3.6052   -0.0563    0.0000 C   0  0  0  0  0  0  0  0  0  0  0  0
    4.0801    1.4808    0.0000 C   0  0  0  0  0  0  0  0  0  0  0  0
   -2.6805    0.3355    0.0000 C   0  0  0  0  0  0  0  0  0  0  0  0
   -3.7177   -1.0435    0.0000 C   0  0  0  0  0  0  0  0  0  0  0  0
    3.7760   -0.7519    0.0000 C   0  0  0  0  0  0  0  0  0  0  0  0
   -4.4008    0.5478    0.0000 O   0  0  0  0  0  0  0  0  0  0  0  0
   -5.3172    0.1562    0.0000 C   0  0  0  0  0  0  0  0  0  0  0  0
    5.0048    1.1058    0.0000 C   0  0  0  0  0  0  0  0  0  0  0  0
    4.7675   -0.6811    0.0000 C   0  0  0  0  0  0  0  0  0  0  0  0
    5.3172    0.1562    0.0000 C   0  0  0  0  0  0  0  0  0  0  0  0
  1  2  2  0
  3  5  1  0
  3  4  2  0
  5 11  1  0
  6  9  2  0
  6 14  1  0
  1  7  1  0
  2  8  1  0
  3  9  1  0
  1 10  1  0
 10 11  1  0
 12 15  2  0
  4 12  1  0
  7 13  1  0
  8 13  2  0
  4 14  1  0
 15 16  1  0
  5 16  2  0
  2 17  1  0
 15 18  1  0
 17 19  3  0
 18 20  1  0
 18 21  1  0
 20 21  1  0
  9 22  1  0
 11 23  2  0
 22 24  2  0
 22 25  1  0
 26 28  1  0
 26 29  2  0
  8 27  1  0
 25 28  2  0
 24 29  1  0
 13 30  1  0
 26 31  1  0
 31 32  1  0
 27 33  1  0
 33 35  1  0
 30 34  1  0
 34 35  1  0
M  END
>  <IDNUMBER>  (435) 
Y505-2299

>  <available>  (435) 
17

>  <H_acceptor>  (435) 
7

>  <H_donor>  (435) 
1

>  <B_rotN>  (435) 
7

>  <N_O>  (435) 
7

>  <logP>  (435) 
6.1423

>  <logD>  (435) 
4.6369

>  <logSw>  (435) 
-5.6765

>  <PSA>  (435) 
78.944

>  <pKa_ma>  (435) 
5.9084

>  <pKa_mb>  (435) 
-0.3426

>  <N_Chirals>  (435) 
0

>  <Name>  (435) 
N-(3-cyano-5,6,7,8-tetrahydro-4H-cyclohepta[b]thiophen-2-yl)-6-cyclopropyl-3-(4-methoxyphenyl)[1,2]oxazolo[5,4-b]pyridine-4-carboxamide

>  <Smile>  (435) 
COc(cc1)ccc1-c1noc2nc(C3CC3)cc(C(Nc(sc3c4CCCCC3)c4C#N)=O)c12

>  <Color>  (435) 
BROWN

>  <Collection>  (435) 
DC

>  <InChI>  (435) 
InChI=1S/C27H24N4O3S/c1-33-17-11-9-16(10-12-17)24-23-19(13-21(15-7-8-15)29-26(23)34-31-24)25(32)30-27-20(14-28)18-5-3-2-4-6-22(18)35-27/h9-13,15H,2-8H2,1H3,(H,30,32)

>  <InChI Key>  (435) 
WVKCYYZLRAXGGS-UHFFFAOYSA-N

>  <PERCENTSP3>  (435) 
33.3

>  <Link>  (435) 
https://www.chemdiv.com/catalog/screening-compounds/compound-Y505-2299/

>  <MFCDNUMBER>  (435) 
MFCD10701637

>  <CLNUMBER>  (435) 
CL7490

>  <STEREO>  (435) 
ACHIRAL

>  <State>  (435) 
Solid

>  <Similarity score>  (435) 
0.19

$$$$
2-{[4-(difluoromethyl)-6-(3,4-dimethoxyphenyl)pyrimidin-2-yl]amino}-4,5,6,7-tetr
     RDKit          2D

 31 34  0  0  0  0  0  0  0  0999 V2000
    2.2087    0.0042    0.0000 C   0  0  0  0  0  0  0  0  0  0  0  0
    1.7962   -0.9210    0.0000 C   0  0  0  0  0  0  0  0  0  0  0  0
    0.7085    0.8668    0.0000 C   0  0  0  0  0  0  0  0  0  0  0  0
    3.2089   -0.0959    0.0000 S   0  0  0  0  0  0  0  0  0  0  0  0
    1.7086    0.8668    0.0000 N   0  0  0  0  0  0  0  0  0  0  0  0
    2.5462   -1.5793    0.0000 C   0  0  0  0  0  0  0  0  0  0  0  0
    3.4171   -1.0960    0.0000 C   0  0  0  0  0  0  0  0  0  0  0  0
    0.2084    0.0042    0.0000 N   0  0  0  0  0  0  0  0  0  0  0  0
    0.2168    1.7294    0.0000 N   0  0  0  0  0  0  0  0  0  0  0  0
   -0.7918    0.0042    0.0000 C   0  0  0  0  0  0  0  0  0  0  0  0
   -0.7833    1.7336    0.0000 C   0  0  0  0  0  0  0  0  0  0  0  0
    0.8418   -1.1461    0.0000 C   0  0  0  0  0  0  0  0  0  0  0  0
   -1.2919    0.8709    0.0000 C   0  0  0  0  0  0  0  0  0  0  0  0
   -0.1167   -1.3711    0.0000 N   0  0  0  0  0  0  0  0  0  0  0  0
   -1.2919   -0.8585    0.0000 C   0  0  0  0  0  0  0  0  0  0  0  0
   -2.2920   -0.8585    0.0000 C   0  0  0  0  0  0  0  0  0  0  0  0
   -2.7920   -1.7294    0.0000 C   0  0  0  0  0  0  0  0  0  0  0  0
   -1.2837    2.5962    0.0000 C   0  0  0  0  0  0  0  0  0  0  0  0
   -2.2920   -2.5962    0.0000 C   0  0  0  0  0  0  0  0  0  0  0  0
   -0.7918   -1.7294    0.0000 C   0  0  0  0  0  0  0  0  0  0  0  0
   -1.2919   -2.5962    0.0000 C   0  0  0  0  0  0  0  0  0  0  0  0
   -0.7709    3.4589    0.0000 F   0  0  0  0  0  0  0  0  0  0  0  0
   -2.2836    2.6046    0.0000 F   0  0  0  0  0  0  0  0  0  0  0  0
    2.5295   -2.5588    0.0000 C   0  0  0  0  0  0  0  0  0  0  0  0
   -3.7921   -1.7294    0.0000 O   0  0  0  0  0  0  0  0  0  0  0  0
    4.2923   -1.5920    0.0000 C   0  0  0  0  0  0  0  0  0  0  0  0
   -2.7920   -3.4589    0.0000 O   0  0  0  0  0  0  0  0  0  0  0  0
   -4.2923   -0.8585    0.0000 C   0  0  0  0  0  0  0  0  0  0  0  0
   -3.7921   -3.4589    0.0000 C   0  0  0  0  0  0  0  0  0  0  0  0
    3.3963   -3.0838    0.0000 C   0  0  0  0  0  0  0  0  0  0  0  0
    4.2674   -2.5962    0.0000 C   0  0  0  0  0  0  0  0  0  0  0  0
  1  2  2  0
  3  5  1  0
  1  4  1  0
  1  5  1  0
  2  6  1  0
  4  7  1  0
  6  7  2  0
  3  8  1  0
  3  9  2  0
  8 10  2  0
 10 13  1  0
  9 11  1  0
  2 12  1  0
 11 13  2  0
 12 14  3  0
 10 15  1  0
 15 16  1  0
 16 17  2  0
 11 18  1  0
 19 21  2  0
 17 19  1  0
 15 20  2  0
 20 21  1  0
 18 22  1  0
 18 23  1  0
  6 24  1  0
 17 25  1  0
  7 26  1  0
 19 27  1  0
 25 28  1  0
 27 29  1  0
 24 30  1  0
 26 31  1  0
 30 31  1  0
M  END
>  <IDNUMBER>  (436) 
Y505-1727

>  <available>  (436) 
21

>  <H_acceptor>  (436) 
5

>  <H_donor>  (436) 
1

>  <B_rotN>  (436) 
7

>  <N_O>  (436) 
6

>  <logP>  (436) 
5.304

>  <logD>  (436) 
5.2988

>  <logSw>  (436) 
-5.4523

>  <PSA>  (436) 
60.617

>  <pKa_ma>  (436) 
11.8181

>  <pKa_mb>  (436) 
5.4812

>  <N_Chirals>  (436) 
0

>  <Name>  (436) 
2-{[4-(difluoromethyl)-6-(3,4-dimethoxyphenyl)pyrimidin-2-yl]amino}-4,5,6,7-tetrahydro-1-benzothiophene-3-carbonitrile

>  <Smile>  (436) 
COc(ccc(-c1cc(C(F)F)nc(Nc(sc2c3CCCC2)c3C#N)n1)c1)c1OC

>  <Color>  (436) 
BROWN

>  <Collection>  (436) 
DC

>  <InChI>  (436) 
InChI=1S/C22H20F2N4O2S/c1-29-17-8-7-12(9-18(17)30-2)15-10-16(20(23)24)27-22(26-15)28-21-14(11-25)13-5-3-4-6-19(13)31-21/h7-10,20H,3-6H2,1-2H3,(H,26,27,28)

>  <InChI Key>  (436) 
SFFNXGXGTBBPOK-UHFFFAOYSA-N

>  <PERCENTSP3>  (436) 
31.8

>  <Link>  (436) 
https://www.chemdiv.com/catalog/screening-compounds/compound-Y505-1727/

>  <MFCDNUMBER>  (436) 
MFCD10700556

>  <STEREO>  (436) 
ACHIRAL

>  <State>  (436) 
Solid

>  <Similarity score>  (436) 
0.19

$$$$
2-amino-6-methyl-4,5,6,7-tetrahydrothieno[2,3-c]pyridine-3-carbonitrile
     RDKit          2D

 13 14  0  0  0  0  0  0  0  0999 V2000
    0.9791   -0.0515    0.0000 C   0  0  0  0  0  0  0  0  0  0  0  0
    1.5684   -0.8581    0.0000 C   0  0  0  0  0  0  0  0  0  0  0  0
    0.0292   -0.3540    0.0000 C   0  0  0  0  0  0  0  0  0  0  0  0
    0.0292   -1.3555    0.0000 C   0  0  0  0  0  0  0  0  0  0  0  0
    0.9791   -1.6693    0.0000 S   0  0  0  0  0  0  0  0  0  0  0  0
    1.2861    0.9030    0.0000 C   0  0  0  0  0  0  0  0  0  0  0  0
    1.5415    1.8663    0.0000 N   0  0  0  0  0  0  0  0  0  0  0  0
   -1.6983   -1.3622    0.0000 N   0  0  0  0  0  0  0  0  0  0  0  0
   -0.8379   -1.8529    0.0000 C   0  0  0  0  0  0  0  0  0  0  0  0
   -0.8379    0.1434    0.0000 C   0  0  0  0  0  0  0  0  0  0  0  0
    2.5700   -0.8581    0.0000 N   0  0  0  0  0  0  0  0  0  0  0  0
   -1.6983   -0.3540    0.0000 C   0  0  0  0  0  0  0  0  0  0  0  0
   -2.5700   -1.8663    0.0000 C   0  0  0  0  0  0  0  0  0  0  0  0
  1  2  2  0
  1  3  1  0
  3  4  2  0
  4  5  1  0
  2  5  1  0
  1  6  1  0
  6  7  3  0
  8 12  1  0
  4  9  1  0
  8  9  1  0
  3 10  1  0
  2 11  1  0
 10 12  1  0
  8 13  1  0
M  END
>  <IDNUMBER>  (437) 
K815-1018

>  <available>  (437) 
11

>  <H_acceptor>  (437) 
2

>  <H_donor>  (437) 
2

>  <B_rotN>  (437) 
1

>  <N_O>  (437) 
3

>  <logP>  (437) 
0.7961

>  <logD>  (437) 
0.7867

>  <logSw>  (437) 
-0.8538

>  <PSA>  (437) 
41.902

>  <pKa_ma>  (437) 
15.4685

>  <pKa_mb>  (437) 
5.7408

>  <N_Chirals>  (437) 
0

>  <Name>  (437) 
2-amino-6-methyl-4,5,6,7-tetrahydrothieno[2,3-c]pyridine-3-carbonitrile

>  <Smile>  (437) 
CN(CC1)Cc2c1c(C#N)c(N)s2

>  <Color>  (437) 
YELLOW

>  <Collection>  (437) 
DC

>  <InChI>  (437) 
InChI=1S/C9H11N3S/c1-12-3-2-6-7(4-10)9(11)13-8(6)5-12/h2-3,5,11H2,1H3

>  <InChI Key>  (437) 
WVPOJZUKIIRHOQ-UHFFFAOYSA-N

>  <PERCENTSP3>  (437) 
44.4

>  <Link>  (437) 
https://www.chemdiv.com/catalog/screening-compounds/compound-K815-1018/

>  <MFCDNUMBER>  (437) 
MFCD00712387

>  <CLNUMBER>  (437) 
CL5675

>  <STEREO>  (437) 
ACHIRAL

>  <State>  (437) 
Solid

>  <Similarity score>  (437) 
0.19

$$$$
1-{3-fluoro-3-[3-(pyridin-4-yl)-1,2,4-oxadiazol-5-yl]piperidin-1-yl}-3-(4-methox
     RDKit          2D

 30 33  0  0  0  0  0  0  0  0999 V2000
   -0.6426    3.1060    0.0000 N   0  0  0  0  0  0  0  0  0  0  0  0
    0.3447    3.2656    0.0000 C   0  0  0  0  0  0  0  0  0  0  0  0
    1.0591    2.5604    0.0000 C   0  0  0  0  0  0  0  0  0  0  0  0
   -1.0939    3.9990    0.0000 C   0  0  0  0  0  0  0  0  0  0  0  0
   -0.3887    4.7137    0.0000 N   0  0  0  0  0  0  0  0  0  0  0  0
    2.5604    1.6893    0.0000 N   0  0  0  0  0  0  0  0  0  0  0  0
    0.5047    4.2468    0.0000 O   0  0  0  0  0  0  0  0  0  0  0  0
    1.5543    1.6893    0.0000 C   0  0  0  0  0  0  0  0  0  0  0  0
    3.0526    0.8212    0.0000 C   0  0  0  0  0  0  0  0  0  0  0  0
   -2.0904    4.1527    0.0000 C   0  0  0  0  0  0  0  0  0  0  0  0
    4.0586    0.8212    0.0000 O   0  0  0  0  0  0  0  0  0  0  0  0
    2.5604   -0.0439    0.0000 C   0  0  0  0  0  0  0  0  0  0  0  0
    0.6708    1.6297    0.0000 F   0  0  0  0  0  0  0  0  0  0  0  0
   -4.0586    4.4693    0.0000 N   0  0  0  0  0  0  0  0  0  0  0  0
    1.5543    3.4193    0.0000 C   0  0  0  0  0  0  0  0  0  0  0  0
    2.5604   -1.7834    0.0000 C   0  0  0  0  0  0  0  0  0  0  0  0
    3.0526    2.5604    0.0000 C   0  0  0  0  0  0  0  0  0  0  0  0
    1.5543   -3.5133    0.0000 C   0  0  0  0  0  0  0  0  0  0  0  0
    3.0526   -0.9153    0.0000 C   0  0  0  0  0  0  0  0  0  0  0  0
    1.5543   -1.7834    0.0000 C   0  0  0  0  0  0  0  0  0  0  0  0
    3.0526   -2.6452    0.0000 C   0  0  0  0  0  0  0  0  0  0  0  0
    1.0591   -2.6452    0.0000 C   0  0  0  0  0  0  0  0  0  0  0  0
    2.5604   -3.5133    0.0000 C   0  0  0  0  0  0  0  0  0  0  0  0
    1.0591   -4.3752    0.0000 O   0  0  0  0  0  0  0  0  0  0  0  0
    2.5604    3.4193    0.0000 C   0  0  0  0  0  0  0  0  0  0  0  0
   -3.7077    3.5383    0.0000 C   0  0  0  0  0  0  0  0  0  0  0  0
   -3.4350    5.2433    0.0000 C   0  0  0  0  0  0  0  0  0  0  0  0
   -2.7203    3.3787    0.0000 C   0  0  0  0  0  0  0  0  0  0  0  0
   -2.4476    5.0896    0.0000 C   0  0  0  0  0  0  0  0  0  0  0  0
    1.5543   -5.2433    0.0000 C   0  0  0  0  0  0  0  0  0  0  0  0
  1  2  2  0
  2  3  1  0
  1  4  1  0
  4  5  2  0
  5  7  1  0
  6  8  1  0
  2  7  1  0
  3  8  1  0
  6  9  1  0
  4 10  1  0
  9 11  2  0
  9 12  1  0
  3 13  1  0
 14 27  2  0
 14 26  1  0
  3 15  1  0
 16 19  1  0
 17 25  1  0
  6 17  1  0
 18 23  1  0
 12 19  1  0
 16 20  2  0
 16 21  1  0
 20 22  1  0
 18 22  2  0
 21 23  2  0
 18 24  1  0
 15 25  1  0
 26 28  2  0
 27 29  1  0
 10 28  1  0
 10 29  2  0
 24 30  1  0
M  END
>  <IDNUMBER>  (438) 
SA92-0183

>  <available>  (438) 
70

>  <H_acceptor>  (438) 
7

>  <H_donor>  (438) 
0

>  <B_rotN>  (438) 
7

>  <N_O>  (438) 
7

>  <logP>  (438) 
3.2908

>  <logD>  (438) 
3.2907

>  <logSw>  (438) 
-3.2472

>  <PSA>  (438) 
64.671

>  <pKa_ma>  (438) 
22.9745

>  <pKa_mb>  (438) 
3.6841

>  <N_Chirals>  (438) 
1

>  <Name>  (438) 
1-{3-fluoro-3-[3-(pyridin-4-yl)-1,2,4-oxadiazol-5-yl]piperidin-1-yl}-3-(4-methoxyphenyl)propan-1-one

>  <Smile>  (438) 
COc1ccc(CCC(N(CCC2)CC2(c2nc(-c3ccncc3)no2)F)=O)cc1

>  <Color>  (438) 
YELLOW

>  <Collection>  (438) 
IC

>  <InChI>  (438) 
InChI=1S/C22H23FN4O3/c1-29-18-6-3-16(4-7-18)5-8-19(28)27-14-2-11-22(23,15-27)21-25-20(26-30-21)17-9-12-24-13-10-17/h3-4,6-7,9-10,12-13H,2,5,8,11,14-15H2,1H3/t22-/m0/s1

>  <InChI Key>  (438) 
JNNBZZARQNPXQU-QFIPXVFZSA-N

>  <PERCENTSP3>  (438) 
36.36

>  <Link>  (438) 
https://www.chemdiv.com/catalog/screening-compounds/compound-SA92-0183/

>  <MFCDNUMBER>  (438) 
MFCD32241446

>  <CLNUMBER>  (438) 
CM4899

>  <STEREO>  (438) 
RACEMIC MIXTURE

>  <State>  (438) 
Liquid

>  <Similarity score>  (438) 
0.18

$$$$
4-(5-{3-fluoro-1-[(4-methyl-1,3-thiazol-5-yl)methyl]piperidin-3-yl}-1,2,4-oxadia
     RDKit          2D

 25 28  0  0  0  0  0  0  0  0999 V2000
   -0.5845   -1.2957    0.0000 N   0  0  0  0  0  0  0  0  0  0  0  0
    0.4027   -1.4522    0.0000 C   0  0  0  0  0  0  0  0  0  0  0  0
   -1.0355   -2.1886    0.0000 C   0  0  0  0  0  0  0  0  0  0  0  0
    1.1077   -0.7472    0.0000 C   0  0  0  0  0  0  0  0  0  0  0  0
   -0.3305   -2.8999    0.0000 N   0  0  0  0  0  0  0  0  0  0  0  0
    2.6116    1.8534    0.0000 C   0  0  0  0  0  0  0  0  0  0  0  0
    0.5592   -2.4424    0.0000 O   0  0  0  0  0  0  0  0  0  0  0  0
    2.2796    3.4358    0.0000 N   0  0  0  0  0  0  0  0  0  0  0  0
    3.0221    2.7654    0.0000 C   0  0  0  0  0  0  0  0  0  0  0  0
    2.6116    0.1175    0.0000 N   0  0  0  0  0  0  0  0  0  0  0  0
    1.6154    1.9569    0.0000 S   0  0  0  0  0  0  0  0  0  0  0  0
    1.4084    2.9344    0.0000 C   0  0  0  0  0  0  0  0  0  0  0  0
    1.6154    0.1175    0.0000 C   0  0  0  0  0  0  0  0  0  0  0  0
    3.1099    0.9887    0.0000 C   0  0  0  0  0  0  0  0  0  0  0  0
   -2.0257   -2.3484    0.0000 C   0  0  0  0  0  0  0  0  0  0  0  0
    0.7285    0.1802    0.0000 F   0  0  0  0  0  0  0  0  0  0  0  0
   -3.9998   -2.6586    0.0000 N   0  0  0  0  0  0  0  0  0  0  0  0
    1.6154   -1.6122    0.0000 C   0  0  0  0  0  0  0  0  0  0  0  0
    3.1099   -0.7472    0.0000 C   0  0  0  0  0  0  0  0  0  0  0  0
    3.9998    2.9721    0.0000 C   0  0  0  0  0  0  0  0  0  0  0  0
    2.6116   -1.6122    0.0000 C   0  0  0  0  0  0  0  0  0  0  0  0
   -3.6426   -1.7249    0.0000 C   0  0  0  0  0  0  0  0  0  0  0  0
   -3.3701   -3.4358    0.0000 C   0  0  0  0  0  0  0  0  0  0  0  0
   -2.6556   -1.5682    0.0000 C   0  0  0  0  0  0  0  0  0  0  0  0
   -2.3891   -3.2758    0.0000 C   0  0  0  0  0  0  0  0  0  0  0  0
  1  2  2  0
  1  3  1  0
  2  4  1  0
  3  5  2  0
  5  7  1  0
  6 14  1  0
  2  7  1  0
  8  9  1  0
  6  9  2  0
 10 13  1  0
  6 11  1  0
 11 12  1  0
  8 12  2  0
  4 13  1  0
 10 14  1  0
  3 15  1  0
  4 16  1  0
 17 23  2  0
 17 22  1  0
  4 18  1  0
 19 21  1  0
 10 19  1  0
  9 20  1  0
 18 21  1  0
 22 24  2  0
 23 25  1  0
 15 24  1  0
 15 25  2  0
M  END
>  <IDNUMBER>  (439) 
SA92-0264

>  <available>  (439) 
65

>  <H_acceptor>  (439) 
6

>  <H_donor>  (439) 
0

>  <B_rotN>  (439) 
4

>  <N_O>  (439) 
6

>  <logP>  (439) 
2.4633

>  <logD>  (439) 
2.3955

>  <logSw>  (439) 
-2.4011

>  <PSA>  (439) 
54.943

>  <pKa_ma>  (439) 
26.9519

>  <pKa_mb>  (439) 
6.6276

>  <N_Chirals>  (439) 
1

>  <Name>  (439) 
4-(5-{3-fluoro-1-[(4-methyl-1,3-thiazol-5-yl)methyl]piperidin-3-yl}-1,2,4-oxadiazol-3-yl)pyridine

>  <Smile>  (439) 
Cc1c(CN(CCC2)CC2(c2nc(-c3ccncc3)no2)F)scn1

>  <Color>  (439) 
YELLOW

>  <Collection>  (439) 
IC

>  <InChI>  (439) 
InChI=1S/C17H18FN5OS/c1-12-14(25-11-20-12)9-23-8-2-5-17(18,10-23)16-21-15(22-24-16)13-3-6-19-7-4-13/h3-4,6-7,11H,2,5,8-10H2,1H3/t17-/m0/s1

>  <InChI Key>  (439) 
ARFZORDUHWTOHJ-KRWDZBQOSA-N

>  <PERCENTSP3>  (439) 
41.18

>  <Link>  (439) 
https://www.chemdiv.com/catalog/screening-compounds/compound-SA92-0264/

>  <MFCDNUMBER>  (439) 
MFCD32242329

>  <CLNUMBER>  (439) 
CM4899

>  <STEREO>  (439) 
RACEMIC MIXTURE

>  <State>  (439) 
Oil

>  <Similarity score>  (439) 
0.18

$$$$
N-(3-cyano-4,5,6,7-tetrahydro-1-benzothiophen-2-yl)-3-(3-{[(5-methyl-1H-benzimid
     RDKit          2D

 33 37  0  0  0  0  0  0  0  0999 V2000
    4.2804    1.2734    0.0000 C   0  0  0  0  0  0  0  0  0  0  0  0
    5.2513    0.9815    0.0000 C   0  0  0  0  0  0  0  0  0  0  0  0
    4.2678    2.2693    0.0000 S   0  0  0  0  0  0  0  0  0  0  0  0
    5.8056    1.7858    0.0000 C   0  0  0  0  0  0  0  0  0  0  0  0
   -3.0842   -2.6278    0.0000 C   0  0  0  0  0  0  0  0  0  0  0  0
   -3.6718   -1.8025    0.0000 N   0  0  0  0  0  0  0  0  0  0  0  0
    0.0626   -0.9065    0.0000 N   0  0  0  0  0  0  0  0  0  0  0  0
    5.2056    2.5945    0.0000 C   0  0  0  0  0  0  0  0  0  0  0  0
   -3.6592   -3.4321    0.0000 N   0  0  0  0  0  0  0  0  0  0  0  0
   -0.5377   -1.7399    0.0000 C   0  0  0  0  0  0  0  0  0  0  0  0
    3.4884    0.6731    0.0000 N   0  0  0  0  0  0  0  0  0  0  0  0
    0.0666   -2.5776    0.0000 N   0  0  0  0  0  0  0  0  0  0  0  0
   -4.6094   -2.1194    0.0000 C   0  0  0  0  0  0  0  0  0  0  0  0
    5.5805    0.0313    0.0000 C   0  0  0  0  0  0  0  0  0  0  0  0
    1.0420   -1.2191    0.0000 C   0  0  0  0  0  0  0  0  0  0  0  0
   -4.6094   -3.1153    0.0000 C   0  0  0  0  0  0  0  0  0  0  0  0
    1.0420   -2.2569    0.0000 O   0  0  0  0  0  0  0  0  0  0  0  0
    5.9058   -0.9065    0.0000 N   0  0  0  0  0  0  0  0  0  0  0  0
    2.5675    1.0607    0.0000 C   0  0  0  0  0  0  0  0  0  0  0  0
   -2.0838   -2.6195    0.0000 S   0  0  0  0  0  0  0  0  0  0  0  0
   -5.4763   -1.6191    0.0000 C   0  0  0  0  0  0  0  0  0  0  0  0
    2.4799    1.7818    0.0000 O   0  0  0  0  0  0  0  0  0  0  0  0
   -1.5837   -1.7525    0.0000 C   0  0  0  0  0  0  0  0  0  0  0  0
   -5.4723   -3.6196    0.0000 C   0  0  0  0  0  0  0  0  0  0  0  0
    1.8797   -0.5939    0.0000 C   0  0  0  0  0  0  0  0  0  0  0  0
    1.7422    0.4231    0.0000 C   0  0  0  0  0  0  0  0  0  0  0  0
   -6.3392   -2.1194    0.0000 C   0  0  0  0  0  0  0  0  0  0  0  0
    6.8017    1.8984    0.0000 C   0  0  0  0  0  0  0  0  0  0  0  0
   -6.3309   -3.1195    0.0000 C   0  0  0  0  0  0  0  0  0  0  0  0
    5.6058    3.5071    0.0000 C   0  0  0  0  0  0  0  0  0  0  0  0
   -7.2019   -1.6191    0.0000 C   0  0  0  0  0  0  0  0  0  0  0  0
    7.2019    2.8319    0.0000 C   0  0  0  0  0  0  0  0  0  0  0  0
    6.5933    3.6196    0.0000 C   0  0  0  0  0  0  0  0  0  0  0  0
  1  2  2  0
  1  3  1  0
  2  4  1  0
  5 20  1  0
  5  6  2  0
  7 15  2  0
  3  8  1  0
  4  8  2  0
  5  9  1  0
  7 10  1  0
  1 11  1  0
 12 17  1  0
 10 12  2  0
  6 13  1  0
  2 14  1  0
 15 25  1  0
  9 16  1  0
 13 16  2  0
 15 17  1  0
 14 18  3  0
 11 19  1  0
 20 23  1  0
 13 21  1  0
 19 22  2  0
 10 23  1  0
 16 24  1  0
 25 26  1  0
 19 26  1  0
 21 27  2  0
 27 29  1  0
  4 28  1  0
 24 29  2  0
  8 30  1  0
 27 31  1  0
 28 32  1  0
 30 33  1  0
 32 33  1  0
M  END
>  <IDNUMBER>  (440) 
J021-0448

>  <available>  (440) 
65

>  <H_acceptor>  (440) 
8

>  <H_donor>  (440) 
2

>  <B_rotN>  (440) 
9

>  <N_O>  (440) 
8

>  <logP>  (440) 
4.1744

>  <logD>  (440) 
2.8555

>  <logSw>  (440) 
-4.4324

>  <PSA>  (440) 
90.234

>  <pKa_ma>  (440) 
6.1024

>  <pKa_mb>  (440) 
6.5756

>  <N_Chirals>  (440) 
0

>  <Name>  (440) 
N-(3-cyano-4,5,6,7-tetrahydro-1-benzothiophen-2-yl)-3-(3-{[(5-methyl-1H-benzimidazol-2-yl)sulfanyl]methyl}-1,2,4-oxadiazol-5-yl)propanamide

>  <Smile>  (440) 
Cc(cc1)cc2c1[nH]c(SCc1noc(CCC(Nc(sc3c4CCCC3)c4C#N)=O)n1)n2

>  <Color>  (440) 
NOT COLORED

>  <Collection>  (440) 
DC

>  <InChI>  (440) 
InChI=1S/C23H22N6O2S2/c1-13-6-7-16-17(10-13)26-23(25-16)32-12-19-27-21(31-29-19)9-8-20(30)28-22-15(11-24)14-4-2-3-5-18(14)33-22/h6-7,10H,2-5,8-9,12H2,1H3,(H,25,26)(H,28,30)

>  <InChI Key>  (440) 
HWAHMFFBRXTCGC-UHFFFAOYSA-N

>  <PERCENTSP3>  (440) 
34.8

>  <Link>  (440) 
https://www.chemdiv.com/catalog/screening-compounds/compound-J021-0448/

>  <MFCDNUMBER>  (440) 
MFCD27218420

>  <CLNUMBER>  (440) 
CL8315

>  <STEREO>  (440) 
ACHIRAL

>  <State>  (440) 
Solid

>  <Similarity score>  (440) 
0.18

$$$$
N-(3-cyano-4,5,6,7-tetrahydro-1-benzothiophen-2-yl)-2-[(5-methoxy-1H-benzimidazo
     RDKit          2D

 27 30  0  0  0  0  0  0  0  0999 V2000
    2.3969   -1.2795    0.0000 C   0  0  0  0  0  0  0  0  0  0  0  0
    3.0304   -0.4710    0.0000 C   0  0  0  0  0  0  0  0  0  0  0  0
    2.9220   -2.0843    0.0000 S   0  0  0  0  0  0  0  0  0  0  0  0
    3.9476   -0.8337    0.0000 C   0  0  0  0  0  0  0  0  0  0  0  0
   -1.6172    0.4544    0.0000 C   0  0  0  0  0  0  0  0  0  0  0  0
   -2.1798    1.2672    0.0000 N   0  0  0  0  0  0  0  0  0  0  0  0
    3.8723   -1.8465    0.0000 C   0  0  0  0  0  0  0  0  0  0  0  0
   -2.1798   -0.3459    0.0000 N   0  0  0  0  0  0  0  0  0  0  0  0
    1.3965   -1.2795    0.0000 N   0  0  0  0  0  0  0  0  0  0  0  0
   -3.1219    0.9421    0.0000 C   0  0  0  0  0  0  0  0  0  0  0  0
    2.7970    0.4961    0.0000 C   0  0  0  0  0  0  0  0  0  0  0  0
   -3.1219   -0.0708    0.0000 C   0  0  0  0  0  0  0  0  0  0  0  0
    2.5720    1.4673    0.0000 N   0  0  0  0  0  0  0  0  0  0  0  0
    0.9169   -0.4335    0.0000 C   0  0  0  0  0  0  0  0  0  0  0  0
   -3.9807    1.4673    0.0000 C   0  0  0  0  0  0  0  0  0  0  0  0
   -0.5919    0.4544    0.0000 S   0  0  0  0  0  0  0  0  0  0  0  0
    1.3965    0.4544    0.0000 O   0  0  0  0  0  0  0  0  0  0  0  0
   -3.9807   -0.5542    0.0000 C   0  0  0  0  0  0  0  0  0  0  0  0
   -0.1041   -0.4335    0.0000 C   0  0  0  0  0  0  0  0  0  0  0  0
   -4.8435    0.9421    0.0000 C   0  0  0  0  0  0  0  0  0  0  0  0
   -4.8435   -0.0708    0.0000 C   0  0  0  0  0  0  0  0  0  0  0  0
    4.8602   -0.4335    0.0000 C   0  0  0  0  0  0  0  0  0  0  0  0
    4.7103   -2.4218    0.0000 C   0  0  0  0  0  0  0  0  0  0  0  0
   -5.7064    1.4298    0.0000 O   0  0  0  0  0  0  0  0  0  0  0  0
   -5.7064    2.4218    0.0000 C   0  0  0  0  0  0  0  0  0  0  0  0
    5.7064   -0.9712    0.0000 C   0  0  0  0  0  0  0  0  0  0  0  0
    5.6358   -1.9799    0.0000 C   0  0  0  0  0  0  0  0  0  0  0  0
  1  2  2  0
  1  3  1  0
  2  4  1  0
  4  7  2  0
  5 16  1  0
  5  6  2  0
  3  7  1  0
  5  8  1  0
  1  9  1  0
  6 10  1  0
 10 12  2  0
  2 11  1  0
  8 12  1  0
 11 13  3  0
  9 14  1  0
 10 15  1  0
 16 19  1  0
 14 17  2  0
 12 18  1  0
 14 19  1  0
 15 20  2  0
 20 21  1  0
 18 21  2  0
  4 22  1  0
  7 23  1  0
 20 24  1  0
 24 25  1  0
 22 26  1  0
 26 27  1  0
 23 27  1  0
M  END
>  <IDNUMBER>  (441) 
Y505-4845

>  <available>  (441) 
26

>  <H_acceptor>  (441) 
6

>  <H_donor>  (441) 
2

>  <B_rotN>  (441) 
7

>  <N_O>  (441) 
6

>  <logP>  (441) 
3.5256

>  <logD>  (441) 
2.4929

>  <logSw>  (441) 
-4.2098

>  <PSA>  (441) 
65.444

>  <pKa_ma>  (441) 
6.4095

>  <pKa_mb>  (441) 
4.2873

>  <N_Chirals>  (441) 
0

>  <Name>  (441) 
N-(3-cyano-4,5,6,7-tetrahydro-1-benzothiophen-2-yl)-2-[(5-methoxy-1H-benzimidazol-2-yl)sulfanyl]acetamide

>  <Smile>  (441) 
c1(c(c2c(s1)CCCC2)C#N)NC(=O)CSc1nc2c([nH]1)ccc(c2)OC

>  <Color>  (441) 
ORANGE

>  <Collection>  (441) 
DC

>  <InChI>  (441) 
InChI=1S/C19H18N4O2S2/c1-25-11-6-7-14-15(8-11)22-19(21-14)26-10-17(24)23-18-13(9-20)12-4-2-3-5-16(12)27-18/h6-8H,2-5,10H2,1H3,(H,21,22)(H,23,24)

>  <InChI Key>  (441) 
JPLSNKJYBYFQJI-UHFFFAOYSA-N

>  <PERCENTSP3>  (441) 
8

>  <Link>  (441) 
https://www.chemdiv.com/catalog/screening-compounds/compound-Y505-4845/

>  <MFCDNUMBER>  (441) 
MFCD02008494

>  <STEREO>  (441) 
ACHIRAL

>  <State>  (441) 
Solid

>  <Similarity score>  (441) 
0.18

$$$$
N-(3-cyano-4,5,6,7-tetrahydro-1-benzothiophen-2-yl)-2-phenoxybutanamide
     RDKit          2D

 24 26  0  0  0  0  0  0  0  0999 V2000
    1.3694   -0.8691    0.0000 C   0  0  0  0  0  0  0  0  0  0  0  0
    1.9403   -0.0647    0.0000 C   0  0  0  0  0  0  0  0  0  0  0  0
    1.9403   -1.6736    0.0000 S   0  0  0  0  0  0  0  0  0  0  0  0
    2.8950   -0.3607    0.0000 C   0  0  0  0  0  0  0  0  0  0  0  0
    0.3730   -0.8691    0.0000 N   0  0  0  0  0  0  0  0  0  0  0  0
    2.8950   -1.3569    0.0000 C   0  0  0  0  0  0  0  0  0  0  0  0
   -0.1147   -0.0022    0.0000 C   0  0  0  0  0  0  0  0  0  0  0  0
    1.6235    0.8900    0.0000 C   0  0  0  0  0  0  0  0  0  0  0  0
    1.2818    1.8653    0.0000 N   0  0  0  0  0  0  0  0  0  0  0  0
   -1.1358   -0.0022    0.0000 C   0  0  0  0  0  0  0  0  0  0  0  0
   -1.6236    0.8690    0.0000 O   0  0  0  0  0  0  0  0  0  0  0  0
    0.3730    0.8483    0.0000 O   0  0  0  0  0  0  0  0  0  0  0  0
   -2.6199    0.8690    0.0000 C   0  0  0  0  0  0  0  0  0  0  0  0
    3.7662    0.1271    0.0000 C   0  0  0  0  0  0  0  0  0  0  0  0
    3.7662   -1.8653    0.0000 C   0  0  0  0  0  0  0  0  0  0  0  0
   -1.6236   -0.8691    0.0000 C   0  0  0  0  0  0  0  0  0  0  0  0
   -3.1285    0.0230    0.0000 C   0  0  0  0  0  0  0  0  0  0  0  0
   -3.1285    1.7403    0.0000 C   0  0  0  0  0  0  0  0  0  0  0  0
    4.6332   -0.3607    0.0000 C   0  0  0  0  0  0  0  0  0  0  0  0
    4.6332   -1.3569    0.0000 C   0  0  0  0  0  0  0  0  0  0  0  0
   -1.1358   -1.7403    0.0000 C   0  0  0  0  0  0  0  0  0  0  0  0
   -4.1247    0.0230    0.0000 C   0  0  0  0  0  0  0  0  0  0  0  0
   -4.1247    1.7612    0.0000 C   0  0  0  0  0  0  0  0  0  0  0  0
   -4.6332    0.8690    0.0000 C   0  0  0  0  0  0  0  0  0  0  0  0
  1  2  2  0
  1  3  1  0
  2  4  1  0
  1  5  1  0
  3  6  1  0
  4  6  2  0
  5  7  1  0
  2  8  1  0
  8  9  3  0
  7 10  1  0
 10 11  1  0
  7 12  2  0
 11 13  1  0
  4 14  1  0
  6 15  1  0
 10 16  1  0
 13 17  2  0
 13 18  1  0
 14 19  1  0
 19 20  1  0
 15 20  1  0
 16 21  1  0
 17 22  1  0
 18 23  2  0
 23 24  1  0
 22 24  2  0
M  END
>  <IDNUMBER>  (442) 
Y203-6112

>  <available>  (442) 
12

>  <H_acceptor>  (442) 
4

>  <H_donor>  (442) 
1

>  <B_rotN>  (442) 
7

>  <N_O>  (442) 
4

>  <logP>  (442) 
4.5466

>  <logD>  (442) 
2.9389

>  <logSw>  (442) 
-4.4714

>  <PSA>  (442) 
46.773

>  <pKa_ma>  (442) 
5.8032

>  <pKa_mb>  (442) 
-4.8807

>  <N_Chirals>  (442) 
1

>  <Name>  (442) 
N-(3-cyano-4,5,6,7-tetrahydro-1-benzothiophen-2-yl)-2-phenoxybutanamide

>  <Smile>  (442) 
CCC(C(Nc(sc1c2CCCC1)c2C#N)=O)Oc1ccccc1

>  <Color>  (442) 
BROWN

>  <Collection>  (442) 
DC

>  <InChI>  (442) 
InChI=1S/C19H20N2O2S/c1-2-16(23-13-8-4-3-5-9-13)18(22)21-19-15(12-20)14-10-6-7-11-17(14)24-19/h3-5,8-9,16H,2,6-7,10-11H2,1H3,(H,21,22)/t16-/m0/s1

>  <InChI Key>  (442) 
FYMKJXIUOQGUHW-INIZCTEOSA-N

>  <PERCENTSP3>  (442) 
36.84

>  <Link>  (442) 
https://www.chemdiv.com/catalog/screening-compounds/compound-Y203-6112/

>  <MFCDNUMBER>  (442) 
MFCD00851728

>  <STEREO>  (442) 
RACEMIC MIXTURE

>  <State>  (442) 
Solid

>  <Similarity score>  (442) 
0.18

$$$$
3-(3-{[(1,3-benzoxazol-2-yl)sulfanyl]methyl}-1,2,4-oxadiazol-5-yl)-N-(3-cyano-4,
     RDKit          2D

 32 36  0  0  0  0  0  0  0  0999 V2000
    3.8430    1.2736    0.0000 C   0  0  0  0  0  0  0  0  0  0  0  0
    4.8181    0.9817    0.0000 C   0  0  0  0  0  0  0  0  0  0  0  0
    3.8303    2.2697    0.0000 S   0  0  0  0  0  0  0  0  0  0  0  0
    5.3767    1.7859    0.0000 C   0  0  0  0  0  0  0  0  0  0  0  0
   -3.5136   -2.6280    0.0000 C   0  0  0  0  0  0  0  0  0  0  0  0
   -4.1095   -1.8024    0.0000 N   0  0  0  0  0  0  0  0  0  0  0  0
   -0.3710   -0.9066    0.0000 N   0  0  0  0  0  0  0  0  0  0  0  0
    4.7764    2.5948    0.0000 C   0  0  0  0  0  0  0  0  0  0  0  0
   -0.9711   -1.7400    0.0000 C   0  0  0  0  0  0  0  0  0  0  0  0
    3.0551    0.6733    0.0000 N   0  0  0  0  0  0  0  0  0  0  0  0
   -0.3710   -2.5779    0.0000 N   0  0  0  0  0  0  0  0  0  0  0  0
   -4.0970   -3.4322    0.0000 O   0  0  0  0  0  0  0  0  0  0  0  0
    5.1517    0.0313    0.0000 C   0  0  0  0  0  0  0  0  0  0  0  0
    0.6043   -1.2190    0.0000 C   0  0  0  0  0  0  0  0  0  0  0  0
    0.6128   -2.2570    0.0000 O   0  0  0  0  0  0  0  0  0  0  0  0
   -5.0474   -2.1195    0.0000 C   0  0  0  0  0  0  0  0  0  0  0  0
    5.4766   -0.9066    0.0000 N   0  0  0  0  0  0  0  0  0  0  0  0
   -5.0474   -3.1155    0.0000 C   0  0  0  0  0  0  0  0  0  0  0  0
    2.1298    1.0608    0.0000 C   0  0  0  0  0  0  0  0  0  0  0  0
   -2.5216   -2.6193    0.0000 S   0  0  0  0  0  0  0  0  0  0  0  0
    2.0507    1.7819    0.0000 O   0  0  0  0  0  0  0  0  0  0  0  0
   -2.0131   -1.7527    0.0000 C   0  0  0  0  0  0  0  0  0  0  0  0
    1.4422   -0.5940    0.0000 C   0  0  0  0  0  0  0  0  0  0  0  0
    1.3129    0.4233    0.0000 C   0  0  0  0  0  0  0  0  0  0  0  0
    6.3686    1.8986    0.0000 C   0  0  0  0  0  0  0  0  0  0  0  0
    5.1766    3.5073    0.0000 C   0  0  0  0  0  0  0  0  0  0  0  0
   -5.9102   -1.6190    0.0000 C   0  0  0  0  0  0  0  0  0  0  0  0
   -5.9102   -3.6200    0.0000 C   0  0  0  0  0  0  0  0  0  0  0  0
    6.7688    2.8321    0.0000 C   0  0  0  0  0  0  0  0  0  0  0  0
    6.1687    3.6200    0.0000 C   0  0  0  0  0  0  0  0  0  0  0  0
   -6.7646   -3.1198    0.0000 C   0  0  0  0  0  0  0  0  0  0  0  0
   -6.7688   -2.1195    0.0000 C   0  0  0  0  0  0  0  0  0  0  0  0
  1  2  2  0
  1  3  1  0
  2  4  1  0
  5 20  1  0
  5  6  2  0
  7 14  2  0
  3  8  1  0
  4  8  2  0
  7  9  1  0
  1 10  1  0
 11 15  1  0
  9 11  2  0
  5 12  1  0
  2 13  1  0
 14 23  1  0
 14 15  1  0
  6 16  1  0
 13 17  3  0
 12 18  1  0
 16 18  2  0
 10 19  1  0
 20 22  1  0
 19 21  2  0
  9 22  1  0
 23 24  1  0
 19 24  1  0
  4 25  1  0
  8 26  1  0
 16 27  1  0
 18 28  1  0
 25 29  1  0
 26 30  1  0
 29 30  1  0
 28 31  2  0
 27 32  2  0
 31 32  1  0
M  END
>  <IDNUMBER>  (443) 
J021-0120

>  <available>  (443) 
92

>  <H_acceptor>  (443) 
9

>  <H_donor>  (443) 
1

>  <B_rotN>  (443) 
9

>  <N_O>  (443) 
8

>  <logP>  (443) 
4.5264

>  <logD>  (443) 
3.2074

>  <logSw>  (443) 
-4.5742

>  <PSA>  (443) 
88.884

>  <pKa_ma>  (443) 
6.1024

>  <pKa_mb>  (443) 
0.428

>  <N_Chirals>  (443) 
0

>  <Name>  (443) 
3-(3-{[(1,3-benzoxazol-2-yl)sulfanyl]methyl}-1,2,4-oxadiazol-5-yl)-N-(3-cyano-4,5,6,7-tetrahydro-1-benzothiophen-2-yl)propanamide

>  <Smile>  (443) 
N#Cc1c(NC(CCc2nc(CSc3nc(cccc4)c4o3)no2)=O)sc2c1CCCC2

>  <Color>  (443) 
BROWN

>  <Collection>  (443) 
DC

>  <InChI>  (443) 
InChI=1S/C22H19N5O3S2/c23-11-14-13-5-1-4-8-17(13)32-21(14)26-19(28)9-10-20-25-18(27-30-20)12-31-22-24-15-6-2-3-7-16(15)29-22/h2-3,6-7H,1,4-5,8-10,12H2,(H,26,28)

>  <InChI Key>  (443) 
QWKGQSJEUSKONT-UHFFFAOYSA-N

>  <PERCENTSP3>  (443) 
31.8

>  <Link>  (443) 
https://www.chemdiv.com/catalog/screening-compounds/compound-J021-0120/

>  <MFCDNUMBER>  (443) 
MFCD24847622

>  <CLNUMBER>  (443) 
CL8315

>  <STEREO>  (443) 
ACHIRAL

>  <State>  (443) 
Solid

>  <Similarity score>  (443) 
0.18

$$$$
3-fluoro-N-(2-methoxyethyl)-3-[3-(pyridin-4-yl)-1,2,4-oxadiazol-5-yl]piperidine-
     RDKit          2D

 25 27  0  0  0  0  0  0  0  0999 V2000
   -0.6438   -2.2415    0.0000 N   0  0  0  0  0  0  0  0  0  0  0  0
    0.3460   -2.3949    0.0000 C   0  0  0  0  0  0  0  0  0  0  0  0
    1.0509   -1.6900    0.0000 C   0  0  0  0  0  0  0  0  0  0  0  0
   -1.0916   -3.1342    0.0000 C   0  0  0  0  0  0  0  0  0  0  0  0
   -0.3900   -3.8327    0.0000 N   0  0  0  0  0  0  0  0  0  0  0  0
    2.5610   -0.8224    0.0000 N   0  0  0  0  0  0  0  0  0  0  0  0
    0.5027   -3.3787    0.0000 O   0  0  0  0  0  0  0  0  0  0  0  0
    3.0588    0.0484    0.0000 C   0  0  0  0  0  0  0  0  0  0  0  0
    1.5491   -0.8224    0.0000 C   0  0  0  0  0  0  0  0  0  0  0  0
    4.0552    0.0484    0.0000 O   0  0  0  0  0  0  0  0  0  0  0  0
   -2.0784   -3.2783    0.0000 C   0  0  0  0  0  0  0  0  0  0  0  0
    0.6656   -0.7596    0.0000 F   0  0  0  0  0  0  0  0  0  0  0  0
   -4.0552   -3.5979    0.0000 N   0  0  0  0  0  0  0  0  0  0  0  0
    2.5610    0.9132    0.0000 N   0  0  0  0  0  0  0  0  0  0  0  0
    1.5491   -2.5546    0.0000 C   0  0  0  0  0  0  0  0  0  0  0  0
    3.0588   -1.6900    0.0000 C   0  0  0  0  0  0  0  0  0  0  0  0
    2.5610   -2.5546    0.0000 C   0  0  0  0  0  0  0  0  0  0  0  0
    3.0588    3.5102    0.0000 O   0  0  0  0  0  0  0  0  0  0  0  0
   -3.4255   -4.3747    0.0000 C   0  0  0  0  0  0  0  0  0  0  0  0
   -3.6981   -2.6674    0.0000 C   0  0  0  0  0  0  0  0  0  0  0  0
   -2.4388   -4.2181    0.0000 C   0  0  0  0  0  0  0  0  0  0  0  0
   -2.7080   -2.5078    0.0000 C   0  0  0  0  0  0  0  0  0  0  0  0
    3.0588    1.7778    0.0000 C   0  0  0  0  0  0  0  0  0  0  0  0
    2.5610    2.6423    0.0000 C   0  0  0  0  0  0  0  0  0  0  0  0
    2.5610    4.3747    0.0000 C   0  0  0  0  0  0  0  0  0  0  0  0
  1  2  2  0
  2  3  1  0
  1  4  1  0
  4  5  2  0
  5  7  1  0
  6  9  1  0
  2  7  1  0
  6  8  1  0
  3  9  1  0
  8 10  2  0
  4 11  1  0
  3 12  1  0
 13 20  1  0
 13 19  2  0
  8 14  1  0
  3 15  1  0
 16 17  1  0
  6 16  1  0
 15 17  1  0
 18 24  1  0
 19 21  1  0
 20 22  2  0
 11 21  2  0
 11 22  1  0
 14 23  1  0
 23 24  1  0
 18 25  1  0
M  END
>  <IDNUMBER>  (444) 
SA92-0235

>  <available>  (444) 
57

>  <H_acceptor>  (444) 
7

>  <H_donor>  (444) 
1

>  <B_rotN>  (444) 
7

>  <N_O>  (444) 
8

>  <logP>  (444) 
1.6173

>  <logD>  (444) 
1.6172

>  <logSw>  (444) 
-1.6835

>  <PSA>  (444) 
76.253

>  <pKa_ma>  (444) 
15.8688

>  <pKa_mb>  (444) 
3.6841

>  <N_Chirals>  (444) 
1

>  <Name>  (444) 
3-fluoro-N-(2-methoxyethyl)-3-[3-(pyridin-4-yl)-1,2,4-oxadiazol-5-yl]piperidine-1-carboxamide

>  <Smile>  (444) 
COCCNC(N(CCC1)CC1(c1nc(-c2ccncc2)no1)F)=O

>  <Color>  (444) 
NOT COLORED

>  <Collection>  (444) 
IC

>  <InChI>  (444) 
InChI=1S/C16H20FN5O3/c1-24-10-8-19-15(23)22-9-2-5-16(17,11-22)14-20-13(21-25-14)12-3-6-18-7-4-12/h3-4,6-7H,2,5,8-11H2,1H3,(H,19,23)/t16-/m0/s1

>  <InChI Key>  (444) 
YDVUVBREVBJBEC-INIZCTEOSA-N

>  <PERCENTSP3>  (444) 
50

>  <Link>  (444) 
https://www.chemdiv.com/catalog/screening-compounds/compound-SA92-0235/

>  <MFCDNUMBER>  (444) 
MFCD32242071

>  <CLNUMBER>  (444) 
CM4899

>  <STEREO>  (444) 
RACEMIC MIXTURE

>  <State>  (444) 
Solid

>  <Similarity score>  (444) 
0.18

$$$$
(2,6-dimethoxypyridin-3-yl){3-fluoro-3-[3-(pyridin-3-yl)-1,2,4-oxadiazol-5-yl]pi
     RDKit          2D

 30 33  0  0  0  0  0  0  0  0999 V2000
    0.0958    0.5602    0.0000 N   0  0  0  0  0  0  0  0  0  0  0  0
    0.4540    1.4934    0.0000 C   0  0  0  0  0  0  0  0  0  0  0  0
    1.4206   -1.2435    0.0000 C   0  0  0  0  0  0  0  0  0  0  0  0
   -0.9040    0.6186    0.0000 C   0  0  0  0  0  0  0  0  0  0  0  0
    2.2828   -0.7435    0.0000 C   0  0  0  0  0  0  0  0  0  0  0  0
    1.4206    1.7558    0.0000 C   0  0  0  0  0  0  0  0  0  0  0  0
    2.2828    0.2562    0.0000 N   0  0  0  0  0  0  0  0  0  0  0  0
   -1.1665    1.5809    0.0000 N   0  0  0  0  0  0  0  0  0  0  0  0
    1.4206   -2.2432    0.0000 C   0  0  0  0  0  0  0  0  0  0  0  0
    0.5541   -2.7433    0.0000 N   0  0  0  0  0  0  0  0  0  0  0  0
   -0.3208    2.1225    0.0000 O   0  0  0  0  0  0  0  0  0  0  0  0
    1.4206    0.7561    0.0000 C   0  0  0  0  0  0  0  0  0  0  0  0
   -1.5331   -0.1562    0.0000 C   0  0  0  0  0  0  0  0  0  0  0  0
    0.5541   -0.7435    0.0000 C   0  0  0  0  0  0  0  0  0  0  0  0
   -0.3166   -2.2432    0.0000 C   0  0  0  0  0  0  0  0  0  0  0  0
    3.1535   -1.2435    0.0000 O   0  0  0  0  0  0  0  0  0  0  0  0
   -3.1535   -0.7811    0.0000 N   0  0  0  0  0  0  0  0  0  0  0  0
    1.5455    2.7433    0.0000 F   0  0  0  0  0  0  0  0  0  0  0  0
   -0.3166   -1.2435    0.0000 C   0  0  0  0  0  0  0  0  0  0  0  0
    2.2828   -2.7433    0.0000 O   0  0  0  0  0  0  0  0  0  0  0  0
    2.2828    2.2557    0.0000 C   0  0  0  0  0  0  0  0  0  0  0  0
    3.1535    0.7561    0.0000 C   0  0  0  0  0  0  0  0  0  0  0  0
   -2.5202   -0.0063    0.0000 C   0  0  0  0  0  0  0  0  0  0  0  0
   -1.1788   -2.7433    0.0000 O   0  0  0  0  0  0  0  0  0  0  0  0
   -1.1788   -1.0936    0.0000 C   0  0  0  0  0  0  0  0  0  0  0  0
    3.1535    1.7558    0.0000 C   0  0  0  0  0  0  0  0  0  0  0  0
   -2.7910   -1.7185    0.0000 C   0  0  0  0  0  0  0  0  0  0  0  0
    3.1535   -2.2432    0.0000 C   0  0  0  0  0  0  0  0  0  0  0  0
   -2.0412   -2.2432    0.0000 C   0  0  0  0  0  0  0  0  0  0  0  0
   -1.8037   -1.8684    0.0000 C   0  0  0  0  0  0  0  0  0  0  0  0
  1  2  2  0
  3  5  1  0
  1  4  1  0
  5  7  1  0
  2  6  1  0
  7 12  1  0
  7 22  1  0
  4  8  2  0
  8 11  1  0
  3  9  2  0
  9 10  1  0
 10 15  2  0
  2 11  1  0
  6 12  1  0
  4 13  1  0
  3 14  1  0
 15 19  1  0
  5 16  2  0
 17 23  2  0
 17 27  1  0
  6 18  1  0
 14 19  2  0
  9 20  1  0
  6 21  1  0
 22 26  1  0
 13 23  1  0
 15 24  1  0
 13 25  2  0
 21 26  1  0
 27 30  2  0
 20 28  1  0
 24 29  1  0
 25 30  1  0
M  END
>  <IDNUMBER>  (445) 
SA92-0535

>  <available>  (445) 
51

>  <H_acceptor>  (445) 
9

>  <H_donor>  (445) 
0

>  <B_rotN>  (445) 
6

>  <N_O>  (445) 
9

>  <logP>  (445) 
2.6858

>  <logD>  (445) 
2.0471

>  <logSw>  (445) 
-2.6159

>  <PSA>  (445) 
82.105

>  <pKa_ma>  (445) 
27.08

>  <pKa_mb>  (445) 
7.9253

>  <N_Chirals>  (445) 
1

>  <Name>  (445) 
(2,6-dimethoxypyridin-3-yl){3-fluoro-3-[3-(pyridin-3-yl)-1,2,4-oxadiazol-5-yl]piperidin-1-yl}methanone

>  <Smile>  (445) 
COc(cc1)nc(OC)c1C(N(CCC1)CC1(c1nc(-c2cnccc2)no1)F)=O

>  <Color>  (445) 
BROWN

>  <Collection>  (445) 
IC

>  <InChI>  (445) 
InChI=1S/C20H20FN5O4/c1-28-15-7-6-14(17(23-15)29-2)18(27)26-10-4-8-20(21,12-26)19-24-16(25-30-19)13-5-3-9-22-11-13/h3,5-7,9,11H,4,8,10,12H2,1-2H3/t20-/m0/s1

>  <InChI Key>  (445) 
RCGDLOZSWISFNB-FQEVSTJZSA-N

>  <PERCENTSP3>  (445) 
35

>  <Link>  (445) 
https://www.chemdiv.com/catalog/screening-compounds/compound-SA92-0535/

>  <MFCDNUMBER>  (445) 
MFCD32242335

>  <CLNUMBER>  (445) 
CM4899

>  <STEREO>  (445) 
RACEMIC MIXTURE

>  <State>  (445) 
Oil

>  <Similarity score>  (445) 
0.18

$$$$
N-(3-cyano-5,6,7,8-tetrahydro-4H-cyclohepta[b]thiophen-2-yl)-2-(2,4-difluorophen
     RDKit          2D

 26 28  0  0  0  0  0  0  0  0999 V2000
   -1.9189    0.6020    0.0000 C   0  0  0  0  0  0  0  0  0  0  0  0
   -2.0813   -0.3605    0.0000 C   0  0  0  0  0  0  0  0  0  0  0  0
   -2.8190    1.0771    0.0000 S   0  0  0  0  0  0  0  0  0  0  0  0
   -3.0649   -0.5230    0.0000 C   0  0  0  0  0  0  0  0  0  0  0  0
   -0.9770    0.9856    0.0000 N   0  0  0  0  0  0  0  0  0  0  0  0
   -3.5190    0.3397    0.0000 C   0  0  0  0  0  0  0  0  0  0  0  0
   -0.1854    0.3397    0.0000 C   0  0  0  0  0  0  0  0  0  0  0  0
   -1.3524   -1.0773    0.0000 C   0  0  0  0  0  0  0  0  0  0  0  0
   -0.6647   -1.7772    0.0000 N   0  0  0  0  0  0  0  0  0  0  0  0
    1.5440    0.0646    0.0000 O   0  0  0  0  0  0  0  0  0  0  0  0
    2.4981    0.4521    0.0000 C   0  0  0  0  0  0  0  0  0  0  0  0
    3.2566   -0.1771    0.0000 C   0  0  0  0  0  0  0  0  0  0  0  0
    0.7564    0.6938    0.0000 C   0  0  0  0  0  0  0  0  0  0  0  0
    4.1776    0.1771    0.0000 C   0  0  0  0  0  0  0  0  0  0  0  0
   -0.3397   -0.6315    0.0000 O   0  0  0  0  0  0  0  0  0  0  0  0
    2.6482    1.4439    0.0000 C   0  0  0  0  0  0  0  0  0  0  0  0
    4.3400    1.1480    0.0000 C   0  0  0  0  0  0  0  0  0  0  0  0
    3.1149   -1.1605    0.0000 F   0  0  0  0  0  0  0  0  0  0  0  0
    3.5691    1.7772    0.0000 C   0  0  0  0  0  0  0  0  0  0  0  0
   -3.4190   -1.4523    0.0000 C   0  0  0  0  0  0  0  0  0  0  0  0
    5.2608    1.4855    0.0000 F   0  0  0  0  0  0  0  0  0  0  0  0
   -4.5315    0.5312    0.0000 C   0  0  0  0  0  0  0  0  0  0  0  0
    0.9063    1.6772    0.0000 C   0  0  0  0  0  0  0  0  0  0  0  0
   -4.3691   -1.7481    0.0000 C   0  0  0  0  0  0  0  0  0  0  0  0
   -5.2608   -0.1563    0.0000 C   0  0  0  0  0  0  0  0  0  0  0  0
   -5.1983   -1.1605    0.0000 C   0  0  0  0  0  0  0  0  0  0  0  0
  1  2  2  0
  1  3  1  0
  2  4  1  0
  4  6  2  0
  1  5  1  0
  3  6  1  0
  5  7  1  0
  2  8  1  0
  8  9  3  0
 10 13  1  0
 10 11  1  0
 11 12  2  0
  7 13  1  0
 12 14  1  0
  7 15  2  0
 11 16  1  0
 17 19  1  0
 14 17  2  0
 12 18  1  0
 16 19  2  0
  4 20  1  0
 17 21  1  0
  6 22  1  0
 13 23  1  0
 20 24  1  0
 22 25  1  0
 25 26  1  0
 24 26  1  0
M  END
>  <IDNUMBER>  (446) 
Y205-6163

>  <available>  (446) 
2

>  <H_acceptor>  (446) 
4

>  <H_donor>  (446) 
1

>  <B_rotN>  (446) 
6

>  <N_O>  (446) 
4

>  <logP>  (446) 
4.7094

>  <logD>  (446) 
3.2914

>  <logSw>  (446) 
-4.5444

>  <PSA>  (446) 
47.307

>  <pKa_ma>  (446) 
5.9989

>  <pKa_mb>  (446) 
-5.1628

>  <N_Chirals>  (446) 
1

>  <Name>  (446) 
N-(3-cyano-5,6,7,8-tetrahydro-4H-cyclohepta[b]thiophen-2-yl)-2-(2,4-difluorophenoxy)propanamide

>  <Smile>  (446) 
CC(C(Nc(sc1c2CCCCC1)c2C#N)=O)Oc(ccc(F)c1)c1F

>  <Color>  (446) 
BROWN

>  <Collection>  (446) 
DC

>  <InChI>  (446) 
InChI=1S/C19H18F2N2O2S/c1-11(25-16-8-7-12(20)9-15(16)21)18(24)23-19-14(10-22)13-5-3-2-4-6-17(13)26-19/h7-9,11H,2-6H2,1H3,(H,23,24)/t11-/m0/s1

>  <InChI Key>  (446) 
DUTGSXOBDMKFML-NSHDSACASA-N

>  <PERCENTSP3>  (446) 
36.84

>  <Link>  (446) 
https://www.chemdiv.com/catalog/screening-compounds/compound-Y205-6163/

>  <MFCDNUMBER>  (446) 
MFCD07182342

>  <STEREO>  (446) 
RACEMIC MIXTURE

>  <State>  (446) 
Solid

>  <Similarity score>  (446) 
0.18

$$$$
4-(5-{3-fluoro-1-[(3-methylthiophen-2-yl)methyl]piperidin-3-yl}-1,2,4-oxadiazol-
     RDKit          2D

 25 28  0  0  0  0  0  0  0  0999 V2000
   -0.5816    1.2995    0.0000 N   0  0  0  0  0  0  0  0  0  0  0  0
    0.4062    1.4502    0.0000 C   0  0  0  0  0  0  0  0  0  0  0  0
   -1.0330    2.1901    0.0000 C   0  0  0  0  0  0  0  0  0  0  0  0
    1.1115    0.7509    0.0000 C   0  0  0  0  0  0  0  0  0  0  0  0
   -0.3277    2.8985    0.0000 N   0  0  0  0  0  0  0  0  0  0  0  0
    0.5629    2.4440    0.0000 O   0  0  0  0  0  0  0  0  0  0  0  0
    2.6165   -1.8546    0.0000 C   0  0  0  0  0  0  0  0  0  0  0  0
    2.6165   -0.1145    0.0000 N   0  0  0  0  0  0  0  0  0  0  0  0
    3.0271   -2.7669    0.0000 C   0  0  0  0  0  0  0  0  0  0  0  0
    1.6194   -1.9581    0.0000 S   0  0  0  0  0  0  0  0  0  0  0  0
    1.6194   -0.1145    0.0000 C   0  0  0  0  0  0  0  0  0  0  0  0
    3.1151   -0.9893    0.0000 C   0  0  0  0  0  0  0  0  0  0  0  0
    1.4095   -2.9364    0.0000 C   0  0  0  0  0  0  0  0  0  0  0  0
    2.2778   -3.4348    0.0000 C   0  0  0  0  0  0  0  0  0  0  0  0
   -2.0238    2.3500    0.0000 C   0  0  0  0  0  0  0  0  0  0  0  0
    0.7259   -0.1802    0.0000 F   0  0  0  0  0  0  0  0  0  0  0  0
   -3.9992    2.6603    0.0000 N   0  0  0  0  0  0  0  0  0  0  0  0
    1.6194    1.6099    0.0000 C   0  0  0  0  0  0  0  0  0  0  0  0
    3.1151    0.7509    0.0000 C   0  0  0  0  0  0  0  0  0  0  0  0
    3.9992   -2.9739    0.0000 C   0  0  0  0  0  0  0  0  0  0  0  0
    2.6165    1.6099    0.0000 C   0  0  0  0  0  0  0  0  0  0  0  0
   -3.6416    1.7229    0.0000 C   0  0  0  0  0  0  0  0  0  0  0  0
   -3.3690    3.4348    0.0000 C   0  0  0  0  0  0  0  0  0  0  0  0
   -2.6603    1.5629    0.0000 C   0  0  0  0  0  0  0  0  0  0  0  0
   -2.3875    3.2748    0.0000 C   0  0  0  0  0  0  0  0  0  0  0  0
  1  2  2  0
  1  3  1  0
  2  4  1  0
  3  5  2  0
  5  6  1  0
  2  6  1  0
  7 12  1  0
  8 11  1  0
  7  9  2  0
  7 10  1  0
  4 11  1  0
  8 12  1  0
 10 13  1  0
  9 14  1  0
 13 14  2  0
  3 15  1  0
  4 16  1  0
 17 23  2  0
 17 22  1  0
  4 18  1  0
 19 21  1  0
  8 19  1  0
  9 20  1  0
 18 21  1  0
 22 24  2  0
 23 25  1  0
 15 24  1  0
 15 25  2  0
M  END
>  <IDNUMBER>  (447) 
SA92-0174

>  <available>  (447) 
49

>  <H_acceptor>  (447) 
5

>  <H_donor>  (447) 
0

>  <B_rotN>  (447) 
4

>  <N_O>  (447) 
5

>  <logP>  (447) 
3.4422

>  <logD>  (447) 
3.4141

>  <logSw>  (447) 
-3.4594

>  <PSA>  (447) 
45.757

>  <pKa_ma>  (447) 
26.9519

>  <pKa_mb>  (447) 
6.2244

>  <N_Chirals>  (447) 
1

>  <Name>  (447) 
4-(5-{3-fluoro-1-[(3-methylthiophen-2-yl)methyl]piperidin-3-yl}-1,2,4-oxadiazol-3-yl)pyridine

>  <Smile>  (447) 
Cc1c(CN(CCC2)CC2(c2nc(-c3ccncc3)no2)F)scc1

>  <Color>  (447) 
ORANGE

>  <Collection>  (447) 
IC

>  <InChI>  (447) 
InChI=1S/C18H19FN4OS/c1-13-5-10-25-15(13)11-23-9-2-6-18(19,12-23)17-21-16(22-24-17)14-3-7-20-8-4-14/h3-5,7-8,10H,2,6,9,11-12H2,1H3/t18-/m0/s1

>  <InChI Key>  (447) 
INJBZCNNLHEUQZ-SFHVURJKSA-N

>  <PERCENTSP3>  (447) 
38.89

>  <Link>  (447) 
https://www.chemdiv.com/catalog/screening-compounds/compound-SA92-0174/

>  <MFCDNUMBER>  (447) 
MFCD32243321

>  <CLNUMBER>  (447) 
CM4899

>  <STEREO>  (447) 
RACEMIC MIXTURE

>  <State>  (447) 
Liquid

>  <Similarity score>  (447) 
0.18

$$$$
3-(3-{[(1H-benzimidazol-2-yl)sulfanyl]methyl}-1,2,4-oxadiazol-5-yl)-N-(3-cyano-6
     RDKit          2D

 33 37  0  0  0  0  0  0  0  0999 V2000
    3.8584    0.8300    0.0000 C   0  0  0  0  0  0  0  0  0  0  0  0
    4.8217    0.5296    0.0000 C   0  0  0  0  0  0  0  0  0  0  0  0
    5.3848    1.3306    0.0000 C   0  0  0  0  0  0  0  0  0  0  0  0
    4.7925    2.1441    0.0000 C   0  0  0  0  0  0  0  0  0  0  0  0
    3.8584    1.8188    0.0000 S   0  0  0  0  0  0  0  0  0  0  0  0
   -3.5163   -3.0868    0.0000 C   0  0  0  0  0  0  0  0  0  0  0  0
   -4.1126   -2.2608    0.0000 N   0  0  0  0  0  0  0  0  0  0  0  0
   -0.3713   -1.3723    0.0000 N   0  0  0  0  0  0  0  0  0  0  0  0
   -0.9718   -2.1981    0.0000 C   0  0  0  0  0  0  0  0  0  0  0  0
   -4.1001   -3.8958    0.0000 N   0  0  0  0  0  0  0  0  0  0  0  0
    3.0573    0.2170    0.0000 N   0  0  0  0  0  0  0  0  0  0  0  0
   -0.3713   -3.0364    0.0000 N   0  0  0  0  0  0  0  0  0  0  0  0
    5.1555   -0.4295    0.0000 C   0  0  0  0  0  0  0  0  0  0  0  0
    0.6048   -1.6725    0.0000 C   0  0  0  0  0  0  0  0  0  0  0  0
    0.6173   -2.7195    0.0000 O   0  0  0  0  0  0  0  0  0  0  0  0
   -5.0512   -2.5817    0.0000 C   0  0  0  0  0  0  0  0  0  0  0  0
   -5.0512   -3.5745    0.0000 C   0  0  0  0  0  0  0  0  0  0  0  0
    5.4724   -1.3723    0.0000 N   0  0  0  0  0  0  0  0  0  0  0  0
    2.1314    0.6050    0.0000 C   0  0  0  0  0  0  0  0  0  0  0  0
    6.3734    1.4433    0.0000 C   0  0  0  0  0  0  0  0  0  0  0  0
   -2.5235   -3.0825    0.0000 S   0  0  0  0  0  0  0  0  0  0  0  0
    5.1973    3.0576    0.0000 C   0  0  0  0  0  0  0  0  0  0  0  0
    2.0523    1.3224    0.0000 O   0  0  0  0  0  0  0  0  0  0  0  0
   -2.0146   -2.2106    0.0000 C   0  0  0  0  0  0  0  0  0  0  0  0
    1.4433   -1.0595    0.0000 C   0  0  0  0  0  0  0  0  0  0  0  0
    1.3139   -0.0332    0.0000 C   0  0  0  0  0  0  0  0  0  0  0  0
    6.7739    2.3567    0.0000 C   0  0  0  0  0  0  0  0  0  0  0  0
    6.1858    3.1702    0.0000 C   0  0  0  0  0  0  0  0  0  0  0  0
   -5.9146   -2.0815    0.0000 C   0  0  0  0  0  0  0  0  0  0  0  0
   -5.9146   -4.0753    0.0000 C   0  0  0  0  0  0  0  0  0  0  0  0
    6.5861    4.0753    0.0000 C   0  0  0  0  0  0  0  0  0  0  0  0
   -6.7739   -2.5817    0.0000 C   0  0  0  0  0  0  0  0  0  0  0  0
   -6.7739   -3.5872    0.0000 C   0  0  0  0  0  0  0  0  0  0  0  0
  1  2  2  0
  2  3  1  0
  4  5  1  0
  3  4  2  0
  1  5  1  0
  6 21  1  0
  6  7  2  0
  8 14  2  0
  8  9  1  0
  6 10  1  0
  1 11  1  0
 12 15  1  0
  9 12  2  0
  2 13  1  0
 14 25  1  0
 14 15  1  0
  7 16  1  0
 10 17  1  0
 16 17  2  0
 13 18  3  0
 11 19  1  0
  3 20  1  0
 21 24  1  0
  4 22  1  0
 19 23  2  0
  9 24  1  0
 25 26  1  0
 19 26  1  0
 20 27  1  0
 22 28  1  0
 27 28  1  0
 16 29  1  0
 17 30  1  0
 28 31  1  0
 29 32  2  0
 32 33  1  0
 30 33  2  0
M  END
>  <IDNUMBER>  (448) 
J021-0387

>  <available>  (448) 
64

>  <H_acceptor>  (448) 
8

>  <H_donor>  (448) 
2

>  <B_rotN>  (448) 
9

>  <N_O>  (448) 
8

>  <logP>  (448) 
4.1487

>  <logD>  (448) 
2.8297

>  <logSw>  (448) 
-4.3511

>  <PSA>  (448) 
90.234

>  <pKa_ma>  (448) 
6.1024

>  <pKa_mb>  (448) 
6.7942

>  <N_Chirals>  (448) 
1

>  <Name>  (448) 
3-(3-{[(1H-benzimidazol-2-yl)sulfanyl]methyl}-1,2,4-oxadiazol-5-yl)-N-(3-cyano-6-methyl-4,5,6,7-tetrahydro-1-benzothiophen-2-yl)propanamide

>  <Smile>  (448) 
CC(CC1)Cc2c1c(C#N)c(NC(CCc1nc(CSc3nc(cccc4)c4[nH]3)no1)=O)s2

>  <Color>  (448) 
ORANGE

>  <Collection>  (448) 
DC

>  <InChI>  (448) 
InChI=1S/C23H22N6O2S2/c1-13-6-7-14-15(11-24)22(33-18(14)10-13)28-20(30)8-9-21-27-19(29-31-21)12-32-23-25-16-4-2-3-5-17(16)26-23/h2-5,13H,6-10,12H2,1H3,(H,25,26)(H,28,30)/t13-/m1/s1

>  <InChI Key>  (448) 
BRLJIJCAGJGFDS-CYBMUJFWSA-N

>  <PERCENTSP3>  (448) 
34.8

>  <Link>  (448) 
https://www.chemdiv.com/catalog/screening-compounds/compound-J021-0387/

>  <MFCDNUMBER>  (448) 
MFCD27218404

>  <CLNUMBER>  (448) 
CL8315

>  <STEREO>  (448) 
RACEMIC MIXTURE

>  <State>  (448) 
Solid

>  <Similarity score>  (448) 
0.18

$$$$
3-fluoro-N-(3-methoxyphenyl)-3-[3-(pyridin-4-yl)-1,2,4-oxadiazol-5-yl]piperidine
     RDKit          2D

 29 32  0  0  0  0  0  0  0  0999 V2000
   -0.6425   -0.9416    0.0000 N   0  0  0  0  0  0  0  0  0  0  0  0
    0.3447   -1.0920    0.0000 C   0  0  0  0  0  0  0  0  0  0  0  0
    1.0498   -0.3872    0.0000 C   0  0  0  0  0  0  0  0  0  0  0  0
   -1.0967   -1.8256    0.0000 C   0  0  0  0  0  0  0  0  0  0  0  0
    3.0586    1.3523    0.0000 C   0  0  0  0  0  0  0  0  0  0  0  0
   -0.3916   -2.5401    0.0000 N   0  0  0  0  0  0  0  0  0  0  0  0
    2.5541    0.4810    0.0000 N   0  0  0  0  0  0  0  0  0  0  0  0
    0.5014   -2.0855    0.0000 O   0  0  0  0  0  0  0  0  0  0  0  0
    1.5576    0.4810    0.0000 C   0  0  0  0  0  0  0  0  0  0  0  0
    2.5541    2.2172    0.0000 N   0  0  0  0  0  0  0  0  0  0  0  0
    4.0582    1.3523    0.0000 O   0  0  0  0  0  0  0  0  0  0  0  0
    1.5576    2.2172    0.0000 C   0  0  0  0  0  0  0  0  0  0  0  0
   -2.0808   -1.9854    0.0000 C   0  0  0  0  0  0  0  0  0  0  0  0
    1.0498    1.3523    0.0000 C   0  0  0  0  0  0  0  0  0  0  0  0
    0.6737    0.5373    0.0000 F   0  0  0  0  0  0  0  0  0  0  0  0
   -4.0582   -2.2956    0.0000 N   0  0  0  0  0  0  0  0  0  0  0  0
    1.5576   -1.2488    0.0000 C   0  0  0  0  0  0  0  0  0  0  0  0
    0.0533    1.3523    0.0000 C   0  0  0  0  0  0  0  0  0  0  0  0
    3.0586   -0.3872    0.0000 C   0  0  0  0  0  0  0  0  0  0  0  0
   -0.4482    0.4810    0.0000 O   0  0  0  0  0  0  0  0  0  0  0  0
    2.5541   -1.2488    0.0000 C   0  0  0  0  0  0  0  0  0  0  0  0
    0.0533    3.0757    0.0000 C   0  0  0  0  0  0  0  0  0  0  0  0
   -3.4251   -3.0757    0.0000 C   0  0  0  0  0  0  0  0  0  0  0  0
   -3.7072   -1.3617    0.0000 C   0  0  0  0  0  0  0  0  0  0  0  0
    1.0498    3.0757    0.0000 C   0  0  0  0  0  0  0  0  0  0  0  0
   -2.7139   -1.2049    0.0000 C   0  0  0  0  0  0  0  0  0  0  0  0
   -2.4474   -2.9223    0.0000 C   0  0  0  0  0  0  0  0  0  0  0  0
   -0.4482    2.2172    0.0000 C   0  0  0  0  0  0  0  0  0  0  0  0
   -1.4447    0.4810    0.0000 C   0  0  0  0  0  0  0  0  0  0  0  0
  1  2  2  0
  2  3  1  0
  1  4  1  0
  5  7  1  0
  4  6  2  0
  6  8  1  0
  7  9  1  0
  2  8  1  0
  3  9  1  0
  5 10  1  0
  5 11  2  0
 10 12  1  0
  4 13  1  0
 12 14  2  0
  3 15  1  0
 16 23  2  0
 16 24  1  0
  3 17  1  0
 14 18  1  0
 19 21  1  0
  7 19  1  0
 18 20  1  0
 17 21  1  0
 22 25  2  0
 23 27  1  0
 24 26  2  0
 12 25  1  0
 13 26  1  0
 13 27  2  0
 22 28  1  0
 18 28  2  0
 20 29  1  0
M  END
>  <IDNUMBER>  (449) 
SA92-0229

>  <available>  (449) 
203

>  <H_acceptor>  (449) 
7

>  <H_donor>  (449) 
1

>  <B_rotN>  (449) 
6

>  <N_O>  (449) 
8

>  <logP>  (449) 
3.0804

>  <logD>  (449) 
3.0803

>  <logSw>  (449) 
-3.218

>  <PSA>  (449) 
74.019

>  <pKa_ma>  (449) 
12.9537

>  <pKa_mb>  (449) 
3.6841

>  <N_Chirals>  (449) 
1

>  <Name>  (449) 
3-fluoro-N-(3-methoxyphenyl)-3-[3-(pyridin-4-yl)-1,2,4-oxadiazol-5-yl]piperidine-1-carboxamide

>  <Smile>  (449) 
COc1cccc(NC(N(CCC2)CC2(c2nc(-c3ccncc3)no2)F)=O)c1

>  <Color>  (449) 
NOT COLORED

>  <Collection>  (449) 
IC

>  <InChI>  (449) 
InChI=1S/C20H20FN5O3/c1-28-16-5-2-4-15(12-16)23-19(27)26-11-3-8-20(21,13-26)18-24-17(25-29-18)14-6-9-22-10-7-14/h2,4-7,9-10,12H,3,8,11,13H2,1H3,(H,23,27)/t20-/m0/s1

>  <InChI Key>  (449) 
KVLSJNLJEZXJKL-FQEVSTJZSA-N

>  <PERCENTSP3>  (449) 
30

>  <Link>  (449) 
https://www.chemdiv.com/catalog/screening-compounds/compound-SA92-0229/

>  <MFCDNUMBER>  (449) 
MFCD32241949

>  <CLNUMBER>  (449) 
CM4899

>  <STEREO>  (449) 
RACEMIC MIXTURE

>  <State>  (449) 
Solid

>  <Similarity score>  (449) 
0.18

$$$$
3-(3-{[(5-chloro-1H-benzimidazol-2-yl)sulfanyl]methyl}-1,2,4-oxadiazol-5-yl)-N-(
     RDKit          2D

 33 37  0  0  0  0  0  0  0  0999 V2000
    4.2765    1.2735    0.0000 C   0  0  0  0  0  0  0  0  0  0  0  0
    5.2435    0.9816    0.0000 C   0  0  0  0  0  0  0  0  0  0  0  0
    4.2682    2.2695    0.0000 S   0  0  0  0  0  0  0  0  0  0  0  0
    5.8062    1.7860    0.0000 C   0  0  0  0  0  0  0  0  0  0  0  0
   -3.0845   -2.6280    0.0000 C   0  0  0  0  0  0  0  0  0  0  0  0
   -3.6762   -1.8027    0.0000 N   0  0  0  0  0  0  0  0  0  0  0  0
    0.0542   -0.9066    0.0000 N   0  0  0  0  0  0  0  0  0  0  0  0
    5.2061    2.5947    0.0000 C   0  0  0  0  0  0  0  0  0  0  0  0
   -3.6639   -3.4325    0.0000 N   0  0  0  0  0  0  0  0  0  0  0  0
   -0.5460   -1.7401    0.0000 C   0  0  0  0  0  0  0  0  0  0  0  0
    3.4887    0.6732    0.0000 N   0  0  0  0  0  0  0  0  0  0  0  0
    0.0626   -2.5778    0.0000 N   0  0  0  0  0  0  0  0  0  0  0  0
   -4.6141   -2.1196    0.0000 C   0  0  0  0  0  0  0  0  0  0  0  0
    5.5811    0.0313    0.0000 C   0  0  0  0  0  0  0  0  0  0  0  0
    1.0421   -1.2193    0.0000 C   0  0  0  0  0  0  0  0  0  0  0  0
   -4.6141   -3.1156    0.0000 C   0  0  0  0  0  0  0  0  0  0  0  0
    1.0421   -2.2571    0.0000 O   0  0  0  0  0  0  0  0  0  0  0  0
    5.9063   -0.9066    0.0000 N   0  0  0  0  0  0  0  0  0  0  0  0
    2.5677    1.0608    0.0000 C   0  0  0  0  0  0  0  0  0  0  0  0
   -5.4852   -1.6192    0.0000 C   0  0  0  0  0  0  0  0  0  0  0  0
   -2.0883   -2.6197    0.0000 S   0  0  0  0  0  0  0  0  0  0  0  0
    2.4802    1.7820    0.0000 O   0  0  0  0  0  0  0  0  0  0  0  0
   -1.5839   -1.7527    0.0000 C   0  0  0  0  0  0  0  0  0  0  0  0
   -5.4728   -3.6200    0.0000 C   0  0  0  0  0  0  0  0  0  0  0  0
   -6.3398   -2.1196    0.0000 C   0  0  0  0  0  0  0  0  0  0  0  0
    1.8756   -0.5940    0.0000 C   0  0  0  0  0  0  0  0  0  0  0  0
    1.7423    0.4232    0.0000 C   0  0  0  0  0  0  0  0  0  0  0  0
   -6.3315   -3.1282    0.0000 C   0  0  0  0  0  0  0  0  0  0  0  0
    6.7940    1.8986    0.0000 C   0  0  0  0  0  0  0  0  0  0  0  0
   -7.2026   -1.6192    0.0000 Cl  0  0  0  0  0  0  0  0  0  0  0  0
    5.6063    3.5074    0.0000 C   0  0  0  0  0  0  0  0  0  0  0  0
    7.2026    2.8281    0.0000 C   0  0  0  0  0  0  0  0  0  0  0  0
    6.5939    3.6200    0.0000 C   0  0  0  0  0  0  0  0  0  0  0  0
  1  2  2  0
  1  3  1  0
  2  4  1  0
  4  8  2  0
  5 21  1  0
  5  6  2  0
  7 15  2  0
  3  8  1  0
  5  9  1  0
  7 10  1  0
 10 12  2  0
  1 11  1  0
 12 17  1  0
  6 13  1  0
 13 16  2  0
  2 14  1  0
 15 26  1  0
  9 16  1  0
 15 17  1  0
 14 18  3  0
 11 19  1  0
 13 20  1  0
 21 23  1  0
 19 22  2  0
 10 23  1  0
 16 24  1  0
 20 25  2  0
 26 27  1  0
 19 27  1  0
 24 28  2  0
 25 28  1  0
  4 29  1  0
 25 30  1  0
  8 31  1  0
 29 32  1  0
 32 33  1  0
 31 33  1  0
M  END
>  <IDNUMBER>  (450) 
J021-3331

>  <available>  (450) 
76

>  <H_acceptor>  (450) 
8

>  <H_donor>  (450) 
2

>  <B_rotN>  (450) 
9

>  <N_O>  (450) 
8

>  <logP>  (450) 
4.3944

>  <logD>  (450) 
3.0755

>  <logSw>  (450) 
-4.8599

>  <PSA>  (450) 
90.234

>  <pKa_ma>  (450) 
6.1024

>  <pKa_mb>  (450) 
6.7942

>  <N_Chirals>  (450) 
0

>  <Name>  (450) 
3-(3-{[(5-chloro-1H-benzimidazol-2-yl)sulfanyl]methyl}-1,2,4-oxadiazol-5-yl)-N-(3-cyano-4,5,6,7-tetrahydro-1-benzothiophen-2-yl)propanamide

>  <Smile>  (450) 
N#Cc1c(NC(CCc2nc(CSc3nc(cc(cc4)Cl)c4[nH]3)no2)=O)sc2c1CCCC2

>  <Color>  (450) 
ORANGE

>  <Collection>  (450) 
DC

>  <InChI>  (450) 
InChI=1S/C22H19ClN6O2S2/c23-12-5-6-15-16(9-12)26-22(25-15)32-11-18-27-20(31-29-18)8-7-19(30)28-21-14(10-24)13-3-1-2-4-17(13)33-21/h5-6,9H,1-4,7-8,11H2,(H,25,26)(H,28,30)

>  <InChI Key>  (450) 
OLJNEIQICRFLRD-UHFFFAOYSA-N

>  <PERCENTSP3>  (450) 
31.8

>  <Link>  (450) 
https://www.chemdiv.com/catalog/screening-compounds/compound-J021-3331/

>  <MFCDNUMBER>  (450) 
MFCD24847733

>  <CLNUMBER>  (450) 
CL8315

>  <STEREO>  (450) 
ACHIRAL

>  <State>  (450) 
Solid

>  <Similarity score>  (450) 
0.18

$$$$
N-(3-cyano-4,5,6,7-tetrahydro-1-benzothiophen-2-yl)-5-(3-methoxyphenyl)-1,2-oxaz
     RDKit          2D

 27 30  0  0  0  0  0  0  0  0999 V2000
   -1.6810   -1.8937    0.0000 C   0  0  0  0  0  0  0  0  0  0  0  0
   -1.0746   -2.6665    0.0000 C   0  0  0  0  0  0  0  0  0  0  0  0
   -0.8608    1.3401    0.0000 C   0  0  0  0  0  0  0  0  0  0  0  0
   -2.6048   -2.2259    0.0000 S   0  0  0  0  0  0  0  0  0  0  0  0
   -1.6056   -3.4844    0.0000 C   0  0  0  0  0  0  0  0  0  0  0  0
   -1.6206    1.9215    0.0000 N   0  0  0  0  0  0  0  0  0  0  0  0
   -1.6810   -0.8795    0.0000 N   0  0  0  0  0  0  0  0  0  0  0  0
   -0.0728    1.8761    0.0000 C   0  0  0  0  0  0  0  0  0  0  0  0
   -2.5645   -3.2201    0.0000 C   0  0  0  0  0  0  0  0  0  0  0  0
   -0.8156   -0.3789    0.0000 C   0  0  0  0  0  0  0  0  0  0  0  0
   -0.3446    2.7873    0.0000 C   0  0  0  0  0  0  0  0  0  0  0  0
   -1.3012    2.8124    0.0000 O   0  0  0  0  0  0  0  0  0  0  0  0
   -0.0578   -2.6034    0.0000 C   0  0  0  0  0  0  0  0  0  0  0  0
    0.9511   -2.5732    0.0000 N   0  0  0  0  0  0  0  0  0  0  0  0
    0.2466    3.5396    0.0000 C   0  0  0  0  0  0  0  0  0  0  0  0
   -0.0026   -0.8795    0.0000 O   0  0  0  0  0  0  0  0  0  0  0  0
    1.1828    3.4188    0.0000 C   0  0  0  0  0  0  0  0  0  0  0  0
    1.7591    4.1662    0.0000 C   0  0  0  0  0  0  0  0  0  0  0  0
   -1.3464   -4.4530    0.0000 C   0  0  0  0  0  0  0  0  0  0  0  0
   -3.2868   -3.9246    0.0000 C   0  0  0  0  0  0  0  0  0  0  0  0
    2.7003    4.0302    0.0000 O   0  0  0  0  0  0  0  0  0  0  0  0
   -0.1234    4.4078    0.0000 C   0  0  0  0  0  0  0  0  0  0  0  0
    0.4556    5.1680    0.0000 C   0  0  0  0  0  0  0  0  0  0  0  0
    1.3942    5.0448    0.0000 C   0  0  0  0  0  0  0  0  0  0  0  0
    3.2868    4.7880    0.0000 C   0  0  0  0  0  0  0  0  0  0  0  0
   -2.0586   -5.1680    0.0000 C   0  0  0  0  0  0  0  0  0  0  0  0
   -3.0301   -4.9036    0.0000 C   0  0  0  0  0  0  0  0  0  0  0  0
  1  2  2  0
  3 10  1  0
  1  4  1  0
  2  5  1  0
  3  6  2  0
  1  7  1  0
  3  8  1  0
  4  9  1  0
  5  9  2  0
  7 10  1  0
  8 11  2  0
 11 12  1  0
  6 12  1  0
  2 13  1  0
 13 14  3  0
 11 15  1  0
 10 16  2  0
 15 17  2  0
 17 18  1  0
 18 24  2  0
  5 19  1  0
  9 20  1  0
 18 21  1  0
 15 22  1  0
 22 23  2  0
 23 24  1  0
 21 25  1  0
 19 26  1  0
 26 27  1  0
 20 27  1  0
M  END
>  <IDNUMBER>  (451) 
C226-0889

>  <available>  (451) 
118

>  <H_acceptor>  (451) 
6

>  <H_donor>  (451) 
1

>  <B_rotN>  (451) 
6

>  <N_O>  (451) 
6

>  <logP>  (451) 
4.4551

>  <logD>  (451) 
3.1641

>  <logSw>  (451) 
-4.4893

>  <PSA>  (451) 
69.18

>  <pKa_ma>  (451) 
6.1318

>  <pKa_mb>  (451) 
-6.8683

>  <N_Chirals>  (451) 
0

>  <Name>  (451) 
N-(3-cyano-4,5,6,7-tetrahydro-1-benzothiophen-2-yl)-5-(3-methoxyphenyl)-1,2-oxazole-3-carboxamide

>  <Smile>  (451) 
COc1cccc(-c2cc(C(Nc(sc3c4CCCC3)c4C#N)=O)no2)c1

>  <Color>  (451) 
NOT COLORED

>  <Collection>  (451) 
DC

>  <InChI>  (451) 
InChI=1S/C20H17N3O3S/c1-25-13-6-4-5-12(9-13)17-10-16(23-26-17)19(24)22-20-15(11-21)14-7-2-3-8-18(14)27-20/h4-6,9-10H,2-3,7-8H2,1H3,(H,22,24)

>  <InChI Key>  (451) 
SGBTUQGUXSHNJF-UHFFFAOYSA-N

>  <PERCENTSP3>  (451) 
25

>  <Link>  (451) 
https://www.chemdiv.com/catalog/screening-compounds/compound-C226-0889/

>  <MFCDNUMBER>  (451) 
MFCD09782061

>  <CLNUMBER>  (451) 
CL2028

>  <STEREO>  (451) 
ACHIRAL

>  <State>  (451) 
Solid

>  <Similarity score>  (451) 
0.18

$$$$
N-(3-cyano-5,6-dihydro-4H-cyclopenta[b]thiophen-2-yl)-5-(4-methoxyphenyl)-1,2-ox
     RDKit          2D

 26 29  0  0  0  0  0  0  0  0999 V2000
   -1.0049   -2.9090    0.0000 C   0  0  0  0  0  0  0  0  0  0  0  0
   -0.3971   -3.6881    0.0000 C   0  0  0  0  0  0  0  0  0  0  0  0
   -0.0803    0.3956    0.0000 C   0  0  0  0  0  0  0  0  0  0  0  0
   -1.9412   -3.2496    0.0000 S   0  0  0  0  0  0  0  0  0  0  0  0
   -0.9426   -4.5149    0.0000 C   0  0  0  0  0  0  0  0  0  0  0  0
   -0.8654    0.9202    0.0000 N   0  0  0  0  0  0  0  0  0  0  0  0
   -1.0049   -1.9042    0.0000 N   0  0  0  0  0  0  0  0  0  0  0  0
    0.6697    0.9708    0.0000 C   0  0  0  0  0  0  0  0  0  0  0  0
   -1.8967   -4.2336    0.0000 C   0  0  0  0  0  0  0  0  0  0  0  0
   -0.1393   -1.4032    0.0000 C   0  0  0  0  0  0  0  0  0  0  0  0
    0.3408    1.8626    0.0000 C   0  0  0  0  0  0  0  0  0  0  0  0
   -0.5986    1.8331    0.0000 O   0  0  0  0  0  0  0  0  0  0  0  0
    0.6104   -3.6526    0.0000 C   0  0  0  0  0  0  0  0  0  0  0  0
    1.6090   -3.6112    0.0000 N   0  0  0  0  0  0  0  0  0  0  0  0
    0.8711    2.6510    0.0000 C   0  0  0  0  0  0  0  0  0  0  0  0
    0.6992   -1.8567    0.0000 O   0  0  0  0  0  0  0  0  0  0  0  0
    1.8107    2.5856    0.0000 C   0  0  0  0  0  0  0  0  0  0  0  0
    0.4594    3.4985    0.0000 C   0  0  0  0  0  0  0  0  0  0  0  0
   -0.8980   -5.5195    0.0000 C   0  0  0  0  0  0  0  0  0  0  0  0
    1.9263    4.2098    0.0000 C   0  0  0  0  0  0  0  0  0  0  0  0
   -2.4570   -5.0750    0.0000 C   0  0  0  0  0  0  0  0  0  0  0  0
    0.9777    4.2869    0.0000 C   0  0  0  0  0  0  0  0  0  0  0  0
    2.3414    3.3623    0.0000 C   0  0  0  0  0  0  0  0  0  0  0  0
    2.4570    5.0100    0.0000 O   0  0  0  0  0  0  0  0  0  0  0  0
   -1.8523   -5.8635    0.0000 C   0  0  0  0  0  0  0  0  0  0  0  0
    2.0390    5.8635    0.0000 C   0  0  0  0  0  0  0  0  0  0  0  0
  1  2  2  0
  3 10  1  0
  1  4  1  0
  2  5  1  0
  5  9  2  0
  3  6  2  0
  1  7  1  0
  3  8  1  0
  4  9  1  0
  7 10  1  0
  8 11  2  0
 11 12  1  0
  6 12  1  0
  2 13  1  0
 13 14  3  0
 11 15  1  0
 10 16  2  0
 15 17  2  0
 15 18  1  0
  5 19  1  0
 20 22  1  0
  9 21  1  0
 18 22  2  0
 17 23  1  0
 20 23  2  0
 20 24  1  0
 21 25  1  0
 19 25  1  0
 24 26  1  0
M  END
>  <IDNUMBER>  (452) 
C226-0779

>  <available>  (452) 
49

>  <H_acceptor>  (452) 
6

>  <H_donor>  (452) 
1

>  <B_rotN>  (452) 
6

>  <N_O>  (452) 
6

>  <logP>  (452) 
4.0602

>  <logD>  (452) 
2.7496

>  <logSw>  (452) 
-4.3837

>  <PSA>  (452) 
69.546

>  <pKa_ma>  (452) 
6.1111

>  <pKa_mb>  (452) 
-6.8683

>  <N_Chirals>  (452) 
0

>  <Name>  (452) 
N-(3-cyano-5,6-dihydro-4H-cyclopenta[b]thiophen-2-yl)-5-(4-methoxyphenyl)-1,2-oxazole-3-carboxamide

>  <Smile>  (452) 
COc(cc1)ccc1-c1cc(C(Nc(sc2c3CCC2)c3C#N)=O)no1

>  <Color>  (452) 
NOT COLORED

>  <Collection>  (452) 
DC

>  <InChI>  (452) 
InChI=1S/C19H15N3O3S/c1-24-12-7-5-11(6-8-12)16-9-15(22-25-16)18(23)21-19-14(10-20)13-3-2-4-17(13)26-19/h5-9H,2-4H2,1H3,(H,21,23)

>  <InChI Key>  (452) 
JKWBKXHLKIHMPX-UHFFFAOYSA-N

>  <PERCENTSP3>  (452) 
21.1

>  <Link>  (452) 
https://www.chemdiv.com/catalog/screening-compounds/compound-C226-0779/

>  <MFCDNUMBER>  (452) 
MFCD09781980

>  <CLNUMBER>  (452) 
CL2028

>  <STEREO>  (452) 
ACHIRAL

>  <State>  (452) 
Solid

>  <Similarity score>  (452) 
0.18

$$$$
N-(3-cyano-4,5,6,7-tetrahydro-1-benzothiophen-2-yl)-5-(4-methoxyphenyl)-1,2-oxaz
     RDKit          2D

 27 30  0  0  0  0  0  0  0  0999 V2000
   -0.9292   -2.7527    0.0000 C   0  0  0  0  0  0  0  0  0  0  0  0
   -0.3215   -3.5263    0.0000 C   0  0  0  0  0  0  0  0  0  0  0  0
   -0.0045    0.5571    0.0000 C   0  0  0  0  0  0  0  0  0  0  0  0
   -1.8506   -3.0878    0.0000 S   0  0  0  0  0  0  0  0  0  0  0  0
   -0.8521   -4.3441    0.0000 C   0  0  0  0  0  0  0  0  0  0  0  0
   -0.7897    1.0815    0.0000 N   0  0  0  0  0  0  0  0  0  0  0  0
   -0.9292   -1.7425    0.0000 N   0  0  0  0  0  0  0  0  0  0  0  0
    0.7453    1.1320    0.0000 C   0  0  0  0  0  0  0  0  0  0  0  0
   -1.8122   -4.0805    0.0000 C   0  0  0  0  0  0  0  0  0  0  0  0
   -0.0636   -1.2416    0.0000 C   0  0  0  0  0  0  0  0  0  0  0  0
    0.4164    2.0240    0.0000 C   0  0  0  0  0  0  0  0  0  0  0  0
   -0.5232    1.9942    0.0000 O   0  0  0  0  0  0  0  0  0  0  0  0
    0.6888   -3.4639    0.0000 C   0  0  0  0  0  0  0  0  0  0  0  0
    1.6994   -3.4344    0.0000 N   0  0  0  0  0  0  0  0  0  0  0  0
    0.9466    2.8122    0.0000 C   0  0  0  0  0  0  0  0  0  0  0  0
    0.7749   -1.6949    0.0000 O   0  0  0  0  0  0  0  0  0  0  0  0
    1.8862    2.7469    0.0000 C   0  0  0  0  0  0  0  0  0  0  0  0
    0.5348    3.6595    0.0000 C   0  0  0  0  0  0  0  0  0  0  0  0
    2.0016    4.3708    0.0000 C   0  0  0  0  0  0  0  0  0  0  0  0
   -0.5941   -5.3130    0.0000 C   0  0  0  0  0  0  0  0  0  0  0  0
    2.4167    3.5234    0.0000 C   0  0  0  0  0  0  0  0  0  0  0  0
    1.0533    4.4478    0.0000 C   0  0  0  0  0  0  0  0  0  0  0  0
   -2.5323   -4.7829    0.0000 C   0  0  0  0  0  0  0  0  0  0  0  0
    2.5323    5.1709    0.0000 O   0  0  0  0  0  0  0  0  0  0  0  0
    2.1143    6.0243    0.0000 C   0  0  0  0  0  0  0  0  0  0  0  0
   -1.3054   -6.0243    0.0000 C   0  0  0  0  0  0  0  0  0  0  0  0
   -2.2743   -5.7635    0.0000 C   0  0  0  0  0  0  0  0  0  0  0  0
  1  2  2  0
  3 10  1  0
  1  4  1  0
  2  5  1  0
  3  6  2  0
  1  7  1  0
  3  8  1  0
  4  9  1  0
  5  9  2  0
  7 10  1  0
  8 11  2  0
 11 12  1  0
  6 12  1  0
  2 13  1  0
 13 14  3  0
 11 15  1  0
 10 16  2  0
 15 17  2  0
 15 18  1  0
 19 22  1  0
  5 20  1  0
 17 21  1  0
 19 21  2  0
 18 22  2  0
  9 23  1  0
 19 24  1  0
 24 25  1  0
 20 26  1  0
 26 27  1  0
 23 27  1  0
M  END
>  <IDNUMBER>  (453) 
C226-0775

>  <available>  (453) 
64

>  <H_acceptor>  (453) 
6

>  <H_donor>  (453) 
1

>  <B_rotN>  (453) 
6

>  <N_O>  (453) 
6

>  <logP>  (453) 
4.4705

>  <logD>  (453) 
3.1794

>  <logSw>  (453) 
-4.4701

>  <PSA>  (453) 
69.18

>  <pKa_ma>  (453) 
6.1318

>  <pKa_mb>  (453) 
-6.8683

>  <N_Chirals>  (453) 
0

>  <Name>  (453) 
N-(3-cyano-4,5,6,7-tetrahydro-1-benzothiophen-2-yl)-5-(4-methoxyphenyl)-1,2-oxazole-3-carboxamide

>  <Smile>  (453) 
COc(cc1)ccc1-c1cc(C(Nc(sc2c3CCCC2)c3C#N)=O)no1

>  <Color>  (453) 
NOT COLORED

>  <Collection>  (453) 
DC

>  <InChI>  (453) 
InChI=1S/C20H17N3O3S/c1-25-13-8-6-12(7-9-13)17-10-16(23-26-17)19(24)22-20-15(11-21)14-4-2-3-5-18(14)27-20/h6-10H,2-5H2,1H3,(H,22,24)

>  <InChI Key>  (453) 
GEOFPCNFWRTZNM-UHFFFAOYSA-N

>  <PERCENTSP3>  (453) 
25

>  <Link>  (453) 
https://www.chemdiv.com/catalog/screening-compounds/compound-C226-0775/

>  <MFCDNUMBER>  (453) 
MFCD08546569

>  <CLNUMBER>  (453) 
CL2028

>  <STEREO>  (453) 
ACHIRAL

>  <State>  (453) 
Solid

>  <Similarity score>  (453) 
0.18

$$$$
1-{3-fluoro-3-[3-(pyridin-4-yl)-1,2,4-oxadiazol-5-yl]piperidin-1-yl}-2-methylpro
     RDKit          2D

 23 25  0  0  0  0  0  0  0  0999 V2000
   -0.6408    0.9399    0.0000 N   0  0  0  0  0  0  0  0  0  0  0  0
    0.3463    1.0966    0.0000 C   0  0  0  0  0  0  0  0  0  0  0  0
    1.0512    0.3916    0.0000 C   0  0  0  0  0  0  0  0  0  0  0  0
   -1.0950    1.8327    0.0000 C   0  0  0  0  0  0  0  0  0  0  0  0
    2.5551   -0.4793    0.0000 N   0  0  0  0  0  0  0  0  0  0  0  0
   -0.3901    2.5440    0.0000 N   0  0  0  0  0  0  0  0  0  0  0  0
    0.5029    2.0867    0.0000 O   0  0  0  0  0  0  0  0  0  0  0  0
    3.0532   -1.3379    0.0000 C   0  0  0  0  0  0  0  0  0  0  0  0
    1.5556   -0.4793    0.0000 C   0  0  0  0  0  0  0  0  0  0  0  0
    4.0557   -1.3379    0.0000 O   0  0  0  0  0  0  0  0  0  0  0  0
   -2.0788    1.9893    0.0000 C   0  0  0  0  0  0  0  0  0  0  0  0
    0.6720   -0.5359    0.0000 F   0  0  0  0  0  0  0  0  0  0  0  0
   -4.0557    2.3026    0.0000 N   0  0  0  0  0  0  0  0  0  0  0  0
    2.5551   -2.2025    0.0000 C   0  0  0  0  0  0  0  0  0  0  0  0
    1.5556    1.2563    0.0000 C   0  0  0  0  0  0  0  0  0  0  0  0
    3.0532    0.3916    0.0000 C   0  0  0  0  0  0  0  0  0  0  0  0
    2.5551    1.2563    0.0000 C   0  0  0  0  0  0  0  0  0  0  0  0
   -3.7049    1.3724    0.0000 C   0  0  0  0  0  0  0  0  0  0  0  0
   -3.4261    3.0735    0.0000 C   0  0  0  0  0  0  0  0  0  0  0  0
   -2.7118    1.2094    0.0000 C   0  0  0  0  0  0  0  0  0  0  0  0
   -2.4453    2.9199    0.0000 C   0  0  0  0  0  0  0  0  0  0  0  0
    3.0532   -3.0735    0.0000 C   0  0  0  0  0  0  0  0  0  0  0  0
    1.5556   -2.2025    0.0000 C   0  0  0  0  0  0  0  0  0  0  0  0
  1  2  2  0
  2  3  1  0
  1  4  1  0
  5  9  1  0
  4  6  2  0
  6  7  1  0
  2  7  1  0
  5  8  1  0
  3  9  1  0
  8 10  2  0
  4 11  1  0
  3 12  1  0
 13 19  2  0
 13 18  1  0
  8 14  1  0
  3 15  1  0
 16 17  1  0
  5 16  1  0
 15 17  1  0
 18 20  2  0
 19 21  1  0
 11 20  1  0
 11 21  2  0
 14 22  1  0
 14 23  1  0
M  END
>  <IDNUMBER>  (454) 
SA92-0213

>  <available>  (454) 
54

>  <H_acceptor>  (454) 
6

>  <H_donor>  (454) 
0

>  <B_rotN>  (454) 
4

>  <N_O>  (454) 
6

>  <logP>  (454) 
2.2953

>  <logD>  (454) 
2.2952

>  <logSw>  (454) 
-2.2391

>  <PSA>  (454) 
57.926

>  <pKa_ma>  (454) 
22.648

>  <pKa_mb>  (454) 
3.6841

>  <N_Chirals>  (454) 
1

>  <Name>  (454) 
1-{3-fluoro-3-[3-(pyridin-4-yl)-1,2,4-oxadiazol-5-yl]piperidin-1-yl}-2-methylpropan-1-one

>  <Smile>  (454) 
CC(C)C(N(CCC1)CC1(c1nc(-c2ccncc2)no1)F)=O

>  <Color>  (454) 
YELLOW

>  <Collection>  (454) 
IC

>  <InChI>  (454) 
InChI=1S/C16H19FN4O2/c1-11(2)14(22)21-9-3-6-16(17,10-21)15-19-13(20-23-15)12-4-7-18-8-5-12/h4-5,7-8,11H,3,6,9-10H2,1-2H3/t16-/m0/s1

>  <InChI Key>  (454) 
XAYAYKFRHPGKDT-INIZCTEOSA-N

>  <PERCENTSP3>  (454) 
50

>  <Link>  (454) 
https://www.chemdiv.com/catalog/screening-compounds/compound-SA92-0213/

>  <MFCDNUMBER>  (454) 
MFCD32241822

>  <CLNUMBER>  (454) 
CM4899

>  <STEREO>  (454) 
RACEMIC MIXTURE

>  <State>  (454) 
Liquid

>  <Similarity score>  (454) 
0.18

$$$$
(3,5-dimethoxyphenyl){3-fluoro-3-[3-(pyridin-4-yl)-1,2,4-oxadiazol-5-yl]piperidi
     RDKit          2D

 30 33  0  0  0  0  0  0  0  0999 V2000
   -2.1347    0.9351    0.0000 N   0  0  0  0  0  0  0  0  0  0  0  0
   -1.1576    1.0917    0.0000 C   0  0  0  0  0  0  0  0  0  0  0  0
   -0.4497    0.3899    0.0000 C   0  0  0  0  0  0  0  0  0  0  0  0
   -2.5920    1.8246    0.0000 C   0  0  0  0  0  0  0  0  0  0  0  0
    1.0542   -0.4778    0.0000 N   0  0  0  0  0  0  0  0  0  0  0  0
   -1.8906    2.5389    0.0000 N   0  0  0  0  0  0  0  0  0  0  0  0
    1.5521   -1.3424    0.0000 C   0  0  0  0  0  0  0  0  0  0  0  0
   -1.0038    2.0785    0.0000 O   0  0  0  0  0  0  0  0  0  0  0  0
    2.5545   -1.3424    0.0000 C   0  0  0  0  0  0  0  0  0  0  0  0
    0.0549   -0.4778    0.0000 C   0  0  0  0  0  0  0  0  0  0  0  0
    3.0528   -0.4778    0.0000 C   0  0  0  0  0  0  0  0  0  0  0  0
    3.0528   -2.2069    0.0000 C   0  0  0  0  0  0  0  0  0  0  0  0
    1.0542   -2.2069    0.0000 O   0  0  0  0  0  0  0  0  0  0  0  0
   -3.5788    1.9937    0.0000 C   0  0  0  0  0  0  0  0  0  0  0  0
    4.5500   -1.3424    0.0000 C   0  0  0  0  0  0  0  0  0  0  0  0
    4.0521   -0.4778    0.0000 C   0  0  0  0  0  0  0  0  0  0  0  0
    4.0521   -2.2069    0.0000 C   0  0  0  0  0  0  0  0  0  0  0  0
   -0.8253   -0.5309    0.0000 F   0  0  0  0  0  0  0  0  0  0  0  0
   -5.5555    2.3042    0.0000 N   0  0  0  0  0  0  0  0  0  0  0  0
    0.0549    1.2608    0.0000 C   0  0  0  0  0  0  0  0  0  0  0  0
    1.5521    0.3899    0.0000 C   0  0  0  0  0  0  0  0  0  0  0  0
    4.5500    0.3899    0.0000 O   0  0  0  0  0  0  0  0  0  0  0  0
    4.5500   -3.0778    0.0000 O   0  0  0  0  0  0  0  0  0  0  0  0
    1.0542    1.2608    0.0000 C   0  0  0  0  0  0  0  0  0  0  0  0
   -4.9229    3.0778    0.0000 C   0  0  0  0  0  0  0  0  0  0  0  0
   -5.2045    1.3674    0.0000 C   0  0  0  0  0  0  0  0  0  0  0  0
   -3.9361    2.9243    0.0000 C   0  0  0  0  0  0  0  0  0  0  0  0
   -4.2118    1.2139    0.0000 C   0  0  0  0  0  0  0  0  0  0  0  0
    5.5555    0.3899    0.0000 C   0  0  0  0  0  0  0  0  0  0  0  0
    5.5555   -3.0778    0.0000 C   0  0  0  0  0  0  0  0  0  0  0  0
  1  2  2  0
  2  3  1  0
  1  4  1  0
  5 10  1  0
  4  6  2  0
  6  8  1  0
  5  7  1  0
  2  8  1  0
  7  9  1  0
  3 10  1  0
  9 11  2  0
  9 12  1  0
  7 13  2  0
  4 14  1  0
 15 17  1  0
 11 16  1  0
 15 16  2  0
 12 17  2  0
  3 18  1  0
 19 26  1  0
 19 25  2  0
  3 20  1  0
 21 24  1  0
  5 21  1  0
 16 22  1  0
 17 23  1  0
 20 24  1  0
 25 27  1  0
 26 28  2  0
 14 27  2  0
 14 28  1  0
 22 29  1  0
 23 30  1  0
M  END
>  <IDNUMBER>  (455) 
SA92-0205

>  <available>  (455) 
69

>  <H_acceptor>  (455) 
8

>  <H_donor>  (455) 
0

>  <B_rotN>  (455) 
6

>  <N_O>  (455) 
8

>  <logP>  (455) 
2.8318

>  <logD>  (455) 
2.8317

>  <logSw>  (455) 
-2.9931

>  <PSA>  (455) 
72.742

>  <pKa_ma>  (455) 
27.08

>  <pKa_mb>  (455) 
3.6841

>  <N_Chirals>  (455) 
1

>  <Name>  (455) 
(3,5-dimethoxyphenyl){3-fluoro-3-[3-(pyridin-4-yl)-1,2,4-oxadiazol-5-yl]piperidin-1-yl}methanone

>  <Smile>  (455) 
COc1cc(C(N(CCC2)CC2(c2nc(-c3ccncc3)no2)F)=O)cc(OC)c1

>  <Color>  (455) 
YELLOW

>  <Collection>  (455) 
IC

>  <InChI>  (455) 
InChI=1S/C21H21FN4O4/c1-28-16-10-15(11-17(12-16)29-2)19(27)26-9-3-6-21(22,13-26)20-24-18(25-30-20)14-4-7-23-8-5-14/h4-5,7-8,10-12H,3,6,9,13H2,1-2H3/t21-/m0/s1

>  <InChI Key>  (455) 
LRSRYDINSILLBT-NRFANRHFSA-N

>  <PERCENTSP3>  (455) 
33.33

>  <Link>  (455) 
https://www.chemdiv.com/catalog/screening-compounds/compound-SA92-0205/

>  <MFCDNUMBER>  (455) 
MFCD32241696

>  <CLNUMBER>  (455) 
CM4899

>  <STEREO>  (455) 
RACEMIC MIXTURE

>  <State>  (455) 
Liquid

>  <Similarity score>  (455) 
0.18

$$$$
3-(5-{3-fluoro-1-[(5-methylthiophen-2-yl)methyl]piperidin-3-yl}-1,2,4-oxadiazol-
     RDKit          2D

 25 28  0  0  0  0  0  0  0  0999 V2000
    1.1966   -0.4168    0.0000 N   0  0  0  0  0  0  0  0  0  0  0  0
    0.8338   -1.3465    0.0000 C   0  0  0  0  0  0  0  0  0  0  0  0
    2.1970   -0.4669    0.0000 C   0  0  0  0  0  0  0  0  0  0  0  0
   -0.1292   -1.6092    0.0000 C   0  0  0  0  0  0  0  0  0  0  0  0
    2.4471   -1.4340    0.0000 N   0  0  0  0  0  0  0  0  0  0  0  0
    1.6175   -1.9802    0.0000 O   0  0  0  0  0  0  0  0  0  0  0  0
   -2.7807    0.9923    0.0000 S   0  0  0  0  0  0  0  0  0  0  0  0
   -0.9964   -0.1085    0.0000 N   0  0  0  0  0  0  0  0  0  0  0  0
   -1.8594    1.3925    0.0000 C   0  0  0  0  0  0  0  0  0  0  0  0
    2.8224    0.3084    0.0000 C   0  0  0  0  0  0  0  0  0  0  0  0
   -0.1292   -0.6086    0.0000 C   0  0  0  0  0  0  0  0  0  0  0  0
   -3.4434    1.7301    0.0000 C   0  0  0  0  0  0  0  0  0  0  0  0
   -1.9676    2.3931    0.0000 C   0  0  0  0  0  0  0  0  0  0  0  0
   -2.9432    2.5973    0.0000 C   0  0  0  0  0  0  0  0  0  0  0  0
   -0.9964    0.8921    0.0000 C   0  0  0  0  0  0  0  0  0  0  0  0
    4.4440    0.9298    0.0000 N   0  0  0  0  0  0  0  0  0  0  0  0
   -0.2584   -2.5973    0.0000 F   0  0  0  0  0  0  0  0  0  0  0  0
   -0.9964   -2.1095    0.0000 C   0  0  0  0  0  0  0  0  0  0  0  0
    3.8105    0.1542    0.0000 C   0  0  0  0  0  0  0  0  0  0  0  0
   -1.8594   -0.6086    0.0000 C   0  0  0  0  0  0  0  0  0  0  0  0
    2.4681    1.2424    0.0000 C   0  0  0  0  0  0  0  0  0  0  0  0
   -1.8594   -1.6092    0.0000 C   0  0  0  0  0  0  0  0  0  0  0  0
   -4.4440    1.6301    0.0000 C   0  0  0  0  0  0  0  0  0  0  0  0
    4.0856    1.8677    0.0000 C   0  0  0  0  0  0  0  0  0  0  0  0
    3.0975    2.0220    0.0000 C   0  0  0  0  0  0  0  0  0  0  0  0
  1  2  2  0
  1  3  1  0
  2  4  1  0
  3  5  2  0
  5  6  1  0
  2  6  1  0
  7  9  1  0
  8 11  1  0
  8 20  1  0
  9 15  1  0
  3 10  1  0
  4 11  1  0
  7 12  1  0
 12 14  2  0
  9 13  2  0
 13 14  1  0
  8 15  1  0
 16 19  2  0
 16 24  1  0
  4 17  1  0
  4 18  1  0
 10 19  1  0
 20 22  1  0
 10 21  2  0
 18 22  1  0
 12 23  1  0
 24 25  2  0
 21 25  1  0
M  END
>  <IDNUMBER>  (456) 
SA92-0555

>  <available>  (456) 
2

>  <H_acceptor>  (456) 
5

>  <H_donor>  (456) 
0

>  <B_rotN>  (456) 
4

>  <N_O>  (456) 
5

>  <logP>  (456) 
3.3148

>  <logD>  (456) 
2.6761

>  <logSw>  (456) 
-3.1843

>  <PSA>  (456) 
45.846

>  <pKa_ma>  (456) 
26.9519

>  <pKa_mb>  (456) 
7.9253

>  <N_Chirals>  (456) 
1

>  <Name>  (456) 
3-(5-{3-fluoro-1-[(5-methylthiophen-2-yl)methyl]piperidin-3-yl}-1,2,4-oxadiazol-3-yl)pyridine

>  <Smile>  (456) 
Cc1ccc(CN(CCC2)CC2(c2nc(-c3cnccc3)no2)F)s1

>  <Color>  (456) 
ORANGE

>  <Collection>  (456) 
IC

>  <InChI>  (456) 
InChI=1S/C18H19FN4OS/c1-13-5-6-15(25-13)11-23-9-3-7-18(19,12-23)17-21-16(22-24-17)14-4-2-8-20-10-14/h2,4-6,8,10H,3,7,9,11-12H2,1H3/t18-/m0/s1

>  <InChI Key>  (456) 
JUCNFSLBQFYAJL-SFHVURJKSA-N

>  <PERCENTSP3>  (456) 
38.89

>  <Link>  (456) 
https://www.chemdiv.com/catalog/screening-compounds/compound-SA92-0555/

>  <MFCDNUMBER>  (456) 
MFCD32242468

>  <CLNUMBER>  (456) 
CM4899

>  <STEREO>  (456) 
RACEMIC MIXTURE

>  <State>  (456) 
Liquid

>  <Similarity score>  (456) 
0.18

$$$$
N-(6-tert-butyl-3-cyano-4,5,6,7-tetrahydro-1-benzothiophen-2-yl)-2-(4-ethylpheno
     RDKit          2D

 29 31  0  0  0  0  0  0  0  0999 V2000
    1.2331   -0.4104    0.0000 C   0  0  0  0  0  0  0  0  0  0  0  0
    1.8705    0.3977    0.0000 C   0  0  0  0  0  0  0  0  0  0  0  0
    2.8036   -0.9351    0.0000 C   0  0  0  0  0  0  0  0  0  0  0  0
    2.8036    0.0605    0.0000 C   0  0  0  0  0  0  0  0  0  0  0  0
    1.8080   -1.2228    0.0000 S   0  0  0  0  0  0  0  0  0  0  0  0
    0.2583   -0.3853    0.0000 N   0  0  0  0  0  0  0  0  0  0  0  0
   -0.2624   -1.2599    0.0000 C   0  0  0  0  0  0  0  0  0  0  0  0
    1.6330    1.3477    0.0000 C   0  0  0  0  0  0  0  0  0  0  0  0
    3.6660   -1.4476    0.0000 C   0  0  0  0  0  0  0  0  0  0  0  0
    1.3955    2.2974    0.0000 N   0  0  0  0  0  0  0  0  0  0  0  0
    3.6660    0.5603    0.0000 C   0  0  0  0  0  0  0  0  0  0  0  0
    4.5409   -0.9478    0.0000 C   0  0  0  0  0  0  0  0  0  0  0  0
   -1.2623   -1.2599    0.0000 C   0  0  0  0  0  0  0  0  0  0  0  0
   -1.7621   -0.3853    0.0000 O   0  0  0  0  0  0  0  0  0  0  0  0
    5.3865   -1.4352    0.0000 C   0  0  0  0  0  0  0  0  0  0  0  0
    0.2583   -2.1348    0.0000 O   0  0  0  0  0  0  0  0  0  0  0  0
    4.5409    0.0605    0.0000 C   0  0  0  0  0  0  0  0  0  0  0  0
   -2.7577   -0.3853    0.0000 C   0  0  0  0  0  0  0  0  0  0  0  0
   -4.7532   -0.3853    0.0000 C   0  0  0  0  0  0  0  0  0  0  0  0
   -3.2576   -1.2599    0.0000 C   0  0  0  0  0  0  0  0  0  0  0  0
   -3.2576    0.4855    0.0000 C   0  0  0  0  0  0  0  0  0  0  0  0
   -4.2575    0.4855    0.0000 C   0  0  0  0  0  0  0  0  0  0  0  0
   -4.2575   -1.2599    0.0000 C   0  0  0  0  0  0  0  0  0  0  0  0
    6.2238   -1.9224    0.0000 C   0  0  0  0  0  0  0  0  0  0  0  0
    5.8864   -0.5728    0.0000 C   0  0  0  0  0  0  0  0  0  0  0  0
    4.8908   -2.2974    0.0000 C   0  0  0  0  0  0  0  0  0  0  0  0
   -1.7621   -2.1348    0.0000 C   0  0  0  0  0  0  0  0  0  0  0  0
   -5.7531   -0.4104    0.0000 C   0  0  0  0  0  0  0  0  0  0  0  0
   -6.2238   -1.2852    0.0000 C   0  0  0  0  0  0  0  0  0  0  0  0
  1  2  2  0
  3  5  1  0
  3  4  2  0
  2  4  1  0
  1  5  1  0
  1  6  1  0
  6  7  1  0
  2  8  1  0
  3  9  1  0
  8 10  3  0
  4 11  1  0
  9 12  1  0
  7 13  1  0
 13 14  1  0
 12 15  1  0
  7 16  2  0
 11 17  1  0
 12 17  1  0
 14 18  1  0
 19 22  2  0
 19 23  1  0
 18 20  1  0
 18 21  2  0
 21 22  1  0
 20 23  2  0
 15 24  1  0
 15 25  1  0
 15 26  1  0
 13 27  1  0
 19 28  1  0
 28 29  1  0
M  END
>  <IDNUMBER>  (457) 
Y202-9979

>  <available>  (457) 
19

>  <H_acceptor>  (457) 
4

>  <H_donor>  (457) 
1

>  <B_rotN>  (457) 
8

>  <N_O>  (457) 
4

>  <logP>  (457) 
6.4913

>  <logD>  (457) 
5.0733

>  <logSw>  (457) 
-5.6398

>  <PSA>  (457) 
46.89

>  <pKa_ma>  (457) 
5.9989

>  <pKa_mb>  (457) 
-4.9316

>  <N_Chirals>  (457) 
2

>  <Name>  (457) 
N-(6-tert-butyl-3-cyano-4,5,6,7-tetrahydro-1-benzothiophen-2-yl)-2-(4-ethylphenoxy)propanamide

>  <Smile>  (457) 
CCc(cc1)ccc1OC(C)C(Nc(sc(C1)c2CCC1C(C)(C)C)c2C#N)=O

>  <Color>  (457) 
NOT COLORED

>  <Collection>  (457) 
DC

>  <InChI>  (457) 
InChI=1S/C24H30N2O2S/c1-6-16-7-10-18(11-8-16)28-15(2)22(27)26-23-20(14-25)19-12-9-17(24(3,4)5)13-21(19)29-23/h7-8,10-11,15,17H,6,9,12-13H2,1-5H3,(H,26,27)

>  <InChI Key>  (457) 
PKKSFPGCVYGOKM-UHFFFAOYSA-N

>  <PERCENTSP3>  (457) 
50

>  <Link>  (457) 
https://www.chemdiv.com/catalog/screening-compounds/compound-Y202-9979/

>  <MFCDNUMBER>  (457) 
MFCD03944545

>  <STEREO>  (457) 
MIXTURE OF STEREOISOMERS

>  <State>  (457) 
Solid

>  <Similarity score>  (457) 
0.18

$$$$
2-amino-6-(propan-2-yl)-4,5,6,7-tetrahydrothieno[2,3-c]pyridine-3-carbonitrile
     RDKit          2D

 15 16  0  0  0  0  0  0  0  0999 V2000
    1.6707   -0.0209    0.0000 C   0  0  0  0  0  0  0  0  0  0  0  0
    1.9541   -0.9833    0.0000 C   0  0  0  0  0  0  0  0  0  0  0  0
    0.3292   -0.9208    0.0000 C   0  0  0  0  0  0  0  0  0  0  0  0
    0.6708    0.0167    0.0000 C   0  0  0  0  0  0  0  0  0  0  0  0
    1.1166   -1.5459    0.0000 S   0  0  0  0  0  0  0  0  0  0  0  0
   -1.2959   -0.3209    0.0000 N   0  0  0  0  0  0  0  0  0  0  0  0
   -0.6458   -1.0917    0.0000 C   0  0  0  0  0  0  0  0  0  0  0  0
    2.2834    0.7584    0.0000 C   0  0  0  0  0  0  0  0  0  0  0  0
    2.9166    1.5459    0.0000 N   0  0  0  0  0  0  0  0  0  0  0  0
    0.0334    0.7709    0.0000 C   0  0  0  0  0  0  0  0  0  0  0  0
   -0.9541    0.6166    0.0000 C   0  0  0  0  0  0  0  0  0  0  0  0
    2.8833   -1.3167    0.0000 N   0  0  0  0  0  0  0  0  0  0  0  0
   -2.2834   -0.4916    0.0000 C   0  0  0  0  0  0  0  0  0  0  0  0
   -2.6333   -1.4416    0.0000 C   0  0  0  0  0  0  0  0  0  0  0  0
   -2.9166    0.2792    0.0000 C   0  0  0  0  0  0  0  0  0  0  0  0
  1  2  2  0
  3  4  2  0
  1  4  1  0
  2  5  1  0
  3  5  1  0
  6 11  1  0
  3  7  1  0
  6  7  1  0
  1  8  1  0
  8  9  3  0
  4 10  1  0
 10 11  1  0
  2 12  1  0
  6 13  1  0
 13 14  1  0
 13 15  1  0
M  END
>  <IDNUMBER>  (458) 
Y512-6850

>  <available>  (458) 
73

>  <H_acceptor>  (458) 
2

>  <H_donor>  (458) 
2

>  <B_rotN>  (458) 
2

>  <N_O>  (458) 
3

>  <logP>  (458) 
1.827

>  <logD>  (458) 
1.797

>  <logSw>  (458) 
-1.691

>  <PSA>  (458) 
42.29

>  <pKa_ma>  (458) 
15.47

>  <pKa_mb>  (458) 
6.257

>  <N_Chirals>  (458) 
0

>  <Name>  (458) 
2-amino-6-(propan-2-yl)-4,5,6,7-tetrahydrothieno[2,3-c]pyridine-3-carbonitrile

>  <Smile>  (458) 
c1(c(sc2c1CCN(C2)C(C)C)N)C#N

>  <Color>  (458) 
BROWN

>  <Collection>  (458) 
DC

>  <InChI>  (458) 
InChI=1S/C11H15N3S/c1-7(2)14-4-3-8-9(5-12)11(13)15-10(8)6-14/h7H,3-4,6,13H2,1-2H3

>  <InChI Key>  (458) 
GRVDEWDYQKUPSB-UHFFFAOYSA-N

>  <PERCENTSP3>  (458) 
54.5

>  <Link>  (458) 
https://www.chemdiv.com/catalog/screening-compounds/compound-Y512-6850/

>  <MFCDNUMBER>  (458) 
MFCD00742042

>  <STEREO>  (458) 
ACHIRAL

>  <State>  (458) 
Solid

>  <Similarity score>  (458) 
0.18

$$$$
N-ethyl-3-fluoro-3-[3-(pyridin-4-yl)-1,2,4-oxadiazol-5-yl]piperidine-1-carboxami
     RDKit          2D

 23 25  0  0  0  0  0  0  0  0999 V2000
   -1.3834    0.5094    0.0000 N   0  0  0  0  0  0  0  0  0  0  0  0
   -0.4028    0.6659    0.0000 C   0  0  0  0  0  0  0  0  0  0  0  0
    0.3088   -0.0487    0.0000 C   0  0  0  0  0  0  0  0  0  0  0  0
   -1.8442    1.3993    0.0000 C   0  0  0  0  0  0  0  0  0  0  0  0
   -1.1359    2.1076    0.0000 N   0  0  0  0  0  0  0  0  0  0  0  0
    1.8066   -0.9134    0.0000 N   0  0  0  0  0  0  0  0  0  0  0  0
   -0.2430    1.6531    0.0000 O   0  0  0  0  0  0  0  0  0  0  0  0
    2.3049   -1.7784    0.0000 C   0  0  0  0  0  0  0  0  0  0  0  0
    0.8070   -0.9134    0.0000 C   0  0  0  0  0  0  0  0  0  0  0  0
    1.8066   -2.6434    0.0000 O   0  0  0  0  0  0  0  0  0  0  0  0
   -2.8281    1.5591    0.0000 C   0  0  0  0  0  0  0  0  0  0  0  0
   -0.0769   -0.9698    0.0000 F   0  0  0  0  0  0  0  0  0  0  0  0
   -4.8056    1.8694    0.0000 N   0  0  0  0  0  0  0  0  0  0  0  0
    3.3078   -1.7784    0.0000 N   0  0  0  0  0  0  0  0  0  0  0  0
    0.8070    0.8197    0.0000 C   0  0  0  0  0  0  0  0  0  0  0  0
    2.3049   -0.0487    0.0000 C   0  0  0  0  0  0  0  0  0  0  0  0
    1.8066    0.8197    0.0000 C   0  0  0  0  0  0  0  0  0  0  0  0
   -4.4545    0.9323    0.0000 C   0  0  0  0  0  0  0  0  0  0  0  0
   -4.1821    2.6434    0.0000 C   0  0  0  0  0  0  0  0  0  0  0  0
   -3.4613    0.7788    0.0000 C   0  0  0  0  0  0  0  0  0  0  0  0
   -3.1948    2.4899    0.0000 C   0  0  0  0  0  0  0  0  0  0  0  0
    3.8091   -2.6434    0.0000 C   0  0  0  0  0  0  0  0  0  0  0  0
    4.8056   -2.6434    0.0000 C   0  0  0  0  0  0  0  0  0  0  0  0
  1  2  2  0
  2  3  1  0
  1  4  1  0
  4  5  2  0
  5  7  1  0
  6  9  1  0
  2  7  1  0
  6  8  1  0
  3  9  1  0
  8 10  2  0
  4 11  1  0
  3 12  1  0
 13 19  2  0
 13 18  1  0
  8 14  1  0
  3 15  1  0
 16 17  1  0
  6 16  1  0
 15 17  1  0
 18 20  2  0
 19 21  1  0
 11 20  1  0
 11 21  2  0
 14 22  1  0
 22 23  1  0
M  END
>  <IDNUMBER>  (459) 
SA92-0267

>  <available>  (459) 
118

>  <H_acceptor>  (459) 
6

>  <H_donor>  (459) 
1

>  <B_rotN>  (459) 
5

>  <N_O>  (459) 
7

>  <logP>  (459) 
1.6405

>  <logD>  (459) 
1.6404

>  <logSw>  (459) 
-1.7848

>  <PSA>  (459) 
67.694

>  <pKa_ma>  (459) 
16.53

>  <pKa_mb>  (459) 
3.6841

>  <N_Chirals>  (459) 
1

>  <Name>  (459) 
N-ethyl-3-fluoro-3-[3-(pyridin-4-yl)-1,2,4-oxadiazol-5-yl]piperidine-1-carboxamide

>  <Smile>  (459) 
CCNC(N(CCC1)CC1(c1nc(-c2ccncc2)no1)F)=O

>  <Color>  (459) 
YELLOW

>  <Collection>  (459) 
IC

>  <InChI>  (459) 
InChI=1S/C15H18FN5O2/c1-2-18-14(22)21-9-3-6-15(16,10-21)13-19-12(20-23-13)11-4-7-17-8-5-11/h4-5,7-8H,2-3,6,9-10H2,1H3,(H,18,22)/t15-/m0/s1

>  <InChI Key>  (459) 
OCHWKHZWKWSLGB-HNNXBMFYSA-N

>  <PERCENTSP3>  (459) 
46.67

>  <Link>  (459) 
https://www.chemdiv.com/catalog/screening-compounds/compound-SA92-0267/

>  <MFCDNUMBER>  (459) 
MFCD32242331

>  <CLNUMBER>  (459) 
CM4899

>  <STEREO>  (459) 
RACEMIC MIXTURE

>  <State>  (459) 
Solid

>  <Similarity score>  (459) 
0.18

$$$$
2-(4-ethoxyphenyl)-1-{3-fluoro-3-[3-(pyridin-3-yl)-1,2,4-oxadiazol-5-yl]piperidi
     RDKit          2D

 30 33  0  0  0  0  0  0  0  0999 V2000
    2.0713   -0.1291    0.0000 N   0  0  0  0  0  0  0  0  0  0  0  0
    1.7087   -1.0586    0.0000 C   0  0  0  0  0  0  0  0  0  0  0  0
    3.0717   -0.1791    0.0000 C   0  0  0  0  0  0  0  0  0  0  0  0
    0.7462   -1.3212    0.0000 C   0  0  0  0  0  0  0  0  0  0  0  0
    3.3300   -1.1462    0.0000 N   0  0  0  0  0  0  0  0  0  0  0  0
   -0.1168    0.1791    0.0000 N   0  0  0  0  0  0  0  0  0  0  0  0
    2.4922   -1.6921    0.0000 O   0  0  0  0  0  0  0  0  0  0  0  0
   -0.1168    1.1796    0.0000 C   0  0  0  0  0  0  0  0  0  0  0  0
    0.7462   -0.3211    0.0000 C   0  0  0  0  0  0  0  0  0  0  0  0
    3.6967    0.5959    0.0000 C   0  0  0  0  0  0  0  0  0  0  0  0
   -0.9836    1.6796    0.0000 C   0  0  0  0  0  0  0  0  0  0  0  0
    0.7462    1.6796    0.0000 O   0  0  0  0  0  0  0  0  0  0  0  0
    5.3179    1.2170    0.0000 N   0  0  0  0  0  0  0  0  0  0  0  0
    0.6169   -2.3089    0.0000 F   0  0  0  0  0  0  0  0  0  0  0  0
   -1.8546    1.1796    0.0000 C   0  0  0  0  0  0  0  0  0  0  0  0
   -0.1168   -1.8214    0.0000 C   0  0  0  0  0  0  0  0  0  0  0  0
    4.6844    0.4417    0.0000 C   0  0  0  0  0  0  0  0  0  0  0  0
   -0.9836   -0.3211    0.0000 C   0  0  0  0  0  0  0  0  0  0  0  0
   -3.5842    0.1791    0.0000 C   0  0  0  0  0  0  0  0  0  0  0  0
   -2.7173    1.6796    0.0000 C   0  0  0  0  0  0  0  0  0  0  0  0
   -1.8546    0.1791    0.0000 C   0  0  0  0  0  0  0  0  0  0  0  0
   -2.7173   -0.3211    0.0000 C   0  0  0  0  0  0  0  0  0  0  0  0
   -3.5842    1.1796    0.0000 C   0  0  0  0  0  0  0  0  0  0  0  0
    3.3424    1.5294    0.0000 C   0  0  0  0  0  0  0  0  0  0  0  0
   -4.4552   -0.3211    0.0000 O   0  0  0  0  0  0  0  0  0  0  0  0
   -0.9836   -1.3212    0.0000 C   0  0  0  0  0  0  0  0  0  0  0  0
    4.9594    2.1546    0.0000 C   0  0  0  0  0  0  0  0  0  0  0  0
   -4.4552   -1.3212    0.0000 C   0  0  0  0  0  0  0  0  0  0  0  0
    3.9718    2.3089    0.0000 C   0  0  0  0  0  0  0  0  0  0  0  0
   -5.3179   -1.8214    0.0000 C   0  0  0  0  0  0  0  0  0  0  0  0
  1  2  2  0
  1  3  1  0
  2  4  1  0
  3  5  2  0
  5  7  1  0
  6  9  1  0
  6 18  1  0
  2  7  1  0
  6  8  1  0
  4  9  1  0
  3 10  1  0
  8 11  1  0
  8 12  2  0
 13 17  2  0
 13 27  1  0
  4 14  1  0
 11 15  1  0
  4 16  1  0
 10 17  1  0
 18 26  1  0
 19 22  1  0
 19 23  2  0
 15 20  2  0
 15 21  1  0
 21 22  2  0
 20 23  1  0
 10 24  2  0
 19 25  1  0
 16 26  1  0
 27 29  2  0
 25 28  1  0
 24 29  1  0
 28 30  1  0
M  END
>  <IDNUMBER>  (460) 
SA92-0628

>  <available>  (460) 
82

>  <H_acceptor>  (460) 
7

>  <H_donor>  (460) 
0

>  <B_rotN>  (460) 
7

>  <N_O>  (460) 
7

>  <logP>  (460) 
3.1371

>  <logD>  (460) 
2.4984

>  <logSw>  (460) 
-2.777

>  <PSA>  (460) 
64.34

>  <pKa_ma>  (460) 
17.9425

>  <pKa_mb>  (460) 
7.9253

>  <N_Chirals>  (460) 
1

>  <Name>  (460) 
2-(4-ethoxyphenyl)-1-{3-fluoro-3-[3-(pyridin-3-yl)-1,2,4-oxadiazol-5-yl]piperidin-1-yl}ethan-1-one

>  <Smile>  (460) 
CCOc1ccc(CC(N(CCC2)CC2(c2nc(-c3cnccc3)no2)F)=O)cc1

>  <Color>  (460) 
YELLOW

>  <Collection>  (460) 
IC

>  <InChI>  (460) 
InChI=1S/C22H23FN4O3/c1-2-29-18-8-6-16(7-9-18)13-19(28)27-12-4-10-22(23,15-27)21-25-20(26-30-21)17-5-3-11-24-14-17/h3,5-9,11,14H,2,4,10,12-13,15H2,1H3/t22-/m0/s1

>  <InChI Key>  (460) 
PDPXFHDHVGOJLH-QFIPXVFZSA-N

>  <PERCENTSP3>  (460) 
36.36

>  <Link>  (460) 
https://www.chemdiv.com/catalog/screening-compounds/compound-SA92-0628/

>  <MFCDNUMBER>  (460) 
MFCD32241457

>  <CLNUMBER>  (460) 
CM4899

>  <STEREO>  (460) 
RACEMIC MIXTURE

>  <State>  (460) 
Liquid

>  <Similarity score>  (460) 
0.18

$$$$
1-{3-fluoro-3-[3-(pyridin-3-yl)-1,2,4-oxadiazol-5-yl]piperidin-1-yl}-2-(3-methox
     RDKit          2D

 29 32  0  0  0  0  0  0  0  0999 V2000
    2.0828    1.1039    0.0000 N   0  0  0  0  0  0  0  0  0  0  0  0
    1.3080    0.4788    0.0000 C   0  0  0  0  0  0  0  0  0  0  0  0
    2.9201    0.5582    0.0000 C   0  0  0  0  0  0  0  0  0  0  0  0
    0.3414    0.7330    0.0000 C   0  0  0  0  0  0  0  0  0  0  0  0
    2.6658   -0.4082    0.0000 N   0  0  0  0  0  0  0  0  0  0  0  0
   -0.5291   -0.7666    0.0000 N   0  0  0  0  0  0  0  0  0  0  0  0
    1.6663   -0.4583    0.0000 O   0  0  0  0  0  0  0  0  0  0  0  0
   -0.5291   -1.7664    0.0000 C   0  0  0  0  0  0  0  0  0  0  0  0
    0.3414   -0.2667    0.0000 C   0  0  0  0  0  0  0  0  0  0  0  0
    3.8572    0.9164    0.0000 C   0  0  0  0  0  0  0  0  0  0  0  0
   -1.3913   -2.2660    0.0000 C   0  0  0  0  0  0  0  0  0  0  0  0
    0.3414   -2.2660    0.0000 O   0  0  0  0  0  0  0  0  0  0  0  0
    5.5652    0.6456    0.0000 N   0  0  0  0  0  0  0  0  0  0  0  0
    0.2082    1.7285    0.0000 F   0  0  0  0  0  0  0  0  0  0  0  0
   -2.2578   -1.7664    0.0000 C   0  0  0  0  0  0  0  0  0  0  0  0
   -0.5291    1.2329    0.0000 C   0  0  0  0  0  0  0  0  0  0  0  0
   -3.1201   -2.2660    0.0000 C   0  0  0  0  0  0  0  0  0  0  0  0
    4.6321    0.2913    0.0000 C   0  0  0  0  0  0  0  0  0  0  0  0
   -1.3913   -0.2667    0.0000 C   0  0  0  0  0  0  0  0  0  0  0  0
   -3.9908   -1.7664    0.0000 C   0  0  0  0  0  0  0  0  0  0  0  0
    4.0074    1.9035    0.0000 C   0  0  0  0  0  0  0  0  0  0  0  0
   -4.8530   -2.2660    0.0000 O   0  0  0  0  0  0  0  0  0  0  0  0
   -1.3913    0.7330    0.0000 C   0  0  0  0  0  0  0  0  0  0  0  0
   -3.1201   -0.2667    0.0000 C   0  0  0  0  0  0  0  0  0  0  0  0
    5.7195    1.6329    0.0000 C   0  0  0  0  0  0  0  0  0  0  0  0
   -2.2578   -0.7666    0.0000 C   0  0  0  0  0  0  0  0  0  0  0  0
   -3.9908   -0.7666    0.0000 C   0  0  0  0  0  0  0  0  0  0  0  0
   -5.7195   -1.7664    0.0000 C   0  0  0  0  0  0  0  0  0  0  0  0
    4.9447    2.2660    0.0000 C   0  0  0  0  0  0  0  0  0  0  0  0
  1  2  2  0
  1  3  1  0
  2  4  1  0
  3  5  2  0
  5  7  1  0
  6  9  1  0
  6 19  1  0
  2  7  1  0
  6  8  1  0
  4  9  1  0
  3 10  1  0
  8 11  1  0
  8 12  2  0
 13 18  2  0
 13 25  1  0
  4 14  1  0
 11 15  1  0
  4 16  1  0
 15 17  2  0
 10 18  1  0
 19 23  1  0
 17 20  1  0
 20 27  2  0
 10 21  2  0
 20 22  1  0
 16 23  1  0
 24 26  2  0
 25 29  2  0
 15 26  1  0
 24 27  1  0
 22 28  1  0
 21 29  1  0
M  END
>  <IDNUMBER>  (461) 
SA92-0542

>  <available>  (461) 
105

>  <H_acceptor>  (461) 
7

>  <H_donor>  (461) 
0

>  <B_rotN>  (461) 
6

>  <N_O>  (461) 
7

>  <logP>  (461) 
2.869

>  <logD>  (461) 
2.2303

>  <logSw>  (461) 
-2.9132

>  <PSA>  (461) 
64.76

>  <pKa_ma>  (461) 
17.9425

>  <pKa_mb>  (461) 
7.9253

>  <N_Chirals>  (461) 
1

>  <Name>  (461) 
1-{3-fluoro-3-[3-(pyridin-3-yl)-1,2,4-oxadiazol-5-yl]piperidin-1-yl}-2-(3-methoxyphenyl)ethan-1-one

>  <Smile>  (461) 
COc1cccc(CC(N(CCC2)CC2(c2nc(-c3cnccc3)no2)F)=O)c1

>  <Color>  (461) 
ORANGE

>  <Collection>  (461) 
IC

>  <InChI>  (461) 
InChI=1S/C21H21FN4O3/c1-28-17-7-2-5-15(11-17)12-18(27)26-10-4-8-21(22,14-26)20-24-19(25-29-20)16-6-3-9-23-13-16/h2-3,5-7,9,11,13H,4,8,10,12,14H2,1H3/t21-/m0/s1

>  <InChI Key>  (461) 
VGMAETKJAMUCPL-NRFANRHFSA-N

>  <PERCENTSP3>  (461) 
33.33

>  <Link>  (461) 
https://www.chemdiv.com/catalog/screening-compounds/compound-SA92-0542/

>  <MFCDNUMBER>  (461) 
MFCD32242338

>  <CLNUMBER>  (461) 
CM4899

>  <STEREO>  (461) 
RACEMIC MIXTURE

>  <State>  (461) 
Liquid

>  <Similarity score>  (461) 
0.18

$$$$
(2,4-dimethyl-1,3-thiazol-5-yl){3-fluoro-3-[3-(pyridin-4-yl)-1,2,4-oxadiazol-5-y
     RDKit          2D

 27 30  0  0  0  0  0  0  0  0999 V2000
    2.8873    1.3376    0.0000 C   0  0  0  0  0  0  0  0  0  0  0  0
   -1.8124   -0.9557    0.0000 N   0  0  0  0  0  0  0  0  0  0  0  0
   -0.8257   -1.1155    0.0000 C   0  0  0  0  0  0  0  0  0  0  0  0
    1.8813    1.3376    0.0000 C   0  0  0  0  0  0  0  0  0  0  0  0
   -0.1144   -0.4012    0.0000 C   0  0  0  0  0  0  0  0  0  0  0  0
    3.4699    2.1398    0.0000 C   0  0  0  0  0  0  0  0  0  0  0  0
   -2.2731   -1.8454    0.0000 C   0  0  0  0  0  0  0  0  0  0  0  0
    1.3834    0.4636    0.0000 N   0  0  0  0  0  0  0  0  0  0  0  0
    4.4256    1.8264    0.0000 N   0  0  0  0  0  0  0  0  0  0  0  0
    3.4699    0.5202    0.0000 S   0  0  0  0  0  0  0  0  0  0  0  0
   -1.5588   -2.5443    0.0000 N   0  0  0  0  0  0  0  0  0  0  0  0
   -0.6688   -2.0993    0.0000 O   0  0  0  0  0  0  0  0  0  0  0  0
    4.4256    0.8302    0.0000 C   0  0  0  0  0  0  0  0  0  0  0  0
    0.3869    0.4636    0.0000 C   0  0  0  0  0  0  0  0  0  0  0  0
    1.3834    2.1930    0.0000 O   0  0  0  0  0  0  0  0  0  0  0  0
   -3.2507   -2.0052    0.0000 C   0  0  0  0  0  0  0  0  0  0  0  0
   -0.4999    0.5202    0.0000 F   0  0  0  0  0  0  0  0  0  0  0  0
   -5.2277   -2.3185    0.0000 N   0  0  0  0  0  0  0  0  0  0  0  0
    0.3869   -1.2720    0.0000 C   0  0  0  0  0  0  0  0  0  0  0  0
    1.8813   -0.4012    0.0000 C   0  0  0  0  0  0  0  0  0  0  0  0
    3.1598    3.0892    0.0000 C   0  0  0  0  0  0  0  0  0  0  0  0
    5.2277    0.2473    0.0000 C   0  0  0  0  0  0  0  0  0  0  0  0
    1.3834   -1.2720    0.0000 C   0  0  0  0  0  0  0  0  0  0  0  0
   -4.8768   -1.3755    0.0000 C   0  0  0  0  0  0  0  0  0  0  0  0
   -4.6043   -3.0892    0.0000 C   0  0  0  0  0  0  0  0  0  0  0  0
   -3.8803   -1.2190    0.0000 C   0  0  0  0  0  0  0  0  0  0  0  0
   -3.6078   -2.9357    0.0000 C   0  0  0  0  0  0  0  0  0  0  0  0
  2  3  2  0
  3  5  1  0
  1  4  1  0
  5 14  1  0
  1  6  2  0
  2  7  1  0
  7 11  2  0
  4  8  1  0
  6  9  1  0
  1 10  1  0
 11 12  1  0
  3 12  1  0
 10 13  1  0
  9 13  2  0
  8 14  1  0
  4 15  2  0
  7 16  1  0
  5 17  1  0
 18 25  2  0
 18 24  1  0
 19 23  1  0
  5 19  1  0
  8 20  1  0
  6 21  1  0
 13 22  1  0
 20 23  1  0
 24 26  2  0
 25 27  1  0
 16 26  1  0
 16 27  2  0
M  END
>  <IDNUMBER>  (462) 
SA92-0276

>  <available>  (462) 
94

>  <H_acceptor>  (462) 
7

>  <H_donor>  (462) 
0

>  <B_rotN>  (462) 
4

>  <N_O>  (462) 
7

>  <logP>  (462) 
2.6564

>  <logD>  (462) 
2.6563

>  <logSw>  (462) 
-2.6472

>  <PSA>  (462) 
68.043

>  <pKa_ma>  (462) 
27.1581

>  <pKa_mb>  (462) 
3.6841

>  <N_Chirals>  (462) 
1

>  <Name>  (462) 
(2,4-dimethyl-1,3-thiazol-5-yl){3-fluoro-3-[3-(pyridin-4-yl)-1,2,4-oxadiazol-5-yl]piperidin-1-yl}methanone

>  <Smile>  (462) 
Cc1c(C(N(CCC2)CC2(c2nc(-c3ccncc3)no2)F)=O)sc(C)n1

>  <Color>  (462) 
YELLOW

>  <Collection>  (462) 
IC

>  <InChI>  (462) 
InChI=1S/C18H18FN5O2S/c1-11-14(27-12(2)21-11)16(25)24-9-3-6-18(19,10-24)17-22-15(23-26-17)13-4-7-20-8-5-13/h4-5,7-8H,3,6,9-10H2,1-2H3/t18-/m0/s1

>  <InChI Key>  (462) 
NAHSYKSBUGHCGJ-SFHVURJKSA-N

>  <PERCENTSP3>  (462) 
38.89

>  <Link>  (462) 
https://www.chemdiv.com/catalog/screening-compounds/compound-SA92-0276/

>  <MFCDNUMBER>  (462) 
MFCD32242459

>  <CLNUMBER>  (462) 
CM4899

>  <STEREO>  (462) 
RACEMIC MIXTURE

>  <State>  (462) 
Liquid

>  <Similarity score>  (462) 
0.18

$$$$
N-(3-cyano-4,5,6,7-tetrahydro-1-benzothiophen-2-yl)-5-(4-ethoxyphenyl)-1,2-oxazo
     RDKit          2D

 29 32  0  0  0  0  0  0  0  0999 V2000
   -2.3362    1.3130    0.0000 C   0  0  0  0  0  0  0  0  0  0  0  0
   -2.9324    2.1215    0.0000 C   0  0  0  0  0  0  0  0  0  0  0  0
    0.1521    0.4210    0.0000 C   0  0  0  0  0  0  0  0  0  0  0  0
   -2.9324    0.4960    0.0000 S   0  0  0  0  0  0  0  0  0  0  0  0
   -3.8702    1.8130    0.0000 C   0  0  0  0  0  0  0  0  0  0  0  0
    0.7440    1.2336    0.0000 N   0  0  0  0  0  0  0  0  0  0  0  0
   -1.3360    1.3006    0.0000 N   0  0  0  0  0  0  0  0  0  0  0  0
    0.7315   -0.3877    0.0000 C   0  0  0  0  0  0  0  0  0  0  0  0
   -3.8824    0.8086    0.0000 C   0  0  0  0  0  0  0  0  0  0  0  0
   -0.8482    0.4334    0.0000 C   0  0  0  0  0  0  0  0  0  0  0  0
    1.6944   -0.0917    0.0000 C   0  0  0  0  0  0  0  0  0  0  0  0
    1.6944    0.9211    0.0000 O   0  0  0  0  0  0  0  0  0  0  0  0
   -2.6113    3.0717    0.0000 C   0  0  0  0  0  0  0  0  0  0  0  0
   -2.3570    4.0305    0.0000 N   0  0  0  0  0  0  0  0  0  0  0  0
    2.5028   -0.6795    0.0000 C   0  0  0  0  0  0  0  0  0  0  0  0
   -1.3567   -0.4294    0.0000 O   0  0  0  0  0  0  0  0  0  0  0  0
    2.3821   -1.6754    0.0000 C   0  0  0  0  0  0  0  0  0  0  0  0
    3.4073   -0.2752    0.0000 C   0  0  0  0  0  0  0  0  0  0  0  0
    4.1076   -1.8673    0.0000 C   0  0  0  0  0  0  0  0  0  0  0  0
   -4.7328    2.3216    0.0000 C   0  0  0  0  0  0  0  0  0  0  0  0
    4.2159   -0.8668    0.0000 C   0  0  0  0  0  0  0  0  0  0  0  0
    3.1823   -2.2675    0.0000 C   0  0  0  0  0  0  0  0  0  0  0  0
   -4.7454    0.3249    0.0000 C   0  0  0  0  0  0  0  0  0  0  0  0
    4.9080   -2.4550    0.0000 O   0  0  0  0  0  0  0  0  0  0  0  0
    4.8078   -3.4511    0.0000 C   0  0  0  0  0  0  0  0  0  0  0  0
   -5.5999    1.8339    0.0000 C   0  0  0  0  0  0  0  0  0  0  0  0
   -5.6082    0.8335    0.0000 C   0  0  0  0  0  0  0  0  0  0  0  0
    5.6082   -4.0305    0.0000 C   0  0  0  0  0  0  0  0  0  0  0  0
   -0.8358    2.1714    0.0000 H   0  0  0  0  0  0  0  0  0  0  0  0
  1  2  2  0
  3 10  1  0
  1  4  1  0
  2  5  1  0
  3  6  2  0
  1  7  1  0
  3  8  1  0
  4  9  1  0
  5  9  2  0
  7 10  1  0
  8 11  2  0
 11 12  1  0
  6 12  1  0
  2 13  1  0
 13 14  3  0
 11 15  1  0
 10 16  2  0
 15 17  2  0
 15 18  1  0
 19 21  1  0
  5 20  1  0
 18 21  2  0
 17 22  1  0
 19 22  2  0
  9 23  1  0
 19 24  1  0
 24 25  1  0
 20 26  1  0
 23 27  1  0
 26 27  1  0
 25 28  1  0
  7 29  1  0
M  END
>  <IDNUMBER>  (463) 
D337-2045

>  <available>  (463) 
105

>  <H_acceptor>  (463) 
6

>  <H_donor>  (463) 
1

>  <B_rotN>  (463) 
7

>  <N_O>  (463) 
6

>  <logP>  (463) 
4.8571

>  <logD>  (463) 
3.566

>  <logSw>  (463) 
-4.6468

>  <PSA>  (463) 
68.76

>  <pKa_ma>  (463) 
6.1318

>  <pKa_mb>  (463) 
-6.8683

>  <N_Chirals>  (463) 
0

>  <Name>  (463) 
N-(3-cyano-4,5,6,7-tetrahydro-1-benzothiophen-2-yl)-5-(4-ethoxyphenyl)-1,2-oxazole-3-carboxamide

>  <Smile>  (463) 
CCOc(cc1)ccc1-c1cc(C(Nc(sc2c3CCCC2)c3C#N)=O)no1

>  <Color>  (463) 
PINK

>  <Collection>  (463) 
DC

>  <InChI>  (463) 
InChI=1S/C21H19N3O3S/c1-2-26-14-9-7-13(8-10-14)18-11-17(24-27-18)20(25)23-21-16(12-22)15-5-3-4-6-19(15)28-21/h7-11H,2-6H2,1H3,(H,23,25)

>  <InChI Key>  (463) 
PDTQUPSCHCJBNB-UHFFFAOYSA-N

>  <PERCENTSP3>  (463) 
28.6

>  <Link>  (463) 
https://www.chemdiv.com/catalog/screening-compounds/compound-D337-2045/

>  <MFCDNUMBER>  (463) 
MFCD12918360

>  <CLNUMBER>  (463) 
CL2028

>  <STEREO>  (463) 
ACHIRAL

>  <State>  (463) 
Solid

>  <Similarity score>  (463) 
0.18

$$$$
3-(5-{3-fluoro-1-[(4-methyl-1,3-thiazol-5-yl)methyl]piperidin-3-yl}-1,2,4-oxadia
     RDKit          2D

 25 28  0  0  0  0  0  0  0  0999 V2000
    0.1166   -0.7186    0.0000 N   0  0  0  0  0  0  0  0  0  0  0  0
    0.7831   -1.4643    0.0000 C   0  0  0  0  0  0  0  0  0  0  0  0
   -0.7957   -1.1268    0.0000 C   0  0  0  0  0  0  0  0  0  0  0  0
    1.7789   -1.3559    0.0000 C   0  0  0  0  0  0  0  0  0  0  0  0
   -0.6916   -2.1183    0.0000 N   0  0  0  0  0  0  0  0  0  0  0  0
    0.7040    1.4436    0.0000 C   0  0  0  0  0  0  0  0  0  0  0  0
    0.2833   -2.3308    0.0000 O   0  0  0  0  0  0  0  0  0  0  0  0
   -0.8915    1.1852    0.0000 N   0  0  0  0  0  0  0  0  0  0  0  0
   -0.0041    0.7312    0.0000 C   0  0  0  0  0  0  0  0  0  0  0  0
    2.0455    0.3562    0.0000 N   0  0  0  0  0  0  0  0  0  0  0  0
   -1.6663   -0.6269    0.0000 C   0  0  0  0  0  0  0  0  0  0  0  0
    0.2541    2.3308    0.0000 S   0  0  0  0  0  0  0  0  0  0  0  0
   -0.7332    2.1727    0.0000 C   0  0  0  0  0  0  0  0  0  0  0  0
    1.4206   -0.4269    0.0000 C   0  0  0  0  0  0  0  0  0  0  0  0
    1.6956    1.2853    0.0000 C   0  0  0  0  0  0  0  0  0  0  0  0
   -3.3953   -0.6269    0.0000 N   0  0  0  0  0  0  0  0  0  0  0  0
    2.2580   -2.2392    0.0000 F   0  0  0  0  0  0  0  0  0  0  0  0
    2.7703   -1.5185    0.0000 C   0  0  0  0  0  0  0  0  0  0  0  0
   -2.5287   -1.1268    0.0000 C   0  0  0  0  0  0  0  0  0  0  0  0
    3.0411    0.1938    0.0000 C   0  0  0  0  0  0  0  0  0  0  0  0
   -1.6663    0.3730    0.0000 C   0  0  0  0  0  0  0  0  0  0  0  0
    0.1541   -0.2561    0.0000 C   0  0  0  0  0  0  0  0  0  0  0  0
    3.3953   -0.7394    0.0000 C   0  0  0  0  0  0  0  0  0  0  0  0
   -3.3953    0.3730    0.0000 C   0  0  0  0  0  0  0  0  0  0  0  0
   -2.5287    0.8728    0.0000 C   0  0  0  0  0  0  0  0  0  0  0  0
  1  2  2  0
  1  3  1  0
  2  4  1  0
  3  5  2  0
  5  7  1  0
  6 15  1  0
  2  7  1  0
  8  9  1  0
  8 13  2  0
  6  9  2  0
 10 14  1  0
 10 20  1  0
  3 11  1  0
  6 12  1  0
 12 13  1  0
  4 14  1  0
 10 15  1  0
 16 19  2  0
 16 24  1  0
  4 17  1  0
  4 18  1  0
 11 19  1  0
 20 23  1  0
 11 21  2  0
  9 22  1  0
 18 23  1  0
 24 25  2  0
 21 25  1  0
M  END
>  <IDNUMBER>  (464) 
SA92-0562

>  <available>  (464) 
50

>  <H_acceptor>  (464) 
6

>  <H_donor>  (464) 
0

>  <B_rotN>  (464) 
4

>  <N_O>  (464) 
6

>  <logP>  (464) 
2.2318

>  <logD>  (464) 
1.5931

>  <logSw>  (464) 
-1.9678

>  <PSA>  (464) 
55.033

>  <pKa_ma>  (464) 
26.9519

>  <pKa_mb>  (464) 
7.9253

>  <N_Chirals>  (464) 
1

>  <Name>  (464) 
3-(5-{3-fluoro-1-[(4-methyl-1,3-thiazol-5-yl)methyl]piperidin-3-yl}-1,2,4-oxadiazol-3-yl)pyridine

>  <Smile>  (464) 
Cc1c(CN(CCC2)CC2(c2nc(-c3cnccc3)no2)F)scn1

>  <Color>  (464) 
ORANGE

>  <Collection>  (464) 
IC

>  <InChI>  (464) 
InChI=1S/C17H18FN5OS/c1-12-14(25-11-20-12)9-23-7-3-5-17(18,10-23)16-21-15(22-24-16)13-4-2-6-19-8-13/h2,4,6,8,11H,3,5,7,9-10H2,1H3/t17-/m0/s1

>  <InChI Key>  (464) 
WRHGERSUHPDIMB-KRWDZBQOSA-N

>  <PERCENTSP3>  (464) 
41.18

>  <Link>  (464) 
https://www.chemdiv.com/catalog/screening-compounds/compound-SA92-0562/

>  <MFCDNUMBER>  (464) 
MFCD32242596

>  <CLNUMBER>  (464) 
CM4899

>  <STEREO>  (464) 
RACEMIC MIXTURE

>  <State>  (464) 
Liquid

>  <Similarity score>  (464) 
0.18

$$$$
2-[5-(3-methoxyphenyl)-1H-1,2,4-triazol-1-yl]-5,6,7,8-tetrahydro-4H-cyclohepta[b
     RDKit          2D

 25 28  0  0  0  0  0  0  0  0999 V2000
    1.2014    0.4445    0.0000 C   0  0  0  0  0  0  0  0  0  0  0  0
    0.6587    1.2693    0.0000 N   0  0  0  0  0  0  0  0  0  0  0  0
    2.1868    0.4445    0.0000 C   0  0  0  0  0  0  0  0  0  0  0  0
    0.8479   -0.5159    0.0000 S   0  0  0  0  0  0  0  0  0  0  0  0
   -0.3088    1.2693    0.0000 C   0  0  0  0  0  0  0  0  0  0  0  0
    2.4866   -0.5623    0.0000 C   0  0  0  0  0  0  0  0  0  0  0  0
    1.6762   -1.0978    0.0000 C   0  0  0  0  0  0  0  0  0  0  0  0
   -0.6267    2.2118    0.0000 N   0  0  0  0  0  0  0  0  0  0  0  0
    0.9908    2.2369    0.0000 N   0  0  0  0  0  0  0  0  0  0  0  0
    2.7330    1.2585    0.0000 C   0  0  0  0  0  0  0  0  0  0  0  0
   -0.8730    0.4552    0.0000 C   0  0  0  0  0  0  0  0  0  0  0  0
    0.1731    2.8007    0.0000 C   0  0  0  0  0  0  0  0  0  0  0  0
    3.2828    2.0726    0.0000 N   0  0  0  0  0  0  0  0  0  0  0  0
   -1.8691    0.5231    0.0000 C   0  0  0  0  0  0  0  0  0  0  0  0
   -2.4367   -0.2874    0.0000 C   0  0  0  0  0  0  0  0  0  0  0  0
    3.4543   -0.8586    0.0000 C   0  0  0  0  0  0  0  0  0  0  0  0
    1.5584   -2.1047    0.0000 C   0  0  0  0  0  0  0  0  0  0  0  0
   -0.4660   -0.4445    0.0000 C   0  0  0  0  0  0  0  0  0  0  0  0
   -3.4257   -0.1982    0.0000 O   0  0  0  0  0  0  0  0  0  0  0  0
   -1.0228   -1.2692    0.0000 C   0  0  0  0  0  0  0  0  0  0  0  0
   -2.0119   -1.2013    0.0000 C   0  0  0  0  0  0  0  0  0  0  0  0
   -3.8291    0.7016    0.0000 C   0  0  0  0  0  0  0  0  0  0  0  0
    3.8291   -1.8262    0.0000 C   0  0  0  0  0  0  0  0  0  0  0  0
    2.2760   -2.8007    0.0000 C   0  0  0  0  0  0  0  0  0  0  0  0
    3.2900   -2.6830    0.0000 C   0  0  0  0  0  0  0  0  0  0  0  0
  1  2  1  0
  1  3  2  0
  1  4  1  0
  2  5  1  0
  3  6  1  0
  4  7  1  0
  6  7  2  0
  5  8  2  0
  8 12  1  0
  2  9  1  0
  3 10  1  0
  5 11  1  0
  9 12  2  0
 10 13  3  0
 11 14  2  0
 14 15  1  0
  6 16  1  0
  7 17  1  0
 11 18  1  0
 15 19  1  0
 18 20  2  0
 20 21  1  0
 15 21  2  0
 19 22  1  0
 16 23  1  0
 23 25  1  0
 17 24  1  0
 24 25  1  0
M  END
>  <IDNUMBER>  (465) 
4073-0156

>  <available>  (465) 
211

>  <H_acceptor>  (465) 
4

>  <H_donor>  (465) 
0

>  <B_rotN>  (465) 
4

>  <N_O>  (465) 
5

>  <logP>  (465) 
4.887

>  <logD>  (465) 
4.8866

>  <logSw>  (465) 
-4.764

>  <PSA>  (465) 
50.751

>  <pKa_ma>  (465) 
25.4916

>  <pKa_mb>  (465) 
4.2819

>  <N_Chirals>  (465) 
0

>  <Name>  (465) 
2-[5-(3-methoxyphenyl)-1H-1,2,4-triazol-1-yl]-5,6,7,8-tetrahydro-4H-cyclohepta[b]thiophene-3-carbonitrile

>  <Smile>  (465) 
COc1cccc(-c2ncnn2-c(sc2c3CCCCC2)c3C#N)c1

>  <Color>  (465) 
YELLOW

>  <Collection>  (465) 
DC

>  <InChI>  (465) 
InChI=1S/C19H18N4OS/c1-24-14-7-5-6-13(10-14)18-21-12-22-23(18)19-16(11-20)15-8-3-2-4-9-17(15)25-19/h5-7,10,12H,2-4,8-9H2,1H3

>  <InChI Key>  (465) 
LHTGLUNBOKASMN-UHFFFAOYSA-N

>  <PERCENTSP3>  (465) 
31.6

>  <Link>  (465) 
https://www.chemdiv.com/catalog/screening-compounds/compound-4073-0156/

>  <MFCDNUMBER>  (465) 
MFCD01655066

>  <STEREO>  (465) 
ACHIRAL

>  <State>  (465) 
Solid

>  <Similarity score>  (465) 
0.18

$$$$
1-[3-fluoro-3-(3-phenyl-1,2,4-oxadiazol-5-yl)piperidin-1-yl]-2-(3-methoxyphenyl)
     RDKit          2D

 29 32  0  0  0  0  0  0  0  0999 V2000
    0.6377    0.9402    0.0000 N   0  0  0  0  0  0  0  0  0  0  0  0
   -0.3494    1.0969    0.0000 C   0  0  0  0  0  0  0  0  0  0  0  0
   -1.0545    0.3917    0.0000 C   0  0  0  0  0  0  0  0  0  0  0  0
    1.0954    1.8332    0.0000 C   0  0  0  0  0  0  0  0  0  0  0  0
    0.3902    2.5447    0.0000 N   0  0  0  0  0  0  0  0  0  0  0  0
   -2.5589   -0.4795    0.0000 N   0  0  0  0  0  0  0  0  0  0  0  0
   -0.5031    2.0873    0.0000 O   0  0  0  0  0  0  0  0  0  0  0  0
   -3.0604   -1.3383    0.0000 C   0  0  0  0  0  0  0  0  0  0  0  0
   -1.5622   -0.4795    0.0000 C   0  0  0  0  0  0  0  0  0  0  0  0
   -2.5589   -2.2032    0.0000 C   0  0  0  0  0  0  0  0  0  0  0  0
    2.0764    1.9899    0.0000 C   0  0  0  0  0  0  0  0  0  0  0  0
   -4.0569   -1.3383    0.0000 O   0  0  0  0  0  0  0  0  0  0  0  0
   -0.6785   -0.5360    0.0000 F   0  0  0  0  0  0  0  0  0  0  0  0
   -1.5622   -2.2032    0.0000 C   0  0  0  0  0  0  0  0  0  0  0  0
   -1.5622    1.2566    0.0000 C   0  0  0  0  0  0  0  0  0  0  0  0
   -1.0545   -1.3383    0.0000 C   0  0  0  0  0  0  0  0  0  0  0  0
   -3.0604    0.3917    0.0000 C   0  0  0  0  0  0  0  0  0  0  0  0
   -0.0581   -1.3383    0.0000 C   0  0  0  0  0  0  0  0  0  0  0  0
    0.4465   -0.4795    0.0000 O   0  0  0  0  0  0  0  0  0  0  0  0
   -2.5589    1.2566    0.0000 C   0  0  0  0  0  0  0  0  0  0  0  0
   -0.0581   -3.0742    0.0000 C   0  0  0  0  0  0  0  0  0  0  0  0
   -1.0545   -3.0742    0.0000 C   0  0  0  0  0  0  0  0  0  0  0  0
    2.7062    1.2097    0.0000 C   0  0  0  0  0  0  0  0  0  0  0  0
    2.4430    2.9207    0.0000 C   0  0  0  0  0  0  0  0  0  0  0  0
    0.4465   -2.2032    0.0000 C   0  0  0  0  0  0  0  0  0  0  0  0
    1.4432   -0.4795    0.0000 C   0  0  0  0  0  0  0  0  0  0  0  0
    3.4207    3.0742    0.0000 C   0  0  0  0  0  0  0  0  0  0  0  0
    3.6996    1.3728    0.0000 C   0  0  0  0  0  0  0  0  0  0  0  0
    4.0569    2.3033    0.0000 C   0  0  0  0  0  0  0  0  0  0  0  0
  1  2  2  0
  2  3  1  0
  1  4  1  0
  4  5  2  0
  5  7  1  0
  6  9  1  0
  2  7  1  0
  6  8  1  0
  3  9  1  0
  8 10  1  0
  4 11  1  0
  8 12  2  0
  3 13  1  0
 10 14  1  0
  3 15  1  0
 14 16  2  0
 17 20  1  0
  6 17  1  0
 16 18  1  0
 18 19  1  0
 15 20  1  0
 21 22  2  0
 14 22  1  0
 11 23  1  0
 11 24  2  0
 21 25  1  0
 18 25  2  0
 19 26  1  0
 24 27  1  0
 23 28  2  0
 27 29  2  0
 28 29  1  0
M  END
>  <IDNUMBER>  (466) 
SA92-0017

>  <available>  (466) 
42

>  <H_acceptor>  (466) 
6

>  <H_donor>  (466) 
0

>  <B_rotN>  (466) 
6

>  <N_O>  (466) 
6

>  <logP>  (466) 
4.2446

>  <logD>  (466) 
4.2446

>  <logSw>  (466) 
-4.4451

>  <PSA>  (466) 
55.242

>  <pKa_ma>  (466) 
17.9425

>  <pKa_mb>  (466) 
-2.0756

>  <N_Chirals>  (466) 
1

>  <Name>  (466) 
1-[3-fluoro-3-(3-phenyl-1,2,4-oxadiazol-5-yl)piperidin-1-yl]-2-(3-methoxyphenyl)ethan-1-one

>  <Smile>  (466) 
COc1cccc(CC(N(CCC2)CC2(c2nc(-c3ccccc3)no2)F)=O)c1

>  <Color>  (466) 
NOT COLORED

>  <Collection>  (466) 
IC

>  <InChI>  (466) 
InChI=1S/C22H22FN3O3/c1-28-18-10-5-7-16(13-18)14-19(27)26-12-6-11-22(23,15-26)21-24-20(25-29-21)17-8-3-2-4-9-17/h2-5,7-10,13H,6,11-12,14-15H2,1H3/t22-/m0/s1

>  <InChI Key>  (466) 
CBJSDRLBPLYNSB-QFIPXVFZSA-N

>  <PERCENTSP3>  (466) 
31.82

>  <Link>  (466) 
https://www.chemdiv.com/catalog/screening-compounds/compound-SA92-0017/

>  <MFCDNUMBER>  (466) 
MFCD32241438

>  <CLNUMBER>  (466) 
CM4899

>  <STEREO>  (466) 
RACEMIC MIXTURE

>  <State>  (466) 
Liquid

>  <Similarity score>  (466) 
0.18

$$$$
2-(4-fluorophenoxy)-1-{3-fluoro-3-[3-(pyridin-4-yl)-1,2,4-oxadiazol-5-yl]piperid
     RDKit          2D

 29 32  0  0  0  0  0  0  0  0999 V2000
   -0.6440    2.6712    0.0000 N   0  0  0  0  0  0  0  0  0  0  0  0
    0.3461    2.8277    0.0000 C   0  0  0  0  0  0  0  0  0  0  0  0
    1.0575    2.1166    0.0000 C   0  0  0  0  0  0  0  0  0  0  0  0
   -1.1014    3.5610    0.0000 C   0  0  0  0  0  0  0  0  0  0  0  0
   -0.3869    4.2692    0.0000 N   0  0  0  0  0  0  0  0  0  0  0  0
    2.5552    1.2487    0.0000 N   0  0  0  0  0  0  0  0  0  0  0  0
    0.4966    3.8178    0.0000 O   0  0  0  0  0  0  0  0  0  0  0  0
    3.0534    0.3838    0.0000 C   0  0  0  0  0  0  0  0  0  0  0  0
    1.5557    1.2487    0.0000 C   0  0  0  0  0  0  0  0  0  0  0  0
   -2.0885    3.7208    0.0000 C   0  0  0  0  0  0  0  0  0  0  0  0
    2.5552   -0.4811    0.0000 C   0  0  0  0  0  0  0  0  0  0  0  0
    4.0561    0.3838    0.0000 O   0  0  0  0  0  0  0  0  0  0  0  0
    0.6719    1.1922    0.0000 F   0  0  0  0  0  0  0  0  0  0  0  0
   -4.0561    4.0310    0.0000 N   0  0  0  0  0  0  0  0  0  0  0  0
    3.0534   -1.3457    0.0000 O   0  0  0  0  0  0  0  0  0  0  0  0
    1.5557    2.9908    0.0000 C   0  0  0  0  0  0  0  0  0  0  0  0
    2.5552   -2.2106    0.0000 C   0  0  0  0  0  0  0  0  0  0  0  0
    1.5557   -3.9400    0.0000 C   0  0  0  0  0  0  0  0  0  0  0  0
    3.0534    2.1166    0.0000 C   0  0  0  0  0  0  0  0  0  0  0  0
    1.0575   -4.8049    0.0000 F   0  0  0  0  0  0  0  0  0  0  0  0
    1.5557   -2.2106    0.0000 C   0  0  0  0  0  0  0  0  0  0  0  0
    3.0534   -3.0754    0.0000 C   0  0  0  0  0  0  0  0  0  0  0  0
    1.0575   -3.0754    0.0000 C   0  0  0  0  0  0  0  0  0  0  0  0
    2.5552   -3.9400    0.0000 C   0  0  0  0  0  0  0  0  0  0  0  0
    2.5552    2.9908    0.0000 C   0  0  0  0  0  0  0  0  0  0  0  0
   -3.7050    3.0941    0.0000 C   0  0  0  0  0  0  0  0  0  0  0  0
   -3.4327    4.8049    0.0000 C   0  0  0  0  0  0  0  0  0  0  0  0
   -2.7119    2.9406    0.0000 C   0  0  0  0  0  0  0  0  0  0  0  0
   -2.4456    4.6515    0.0000 C   0  0  0  0  0  0  0  0  0  0  0  0
  1  2  2  0
  2  3  1  0
  1  4  1  0
  4  5  2  0
  5  7  1  0
  6  9  1  0
  2  7  1  0
  6  8  1  0
  3  9  1  0
  4 10  1  0
  8 11  1  0
  8 12  2  0
  3 13  1  0
 14 27  2  0
 14 26  1  0
 11 15  1  0
  3 16  1  0
 15 17  1  0
 18 24  2  0
 19 25  1  0
  6 19  1  0
 18 20  1  0
 17 21  1  0
 17 22  2  0
 21 23  2  0
 18 23  1  0
 22 24  1  0
 16 25  1  0
 26 28  2  0
 27 29  1  0
 10 28  1  0
 10 29  2  0
M  END
>  <IDNUMBER>  (467) 
SA92-0185

>  <available>  (467) 
66

>  <H_acceptor>  (467) 
7

>  <H_donor>  (467) 
0

>  <B_rotN>  (467) 
6

>  <N_O>  (467) 
7

>  <logP>  (467) 
2.5306

>  <logD>  (467) 
2.5305

>  <logSw>  (467) 
-2.2676

>  <PSA>  (467) 
64.626

>  <pKa_ma>  (467) 
24.578

>  <pKa_mb>  (467) 
3.6841

>  <N_Chirals>  (467) 
1

>  <Name>  (467) 
2-(4-fluorophenoxy)-1-{3-fluoro-3-[3-(pyridin-4-yl)-1,2,4-oxadiazol-5-yl]piperidin-1-yl}ethan-1-one

>  <Smile>  (467) 
O=C(COc(cc1)ccc1F)N(CCC1)CC1(c1nc(-c2ccncc2)no1)F

>  <Color>  (467) 
YELLOW

>  <Collection>  (467) 
IC

>  <InChI>  (467) 
InChI=1S/C20H18F2N4O3/c21-15-2-4-16(5-3-15)28-12-17(27)26-11-1-8-20(22,13-26)19-24-18(25-29-19)14-6-9-23-10-7-14/h2-7,9-10H,1,8,11-13H2/t20-/m0/s1

>  <InChI Key>  (467) 
MCTLZMYUMMNKOQ-FQEVSTJZSA-N

>  <PERCENTSP3>  (467) 
30

>  <Link>  (467) 
https://www.chemdiv.com/catalog/screening-compounds/compound-SA92-0185/

>  <MFCDNUMBER>  (467) 
MFCD32241568

>  <CLNUMBER>  (467) 
CM4899

>  <STEREO>  (467) 
RACEMIC MIXTURE

>  <State>  (467) 
Liquid

>  <Similarity score>  (467) 
0.18

$$$$
2-{[4-cyclopropyl-6-(trifluoromethyl)pyrimidin-2-yl]amino}-4,5,6,7-tetrahydro-1-
     RDKit          2D

 25 28  0  0  0  0  0  0  0  0999 V2000
    0.9918    1.7105    0.0000 C   0  0  0  0  0  0  0  0  0  0  0  0
    1.3543    0.7688    0.0000 C   0  0  0  0  0  0  0  0  0  0  0  0
   -0.6792    1.2606    0.0000 C   0  0  0  0  0  0  0  0  0  0  0  0
    1.7668    2.3438    0.0000 S   0  0  0  0  0  0  0  0  0  0  0  0
    0.0292    1.9688    0.0000 N   0  0  0  0  0  0  0  0  0  0  0  0
    2.3459    0.8313    0.0000 C   0  0  0  0  0  0  0  0  0  0  0  0
    2.6210    1.7939    0.0000 C   0  0  0  0  0  0  0  0  0  0  0  0
   -1.6418    1.5188    0.0000 N   0  0  0  0  0  0  0  0  0  0  0  0
   -0.4167    0.2938    0.0000 N   0  0  0  0  0  0  0  0  0  0  0  0
   -3.3168    1.0687    0.0000 C   0  0  0  0  0  0  0  0  0  0  0  0
   -2.3542    0.8104    0.0000 C   0  0  0  0  0  0  0  0  0  0  0  0
   -1.1209   -0.4146    0.0000 C   0  0  0  0  0  0  0  0  0  0  0  0
    0.8334   -0.0688    0.0000 C   0  0  0  0  0  0  0  0  0  0  0  0
   -2.0917   -0.1563    0.0000 C   0  0  0  0  0  0  0  0  0  0  0  0
   -0.8666   -1.3772    0.0000 C   0  0  0  0  0  0  0  0  0  0  0  0
    0.3209   -0.9064    0.0000 N   0  0  0  0  0  0  0  0  0  0  0  0
   -0.1541   -2.0813    0.0000 C   0  0  0  0  0  0  0  0  0  0  0  0
   -1.1209   -2.3438    0.0000 C   0  0  0  0  0  0  0  0  0  0  0  0
   -3.5793    0.0979    0.0000 F   0  0  0  0  0  0  0  0  0  0  0  0
   -3.0584    2.0355    0.0000 F   0  0  0  0  0  0  0  0  0  0  0  0
   -4.2835    1.3229    0.0000 F   0  0  0  0  0  0  0  0  0  0  0  0
    3.0335    0.1229    0.0000 C   0  0  0  0  0  0  0  0  0  0  0  0
    3.5836    2.0564    0.0000 C   0  0  0  0  0  0  0  0  0  0  0  0
    4.0169    0.3687    0.0000 C   0  0  0  0  0  0  0  0  0  0  0  0
    4.2835    1.3229    0.0000 C   0  0  0  0  0  0  0  0  0  0  0  0
  1  2  2  0
  3  5  1  0
  1  4  1  0
  1  5  1  0
  2  6  1  0
  4  7  1  0
  6  7  2  0
  3  8  1  0
  3  9  2  0
 10 11  1  0
  8 11  2  0
 11 14  1  0
  9 12  1  0
  2 13  1  0
 12 14  2  0
 12 15  1  0
 13 16  3  0
 15 17  1  0
 15 18  1  0
 17 18  1  0
 10 19  1  0
 10 20  1  0
 10 21  1  0
  6 22  1  0
  7 23  1  0
 22 24  1  0
 23 25  1  0
 24 25  1  0
M  END
>  <IDNUMBER>  (468) 
Y505-0618

>  <available>  (468) 
7

>  <H_acceptor>  (468) 
3

>  <H_donor>  (468) 
1

>  <B_rotN>  (468) 
5

>  <N_O>  (468) 
4

>  <logP>  (468) 
5.4561

>  <logD>  (468) 
5.4505

>  <logSw>  (468) 
-5.8786

>  <PSA>  (468) 
45.879

>  <pKa_ma>  (468) 
10.0838

>  <pKa_mb>  (468) 
5.4407

>  <N_Chirals>  (468) 
0

>  <Name>  (468) 
2-{[4-cyclopropyl-6-(trifluoromethyl)pyrimidin-2-yl]amino}-4,5,6,7-tetrahydro-1-benzothiophene-3-carbonitrile

>  <Smile>  (468) 
N#Cc1c(Nc2nc(C(F)(F)F)cc(C3CC3)n2)sc2c1CCCC2

>  <Color>  (468) 
BROWN

>  <Collection>  (468) 
DC

>  <InChI>  (468) 
InChI=1S/C17H15F3N4S/c18-17(19,20)14-7-12(9-5-6-9)22-16(23-14)24-15-11(8-21)10-3-1-2-4-13(10)25-15/h7,9H,1-6H2,(H,22,23,24)

>  <InChI Key>  (468) 
SYAIKRODGWFSBG-UHFFFAOYSA-N

>  <PERCENTSP3>  (468) 
47.1

>  <Link>  (468) 
https://www.chemdiv.com/catalog/screening-compounds/compound-Y505-0618/

>  <MFCDNUMBER>  (468) 
MFCD09468503

>  <STEREO>  (468) 
ACHIRAL

>  <State>  (468) 
Solid

>  <Similarity score>  (468) 
0.18

$$$$
3-fluoro-1-[(4-methyl-1,3-thiazol-5-yl)methyl]-3-(3-phenyl-1,2,4-oxadiazol-5-yl)
     RDKit          2D

 25 28  0  0  0  0  0  0  0  0999 V2000
    0.5848    1.2993    0.0000 N   0  0  0  0  0  0  0  0  0  0  0  0
   -0.4061    1.4500    0.0000 C   0  0  0  0  0  0  0  0  0  0  0  0
    1.0329    2.1897    0.0000 C   0  0  0  0  0  0  0  0  0  0  0  0
   -1.1113    0.7507    0.0000 C   0  0  0  0  0  0  0  0  0  0  0  0
    0.3306    2.8982    0.0000 N   0  0  0  0  0  0  0  0  0  0  0  0
   -2.6160   -1.8543    0.0000 C   0  0  0  0  0  0  0  0  0  0  0  0
   -0.5628    2.4436    0.0000 O   0  0  0  0  0  0  0  0  0  0  0  0
   -2.2836   -3.4342    0.0000 N   0  0  0  0  0  0  0  0  0  0  0  0
   -3.0266   -2.7665    0.0000 C   0  0  0  0  0  0  0  0  0  0  0  0
   -2.6160   -0.1145    0.0000 N   0  0  0  0  0  0  0  0  0  0  0  0
   -1.6159   -1.9578    0.0000 S   0  0  0  0  0  0  0  0  0  0  0  0
   -1.4092   -2.9359    0.0000 C   0  0  0  0  0  0  0  0  0  0  0  0
   -1.6159   -0.1145    0.0000 C   0  0  0  0  0  0  0  0  0  0  0  0
   -3.1113   -0.9891    0.0000 C   0  0  0  0  0  0  0  0  0  0  0  0
    2.0235    2.3496    0.0000 C   0  0  0  0  0  0  0  0  0  0  0  0
   -0.7257   -0.1802    0.0000 F   0  0  0  0  0  0  0  0  0  0  0  0
   -1.6159    1.6096    0.0000 C   0  0  0  0  0  0  0  0  0  0  0  0
   -3.1113    0.7507    0.0000 C   0  0  0  0  0  0  0  0  0  0  0  0
   -3.9985   -2.9734    0.0000 C   0  0  0  0  0  0  0  0  0  0  0  0
   -2.6160    1.6096    0.0000 C   0  0  0  0  0  0  0  0  0  0  0  0
    2.6538    1.5627    0.0000 C   0  0  0  0  0  0  0  0  0  0  0  0
    2.3871    3.2743    0.0000 C   0  0  0  0  0  0  0  0  0  0  0  0
    3.3685    3.4342    0.0000 C   0  0  0  0  0  0  0  0  0  0  0  0
    3.6411    1.7226    0.0000 C   0  0  0  0  0  0  0  0  0  0  0  0
    3.9985    2.6600    0.0000 C   0  0  0  0  0  0  0  0  0  0  0  0
  1  2  2  0
  1  3  1  0
  2  4  1  0
  3  5  2  0
  5  7  1  0
  6 14  1  0
  2  7  1  0
  8  9  1  0
  6  9  2  0
 10 13  1  0
  6 11  1  0
 11 12  1  0
  8 12  2  0
  4 13  1  0
 10 14  1  0
  3 15  1  0
  4 16  1  0
  4 17  1  0
 18 20  1  0
 10 18  1  0
  9 19  1  0
 17 20  1  0
 15 21  1  0
 15 22  2  0
 22 23  1  0
 21 24  2  0
 23 25  2  0
 24 25  1  0
M  END
>  <IDNUMBER>  (469) 
SA92-0037

>  <available>  (469) 
21

>  <H_acceptor>  (469) 
5

>  <H_donor>  (469) 
0

>  <B_rotN>  (469) 
4

>  <N_O>  (469) 
5

>  <logP>  (469) 
3.6073

>  <logD>  (469) 
3.5395

>  <logSw>  (469) 
-3.6752

>  <PSA>  (469) 
45.515

>  <pKa_ma>  (469) 
26.9519

>  <pKa_mb>  (469) 
6.6276

>  <N_Chirals>  (469) 
1

>  <Name>  (469) 
3-fluoro-1-[(4-methyl-1,3-thiazol-5-yl)methyl]-3-(3-phenyl-1,2,4-oxadiazol-5-yl)piperidine

>  <Smile>  (469) 
Cc1c(CN(CCC2)CC2(c2nc(-c3ccccc3)no2)F)scn1

>  <Color>  (469) 
YELLOW

>  <Collection>  (469) 
IC

>  <InChI>  (469) 
InChI=1S/C18H19FN4OS/c1-13-15(25-12-20-13)10-23-9-5-8-18(19,11-23)17-21-16(22-24-17)14-6-3-2-4-7-14/h2-4,6-7,12H,5,8-11H2,1H3/t18-/m0/s1

>  <InChI Key>  (469) 
BAXQFWGIZUVHMO-SFHVURJKSA-N

>  <PERCENTSP3>  (469) 
38.89

>  <Link>  (469) 
https://www.chemdiv.com/catalog/screening-compounds/compound-SA92-0037/

>  <MFCDNUMBER>  (469) 
MFCD32241692

>  <CLNUMBER>  (469) 
CM4899

>  <STEREO>  (469) 
RACEMIC MIXTURE

>  <State>  (469) 
Liquid

>  <Similarity score>  (469) 
0.18

$$$$
2-(4-fluorophenyl)-1-{3-fluoro-3-[3-(pyridin-4-yl)-1,2,4-oxadiazol-5-yl]piperidi
     RDKit          2D

 28 31  0  0  0  0  0  0  0  0999 V2000
   -0.6407    0.9459    0.0000 N   0  0  0  0  0  0  0  0  0  0  0  0
    0.3462    1.0964    0.0000 C   0  0  0  0  0  0  0  0  0  0  0  0
    1.0511    0.3916    0.0000 C   0  0  0  0  0  0  0  0  0  0  0  0
   -1.0949    1.8324    0.0000 C   0  0  0  0  0  0  0  0  0  0  0  0
   -0.3901    2.5436    0.0000 N   0  0  0  0  0  0  0  0  0  0  0  0
    2.5548   -0.4793    0.0000 N   0  0  0  0  0  0  0  0  0  0  0  0
    0.5028    2.0864    0.0000 O   0  0  0  0  0  0  0  0  0  0  0  0
    3.0528   -1.3377    0.0000 C   0  0  0  0  0  0  0  0  0  0  0  0
    1.5554   -0.4793    0.0000 C   0  0  0  0  0  0  0  0  0  0  0  0
    2.5548   -2.2022    0.0000 C   0  0  0  0  0  0  0  0  0  0  0  0
   -2.0785    1.9891    0.0000 C   0  0  0  0  0  0  0  0  0  0  0  0
    4.0552   -1.3377    0.0000 O   0  0  0  0  0  0  0  0  0  0  0  0
    0.6719   -0.5358    0.0000 F   0  0  0  0  0  0  0  0  0  0  0  0
   -4.0552    2.3087    0.0000 N   0  0  0  0  0  0  0  0  0  0  0  0
    1.5554   -2.2022    0.0000 C   0  0  0  0  0  0  0  0  0  0  0  0
    1.5554    1.2594    0.0000 C   0  0  0  0  0  0  0  0  0  0  0  0
   -0.4463   -2.2022    0.0000 C   0  0  0  0  0  0  0  0  0  0  0  0
    3.0528    0.3916    0.0000 C   0  0  0  0  0  0  0  0  0  0  0  0
   -1.4487   -2.2022    0.0000 F   0  0  0  0  0  0  0  0  0  0  0  0
    1.0511   -1.3377    0.0000 C   0  0  0  0  0  0  0  0  0  0  0  0
    1.0511   -3.0731    0.0000 C   0  0  0  0  0  0  0  0  0  0  0  0
    0.0547   -1.3377    0.0000 C   0  0  0  0  0  0  0  0  0  0  0  0
    0.0547   -3.0731    0.0000 C   0  0  0  0  0  0  0  0  0  0  0  0
    2.5548    1.2594    0.0000 C   0  0  0  0  0  0  0  0  0  0  0  0
   -3.4256    3.0731    0.0000 C   0  0  0  0  0  0  0  0  0  0  0  0
   -3.7044    1.3722    0.0000 C   0  0  0  0  0  0  0  0  0  0  0  0
   -2.4450    2.9195    0.0000 C   0  0  0  0  0  0  0  0  0  0  0  0
   -2.7114    1.2092    0.0000 C   0  0  0  0  0  0  0  0  0  0  0  0
  1  2  2  0
  2  3  1  0
  1  4  1  0
  4  5  2  0
  5  7  1  0
  6  9  1  0
  2  7  1  0
  6  8  1  0
  3  9  1  0
  8 10  1  0
  4 11  1  0
  8 12  2  0
  3 13  1  0
 14 26  1  0
 14 25  2  0
 10 15  1  0
  3 16  1  0
 17 23  2  0
 18 24  1  0
  6 18  1  0
 17 19  1  0
 15 20  1  0
 15 21  2  0
 20 22  2  0
 17 22  1  0
 21 23  1  0
 16 24  1  0
 25 27  1  0
 26 28  2  0
 11 27  2  0
 11 28  1  0
M  END
>  <IDNUMBER>  (470) 
SA92-0182

>  <available>  (470) 
88

>  <H_acceptor>  (470) 
6

>  <H_donor>  (470) 
0

>  <B_rotN>  (470) 
5

>  <N_O>  (470) 
6

>  <logP>  (470) 
3.0287

>  <logD>  (470) 
3.0286

>  <logSw>  (470) 
-2.9462

>  <PSA>  (470) 
57.127

>  <pKa_ma>  (470) 
17.477

>  <pKa_mb>  (470) 
3.6841

>  <N_Chirals>  (470) 
1

>  <Name>  (470) 
2-(4-fluorophenyl)-1-{3-fluoro-3-[3-(pyridin-4-yl)-1,2,4-oxadiazol-5-yl]piperidin-1-yl}ethan-1-one

>  <Smile>  (470) 
O=C(Cc(cc1)ccc1F)N(CCC1)CC1(c1nc(-c2ccncc2)no1)F

>  <Color>  (470) 
YELLOW

>  <Collection>  (470) 
IC

>  <InChI>  (470) 
InChI=1S/C20H18F2N4O2/c21-16-4-2-14(3-5-16)12-17(27)26-11-1-8-20(22,13-26)19-24-18(25-28-19)15-6-9-23-10-7-15/h2-7,9-10H,1,8,11-13H2/t20-/m0/s1

>  <InChI Key>  (470) 
SUDOBYCDKZWCGK-FQEVSTJZSA-N

>  <PERCENTSP3>  (470) 
30

>  <Link>  (470) 
https://www.chemdiv.com/catalog/screening-compounds/compound-SA92-0182/

>  <MFCDNUMBER>  (470) 
MFCD32241445

>  <CLNUMBER>  (470) 
CM4899

>  <STEREO>  (470) 
RACEMIC MIXTURE

>  <State>  (470) 
Solid

>  <Similarity score>  (470) 
0.18

$$$$
1-{3-fluoro-3-[3-(pyridin-4-yl)-1,2,4-oxadiazol-5-yl]piperidin-1-yl}-2-(3-methyl
     RDKit          2D

 29 32  0  0  0  0  0  0  0  0999 V2000
   -0.6440    2.2391    0.0000 N   0  0  0  0  0  0  0  0  0  0  0  0
    0.3430    2.3958    0.0000 C   0  0  0  0  0  0  0  0  0  0  0  0
    1.0515    1.6908    0.0000 C   0  0  0  0  0  0  0  0  0  0  0  0
   -1.0922    3.1324    0.0000 C   0  0  0  0  0  0  0  0  0  0  0  0
   -0.3900    3.8343    0.0000 N   0  0  0  0  0  0  0  0  0  0  0  0
    2.5557    0.8257    0.0000 N   0  0  0  0  0  0  0  0  0  0  0  0
    0.5029    3.3767    0.0000 O   0  0  0  0  0  0  0  0  0  0  0  0
    3.0539   -0.0454    0.0000 C   0  0  0  0  0  0  0  0  0  0  0  0
    1.5498    0.8257    0.0000 C   0  0  0  0  0  0  0  0  0  0  0  0
   -2.0792    3.2794    0.0000 C   0  0  0  0  0  0  0  0  0  0  0  0
    2.5557   -0.9105    0.0000 C   0  0  0  0  0  0  0  0  0  0  0  0
    4.0568   -0.0454    0.0000 O   0  0  0  0  0  0  0  0  0  0  0  0
    0.6658    0.7599    0.0000 F   0  0  0  0  0  0  0  0  0  0  0  0
   -4.0568    3.5992    0.0000 N   0  0  0  0  0  0  0  0  0  0  0  0
    3.0539   -1.7786    0.0000 O   0  0  0  0  0  0  0  0  0  0  0  0
    1.5498    2.5557    0.0000 C   0  0  0  0  0  0  0  0  0  0  0  0
    2.5557   -2.6434    0.0000 C   0  0  0  0  0  0  0  0  0  0  0  0
    3.0539    1.6908    0.0000 C   0  0  0  0  0  0  0  0  0  0  0  0
    1.5498   -2.6434    0.0000 C   0  0  0  0  0  0  0  0  0  0  0  0
    1.0515   -3.5085    0.0000 C   0  0  0  0  0  0  0  0  0  0  0  0
    2.5557    2.5557    0.0000 C   0  0  0  0  0  0  0  0  0  0  0  0
    2.5557   -4.3733    0.0000 C   0  0  0  0  0  0  0  0  0  0  0  0
   -3.4268    4.3733    0.0000 C   0  0  0  0  0  0  0  0  0  0  0  0
   -3.6996    2.6685    0.0000 C   0  0  0  0  0  0  0  0  0  0  0  0
   -2.4398    4.2197    0.0000 C   0  0  0  0  0  0  0  0  0  0  0  0
   -2.7093    2.5119    0.0000 C   0  0  0  0  0  0  0  0  0  0  0  0
    3.0539   -3.5085    0.0000 C   0  0  0  0  0  0  0  0  0  0  0  0
    1.5498   -4.3733    0.0000 C   0  0  0  0  0  0  0  0  0  0  0  0
    0.0549   -3.5085    0.0000 C   0  0  0  0  0  0  0  0  0  0  0  0
  1  2  2  0
  2  3  1  0
  1  4  1  0
  4  5  2  0
  5  7  1  0
  6  9  1  0
  2  7  1  0
  6  8  1  0
  3  9  1  0
  4 10  1  0
  8 11  1  0
  8 12  2  0
  3 13  1  0
 14 24  1  0
 14 23  2  0
 11 15  1  0
  3 16  1  0
 15 17  1  0
 18 21  1  0
  6 18  1  0
 17 19  1  0
 19 20  2  0
 16 21  1  0
 22 27  1  0
 23 25  1  0
 24 26  2  0
 10 25  2  0
 10 26  1  0
 17 27  2  0
 22 28  2  0
 20 28  1  0
 20 29  1  0
M  END
>  <IDNUMBER>  (471) 
SA92-0216

>  <available>  (471) 
53

>  <H_acceptor>  (471) 
7

>  <H_donor>  (471) 
0

>  <B_rotN>  (471) 
6

>  <N_O>  (471) 
7

>  <logP>  (471) 
2.9928

>  <logD>  (471) 
2.9927

>  <logSw>  (471) 
-2.8474

>  <PSA>  (471) 
64.626

>  <pKa_ma>  (471) 
24.9668

>  <pKa_mb>  (471) 
3.6841

>  <N_Chirals>  (471) 
1

>  <Name>  (471) 
1-{3-fluoro-3-[3-(pyridin-4-yl)-1,2,4-oxadiazol-5-yl]piperidin-1-yl}-2-(3-methylphenoxy)ethan-1-one

>  <Smile>  (471) 
Cc1cccc(OCC(N(CCC2)CC2(c2nc(-c3ccncc3)no2)F)=O)c1

>  <Color>  (471) 
YELLOW

>  <Collection>  (471) 
IC

>  <InChI>  (471) 
InChI=1S/C21H21FN4O3/c1-15-4-2-5-17(12-15)28-13-18(27)26-11-3-8-21(22,14-26)20-24-19(25-29-20)16-6-9-23-10-7-16/h2,4-7,9-10,12H,3,8,11,13-14H2,1H3/t21-/m0/s1

>  <InChI Key>  (471) 
RIJMPSFQPJTJTB-NRFANRHFSA-N

>  <PERCENTSP3>  (471) 
33.33

>  <Link>  (471) 
https://www.chemdiv.com/catalog/screening-compounds/compound-SA92-0216/

>  <MFCDNUMBER>  (471) 
MFCD32241825

>  <CLNUMBER>  (471) 
CM4899

>  <STEREO>  (471) 
RACEMIC MIXTURE

>  <State>  (471) 
Liquid

>  <Similarity score>  (471) 
0.18

$$$$
N-(3-cyano-5,6-dihydro-4H-cyclopenta[b]thiophen-2-yl)-2-(2,4-dichlorophenoxy)pro
     RDKit          2D

 24 26  0  0  0  0  0  0  0  0999 V2000
   -0.9259    1.4450    0.0000 C   0  0  0  0  0  0  0  0  0  0  0  0
   -0.9259    2.3438    0.0000 C   0  0  0  0  0  0  0  0  0  0  0  0
   -1.7084    0.9956    0.0000 S   0  0  0  0  0  0  0  0  0  0  0  0
   -2.5065    2.3438    0.0000 C   0  0  0  0  0  0  0  0  0  0  0  0
   -0.0814    0.9569    0.0000 N   0  0  0  0  0  0  0  0  0  0  0  0
   -2.5065    1.4528    0.0000 C   0  0  0  0  0  0  0  0  0  0  0  0
   -0.0814   -0.0040    0.0000 C   0  0  0  0  0  0  0  0  0  0  0  0
   -0.0116    2.8629    0.0000 C   0  0  0  0  0  0  0  0  0  0  0  0
    0.8949    3.3743    0.0000 N   0  0  0  0  0  0  0  0  0  0  0  0
    0.7477   -1.4528    0.0000 O   0  0  0  0  0  0  0  0  0  0  0  0
    1.5767   -1.9254    0.0000 C   0  0  0  0  0  0  0  0  0  0  0  0
    2.4213   -1.4605    0.0000 C   0  0  0  0  0  0  0  0  0  0  0  0
    0.7553   -0.4996    0.0000 C   0  0  0  0  0  0  0  0  0  0  0  0
    3.2501   -1.9254    0.0000 C   0  0  0  0  0  0  0  0  0  0  0  0
   -0.9104   -0.4920    0.0000 O   0  0  0  0  0  0  0  0  0  0  0  0
    1.5845   -2.8861    0.0000 C   0  0  0  0  0  0  0  0  0  0  0  0
    3.2501   -2.8939    0.0000 C   0  0  0  0  0  0  0  0  0  0  0  0
    2.4443   -0.4996    0.0000 Cl  0  0  0  0  0  0  0  0  0  0  0  0
   -3.2967    2.8009    0.0000 C   0  0  0  0  0  0  0  0  0  0  0  0
   -4.0871    1.4528    0.0000 C   0  0  0  0  0  0  0  0  0  0  0  0
    2.4135   -3.3588    0.0000 C   0  0  0  0  0  0  0  0  0  0  0  0
    4.0871   -3.3743    0.0000 Cl  0  0  0  0  0  0  0  0  0  0  0  0
   -4.0871    2.3515    0.0000 C   0  0  0  0  0  0  0  0  0  0  0  0
    1.5845   -0.0271    0.0000 C   0  0  0  0  0  0  0  0  0  0  0  0
  1  2  2  0
  1  3  1  0
  2  4  1  0
  4  6  2  0
  1  5  1  0
  3  6  1  0
  5  7  1  0
  2  8  1  0
  8  9  3  0
 10 11  1  0
 11 12  2  0
 10 13  1  0
  7 13  1  0
 12 14  1  0
 14 17  2  0
  7 15  2  0
 11 16  1  0
 17 21  1  0
 12 18  1  0
  4 19  1  0
 19 23  1  0
  6 20  1  0
 16 21  2  0
 17 22  1  0
 20 23  1  0
 13 24  1  0
M  END
>  <IDNUMBER>  (472) 
8012-3703

>  <available>  (472) 
16

>  <H_acceptor>  (472) 
4

>  <H_donor>  (472) 
1

>  <B_rotN>  (472) 
6

>  <N_O>  (472) 
4

>  <logP>  (472) 
4.9424

>  <logD>  (472) 
3.5046

>  <logSw>  (472) 
-5.0599

>  <PSA>  (472) 
47.342

>  <pKa_ma>  (472) 
5.9783

>  <pKa_mb>  (472) 
-6.0563

>  <N_Chirals>  (472) 
1

>  <Name>  (472) 
N-(3-cyano-5,6-dihydro-4H-cyclopenta[b]thiophen-2-yl)-2-(2,4-dichlorophenoxy)propanamide

>  <Smile>  (472) 
CC(C(Nc(sc1c2CCC1)c2C#N)=O)Oc(ccc(Cl)c1)c1Cl

>  <Color>  (472) 
ORANGE

>  <Collection>  (472) 
DC

>  <InChI>  (472) 
InChI=1S/C17H14Cl2N2O2S/c1-9(23-14-6-5-10(18)7-13(14)19)16(22)21-17-12(8-20)11-3-2-4-15(11)24-17/h5-7,9H,2-4H2,1H3,(H,21,22)/t9-/m0/s1

>  <InChI Key>  (472) 
FLHOMHATGIKCCI-VIFPVBQESA-N

>  <PERCENTSP3>  (472) 
29.41

>  <Link>  (472) 
https://www.chemdiv.com/catalog/screening-compounds/compound-8012-3703/

>  <MFCDNUMBER>  (472) 
MFCD02928197

>  <STEREO>  (472) 
RACEMIC MIXTURE

>  <State>  (472) 
Solid

>  <Similarity score>  (472) 
0.18

$$$$
1-{3-fluoro-3-[3-(pyridin-3-yl)-1,2,4-oxadiazol-5-yl]piperidin-1-yl}-3-(3-methox
     RDKit          2D

 30 33  0  0  0  0  0  0  0  0999 V2000
    2.5046   -0.5562    0.0000 N   0  0  0  0  0  0  0  0  0  0  0  0
    2.1463   -1.4940    0.0000 C   0  0  0  0  0  0  0  0  0  0  0  0
    3.5048   -0.6148    0.0000 C   0  0  0  0  0  0  0  0  0  0  0  0
    1.1837   -1.7523    0.0000 C   0  0  0  0  0  0  0  0  0  0  0  0
    3.7591   -1.5817    0.0000 N   0  0  0  0  0  0  0  0  0  0  0  0
    0.3166   -0.2522    0.0000 N   0  0  0  0  0  0  0  0  0  0  0  0
    2.9213   -2.1192    0.0000 O   0  0  0  0  0  0  0  0  0  0  0  0
    1.1837   -0.7565    0.0000 C   0  0  0  0  0  0  0  0  0  0  0  0
    0.3166    0.7480    0.0000 C   0  0  0  0  0  0  0  0  0  0  0  0
    4.1341    0.1688    0.0000 C   0  0  0  0  0  0  0  0  0  0  0  0
    1.1837    1.2441    0.0000 O   0  0  0  0  0  0  0  0  0  0  0  0
    5.7470    0.7857    0.0000 N   0  0  0  0  0  0  0  0  0  0  0  0
   -0.5542    1.2441    0.0000 C   0  0  0  0  0  0  0  0  0  0  0  0
    1.0460   -2.7442    0.0000 F   0  0  0  0  0  0  0  0  0  0  0  0
    0.3166   -2.2566    0.0000 C   0  0  0  0  0  0  0  0  0  0  0  0
    5.1219    0.0063    0.0000 C   0  0  0  0  0  0  0  0  0  0  0  0
   -0.5542   -0.7565    0.0000 C   0  0  0  0  0  0  0  0  0  0  0  0
   -3.1549    0.7480    0.0000 C   0  0  0  0  0  0  0  0  0  0  0  0
   -1.4170    0.7480    0.0000 C   0  0  0  0  0  0  0  0  0  0  0  0
   -2.2837    1.2441    0.0000 C   0  0  0  0  0  0  0  0  0  0  0  0
   -4.0175    1.2441    0.0000 C   0  0  0  0  0  0  0  0  0  0  0  0
    3.7717    1.0982    0.0000 C   0  0  0  0  0  0  0  0  0  0  0  0
   -4.8803    0.7480    0.0000 O   0  0  0  0  0  0  0  0  0  0  0  0
   -0.5542   -1.7523    0.0000 C   0  0  0  0  0  0  0  0  0  0  0  0
   -3.1549    2.7442    0.0000 C   0  0  0  0  0  0  0  0  0  0  0  0
    5.3927    1.7193    0.0000 C   0  0  0  0  0  0  0  0  0  0  0  0
   -2.2837    2.2485    0.0000 C   0  0  0  0  0  0  0  0  0  0  0  0
   -4.0175    2.2485    0.0000 C   0  0  0  0  0  0  0  0  0  0  0  0
   -5.7470    1.2441    0.0000 C   0  0  0  0  0  0  0  0  0  0  0  0
    4.4051    1.8734    0.0000 C   0  0  0  0  0  0  0  0  0  0  0  0
  1  2  2  0
  1  3  1  0
  2  4  1  0
  3  5  2  0
  5  7  1  0
  6  8  1  0
  6 17  1  0
  2  7  1  0
  4  8  1  0
  6  9  1  0
  3 10  1  0
  9 11  2  0
 12 16  2  0
 12 26  1  0
  9 13  1  0
  4 14  1  0
  4 15  1  0
 10 16  1  0
 17 24  1  0
 18 20  2  0
 13 19  1  0
 19 20  1  0
 18 21  1  0
 21 28  2  0
 10 22  2  0
 21 23  1  0
 15 24  1  0
 25 27  2  0
 26 30  2  0
 20 27  1  0
 25 28  1  0
 23 29  1  0
 22 30  1  0
M  END
>  <IDNUMBER>  (473) 
SA92-0625

>  <available>  (473) 
61

>  <H_acceptor>  (473) 
7

>  <H_donor>  (473) 
0

>  <B_rotN>  (473) 
7

>  <N_O>  (473) 
7

>  <logP>  (473) 
3.0763

>  <logD>  (473) 
2.4376

>  <logSw>  (473) 
-2.9444

>  <PSA>  (473) 
64.76

>  <pKa_ma>  (473) 
22.9745

>  <pKa_mb>  (473) 
7.9253

>  <N_Chirals>  (473) 
1

>  <Name>  (473) 
1-{3-fluoro-3-[3-(pyridin-3-yl)-1,2,4-oxadiazol-5-yl]piperidin-1-yl}-3-(3-methoxyphenyl)propan-1-one

>  <Smile>  (473) 
COc1cccc(CCC(N(CCC2)CC2(c2nc(-c3cnccc3)no2)F)=O)c1

>  <Color>  (473) 
BROWN

>  <Collection>  (473) 
IC

>  <InChI>  (473) 
InChI=1S/C22H23FN4O3/c1-29-18-7-2-5-16(13-18)8-9-19(28)27-12-4-10-22(23,15-27)21-25-20(26-30-21)17-6-3-11-24-14-17/h2-3,5-7,11,13-14H,4,8-10,12,15H2,1H3/t22-/m0/s1

>  <InChI Key>  (473) 
FSXPXOPHNRLJLO-QFIPXVFZSA-N

>  <PERCENTSP3>  (473) 
36.36

>  <Link>  (473) 
https://www.chemdiv.com/catalog/screening-compounds/compound-SA92-0625/

>  <MFCDNUMBER>  (473) 
MFCD32243337

>  <CLNUMBER>  (473) 
CM4899

>  <STEREO>  (473) 
RACEMIC MIXTURE

>  <State>  (473) 
Liquid

>  <Similarity score>  (473) 
0.18

$$$$
{3-fluoro-3-[3-(pyridin-4-yl)-1,2,4-oxadiazol-5-yl]piperidin-1-yl}(3-methylpyrid
     RDKit          2D

 27 30  0  0  0  0  0  0  0  0999 V2000
   -1.6413    0.9414    0.0000 N   0  0  0  0  0  0  0  0  0  0  0  0
   -0.6484    1.1073    0.0000 C   0  0  0  0  0  0  0  0  0  0  0  0
    0.0594    0.3963    0.0000 C   0  0  0  0  0  0  0  0  0  0  0  0
   -2.0925    1.8309    0.0000 C   0  0  0  0  0  0  0  0  0  0  0  0
    2.0518   -1.3424    0.0000 C   0  0  0  0  0  0  0  0  0  0  0  0
    1.5538   -0.4715    0.0000 N   0  0  0  0  0  0  0  0  0  0  0  0
   -1.3875    2.5390    0.0000 N   0  0  0  0  0  0  0  0  0  0  0  0
   -0.4948    2.0846    0.0000 O   0  0  0  0  0  0  0  0  0  0  0  0
    3.0541   -1.3424    0.0000 C   0  0  0  0  0  0  0  0  0  0  0  0
    0.5546   -0.4715    0.0000 C   0  0  0  0  0  0  0  0  0  0  0  0
    3.5556   -0.4715    0.0000 N   0  0  0  0  0  0  0  0  0  0  0  0
    1.5538   -2.2006    0.0000 O   0  0  0  0  0  0  0  0  0  0  0  0
   -3.0885    1.9939    0.0000 C   0  0  0  0  0  0  0  0  0  0  0  0
    3.5556   -2.2006    0.0000 C   0  0  0  0  0  0  0  0  0  0  0  0
   -0.3258   -0.5340    0.0000 F   0  0  0  0  0  0  0  0  0  0  0  0
   -5.0559    2.3102    0.0000 N   0  0  0  0  0  0  0  0  0  0  0  0
    0.5546    1.2577    0.0000 C   0  0  0  0  0  0  0  0  0  0  0  0
    2.0518    0.3963    0.0000 C   0  0  0  0  0  0  0  0  0  0  0  0
    1.5538    1.2577    0.0000 C   0  0  0  0  0  0  0  0  0  0  0  0
    4.5611   -0.4715    0.0000 C   0  0  0  0  0  0  0  0  0  0  0  0
   -4.4325    3.0746    0.0000 C   0  0  0  0  0  0  0  0  0  0  0  0
   -4.7052    1.3705    0.0000 C   0  0  0  0  0  0  0  0  0  0  0  0
   -3.4396    2.9242    0.0000 C   0  0  0  0  0  0  0  0  0  0  0  0
   -3.7120    1.2141    0.0000 C   0  0  0  0  0  0  0  0  0  0  0  0
    3.0541   -3.0746    0.0000 C   0  0  0  0  0  0  0  0  0  0  0  0
    4.5611   -2.2006    0.0000 C   0  0  0  0  0  0  0  0  0  0  0  0
    5.0559   -1.3424    0.0000 C   0  0  0  0  0  0  0  0  0  0  0  0
  1  2  2  0
  2  3  1  0
  1  4  1  0
  5  6  1  0
  6 10  1  0
  4  7  2  0
  7  8  1  0
  2  8  1  0
  5  9  1  0
  3 10  1  0
  9 11  2  0
  5 12  2  0
  4 13  1  0
  9 14  1  0
  3 15  1  0
 16 22  1  0
 16 21  2  0
  3 17  1  0
 18 19  1  0
  6 18  1  0
 17 19  1  0
 11 20  1  0
 21 23  1  0
 22 24  2  0
 13 23  2  0
 13 24  1  0
 14 25  1  0
 14 26  2  0
 26 27  1  0
 20 27  2  0
M  END
>  <IDNUMBER>  (474) 
SA92-0207

>  <available>  (474) 
29

>  <H_acceptor>  (474) 
7

>  <H_donor>  (474) 
0

>  <B_rotN>  (474) 
4

>  <N_O>  (474) 
7

>  <logP>  (474) 
2.2551

>  <logD>  (474) 
2.2551

>  <logSw>  (474) 
-2.0335

>  <PSA>  (474) 
67.472

>  <pKa_ma>  (474) 
24.399

>  <pKa_mb>  (474) 
3.6841

>  <N_Chirals>  (474) 
1

>  <Name>  (474) 
{3-fluoro-3-[3-(pyridin-4-yl)-1,2,4-oxadiazol-5-yl]piperidin-1-yl}(3-methylpyridin-2-yl)methanone

>  <Smile>  (474) 
Cc1cccnc1C(N(CCC1)CC1(c1nc(-c2ccncc2)no1)F)=O

>  <Color>  (474) 
YELLOW

>  <Collection>  (474) 
IC

>  <InChI>  (474) 
InChI=1S/C19H18FN5O2/c1-13-4-2-8-22-15(13)17(26)25-11-3-7-19(20,12-25)18-23-16(24-27-18)14-5-9-21-10-6-14/h2,4-6,8-10H,3,7,11-12H2,1H3/t19-/m0/s1

>  <InChI Key>  (474) 
QJGRXWFAXUUZOM-IBGZPJMESA-N

>  <PERCENTSP3>  (474) 
31.58

>  <Link>  (474) 
https://www.chemdiv.com/catalog/screening-compounds/compound-SA92-0207/

>  <MFCDNUMBER>  (474) 
MFCD32241698

>  <CLNUMBER>  (474) 
CM4899

>  <STEREO>  (474) 
RACEMIC MIXTURE

>  <State>  (474) 
Liquid

>  <Similarity score>  (474) 
0.18

$$$$
N-(3-cyano-6-ethyl-4,5,6,7-tetrahydro-1-benzothiophen-2-yl)-2-(4-ethylphenoxy)pr
     RDKit          2D

 27 29  0  0  0  0  0  0  0  0999 V2000
    1.6520   -0.3562    0.0000 C   0  0  0  0  0  0  0  0  0  0  0  0
    2.2896    0.4561    0.0000 C   0  0  0  0  0  0  0  0  0  0  0  0
    3.2229    0.1188    0.0000 C   0  0  0  0  0  0  0  0  0  0  0  0
    3.2229   -0.8813    0.0000 C   0  0  0  0  0  0  0  0  0  0  0  0
    2.2270   -1.1647    0.0000 S   0  0  0  0  0  0  0  0  0  0  0  0
    0.6813   -0.3313    0.0000 N   0  0  0  0  0  0  0  0  0  0  0  0
    0.1564   -1.2020    0.0000 C   0  0  0  0  0  0  0  0  0  0  0  0
    2.0519    1.4020    0.0000 C   0  0  0  0  0  0  0  0  0  0  0  0
    1.8146    2.3520    0.0000 N   0  0  0  0  0  0  0  0  0  0  0  0
    4.0853    0.6187    0.0000 C   0  0  0  0  0  0  0  0  0  0  0  0
    4.0853   -1.3895    0.0000 C   0  0  0  0  0  0  0  0  0  0  0  0
   -0.8437   -1.2020    0.0000 C   0  0  0  0  0  0  0  0  0  0  0  0
   -1.3396   -0.3313    0.0000 O   0  0  0  0  0  0  0  0  0  0  0  0
    0.6813   -2.0771    0.0000 O   0  0  0  0  0  0  0  0  0  0  0  0
   -2.3395   -0.3313    0.0000 C   0  0  0  0  0  0  0  0  0  0  0  0
    4.9560    0.1188    0.0000 C   0  0  0  0  0  0  0  0  0  0  0  0
    4.9560   -0.8938    0.0000 C   0  0  0  0  0  0  0  0  0  0  0  0
   -4.3353   -0.3313    0.0000 C   0  0  0  0  0  0  0  0  0  0  0  0
   -2.8354    0.5438    0.0000 C   0  0  0  0  0  0  0  0  0  0  0  0
   -2.8354   -1.2020    0.0000 C   0  0  0  0  0  0  0  0  0  0  0  0
   -3.8353   -1.2020    0.0000 C   0  0  0  0  0  0  0  0  0  0  0  0
   -3.8353    0.5438    0.0000 C   0  0  0  0  0  0  0  0  0  0  0  0
   -1.3396   -2.0771    0.0000 C   0  0  0  0  0  0  0  0  0  0  0  0
   -5.3310   -0.3562    0.0000 C   0  0  0  0  0  0  0  0  0  0  0  0
    5.8061   -1.3769    0.0000 C   0  0  0  0  0  0  0  0  0  0  0  0
   -5.8061   -1.2271    0.0000 C   0  0  0  0  0  0  0  0  0  0  0  0
    5.8061   -2.3520    0.0000 C   0  0  0  0  0  0  0  0  0  0  0  0
  1  2  2  0
  2  3  1  0
  3  4  2  0
  4  5  1  0
  1  5  1  0
  1  6  1  0
  6  7  1  0
  2  8  1  0
  8  9  3  0
  3 10  1  0
  4 11  1  0
  7 12  1  0
 12 13  1  0
  7 14  2  0
 13 15  1  0
 10 16  1  0
 11 17  1  0
 16 17  1  0
 18 21  1  0
 18 22  2  0
 15 19  2  0
 15 20  1  0
 20 21  2  0
 19 22  1  0
 12 23  1  0
 18 24  1  0
 17 25  1  0
 24 26  1  0
 25 27  1  0
M  END
>  <IDNUMBER>  (475) 
Y203-0140

>  <available>  (475) 
18

>  <H_acceptor>  (475) 
4

>  <H_donor>  (475) 
1

>  <B_rotN>  (475) 
8

>  <N_O>  (475) 
4

>  <logP>  (475) 
5.9135

>  <logD>  (475) 
4.4955

>  <logSw>  (475) 
-5.544

>  <PSA>  (475) 
46.89

>  <pKa_ma>  (475) 
5.9989

>  <pKa_mb>  (475) 
-4.9316

>  <N_Chirals>  (475) 
2

>  <Name>  (475) 
N-(3-cyano-6-ethyl-4,5,6,7-tetrahydro-1-benzothiophen-2-yl)-2-(4-ethylphenoxy)propanamide

>  <Smile>  (475) 
CCC(CC1)Cc2c1c(C#N)c(NC(C(C)Oc1ccc(CC)cc1)=O)s2

>  <Color>  (475) 
BROWN

>  <Collection>  (475) 
DC

>  <InChI>  (475) 
InChI=1S/C22H26N2O2S/c1-4-15-6-9-17(10-7-15)26-14(3)21(25)24-22-19(13-23)18-11-8-16(5-2)12-20(18)27-22/h6-7,9-10,14,16H,4-5,8,11-12H2,1-3H3,(H,24,25)

>  <InChI Key>  (475) 
VWFSGWNXFPMVBL-UHFFFAOYSA-N

>  <PERCENTSP3>  (475) 
45.46

>  <Link>  (475) 
https://www.chemdiv.com/catalog/screening-compounds/compound-Y203-0140/

>  <MFCDNUMBER>  (475) 
MFCD03944527

>  <STEREO>  (475) 
MIXTURE OF STEREOISOMERS

>  <State>  (475) 
Solid

>  <Similarity score>  (475) 
0.18

$$$$
N-{2-[3-(pyridin-2-yl)-1,2,4-oxadiazol-5-yl]ethyl}-2-(1H-tetrazol-1-yl)-5,6-dihy
     RDKit          2D

 29 33  0  0  0  0  0  0  0  0999 V2000
   -3.3559   -0.5812    0.0000 C   0  0  0  0  0  0  0  0  0  0  0  0
   -2.4351   -0.9687    0.0000 C   0  0  0  0  0  0  0  0  0  0  0  0
   -3.6851    0.3605    0.0000 N   0  0  0  0  0  0  0  0  0  0  0  0
   -4.0059   -1.3477    0.0000 S   0  0  0  0  0  0  0  0  0  0  0  0
    2.9475    0.7936    0.0000 C   0  0  0  0  0  0  0  0  0  0  0  0
    1.9684    0.5812    0.0000 N   0  0  0  0  0  0  0  0  0  0  0  0
   -2.5226   -1.9684    0.0000 C   0  0  0  0  0  0  0  0  0  0  0  0
   -4.6682    0.6104    0.0000 N   0  0  0  0  0  0  0  0  0  0  0  0
   -3.4892   -2.1976    0.0000 C   0  0  0  0  0  0  0  0  0  0  0  0
   -4.7350    1.6103    0.0000 N   0  0  0  0  0  0  0  0  0  0  0  0
    3.4599   -0.0645    0.0000 N   0  0  0  0  0  0  0  0  0  0  0  0
   -3.7976    1.9727    0.0000 N   0  0  0  0  0  0  0  0  0  0  0  0
   -1.5853   -0.4562    0.0000 C   0  0  0  0  0  0  0  0  0  0  0  0
   -3.1559    1.2062    0.0000 C   0  0  0  0  0  0  0  0  0  0  0  0
    1.8768   -0.4145    0.0000 C   0  0  0  0  0  0  0  0  0  0  0  0
    2.7976   -0.8186    0.0000 O   0  0  0  0  0  0  0  0  0  0  0  0
    3.3393    1.7185    0.0000 C   0  0  0  0  0  0  0  0  0  0  0  0
    4.3390    1.8352    0.0000 N   0  0  0  0  0  0  0  0  0  0  0  0
    1.0145   -0.9312    0.0000 C   0  0  0  0  0  0  0  0  0  0  0  0
   -1.5978    0.5396    0.0000 O   0  0  0  0  0  0  0  0  0  0  0  0
   -0.7061   -0.9437    0.0000 N   0  0  0  0  0  0  0  0  0  0  0  0
    0.1480   -0.4312    0.0000 C   0  0  0  0  0  0  0  0  0  0  0  0
   -2.0060   -2.8144    0.0000 C   0  0  0  0  0  0  0  0  0  0  0  0
   -3.5643   -3.1809    0.0000 C   0  0  0  0  0  0  0  0  0  0  0  0
   -2.6477   -3.5600    0.0000 C   0  0  0  0  0  0  0  0  0  0  0  0
    4.7350    2.7602    0.0000 C   0  0  0  0  0  0  0  0  0  0  0  0
    2.7393    2.5308    0.0000 C   0  0  0  0  0  0  0  0  0  0  0  0
    4.1391    3.5600    0.0000 C   0  0  0  0  0  0  0  0  0  0  0  0
    3.1476    3.4518    0.0000 C   0  0  0  0  0  0  0  0  0  0  0  0
  1  2  2  0
  1  3  1  0
  1  4  1  0
  5  6  1  0
  5 11  2  0
  6 15  2  0
  2  7  1  0
  3  8  1  0
  4  9  1  0
  7  9  2  0
  8 10  2  0
 11 16  1  0
 12 14  2  0
 10 12  1  0
  2 13  1  0
  3 14  1  0
 15 19  1  0
 15 16  1  0
  5 17  1  0
 17 18  2  0
 19 22  1  0
 13 20  2  0
 13 21  1  0
 21 22  1  0
  7 23  1  0
 23 25  1  0
  9 24  1  0
 24 25  1  0
 18 26  1  0
 26 28  2  0
 17 27  1  0
 28 29  1  0
 27 29  2  0
M  END
>  <IDNUMBER>  (476) 
IB07-6369

>  <available>  (476) 
50

>  <H_acceptor>  (476) 
9

>  <H_donor>  (476) 
1

>  <B_rotN>  (476) 
7

>  <N_O>  (476) 
10

>  <logP>  (476) 
1.89

>  <logD>  (476) 
1.89

>  <logSw>  (476) 
-2.78

>  <PSA>  (476) 
175.14

>  <pKa_ma>  (476) 
14

>  <pKa_mb>  (476) 
2.23

>  <N_Chirals>  (476) 
0

>  <Name>  (476) 
N-{2-[3-(pyridin-2-yl)-1,2,4-oxadiazol-5-yl]ethyl}-2-(1H-tetrazol-1-yl)-5,6-dihydro-4H-cyclopenta[b]thiophene-3-carboxamide

>  <Smile>  (476) 
O=C(c1c(-n2nnnc2)sc2c1CCC2)NCCc1nc(-c2ncccc2)no1

>  <Color>  (476) 
NOT COLORED

>  <Collection>  (476) 
DC

>  <InChI>  (476) 
InChI=1S/C18H16N8O2S/c27-17(15-11-4-3-6-13(11)29-18(15)26-10-21-24-25-26)20-9-7-14-22-16(23-28-14)12-5-1-2-8-19-12/h1-2,5,8,10H,3-4,6-7,9H2,(H,20,27)

>  <InChI Key>  (476) 
LIFJJBWXMCZOLN-UHFFFAOYSA-N

>  <PERCENTSP3>  (476) 
27.8

>  <Link>  (476) 
https://www.chemdiv.com/catalog/screening-compounds/compound-IB07-6369/

>  <STEREO>  (476) 
ACHIRAL

>  <State>  (476) 
Solid

>  <Similarity score>  (476) 
0.18

$$$$
{3-fluoro-3-[3-(pyridin-4-yl)-1,2,4-oxadiazol-5-yl]piperidin-1-yl}(3-methoxyphen
     RDKit          2D

 28 31  0  0  0  0  0  0  0  0999 V2000
   -1.6384   -1.3735    0.0000 N   0  0  0  0  0  0  0  0  0  0  0  0
   -0.6515   -1.5241    0.0000 C   0  0  0  0  0  0  0  0  0  0  0  0
    0.0594   -0.8161    0.0000 C   0  0  0  0  0  0  0  0  0  0  0  0
   -2.0926   -2.2631    0.0000 C   0  0  0  0  0  0  0  0  0  0  0  0
    1.5570    0.0455    0.0000 N   0  0  0  0  0  0  0  0  0  0  0  0
   -1.3845   -2.9712    0.0000 N   0  0  0  0  0  0  0  0  0  0  0  0
    2.0518    0.9102    0.0000 C   0  0  0  0  0  0  0  0  0  0  0  0
   -0.4949   -2.5170    0.0000 O   0  0  0  0  0  0  0  0  0  0  0  0
    0.5514    0.0455    0.0000 C   0  0  0  0  0  0  0  0  0  0  0  0
    3.0514    0.9102    0.0000 C   0  0  0  0  0  0  0  0  0  0  0  0
    1.5570    1.7840    0.0000 O   0  0  0  0  0  0  0  0  0  0  0  0
   -3.0858   -2.4138    0.0000 C   0  0  0  0  0  0  0  0  0  0  0  0
    3.5586    1.7840    0.0000 C   0  0  0  0  0  0  0  0  0  0  0  0
   -0.3228    0.1020    0.0000 F   0  0  0  0  0  0  0  0  0  0  0  0
   -5.0530   -2.7271    0.0000 N   0  0  0  0  0  0  0  0  0  0  0  0
    0.5514   -1.6836    0.0000 C   0  0  0  0  0  0  0  0  0  0  0  0
    2.0518   -0.8161    0.0000 C   0  0  0  0  0  0  0  0  0  0  0  0
    4.5550    1.7840    0.0000 C   0  0  0  0  0  0  0  0  0  0  0  0
    3.5586    0.0455    0.0000 C   0  0  0  0  0  0  0  0  0  0  0  0
    5.0530    2.6393    0.0000 O   0  0  0  0  0  0  0  0  0  0  0  0
    1.5570   -1.6836    0.0000 C   0  0  0  0  0  0  0  0  0  0  0  0
    4.5550    0.0455    0.0000 C   0  0  0  0  0  0  0  0  0  0  0  0
   -4.4296   -3.5071    0.0000 C   0  0  0  0  0  0  0  0  0  0  0  0
   -4.7021   -1.7967    0.0000 C   0  0  0  0  0  0  0  0  0  0  0  0
   -3.4367   -3.3533    0.0000 C   0  0  0  0  0  0  0  0  0  0  0  0
   -3.7092   -1.6369    0.0000 C   0  0  0  0  0  0  0  0  0  0  0  0
    5.0530    0.9102    0.0000 C   0  0  0  0  0  0  0  0  0  0  0  0
    4.5550    3.5071    0.0000 C   0  0  0  0  0  0  0  0  0  0  0  0
  1  2  2  0
  2  3  1  0
  1  4  1  0
  5  9  1  0
  4  6  2  0
  6  8  1  0
  5  7  1  0
  2  8  1  0
  3  9  1  0
  7 10  1  0
  7 11  2  0
  4 12  1  0
 10 13  2  0
  3 14  1  0
 15 24  1  0
 15 23  2  0
  3 16  1  0
 17 21  1  0
  5 17  1  0
 13 18  1  0
 10 19  1  0
 18 20  1  0
 16 21  1  0
 19 22  2  0
 23 25  1  0
 24 26  2  0
 12 25  2  0
 12 26  1  0
 22 27  1  0
 18 27  2  0
 20 28  1  0
M  END
>  <IDNUMBER>  (477) 
SA92-0181

>  <available>  (477) 
115

>  <H_acceptor>  (477) 
7

>  <H_donor>  (477) 
0

>  <B_rotN>  (477) 
5

>  <N_O>  (477) 
7

>  <logP>  (477) 
2.6101

>  <logD>  (477) 
2.6101

>  <logSw>  (477) 
-2.6375

>  <PSA>  (477) 
65.198

>  <pKa_ma>  (477) 
27.08

>  <pKa_mb>  (477) 
3.6841

>  <N_Chirals>  (477) 
1

>  <Name>  (477) 
{3-fluoro-3-[3-(pyridin-4-yl)-1,2,4-oxadiazol-5-yl]piperidin-1-yl}(3-methoxyphenyl)methanone

>  <Smile>  (477) 
COc1cccc(C(N(CCC2)CC2(c2nc(-c3ccncc3)no2)F)=O)c1

>  <Color>  (477) 
YELLOW

>  <Collection>  (477) 
IC

>  <InChI>  (477) 
InChI=1S/C20H19FN4O3/c1-27-16-5-2-4-15(12-16)18(26)25-11-3-8-20(21,13-25)19-23-17(24-28-19)14-6-9-22-10-7-14/h2,4-7,9-10,12H,3,8,11,13H2,1H3/t20-/m0/s1

>  <InChI Key>  (477) 
JKEGNPSWTVFVAA-FQEVSTJZSA-N

>  <PERCENTSP3>  (477) 
30

>  <Link>  (477) 
https://www.chemdiv.com/catalog/screening-compounds/compound-SA92-0181/

>  <MFCDNUMBER>  (477) 
MFCD32241444

>  <CLNUMBER>  (477) 
CM4899

>  <STEREO>  (477) 
RACEMIC MIXTURE

>  <State>  (477) 
Liquid

>  <Similarity score>  (477) 
0.18

$$$$
N-(3-cyano-5,6-dihydro-4H-cyclopenta[b]thiophen-2-yl)-5-ethyl-1,2-oxazole-3-carb
     RDKit          2D

 20 22  0  0  0  0  0  0  0  0999 V2000
   -0.5791   -1.5764    0.0000 C   0  0  0  0  0  0  0  0  0  0  0  0
    0.0262   -2.3517    0.0000 C   0  0  0  0  0  0  0  0  0  0  0  0
    0.2527    1.4563    0.0000 C   0  0  0  0  0  0  0  0  0  0  0  0
   -1.5176   -1.9143    0.0000 S   0  0  0  0  0  0  0  0  0  0  0  0
   -0.5179   -3.1790    0.0000 C   0  0  0  0  0  0  0  0  0  0  0  0
   -0.5791   -0.5678    0.0000 N   0  0  0  0  0  0  0  0  0  0  0  0
   -0.4885    2.0162    0.0000 N   0  0  0  0  0  0  0  0  0  0  0  0
   -1.4722   -2.8956    0.0000 C   0  0  0  0  0  0  0  0  0  0  0  0
    0.2845   -0.0668    0.0000 C   0  0  0  0  0  0  0  0  0  0  0  0
    1.0257    2.0162    0.0000 C   0  0  0  0  0  0  0  0  0  0  0  0
    1.0348   -2.3155    0.0000 C   0  0  0  0  0  0  0  0  0  0  0  0
   -0.2005    2.8935    0.0000 O   0  0  0  0  0  0  0  0  0  0  0  0
    2.0321   -2.2746    0.0000 N   0  0  0  0  0  0  0  0  0  0  0  0
    0.7379    2.8935    0.0000 C   0  0  0  0  0  0  0  0  0  0  0  0
    1.0847   -0.5520    0.0000 O   0  0  0  0  0  0  0  0  0  0  0  0
   -0.4725   -4.1834    0.0000 C   0  0  0  0  0  0  0  0  0  0  0  0
   -2.0321   -3.7389    0.0000 C   0  0  0  0  0  0  0  0  0  0  0  0
   -1.4269   -4.5254    0.0000 C   0  0  0  0  0  0  0  0  0  0  0  0
    1.2820    3.6754    0.0000 C   0  0  0  0  0  0  0  0  0  0  0  0
    0.8987    4.5254    0.0000 C   0  0  0  0  0  0  0  0  0  0  0  0
  1  2  2  0
  3  9  1  0
  1  4  1  0
  2  5  1  0
  5  8  2  0
  1  6  1  0
  3  7  2  0
  4  8  1  0
  6  9  1  0
  3 10  1  0
  2 11  1  0
  7 12  1  0
 11 13  3  0
 10 14  2  0
 12 14  1  0
  9 15  2  0
  5 16  1  0
  8 17  1  0
 17 18  1  0
 16 18  1  0
 14 19  1  0
 19 20  1  0
M  END
>  <IDNUMBER>  (478) 
C226-2831

>  <available>  (478) 
51

>  <H_acceptor>  (478) 
5

>  <H_donor>  (478) 
1

>  <B_rotN>  (478) 
5

>  <N_O>  (478) 
5

>  <logP>  (478) 
3.1646

>  <logD>  (478) 
1.474

>  <logSw>  (478) 
-3.4207

>  <PSA>  (478) 
61.444

>  <pKa_ma>  (478) 
5.7183

>  <pKa_mb>  (478) 
-5.8698

>  <N_Chirals>  (478) 
0

>  <Name>  (478) 
N-(3-cyano-5,6-dihydro-4H-cyclopenta[b]thiophen-2-yl)-5-ethyl-1,2-oxazole-3-carboxamide

>  <Smile>  (478) 
CCc1cc(C(Nc(sc2c3CCC2)c3C#N)=O)no1

>  <Color>  (478) 
ORANGE

>  <Collection>  (478) 
DC

>  <InChI>  (478) 
InChI=1S/C14H13N3O2S/c1-2-8-6-11(17-19-8)13(18)16-14-10(7-15)9-4-3-5-12(9)20-14/h6H,2-5H2,1H3,(H,16,18)

>  <InChI Key>  (478) 
GRPIRXFMRXUVDE-UHFFFAOYSA-N

>  <PERCENTSP3>  (478) 
35.7

>  <Link>  (478) 
https://www.chemdiv.com/catalog/screening-compounds/compound-C226-2831/

>  <MFCDNUMBER>  (478) 
MFCD14733197

>  <CLNUMBER>  (478) 
CL2030

>  <STEREO>  (478) 
ACHIRAL

>  <State>  (478) 
Solid

>  <Similarity score>  (478) 
0.18

$$$$
2-{[3-fluoro-3-(3-phenyl-1,2,4-oxadiazol-5-yl)piperidin-1-yl]methyl}pyridine
     RDKit          2D

 25 28  0  0  0  0  0  0  0  0999 V2000
    0.1411   -1.3648    0.0000 N   0  0  0  0  0  0  0  0  0  0  0  0
   -0.8464   -1.5249    0.0000 C   0  0  0  0  0  0  0  0  0  0  0  0
    0.5862   -2.2644    0.0000 C   0  0  0  0  0  0  0  0  0  0  0  0
   -1.5576   -0.8196    0.0000 C   0  0  0  0  0  0  0  0  0  0  0  0
   -0.1128   -2.9635    0.0000 N   0  0  0  0  0  0  0  0  0  0  0  0
   -1.0030   -2.5121    0.0000 O   0  0  0  0  0  0  0  0  0  0  0  0
   -3.0622    0.0485    0.0000 N   0  0  0  0  0  0  0  0  0  0  0  0
   -2.0560    0.0485    0.0000 C   0  0  0  0  0  0  0  0  0  0  0  0
    1.5795   -2.4181    0.0000 C   0  0  0  0  0  0  0  0  0  0  0  0
   -2.0560    1.7755    0.0000 N   0  0  0  0  0  0  0  0  0  0  0  0
   -1.1722    0.1050    0.0000 F   0  0  0  0  0  0  0  0  0  0  0  0
   -3.5542    0.9136    0.0000 C   0  0  0  0  0  0  0  0  0  0  0  0
   -3.0622    1.7755    0.0000 C   0  0  0  0  0  0  0  0  0  0  0  0
   -2.0560   -1.6846    0.0000 C   0  0  0  0  0  0  0  0  0  0  0  0
   -3.5542   -0.8196    0.0000 C   0  0  0  0  0  0  0  0  0  0  0  0
   -3.0622   -1.6846    0.0000 C   0  0  0  0  0  0  0  0  0  0  0  0
   -1.5576    2.6438    0.0000 C   0  0  0  0  0  0  0  0  0  0  0  0
    1.9402   -3.3489    0.0000 C   0  0  0  0  0  0  0  0  0  0  0  0
    2.2095   -1.6377    0.0000 C   0  0  0  0  0  0  0  0  0  0  0  0
   -3.5542    2.6438    0.0000 C   0  0  0  0  0  0  0  0  0  0  0  0
   -2.0560    3.5087    0.0000 C   0  0  0  0  0  0  0  0  0  0  0  0
    3.2002   -1.7942    0.0000 C   0  0  0  0  0  0  0  0  0  0  0  0
    2.9274   -3.5087    0.0000 C   0  0  0  0  0  0  0  0  0  0  0  0
   -3.0622    3.5087    0.0000 C   0  0  0  0  0  0  0  0  0  0  0  0
    3.5542   -2.7284    0.0000 C   0  0  0  0  0  0  0  0  0  0  0  0
  1  2  2  0
  1  3  1  0
  2  4  1  0
  3  5  2  0
  5  6  1  0
  2  6  1  0
  7  8  1  0
  4  8  1  0
  3  9  1  0
 10 13  2  0
  4 11  1  0
  7 12  1  0
 12 13  1  0
  4 14  1  0
 15 16  1  0
  7 15  1  0
 14 16  1  0
 10 17  1  0
  9 18  2  0
  9 19  1  0
 13 20  1  0
 21 24  1  0
 17 21  2  0
 19 22  2  0
 18 23  1  0
 20 24  2  0
 22 25  1  0
 23 25  2  0
M  END
>  <IDNUMBER>  (479) 
SA92-0103

>  <available>  (479) 
1

>  <H_acceptor>  (479) 
5

>  <H_donor>  (479) 
0

>  <B_rotN>  (479) 
4

>  <N_O>  (479) 
5

>  <logP>  (479) 
3.1673

>  <logD>  (479) 
3.1532

>  <logSw>  (479) 
-3.0843

>  <PSA>  (479) 
44.853

>  <pKa_ma>  (479) 
26.9519

>  <pKa_mb>  (479) 
5.9159

>  <N_Chirals>  (479) 
1

>  <Name>  (479) 
2-{[3-fluoro-3-(3-phenyl-1,2,4-oxadiazol-5-yl)piperidin-1-yl]methyl}pyridine

>  <Smile>  (479) 
FC1(CN(Cc2ncccc2)CCC1)c1nc(-c2ccccc2)no1

>  <Color>  (479) 
BROWN

>  <Collection>  (479) 
IC

>  <InChI>  (479) 
InChI=1S/C19H19FN4O/c20-19(18-22-17(23-25-18)15-7-2-1-3-8-15)10-6-12-24(14-19)13-16-9-4-5-11-21-16/h1-5,7-9,11H,6,10,12-14H2/t19-/m0/s1

>  <InChI Key>  (479) 
SKMILJSMGAZEHX-IBGZPJMESA-N

>  <PERCENTSP3>  (479) 
31.5789

>  <Link>  (479) 
https://www.chemdiv.com/catalog/screening-compounds/compound-SA92-0103/

>  <MFCDNUMBER>  (479) 
MFCD32242455

>  <CLNUMBER>  (479) 
CM4899

>  <STEREO>  (479) 
RACEMIC MIXTURE

>  <State>  (479) 
Oil

>  <Similarity score>  (479) 
0.18

$$$$
{3-fluoro-3-[3-(pyridin-4-yl)-1,2,4-oxadiazol-5-yl]piperidin-1-yl}(1,3-thiazol-4
     RDKit          2D

 25 28  0  0  0  0  0  0  0  0999 V2000
   -1.4088   -0.5091    0.0000 N   0  0  0  0  0  0  0  0  0  0  0  0
   -0.4246   -0.6659    0.0000 C   0  0  0  0  0  0  0  0  0  0  0  0
    0.2898    0.0487    0.0000 C   0  0  0  0  0  0  0  0  0  0  0  0
   -1.8632   -1.3993    0.0000 C   0  0  0  0  0  0  0  0  0  0  0  0
    3.2921    1.7753    0.0000 C   0  0  0  0  0  0  0  0  0  0  0  0
    1.7848    0.9105    0.0000 N   0  0  0  0  0  0  0  0  0  0  0  0
   -1.1579   -2.1042    0.0000 N   0  0  0  0  0  0  0  0  0  0  0  0
    2.2862    1.7753    0.0000 C   0  0  0  0  0  0  0  0  0  0  0  0
   -0.2617   -1.6468    0.0000 O   0  0  0  0  0  0  0  0  0  0  0  0
    3.8717    2.5870    0.0000 N   0  0  0  0  0  0  0  0  0  0  0  0
    0.7819    0.9105    0.0000 C   0  0  0  0  0  0  0  0  0  0  0  0
    4.8245    1.2771    0.0000 S   0  0  0  0  0  0  0  0  0  0  0  0
    4.8245    2.2767    0.0000 C   0  0  0  0  0  0  0  0  0  0  0  0
    3.8717    0.9669    0.0000 C   0  0  0  0  0  0  0  0  0  0  0  0
    1.7848    2.6434    0.0000 O   0  0  0  0  0  0  0  0  0  0  0  0
   -2.8471   -1.5527    0.0000 C   0  0  0  0  0  0  0  0  0  0  0  0
   -0.0956    0.9669    0.0000 F   0  0  0  0  0  0  0  0  0  0  0  0
   -4.8245   -1.8630    0.0000 N   0  0  0  0  0  0  0  0  0  0  0  0
    0.7819   -0.8194    0.0000 C   0  0  0  0  0  0  0  0  0  0  0  0
    2.2862    0.0487    0.0000 C   0  0  0  0  0  0  0  0  0  0  0  0
    1.7848   -0.8194    0.0000 C   0  0  0  0  0  0  0  0  0  0  0  0
   -4.4735   -0.9322    0.0000 C   0  0  0  0  0  0  0  0  0  0  0  0
   -4.2009   -2.6434    0.0000 C   0  0  0  0  0  0  0  0  0  0  0  0
   -3.4863   -0.7820    0.0000 C   0  0  0  0  0  0  0  0  0  0  0  0
   -3.2044   -2.4899    0.0000 C   0  0  0  0  0  0  0  0  0  0  0  0
  1  2  2  0
  2  3  1  0
  1  4  1  0
  5  8  1  0
  6 11  1  0
  4  7  2  0
  7  9  1  0
  6  8  1  0
  2  9  1  0
  5 10  1  0
  3 11  1  0
 12 14  1  0
 10 13  2  0
 12 13  1  0
  5 14  2  0
  8 15  2  0
  4 16  1  0
  3 17  1  0
 18 23  2  0
 18 22  1  0
  3 19  1  0
 20 21  1  0
  6 20  1  0
 19 21  1  0
 22 24  2  0
 23 25  1  0
 16 24  1  0
 16 25  2  0
M  END
>  <IDNUMBER>  (480) 
SA92-0285

>  <available>  (480) 
101

>  <H_acceptor>  (480) 
7

>  <H_donor>  (480) 
0

>  <B_rotN>  (480) 
4

>  <N_O>  (480) 
7

>  <logP>  (480) 
1.9856

>  <logD>  (480) 
1.9855

>  <logSw>  (480) 
-2.1598

>  <PSA>  (480) 
67.282

>  <pKa_ma>  (480) 
27.1581

>  <pKa_mb>  (480) 
3.6841

>  <N_Chirals>  (480) 
1

>  <Name>  (480) 
{3-fluoro-3-[3-(pyridin-4-yl)-1,2,4-oxadiazol-5-yl]piperidin-1-yl}(1,3-thiazol-4-yl)methanone

>  <Smile>  (480) 
O=C(c1cscn1)N(CCC1)CC1(c1nc(-c2ccncc2)no1)F

>  <Color>  (480) 
ORANGE

>  <Collection>  (480) 
IC

>  <InChI>  (480) 
InChI=1S/C16H14FN5O2S/c17-16(15-20-13(21-24-15)11-2-5-18-6-3-11)4-1-7-22(9-16)14(23)12-8-25-10-19-12/h2-3,5-6,8,10H,1,4,7,9H2/t16-/m0/s1

>  <InChI Key>  (480) 
LCRDUISHRQFTPC-INIZCTEOSA-N

>  <PERCENTSP3>  (480) 
31.25

>  <Link>  (480) 
https://www.chemdiv.com/catalog/screening-compounds/compound-SA92-0285/

>  <MFCDNUMBER>  (480) 
MFCD32242586

>  <CLNUMBER>  (480) 
CM4899

>  <STEREO>  (480) 
RACEMIC MIXTURE

>  <State>  (480) 
Solid

>  <Similarity score>  (480) 
0.18

$$$$
{3-fluoro-3-[3-(pyridin-4-yl)-1,2,4-oxadiazol-5-yl]piperidin-1-yl}(oxan-4-yl)met
     RDKit          2D

 26 29  0  0  0  0  0  0  0  0999 V2000
   -0.6410    1.3790    0.0000 N   0  0  0  0  0  0  0  0  0  0  0  0
    0.3494    1.5295    0.0000 C   0  0  0  0  0  0  0  0  0  0  0  0
    1.0545    0.8244    0.0000 C   0  0  0  0  0  0  0  0  0  0  0  0
   -1.0984    2.2661    0.0000 C   0  0  0  0  0  0  0  0  0  0  0  0
    2.5558   -0.0407    0.0000 N   0  0  0  0  0  0  0  0  0  0  0  0
   -0.3932    2.9773    0.0000 N   0  0  0  0  0  0  0  0  0  0  0  0
    0.4999    2.5199    0.0000 O   0  0  0  0  0  0  0  0  0  0  0  0
    3.0572   -0.9120    0.0000 C   0  0  0  0  0  0  0  0  0  0  0  0
    1.5593   -0.0407    0.0000 C   0  0  0  0  0  0  0  0  0  0  0  0
    4.0540   -0.9120    0.0000 O   0  0  0  0  0  0  0  0  0  0  0  0
   -2.0764    2.4226    0.0000 C   0  0  0  0  0  0  0  0  0  0  0  0
    0.6692   -0.0972    0.0000 F   0  0  0  0  0  0  0  0  0  0  0  0
   -4.0540    2.7330    0.0000 N   0  0  0  0  0  0  0  0  0  0  0  0
    2.5558   -1.7707    0.0000 C   0  0  0  0  0  0  0  0  0  0  0  0
    1.5593   -3.5071    0.0000 O   0  0  0  0  0  0  0  0  0  0  0  0
    1.5593    1.6924    0.0000 C   0  0  0  0  0  0  0  0  0  0  0  0
    3.0572    0.8244    0.0000 C   0  0  0  0  0  0  0  0  0  0  0  0
    2.5558    1.6924    0.0000 C   0  0  0  0  0  0  0  0  0  0  0  0
   -3.4241    3.5071    0.0000 C   0  0  0  0  0  0  0  0  0  0  0  0
   -3.7031    1.7958    0.0000 C   0  0  0  0  0  0  0  0  0  0  0  0
    1.0545   -2.6357    0.0000 C   0  0  0  0  0  0  0  0  0  0  0  0
    2.5558   -3.5071    0.0000 C   0  0  0  0  0  0  0  0  0  0  0  0
   -2.4430    3.3536    0.0000 C   0  0  0  0  0  0  0  0  0  0  0  0
   -2.7093    1.6423    0.0000 C   0  0  0  0  0  0  0  0  0  0  0  0
    1.5593   -1.7707    0.0000 C   0  0  0  0  0  0  0  0  0  0  0  0
    3.0572   -2.6357    0.0000 C   0  0  0  0  0  0  0  0  0  0  0  0
  1  2  2  0
  2  3  1  0
  1  4  1  0
  5  9  1  0
  4  6  2  0
  6  7  1  0
  2  7  1  0
  5  8  1  0
  3  9  1  0
  8 10  2  0
  4 11  1  0
  3 12  1  0
 13 20  1  0
 13 19  2  0
  8 14  1  0
 15 22  1  0
  3 16  1  0
 17 18  1  0
  5 17  1  0
 16 18  1  0
 19 23  1  0
 20 24  2  0
 21 25  1  0
 15 21  1  0
 22 26  1  0
 11 23  2  0
 11 24  1  0
 14 25  1  0
 14 26  1  0
M  END
>  <IDNUMBER>  (481) 
SA92-0273

>  <available>  (481) 
47

>  <H_acceptor>  (481) 
7

>  <H_donor>  (481) 
0

>  <B_rotN>  (481) 
4

>  <N_O>  (481) 
7

>  <logP>  (481) 
1.9226

>  <logD>  (481) 
1.9225

>  <logSw>  (481) 
-1.9448

>  <PSA>  (481) 
65.755

>  <pKa_ma>  (481) 
23.3669

>  <pKa_mb>  (481) 
3.6841

>  <N_Chirals>  (481) 
1

>  <Name>  (481) 
{3-fluoro-3-[3-(pyridin-4-yl)-1,2,4-oxadiazol-5-yl]piperidin-1-yl}(oxan-4-yl)methanone

>  <Smile>  (481) 
O=C(C1CCOCC1)N(CCC1)CC1(c1nc(-c2ccncc2)no1)F

>  <Color>  (481) 
YELLOW

>  <Collection>  (481) 
IC

>  <InChI>  (481) 
InChI=1S/C18H21FN4O3/c19-18(17-21-15(22-26-17)13-2-7-20-8-3-13)6-1-9-23(12-18)16(24)14-4-10-25-11-5-14/h2-3,7-8,14H,1,4-6,9-12H2/t18-/m0/s1

>  <InChI Key>  (481) 
DWNNWQPYIKDWDC-SFHVURJKSA-N

>  <PERCENTSP3>  (481) 
55.56

>  <Link>  (481) 
https://www.chemdiv.com/catalog/screening-compounds/compound-SA92-0273/

>  <MFCDNUMBER>  (481) 
MFCD32242456

>  <CLNUMBER>  (481) 
CM4899

>  <STEREO>  (481) 
RACEMIC MIXTURE

>  <State>  (481) 
Solid

>  <Similarity score>  (481) 
0.18

$$$$
1-[3-fluoro-3-(3-phenyl-1,2,4-oxadiazol-5-yl)piperidin-1-yl]-3-(3-methoxyphenyl)
     RDKit          2D

 30 33  0  0  0  0  0  0  0  0999 V2000
    0.6375   -2.2386    0.0000 N   0  0  0  0  0  0  0  0  0  0  0  0
   -0.3492   -2.3984    0.0000 C   0  0  0  0  0  0  0  0  0  0  0  0
   -1.0575   -1.6904    0.0000 C   0  0  0  0  0  0  0  0  0  0  0  0
    1.0887   -3.1316    0.0000 C   0  0  0  0  0  0  0  0  0  0  0  0
    0.3839   -3.8333    0.0000 N   0  0  0  0  0  0  0  0  0  0  0  0
   -2.5613   -0.8255    0.0000 N   0  0  0  0  0  0  0  0  0  0  0  0
   -0.5091   -3.3759    0.0000 O   0  0  0  0  0  0  0  0  0  0  0  0
   -1.5557   -0.8255    0.0000 C   0  0  0  0  0  0  0  0  0  0  0  0
   -3.0595    0.0454    0.0000 C   0  0  0  0  0  0  0  0  0  0  0  0
    2.0757   -3.2819    0.0000 C   0  0  0  0  0  0  0  0  0  0  0  0
   -4.0558    0.0454    0.0000 O   0  0  0  0  0  0  0  0  0  0  0  0
   -2.5613    0.9102    0.0000 C   0  0  0  0  0  0  0  0  0  0  0  0
   -0.6720   -0.7629    0.0000 F   0  0  0  0  0  0  0  0  0  0  0  0
   -1.5557   -2.5583    0.0000 C   0  0  0  0  0  0  0  0  0  0  0  0
   -3.0595   -1.6904    0.0000 C   0  0  0  0  0  0  0  0  0  0  0  0
   -1.5557    2.6397    0.0000 C   0  0  0  0  0  0  0  0  0  0  0  0
   -3.0595    1.7748    0.0000 C   0  0  0  0  0  0  0  0  0  0  0  0
   -2.5613    2.6397    0.0000 C   0  0  0  0  0  0  0  0  0  0  0  0
   -1.0575    3.5076    0.0000 C   0  0  0  0  0  0  0  0  0  0  0  0
   -0.0579    3.5076    0.0000 O   0  0  0  0  0  0  0  0  0  0  0  0
   -2.5613   -2.5583    0.0000 C   0  0  0  0  0  0  0  0  0  0  0  0
   -2.5613    4.3722    0.0000 C   0  0  0  0  0  0  0  0  0  0  0  0
    2.7053   -2.5113    0.0000 C   0  0  0  0  0  0  0  0  0  0  0  0
    2.4329   -4.2186    0.0000 C   0  0  0  0  0  0  0  0  0  0  0  0
   -3.0595    3.5076    0.0000 C   0  0  0  0  0  0  0  0  0  0  0  0
   -1.5557    4.3722    0.0000 C   0  0  0  0  0  0  0  0  0  0  0  0
    0.4402    2.6397    0.0000 C   0  0  0  0  0  0  0  0  0  0  0  0
    3.6923   -2.6709    0.0000 C   0  0  0  0  0  0  0  0  0  0  0  0
    3.4259   -4.3722    0.0000 C   0  0  0  0  0  0  0  0  0  0  0  0
    4.0558   -3.5983    0.0000 C   0  0  0  0  0  0  0  0  0  0  0  0
  1  2  2  0
  2  3  1  0
  1  4  1  0
  4  5  2  0
  5  7  1  0
  6  8  1  0
  2  7  1  0
  3  8  1  0
  6  9  1  0
  4 10  1  0
  9 11  2  0
  9 12  1  0
  3 13  1  0
  3 14  1  0
 15 21  1  0
  6 15  1  0
 16 18  2  0
 12 17  1  0
 17 18  1  0
 16 19  1  0
 19 20  1  0
 14 21  1  0
 22 25  2  0
 10 23  1  0
 10 24  2  0
 18 25  1  0
 22 26  1  0
 19 26  2  0
 20 27  1  0
 23 28  2  0
 24 29  1  0
 29 30  2  0
 28 30  1  0
M  END
>  <IDNUMBER>  (482) 
SA92-0099

>  <available>  (482) 
187

>  <H_acceptor>  (482) 
6

>  <H_donor>  (482) 
0

>  <B_rotN>  (482) 
7

>  <N_O>  (482) 
6

>  <logP>  (482) 
4.4518

>  <logD>  (482) 
4.4518

>  <logSw>  (482) 
-4.469

>  <PSA>  (482) 
55.242

>  <pKa_ma>  (482) 
22.9745

>  <pKa_mb>  (482) 
-2.0325

>  <N_Chirals>  (482) 
1

>  <Name>  (482) 
1-[3-fluoro-3-(3-phenyl-1,2,4-oxadiazol-5-yl)piperidin-1-yl]-3-(3-methoxyphenyl)propan-1-one

>  <Smile>  (482) 
COc1cccc(CCC(N(CCC2)CC2(c2nc(-c3ccccc3)no2)F)=O)c1

>  <Color>  (482) 
YELLOW

>  <Collection>  (482) 
IC

>  <InChI>  (482) 
InChI=1S/C23H24FN3O3/c1-29-19-10-5-7-17(15-19)11-12-20(28)27-14-6-13-23(24,16-27)22-25-21(26-30-22)18-8-3-2-4-9-18/h2-5,7-10,15H,6,11-14,16H2,1H3/t23-/m0/s1

>  <InChI Key>  (482) 
SYQPGYGIFJXQTE-QHCPKHFHSA-N

>  <PERCENTSP3>  (482) 
34.78

>  <Link>  (482) 
https://www.chemdiv.com/catalog/screening-compounds/compound-SA92-0099/

>  <MFCDNUMBER>  (482) 
MFCD32242452

>  <CLNUMBER>  (482) 
CM4899

>  <STEREO>  (482) 
RACEMIC MIXTURE

>  <State>  (482) 
Oil

>  <Similarity score>  (482) 
0.18

$$$$
{3-fluoro-3-[3-(pyridin-4-yl)-1,2,4-oxadiazol-5-yl]piperidin-1-yl}(4-methyl-1,3-
     RDKit          2D

 26 29  0  0  0  0  0  0  0  0999 V2000
   -1.4092   -0.9545    0.0000 N   0  0  0  0  0  0  0  0  0  0  0  0
    3.2933    1.3370    0.0000 C   0  0  0  0  0  0  0  0  0  0  0  0
   -0.4247   -1.1081    0.0000 C   0  0  0  0  0  0  0  0  0  0  0  0
    2.2870    1.3370    0.0000 C   0  0  0  0  0  0  0  0  0  0  0  0
    0.2899   -0.3935    0.0000 C   0  0  0  0  0  0  0  0  0  0  0  0
   -1.8638   -1.8416    0.0000 C   0  0  0  0  0  0  0  0  0  0  0  0
    1.7884    0.4656    0.0000 N   0  0  0  0  0  0  0  0  0  0  0  0
   -1.1583   -2.5472    0.0000 N   0  0  0  0  0  0  0  0  0  0  0  0
   -0.2618   -2.0956    0.0000 O   0  0  0  0  0  0  0  0  0  0  0  0
    3.8730    2.1460    0.0000 C   0  0  0  0  0  0  0  0  0  0  0  0
    0.7821    0.4656    0.0000 C   0  0  0  0  0  0  0  0  0  0  0  0
    4.8262    1.8356    0.0000 N   0  0  0  0  0  0  0  0  0  0  0  0
    3.8730    0.5220    0.0000 O   0  0  0  0  0  0  0  0  0  0  0  0
    4.8262    0.8324    0.0000 C   0  0  0  0  0  0  0  0  0  0  0  0
    1.7884    2.2024    0.0000 O   0  0  0  0  0  0  0  0  0  0  0  0
   -2.8480   -1.9985    0.0000 C   0  0  0  0  0  0  0  0  0  0  0  0
   -0.0956    0.5220    0.0000 F   0  0  0  0  0  0  0  0  0  0  0  0
   -4.8262   -2.3089    0.0000 N   0  0  0  0  0  0  0  0  0  0  0  0
    0.7821   -1.2649    0.0000 C   0  0  0  0  0  0  0  0  0  0  0  0
    2.2870   -0.3935    0.0000 C   0  0  0  0  0  0  0  0  0  0  0  0
    3.5659    3.0895    0.0000 C   0  0  0  0  0  0  0  0  0  0  0  0
    1.7884   -1.2649    0.0000 C   0  0  0  0  0  0  0  0  0  0  0  0
   -4.2024   -3.0895    0.0000 C   0  0  0  0  0  0  0  0  0  0  0  0
   -4.4687   -1.3807    0.0000 C   0  0  0  0  0  0  0  0  0  0  0  0
   -3.2055   -2.9327    0.0000 C   0  0  0  0  0  0  0  0  0  0  0  0
   -3.4875   -1.2272    0.0000 C   0  0  0  0  0  0  0  0  0  0  0  0
  2  4  1  0
  1  3  2  0
  4  7  1  0
  3  5  1  0
  1  6  1  0
  7 11  1  0
  6  8  2  0
  8  9  1  0
  3  9  1  0
  2 10  2  0
  5 11  1  0
 10 12  1  0
  2 13  1  0
 13 14  1  0
 12 14  2  0
  4 15  2  0
  6 16  1  0
  5 17  1  0
 18 24  1  0
 18 23  2  0
  5 19  1  0
 20 22  1  0
  7 20  1  0
 10 21  1  0
 19 22  1  0
 23 25  1  0
 24 26  2  0
 16 25  2  0
 16 26  1  0
M  END
>  <IDNUMBER>  (483) 
SA92-0278

>  <available>  (483) 
17

>  <H_acceptor>  (483) 
8

>  <H_donor>  (483) 
0

>  <B_rotN>  (483) 
4

>  <N_O>  (483) 
8

>  <logP>  (483) 
1.4532

>  <logD>  (483) 
1.4531

>  <logSw>  (483) 
-1.5168

>  <PSA>  (483) 
76.568

>  <pKa_ma>  (483) 
27.1581

>  <pKa_mb>  (483) 
3.6841

>  <N_Chirals>  (483) 
1

>  <Name>  (483) 
{3-fluoro-3-[3-(pyridin-4-yl)-1,2,4-oxadiazol-5-yl]piperidin-1-yl}(4-methyl-1,3-oxazol-5-yl)methanone

>  <Smile>  (483) 
Cc1c(C(N(CCC2)CC2(c2nc(-c3ccncc3)no2)F)=O)ocn1

>  <Color>  (483) 
YELLOW

>  <Collection>  (483) 
IC

>  <InChI>  (483) 
InChI=1S/C17H16FN5O3/c1-11-13(25-10-20-11)15(24)23-8-2-5-17(18,9-23)16-21-14(22-26-16)12-3-6-19-7-4-12/h3-4,6-7,10H,2,5,8-9H2,1H3/t17-/m0/s1

>  <InChI Key>  (483) 
OXUPVKKBOGJGHQ-KRWDZBQOSA-N

>  <PERCENTSP3>  (483) 
35.29

>  <Link>  (483) 
https://www.chemdiv.com/catalog/screening-compounds/compound-SA92-0278/

>  <MFCDNUMBER>  (483) 
MFCD32242461

>  <CLNUMBER>  (483) 
CM4899

>  <STEREO>  (483) 
RACEMIC MIXTURE

>  <State>  (483) 
Solid

>  <Similarity score>  (483) 
0.18

$$$$
2-(3,5-dimethyl-1,2-oxazol-4-yl)-1-{3-fluoro-3-[3-(pyridin-4-yl)-1,2,4-oxadiazol
     RDKit          2D

 28 31  0  0  0  0  0  0  0  0999 V2000
   -1.7176    1.2961    0.0000 N   0  0  0  0  0  0  0  0  0  0  0  0
   -0.7303    1.4593    0.0000 C   0  0  0  0  0  0  0  0  0  0  0  0
    3.4763   -1.8509    0.0000 C   0  0  0  0  0  0  0  0  0  0  0  0
   -0.0315    0.7508    0.0000 C   0  0  0  0  0  0  0  0  0  0  0  0
   -2.1786    2.1896    0.0000 C   0  0  0  0  0  0  0  0  0  0  0  0
   -1.4702    2.9041    0.0000 N   0  0  0  0  0  0  0  0  0  0  0  0
    4.6799   -2.9324    0.0000 N   0  0  0  0  0  0  0  0  0  0  0  0
    1.4731   -0.1144    0.0000 N   0  0  0  0  0  0  0  0  0  0  0  0
    1.9717   -0.9889    0.0000 C   0  0  0  0  0  0  0  0  0  0  0  0
   -0.5767    2.4466    0.0000 O   0  0  0  0  0  0  0  0  0  0  0  0
    2.9745   -0.9889    0.0000 C   0  0  0  0  0  0  0  0  0  0  0  0
    3.8146   -3.4339    0.0000 O   0  0  0  0  0  0  0  0  0  0  0  0
    3.0779   -2.7663    0.0000 C   0  0  0  0  0  0  0  0  0  0  0  0
    4.4729   -1.9544    0.0000 C   0  0  0  0  0  0  0  0  0  0  0  0
    0.4733   -0.1144    0.0000 C   0  0  0  0  0  0  0  0  0  0  0  0
   -3.1660    2.3492    0.0000 C   0  0  0  0  0  0  0  0  0  0  0  0
    1.4731   -1.8509    0.0000 O   0  0  0  0  0  0  0  0  0  0  0  0
   -0.4106   -0.1709    0.0000 F   0  0  0  0  0  0  0  0  0  0  0  0
   -5.1406    2.6628    0.0000 N   0  0  0  0  0  0  0  0  0  0  0  0
    0.4733    1.6157    0.0000 C   0  0  0  0  0  0  0  0  0  0  0  0
    1.9717    0.7508    0.0000 C   0  0  0  0  0  0  0  0  0  0  0  0
    2.0906   -2.9729    0.0000 C   0  0  0  0  0  0  0  0  0  0  0  0
    1.4731    1.6157    0.0000 C   0  0  0  0  0  0  0  0  0  0  0  0
    5.1406   -1.2145    0.0000 C   0  0  0  0  0  0  0  0  0  0  0  0
   -4.5166    3.4339    0.0000 C   0  0  0  0  0  0  0  0  0  0  0  0
   -4.7833    1.7288    0.0000 C   0  0  0  0  0  0  0  0  0  0  0  0
   -3.5293    3.2803    0.0000 C   0  0  0  0  0  0  0  0  0  0  0  0
   -3.7960    1.5721    0.0000 C   0  0  0  0  0  0  0  0  0  0  0  0
  1  2  2  0
  3 11  1  0
  2  4  1  0
  1  5  1  0
  5  6  2  0
  6 10  1  0
  7 14  2  0
  8 15  1  0
  8  9  1  0
  2 10  1  0
  9 11  1  0
 12 13  1  0
  7 12  1  0
  3 13  2  0
  3 14  1  0
  4 15  1  0
  5 16  1  0
  9 17  2  0
  4 18  1  0
 19 26  1  0
 19 25  2  0
  4 20  1  0
 21 23  1  0
  8 21  1  0
 13 22  1  0
 20 23  1  0
 14 24  1  0
 25 27  1  0
 26 28  2  0
 16 27  2  0
 16 28  1  0
M  END
>  <IDNUMBER>  (484) 
SA92-0302

>  <available>  (484) 
66

>  <H_acceptor>  (484) 
8

>  <H_donor>  (484) 
0

>  <B_rotN>  (484) 
5

>  <N_O>  (484) 
8

>  <logP>  (484) 
2.1085

>  <logD>  (484) 
2.1084

>  <logSw>  (484) 
-2.1248

>  <PSA>  (484) 
79.165

>  <pKa_ma>  (484) 
13.9111

>  <pKa_mb>  (484) 
3.6841

>  <N_Chirals>  (484) 
1

>  <Name>  (484) 
2-(3,5-dimethyl-1,2-oxazol-4-yl)-1-{3-fluoro-3-[3-(pyridin-4-yl)-1,2,4-oxadiazol-5-yl]piperidin-1-yl}ethan-1-one

>  <Smile>  (484) 
Cc1noc(C)c1CC(N(CCC1)CC1(c1nc(-c2ccncc2)no1)F)=O

>  <Color>  (484) 
YELLOW

>  <Collection>  (484) 
IC

>  <InChI>  (484) 
InChI=1S/C19H20FN5O3/c1-12-15(13(2)27-23-12)10-16(26)25-9-3-6-19(20,11-25)18-22-17(24-28-18)14-4-7-21-8-5-14/h4-5,7-8H,3,6,9-11H2,1-2H3/t19-/m0/s1

>  <InChI Key>  (484) 
JZSPCVVKYCTLQG-IBGZPJMESA-N

>  <PERCENTSP3>  (484) 
42.1

>  <Link>  (484) 
https://www.chemdiv.com/catalog/screening-compounds/compound-SA92-0302/

>  <MFCDNUMBER>  (484) 
MFCD32242712

>  <CLNUMBER>  (484) 
CM4899

>  <STEREO>  (484) 
RACEMIC MIXTURE

>  <State>  (484) 
Solid

>  <Similarity score>  (484) 
0.18

$$$$
3-fluoro-1-[(5-methylthiophen-2-yl)methyl]-3-(3-phenyl-1,2,4-oxadiazol-5-yl)pipe
     RDKit          2D

 25 28  0  0  0  0  0  0  0  0999 V2000
    0.1410   -1.2896    0.0000 N   0  0  0  0  0  0  0  0  0  0  0  0
   -0.8463   -1.4493    0.0000 C   0  0  0  0  0  0  0  0  0  0  0  0
    0.5862   -2.1889    0.0000 C   0  0  0  0  0  0  0  0  0  0  0  0
   -1.5575   -0.7443    0.0000 C   0  0  0  0  0  0  0  0  0  0  0  0
   -0.1128   -2.8943    0.0000 N   0  0  0  0  0  0  0  0  0  0  0  0
   -1.0030   -2.4366    0.0000 O   0  0  0  0  0  0  0  0  0  0  0  0
   -2.0652    1.9572    0.0000 S   0  0  0  0  0  0  0  0  0  0  0  0
   -3.0620    0.1206    0.0000 N   0  0  0  0  0  0  0  0  0  0  0  0
   -3.0620    1.8508    0.0000 C   0  0  0  0  0  0  0  0  0  0  0  0
   -2.0559    0.1206    0.0000 C   0  0  0  0  0  0  0  0  0  0  0  0
   -1.8584    2.9414    0.0000 C   0  0  0  0  0  0  0  0  0  0  0  0
   -3.4661    2.7658    0.0000 C   0  0  0  0  0  0  0  0  0  0  0  0
   -2.7171    3.4332    0.0000 C   0  0  0  0  0  0  0  0  0  0  0  0
   -3.5538    0.9889    0.0000 C   0  0  0  0  0  0  0  0  0  0  0  0
    1.5796   -2.3428    0.0000 C   0  0  0  0  0  0  0  0  0  0  0  0
   -1.1721    0.1770    0.0000 F   0  0  0  0  0  0  0  0  0  0  0  0
   -2.0559   -1.6092    0.0000 C   0  0  0  0  0  0  0  0  0  0  0  0
   -3.5538   -0.7443    0.0000 C   0  0  0  0  0  0  0  0  0  0  0  0
   -3.0620   -1.6092    0.0000 C   0  0  0  0  0  0  0  0  0  0  0  0
   -0.9402    3.3455    0.0000 C   0  0  0  0  0  0  0  0  0  0  0  0
    2.2094   -1.5621    0.0000 C   0  0  0  0  0  0  0  0  0  0  0  0
    1.9401   -3.2733    0.0000 C   0  0  0  0  0  0  0  0  0  0  0  0
    2.9270   -3.4332    0.0000 C   0  0  0  0  0  0  0  0  0  0  0  0
    3.1998   -1.7191    0.0000 C   0  0  0  0  0  0  0  0  0  0  0  0
    3.5538   -2.6593    0.0000 C   0  0  0  0  0  0  0  0  0  0  0  0
  1  2  2  0
  1  3  1  0
  2  4  1  0
  3  5  2  0
  5  6  1  0
  2  6  1  0
  7  9  1  0
  8 10  1  0
  9 14  1  0
  4 10  1  0
  7 11  1  0
  9 12  2  0
 12 13  1  0
 11 13  2  0
  8 14  1  0
  3 15  1  0
  4 16  1  0
  4 17  1  0
 18 19  1  0
  8 18  1  0
 17 19  1  0
 11 20  1  0
 15 21  1  0
 15 22  2  0
 22 23  1  0
 21 24  2  0
 23 25  2  0
 24 25  1  0
M  END
>  <IDNUMBER>  (485) 
SA92-0030

>  <available>  (485) 
3

>  <H_acceptor>  (485) 
4

>  <H_donor>  (485) 
0

>  <B_rotN>  (485) 
4

>  <N_O>  (485) 
4

>  <logP>  (485) 
4.6903

>  <logD>  (485) 
4.3536

>  <logSw>  (485) 
-4.2989

>  <PSA>  (485) 
36.329

>  <pKa_ma>  (485) 
26.9519

>  <pKa_mb>  (485) 
7.4686

>  <N_Chirals>  (485) 
1

>  <Name>  (485) 
3-fluoro-1-[(5-methylthiophen-2-yl)methyl]-3-(3-phenyl-1,2,4-oxadiazol-5-yl)piperidine

>  <Smile>  (485) 
Cc1ccc(CN(CCC2)CC2(c2nc(-c3ccccc3)no2)F)s1

>  <Color>  (485) 
ORANGE

>  <Collection>  (485) 
IC

>  <InChI>  (485) 
InChI=1S/C19H20FN3OS/c1-14-8-9-16(25-14)12-23-11-5-10-19(20,13-23)18-21-17(22-24-18)15-6-3-2-4-7-15/h2-4,6-9H,5,10-13H2,1H3/t19-/m0/s1

>  <InChI Key>  (485) 
PDWYOOOAJSXAKN-IBGZPJMESA-N

>  <PERCENTSP3>  (485) 
36.84

>  <Link>  (485) 
https://www.chemdiv.com/catalog/screening-compounds/compound-SA92-0030/

>  <MFCDNUMBER>  (485) 
MFCD32241567

>  <CLNUMBER>  (485) 
CM4899

>  <STEREO>  (485) 
RACEMIC MIXTURE

>  <State>  (485) 
Liquid

>  <Similarity score>  (485) 
0.18

$$$$
2-(4-chloro-2-methylphenoxy)-N-(3-cyano-5,6-dihydro-4H-cyclopenta[b]thiophen-2-y
     RDKit          2D

 24 26  0  0  0  0  0  0  0  0999 V2000
   -2.0067   -0.2647    0.0000 C   0  0  0  0  0  0  0  0  0  0  0  0
   -2.6359   -1.0524    0.0000 C   0  0  0  0  0  0  0  0  0  0  0  0
   -2.5153    0.5523    0.0000 S   0  0  0  0  0  0  0  0  0  0  0  0
   -3.5988   -0.6731    0.0000 C   0  0  0  0  0  0  0  0  0  0  0  0
   -1.0105   -0.3522    0.0000 N   0  0  0  0  0  0  0  0  0  0  0  0
   -3.4988    0.3188    0.0000 C   0  0  0  0  0  0  0  0  0  0  0  0
   -0.4480    0.4647    0.0000 C   0  0  0  0  0  0  0  0  0  0  0  0
   -2.3693   -2.0024    0.0000 C   0  0  0  0  0  0  0  0  0  0  0  0
   -2.1066   -2.9528    0.0000 N   0  0  0  0  0  0  0  0  0  0  0  0
    1.0773    1.2482    0.0000 O   0  0  0  0  0  0  0  0  0  0  0  0
    2.0816    1.2149    0.0000 C   0  0  0  0  0  0  0  0  0  0  0  0
    0.5481    0.3980    0.0000 C   0  0  0  0  0  0  0  0  0  0  0  0
    2.6152    2.0775    0.0000 C   0  0  0  0  0  0  0  0  0  0  0  0
   -0.8440    1.3358    0.0000 O   0  0  0  0  0  0  0  0  0  0  0  0
    3.6321    2.0653    0.0000 C   0  0  0  0  0  0  0  0  0  0  0  0
    2.5608    0.3522    0.0000 C   0  0  0  0  0  0  0  0  0  0  0  0
    4.0947    1.1815    0.0000 C   0  0  0  0  0  0  0  0  0  0  0  0
   -4.5491   -0.9065    0.0000 C   0  0  0  0  0  0  0  0  0  0  0  0
   -4.4280    0.7189    0.0000 C   0  0  0  0  0  0  0  0  0  0  0  0
    3.5653    0.3105    0.0000 C   0  0  0  0  0  0  0  0  0  0  0  0
    5.0907    1.1733    0.0000 Cl  0  0  0  0  0  0  0  0  0  0  0  0
   -5.0907   -0.0229    0.0000 C   0  0  0  0  0  0  0  0  0  0  0  0
    2.1276    2.9528    0.0000 C   0  0  0  0  0  0  0  0  0  0  0  0
    0.9774   -0.5064    0.0000 C   0  0  0  0  0  0  0  0  0  0  0  0
  1  2  2  0
  1  3  1  0
  2  4  1  0
  4  6  2  0
  1  5  1  0
  3  6  1  0
  5  7  1  0
  2  8  1  0
  8  9  3  0
 10 12  1  0
 10 11  1  0
  7 12  1  0
 11 13  2  0
  7 14  2  0
 13 15  1  0
 11 16  1  0
 17 20  1  0
 15 17  2  0
  4 18  1  0
  6 19  1  0
 16 20  2  0
 17 21  1  0
 19 22  1  0
 18 22  1  0
 13 23  1  0
 12 24  1  0
M  END
>  <IDNUMBER>  (486) 
Y205-6122

>  <available>  (486) 
17

>  <H_acceptor>  (486) 
4

>  <H_donor>  (486) 
1

>  <B_rotN>  (486) 
6

>  <N_O>  (486) 
4

>  <logP>  (486) 
5.1134

>  <logD>  (486) 
3.6755

>  <logSw>  (486) 
-5.5602

>  <PSA>  (486) 
47.342

>  <pKa_ma>  (486) 
5.9783

>  <pKa_mb>  (486) 
-6.1288

>  <N_Chirals>  (486) 
1

>  <Name>  (486) 
2-(4-chloro-2-methylphenoxy)-N-(3-cyano-5,6-dihydro-4H-cyclopenta[b]thiophen-2-yl)propanamide

>  <Smile>  (486) 
CC(C(Nc(sc1c2CCC1)c2C#N)=O)Oc(cc1)c(C)cc1Cl

>  <Color>  (486) 
BROWN

>  <Collection>  (486) 
DC

>  <InChI>  (486) 
InChI=1S/C18H17ClN2O2S/c1-10-8-12(19)6-7-15(10)23-11(2)17(22)21-18-14(9-20)13-4-3-5-16(13)24-18/h6-8,11H,3-5H2,1-2H3,(H,21,22)/t11-/m0/s1

>  <InChI Key>  (486) 
PZOFNWUCEWCCMZ-NSHDSACASA-N

>  <PERCENTSP3>  (486) 
33.33

>  <Link>  (486) 
https://www.chemdiv.com/catalog/screening-compounds/compound-Y205-6122/

>  <MFCDNUMBER>  (486) 
MFCD07182410

>  <STEREO>  (486) 
RACEMIC MIXTURE

>  <State>  (486) 
Solid

>  <Similarity score>  (486) 
0.18

$$$$
3-amino-N-(3-cyano-4,5,6,7-tetrahydro-1-benzothiophen-2-yl)-6-methylthieno[2,3-b
     RDKit          2D

 25 28  0  0  0  0  0  0  0  0999 V2000
    0.8149   -1.2940    0.0000 C   0  0  0  0  0  0  0  0  0  0  0  0
   -1.6858   -0.4315    0.0000 C   0  0  0  0  0  0  0  0  0  0  0  0
   -2.2693    0.3856    0.0000 C   0  0  0  0  0  0  0  0  0  0  0  0
    1.4066   -2.1026    0.0000 S   0  0  0  0  0  0  0  0  0  0  0  0
    2.3569   -1.7900    0.0000 C   0  0  0  0  0  0  0  0  0  0  0  0
    1.4066   -0.4815    0.0000 C   0  0  0  0  0  0  0  0  0  0  0  0
    2.3569   -0.7940    0.0000 C   0  0  0  0  0  0  0  0  0  0  0  0
   -0.1813   -1.2940    0.0000 C   0  0  0  0  0  0  0  0  0  0  0  0
   -2.2693   -1.2399    0.0000 S   0  0  0  0  0  0  0  0  0  0  0  0
   -3.2281    0.0688    0.0000 C   0  0  0  0  0  0  0  0  0  0  0  0
   -0.6813   -0.4315    0.0000 N   0  0  0  0  0  0  0  0  0  0  0  0
   -3.2281   -0.9315    0.0000 C   0  0  0  0  0  0  0  0  0  0  0  0
    3.2196   -2.2902    0.0000 N   0  0  0  0  0  0  0  0  0  0  0  0
   -1.9568    1.3356    0.0000 C   0  0  0  0  0  0  0  0  0  0  0  0
   -1.6484    2.2902    0.0000 N   0  0  0  0  0  0  0  0  0  0  0  0
    3.2154   -0.2939    0.0000 C   0  0  0  0  0  0  0  0  0  0  0  0
   -0.6813   -2.1651    0.0000 O   0  0  0  0  0  0  0  0  0  0  0  0
    1.0982    0.4689    0.0000 N   0  0  0  0  0  0  0  0  0  0  0  0
    4.0864   -1.7900    0.0000 C   0  0  0  0  0  0  0  0  0  0  0  0
    4.0823   -0.7899    0.0000 C   0  0  0  0  0  0  0  0  0  0  0  0
   -4.0905    0.5772    0.0000 C   0  0  0  0  0  0  0  0  0  0  0  0
   -4.0905   -1.4274    0.0000 C   0  0  0  0  0  0  0  0  0  0  0  0
    4.9491   -2.2902    0.0000 C   0  0  0  0  0  0  0  0  0  0  0  0
   -4.9491    0.0688    0.0000 C   0  0  0  0  0  0  0  0  0  0  0  0
   -4.9491   -0.9315    0.0000 C   0  0  0  0  0  0  0  0  0  0  0  0
  2 11  1  0
  2  3  2  0
  1  4  1  0
  4  5  1  0
  1  6  2  0
  6  7  1  0
  5  7  2  0
  1  8  1  0
  2  9  1  0
  3 10  1  0
 10 12  2  0
  8 11  1  0
  9 12  1  0
  5 13  1  0
  3 14  1  0
 14 15  3  0
  7 16  1  0
  8 17  2  0
  6 18  1  0
 13 19  2  0
 19 20  1  0
 16 20  2  0
 10 21  1  0
 12 22  1  0
 19 23  1  0
 21 24  1  0
 24 25  1  0
 22 25  1  0
M  END
>  <IDNUMBER>  (487) 
8018-8815

>  <available>  (487) 
7

>  <H_acceptor>  (487) 
4

>  <H_donor>  (487) 
3

>  <B_rotN>  (487) 
4

>  <N_O>  (487) 
5

>  <logP>  (487) 
4.0861

>  <logD>  (487) 
2.5869

>  <logSw>  (487) 
-4.5521

>  <PSA>  (487) 
69.014

>  <pKa_ma>  (487) 
5.9148

>  <pKa_mb>  (487) 
4.3992

>  <N_Chirals>  (487) 
0

>  <Name>  (487) 
3-amino-N-(3-cyano-4,5,6,7-tetrahydro-1-benzothiophen-2-yl)-6-methylthieno[2,3-b]pyridine-2-carboxamide

>  <Smile>  (487) 
Cc1ccc(c(N)c(C(Nc(sc2c3CCCC2)c3C#N)=O)s2)c2n1

>  <Color>  (487) 
YELLOW

>  <Collection>  (487) 
DC

>  <InChI>  (487) 
InChI=1S/C18H16N4OS2/c1-9-6-7-11-14(20)15(25-17(11)21-9)16(23)22-18-12(8-19)10-4-2-3-5-13(10)24-18/h6-7H,2-5,20H2,1H3,(H,22,23)

>  <InChI Key>  (487) 
DKPBECBPZQVPMC-UHFFFAOYSA-N

>  <PERCENTSP3>  (487) 
27.8

>  <Link>  (487) 
https://www.chemdiv.com/catalog/screening-compounds/compound-8018-8815/

>  <MFCDNUMBER>  (487) 
MFCD09062872

>  <STEREO>  (487) 
ACHIRAL

>  <State>  (487) 
Solid

>  <Similarity score>  (487) 
0.18

$$$$
2-{[3-cyano-6-(4-methoxyphenyl)pyridin-2-yl]sulfanyl}-N-(3-cyano-4,5,6,7-tetrahy
     RDKit          2D

 32 35  0  0  0  0  0  0  0  0999 V2000
    1.4671    2.7971    0.0000 C   0  0  0  0  0  0  0  0  0  0  0  0
    1.0587    3.7100    0.0000 C   0  0  0  0  0  0  0  0  0  0  0  0
    2.4594    2.8971    0.0000 S   0  0  0  0  0  0  0  0  0  0  0  0
    1.8050    4.3686    0.0000 C   0  0  0  0  0  0  0  0  0  0  0  0
    2.6720    3.8767    0.0000 C   0  0  0  0  0  0  0  0  0  0  0  0
   -1.5341   -0.6753    0.0000 N   0  0  0  0  0  0  0  0  0  0  0  0
   -2.0343    0.1959    0.0000 C   0  0  0  0  0  0  0  0  0  0  0  0
    0.9670    1.9259    0.0000 N   0  0  0  0  0  0  0  0  0  0  0  0
   -3.0348    0.1959    0.0000 C   0  0  0  0  0  0  0  0  0  0  0  0
    0.0835    3.9185    0.0000 C   0  0  0  0  0  0  0  0  0  0  0  0
   -2.0343   -1.5381    0.0000 C   0  0  0  0  0  0  0  0  0  0  0  0
   -0.5921    3.1722    0.0000 N   0  0  0  0  0  0  0  0  0  0  0  0
   -3.5348    1.0589    0.0000 C   0  0  0  0  0  0  0  0  0  0  0  0
   -3.0348    1.9259    0.0000 N   0  0  0  0  0  0  0  0  0  0  0  0
   -0.0336    1.9259    0.0000 C   0  0  0  0  0  0  0  0  0  0  0  0
   -1.5341    1.0589    0.0000 S   0  0  0  0  0  0  0  0  0  0  0  0
   -1.5341   -2.4053    0.0000 C   0  0  0  0  0  0  0  0  0  0  0  0
   -3.5348   -0.6753    0.0000 C   0  0  0  0  0  0  0  0  0  0  0  0
   -3.0348   -1.5381    0.0000 C   0  0  0  0  0  0  0  0  0  0  0  0
   -0.5336    2.7971    0.0000 O   0  0  0  0  0  0  0  0  0  0  0  0
   -0.5336    1.0589    0.0000 C   0  0  0  0  0  0  0  0  0  0  0  0
   -2.0343   -3.2681    0.0000 C   0  0  0  0  0  0  0  0  0  0  0  0
   -0.5336   -2.4053    0.0000 C   0  0  0  0  0  0  0  0  0  0  0  0
   -0.5336   -4.1351    0.0000 C   0  0  0  0  0  0  0  0  0  0  0  0
    1.8050    5.3691    0.0000 C   0  0  0  0  0  0  0  0  0  0  0  0
   -1.5341   -4.1351    0.0000 C   0  0  0  0  0  0  0  0  0  0  0  0
   -0.0336   -3.2681    0.0000 C   0  0  0  0  0  0  0  0  0  0  0  0
    3.5348    4.3686    0.0000 C   0  0  0  0  0  0  0  0  0  0  0  0
   -0.0336   -5.0063    0.0000 O   0  0  0  0  0  0  0  0  0  0  0  0
   -0.5336   -5.8693    0.0000 C   0  0  0  0  0  0  0  0  0  0  0  0
    2.6720    5.8693    0.0000 C   0  0  0  0  0  0  0  0  0  0  0  0
    3.5348    5.3691    0.0000 C   0  0  0  0  0  0  0  0  0  0  0  0
  1  2  2  0
  1  3  1  0
  2  4  1  0
  4  5  2  0
  3  5  1  0
  6  7  2  0
  7 16  1  0
  1  8  1  0
  7  9  1  0
  2 10  1  0
  6 11  1  0
 11 19  2  0
 10 12  3  0
  9 13  1  0
 13 14  3  0
  8 15  1  0
 16 21  1  0
 11 17  1  0
  9 18  2  0
 18 19  1  0
 15 20  2  0
 15 21  1  0
 17 22  1  0
 17 23  2  0
 24 27  2  0
  4 25  1  0
 22 26  2  0
 24 26  1  0
 23 27  1  0
  5 28  1  0
 24 29  1  0
 29 30  1  0
 25 31  1  0
 31 32  1  0
 28 32  1  0
M  END
>  <IDNUMBER>  (488) 
D360-0584

>  <available>  (488) 
176

>  <H_acceptor>  (488) 
7

>  <H_donor>  (488) 
1

>  <B_rotN>  (488) 
9

>  <N_O>  (488) 
6

>  <logP>  (488) 
5.3211

>  <logD>  (488) 
4.216

>  <logSw>  (488) 
-5.2685

>  <PSA>  (488) 
72.963

>  <pKa_ma>  (488) 
6.3303

>  <pKa_mb>  (488) 
-1.2655

>  <N_Chirals>  (488) 
0

>  <Name>  (488) 
2-{[3-cyano-6-(4-methoxyphenyl)pyridin-2-yl]sulfanyl}-N-(3-cyano-4,5,6,7-tetrahydro-1-benzothiophen-2-yl)acetamide

>  <Smile>  (488) 
COc(cc1)ccc1-c(nc1SCC(Nc(sc2c3CCCC2)c3C#N)=O)ccc1C#N

>  <Color>  (488) 
NOT COLORED

>  <Collection>  (488) 
DC

>  <InChI>  (488) 
InChI=1S/C24H20N4O2S2/c1-30-17-9-6-15(7-10-17)20-11-8-16(12-25)23(27-20)31-14-22(29)28-24-19(13-26)18-4-2-3-5-21(18)32-24/h6-11H,2-5,14H2,1H3,(H,28,29)

>  <InChI Key>  (488) 
NKUPNBRYAQWAMM-UHFFFAOYSA-N

>  <PERCENTSP3>  (488) 
25

>  <Link>  (488) 
https://www.chemdiv.com/catalog/screening-compounds/compound-D360-0584/

>  <MFCDNUMBER>  (488) 
MFCD03234601

>  <CLNUMBER>  (488) 
CL1961

>  <STEREO>  (488) 
ACHIRAL

>  <State>  (488) 
Solid

>  <Similarity score>  (488) 
0.18

$$$$
N-(3-cyano-4,5,6,7-tetrahydro-1-benzothiophen-2-yl)-2-{[5-(pyridin-4-yl)-4H-1,2,
     RDKit          2D

 27 30  0  0  0  0  0  0  0  0999 V2000
    1.2668    0.9855    0.0000 C   0  0  0  0  0  0  0  0  0  0  0  0
    1.3585    1.9856    0.0000 C   0  0  0  0  0  0  0  0  0  0  0  0
    0.5667   -2.0147    0.0000 N   0  0  0  0  0  0  0  0  0  0  0  0
    0.2792    0.7813    0.0000 S   0  0  0  0  0  0  0  0  0  0  0  0
    0.4584    2.3939    0.0000 C   0  0  0  0  0  0  0  0  0  0  0  0
   -0.2458   -2.6022    0.0000 C   0  0  0  0  0  0  0  0  0  0  0  0
    0.0667   -3.5564    0.0000 N   0  0  0  0  0  0  0  0  0  0  0  0
   -0.2208    1.6440    0.0000 C   0  0  0  0  0  0  0  0  0  0  0  0
    1.3792   -2.6022    0.0000 C   0  0  0  0  0  0  0  0  0  0  0  0
    1.0667   -3.5564    0.0000 N   0  0  0  0  0  0  0  0  0  0  0  0
    2.0043    0.3230    0.0000 N   0  0  0  0  0  0  0  0  0  0  0  0
    2.2293    2.4813    0.0000 C   0  0  0  0  0  0  0  0  0  0  0  0
    3.0919    1.9856    0.0000 N   0  0  0  0  0  0  0  0  0  0  0  0
    1.7918   -0.6563    0.0000 C   0  0  0  0  0  0  0  0  0  0  0  0
    2.3167   -2.2938    0.0000 S   0  0  0  0  0  0  0  0  0  0  0  0
   -1.1917   -2.2938    0.0000 C   0  0  0  0  0  0  0  0  0  0  0  0
   -3.0919   -1.6771    0.0000 N   0  0  0  0  0  0  0  0  0  0  0  0
    0.8334   -0.9646    0.0000 O   0  0  0  0  0  0  0  0  0  0  0  0
    2.5335   -1.3188    0.0000 C   0  0  0  0  0  0  0  0  0  0  0  0
    0.1458    3.3439    0.0000 C   0  0  0  0  0  0  0  0  0  0  0  0
   -1.2042    1.8566    0.0000 C   0  0  0  0  0  0  0  0  0  0  0  0
   -2.3460   -1.0146    0.0000 C   0  0  0  0  0  0  0  0  0  0  0  0
   -2.8794   -2.6564    0.0000 C   0  0  0  0  0  0  0  0  0  0  0  0
   -1.3959   -1.3188    0.0000 C   0  0  0  0  0  0  0  0  0  0  0  0
   -1.9294   -2.9564    0.0000 C   0  0  0  0  0  0  0  0  0  0  0  0
   -0.8334    3.5564    0.0000 C   0  0  0  0  0  0  0  0  0  0  0  0
   -1.5167    2.8066    0.0000 C   0  0  0  0  0  0  0  0  0  0  0  0
  1  2  2  0
  3  9  1  0
  1  4  1  0
  2  5  1  0
  3  6  1  0
  6  7  2  0
  7 10  1  0
  4  8  1  0
  5  8  2  0
  9 15  1  0
  9 10  2  0
  1 11  1  0
  2 12  1  0
 12 13  3  0
 11 14  1  0
 15 19  1  0
  6 16  1  0
 17 23  1  0
 14 18  2  0
 14 19  1  0
  5 20  1  0
  8 21  1  0
 22 24  1  0
 17 22  2  0
 23 25  2  0
 16 24  2  0
 16 25  1  0
 20 26  1  0
 26 27  1  0
 21 27  1  0
M  END
>  <IDNUMBER>  (489) 
8015-7193

>  <available>  (489) 
10

>  <H_acceptor>  (489) 
7

>  <H_donor>  (489) 
2

>  <B_rotN>  (489) 
7

>  <N_O>  (489) 
7

>  <logP>  (489) 
2.2411

>  <logD>  (489) 
1.184

>  <logSw>  (489) 
-2.5783

>  <PSA>  (489) 
81.823

>  <pKa_ma>  (489) 
6.3828

>  <pKa_mb>  (489) 
4.1519

>  <N_Chirals>  (489) 
0

>  <Name>  (489) 
N-(3-cyano-4,5,6,7-tetrahydro-1-benzothiophen-2-yl)-2-{[5-(pyridin-4-yl)-4H-1,2,4-triazol-3-yl]sulfanyl}acetamide

>  <Smile>  (489) 
N#Cc1c(NC(CSc2nnc(-c3ccncc3)[nH]2)=O)sc2c1CCCC2

>  <Color>  (489) 
ORANGE

>  <Collection>  (489) 
DC

>  <InChI>  (489) 
InChI=1S/C18H16N6OS2/c19-9-13-12-3-1-2-4-14(12)27-17(13)21-15(25)10-26-18-22-16(23-24-18)11-5-7-20-8-6-11/h5-8H,1-4,10H2,(H,21,25)(H,22,23,24)

>  <InChI Key>  (489) 
OQFOQEFORBIGPC-UHFFFAOYSA-N

>  <PERCENTSP3>  (489) 
27.8

>  <Link>  (489) 
https://www.chemdiv.com/catalog/screening-compounds/compound-8015-7193/

>  <MFCDNUMBER>  (489) 
MFCD04031165

>  <CLNUMBER>  (489) 
CL2674

>  <STEREO>  (489) 
ACHIRAL

>  <State>  (489) 
Solid

>  <Similarity score>  (489) 
0.18

$$$$
1-{3-fluoro-3-[3-(pyridin-4-yl)-1,2,4-oxadiazol-5-yl]piperidin-1-yl}-2-methoxyet
     RDKit          2D

 23 25  0  0  0  0  0  0  0  0999 V2000
   -0.6411    1.3791    0.0000 N   0  0  0  0  0  0  0  0  0  0  0  0
    0.3494    1.5296    0.0000 C   0  0  0  0  0  0  0  0  0  0  0  0
    1.0546    0.8244    0.0000 C   0  0  0  0  0  0  0  0  0  0  0  0
   -1.0984    2.2662    0.0000 C   0  0  0  0  0  0  0  0  0  0  0  0
   -0.3933    2.9775    0.0000 N   0  0  0  0  0  0  0  0  0  0  0  0
    0.4999    2.5201    0.0000 O   0  0  0  0  0  0  0  0  0  0  0  0
    2.5560   -0.0407    0.0000 N   0  0  0  0  0  0  0  0  0  0  0  0
    1.5594   -0.0407    0.0000 C   0  0  0  0  0  0  0  0  0  0  0  0
    3.0574   -0.9121    0.0000 C   0  0  0  0  0  0  0  0  0  0  0  0
   -2.0765    2.4228    0.0000 C   0  0  0  0  0  0  0  0  0  0  0  0
    4.0543   -0.9121    0.0000 O   0  0  0  0  0  0  0  0  0  0  0  0
    0.6692   -0.0972    0.0000 F   0  0  0  0  0  0  0  0  0  0  0  0
   -4.0543    2.7332    0.0000 N   0  0  0  0  0  0  0  0  0  0  0  0
    1.5594    1.6925    0.0000 C   0  0  0  0  0  0  0  0  0  0  0  0
    3.0574    0.8244    0.0000 C   0  0  0  0  0  0  0  0  0  0  0  0
    2.5560   -1.7708    0.0000 C   0  0  0  0  0  0  0  0  0  0  0  0
    2.5560    1.6925    0.0000 C   0  0  0  0  0  0  0  0  0  0  0  0
    3.0574   -2.6359    0.0000 O   0  0  0  0  0  0  0  0  0  0  0  0
   -3.4243    3.5073    0.0000 C   0  0  0  0  0  0  0  0  0  0  0  0
   -3.7033    1.7959    0.0000 C   0  0  0  0  0  0  0  0  0  0  0  0
   -2.4432    3.3538    0.0000 C   0  0  0  0  0  0  0  0  0  0  0  0
   -2.7095    1.6424    0.0000 C   0  0  0  0  0  0  0  0  0  0  0  0
    2.5560   -3.5073    0.0000 C   0  0  0  0  0  0  0  0  0  0  0  0
  1  2  2  0
  2  3  1  0
  1  4  1  0
  4  5  2  0
  5  6  1  0
  2  6  1  0
  7  8  1  0
  3  8  1  0
  7  9  1  0
  4 10  1  0
  9 11  2  0
  3 12  1  0
 13 20  1  0
 13 19  2  0
  3 14  1  0
 15 17  1  0
  7 15  1  0
  9 16  1  0
 14 17  1  0
 16 18  1  0
 19 21  1  0
 20 22  2  0
 10 21  2  0
 10 22  1  0
 18 23  1  0
M  END
>  <IDNUMBER>  (490) 
SA92-0163

>  <available>  (490) 
71

>  <H_acceptor>  (490) 
7

>  <H_donor>  (490) 
0

>  <B_rotN>  (490) 
5

>  <N_O>  (490) 
7

>  <logP>  (490) 
0.8856

>  <logD>  (490) 
0.8855

>  <logSw>  (490) 
-1.0334

>  <PSA>  (490) 
65.822

>  <pKa_ma>  (490) 
22.1376

>  <pKa_mb>  (490) 
3.6841

>  <N_Chirals>  (490) 
1

>  <Name>  (490) 
1-{3-fluoro-3-[3-(pyridin-4-yl)-1,2,4-oxadiazol-5-yl]piperidin-1-yl}-2-methoxyethan-1-one

>  <Smile>  (490) 
COCC(N(CCC1)CC1(c1nc(-c2ccncc2)no1)F)=O

>  <Color>  (490) 
YELLOW

>  <Collection>  (490) 
IC

>  <InChI>  (490) 
InChI=1S/C15H17FN4O3/c1-22-9-12(21)20-8-2-5-15(16,10-20)14-18-13(19-23-14)11-3-6-17-7-4-11/h3-4,6-7H,2,5,8-10H2,1H3/t15-/m0/s1

>  <InChI Key>  (490) 
ABPBDRFSFWRGGS-HNNXBMFYSA-N

>  <PERCENTSP3>  (490) 
46.67

>  <Link>  (490) 
https://www.chemdiv.com/catalog/screening-compounds/compound-SA92-0163/

>  <MFCDNUMBER>  (490) 
MFCD32243195

>  <CLNUMBER>  (490) 
CM4899

>  <STEREO>  (490) 
RACEMIC MIXTURE

>  <State>  (490) 
Liquid

>  <Similarity score>  (490) 
0.18

$$$$
{3-fluoro-3-[3-(pyridin-4-yl)-1,2,4-oxadiazol-5-yl]piperidin-1-yl}[1-(4-methoxyp
     RDKit          2D

 31 35  0  0  0  0  0  0  0  0999 V2000
    1.9660   -0.4167    0.0000 C   0  0  0  0  0  0  0  0  0  0  0  0
   -1.3144    2.2748    0.0000 N   0  0  0  0  0  0  0  0  0  0  0  0
   -0.4028    2.6853    0.0000 C   0  0  0  0  0  0  0  0  0  0  0  0
    2.4613    0.4481    0.0000 C   0  0  0  0  0  0  0  0  0  0  0  0
    0.4620    2.1777    0.0000 C   0  0  0  0  0  0  0  0  0  0  0  0
   -1.9912    3.0235    0.0000 C   0  0  0  0  0  0  0  0  0  0  0  0
    1.9660    1.3129    0.0000 N   0  0  0  0  0  0  0  0  0  0  0  0
   -1.4835    3.8821    0.0000 N   0  0  0  0  0  0  0  0  0  0  0  0
   -0.5061    3.6755    0.0000 O   0  0  0  0  0  0  0  0  0  0  0  0
    1.1012    0.0813    0.0000 C   0  0  0  0  0  0  0  0  0  0  0  0
    1.1012   -0.9213    0.0000 C   0  0  0  0  0  0  0  0  0  0  0  0
    0.9604    1.3129    0.0000 C   0  0  0  0  0  0  0  0  0  0  0  0
    2.4613   -1.2815    0.0000 C   0  0  0  0  0  0  0  0  0  0  0  0
    3.4607    0.4481    0.0000 O   0  0  0  0  0  0  0  0  0  0  0  0
   -2.9813    2.9109    0.0000 C   0  0  0  0  0  0  0  0  0  0  0  0
   -0.4028    1.6793    0.0000 F   0  0  0  0  0  0  0  0  0  0  0  0
   -4.9647    2.7039    0.0000 N   0  0  0  0  0  0  0  0  0  0  0  0
    3.4607   -1.2815    0.0000 C   0  0  0  0  0  0  0  0  0  0  0  0
    1.9660   -2.1525    0.0000 C   0  0  0  0  0  0  0  0  0  0  0  0
    0.9604    3.0518    0.0000 C   0  0  0  0  0  0  0  0  0  0  0  0
    2.4613    2.1777    0.0000 C   0  0  0  0  0  0  0  0  0  0  0  0
    3.4607   -3.0173    0.0000 C   0  0  0  0  0  0  0  0  0  0  0  0
    2.4613   -3.0173    0.0000 C   0  0  0  0  0  0  0  0  0  0  0  0
    3.9591   -2.1525    0.0000 C   0  0  0  0  0  0  0  0  0  0  0  0
    3.9591   -3.8821    0.0000 O   0  0  0  0  0  0  0  0  0  0  0  0
    1.9660    3.0518    0.0000 C   0  0  0  0  0  0  0  0  0  0  0  0
   -4.5604    3.6159    0.0000 C   0  0  0  0  0  0  0  0  0  0  0  0
   -4.3820    1.8987    0.0000 C   0  0  0  0  0  0  0  0  0  0  0  0
   -3.5703    3.7285    0.0000 C   0  0  0  0  0  0  0  0  0  0  0  0
   -3.3918    1.9989    0.0000 C   0  0  0  0  0  0  0  0  0  0  0  0
    4.9647   -3.8821    0.0000 C   0  0  0  0  0  0  0  0  0  0  0  0
  2  3  2  0
  3  5  1  0
  1  4  1  0
  5 12  1  0
  2  6  1  0
  6  8  2  0
  4  7  1  0
  8  9  1  0
  3  9  1  0
  1 10  1  0
 10 11  1  0
  1 11  1  0
  7 12  1  0
  1 13  1  0
  4 14  2  0
  6 15  1  0
  5 16  1  0
 17 28  1  0
 17 27  2  0
 13 18  2  0
 13 19  1  0
 20 26  1  0
  5 20  1  0
  7 21  1  0
 22 23  1  0
 19 23  2  0
 18 24  1  0
 22 24  2  0
 22 25  1  0
 21 26  1  0
 27 29  1  0
 28 30  2  0
 15 29  2  0
 15 30  1  0
 25 31  1  0
M  END
>  <IDNUMBER>  (491) 
SA92-0215

>  <available>  (491) 
64

>  <H_acceptor>  (491) 
7

>  <H_donor>  (491) 
0

>  <B_rotN>  (491) 
6

>  <N_O>  (491) 
7

>  <logP>  (491) 
3.2126

>  <logD>  (491) 
3.2125

>  <logSw>  (491) 
-3.1296

>  <PSA>  (491) 
65.45

>  <pKa_ma>  (491) 
21.0371

>  <pKa_mb>  (491) 
3.6841

>  <N_Chirals>  (491) 
1

>  <Name>  (491) 
{3-fluoro-3-[3-(pyridin-4-yl)-1,2,4-oxadiazol-5-yl]piperidin-1-yl}[1-(4-methoxyphenyl)cyclopropyl]methanone

>  <Smile>  (491) 
COc1ccc(C2(CC2)C(N(CCC2)CC2(c2nc(-c3ccncc3)no2)F)=O)cc1

>  <Color>  (491) 
NOT COLORED

>  <Collection>  (491) 
IC

>  <InChI>  (491) 
InChI=1S/C23H23FN4O3/c1-30-18-5-3-17(4-6-18)22(10-11-22)21(29)28-14-2-9-23(24,15-28)20-26-19(27-31-20)16-7-12-25-13-8-16/h3-8,12-13H,2,9-11,14-15H2,1H3/t23-/m0/s1

>  <InChI Key>  (491) 
OASSYDRHONKWLJ-QHCPKHFHSA-N

>  <PERCENTSP3>  (491) 
39.13

>  <Link>  (491) 
https://www.chemdiv.com/catalog/screening-compounds/compound-SA92-0215/

>  <MFCDNUMBER>  (491) 
MFCD32241824

>  <CLNUMBER>  (491) 
CM4899

>  <STEREO>  (491) 
RACEMIC MIXTURE

>  <State>  (491) 
Solid

>  <Similarity score>  (491) 
0.18

$$$$
N-(3-cyano-4,5,6,7,8,9-hexahydrocycloocta[b]thiophen-2-yl)-2-(2,4-dichlorophenox
     RDKit          2D

 27 29  0  0  0  0  0  0  0  0999 V2000
   -1.0943   -0.5440    0.0000 C   0  0  0  0  0  0  0  0  0  0  0  0
   -2.0822   -0.4565    0.0000 C   0  0  0  0  0  0  0  0  0  0  0  0
   -0.7066    0.3815    0.0000 S   0  0  0  0  0  0  0  0  0  0  0  0
   -2.3116    0.4982    0.0000 C   0  0  0  0  0  0  0  0  0  0  0  0
   -0.5816   -1.4403    0.0000 N   0  0  0  0  0  0  0  0  0  0  0  0
   -1.4819    1.0568    0.0000 C   0  0  0  0  0  0  0  0  0  0  0  0
    0.4271   -1.4403    0.0000 C   0  0  0  0  0  0  0  0  0  0  0  0
   -2.7617   -1.2694    0.0000 C   0  0  0  0  0  0  0  0  0  0  0  0
   -3.4079   -2.0697    0.0000 N   0  0  0  0  0  0  0  0  0  0  0  0
    1.8446   -2.3449    0.0000 O   0  0  0  0  0  0  0  0  0  0  0  0
    2.3699   -1.5278    0.0000 C   0  0  0  0  0  0  0  0  0  0  0  0
    3.3535   -1.5278    0.0000 C   0  0  0  0  0  0  0  0  0  0  0  0
    0.8817   -2.3074    0.0000 C   0  0  0  0  0  0  0  0  0  0  0  0
    3.8706   -0.7191    0.0000 C   0  0  0  0  0  0  0  0  0  0  0  0
    0.9317   -0.5691    0.0000 O   0  0  0  0  0  0  0  0  0  0  0  0
    1.9280   -0.6566    0.0000 C   0  0  0  0  0  0  0  0  0  0  0  0
    3.4036    0.1605    0.0000 C   0  0  0  0  0  0  0  0  0  0  0  0
    3.8456   -2.3699    0.0000 Cl  0  0  0  0  0  0  0  0  0  0  0  0
    2.4156    0.1605    0.0000 C   0  0  0  0  0  0  0  0  0  0  0  0
   -3.3329    0.7566    0.0000 C   0  0  0  0  0  0  0  0  0  0  0  0
    3.8831    0.9942    0.0000 Cl  0  0  0  0  0  0  0  0  0  0  0  0
   -1.2362    2.0197    0.0000 C   0  0  0  0  0  0  0  0  0  0  0  0
    0.3646   -3.1453    0.0000 C   0  0  0  0  0  0  0  0  0  0  0  0
   -3.8831    1.6195    0.0000 C   0  0  0  0  0  0  0  0  0  0  0  0
   -1.7946    2.8952    0.0000 C   0  0  0  0  0  0  0  0  0  0  0  0
   -3.6622    2.5992    0.0000 C   0  0  0  0  0  0  0  0  0  0  0  0
   -2.7742    3.1453    0.0000 C   0  0  0  0  0  0  0  0  0  0  0  0
  1  2  2  0
  1  3  1  0
  2  4  1  0
  4  6  2  0
  1  5  1  0
  3  6  1  0
  5  7  1  0
  2  8  1  0
  8  9  3  0
 10 13  1  0
 10 11  1  0
 11 12  2  0
  7 13  1  0
 12 14  1  0
 14 17  2  0
  7 15  2  0
 11 16  1  0
 17 19  1  0
 12 18  1  0
 16 19  2  0
  4 20  1  0
 17 21  1  0
  6 22  1  0
 13 23  1  0
 20 24  1  0
 22 25  1  0
 24 26  1  0
 25 27  1  0
 26 27  1  0
M  END
>  <IDNUMBER>  (492) 
Y509-7692

>  <available>  (492) 
6

>  <H_acceptor>  (492) 
4

>  <H_donor>  (492) 
1

>  <B_rotN>  (492) 
6

>  <N_O>  (492) 
4

>  <logP>  (492) 
6.3445

>  <logD>  (492) 
4.9265

>  <logSw>  (492) 
-6.3471

>  <PSA>  (492) 
47.307

>  <pKa_ma>  (492) 
5.9989

>  <pKa_mb>  (492) 
-5.4019

>  <N_Chirals>  (492) 
1

>  <Name>  (492) 
N-(3-cyano-4,5,6,7,8,9-hexahydrocycloocta[b]thiophen-2-yl)-2-(2,4-dichlorophenoxy)propanamide

>  <Smile>  (492) 
c1(c(c2c(s1)CCCCCC2)C#N)NC(C(Oc1c(cc(cc1)Cl)Cl)C)=O

>  <Color>  (492) 
BROWN

>  <Collection>  (492) 
DC

>  <InChI>  (492) 
InChI=1S/C20H20Cl2N2O2S/c1-12(26-17-9-8-13(21)10-16(17)22)19(25)24-20-15(11-23)14-6-4-2-3-5-7-18(14)27-20/h8-10,12H,2-7H2,1H3,(H,24,25)/t12-/m0/s1

>  <InChI Key>  (492) 
UZQZPNPAQCQYCH-LBPRGKRZSA-N

>  <PERCENTSP3>  (492) 
40

>  <Link>  (492) 
https://www.chemdiv.com/catalog/screening-compounds/compound-Y509-7692/

>  <MFCDNUMBER>  (492) 
MFCD01355654

>  <STEREO>  (492) 
RACEMIC MIXTURE

>  <State>  (492) 
Solid

>  <Similarity score>  (492) 
0.18

$$$$
3-fluoro-N-(4-methoxyphenyl)-3-[3-(pyridin-3-yl)-1,2,4-oxadiazol-5-yl]piperidine
     RDKit          2D

 29 32  0  0  0  0  0  0  0  0999 V2000
    1.6398   -0.1292    0.0000 N   0  0  0  0  0  0  0  0  0  0  0  0
    1.2816   -1.0587    0.0000 C   0  0  0  0  0  0  0  0  0  0  0  0
    2.6318   -0.1793    0.0000 C   0  0  0  0  0  0  0  0  0  0  0  0
    0.3146   -1.3211    0.0000 C   0  0  0  0  0  0  0  0  0  0  0  0
   -0.5564    1.1793    0.0000 C   0  0  0  0  0  0  0  0  0  0  0  0
    2.8944   -1.1461    0.0000 N   0  0  0  0  0  0  0  0  0  0  0  0
   -0.5564    0.1791    0.0000 N   0  0  0  0  0  0  0  0  0  0  0  0
    2.0566   -1.6920    0.0000 O   0  0  0  0  0  0  0  0  0  0  0  0
    0.3146   -0.3208    0.0000 C   0  0  0  0  0  0  0  0  0  0  0  0
    3.2652    0.5959    0.0000 C   0  0  0  0  0  0  0  0  0  0  0  0
   -1.4189    1.6795    0.0000 N   0  0  0  0  0  0  0  0  0  0  0  0
    0.3146    1.6795    0.0000 O   0  0  0  0  0  0  0  0  0  0  0  0
    4.8821    1.2169    0.0000 N   0  0  0  0  0  0  0  0  0  0  0  0
    0.1812   -2.3088    0.0000 F   0  0  0  0  0  0  0  0  0  0  0  0
   -2.2859    1.1793    0.0000 C   0  0  0  0  0  0  0  0  0  0  0  0
   -0.5564   -1.8213    0.0000 C   0  0  0  0  0  0  0  0  0  0  0  0
    4.2528    0.4415    0.0000 C   0  0  0  0  0  0  0  0  0  0  0  0
   -1.4189   -0.3208    0.0000 C   0  0  0  0  0  0  0  0  0  0  0  0
   -4.0195    0.1791    0.0000 C   0  0  0  0  0  0  0  0  0  0  0  0
   -3.1568    1.6795    0.0000 C   0  0  0  0  0  0  0  0  0  0  0  0
   -2.2859    0.1791    0.0000 C   0  0  0  0  0  0  0  0  0  0  0  0
   -3.1568   -0.3208    0.0000 C   0  0  0  0  0  0  0  0  0  0  0  0
   -4.0195    1.1793    0.0000 C   0  0  0  0  0  0  0  0  0  0  0  0
   -4.8821   -0.3208    0.0000 O   0  0  0  0  0  0  0  0  0  0  0  0
    2.9069    1.5295    0.0000 C   0  0  0  0  0  0  0  0  0  0  0  0
   -1.4189   -1.3211    0.0000 C   0  0  0  0  0  0  0  0  0  0  0  0
    4.5196    2.1546    0.0000 C   0  0  0  0  0  0  0  0  0  0  0  0
   -4.8821   -1.3211    0.0000 C   0  0  0  0  0  0  0  0  0  0  0  0
    3.5321    2.3088    0.0000 C   0  0  0  0  0  0  0  0  0  0  0  0
  1  2  2  0
  1  3  1  0
  2  4  1  0
  5  7  1  0
  3  6  2  0
  6  8  1  0
  7  9  1  0
  7 18  1  0
  2  8  1  0
  4  9  1  0
  3 10  1  0
  5 11  1  0
  5 12  2  0
 13 17  2  0
 13 27  1  0
  4 14  1  0
 11 15  1  0
  4 16  1  0
 10 17  1  0
 18 26  1  0
 19 22  1  0
 19 23  2  0
 15 20  2  0
 15 21  1  0
 21 22  2  0
 20 23  1  0
 19 24  1  0
 10 25  2  0
 16 26  1  0
 27 29  2  0
 24 28  1  0
 25 29  1  0
M  END
>  <IDNUMBER>  (493) 
SA92-0598

>  <available>  (493) 
183

>  <H_acceptor>  (493) 
7

>  <H_donor>  (493) 
1

>  <B_rotN>  (493) 
6

>  <N_O>  (493) 
8

>  <logP>  (493) 
2.7648

>  <logD>  (493) 
2.1261

>  <logSw>  (493) 
-3.0149

>  <PSA>  (493) 
74.108

>  <pKa_ma>  (493) 
13.6081

>  <pKa_mb>  (493) 
7.9253

>  <N_Chirals>  (493) 
1

>  <Name>  (493) 
3-fluoro-N-(4-methoxyphenyl)-3-[3-(pyridin-3-yl)-1,2,4-oxadiazol-5-yl]piperidine-1-carboxamide

>  <Smile>  (493) 
COc(cc1)ccc1NC(N(CCC1)CC1(c1nc(-c2cnccc2)no1)F)=O

>  <Color>  (493) 
NOT COLORED

>  <Collection>  (493) 
IC

>  <InChI>  (493) 
InChI=1S/C20H20FN5O3/c1-28-16-7-5-15(6-8-16)23-19(27)26-11-3-9-20(21,13-26)18-24-17(25-29-18)14-4-2-10-22-12-14/h2,4-8,10,12H,3,9,11,13H2,1H3,(H,23,27)/t20-/m0/s1

>  <InChI Key>  (493) 
AJBACORGLUEGNT-FQEVSTJZSA-N

>  <PERCENTSP3>  (493) 
30

>  <Link>  (493) 
https://www.chemdiv.com/catalog/screening-compounds/compound-SA92-0598/

>  <MFCDNUMBER>  (493) 
MFCD32243089

>  <CLNUMBER>  (493) 
CM4899

>  <STEREO>  (493) 
RACEMIC MIXTURE

>  <State>  (493) 
Solid

>  <Similarity score>  (493) 
0.18

$$$$
2-[2-(4-amino-1,2,5-oxadiazol-3-yl)-1H-benzimidazol-1-yl]-N-(3-cyano-6-methyl-4,
     RDKit          2D

 31 35  0  0  0  0  0  0  0  0999 V2000
    2.3808    0.1042    0.0000 C   0  0  0  0  0  0  0  0  0  0  0  0
    1.6517    0.8041    0.0000 N   0  0  0  0  0  0  0  0  0  0  0  0
   -1.5727    0.4290    0.0000 C   0  0  0  0  0  0  0  0  0  0  0  0
   -2.5808    0.4666    0.0000 C   0  0  0  0  0  0  0  0  0  0  0  0
    2.2434   -0.8915    0.0000 C   0  0  0  0  0  0  0  0  0  0  0  0
    3.2681    0.5791    0.0000 N   0  0  0  0  0  0  0  0  0  0  0  0
   -2.9183   -0.4708    0.0000 C   0  0  0  0  0  0  0  0  0  0  0  0
   -2.1308   -1.0832    0.0000 C   0  0  0  0  0  0  0  0  0  0  0  0
   -1.3061   -0.5290    0.0000 S   0  0  0  0  0  0  0  0  0  0  0  0
    2.9682   -1.5831    0.0000 C   0  0  0  0  0  0  0  0  0  0  0  0
    2.5266   -2.4829    0.0000 N   0  0  0  0  0  0  0  0  0  0  0  0
   -0.9603    1.2082    0.0000 N   0  0  0  0  0  0  0  0  0  0  0  0
    1.3560   -1.3581    0.0000 N   0  0  0  0  0  0  0  0  0  0  0  0
    2.0934    1.7038    0.0000 C   0  0  0  0  0  0  0  0  0  0  0  0
    1.5309   -2.3454    0.0000 O   0  0  0  0  0  0  0  0  0  0  0  0
    3.0889    1.5664    0.0000 C   0  0  0  0  0  0  0  0  0  0  0  0
   -3.1349    1.2915    0.0000 C   0  0  0  0  0  0  0  0  0  0  0  0
    0.0187    1.3831    0.0000 C   0  0  0  0  0  0  0  0  0  0  0  0
    0.6686    0.6208    0.0000 C   0  0  0  0  0  0  0  0  0  0  0  0
   -2.7433    2.2205    0.0000 N   0  0  0  0  0  0  0  0  0  0  0  0
   -3.8305   -0.8457    0.0000 C   0  0  0  0  0  0  0  0  0  0  0  0
   -2.2684   -2.0580    0.0000 C   0  0  0  0  0  0  0  0  0  0  0  0
    0.3687    2.3287    0.0000 O   0  0  0  0  0  0  0  0  0  0  0  0
    3.9555   -1.4082    0.0000 N   0  0  0  0  0  0  0  0  0  0  0  0
   -3.9555   -1.8288    0.0000 C   0  0  0  0  0  0  0  0  0  0  0  0
   -3.1932   -2.4412    0.0000 C   0  0  0  0  0  0  0  0  0  0  0  0
    1.7184    2.6412    0.0000 C   0  0  0  0  0  0  0  0  0  0  0  0
    3.7056    2.3663    0.0000 C   0  0  0  0  0  0  0  0  0  0  0  0
   -3.3307   -3.4285    0.0000 C   0  0  0  0  0  0  0  0  0  0  0  0
    2.3308    3.4285    0.0000 C   0  0  0  0  0  0  0  0  0  0  0  0
    3.3307    3.2910    0.0000 C   0  0  0  0  0  0  0  0  0  0  0  0
  1  2  1  0
  3 12  1  0
  3  4  2  0
  1  5  1  0
  1  6  2  0
  4  7  1  0
  8  9  1  0
  7  8  2  0
  3  9  1  0
  5 10  1  0
 10 11  2  0
 12 18  1  0
  5 13  2  0
  2 14  1  0
 13 15  1  0
 11 15  1  0
  6 16  1  0
 14 16  2  0
  4 17  1  0
 18 19  1  0
  2 19  1  0
 17 20  3  0
  7 21  1  0
  8 22  1  0
 18 23  2  0
 10 24  1  0
 21 25  1  0
 25 26  1  0
 22 26  1  0
 26 29  1  0
 14 27  1  0
 16 28  1  0
 27 30  2  0
 28 31  2  0
 30 31  1  0
M  END
>  <IDNUMBER>  (494) 
8016-2378

>  <available>  (494) 
15

>  <H_acceptor>  (494) 
7

>  <H_donor>  (494) 
3

>  <B_rotN>  (494) 
6

>  <N_O>  (494) 
9

>  <logP>  (494) 
4.2503

>  <logD>  (494) 
2.8477

>  <logSw>  (494) 
-4.4837

>  <PSA>  (494) 
106.901

>  <pKa_ma>  (494) 
6.0149

>  <pKa_mb>  (494) 
3.9643

>  <N_Chirals>  (494) 
1

>  <Name>  (494) 
2-[2-(4-amino-1,2,5-oxadiazol-3-yl)-1H-benzimidazol-1-yl]-N-(3-cyano-6-methyl-4,5,6,7-tetrahydro-1-benzothiophen-2-yl)acetamide

>  <Smile>  (494) 
CC(CC1)Cc2c1c(C#N)c(NC(Cn1c(-c3nonc3N)nc3c1cccc3)=O)s2

>  <Color>  (494) 
BROWN

>  <Collection>  (494) 
DC

>  <InChI>  (494) 
InChI=1S/C21H19N7O2S/c1-11-6-7-12-13(9-22)21(31-16(12)8-11)25-17(29)10-28-15-5-3-2-4-14(15)24-20(28)18-19(23)27-30-26-18/h2-5,11H,6-8,10H2,1H3,(H2,23,27)(H,25,29)/t11-/m1/s1

>  <InChI Key>  (494) 
YYKQUXZJLHAVCS-LLVKDONJSA-N

>  <PERCENTSP3>  (494) 
28.57

>  <Link>  (494) 
https://www.chemdiv.com/catalog/screening-compounds/compound-8016-2378/

>  <MFCDNUMBER>  (494) 
MFCD05854943

>  <CLNUMBER>  (494) 
CL2888

>  <STEREO>  (494) 
RACEMIC MIXTURE

>  <State>  (494) 
Solid

>  <Similarity score>  (494) 
0.18

$$$$
N-(3-cyano-5,6-dihydro-4H-cyclopenta[b]thiophen-2-yl)-5-methyl-1,2-oxazole-3-car
     RDKit          2D

 19 21  0  0  0  0  0  0  0  0999 V2000
   -0.4729    0.8313    0.0000 C   0  0  0  0  0  0  0  0  0  0  0  0
   -1.4647    0.9355    0.0000 C   0  0  0  0  0  0  0  0  0  0  0  0
    1.5437   -0.9021    0.0000 C   0  0  0  0  0  0  0  0  0  0  0  0
   -0.0646    1.7063    0.0000 S   0  0  0  0  0  0  0  0  0  0  0  0
   -1.6521    1.8813    0.0000 C   0  0  0  0  0  0  0  0  0  0  0  0
    0.0438   -0.0479    0.0000 N   0  0  0  0  0  0  0  0  0  0  0  0
    2.5439   -1.0313    0.0000 N   0  0  0  0  0  0  0  0  0  0  0  0
   -0.8147    2.3813    0.0000 C   0  0  0  0  0  0  0  0  0  0  0  0
    1.0437   -0.0479    0.0000 C   0  0  0  0  0  0  0  0  0  0  0  0
    1.1729   -1.7897    0.0000 C   0  0  0  0  0  0  0  0  0  0  0  0
   -2.1272    0.1687    0.0000 C   0  0  0  0  0  0  0  0  0  0  0  0
    2.8022   -1.9313    0.0000 O   0  0  0  0  0  0  0  0  0  0  0  0
   -2.8022   -0.6104    0.0000 N   0  0  0  0  0  0  0  0  0  0  0  0
    1.9022   -2.4771    0.0000 C   0  0  0  0  0  0  0  0  0  0  0  0
    1.5437    0.8521    0.0000 O   0  0  0  0  0  0  0  0  0  0  0  0
   -2.4022    2.5730    0.0000 C   0  0  0  0  0  0  0  0  0  0  0  0
   -0.9897    3.3647    0.0000 C   0  0  0  0  0  0  0  0  0  0  0  0
   -1.9813    3.4897    0.0000 C   0  0  0  0  0  0  0  0  0  0  0  0
    1.8146   -3.4897    0.0000 C   0  0  0  0  0  0  0  0  0  0  0  0
  1  2  2  0
  3  9  1  0
  1  4  1  0
  2  5  1  0
  5  8  2  0
  1  6  1  0
  3  7  2  0
  4  8  1  0
  6  9  1  0
  3 10  1  0
  2 11  1  0
  7 12  1  0
 12 14  1  0
 11 13  3  0
 10 14  2  0
  9 15  2  0
  5 16  1  0
 16 18  1  0
  8 17  1  0
 17 18  1  0
 14 19  1  0
M  END
>  <IDNUMBER>  (495) 
Y205-4160

>  <available>  (495) 
16

>  <H_acceptor>  (495) 
5

>  <H_donor>  (495) 
1

>  <B_rotN>  (495) 
4

>  <N_O>  (495) 
5

>  <logP>  (495) 
2.6528

>  <logD>  (495) 
0.9621

>  <logSw>  (495) 
-3.007

>  <PSA>  (495) 
61.695

>  <pKa_ma>  (495) 
5.7183

>  <pKa_mb>  (495) 
-6.3814

>  <N_Chirals>  (495) 
0

>  <Name>  (495) 
N-(3-cyano-5,6-dihydro-4H-cyclopenta[b]thiophen-2-yl)-5-methyl-1,2-oxazole-3-carboxamide

>  <Smile>  (495) 
Cc1cc(C(Nc(sc2c3CCC2)c3C#N)=O)no1

>  <Color>  (495) 
BROWN

>  <Collection>  (495) 
DC

>  <InChI>  (495) 
InChI=1S/C13H11N3O2S/c1-7-5-10(16-18-7)12(17)15-13-9(6-14)8-3-2-4-11(8)19-13/h5H,2-4H2,1H3,(H,15,17)

>  <InChI Key>  (495) 
GVFCSNMGSRACHX-UHFFFAOYSA-N

>  <PERCENTSP3>  (495) 
30.77

>  <Link>  (495) 
https://www.chemdiv.com/catalog/screening-compounds/compound-Y205-4160/

>  <MFCDNUMBER>  (495) 
MFCD05025637

>  <STEREO>  (495) 
ACHIRAL

>  <State>  (495) 
Solid

>  <Similarity score>  (495) 
0.18

$$$$
N-benzyl-3-fluoro-3-[3-(pyridin-4-yl)-1,2,4-oxadiazol-5-yl]piperidine-1-carboxam
     RDKit          2D

 28 31  0  0  0  0  0  0  0  0999 V2000
   -0.6379    2.2394    0.0000 N   0  0  0  0  0  0  0  0  0  0  0  0
    0.3462    2.3960    0.0000 C   0  0  0  0  0  0  0  0  0  0  0  0
    1.0548    1.6910    0.0000 C   0  0  0  0  0  0  0  0  0  0  0  0
   -1.0892    3.1328    0.0000 C   0  0  0  0  0  0  0  0  0  0  0  0
   -0.3869    3.8347    0.0000 N   0  0  0  0  0  0  0  0  0  0  0  0
    2.5591    0.8258    0.0000 N   0  0  0  0  0  0  0  0  0  0  0  0
    3.0574   -0.0454    0.0000 C   0  0  0  0  0  0  0  0  0  0  0  0
    0.4998    3.3771    0.0000 O   0  0  0  0  0  0  0  0  0  0  0  0
    1.5531    0.8258    0.0000 C   0  0  0  0  0  0  0  0  0  0  0  0
    2.5591   -0.9106    0.0000 N   0  0  0  0  0  0  0  0  0  0  0  0
    4.0541   -0.0454    0.0000 O   0  0  0  0  0  0  0  0  0  0  0  0
   -2.0763    3.2798    0.0000 C   0  0  0  0  0  0  0  0  0  0  0  0
    0.6691    0.7600    0.0000 F   0  0  0  0  0  0  0  0  0  0  0  0
   -4.0541    3.5997    0.0000 N   0  0  0  0  0  0  0  0  0  0  0  0
    3.0574   -1.7788    0.0000 C   0  0  0  0  0  0  0  0  0  0  0  0
    1.5531    2.5560    0.0000 C   0  0  0  0  0  0  0  0  0  0  0  0
    3.0574    1.6910    0.0000 C   0  0  0  0  0  0  0  0  0  0  0  0
    2.5591   -2.6437    0.0000 C   0  0  0  0  0  0  0  0  0  0  0  0
    2.5591    2.5560    0.0000 C   0  0  0  0  0  0  0  0  0  0  0  0
   -3.6968    2.6593    0.0000 C   0  0  0  0  0  0  0  0  0  0  0  0
   -3.4240    4.3738    0.0000 C   0  0  0  0  0  0  0  0  0  0  0  0
   -2.7064    2.5122    0.0000 C   0  0  0  0  0  0  0  0  0  0  0  0
   -2.4369    4.2202    0.0000 C   0  0  0  0  0  0  0  0  0  0  0  0
    3.0574   -3.5089    0.0000 C   0  0  0  0  0  0  0  0  0  0  0  0
    1.5531   -2.6437    0.0000 C   0  0  0  0  0  0  0  0  0  0  0  0
    1.0548   -3.5089    0.0000 C   0  0  0  0  0  0  0  0  0  0  0  0
    2.5591   -4.3738    0.0000 C   0  0  0  0  0  0  0  0  0  0  0  0
    1.5531   -4.3738    0.0000 C   0  0  0  0  0  0  0  0  0  0  0  0
  1  2  2  0
  2  3  1  0
  1  4  1  0
  4  5  2  0
  5  8  1  0
  6  9  1  0
  6  7  1  0
  2  8  1  0
  3  9  1  0
  7 10  1  0
  7 11  2  0
  4 12  1  0
  3 13  1  0
 14 21  2  0
 14 20  1  0
 10 15  1  0
  3 16  1  0
 17 19  1  0
  6 17  1  0
 15 18  1  0
 16 19  1  0
 20 22  2  0
 21 23  1  0
 12 22  1  0
 12 23  2  0
 18 24  2  0
 18 25  1  0
 25 26  2  0
 24 27  1  0
 26 28  1  0
 27 28  2  0
M  END
>  <IDNUMBER>  (496) 
SA92-0271

>  <available>  (496) 
45

>  <H_acceptor>  (496) 
6

>  <H_donor>  (496) 
1

>  <B_rotN>  (496) 
6

>  <N_O>  (496) 
7

>  <logP>  (496) 
2.6415

>  <logD>  (496) 
2.6414

>  <logSw>  (496) 
-2.6934

>  <PSA>  (496) 
67.797

>  <pKa_ma>  (496) 
14.4198

>  <pKa_mb>  (496) 
3.6841

>  <N_Chirals>  (496) 
1

>  <Name>  (496) 
N-benzyl-3-fluoro-3-[3-(pyridin-4-yl)-1,2,4-oxadiazol-5-yl]piperidine-1-carboxamide

>  <Smile>  (496) 
O=C(NCc1ccccc1)N(CCC1)CC1(c1nc(-c2ccncc2)no1)F

>  <Color>  (496) 
YELLOW

>  <Collection>  (496) 
IC

>  <InChI>  (496) 
InChI=1S/C20H20FN5O2/c21-20(18-24-17(25-28-18)16-7-10-22-11-8-16)9-4-12-26(14-20)19(27)23-13-15-5-2-1-3-6-15/h1-3,5-8,10-11H,4,9,12-14H2,(H,23,27)/t20-/m0/s1

>  <InChI Key>  (496) 
WDDYMHAGSKZCSW-FQEVSTJZSA-N

>  <PERCENTSP3>  (496) 
30

>  <Link>  (496) 
https://www.chemdiv.com/catalog/screening-compounds/compound-SA92-0271/

>  <MFCDNUMBER>  (496) 
MFCD32242334

>  <CLNUMBER>  (496) 
CM4899

>  <STEREO>  (496) 
RACEMIC MIXTURE

>  <State>  (496) 
Liquid

>  <Similarity score>  (496) 
0.18

$$$$
2-[5-(4-methoxyphenyl)-1H-1,2,4-triazol-1-yl]-4,5,6,7-tetrahydro-1-benzothiophen
     RDKit          2D

 24 27  0  0  0  0  0  0  0  0999 V2000
    1.2521    0.3305    0.0000 C   0  0  0  0  0  0  0  0  0  0  0  0
    0.7092    1.1558    0.0000 N   0  0  0  0  0  0  0  0  0  0  0  0
    2.2384    0.3305    0.0000 C   0  0  0  0  0  0  0  0  0  0  0  0
    0.8986   -0.6306    0.0000 S   0  0  0  0  0  0  0  0  0  0  0  0
   -0.2590    1.1558    0.0000 C   0  0  0  0  0  0  0  0  0  0  0  0
    2.5385   -0.6771    0.0000 C   0  0  0  0  0  0  0  0  0  0  0  0
    1.7275   -1.2130    0.0000 C   0  0  0  0  0  0  0  0  0  0  0  0
   -0.5770    2.0990    0.0000 N   0  0  0  0  0  0  0  0  0  0  0  0
    1.0415    2.1241    0.0000 N   0  0  0  0  0  0  0  0  0  0  0  0
    2.7958    1.1558    0.0000 C   0  0  0  0  0  0  0  0  0  0  0  0
    0.2233    2.6886    0.0000 C   0  0  0  0  0  0  0  0  0  0  0  0
    3.3530    1.9812    0.0000 N   0  0  0  0  0  0  0  0  0  0  0  0
   -0.8235    0.3411    0.0000 C   0  0  0  0  0  0  0  0  0  0  0  0
   -1.8203    0.4091    0.0000 C   0  0  0  0  0  0  0  0  0  0  0  0
   -0.4163   -0.5592    0.0000 C   0  0  0  0  0  0  0  0  0  0  0  0
   -1.9631   -1.3166    0.0000 C   0  0  0  0  0  0  0  0  0  0  0  0
    3.4425   -1.1165    0.0000 C   0  0  0  0  0  0  0  0  0  0  0  0
   -0.9736   -1.3845    0.0000 C   0  0  0  0  0  0  0  0  0  0  0  0
   -2.3884   -0.4019    0.0000 C   0  0  0  0  0  0  0  0  0  0  0  0
    1.7704   -2.2312    0.0000 C   0  0  0  0  0  0  0  0  0  0  0  0
   -2.5206   -2.1348    0.0000 O   0  0  0  0  0  0  0  0  0  0  0  0
   -3.5068   -2.0705    0.0000 C   0  0  0  0  0  0  0  0  0  0  0  0
    3.5068   -2.1311    0.0000 C   0  0  0  0  0  0  0  0  0  0  0  0
    2.6564   -2.6886    0.0000 C   0  0  0  0  0  0  0  0  0  0  0  0
  1  2  1  0
  1  3  2  0
  1  4  1  0
  2  5  1  0
  3  6  1  0
  4  7  1  0
  6  7  2  0
  5  8  2  0
  8 11  1  0
  2  9  1  0
  3 10  1  0
  9 11  2  0
 10 12  3  0
  5 13  1  0
 13 14  2  0
 13 15  1  0
 16 18  1  0
 16 19  2  0
  6 17  1  0
 15 18  2  0
 14 19  1  0
  7 20  1  0
 16 21  1  0
 21 22  1  0
 17 23  1  0
 23 24  1  0
 20 24  1  0
M  END
>  <IDNUMBER>  (497) 
4073-0146

>  <available>  (497) 
149

>  <H_acceptor>  (497) 
4

>  <H_donor>  (497) 
0

>  <B_rotN>  (497) 
4

>  <N_O>  (497) 
5

>  <logP>  (497) 
4.313

>  <logD>  (497) 
4.313

>  <logSw>  (497) 
-4.495

>  <PSA>  (497) 
50.42

>  <pKa_ma>  (497) 
25.2661

>  <pKa_mb>  (497) 
2.5452

>  <N_Chirals>  (497) 
0

>  <Name>  (497) 
2-[5-(4-methoxyphenyl)-1H-1,2,4-triazol-1-yl]-4,5,6,7-tetrahydro-1-benzothiophene-3-carbonitrile

>  <Smile>  (497) 
COc(cc1)ccc1-c1ncnn1-c(sc1c2CCCC1)c2C#N

>  <Color>  (497) 
YELLOW

>  <Collection>  (497) 
DC

>  <InChI>  (497) 
InChI=1S/C18H16N4OS/c1-23-13-8-6-12(7-9-13)17-20-11-21-22(17)18-15(10-19)14-4-2-3-5-16(14)24-18/h6-9,11H,2-5H2,1H3

>  <InChI Key>  (497) 
GVRDXTJPIROCLJ-UHFFFAOYSA-N

>  <PERCENTSP3>  (497) 
27.8

>  <Link>  (497) 
https://www.chemdiv.com/catalog/screening-compounds/compound-4073-0146/

>  <MFCDNUMBER>  (497) 
MFCD01308468

>  <STEREO>  (497) 
ACHIRAL

>  <State>  (497) 
Solid

>  <Similarity score>  (497) 
0.18

$$$$
3-fluoro-3-(3-phenyl-1,2,4-oxadiazol-5-yl)-1-[(3,4,5-trimethoxyphenyl)methyl]pip
     RDKit          2D

 31 34  0  0  0  0  0  0  0  0999 V2000
    0.1362    2.2427    0.0000 N   0  0  0  0  0  0  0  0  0  0  0  0
   -0.8566    2.3994    0.0000 C   0  0  0  0  0  0  0  0  0  0  0  0
    0.5905    3.1357    0.0000 C   0  0  0  0  0  0  0  0  0  0  0  0
   -1.5551    1.6946    0.0000 C   0  0  0  0  0  0  0  0  0  0  0  0
   -0.1176    3.8372    0.0000 N   0  0  0  0  0  0  0  0  0  0  0  0
   -1.0103    3.3799    0.0000 O   0  0  0  0  0  0  0  0  0  0  0  0
   -2.0628   -2.6377    0.0000 C   0  0  0  0  0  0  0  0  0  0  0  0
   -3.0588    0.8238    0.0000 N   0  0  0  0  0  0  0  0  0  0  0  0
   -3.0588   -2.6377    0.0000 C   0  0  0  0  0  0  0  0  0  0  0  0
   -1.5551   -1.7728    0.0000 C   0  0  0  0  0  0  0  0  0  0  0  0
   -2.0628    0.8238    0.0000 C   0  0  0  0  0  0  0  0  0  0  0  0
   -3.0588   -0.9083    0.0000 C   0  0  0  0  0  0  0  0  0  0  0  0
   -3.5569   -1.7728    0.0000 C   0  0  0  0  0  0  0  0  0  0  0  0
   -2.0628   -0.9083    0.0000 C   0  0  0  0  0  0  0  0  0  0  0  0
    1.5773    3.2828    0.0000 C   0  0  0  0  0  0  0  0  0  0  0  0
   -3.5569   -0.0408    0.0000 C   0  0  0  0  0  0  0  0  0  0  0  0
   -1.1793    0.7644    0.0000 F   0  0  0  0  0  0  0  0  0  0  0  0
   -1.5551   -3.5082    0.0000 O   0  0  0  0  0  0  0  0  0  0  0  0
   -2.0628    2.5592    0.0000 C   0  0  0  0  0  0  0  0  0  0  0  0
   -3.5569   -3.5082    0.0000 O   0  0  0  0  0  0  0  0  0  0  0  0
   -0.5560   -1.7728    0.0000 O   0  0  0  0  0  0  0  0  0  0  0  0
   -3.5569    1.6946    0.0000 C   0  0  0  0  0  0  0  0  0  0  0  0
   -3.0588    2.5592    0.0000 C   0  0  0  0  0  0  0  0  0  0  0  0
    1.9342    4.2226    0.0000 C   0  0  0  0  0  0  0  0  0  0  0  0
    2.2069    2.5121    0.0000 C   0  0  0  0  0  0  0  0  0  0  0  0
   -0.5560   -3.5082    0.0000 C   0  0  0  0  0  0  0  0  0  0  0  0
   -0.0580   -2.6377    0.0000 C   0  0  0  0  0  0  0  0  0  0  0  0
   -3.0588   -4.3760    0.0000 C   0  0  0  0  0  0  0  0  0  0  0  0
    2.9273    4.3760    0.0000 C   0  0  0  0  0  0  0  0  0  0  0  0
    3.1997    2.6718    0.0000 C   0  0  0  0  0  0  0  0  0  0  0  0
    3.5569    3.6023    0.0000 C   0  0  0  0  0  0  0  0  0  0  0  0
  1  2  2  0
  1  3  1  0
  2  4  1  0
  3  5  2  0
  5  6  1  0
  2  6  1  0
  7 10  2  0
  7  9  1  0
  8 11  1  0
  9 13  2  0
 10 14  1  0
  4 11  1  0
 12 16  1  0
 12 13  1  0
 12 14  2  0
  3 15  1  0
  8 16  1  0
  4 17  1  0
  7 18  1  0
  4 19  1  0
  9 20  1  0
 10 21  1  0
 22 23  1  0
  8 22  1  0
 19 23  1  0
 15 24  2  0
 15 25  1  0
 18 26  1  0
 21 27  1  0
 20 28  1  0
 24 29  1  0
 25 30  2  0
 30 31  1  0
 29 31  2  0
M  END
>  <IDNUMBER>  (498) 
SA92-0038

>  <available>  (498) 
30

>  <H_acceptor>  (498) 
7

>  <H_donor>  (498) 
0

>  <B_rotN>  (498) 
7

>  <N_O>  (498) 
7

>  <logP>  (498) 
3.9608

>  <logD>  (498) 
2.0903

>  <logSw>  (498) 
-4.0767

>  <PSA>  (498) 
58.288

>  <pKa_ma>  (498) 
26.9519

>  <pKa_mb>  (498) 
9.2646

>  <N_Chirals>  (498) 
1

>  <Name>  (498) 
3-fluoro-3-(3-phenyl-1,2,4-oxadiazol-5-yl)-1-[(3,4,5-trimethoxyphenyl)methyl]piperidine

>  <Smile>  (498) 
COc1cc(CN(CCC2)CC2(c2nc(-c3ccccc3)no2)F)cc(OC)c1OC

>  <Color>  (498) 
ORANGE

>  <Collection>  (498) 
IC

>  <InChI>  (498) 
InChI=1S/C23H26FN3O4/c1-28-18-12-16(13-19(29-2)20(18)30-3)14-27-11-7-10-23(24,15-27)22-25-21(26-31-22)17-8-5-4-6-9-17/h4-6,8-9,12-13H,7,10-11,14-15H2,1-3H3/t23-/m0/s1

>  <InChI Key>  (498) 
HKNRHXMUOWUVDJ-QHCPKHFHSA-N

>  <PERCENTSP3>  (498) 
39.13

>  <Link>  (498) 
https://www.chemdiv.com/catalog/screening-compounds/compound-SA92-0038/

>  <MFCDNUMBER>  (498) 
MFCD32241812

>  <CLNUMBER>  (498) 
CM4899

>  <STEREO>  (498) 
RACEMIC MIXTURE

>  <State>  (498) 
Liquid

>  <Similarity score>  (498) 
0.18

$$$$
2-cyclopropyl-1-{3-fluoro-3-[3-(pyridin-4-yl)-1,2,4-oxadiazol-5-yl]piperidin-1-y
     RDKit          2D

 24 27  0  0  0  0  0  0  0  0999 V2000
   -0.5656    1.4701    0.0000 N   0  0  0  0  0  0  0  0  0  0  0  0
    0.3527    1.8837    0.0000 C   0  0  0  0  0  0  0  0  0  0  0  0
    1.2114    1.3792    0.0000 C   0  0  0  0  0  0  0  0  0  0  0  0
   -1.2333    2.2224    0.0000 C   0  0  0  0  0  0  0  0  0  0  0  0
   -0.7349    3.0811    0.0000 N   0  0  0  0  0  0  0  0  0  0  0  0
    2.7159    0.5204    0.0000 N   0  0  0  0  0  0  0  0  0  0  0  0
    0.2430    2.8806    0.0000 O   0  0  0  0  0  0  0  0  0  0  0  0
    3.2144   -0.3510    0.0000 C   0  0  0  0  0  0  0  0  0  0  0  0
    1.7193    0.5204    0.0000 C   0  0  0  0  0  0  0  0  0  0  0  0
    3.2144   -2.0811    0.0000 C   0  0  0  0  0  0  0  0  0  0  0  0
    2.7159   -1.2192    0.0000 C   0  0  0  0  0  0  0  0  0  0  0  0
    3.2144   -3.0811    0.0000 C   0  0  0  0  0  0  0  0  0  0  0  0
    4.0795   -2.5827    0.0000 C   0  0  0  0  0  0  0  0  0  0  0  0
   -2.2302    2.1127    0.0000 C   0  0  0  0  0  0  0  0  0  0  0  0
    4.2173   -0.3510    0.0000 O   0  0  0  0  0  0  0  0  0  0  0  0
    0.3527    0.8808    0.0000 F   0  0  0  0  0  0  0  0  0  0  0  0
   -4.2173    1.9027    0.0000 N   0  0  0  0  0  0  0  0  0  0  0  0
    1.7193    2.2506    0.0000 C   0  0  0  0  0  0  0  0  0  0  0  0
    3.2144    1.3792    0.0000 C   0  0  0  0  0  0  0  0  0  0  0  0
    2.7159    2.2506    0.0000 C   0  0  0  0  0  0  0  0  0  0  0  0
   -3.8130    2.8241    0.0000 C   0  0  0  0  0  0  0  0  0  0  0  0
   -3.6311    1.0940    0.0000 C   0  0  0  0  0  0  0  0  0  0  0  0
   -2.8224    2.9214    0.0000 C   0  0  0  0  0  0  0  0  0  0  0  0
   -2.6345    1.2005    0.0000 C   0  0  0  0  0  0  0  0  0  0  0  0
  1  2  2  0
  2  3  1  0
  1  4  1  0
  4  5  2  0
  5  7  1  0
  6  9  1  0
  2  7  1  0
  6  8  1  0
  3  9  1  0
 10 11  1  0
  8 11  1  0
 10 12  1  0
 12 13  1  0
 10 13  1  0
  4 14  1  0
  8 15  2  0
  3 16  1  0
 17 22  1  0
 17 21  2  0
  3 18  1  0
 19 20  1  0
  6 19  1  0
 18 20  1  0
 21 23  1  0
 22 24  2  0
 14 23  2  0
 14 24  1  0
M  END
>  <IDNUMBER>  (499) 
SA92-0206

>  <available>  (499) 
82

>  <H_acceptor>  (499) 
6

>  <H_donor>  (499) 
0

>  <B_rotN>  (499) 
5

>  <N_O>  (499) 
6

>  <logP>  (499) 
2.2295

>  <logD>  (499) 
2.2295

>  <logSw>  (499) 
-2.2685

>  <PSA>  (499) 
57.65

>  <pKa_ma>  (499) 
23.8009

>  <pKa_mb>  (499) 
3.6841

>  <N_Chirals>  (499) 
1

>  <Name>  (499) 
2-cyclopropyl-1-{3-fluoro-3-[3-(pyridin-4-yl)-1,2,4-oxadiazol-5-yl]piperidin-1-yl}ethan-1-one

>  <Smile>  (499) 
O=C(CC1CC1)N(CCC1)CC1(c1nc(-c2ccncc2)no1)F

>  <Color>  (499) 
YELLOW

>  <Collection>  (499) 
IC

>  <InChI>  (499) 
InChI=1S/C17H19FN4O2/c18-17(6-1-9-22(11-17)14(23)10-12-2-3-12)16-20-15(21-24-16)13-4-7-19-8-5-13/h4-5,7-8,12H,1-3,6,9-11H2/t17-/m0/s1

>  <InChI Key>  (499) 
HBCYOPQXHLBHSJ-KRWDZBQOSA-N

>  <PERCENTSP3>  (499) 
52.94

>  <Link>  (499) 
https://www.chemdiv.com/catalog/screening-compounds/compound-SA92-0206/

>  <MFCDNUMBER>  (499) 
MFCD32241697

>  <CLNUMBER>  (499) 
CM4899

>  <STEREO>  (499) 
RACEMIC MIXTURE

>  <State>  (499) 
Liquid

>  <Similarity score>  (499) 
0.18

$$$$
3-(2H-1,3-benzodioxol-5-yl)-N-(3-cyano-5,6-dihydro-4H-cyclopenta[b]thiophen-2-yl
     RDKit          2D

 32 37  0  0  0  0  0  0  0  0999 V2000
    1.5853    0.6562    0.0000 C   0  0  0  0  0  0  0  0  0  0  0  0
    2.5562    0.7187    0.0000 C   0  0  0  0  0  0  0  0  0  0  0  0
   -1.4105   -1.0770    0.0000 C   0  0  0  0  0  0  0  0  0  0  0  0
   -1.9062   -1.9438    0.0000 C   0  0  0  0  0  0  0  0  0  0  0  0
   -0.4147   -1.0770    0.0000 C   0  0  0  0  0  0  0  0  0  0  0  0
   -2.9896   -0.7438    0.0000 N   0  0  0  0  0  0  0  0  0  0  0  0
   -2.0854   -0.3396    0.0000 C   0  0  0  0  0  0  0  0  0  0  0  0
    1.2312    1.6270    0.0000 S   0  0  0  0  0  0  0  0  0  0  0  0
    2.8353    1.6646    0.0000 C   0  0  0  0  0  0  0  0  0  0  0  0
    1.0896   -0.2104    0.0000 N   0  0  0  0  0  0  0  0  0  0  0  0
    0.0811   -0.2104    0.0000 C   0  0  0  0  0  0  0  0  0  0  0  0
    2.0312    2.2478    0.0000 C   0  0  0  0  0  0  0  0  0  0  0  0
   -2.8853   -1.7271    0.0000 O   0  0  0  0  0  0  0  0  0  0  0  0
   -1.4105   -2.8104    0.0000 N   0  0  0  0  0  0  0  0  0  0  0  0
   -2.1105    0.6562    0.0000 C   0  0  0  0  0  0  0  0  0  0  0  0
    3.2062   -0.0689    0.0000 C   0  0  0  0  0  0  0  0  0  0  0  0
    3.8188   -0.8354    0.0000 N   0  0  0  0  0  0  0  0  0  0  0  0
   -3.0396    2.1229    0.0000 C   0  0  0  0  0  0  0  0  0  0  0  0
   -3.0022    1.1271    0.0000 C   0  0  0  0  0  0  0  0  0  0  0  0
    0.0811   -1.9438    0.0000 C   0  0  0  0  0  0  0  0  0  0  0  0
   -2.1980    2.6562    0.0000 C   0  0  0  0  0  0  0  0  0  0  0  0
   -3.8188    2.7605    0.0000 O   0  0  0  0  0  0  0  0  0  0  0  0
   -0.4147   -2.8104    0.0000 C   0  0  0  0  0  0  0  0  0  0  0  0
   -2.4521    3.6271    0.0000 O   0  0  0  0  0  0  0  0  0  0  0  0
   -0.4147    0.6562    0.0000 O   0  0  0  0  0  0  0  0  0  0  0  0
   -3.4479    3.6896    0.0000 C   0  0  0  0  0  0  0  0  0  0  0  0
   -1.2687    1.1937    0.0000 C   0  0  0  0  0  0  0  0  0  0  0  0
   -1.3062    2.1978    0.0000 C   0  0  0  0  0  0  0  0  0  0  0  0
    3.6396    2.2895    0.0000 C   0  0  0  0  0  0  0  0  0  0  0  0
    2.3146    3.2187    0.0000 C   0  0  0  0  0  0  0  0  0  0  0  0
    3.2938    3.2187    0.0000 C   0  0  0  0  0  0  0  0  0  0  0  0
    0.0937   -3.6896    0.0000 C   0  0  0  0  0  0  0  0  0  0  0  0
  1  2  2  0
  3  5  1  0
  3  4  2  0
  4 14  1  0
  5 11  1  0
  6  7  2  0
  3  7  1  0
  1  8  1  0
  2  9  1  0
  9 12  2  0
  1 10  1  0
 10 11  1  0
  8 12  1  0
  4 13  1  0
  6 13  1  0
 14 23  2  0
  7 15  1  0
  2 16  1  0
 16 17  3  0
 18 19  1  0
 18 21  2  0
 15 19  2  0
  5 20  2  0
 21 28  1  0
 18 22  1  0
 20 23  1  0
 21 24  1  0
 11 25  2  0
 22 26  1  0
 24 26  1  0
 15 27  1  0
 27 28  2  0
  9 29  1  0
 29 31  1  0
 12 30  1  0
 30 31  1  0
 23 32  1  0
M  END
>  <IDNUMBER>  (500) 
Y501-2683

>  <available>  (500) 
13

>  <H_acceptor>  (500) 
8

>  <H_donor>  (500) 
1

>  <B_rotN>  (500) 
5

>  <N_O>  (500) 
8

>  <logP>  (500) 
4.2591

>  <logD>  (500) 
2.7337

>  <logSw>  (500) 
-4.5644

>  <PSA>  (500) 
88.105

>  <pKa_ma>  (500) 
5.8877

>  <pKa_mb>  (500) 
-1.9333

>  <N_Chirals>  (500) 
0

>  <Name>  (500) 
3-(2H-1,3-benzodioxol-5-yl)-N-(3-cyano-5,6-dihydro-4H-cyclopenta[b]thiophen-2-yl)-6-methyl[1,2]oxazolo[5,4-b]pyridine-4-carboxamide

>  <Smile>  (500) 
Cc1cc(C(Nc(sc2c3CCC2)c3C#N)=O)c(c(-c(cc2)cc3c2OCO3)no2)c2n1

>  <Color>  (500) 
BROWN

>  <Collection>  (500) 
DC

>  <InChI>  (500) 
InChI=1S/C23H16N4O4S/c1-11-7-14(21(28)26-23-15(9-24)13-3-2-4-18(13)32-23)19-20(27-31-22(19)25-11)12-5-6-16-17(8-12)30-10-29-16/h5-8H,2-4,10H2,1H3,(H,26,28)

>  <InChI Key>  (500) 
GSFFRALGTHMSLX-UHFFFAOYSA-N

>  <PERCENTSP3>  (500) 
21.74

>  <Link>  (500) 
https://www.chemdiv.com/catalog/screening-compounds/compound-Y501-2683/

>  <MFCDNUMBER>  (500) 
MFCD08557785

>  <CLNUMBER>  (500) 
CL7490

>  <STEREO>  (500) 
ACHIRAL

>  <State>  (500) 
Solid

>  <Similarity score>  (500) 
0.18

$$$$
2-amino-5,6-dihydro-4H-cyclopenta[b]thiophene-3-carbonitrile
     RDKit          2D

 11 12  0  0  0  0  0  0  0  0999 V2000
    0.6813   -0.0354    0.0000 C   0  0  0  0  0  0  0  0  0  0  0  0
    0.9841   -0.9894    0.0000 C   0  0  0  0  0  0  0  0  0  0  0  0
   -0.3181   -0.0354    0.0000 C   0  0  0  0  0  0  0  0  0  0  0  0
    0.1766   -1.5748    0.0000 S   0  0  0  0  0  0  0  0  0  0  0  0
   -0.6260   -0.9894    0.0000 C   0  0  0  0  0  0  0  0  0  0  0  0
    1.2667    0.7673    0.0000 C   0  0  0  0  0  0  0  0  0  0  0  0
    1.8575    1.5748    0.0000 N   0  0  0  0  0  0  0  0  0  0  0  0
    1.9382   -1.3022    0.0000 N   0  0  0  0  0  0  0  0  0  0  0  0
   -1.1258    0.5552    0.0000 C   0  0  0  0  0  0  0  0  0  0  0  0
   -1.6254   -0.9894    0.0000 C   0  0  0  0  0  0  0  0  0  0  0  0
   -1.9382   -0.0354    0.0000 C   0  0  0  0  0  0  0  0  0  0  0  0
  1  2  2  0
  1  3  1  0
  2  4  1  0
  3  5  2  0
  4  5  1  0
  1  6  1  0
  6  7  3  0
  2  8  1  0
  3  9  1  0
  5 10  1  0
  9 11  1  0
 10 11  1  0
M  END
>  <IDNUMBER>  (501) 
R052-2295

>  <available>  (501) 
1082

>  <H_acceptor>  (501) 
1

>  <H_donor>  (501) 
2

>  <B_rotN>  (501) 
1

>  <N_O>  (501) 
2

>  <logP>  (501) 
1.736

>  <logD>  (501) 
1.736

>  <logSw>  (501) 
-1.8508

>  <PSA>  (501) 
38.857

>  <pKa_ma>  (501) 
15.973

>  <pKa_mb>  (501) 
-1.8136

>  <N_Chirals>  (501) 
0

>  <Name>  (501) 
2-amino-5,6-dihydro-4H-cyclopenta[b]thiophene-3-carbonitrile

>  <Smile>  (501) 
Nc(sc1c2CCC1)c2C#N

>  <Color>  (501) 
ORANGE

>  <Collection>  (501) 
NC

>  <InChI>  (501) 
InChI=1S/C8H8N2S/c9-4-6-5-2-1-3-7(5)11-8(6)10/h1-3,10H2

>  <InChI Key>  (501) 
RILAXFOADRDGPQ-UHFFFAOYSA-N

>  <PERCENTSP3>  (501) 
37.5

>  <Link>  (501) 
https://www.chemdiv.com/catalog/screening-compounds/compound-R052-2295/

>  <MFCDNUMBER>  (501) 
MFCD00121495

>  <STEREO>  (501) 
ACHIRAL

>  <State>  (501) 
Solid

>  <Similarity score>  (501) 
0.21

$$$$
N-(3-cyano-6-methyl-4,5,6,7-tetrahydro-1-benzothiophen-2-yl)-4-[3-(4-methoxyphen
     RDKit          2D

 31 34  0  0  0  0  0  0  0  0999 V2000
    2.5373    2.0664    0.0000 C   0  0  0  0  0  0  0  0  0  0  0  0
    2.7498    1.0665    0.0000 C   0  0  0  0  0  0  0  0  0  0  0  0
    3.7247    0.9666    0.0000 C   0  0  0  0  0  0  0  0  0  0  0  0
    4.1372    1.8915    0.0000 C   0  0  0  0  0  0  0  0  0  0  0  0
    3.3998    2.5415    0.0000 S   0  0  0  0  0  0  0  0  0  0  0  0
   -1.5582   -0.9207    0.0000 N   0  0  0  0  0  0  0  0  0  0  0  0
   -2.1749   -1.7080    0.0000 C   0  0  0  0  0  0  0  0  0  0  0  0
   -1.6083   -2.5415    0.0000 N   0  0  0  0  0  0  0  0  0  0  0  0
    1.6166    2.4665    0.0000 N   0  0  0  0  0  0  0  0  0  0  0  0
    2.0666    0.3165    0.0000 C   0  0  0  0  0  0  0  0  0  0  0  0
   -0.6207   -1.2538    0.0000 C   0  0  0  0  0  0  0  0  0  0  0  0
   -0.6500   -2.2663    0.0000 O   0  0  0  0  0  0  0  0  0  0  0  0
    1.3916   -0.4290    0.0000 N   0  0  0  0  0  0  0  0  0  0  0  0
    4.2996    0.1544    0.0000 C   0  0  0  0  0  0  0  0  0  0  0  0
    0.8166    1.8915    0.0000 C   0  0  0  0  0  0  0  0  0  0  0  0
   -3.1872   -1.6914    0.0000 C   0  0  0  0  0  0  0  0  0  0  0  0
    5.1371    1.9793    0.0000 C   0  0  0  0  0  0  0  0  0  0  0  0
   -0.0750    2.2790    0.0000 O   0  0  0  0  0  0  0  0  0  0  0  0
   -3.7080   -2.5415    0.0000 C   0  0  0  0  0  0  0  0  0  0  0  0
   -3.6705   -0.8040    0.0000 C   0  0  0  0  0  0  0  0  0  0  0  0
    5.2913    0.2415    0.0000 C   0  0  0  0  0  0  0  0  0  0  0  0
   -5.1953   -1.6288    0.0000 C   0  0  0  0  0  0  0  0  0  0  0  0
   -4.6829   -0.7833    0.0000 C   0  0  0  0  0  0  0  0  0  0  0  0
   -4.7204   -2.5206    0.0000 C   0  0  0  0  0  0  0  0  0  0  0  0
    5.7038    1.1585    0.0000 C   0  0  0  0  0  0  0  0  0  0  0  0
    0.1917   -0.6708    0.0000 C   0  0  0  0  0  0  0  0  0  0  0  0
   -6.1871   -1.5913    0.0000 O   0  0  0  0  0  0  0  0  0  0  0  0
    0.9167    0.9165    0.0000 C   0  0  0  0  0  0  0  0  0  0  0  0
    0.1041    0.3291    0.0000 C   0  0  0  0  0  0  0  0  0  0  0  0
   -6.7037   -2.4456    0.0000 C   0  0  0  0  0  0  0  0  0  0  0  0
    6.7037    1.2540    0.0000 C   0  0  0  0  0  0  0  0  0  0  0  0
  1  2  2  0
  2  3  1  0
  4  5  1  0
  3  4  2  0
  1  5  1  0
  6 11  2  0
  6  7  1  0
  8 12  1  0
  7  8  2  0
  1  9  1  0
  2 10  1  0
 11 26  1  0
 11 12  1  0
 10 13  3  0
  3 14  1  0
  9 15  1  0
  7 16  1  0
  4 17  1  0
 15 18  2  0
 16 19  2  0
 16 20  1  0
 14 21  1  0
 22 23  1  0
 20 23  2  0
 19 24  1  0
 22 24  2  0
 17 25  1  0
 21 25  1  0
 26 29  1  0
 22 27  1  0
 15 28  1  0
 28 29  1  0
 27 30  1  0
 25 31  1  0
M  END
>  <IDNUMBER>  (502) 
D321-0807

>  <available>  (502) 
128

>  <H_acceptor>  (502) 
7

>  <H_donor>  (502) 
1

>  <B_rotN>  (502) 
9

>  <N_O>  (502) 
7

>  <logP>  (502) 
4.8665

>  <logD>  (502) 
3.5533

>  <logSw>  (502) 
-4.7326

>  <PSA>  (502) 
78.774

>  <pKa_ma>  (502) 
6.1085

>  <pKa_mb>  (502) 
-4.0588

>  <N_Chirals>  (502) 
1

>  <Name>  (502) 
N-(3-cyano-6-methyl-4,5,6,7-tetrahydro-1-benzothiophen-2-yl)-4-[3-(4-methoxyphenyl)-1,2,4-oxadiazol-5-yl]butanamide

>  <Smile>  (502) 
CC(CC1)Cc2c1c(C#N)c(NC(CCCc1nc(-c(cc3)ccc3OC)no1)=O)s2

>  <Color>  (502) 
ORANGE

>  <Collection>  (502) 
DC

>  <InChI>  (502) 
InChI=1S/C23H24N4O3S/c1-14-6-11-17-18(13-24)23(31-19(17)12-14)25-20(28)4-3-5-21-26-22(27-30-21)15-7-9-16(29-2)10-8-15/h7-10,14H,3-6,11-12H2,1-2H3,(H,25,28)/t14-/m1/s1

>  <InChI Key>  (502) 
XLLNDVBSZBVZLD-CQSZACIVSA-N

>  <PERCENTSP3>  (502) 
39.1

>  <Link>  (502) 
https://www.chemdiv.com/catalog/screening-compounds/compound-D321-0807/

>  <MFCDNUMBER>  (502) 
MFCD09764581

>  <CLNUMBER>  (502) 
CL5000

>  <STEREO>  (502) 
RACEMIC MIXTURE

>  <State>  (502) 
Solid

>  <Similarity score>  (502) 
0.21

$$$$
2-amino-4,5,6,7-tetrahydro-1-benzothiophene-3-carbonitrile
     RDKit          2D

 12 13  0  0  0  0  0  0  0  0999 V2000
    0.5778   -0.0290    0.0000 C   0  0  0  0  0  0  0  0  0  0  0  0
    1.1355   -0.8321    0.0000 C   0  0  0  0  0  0  0  0  0  0  0  0
   -0.3994   -0.3280    0.0000 C   0  0  0  0  0  0  0  0  0  0  0  0
    0.5778   -1.6352    0.0000 S   0  0  0  0  0  0  0  0  0  0  0  0
   -0.3994   -1.3319    0.0000 C   0  0  0  0  0  0  0  0  0  0  0  0
    0.9213    0.9035    0.0000 C   0  0  0  0  0  0  0  0  0  0  0  0
    1.2604    1.8404    0.0000 N   0  0  0  0  0  0  0  0  0  0  0  0
    2.1304   -0.8321    0.0000 N   0  0  0  0  0  0  0  0  0  0  0  0
   -1.2693    0.1718    0.0000 C   0  0  0  0  0  0  0  0  0  0  0  0
   -1.2693   -1.8404    0.0000 C   0  0  0  0  0  0  0  0  0  0  0  0
   -2.1304   -0.3280    0.0000 C   0  0  0  0  0  0  0  0  0  0  0  0
   -2.1304   -1.3319    0.0000 C   0  0  0  0  0  0  0  0  0  0  0  0
  1  2  2  0
  1  3  1  0
  2  4  1  0
  3  5  2  0
  4  5  1  0
  1  6  1  0
  6  7  3  0
  2  8  1  0
  3  9  1  0
  5 10  1  0
  9 11  1  0
 11 12  1  0
 10 12  1  0
M  END
>  <IDNUMBER>  (503) 
0848-0050

>  <available>  (503) 
7

>  <H_acceptor>  (503) 
1

>  <H_donor>  (503) 
2

>  <B_rotN>  (503) 
1

>  <N_O>  (503) 
2

>  <logP>  (503) 
2.1463

>  <logD>  (503) 
2.1463

>  <logSw>  (503) 
-2.0208

>  <PSA>  (503) 
38.492

>  <pKa_ma>  (503) 
15.9936

>  <pKa_mb>  (503) 
-2.0609

>  <N_Chirals>  (503) 
0

>  <Name>  (503) 
2-amino-4,5,6,7-tetrahydro-1-benzothiophene-3-carbonitrile

>  <Smile>  (503) 
Nc(sc1c2CCCC1)c2C#N

>  <Color>  (503) 
ORANGE

>  <Collection>  (503) 
DC

>  <InChI>  (503) 
InChI=1S/C9H10N2S/c10-5-7-6-3-1-2-4-8(6)12-9(7)11/h1-4,11H2

>  <InChI Key>  (503) 
ADHVMGAFAKSNOM-UHFFFAOYSA-N

>  <PERCENTSP3>  (503) 
44.4

>  <Link>  (503) 
https://www.chemdiv.com/catalog/screening-compounds/compound-0848-0050/

>  <MFCDNUMBER>  (503) 
MFCD00128278

>  <STEREO>  (503) 
ACHIRAL

>  <State>  (503) 
Solid

>  <Similarity score>  (503) 
0.21

$$$$
2-amino-5,6,7,8-tetrahydro-4H-cyclohepta[b]thiophene-3-carbonitrile
     RDKit          2D

 13 14  0  0  0  0  0  0  0  0999 V2000
   -0.3355   -0.3963    0.0000 C   0  0  0  0  0  0  0  0  0  0  0  0
    0.1678   -1.2911    0.0000 C   0  0  0  0  0  0  0  0  0  0  0  0
    0.3449    0.3307    0.0000 C   0  0  0  0  0  0  0  0  0  0  0  0
    1.1282   -1.0674    0.0000 S   0  0  0  0  0  0  0  0  0  0  0  0
    1.2400   -0.0794    0.0000 C   0  0  0  0  0  0  0  0  0  0  0  0
   -1.3329   -0.2751    0.0000 C   0  0  0  0  0  0  0  0  0  0  0  0
   -2.3492   -0.1633    0.0000 N   0  0  0  0  0  0  0  0  0  0  0  0
   -0.3355   -2.1207    0.0000 N   0  0  0  0  0  0  0  0  0  0  0  0
    0.1118    1.3097    0.0000 C   0  0  0  0  0  0  0  0  0  0  0  0
    2.1348    0.3683    0.0000 C   0  0  0  0  0  0  0  0  0  0  0  0
    0.7270    2.1207    0.0000 C   0  0  0  0  0  0  0  0  0  0  0  0
    2.3492    1.3097    0.0000 C   0  0  0  0  0  0  0  0  0  0  0  0
    1.7340    2.1207    0.0000 C   0  0  0  0  0  0  0  0  0  0  0  0
  1  2  2  0
  1  3  1  0
  2  4  1  0
  3  5  2  0
  4  5  1  0
  1  6  1  0
  6  7  3  0
  2  8  1  0
  3  9  1  0
  5 10  1  0
  9 11  1  0
 10 12  1  0
 11 13  1  0
 12 13  1  0
M  END
>  <IDNUMBER>  (504) 
R052-0786

>  <available>  (504) 
327

>  <H_acceptor>  (504) 
1

>  <H_donor>  (504) 
2

>  <B_rotN>  (504) 
1

>  <N_O>  (504) 
2

>  <logP>  (504) 
2.6422

>  <logD>  (504) 
2.6422

>  <logSw>  (504) 
-2.7776

>  <PSA>  (504) 
38.822

>  <pKa_ma>  (504) 
15.9936

>  <pKa_mb>  (504) 
-1.0762

>  <N_Chirals>  (504) 
0

>  <Name>  (504) 
2-amino-5,6,7,8-tetrahydro-4H-cyclohepta[b]thiophene-3-carbonitrile

>  <Smile>  (504) 
Nc(sc1c2CCCCC1)c2C#N

>  <Color>  (504) 
ORANGE

>  <Collection>  (504) 
NC

>  <InChI>  (504) 
InChI=1S/C10H12N2S/c11-6-8-7-4-2-1-3-5-9(7)13-10(8)12/h1-5,12H2

>  <InChI Key>  (504) 
GBQACFCEZPKMTA-UHFFFAOYSA-N

>  <PERCENTSP3>  (504) 
50

>  <Link>  (504) 
https://www.chemdiv.com/catalog/screening-compounds/compound-R052-0786/

>  <MFCDNUMBER>  (504) 
MFCD00121496

>  <STEREO>  (504) 
ACHIRAL

>  <State>  (504) 
Solid

>  <Similarity score>  (504) 
0.21

$$$$
2-amino-4,5,6,7,8,9,10,11,12,13-decahydrocyclododeca[b]thiophene-3-carbonitrile
     RDKit          2D

 18 19  0  0  0  0  0  0  0  0999 V2000
    2.1285    0.2218    0.0000 C   0  0  0  0  0  0  0  0  0  0  0  0
    2.1285   -0.7769    0.0000 C   0  0  0  0  0  0  0  0  0  0  0  0
    0.5566    0.2218    0.0000 C   0  0  0  0  0  0  0  0  0  0  0  0
    1.3501   -1.2233    0.0000 S   0  0  0  0  0  0  0  0  0  0  0  0
    0.5566   -0.7527    0.0000 C   0  0  0  0  0  0  0  0  0  0  0  0
    2.9642    0.7457    0.0000 C   0  0  0  0  0  0  0  0  0  0  0  0
    3.8029    1.2687    0.0000 N   0  0  0  0  0  0  0  0  0  0  0  0
    2.9431   -1.2687    0.0000 N   0  0  0  0  0  0  0  0  0  0  0  0
   -0.4118    0.2218    0.0000 C   0  0  0  0  0  0  0  0  0  0  0  0
   -0.4058   -0.7527    0.0000 C   0  0  0  0  0  0  0  0  0  0  0  0
   -1.2505    0.6945    0.0000 C   0  0  0  0  0  0  0  0  0  0  0  0
   -1.2505   -1.2385    0.0000 C   0  0  0  0  0  0  0  0  0  0  0  0
   -3.8029    0.2067    0.0000 C   0  0  0  0  0  0  0  0  0  0  0  0
   -2.9582    0.6945    0.0000 C   0  0  0  0  0  0  0  0  0  0  0  0
   -2.1044    0.2067    0.0000 C   0  0  0  0  0  0  0  0  0  0  0  0
   -2.1044   -0.7527    0.0000 C   0  0  0  0  0  0  0  0  0  0  0  0
   -2.9582   -1.2385    0.0000 C   0  0  0  0  0  0  0  0  0  0  0  0
   -3.8029   -0.7527    0.0000 C   0  0  0  0  0  0  0  0  0  0  0  0
  1  2  2  0
  1  3  1  0
  2  4  1  0
  4  5  1  0
  3  5  2  0
  1  6  1  0
  6  7  3  0
  2  8  1  0
  3  9  1  0
  5 10  1  0
  9 11  1  0
 10 12  1  0
 13 14  1  0
 14 15  1  0
 11 15  1  0
 12 16  1  0
 16 17  1  0
 17 18  1  0
 13 18  1  0
M  END
>  <IDNUMBER>  (505) 
8003-0436

>  <available>  (505) 
24

>  <H_acceptor>  (505) 
1

>  <H_donor>  (505) 
2

>  <B_rotN>  (505) 
1

>  <N_O>  (505) 
2

>  <logP>  (505) 
5.1218

>  <logD>  (505) 
5.1218

>  <logSw>  (505) 
-5.2389

>  <PSA>  (505) 
38.822

>  <pKa_ma>  (505) 
15.9936

>  <pKa_mb>  (505) 
-1.1592

>  <N_Chirals>  (505) 
0

>  <Name>  (505) 
2-amino-4,5,6,7,8,9,10,11,12,13-decahydrocyclododeca[b]thiophene-3-carbonitrile

>  <Smile>  (505) 
Nc(sc1c2CCCCCCCCCC1)c2C#N

>  <Color>  (505) 
ORANGE

>  <Collection>  (505) 
DC

>  <InChI>  (505) 
InChI=1S/C15H22N2S/c16-11-13-12-9-7-5-3-1-2-4-6-8-10-14(12)18-15(13)17/h1-10,17H2

>  <InChI Key>  (505) 
NJKJOVJKMPBQIL-UHFFFAOYSA-N

>  <PERCENTSP3>  (505) 
66.7

>  <Link>  (505) 
https://www.chemdiv.com/catalog/screening-compounds/compound-8003-0436/

>  <MFCDNUMBER>  (505) 
MFCD00742783

>  <STEREO>  (505) 
ACHIRAL

>  <State>  (505) 
Solid

>  <Similarity score>  (505) 
0.21

$$$$
N-(3-cyano-4,5,6,7-tetrahydro-1-benzothiophen-2-yl)-4-(3-phenyl-1,2,4-oxadiazol-
     RDKit          2D

 28 31  0  0  0  0  0  0  0  0999 V2000
    2.2770    2.0584    0.0000 C   0  0  0  0  0  0  0  0  0  0  0  0
    2.4813    1.0708    0.0000 C   0  0  0  0  0  0  0  0  0  0  0  0
   -1.8189   -0.9293    0.0000 N   0  0  0  0  0  0  0  0  0  0  0  0
    3.1313    2.5502    0.0000 S   0  0  0  0  0  0  0  0  0  0  0  0
    3.4689    0.9707    0.0000 C   0  0  0  0  0  0  0  0  0  0  0  0
   -2.4314   -1.7167    0.0000 C   0  0  0  0  0  0  0  0  0  0  0  0
    3.8773    1.8958    0.0000 C   0  0  0  0  0  0  0  0  0  0  0  0
   -1.8688   -2.5502    0.0000 N   0  0  0  0  0  0  0  0  0  0  0  0
    1.3646    2.4626    0.0000 N   0  0  0  0  0  0  0  0  0  0  0  0
    1.8189    0.3209    0.0000 C   0  0  0  0  0  0  0  0  0  0  0  0
   -0.8812   -1.2543    0.0000 C   0  0  0  0  0  0  0  0  0  0  0  0
   -0.9105   -2.2668    0.0000 O   0  0  0  0  0  0  0  0  0  0  0  0
    1.1564   -0.4292    0.0000 N   0  0  0  0  0  0  0  0  0  0  0  0
    0.5520    1.8709    0.0000 C   0  0  0  0  0  0  0  0  0  0  0  0
   -3.4437   -1.6918    0.0000 C   0  0  0  0  0  0  0  0  0  0  0  0
   -0.3313    2.2709    0.0000 O   0  0  0  0  0  0  0  0  0  0  0  0
    4.0439    0.1582    0.0000 C   0  0  0  0  0  0  0  0  0  0  0  0
    4.8690    1.9832    0.0000 C   0  0  0  0  0  0  0  0  0  0  0  0
   -0.0563   -0.6751    0.0000 C   0  0  0  0  0  0  0  0  0  0  0  0
    0.6561    0.9126    0.0000 C   0  0  0  0  0  0  0  0  0  0  0  0
   -0.1564    0.3209    0.0000 C   0  0  0  0  0  0  0  0  0  0  0  0
   -3.9607   -2.5502    0.0000 C   0  0  0  0  0  0  0  0  0  0  0  0
   -3.9230   -0.8125    0.0000 C   0  0  0  0  0  0  0  0  0  0  0  0
    5.0564    0.2583    0.0000 C   0  0  0  0  0  0  0  0  0  0  0  0
    5.4564    1.1709    0.0000 C   0  0  0  0  0  0  0  0  0  0  0  0
   -4.9357   -0.7876    0.0000 C   0  0  0  0  0  0  0  0  0  0  0  0
   -4.9732   -2.5166    0.0000 C   0  0  0  0  0  0  0  0  0  0  0  0
   -5.4564   -1.6293    0.0000 C   0  0  0  0  0  0  0  0  0  0  0  0
  1  2  2  0
  3 11  2  0
  1  4  1  0
  2  5  1  0
  3  6  1  0
  4  7  1  0
  5  7  2  0
  8 12  1  0
  6  8  2  0
  1  9  1  0
  2 10  1  0
 11 19  1  0
 11 12  1  0
 10 13  3  0
  9 14  1  0
  6 15  1  0
 14 16  2  0
  5 17  1  0
  7 18  1  0
 19 21  1  0
 14 20  1  0
 20 21  1  0
 15 22  2  0
 15 23  1  0
 17 24  1  0
 18 25  1  0
 24 25  1  0
 23 26  2  0
 22 27  1  0
 27 28  2  0
 26 28  1  0
M  END
>  <IDNUMBER>  (506) 
D321-0073

>  <available>  (506) 
73

>  <H_acceptor>  (506) 
6

>  <H_donor>  (506) 
1

>  <B_rotN>  (506) 
8

>  <N_O>  (506) 
6

>  <logP>  (506) 
4.3451

>  <logD>  (506) 
3.0319

>  <logSw>  (506) 
-4.5909

>  <PSA>  (506) 
71.23

>  <pKa_ma>  (506) 
6.1085

>  <pKa_mb>  (506) 
-3.8515

>  <N_Chirals>  (506) 
0

>  <Name>  (506) 
N-(3-cyano-4,5,6,7-tetrahydro-1-benzothiophen-2-yl)-4-(3-phenyl-1,2,4-oxadiazol-5-yl)butanamide

>  <Smile>  (506) 
N#Cc1c(NC(CCCc2nc(-c3ccccc3)no2)=O)sc2c1CCCC2

>  <Color>  (506) 
BROWN

>  <Collection>  (506) 
DC

>  <InChI>  (506) 
InChI=1S/C21H20N4O2S/c22-13-16-15-9-4-5-10-17(15)28-21(16)23-18(26)11-6-12-19-24-20(25-27-19)14-7-2-1-3-8-14/h1-3,7-8H,4-6,9-12H2,(H,23,26)

>  <InChI Key>  (506) 
JSCZVXYKOMCNNE-UHFFFAOYSA-N

>  <PERCENTSP3>  (506) 
33.3

>  <Link>  (506) 
https://www.chemdiv.com/catalog/screening-compounds/compound-D321-0073/

>  <MFCDNUMBER>  (506) 
MFCD14819067

>  <CLNUMBER>  (506) 
CL5000

>  <STEREO>  (506) 
ACHIRAL

>  <State>  (506) 
Solid

>  <Similarity score>  (506) 
0.21

$$$$
N-(3-cyano-4,5,6,7-tetrahydro-1-benzothiophen-2-yl)-2-[(4-methylpyrimidin-2-yl)s
     RDKit          2D

 23 25  0  0  0  0  0  0  0  0999 V2000
    1.9102    0.1312    0.0000 C   0  0  0  0  0  0  0  0  0  0  0  0
    2.8311   -0.2729    0.0000 C   0  0  0  0  0  0  0  0  0  0  0  0
    2.0145    1.1312    0.0000 S   0  0  0  0  0  0  0  0  0  0  0  0
    3.4937    0.4646    0.0000 C   0  0  0  0  0  0  0  0  0  0  0  0
    2.9812    1.3438    0.0000 C   0  0  0  0  0  0  0  0  0  0  0  0
    1.0477   -0.3645    0.0000 N   0  0  0  0  0  0  0  0  0  0  0  0
    3.0394   -1.2395    0.0000 C   0  0  0  0  0  0  0  0  0  0  0  0
   -2.4062   -0.3812    0.0000 C   0  0  0  0  0  0  0  0  0  0  0  0
   -3.2731    0.1188    0.0000 N   0  0  0  0  0  0  0  0  0  0  0  0
    3.2518   -2.2188    0.0000 N   0  0  0  0  0  0  0  0  0  0  0  0
    0.1852    0.1188    0.0000 C   0  0  0  0  0  0  0  0  0  0  0  0
   -2.4062   -1.3936    0.0000 N   0  0  0  0  0  0  0  0  0  0  0  0
   -1.5479    0.1188    0.0000 S   0  0  0  0  0  0  0  0  0  0  0  0
    0.1770    1.1147    0.0000 O   0  0  0  0  0  0  0  0  0  0  0  0
   -4.1352   -0.3937    0.0000 C   0  0  0  0  0  0  0  0  0  0  0  0
   -0.6731   -0.3812    0.0000 C   0  0  0  0  0  0  0  0  0  0  0  0
   -3.2731   -1.8895    0.0000 C   0  0  0  0  0  0  0  0  0  0  0  0
    4.4935    0.4813    0.0000 C   0  0  0  0  0  0  0  0  0  0  0  0
   -4.1352   -1.3936    0.0000 C   0  0  0  0  0  0  0  0  0  0  0  0
    3.4812    2.2188    0.0000 C   0  0  0  0  0  0  0  0  0  0  0  0
   -4.9937    0.1021    0.0000 C   0  0  0  0  0  0  0  0  0  0  0  0
    4.9937    1.3438    0.0000 C   0  0  0  0  0  0  0  0  0  0  0  0
    4.4935    2.2188    0.0000 C   0  0  0  0  0  0  0  0  0  0  0  0
  1  2  2  0
  1  3  1  0
  2  4  1  0
  4  5  2  0
  3  5  1  0
  1  6  1  0
  2  7  1  0
  8 13  1  0
  8  9  2  0
  7 10  3  0
  6 11  1  0
  8 12  1  0
 13 16  1  0
 11 14  2  0
  9 15  1  0
 11 16  1  0
 12 17  2  0
  4 18  1  0
 17 19  1  0
 15 19  2  0
  5 20  1  0
 15 21  1  0
 18 22  1  0
 20 23  1  0
 22 23  1  0
M  END
>  <IDNUMBER>  (507) 
IB05-5403

>  <available>  (507) 
50

>  <H_acceptor>  (507) 
6

>  <H_donor>  (507) 
1

>  <B_rotN>  (507) 
6

>  <N_O>  (507) 
5

>  <logP>  (507) 
3.05

>  <logD>  (507) 
2.02

>  <logSw>  (507) 
-3.84

>  <PSA>  (507) 
163.76

>  <pKa_ma>  (507) 
6.41

>  <pKa_mb>  (507) 
1.45

>  <N_Chirals>  (507) 
0

>  <Name>  (507) 
N-(3-cyano-4,5,6,7-tetrahydro-1-benzothiophen-2-yl)-2-[(4-methylpyrimidin-2-yl)sulfanyl]acetamide

>  <Smile>  (507) 
Cc1ccnc(SCC(Nc(sc2c3CCCC2)c3C#N)=O)n1

>  <Color>  (507) 
NOT COLORED

>  <Collection>  (507) 
DC

>  <InChI>  (507) 
InChI=1S/C16H16N4OS2/c1-10-6-7-18-16(19-10)22-9-14(21)20-15-12(8-17)11-4-2-3-5-13(11)23-15/h6-7H,2-5,9H2,1H3,(H,20,21)

>  <InChI Key>  (507) 
JEZSJYMVVWXKKF-UHFFFAOYSA-N

>  <PERCENTSP3>  (507) 
37.5

>  <Link>  (507) 
https://www.chemdiv.com/catalog/screening-compounds/compound-IB05-5403/

>  <STEREO>  (507) 
ACHIRAL

>  <State>  (507) 
Solid

>  <Similarity score>  (507) 
0.21

$$$$
4-[3-(4-chlorophenyl)-1,2,4-oxadiazol-5-yl]-N-(3-cyano-4,5,6,7-tetrahydro-1-benz
     RDKit          2D

 29 32  0  0  0  0  0  0  0  0999 V2000
    2.7760    2.0576    0.0000 C   0  0  0  0  0  0  0  0  0  0  0  0
    2.9926    1.0663    0.0000 C   0  0  0  0  0  0  0  0  0  0  0  0
   -1.3182   -0.9327    0.0000 N   0  0  0  0  0  0  0  0  0  0  0  0
    3.6298    2.5447    0.0000 S   0  0  0  0  0  0  0  0  0  0  0  0
    3.9671    0.9705    0.0000 C   0  0  0  0  0  0  0  0  0  0  0  0
   -1.9346   -1.7201    0.0000 C   0  0  0  0  0  0  0  0  0  0  0  0
    4.3794    1.8909    0.0000 C   0  0  0  0  0  0  0  0  0  0  0  0
   -1.3683   -2.5447    0.0000 N   0  0  0  0  0  0  0  0  0  0  0  0
    1.8556    2.4575    0.0000 N   0  0  0  0  0  0  0  0  0  0  0  0
    2.3136    0.3081    0.0000 C   0  0  0  0  0  0  0  0  0  0  0  0
   -0.3812   -1.2578    0.0000 C   0  0  0  0  0  0  0  0  0  0  0  0
   -0.4062   -2.2699    0.0000 O   0  0  0  0  0  0  0  0  0  0  0  0
    1.6555   -0.4331    0.0000 N   0  0  0  0  0  0  0  0  0  0  0  0
    1.0559    1.8784    0.0000 C   0  0  0  0  0  0  0  0  0  0  0  0
   -2.9466   -1.6952    0.0000 C   0  0  0  0  0  0  0  0  0  0  0  0
    0.1645    2.2699    0.0000 O   0  0  0  0  0  0  0  0  0  0  0  0
   -3.4672   -2.5447    0.0000 C   0  0  0  0  0  0  0  0  0  0  0  0
   -3.4298   -0.8081    0.0000 C   0  0  0  0  0  0  0  0  0  0  0  0
   -4.9542   -1.6408    0.0000 C   0  0  0  0  0  0  0  0  0  0  0  0
    4.5419    0.1541    0.0000 C   0  0  0  0  0  0  0  0  0  0  0  0
   -4.4420   -0.7911    0.0000 C   0  0  0  0  0  0  0  0  0  0  0  0
   -4.4794   -2.5323    0.0000 C   0  0  0  0  0  0  0  0  0  0  0  0
    5.3749    1.9826    0.0000 C   0  0  0  0  0  0  0  0  0  0  0  0
   -5.9539   -1.5951    0.0000 Cl  0  0  0  0  0  0  0  0  0  0  0  0
    0.4395   -0.6787    0.0000 C   0  0  0  0  0  0  0  0  0  0  0  0
    1.1640    0.9082    0.0000 C   0  0  0  0  0  0  0  0  0  0  0  0
    0.3436    0.3208    0.0000 C   0  0  0  0  0  0  0  0  0  0  0  0
    5.5416    0.2582    0.0000 C   0  0  0  0  0  0  0  0  0  0  0  0
    5.9539    1.1662    0.0000 C   0  0  0  0  0  0  0  0  0  0  0  0
  1  2  2  0
  3 11  2  0
  1  4  1  0
  2  5  1  0
  3  6  1  0
  4  7  1  0
  5  7  2  0
  8 12  1  0
  6  8  2  0
  1  9  1  0
  2 10  1  0
 11 25  1  0
 11 12  1  0
 10 13  3  0
  9 14  1  0
  6 15  1  0
 14 16  2  0
 15 17  2  0
 15 18  1  0
 19 21  1  0
  5 20  1  0
 18 21  2  0
 17 22  1  0
 19 22  2  0
  7 23  1  0
 19 24  1  0
 25 27  1  0
 14 26  1  0
 26 27  1  0
 20 28  1  0
 23 29  1  0
 28 29  1  0
M  END
>  <IDNUMBER>  (508) 
D321-0411

>  <available>  (508) 
131

>  <H_acceptor>  (508) 
6

>  <H_donor>  (508) 
1

>  <B_rotN>  (508) 
8

>  <N_O>  (508) 
6

>  <logP>  (508) 
5.0449

>  <logD>  (508) 
3.7317

>  <logSw>  (508) 
-5.5402

>  <PSA>  (508) 
71.23

>  <pKa_ma>  (508) 
6.1085

>  <pKa_mb>  (508) 
-3.8515

>  <N_Chirals>  (508) 
0

>  <Name>  (508) 
4-[3-(4-chlorophenyl)-1,2,4-oxadiazol-5-yl]-N-(3-cyano-4,5,6,7-tetrahydro-1-benzothiophen-2-yl)butanamide

>  <Smile>  (508) 
N#Cc1c(NC(CCCc2nc(-c(cc3)ccc3Cl)no2)=O)sc2c1CCCC2

>  <Color>  (508) 
NOT COLORED

>  <Collection>  (508) 
DC

>  <InChI>  (508) 
InChI=1S/C21H19ClN4O2S/c22-14-10-8-13(9-11-14)20-25-19(28-26-20)7-3-6-18(27)24-21-16(12-23)15-4-1-2-5-17(15)29-21/h8-11H,1-7H2,(H,24,27)

>  <InChI Key>  (508) 
RLKNCKNRMYVAGU-UHFFFAOYSA-N

>  <PERCENTSP3>  (508) 
33.3

>  <Link>  (508) 
https://www.chemdiv.com/catalog/screening-compounds/compound-D321-0411/

>  <MFCDNUMBER>  (508) 
MFCD14819087

>  <CLNUMBER>  (508) 
CL5000

>  <STEREO>  (508) 
ACHIRAL

>  <State>  (508) 
Solid

>  <Similarity score>  (508) 
0.21

$$$$
N-(3-cyano-5,6,7,8-tetrahydro-4H-cyclohepta[b]thiophen-2-yl)-2-[(4-methylpyrimid
     RDKit          2D

 24 26  0  0  0  0  0  0  0  0999 V2000
    1.8143   -0.0229    0.0000 C   0  0  0  0  0  0  0  0  0  0  0  0
    2.7307   -0.4394    0.0000 C   0  0  0  0  0  0  0  0  0  0  0  0
    1.9184    0.9562    0.0000 S   0  0  0  0  0  0  0  0  0  0  0  0
    3.3973    0.3104    0.0000 C   0  0  0  0  0  0  0  0  0  0  0  0
    2.8973    1.1644    0.0000 C   0  0  0  0  0  0  0  0  0  0  0  0
    0.9435   -0.5229    0.0000 N   0  0  0  0  0  0  0  0  0  0  0  0
    2.9390   -1.4101    0.0000 C   0  0  0  0  0  0  0  0  0  0  0  0
   -2.5223   -0.5229    0.0000 C   0  0  0  0  0  0  0  0  0  0  0  0
   -3.3931   -0.0229    0.0000 N   0  0  0  0  0  0  0  0  0  0  0  0
    3.1347   -2.3932    0.0000 N   0  0  0  0  0  0  0  0  0  0  0  0
    0.0771   -0.0229    0.0000 C   0  0  0  0  0  0  0  0  0  0  0  0
   -2.5223   -1.5268    0.0000 N   0  0  0  0  0  0  0  0  0  0  0  0
   -1.6559   -0.0229    0.0000 S   0  0  0  0  0  0  0  0  0  0  0  0
    0.0771    0.9562    0.0000 O   0  0  0  0  0  0  0  0  0  0  0  0
   -4.2638   -0.5229    0.0000 C   0  0  0  0  0  0  0  0  0  0  0  0
   -0.7936   -0.5229    0.0000 C   0  0  0  0  0  0  0  0  0  0  0  0
   -3.3931   -2.0267    0.0000 C   0  0  0  0  0  0  0  0  0  0  0  0
    4.3845    0.1563    0.0000 C   0  0  0  0  0  0  0  0  0  0  0  0
   -4.2638   -1.5268    0.0000 C   0  0  0  0  0  0  0  0  0  0  0  0
    3.2640    2.1018    0.0000 C   0  0  0  0  0  0  0  0  0  0  0  0
   -5.1261   -0.0229    0.0000 C   0  0  0  0  0  0  0  0  0  0  0  0
    5.1261    0.8352    0.0000 C   0  0  0  0  0  0  0  0  0  0  0  0
    4.2221    2.3932    0.0000 C   0  0  0  0  0  0  0  0  0  0  0  0
    5.0511    1.8351    0.0000 C   0  0  0  0  0  0  0  0  0  0  0  0
  1  2  2  0
  1  3  1  0
  2  4  1  0
  4  5  2  0
  3  5  1  0
  1  6  1  0
  2  7  1  0
  8 13  1  0
  8  9  1  0
  7 10  3  0
  6 11  1  0
  8 12  2  0
 13 16  1  0
 11 14  2  0
  9 15  2  0
 11 16  1  0
 12 17  1  0
  4 18  1  0
 17 19  2  0
 15 19  1  0
  5 20  1  0
 15 21  1  0
 18 22  1  0
 22 24  1  0
 20 23  1  0
 23 24  1  0
M  END
>  <IDNUMBER>  (509) 
Y206-0447

>  <available>  (509) 
12

>  <H_acceptor>  (509) 
6

>  <H_donor>  (509) 
1

>  <B_rotN>  (509) 
6

>  <N_O>  (509) 
5

>  <logP>  (509) 
3.5509

>  <logD>  (509) 
2.5181

>  <logSw>  (509) 
-3.8866

>  <PSA>  (509) 
57.75

>  <pKa_ma>  (509) 
6.4095

>  <pKa_mb>  (509) 
0.036

>  <N_Chirals>  (509) 
0

>  <Name>  (509) 
N-(3-cyano-5,6,7,8-tetrahydro-4H-cyclohepta[b]thiophen-2-yl)-2-[(4-methylpyrimidin-2-yl)sulfanyl]acetamide

>  <Smile>  (509) 
Cc1ccnc(SCC(Nc(sc2c3CCCCC2)c3C#N)=O)n1

>  <Color>  (509) 
BROWN

>  <Collection>  (509) 
DC

>  <InChI>  (509) 
InChI=1S/C17H18N4OS2/c1-11-7-8-19-17(20-11)23-10-15(22)21-16-13(9-18)12-5-3-2-4-6-14(12)24-16/h7-8H,2-6,10H2,1H3,(H,21,22)

>  <InChI Key>  (509) 
XFJHMWAIDNSWDH-UHFFFAOYSA-N

>  <PERCENTSP3>  (509) 
41.18

>  <Link>  (509) 
https://www.chemdiv.com/catalog/screening-compounds/compound-Y206-0447/

>  <MFCDNUMBER>  (509) 
MFCD06157225

>  <STEREO>  (509) 
ACHIRAL

>  <State>  (509) 
Solid

>  <Similarity score>  (509) 
0.21

$$$$
N-(3-cyano-6-methyl-4,5,6,7-tetrahydro-1-benzothiophen-2-yl)-4-(3-phenyl-1,2,4-o
     RDKit          2D

 29 32  0  0  0  0  0  0  0  0999 V2000
    1.7771    2.0606    0.0000 C   0  0  0  0  0  0  0  0  0  0  0  0
    1.9897    1.0688    0.0000 C   0  0  0  0  0  0  0  0  0  0  0  0
    2.9690    0.9605    0.0000 C   0  0  0  0  0  0  0  0  0  0  0  0
    3.3897    1.8814    0.0000 C   0  0  0  0  0  0  0  0  0  0  0  0
    2.6440    2.5440    0.0000 S   0  0  0  0  0  0  0  0  0  0  0  0
   -2.3188   -0.9272    0.0000 N   0  0  0  0  0  0  0  0  0  0  0  0
   -2.9230   -1.7189    0.0000 C   0  0  0  0  0  0  0  0  0  0  0  0
   -2.3607   -2.5440    0.0000 N   0  0  0  0  0  0  0  0  0  0  0  0
    0.8646    2.4688    0.0000 N   0  0  0  0  0  0  0  0  0  0  0  0
    1.3188    0.3105    0.0000 C   0  0  0  0  0  0  0  0  0  0  0  0
   -1.3814   -1.2438    0.0000 C   0  0  0  0  0  0  0  0  0  0  0  0
   -1.4104   -2.2564    0.0000 O   0  0  0  0  0  0  0  0  0  0  0  0
    0.6396   -0.4272    0.0000 N   0  0  0  0  0  0  0  0  0  0  0  0
    3.5440    0.1562    0.0000 C   0  0  0  0  0  0  0  0  0  0  0  0
    0.0562    1.8814    0.0000 C   0  0  0  0  0  0  0  0  0  0  0  0
    4.3815    1.9689    0.0000 C   0  0  0  0  0  0  0  0  0  0  0  0
   -3.9357   -1.6813    0.0000 C   0  0  0  0  0  0  0  0  0  0  0  0
   -0.8311    2.2689    0.0000 O   0  0  0  0  0  0  0  0  0  0  0  0
    4.5397    0.2357    0.0000 C   0  0  0  0  0  0  0  0  0  0  0  0
    4.9565    1.1563    0.0000 C   0  0  0  0  0  0  0  0  0  0  0  0
   -0.5562   -0.6688    0.0000 C   0  0  0  0  0  0  0  0  0  0  0  0
    0.1562    0.9186    0.0000 C   0  0  0  0  0  0  0  0  0  0  0  0
   -0.6563    0.3230    0.0000 C   0  0  0  0  0  0  0  0  0  0  0  0
   -4.4690   -2.5440    0.0000 C   0  0  0  0  0  0  0  0  0  0  0  0
   -4.4191   -0.8064    0.0000 C   0  0  0  0  0  0  0  0  0  0  0  0
    5.9566    1.2438    0.0000 C   0  0  0  0  0  0  0  0  0  0  0  0
   -5.4732   -2.5187    0.0000 C   0  0  0  0  0  0  0  0  0  0  0  0
   -5.4315   -0.7812    0.0000 C   0  0  0  0  0  0  0  0  0  0  0  0
   -5.9566   -1.6271    0.0000 C   0  0  0  0  0  0  0  0  0  0  0  0
  1  2  2  0
  2  3  1  0
  4  5  1  0
  3  4  2  0
  1  5  1  0
  6 11  2  0
  6  7  1  0
  8 12  1  0
  7  8  2  0
  1  9  1  0
  2 10  1  0
 11 21  1  0
 11 12  1  0
 10 13  3  0
  3 14  1  0
  9 15  1  0
  4 16  1  0
  7 17  1  0
 15 18  2  0
 14 19  1  0
 16 20  1  0
 19 20  1  0
 21 23  1  0
 15 22  1  0
 22 23  1  0
 17 24  2  0
 17 25  1  0
 20 26  1  0
 24 27  1  0
 27 29  2  0
 25 28  2  0
 28 29  1  0
M  END
>  <IDNUMBER>  (510) 
D321-0131

>  <available>  (510) 
150

>  <H_acceptor>  (510) 
6

>  <H_donor>  (510) 
1

>  <B_rotN>  (510) 
8

>  <N_O>  (510) 
6

>  <logP>  (510) 
4.7791

>  <logD>  (510) 
3.4659

>  <logSw>  (510) 
-4.7143

>  <PSA>  (510) 
71.23

>  <pKa_ma>  (510) 
6.1085

>  <pKa_mb>  (510) 
-3.8515

>  <N_Chirals>  (510) 
1

>  <Name>  (510) 
N-(3-cyano-6-methyl-4,5,6,7-tetrahydro-1-benzothiophen-2-yl)-4-(3-phenyl-1,2,4-oxadiazol-5-yl)butanamide

>  <Smile>  (510) 
CC(CC1)Cc2c1c(C#N)c(NC(CCCc1nc(-c3ccccc3)no1)=O)s2

>  <Color>  (510) 
ORANGE

>  <Collection>  (510) 
DC

>  <InChI>  (510) 
InChI=1S/C22H22N4O2S/c1-14-10-11-16-17(13-23)22(29-18(16)12-14)24-19(27)8-5-9-20-25-21(26-28-20)15-6-3-2-4-7-15/h2-4,6-7,14H,5,8-12H2,1H3,(H,24,27)/t14-/m1/s1

>  <InChI Key>  (510) 
NLKYBZFYKWKHNJ-CQSZACIVSA-N

>  <PERCENTSP3>  (510) 
36.4

>  <Link>  (510) 
https://www.chemdiv.com/catalog/screening-compounds/compound-D321-0131/

>  <MFCDNUMBER>  (510) 
MFCD14819072

>  <CLNUMBER>  (510) 
CL5000

>  <STEREO>  (510) 
RACEMIC MIXTURE

>  <State>  (510) 
Solid

>  <Similarity score>  (510) 
0.21

$$$$
4-[3-(4-chlorophenyl)-1,2,4-oxadiazol-5-yl]-N-(3-cyano-6-methyl-4,5,6,7-tetrahyd
     RDKit          2D

 30 33  0  0  0  0  0  0  0  0999 V2000
    2.2786    2.0660    0.0000 C   0  0  0  0  0  0  0  0  0  0  0  0
    2.4911    1.0662    0.0000 C   0  0  0  0  0  0  0  0  0  0  0  0
    3.4657    0.9664    0.0000 C   0  0  0  0  0  0  0  0  0  0  0  0
    3.8781    1.8912    0.0000 C   0  0  0  0  0  0  0  0  0  0  0  0
    3.1367    2.5410    0.0000 S   0  0  0  0  0  0  0  0  0  0  0  0
   -1.8203   -0.9207    0.0000 N   0  0  0  0  0  0  0  0  0  0  0  0
   -2.4327   -1.7080    0.0000 C   0  0  0  0  0  0  0  0  0  0  0  0
   -1.8620   -2.5410    0.0000 N   0  0  0  0  0  0  0  0  0  0  0  0
    1.3538    2.4659    0.0000 N   0  0  0  0  0  0  0  0  0  0  0  0
    1.8038    0.3166    0.0000 C   0  0  0  0  0  0  0  0  0  0  0  0
   -0.8831   -1.2540    0.0000 C   0  0  0  0  0  0  0  0  0  0  0  0
   -0.9080   -2.2661    0.0000 O   0  0  0  0  0  0  0  0  0  0  0  0
    1.1288   -0.4291    0.0000 N   0  0  0  0  0  0  0  0  0  0  0  0
    4.0407    0.1540    0.0000 C   0  0  0  0  0  0  0  0  0  0  0  0
    0.5540    1.8912    0.0000 C   0  0  0  0  0  0  0  0  0  0  0  0
   -3.4448   -1.6913    0.0000 C   0  0  0  0  0  0  0  0  0  0  0  0
    4.8737    1.9785    0.0000 C   0  0  0  0  0  0  0  0  0  0  0  0
   -0.3333    2.2786    0.0000 O   0  0  0  0  0  0  0  0  0  0  0  0
   -3.9614   -2.5410    0.0000 C   0  0  0  0  0  0  0  0  0  0  0  0
   -3.9322   -0.8040    0.0000 C   0  0  0  0  0  0  0  0  0  0  0  0
    5.0361    0.2415    0.0000 C   0  0  0  0  0  0  0  0  0  0  0  0
   -5.4569   -1.6287    0.0000 C   0  0  0  0  0  0  0  0  0  0  0  0
   -4.9445   -0.7833    0.0000 C   0  0  0  0  0  0  0  0  0  0  0  0
   -4.9737   -2.5203    0.0000 C   0  0  0  0  0  0  0  0  0  0  0  0
    5.4487    1.1580    0.0000 C   0  0  0  0  0  0  0  0  0  0  0  0
   -6.4400   -1.5913    0.0000 Cl  0  0  0  0  0  0  0  0  0  0  0  0
   -0.0624   -0.6708    0.0000 C   0  0  0  0  0  0  0  0  0  0  0  0
    0.6623    0.9163    0.0000 C   0  0  0  0  0  0  0  0  0  0  0  0
   -0.1582    0.3290    0.0000 C   0  0  0  0  0  0  0  0  0  0  0  0
    6.4400    1.2538    0.0000 C   0  0  0  0  0  0  0  0  0  0  0  0
  1  2  2  0
  2  3  1  0
  4  5  1  0
  3  4  2  0
  1  5  1  0
  6 11  2  0
  6  7  1  0
  8 12  1  0
  7  8  2  0
  1  9  1  0
  2 10  1  0
 11 27  1  0
 11 12  1  0
 10 13  3  0
  3 14  1  0
  9 15  1  0
  7 16  1  0
  4 17  1  0
 15 18  2  0
 16 19  2  0
 16 20  1  0
 14 21  1  0
 22 23  1  0
 20 23  2  0
 19 24  1  0
 22 24  2  0
 17 25  1  0
 21 25  1  0
 22 26  1  0
 27 29  1  0
 15 28  1  0
 28 29  1  0
 25 30  1  0
M  END
>  <IDNUMBER>  (511) 
D321-0469

>  <available>  (511) 
97

>  <H_acceptor>  (511) 
6

>  <H_donor>  (511) 
1

>  <B_rotN>  (511) 
8

>  <N_O>  (511) 
6

>  <logP>  (511) 
5.4789

>  <logD>  (511) 
4.1657

>  <logSw>  (511) 
-6.1582

>  <PSA>  (511) 
71.23

>  <pKa_ma>  (511) 
6.1085

>  <pKa_mb>  (511) 
-3.8515

>  <N_Chirals>  (511) 
1

>  <Name>  (511) 
4-[3-(4-chlorophenyl)-1,2,4-oxadiazol-5-yl]-N-(3-cyano-6-methyl-4,5,6,7-tetrahydro-1-benzothiophen-2-yl)butanamide

>  <Smile>  (511) 
CC(CC1)Cc2c1c(C#N)c(NC(CCCc1nc(-c(cc3)ccc3Cl)no1)=O)s2

>  <Color>  (511) 
NOT COLORED

>  <Collection>  (511) 
DC

>  <InChI>  (511) 
InChI=1S/C22H21ClN4O2S/c1-13-5-10-16-17(12-24)22(30-18(16)11-13)25-19(28)3-2-4-20-26-21(27-29-20)14-6-8-15(23)9-7-14/h6-9,13H,2-5,10-11H2,1H3,(H,25,28)/t13-/m1/s1

>  <InChI Key>  (511) 
WEKULDGCPFUSPF-CYBMUJFWSA-N

>  <PERCENTSP3>  (511) 
36.4

>  <Link>  (511) 
https://www.chemdiv.com/catalog/screening-compounds/compound-D321-0469/

>  <MFCDNUMBER>  (511) 
MFCD14819089

>  <CLNUMBER>  (511) 
CL5000

>  <STEREO>  (511) 
RACEMIC MIXTURE

>  <State>  (511) 
Solid

>  <Similarity score>  (511) 
0.20

$$$$
2-({3-fluoro-3-[3-(pyridin-4-yl)-1,2,4-oxadiazol-5-yl]piperidin-1-yl}methyl)-6-m
     RDKit          2D

 27 30  0  0  0  0  0  0  0  0999 V2000
   -0.1395    2.2389    0.0000 N   0  0  0  0  0  0  0  0  0  0  0  0
    0.8444    2.3955    0.0000 C   0  0  0  0  0  0  0  0  0  0  0  0
   -0.5907    3.1320    0.0000 C   0  0  0  0  0  0  0  0  0  0  0  0
    1.5528    1.6906    0.0000 C   0  0  0  0  0  0  0  0  0  0  0  0
    0.1051    3.8338    0.0000 N   0  0  0  0  0  0  0  0  0  0  0  0
    0.9980    3.3763    0.0000 O   0  0  0  0  0  0  0  0  0  0  0  0
    3.0567    0.8256    0.0000 N   0  0  0  0  0  0  0  0  0  0  0  0
    3.5549   -1.7751    0.0000 N   0  0  0  0  0  0  0  0  0  0  0  0
    2.0510    0.8256    0.0000 C   0  0  0  0  0  0  0  0  0  0  0  0
    3.0567   -2.6431    0.0000 C   0  0  0  0  0  0  0  0  0  0  0  0
   -1.5776    3.2790    0.0000 C   0  0  0  0  0  0  0  0  0  0  0  0
    3.0567   -0.9104    0.0000 C   0  0  0  0  0  0  0  0  0  0  0  0
    3.5549   -0.0454    0.0000 C   0  0  0  0  0  0  0  0  0  0  0  0
    1.1671    0.7598    0.0000 F   0  0  0  0  0  0  0  0  0  0  0  0
   -3.5549    3.5988    0.0000 N   0  0  0  0  0  0  0  0  0  0  0  0
    2.0510    2.5554    0.0000 C   0  0  0  0  0  0  0  0  0  0  0  0
    3.5549   -3.5081    0.0000 O   0  0  0  0  0  0  0  0  0  0  0  0
    3.5549    1.6906    0.0000 C   0  0  0  0  0  0  0  0  0  0  0  0
    3.0567    2.5554    0.0000 C   0  0  0  0  0  0  0  0  0  0  0  0
    1.5528   -1.7751    0.0000 C   0  0  0  0  0  0  0  0  0  0  0  0
    2.0510   -2.6431    0.0000 C   0  0  0  0  0  0  0  0  0  0  0  0
   -3.1977    2.6587    0.0000 C   0  0  0  0  0  0  0  0  0  0  0  0
   -2.9250    4.3728    0.0000 C   0  0  0  0  0  0  0  0  0  0  0  0
    2.0510   -0.9104    0.0000 C   0  0  0  0  0  0  0  0  0  0  0  0
   -1.9381    4.2192    0.0000 C   0  0  0  0  0  0  0  0  0  0  0  0
   -2.2076    2.5116    0.0000 C   0  0  0  0  0  0  0  0  0  0  0  0
    3.0567   -4.3728    0.0000 C   0  0  0  0  0  0  0  0  0  0  0  0
  1  2  2  0
  1  3  1  0
  2  4  1  0
  3  5  2  0
  5  6  1  0
  2  6  1  0
  7  9  1  0
  8 12  2  0
  4  9  1  0
  8 10  1  0
  3 11  1  0
 12 13  1  0
  7 13  1  0
  4 14  1  0
 15 22  1  0
 15 23  2  0
  4 16  1  0
 10 17  1  0
 18 19  1  0
  7 18  1  0
 16 19  1  0
 20 24  2  0
 20 21  1  0
 10 21  2  0
 22 26  2  0
 23 25  1  0
 12 24  1  0
 11 25  2  0
 11 26  1  0
 17 27  1  0
M  END
>  <IDNUMBER>  (512) 
SA92-0282

>  <available>  (512) 
35

>  <H_acceptor>  (512) 
7

>  <H_donor>  (512) 
0

>  <B_rotN>  (512) 
5

>  <N_O>  (512) 
7

>  <logP>  (512) 
2.8635

>  <logD>  (512) 
2.5807

>  <logSw>  (512) 
-2.837

>  <PSA>  (512) 
61.294

>  <pKa_ma>  (512) 
26.9519

>  <pKa_mb>  (512) 
7.3627

>  <N_Chirals>  (512) 
1

>  <Name>  (512) 
2-({3-fluoro-3-[3-(pyridin-4-yl)-1,2,4-oxadiazol-5-yl]piperidin-1-yl}methyl)-6-methoxypyridine

>  <Smile>  (512) 
COc1cccc(CN(CCC2)CC2(c2nc(-c3ccncc3)no2)F)n1

>  <Color>  (512) 
BROWN

>  <Collection>  (512) 
IC

>  <InChI>  (512) 
InChI=1S/C19H20FN5O2/c1-26-16-5-2-4-15(22-16)12-25-11-3-8-19(20,13-25)18-23-17(24-27-18)14-6-9-21-10-7-14/h2,4-7,9-10H,3,8,11-13H2,1H3/t19-/m0/s1

>  <InChI Key>  (512) 
GCMWKYPPKPEIQH-IBGZPJMESA-N

>  <PERCENTSP3>  (512) 
36.84

>  <Link>  (512) 
https://www.chemdiv.com/catalog/screening-compounds/compound-SA92-0282/

>  <MFCDNUMBER>  (512) 
MFCD32242463

>  <CLNUMBER>  (512) 
CM4899

>  <STEREO>  (512) 
RACEMIC MIXTURE

>  <State>  (512) 
Oil

>  <Similarity score>  (512) 
0.20

$$$$
2-amino-6-methyl-4,5,6,7-tetrahydro-1-benzothiophene-3-carbonitrile
     RDKit          2D

 13 14  0  0  0  0  0  0  0  0999 V2000
    1.1928    0.2240    0.0000 C   0  0  0  0  0  0  0  0  0  0  0  0
    1.1928   -0.7084    0.0000 C   0  0  0  0  0  0  0  0  0  0  0  0
   -0.4331    0.2240    0.0000 C   0  0  0  0  0  0  0  0  0  0  0  0
   -0.4331   -0.7084    0.0000 C   0  0  0  0  0  0  0  0  0  0  0  0
    0.3787   -1.1700    0.0000 S   0  0  0  0  0  0  0  0  0  0  0  0
    2.0543    0.7163    0.0000 C   0  0  0  0  0  0  0  0  0  0  0  0
    2.9181    1.2102    0.0000 N   0  0  0  0  0  0  0  0  0  0  0  0
   -1.2449    0.6761    0.0000 C   0  0  0  0  0  0  0  0  0  0  0  0
   -1.2449   -1.1700    0.0000 C   0  0  0  0  0  0  0  0  0  0  0  0
    2.0543   -1.2102    0.0000 N   0  0  0  0  0  0  0  0  0  0  0  0
   -2.0567    0.2240    0.0000 C   0  0  0  0  0  0  0  0  0  0  0  0
   -2.0567   -0.7084    0.0000 C   0  0  0  0  0  0  0  0  0  0  0  0
   -2.9181   -1.2102    0.0000 C   0  0  0  0  0  0  0  0  0  0  0  0
  1  2  2  0
  1  3  1  0
  3  4  2  0
  4  5  1  0
  2  5  1  0
  1  6  1  0
  6  7  3  0
  3  8  1  0
  4  9  1  0
  9 12  1  0
  2 10  1  0
  8 11  1  0
 11 12  1  0
 12 13  1  0
M  END
>  <IDNUMBER>  (513) 
8002-2657

>  <available>  (513) 
19

>  <H_acceptor>  (513) 
1

>  <H_donor>  (513) 
2

>  <B_rotN>  (513) 
1

>  <N_O>  (513) 
2

>  <logP>  (513) 
2.5802

>  <logD>  (513) 
2.5802

>  <logSw>  (513) 
-2.7257

>  <PSA>  (513) 
38.492

>  <pKa_ma>  (513) 
15.9936

>  <pKa_mb>  (513) 
-2.1439

>  <N_Chirals>  (513) 
1

>  <Name>  (513) 
2-amino-6-methyl-4,5,6,7-tetrahydro-1-benzothiophene-3-carbonitrile

>  <Smile>  (513) 
CC(CC1)Cc2c1c(C#N)c(N)s2

>  <Color>  (513) 
NOT COLORED

>  <Collection>  (513) 
DC

>  <InChI>  (513) 
InChI=1S/C10H12N2S/c1-6-2-3-7-8(5-11)10(12)13-9(7)4-6/h6H,2-4,12H2,1H3/t6-/m1/s1

>  <InChI Key>  (513) 
VDMBPDMXBJUYMB-ZCFIWIBFSA-N

>  <PERCENTSP3>  (513) 
50

>  <Link>  (513) 
https://www.chemdiv.com/catalog/screening-compounds/compound-8002-2657/

>  <MFCDNUMBER>  (513) 
MFCD00128282

>  <STEREO>  (513) 
RACEMIC MIXTURE

>  <State>  (513) 
Solid

>  <Similarity score>  (513) 
0.20

$$$$
2-amino-7-methoxy-4,5-dihydronaphtho[2,1-b]thiophene-1-carbonitrile
     RDKit          2D

 18 20  0  0  0  0  0  0  0  0999 V2000
    1.8553    0.0355    0.0000 C   0  0  0  0  0  0  0  0  0  0  0  0
    0.9640   -0.4268    0.0000 C   0  0  0  0  0  0  0  0  0  0  0  0
    2.5632   -0.6642    0.0000 C   0  0  0  0  0  0  0  0  0  0  0  0
    1.1348   -1.4180    0.0000 C   0  0  0  0  0  0  0  0  0  0  0  0
    2.1426   -1.5428    0.0000 S   0  0  0  0  0  0  0  0  0  0  0  0
    0.0439   -0.1103    0.0000 C   0  0  0  0  0  0  0  0  0  0  0  0
    1.9802    1.0349    0.0000 C   0  0  0  0  0  0  0  0  0  0  0  0
   -0.7267   -0.7559    0.0000 C   0  0  0  0  0  0  0  0  0  0  0  0
    2.1176    2.0550    0.0000 N   0  0  0  0  0  0  0  0  0  0  0  0
   -0.1270    0.8724    0.0000 C   0  0  0  0  0  0  0  0  0  0  0  0
    0.3645   -2.0550    0.0000 C   0  0  0  0  0  0  0  0  0  0  0  0
   -1.6637   -0.4102    0.0000 C   0  0  0  0  0  0  0  0  0  0  0  0
   -0.5558   -1.7178    0.0000 C   0  0  0  0  0  0  0  0  0  0  0  0
    3.5709   -0.4976    0.0000 N   0  0  0  0  0  0  0  0  0  0  0  0
   -1.8426    0.5644    0.0000 C   0  0  0  0  0  0  0  0  0  0  0  0
   -1.0556    1.2097    0.0000 C   0  0  0  0  0  0  0  0  0  0  0  0
   -2.8088    0.9099    0.0000 O   0  0  0  0  0  0  0  0  0  0  0  0
   -3.5709    0.2728    0.0000 C   0  0  0  0  0  0  0  0  0  0  0  0
  1  2  1  0
  1  3  2  0
  2  4  2  0
  4  5  1  0
  3  5  1  0
  2  6  1  0
  1  7  1  0
  6  8  1  0
  7  9  3  0
  6 10  2  0
  4 11  1  0
  8 12  2  0
 12 15  1  0
  8 13  1  0
 11 13  1  0
  3 14  1  0
 15 16  2  0
 10 16  1  0
 15 17  1  0
 17 18  1  0
M  END
>  <IDNUMBER>  (514) 
Y203-3906

>  <available>  (514) 
14

>  <H_acceptor>  (514) 
2

>  <H_donor>  (514) 
2

>  <B_rotN>  (514) 
2

>  <N_O>  (514) 
3

>  <logP>  (514) 
3.1388

>  <logD>  (514) 
3.1388

>  <logSw>  (514) 
-3.3986

>  <PSA>  (514) 
45.764

>  <pKa_ma>  (514) 
19.2967

>  <pKa_mb>  (514) 
-4.5006

>  <N_Chirals>  (514) 
0

>  <Name>  (514) 
2-amino-7-methoxy-4,5-dihydronaphtho[2,1-b]thiophene-1-carbonitrile

>  <Smile>  (514) 
COc(cc1)cc(CC2)c1-c1c2sc(N)c1C#N

>  <Color>  (514) 
BROWN

>  <Collection>  (514) 
DC

>  <InChI>  (514) 
InChI=1S/C14H12N2OS/c1-17-9-3-4-10-8(6-9)2-5-12-13(10)11(7-15)14(16)18-12/h3-4,6H,2,5,16H2,1H3

>  <InChI Key>  (514) 
DARFGQSXUDRHIP-UHFFFAOYSA-N

>  <PERCENTSP3>  (514) 
21.43

>  <Link>  (514) 
https://www.chemdiv.com/catalog/screening-compounds/compound-Y203-3906/

>  <MFCDNUMBER>  (514) 
MFCD02853930

>  <STEREO>  (514) 
ACHIRAL

>  <State>  (514) 
Solid

>  <Similarity score>  (514) 
0.20

$$$$
4-[3-(2-chlorophenyl)-1,2,4-oxadiazol-5-yl]-N-(3-cyano-6-methyl-4,5,6,7-tetrahyd
     RDKit          2D

 30 33  0  0  0  0  0  0  0  0999 V2000
    1.7822    2.0654    0.0000 C   0  0  0  0  0  0  0  0  0  0  0  0
    1.9947    1.0661    0.0000 C   0  0  0  0  0  0  0  0  0  0  0  0
   -2.9272   -1.7074    0.0000 C   0  0  0  0  0  0  0  0  0  0  0  0
    2.9691    0.9660    0.0000 C   0  0  0  0  0  0  0  0  0  0  0  0
    3.3813    1.8906    0.0000 C   0  0  0  0  0  0  0  0  0  0  0  0
   -2.3151   -0.9203    0.0000 N   0  0  0  0  0  0  0  0  0  0  0  0
    2.6442    2.5401    0.0000 S   0  0  0  0  0  0  0  0  0  0  0  0
   -2.3567   -2.5401    0.0000 N   0  0  0  0  0  0  0  0  0  0  0  0
   -3.9394   -1.6907    0.0000 C   0  0  0  0  0  0  0  0  0  0  0  0
    0.8580    2.4652    0.0000 N   0  0  0  0  0  0  0  0  0  0  0  0
    1.3160    0.3165    0.0000 C   0  0  0  0  0  0  0  0  0  0  0  0
   -1.3701   -1.2535    0.0000 C   0  0  0  0  0  0  0  0  0  0  0  0
   -1.4032   -2.2653    0.0000 O   0  0  0  0  0  0  0  0  0  0  0  0
    0.6330   -0.4290    0.0000 N   0  0  0  0  0  0  0  0  0  0  0  0
    3.5437    0.1540    0.0000 C   0  0  0  0  0  0  0  0  0  0  0  0
    0.0584    1.8906    0.0000 C   0  0  0  0  0  0  0  0  0  0  0  0
    4.3806    1.9780    0.0000 C   0  0  0  0  0  0  0  0  0  0  0  0
   -4.4180   -0.8039    0.0000 C   0  0  0  0  0  0  0  0  0  0  0  0
   -0.8284    2.2777    0.0000 O   0  0  0  0  0  0  0  0  0  0  0  0
    4.5389    0.2414    0.0000 C   0  0  0  0  0  0  0  0  0  0  0  0
   -3.9018    0.0459    0.0000 Cl  0  0  0  0  0  0  0  0  0  0  0  0
    4.9513    1.1575    0.0000 C   0  0  0  0  0  0  0  0  0  0  0  0
   -4.4638   -2.5401    0.0000 C   0  0  0  0  0  0  0  0  0  0  0  0
   -0.5580   -0.6705    0.0000 C   0  0  0  0  0  0  0  0  0  0  0  0
    0.1666    0.9160    0.0000 C   0  0  0  0  0  0  0  0  0  0  0  0
   -0.6454    0.3289    0.0000 C   0  0  0  0  0  0  0  0  0  0  0  0
   -5.4300   -0.7829    0.0000 C   0  0  0  0  0  0  0  0  0  0  0  0
    5.9504    1.2535    0.0000 C   0  0  0  0  0  0  0  0  0  0  0  0
   -5.4675   -2.5193    0.0000 C   0  0  0  0  0  0  0  0  0  0  0  0
   -5.9504   -1.6282    0.0000 C   0  0  0  0  0  0  0  0  0  0  0  0
  1  2  2  0
  3  6  1  0
  2  4  1  0
  5  7  1  0
  4  5  2  0
  6 12  2  0
  1  7  1  0
  8 13  1  0
  3  8  2  0
  3  9  1  0
  1 10  1  0
  2 11  1  0
 12 24  1  0
 12 13  1  0
 11 14  3  0
  4 15  1  0
 10 16  1  0
  5 17  1  0
  9 18  1  0
 16 19  2  0
 15 20  1  0
 18 21  1  0
 17 22  1  0
 20 22  1  0
  9 23  2  0
 24 26  1  0
 16 25  1  0
 25 26  1  0
 18 27  2  0
 27 30  1  0
 22 28  1  0
 23 29  1  0
 29 30  2  0
M  END
>  <IDNUMBER>  (515) 
D321-0300

>  <available>  (515) 
275

>  <H_acceptor>  (515) 
6

>  <H_donor>  (515) 
1

>  <B_rotN>  (515) 
8

>  <N_O>  (515) 
6

>  <logP>  (515) 
5.0503

>  <logD>  (515) 
3.7371

>  <logSw>  (515) 
-5.1567

>  <PSA>  (515) 
71.23

>  <pKa_ma>  (515) 
6.1085

>  <pKa_mb>  (515) 
-3.8515

>  <N_Chirals>  (515) 
1

>  <Name>  (515) 
4-[3-(2-chlorophenyl)-1,2,4-oxadiazol-5-yl]-N-(3-cyano-6-methyl-4,5,6,7-tetrahydro-1-benzothiophen-2-yl)butanamide

>  <Smile>  (515) 
CC(CC1)Cc2c1c(C#N)c(NC(CCCc1nc(-c(cccc3)c3Cl)no1)=O)s2

>  <Color>  (515) 
BROWN

>  <Collection>  (515) 
DC

>  <InChI>  (515) 
InChI=1S/C22H21ClN4O2S/c1-13-9-10-14-16(12-24)22(30-18(14)11-13)25-19(28)7-4-8-20-26-21(27-29-20)15-5-2-3-6-17(15)23/h2-3,5-6,13H,4,7-11H2,1H3,(H,25,28)/t13-/m1/s1

>  <InChI Key>  (515) 
JEIZBYACTGUTQR-CYBMUJFWSA-N

>  <PERCENTSP3>  (515) 
36.4

>  <Link>  (515) 
https://www.chemdiv.com/catalog/screening-compounds/compound-D321-0300/

>  <MFCDNUMBER>  (515) 
MFCD09764499

>  <CLNUMBER>  (515) 
CL5000

>  <STEREO>  (515) 
RACEMIC MIXTURE

>  <State>  (515) 
Solid

>  <Similarity score>  (515) 
0.20

$$$$
2-({3-fluoro-3-[3-(pyridin-3-yl)-1,2,4-oxadiazol-5-yl]piperidin-1-yl}methyl)-6-m
     RDKit          2D

 27 30  0  0  0  0  0  0  0  0999 V2000
    0.0958   -1.3056    0.0000 N   0  0  0  0  0  0  0  0  0  0  0  0
    0.4539   -2.2427    0.0000 C   0  0  0  0  0  0  0  0  0  0  0  0
   -0.9037   -1.3639    0.0000 C   0  0  0  0  0  0  0  0  0  0  0  0
    1.4202   -2.5010    0.0000 C   0  0  0  0  0  0  0  0  0  0  0  0
   -1.1661   -2.3302    0.0000 N   0  0  0  0  0  0  0  0  0  0  0  0
   -0.3207   -2.8674    0.0000 O   0  0  0  0  0  0  0  0  0  0  0  0
    2.2822   -1.0058    0.0000 N   0  0  0  0  0  0  0  0  0  0  0  0
   -1.5326   -0.5810    0.0000 C   0  0  0  0  0  0  0  0  0  0  0  0
    1.4202    1.4973    0.0000 N   0  0  0  0  0  0  0  0  0  0  0  0
    1.4202   -1.5056    0.0000 C   0  0  0  0  0  0  0  0  0  0  0  0
    0.5539    1.9928    0.0000 C   0  0  0  0  0  0  0  0  0  0  0  0
    1.4202    0.4934    0.0000 C   0  0  0  0  0  0  0  0  0  0  0  0
   -3.1527    0.0354    0.0000 N   0  0  0  0  0  0  0  0  0  0  0  0
    2.2822   -0.0062    0.0000 C   0  0  0  0  0  0  0  0  0  0  0  0
    1.5451   -3.4921    0.0000 F   0  0  0  0  0  0  0  0  0  0  0  0
    2.2822   -3.0007    0.0000 C   0  0  0  0  0  0  0  0  0  0  0  0
   -2.5195   -0.7434    0.0000 C   0  0  0  0  0  0  0  0  0  0  0  0
    0.5539    2.9923    0.0000 O   0  0  0  0  0  0  0  0  0  0  0  0
    3.1527   -1.5056    0.0000 C   0  0  0  0  0  0  0  0  0  0  0  0
   -1.1786    0.3478    0.0000 C   0  0  0  0  0  0  0  0  0  0  0  0
    3.1527   -2.5010    0.0000 C   0  0  0  0  0  0  0  0  0  0  0  0
   -0.3166    0.4934    0.0000 C   0  0  0  0  0  0  0  0  0  0  0  0
   -0.3166    1.4973    0.0000 C   0  0  0  0  0  0  0  0  0  0  0  0
   -2.7903    0.9683    0.0000 C   0  0  0  0  0  0  0  0  0  0  0  0
    0.5539   -0.0062    0.0000 C   0  0  0  0  0  0  0  0  0  0  0  0
   -0.3166    3.4921    0.0000 C   0  0  0  0  0  0  0  0  0  0  0  0
   -1.8033    1.1224    0.0000 C   0  0  0  0  0  0  0  0  0  0  0  0
  1  2  2  0
  1  3  1  0
  2  4  1  0
  3  5  2  0
  5  6  1  0
  2  6  1  0
  7 10  1  0
  7 19  1  0
  3  8  1  0
  9 12  2  0
  4 10  1  0
  9 11  1  0
 11 23  2  0
 12 14  1  0
 13 17  2  0
 13 24  1  0
  7 14  1  0
  4 15  1  0
  4 16  1  0
  8 17  1  0
 11 18  1  0
 19 21  1  0
  8 20  2  0
 16 21  1  0
 22 25  2  0
 22 23  1  0
 24 27  2  0
 12 25  1  0
 18 26  1  0
 20 27  1  0
M  END
>  <IDNUMBER>  (516) 
SA92-0603

>  <available>  (516) 
65

>  <H_acceptor>  (516) 
7

>  <H_donor>  (516) 
0

>  <B_rotN>  (516) 
5

>  <N_O>  (516) 
7

>  <logP>  (516) 
2.6319

>  <logD>  (516) 
1.9932

>  <logSw>  (516) 
-2.3518

>  <PSA>  (516) 
61.383

>  <pKa_ma>  (516) 
26.9519

>  <pKa_mb>  (516) 
7.9253

>  <N_Chirals>  (516) 
1

>  <Name>  (516) 
2-({3-fluoro-3-[3-(pyridin-3-yl)-1,2,4-oxadiazol-5-yl]piperidin-1-yl}methyl)-6-methoxypyridine

>  <Smile>  (516) 
COc1cccc(CN(CCC2)CC2(c2nc(-c3cnccc3)no2)F)n1

>  <Color>  (516) 
BROWN

>  <Collection>  (516) 
IC

>  <InChI>  (516) 
InChI=1S/C19H20FN5O2/c1-26-16-7-2-6-15(22-16)12-25-10-4-8-19(20,13-25)18-23-17(24-27-18)14-5-3-9-21-11-14/h2-3,5-7,9,11H,4,8,10,12-13H2,1H3/t19-/m0/s1

>  <InChI Key>  (516) 
UCLWADBLORRJDC-IBGZPJMESA-N

>  <PERCENTSP3>  (516) 
36.84

>  <Link>  (516) 
https://www.chemdiv.com/catalog/screening-compounds/compound-SA92-0603/

>  <MFCDNUMBER>  (516) 
MFCD32243092

>  <CLNUMBER>  (516) 
CM4899

>  <STEREO>  (516) 
RACEMIC MIXTURE

>  <State>  (516) 
Liquid

>  <Similarity score>  (516) 
0.20

$$$$
2-amino-6-tert-butyl-4,5,6,7-tetrahydro-1-benzothiophene-3-carbonitrile
     RDKit          2D

 16 17  0  0  0  0  0  0  0  0999 V2000
    1.4271    0.4072    0.0000 C   0  0  0  0  0  0  0  0  0  0  0  0
    1.9993   -0.4100    0.0000 C   0  0  0  0  0  0  0  0  0  0  0  0
    0.4664   -0.9057    0.0000 C   0  0  0  0  0  0  0  0  0  0  0  0
    0.4664    0.1106    0.0000 C   0  0  0  0  0  0  0  0  0  0  0  0
    1.4271   -1.2203    0.0000 S   0  0  0  0  0  0  0  0  0  0  0  0
    1.7528    1.3386    0.0000 C   0  0  0  0  0  0  0  0  0  0  0  0
   -0.3996   -1.4208    0.0000 C   0  0  0  0  0  0  0  0  0  0  0  0
    2.0786    2.2687    0.0000 N   0  0  0  0  0  0  0  0  0  0  0  0
   -0.3996    0.6063    0.0000 C   0  0  0  0  0  0  0  0  0  0  0  0
   -1.2655   -0.9057    0.0000 C   0  0  0  0  0  0  0  0  0  0  0  0
   -2.1343   -1.4027    0.0000 C   0  0  0  0  0  0  0  0  0  0  0  0
    2.9934   -0.4100    0.0000 N   0  0  0  0  0  0  0  0  0  0  0  0
   -1.2655    0.1106    0.0000 C   0  0  0  0  0  0  0  0  0  0  0  0
   -2.9934   -1.8831    0.0000 C   0  0  0  0  0  0  0  0  0  0  0  0
   -1.6372   -2.2687    0.0000 C   0  0  0  0  0  0  0  0  0  0  0  0
   -2.6313   -0.5340    0.0000 C   0  0  0  0  0  0  0  0  0  0  0  0
  1  2  2  0
  3  4  2  0
  3  5  1  0
  1  4  1  0
  2  5  1  0
  1  6  1  0
  3  7  1  0
  6  8  3  0
  4  9  1  0
 10 13  1  0
 10 11  1  0
  7 10  1  0
 11 14  1  0
  2 12  1  0
  9 13  1  0
 11 15  1  0
 11 16  1  0
M  END
>  <IDNUMBER>  (517) 
8010-3876

>  <available>  (517) 
13

>  <H_acceptor>  (517) 
1

>  <H_donor>  (517) 
2

>  <B_rotN>  (517) 
2

>  <N_O>  (517) 
2

>  <logP>  (517) 
3.7035

>  <logD>  (517) 
3.7035

>  <logSw>  (517) 
-4.2816

>  <PSA>  (517) 
38.492

>  <pKa_ma>  (517) 
15.9936

>  <pKa_mb>  (517) 
-2.1439

>  <N_Chirals>  (517) 
1

>  <Name>  (517) 
2-amino-6-tert-butyl-4,5,6,7-tetrahydro-1-benzothiophene-3-carbonitrile

>  <Smile>  (517) 
CC(C)(C)C(CC1)Cc2c1c(C#N)c(N)s2

>  <Color>  (517) 
NOT COLORED

>  <Collection>  (517) 
DC

>  <InChI>  (517) 
InChI=1S/C13H18N2S/c1-13(2,3)8-4-5-9-10(7-14)12(15)16-11(9)6-8/h8H,4-6,15H2,1-3H3/t8-/m1/s1

>  <InChI Key>  (517) 
QDIYAWBTKKYATE-MRVPVSSYSA-N

>  <PERCENTSP3>  (517) 
61.5

>  <Link>  (517) 
https://www.chemdiv.com/catalog/screening-compounds/compound-8010-3876/

>  <MFCDNUMBER>  (517) 
MFCD00128283

>  <STEREO>  (517) 
RACEMIC MIXTURE

>  <State>  (517) 
Solid

>  <Similarity score>  (517) 
0.20

$$$$
N-(3-cyano-6-methyl-4,5,6,7-tetrahydro-1-benzothiophen-2-yl)-2-[(4-methylpyrimid
     RDKit          2D

 24 26  0  0  0  0  0  0  0  0999 V2000
    1.9234   -0.2854    0.0000 C   0  0  0  0  0  0  0  0  0  0  0  0
    2.8402   -0.6898    0.0000 C   0  0  0  0  0  0  0  0  0  0  0  0
    3.5071    0.0602    0.0000 C   0  0  0  0  0  0  0  0  0  0  0  0
    3.0111    0.9148    0.0000 C   0  0  0  0  0  0  0  0  0  0  0  0
    2.0276    0.7104    0.0000 S   0  0  0  0  0  0  0  0  0  0  0  0
    1.0564   -0.7856    0.0000 N   0  0  0  0  0  0  0  0  0  0  0  0
    3.0403   -1.6650    0.0000 C   0  0  0  0  0  0  0  0  0  0  0  0
   -2.4069   -0.7856    0.0000 C   0  0  0  0  0  0  0  0  0  0  0  0
   -3.2737   -0.2854    0.0000 N   0  0  0  0  0  0  0  0  0  0  0  0
    3.2529   -2.6485    0.0000 N   0  0  0  0  0  0  0  0  0  0  0  0
    0.1937   -0.2854    0.0000 C   0  0  0  0  0  0  0  0  0  0  0  0
    4.5115    0.0602    0.0000 C   0  0  0  0  0  0  0  0  0  0  0  0
   -2.4069   -1.7817    0.0000 N   0  0  0  0  0  0  0  0  0  0  0  0
    3.5071    1.7816    0.0000 C   0  0  0  0  0  0  0  0  0  0  0  0
   -1.5401   -0.2854    0.0000 S   0  0  0  0  0  0  0  0  0  0  0  0
    0.1937    0.7272    0.0000 O   0  0  0  0  0  0  0  0  0  0  0  0
   -4.1364   -0.7856    0.0000 C   0  0  0  0  0  0  0  0  0  0  0  0
   -0.6732   -0.7856    0.0000 C   0  0  0  0  0  0  0  0  0  0  0  0
   -3.2737   -2.2819    0.0000 C   0  0  0  0  0  0  0  0  0  0  0  0
    5.0075    0.9148    0.0000 C   0  0  0  0  0  0  0  0  0  0  0  0
   -4.1364   -1.7817    0.0000 C   0  0  0  0  0  0  0  0  0  0  0  0
    4.5115    1.7816    0.0000 C   0  0  0  0  0  0  0  0  0  0  0  0
   -5.0075   -0.2854    0.0000 C   0  0  0  0  0  0  0  0  0  0  0  0
    5.0075    2.6485    0.0000 C   0  0  0  0  0  0  0  0  0  0  0  0
  1  2  2  0
  2  3  1  0
  4  5  1  0
  3  4  2  0
  1  5  1  0
  1  6  1  0
  2  7  1  0
  8 15  1  0
  8  9  1  0
  7 10  3  0
  6 11  1  0
  3 12  1  0
  8 13  2  0
  4 14  1  0
 15 18  1  0
 11 16  2  0
  9 17  2  0
 11 18  1  0
 13 19  1  0
 12 20  1  0
 19 21  2  0
 17 21  1  0
 14 22  1  0
 20 22  1  0
 17 23  1  0
 22 24  1  0
M  END
>  <IDNUMBER>  (518) 
Y205-9572

>  <available>  (518) 
15

>  <H_acceptor>  (518) 
6

>  <H_donor>  (518) 
1

>  <B_rotN>  (518) 
6

>  <N_O>  (518) 
5

>  <logP>  (518) 
3.4889

>  <logD>  (518) 
2.4562

>  <logSw>  (518) 
-3.9517

>  <PSA>  (518) 
57.419

>  <pKa_ma>  (518) 
6.4095

>  <pKa_mb>  (518) 
0.036

>  <N_Chirals>  (518) 
1

>  <Name>  (518) 
N-(3-cyano-6-methyl-4,5,6,7-tetrahydro-1-benzothiophen-2-yl)-2-[(4-methylpyrimidin-2-yl)sulfanyl]acetamide

>  <Smile>  (518) 
CC(CC1)Cc2c1c(C#N)c(NC(CSc1nc(C)ccn1)=O)s2

>  <Color>  (518) 
YELLOW

>  <Collection>  (518) 
DC

>  <InChI>  (518) 
InChI=1S/C17H18N4OS2/c1-10-3-4-12-13(8-18)16(24-14(12)7-10)21-15(22)9-23-17-19-6-5-11(2)20-17/h5-6,10H,3-4,7,9H2,1-2H3,(H,21,22)/t10-/m1/s1

>  <InChI Key>  (518) 
GQRWEEVSTZMFDM-SNVBAGLBSA-N

>  <PERCENTSP3>  (518) 
41.18

>  <Link>  (518) 
https://www.chemdiv.com/catalog/screening-compounds/compound-Y205-9572/

>  <MFCDNUMBER>  (518) 
MFCD07048720

>  <STEREO>  (518) 
RACEMIC MIXTURE

>  <State>  (518) 
Solid

>  <Similarity score>  (518) 
0.20

$$$$
2-amino-6-ethyl-4,5,6,7-tetrahydro-1-benzothiophene-3-carbonitrile
     RDKit          2D

 14 15  0  0  0  0  0  0  0  0999 V2000
    1.2479   -0.1146    0.0000 C   0  0  0  0  0  0  0  0  0  0  0  0
    0.9189   -1.0647    0.0000 C   0  0  0  0  0  0  0  0  0  0  0  0
    0.4271    0.4772    0.0000 C   0  0  0  0  0  0  0  0  0  0  0  0
   -0.3604   -0.1146    0.0000 C   0  0  0  0  0  0  0  0  0  0  0  0
   -0.0646   -1.0647    0.0000 S   0  0  0  0  0  0  0  0  0  0  0  0
    2.1856    0.1812    0.0000 C   0  0  0  0  0  0  0  0  0  0  0  0
    3.1233    0.4772    0.0000 N   0  0  0  0  0  0  0  0  0  0  0  0
    0.3271    1.4606    0.0000 C   0  0  0  0  0  0  0  0  0  0  0  0
   -1.2813    0.3146    0.0000 C   0  0  0  0  0  0  0  0  0  0  0  0
    1.5440   -1.8898    0.0000 N   0  0  0  0  0  0  0  0  0  0  0  0
   -0.5605    1.8898    0.0000 C   0  0  0  0  0  0  0  0  0  0  0  0
   -1.4148    1.2980    0.0000 C   0  0  0  0  0  0  0  0  0  0  0  0
   -2.3357    1.6606    0.0000 C   0  0  0  0  0  0  0  0  0  0  0  0
   -3.1233    1.0355    0.0000 C   0  0  0  0  0  0  0  0  0  0  0  0
  1  2  2  0
  1  3  1  0
  3  4  2  0
  4  5  1  0
  2  5  1  0
  1  6  1  0
  6  7  3  0
  3  8  1  0
  4  9  1  0
  9 12  1  0
  2 10  1  0
  8 11  1  0
 11 12  1  0
 12 13  1  0
 13 14  1  0
M  END
>  <IDNUMBER>  (519) 
Y503-0029

>  <available>  (519) 
19

>  <H_acceptor>  (519) 
1

>  <H_donor>  (519) 
2

>  <B_rotN>  (519) 
2

>  <N_O>  (519) 
2

>  <logP>  (519) 
3.1257

>  <logD>  (519) 
3.1257

>  <logSw>  (519) 
-3.2209

>  <PSA>  (519) 
38.492

>  <pKa_ma>  (519) 
15.9936

>  <pKa_mb>  (519) 
-2.1439

>  <N_Chirals>  (519) 
1

>  <Name>  (519) 
2-amino-6-ethyl-4,5,6,7-tetrahydro-1-benzothiophene-3-carbonitrile

>  <Smile>  (519) 
CCC(CC1)Cc2c1c(C#N)c(N)s2

>  <Color>  (519) 
ORANGE

>  <Collection>  (519) 
DC

>  <InChI>  (519) 
InChI=1S/C11H14N2S/c1-2-7-3-4-8-9(6-12)11(13)14-10(8)5-7/h7H,2-5,13H2,1H3/t7-/m1/s1

>  <InChI Key>  (519) 
UJSSIVVJQQNBCO-SSDOTTSWSA-N

>  <PERCENTSP3>  (519) 
54.55

>  <Link>  (519) 
https://www.chemdiv.com/catalog/screening-compounds/compound-Y503-0029/

>  <MFCDNUMBER>  (519) 
MFCD01114964

>  <STEREO>  (519) 
RACEMIC MIXTURE

>  <State>  (519) 
Solid

>  <Similarity score>  (519) 
0.20

$$$$
2-{[3-fluoro-3-(3-phenyl-1,2,4-oxadiazol-5-yl)piperidin-1-yl]methyl}-6-methoxypy
     RDKit          2D

 27 30  0  0  0  0  0  0  0  0999 V2000
    0.1362    2.2426    0.0000 N   0  0  0  0  0  0  0  0  0  0  0  0
   -0.8566    2.3994    0.0000 C   0  0  0  0  0  0  0  0  0  0  0  0
    0.5905    3.1356    0.0000 C   0  0  0  0  0  0  0  0  0  0  0  0
   -1.5551    1.6946    0.0000 C   0  0  0  0  0  0  0  0  0  0  0  0
   -0.1176    3.8371    0.0000 N   0  0  0  0  0  0  0  0  0  0  0  0
   -1.0070    3.3798    0.0000 O   0  0  0  0  0  0  0  0  0  0  0  0
   -3.0587    0.8238    0.0000 N   0  0  0  0  0  0  0  0  0  0  0  0
   -3.5568   -1.7728    0.0000 N   0  0  0  0  0  0  0  0  0  0  0  0
   -2.0627    0.8238    0.0000 C   0  0  0  0  0  0  0  0  0  0  0  0
   -3.0587   -2.6376    0.0000 C   0  0  0  0  0  0  0  0  0  0  0  0
    1.5772    3.2827    0.0000 C   0  0  0  0  0  0  0  0  0  0  0  0
   -3.0587   -0.9083    0.0000 C   0  0  0  0  0  0  0  0  0  0  0  0
   -3.5568   -0.0438    0.0000 C   0  0  0  0  0  0  0  0  0  0  0  0
   -1.1763    0.7644    0.0000 F   0  0  0  0  0  0  0  0  0  0  0  0
   -2.0627    2.5591    0.0000 C   0  0  0  0  0  0  0  0  0  0  0  0
   -3.5568   -3.5081    0.0000 O   0  0  0  0  0  0  0  0  0  0  0  0
   -3.5568    1.6946    0.0000 C   0  0  0  0  0  0  0  0  0  0  0  0
   -3.0587    2.5591    0.0000 C   0  0  0  0  0  0  0  0  0  0  0  0
   -1.5551   -1.7728    0.0000 C   0  0  0  0  0  0  0  0  0  0  0  0
   -2.0627   -2.6376    0.0000 C   0  0  0  0  0  0  0  0  0  0  0  0
   -2.0627   -0.9083    0.0000 C   0  0  0  0  0  0  0  0  0  0  0  0
    1.9341    4.2223    0.0000 C   0  0  0  0  0  0  0  0  0  0  0  0
    2.2068    2.5120    0.0000 C   0  0  0  0  0  0  0  0  0  0  0  0
   -3.0587   -4.3759    0.0000 C   0  0  0  0  0  0  0  0  0  0  0  0
    2.9272    4.3759    0.0000 C   0  0  0  0  0  0  0  0  0  0  0  0
    3.1996    2.6625    0.0000 C   0  0  0  0  0  0  0  0  0  0  0  0
    3.5568    3.6022    0.0000 C   0  0  0  0  0  0  0  0  0  0  0  0
  1  2  2  0
  1  3  1  0
  2  4  1  0
  3  5  2  0
  5  6  1  0
  2  6  1  0
  7  9  1  0
  8 12  2  0
  4  9  1  0
  8 10  1  0
  3 11  1  0
 12 13  1  0
  7 13  1  0
  4 14  1  0
  4 15  1  0
 10 16  1  0
 17 18  1  0
  7 17  1  0
 15 18  1  0
 19 21  2  0
 19 20  1  0
 10 20  2  0
 12 21  1  0
 11 22  2  0
 11 23  1  0
 16 24  1  0
 22 25  1  0
 23 26  2  0
 26 27  1  0
 25 27  2  0
M  END
>  <IDNUMBER>  (520) 
SA92-0077

>  <available>  (520) 
49

>  <H_acceptor>  (520) 
6

>  <H_donor>  (520) 
0

>  <B_rotN>  (520) 
5

>  <N_O>  (520) 
6

>  <logP>  (520) 
4.0075

>  <logD>  (520) 
3.7247

>  <logSw>  (520) 
-4.1279

>  <PSA>  (520) 
51.866

>  <pKa_ma>  (520) 
26.9519

>  <pKa_mb>  (520) 
7.3627

>  <N_Chirals>  (520) 
1

>  <Name>  (520) 
2-{[3-fluoro-3-(3-phenyl-1,2,4-oxadiazol-5-yl)piperidin-1-yl]methyl}-6-methoxypyridine

>  <Smile>  (520) 
COc1cccc(CN(CCC2)CC2(c2nc(-c3ccccc3)no2)F)n1

>  <Color>  (520) 
YELLOW

>  <Collection>  (520) 
IC

>  <InChI>  (520) 
InChI=1S/C20H21FN4O2/c1-26-17-10-5-9-16(22-17)13-25-12-6-11-20(21,14-25)19-23-18(24-27-19)15-7-3-2-4-8-15/h2-5,7-10H,6,11-14H2,1H3/t20-/m0/s1

>  <InChI Key>  (520) 
LRELFQGZKVTTRX-FQEVSTJZSA-N

>  <PERCENTSP3>  (520) 
35

>  <Link>  (520) 
https://www.chemdiv.com/catalog/screening-compounds/compound-SA92-0077/

>  <MFCDNUMBER>  (520) 
MFCD32242320

>  <CLNUMBER>  (520) 
CM4899

>  <STEREO>  (520) 
RACEMIC MIXTURE

>  <State>  (520) 
Liquid

>  <Similarity score>  (520) 
0.20

$$$$
2-amino-5-propyl-4,7-dihydro-5H-thieno[2,3-c]pyran-3-carbonitrile
     RDKit          2D

 17 18  0  0  0  0  0  0  0  0999 V2000
    2.0668    0.4792    0.0000 C   0  0  0  0  0  0  0  0  0  0  0  0
    0.4166    0.4667    0.0000 C   0  0  0  0  0  0  0  0  0  0  0  0
    2.0710   -0.4959    0.0000 C   0  0  0  0  0  0  0  0  0  0  0  0
    1.2334   -0.9709    0.0000 S   0  0  0  0  0  0  0  0  0  0  0  0
    0.4166   -0.4959    0.0000 C   0  0  0  0  0  0  0  0  0  0  0  0
    2.8960    0.9709    0.0000 C   0  0  0  0  0  0  0  0  0  0  0  0
    2.8918    1.9293    0.0000 N   0  0  0  0  0  0  0  0  0  0  0  0
   -0.4335    0.9542    0.0000 C   0  0  0  0  0  0  0  0  0  0  0  0
   -1.2543   -0.5042    0.0000 O   0  0  0  0  0  0  0  0  0  0  0  0
   -0.4166   -0.9917    0.0000 C   0  0  0  0  0  0  0  0  0  0  0  0
    2.9210   -0.9709    0.0000 N   0  0  0  0  0  0  0  0  0  0  0  0
   -1.2543    0.4667    0.0000 C   0  0  0  0  0  0  0  0  0  0  0  0
   -2.0835    0.9334    0.0000 C   0  0  0  0  0  0  0  0  0  0  0  0
   -2.9085    0.4542    0.0000 C   0  0  0  0  0  0  0  0  0  0  0  0
   -3.7336    0.9292    0.0000 C   0  0  0  0  0  0  0  0  0  0  0  0
    2.9335   -1.9293    0.0000 H   0  0  0  0  0  0  0  0  0  0  0  0
    3.7336   -0.4834    0.0000 H   0  0  0  0  0  0  0  0  0  0  0  0
  1  2  1  0
  1  3  2  0
  3  4  1  0
  4  5  1  0
  2  5  2  0
  1  6  1  0
  6  7  3  0
  2  8  1  0
  9 12  1  0
  5 10  1  0
  9 10  1  0
  3 11  1  0
  8 12  1  0
 12 13  1  0
 13 14  1  0
 14 15  1  0
 11 16  1  0
 11 17  1  0
M  END
>  <IDNUMBER>  (521) 
8640-0074

>  <available>  (521) 
79

>  <H_acceptor>  (521) 
2

>  <H_donor>  (521) 
2

>  <B_rotN>  (521) 
3

>  <N_O>  (521) 
3

>  <logP>  (521) 
2.381

>  <logD>  (521) 
2.381

>  <logSw>  (521) 
-2.2284

>  <PSA>  (521) 
47.086

>  <pKa_ma>  (521) 
15.973

>  <pKa_mb>  (521) 
-1.5134

>  <N_Chirals>  (521) 
1

>  <Name>  (521) 
2-amino-5-propyl-4,7-dihydro-5H-thieno[2,3-c]pyran-3-carbonitrile

>  <Smile>  (521) 
CCCC(C1)OCc2c1c(C#N)c(N)s2

>  <Color>  (521) 
BROWN

>  <Collection>  (521) 
DC

>  <InChI>  (521) 
InChI=1S/C11H14N2OS/c1-2-3-7-4-8-9(5-12)11(13)15-10(8)6-14-7/h7H,2-4,6,13H2,1H3/t7-/m1/s1

>  <InChI Key>  (521) 
FGTHHTWHWXEGFI-SSDOTTSWSA-N

>  <PERCENTSP3>  (521) 
54.5

>  <Link>  (521) 
https://www.chemdiv.com/catalog/screening-compounds/compound-8640-0074/

>  <MFCDNUMBER>  (521) 
MFCD03675056

>  <STEREO>  (521) 
RACEMIC MIXTURE

>  <State>  (521) 
Solid

>  <Similarity score>  (521) 
0.19

$$$$
2-amino-6-benzyl-4,5,6,7-tetrahydrothieno[2,3-c]pyridine-3-carbonitrile
     RDKit          2D

 19 21  0  0  0  0  0  0  0  0999 V2000
    2.4979   -0.1417    0.0000 C   0  0  0  0  0  0  0  0  0  0  0  0
    2.7980   -1.1050    0.0000 C   0  0  0  0  0  0  0  0  0  0  0  0
    1.1843   -1.1050    0.0000 C   0  0  0  0  0  0  0  0  0  0  0  0
    1.4969   -0.1417    0.0000 C   0  0  0  0  0  0  0  0  0  0  0  0
    1.9973   -1.6721    0.0000 S   0  0  0  0  0  0  0  0  0  0  0  0
    3.0857    0.6588    0.0000 C   0  0  0  0  0  0  0  0  0  0  0  0
   -0.4669   -0.5670    0.0000 N   0  0  0  0  0  0  0  0  0  0  0  0
    3.6735    1.4720    0.0000 N   0  0  0  0  0  0  0  0  0  0  0  0
    0.1960   -1.3176    0.0000 C   0  0  0  0  0  0  0  0  0  0  0  0
    0.8214    0.5920    0.0000 C   0  0  0  0  0  0  0  0  0  0  0  0
    3.7486   -1.4053    0.0000 N   0  0  0  0  0  0  0  0  0  0  0  0
   -0.1458    0.3918    0.0000 C   0  0  0  0  0  0  0  0  0  0  0  0
   -1.4426   -0.7839    0.0000 C   0  0  0  0  0  0  0  0  0  0  0  0
   -2.1181   -0.0333    0.0000 C   0  0  0  0  0  0  0  0  0  0  0  0
   -1.8055    0.9299    0.0000 C   0  0  0  0  0  0  0  0  0  0  0  0
   -3.0814   -0.2335    0.0000 C   0  0  0  0  0  0  0  0  0  0  0  0
   -3.7486    0.5171    0.0000 C   0  0  0  0  0  0  0  0  0  0  0  0
   -2.4685    1.6721    0.0000 C   0  0  0  0  0  0  0  0  0  0  0  0
   -3.4567    1.4595    0.0000 C   0  0  0  0  0  0  0  0  0  0  0  0
  1  2  2  0
  3  4  2  0
  3  5  1  0
  1  4  1  0
  2  5  1  0
  1  6  1  0
  7 12  1  0
  7  9  1  0
  6  8  3  0
  3  9  1  0
  4 10  1  0
  2 11  1  0
 10 12  1  0
  7 13  1  0
 13 14  1  0
 14 15  1  0
 14 16  2  0
 16 17  1  0
 15 18  2  0
 18 19  1  0
 17 19  2  0
M  END
>  <IDNUMBER>  (522) 
Y512-7452

>  <available>  (522) 
33

>  <H_acceptor>  (522) 
2

>  <H_donor>  (522) 
2

>  <B_rotN>  (522) 
3

>  <N_O>  (522) 
3

>  <logP>  (522) 
2.536

>  <logD>  (522) 
2.535

>  <logSw>  (522) 
-2.519

>  <PSA>  (522) 
41.97

>  <pKa_ma>  (522) 
15.47

>  <pKa_mb>  (522) 
4.753

>  <N_Chirals>  (522) 
0

>  <Name>  (522) 
2-amino-6-benzyl-4,5,6,7-tetrahydrothieno[2,3-c]pyridine-3-carbonitrile

>  <Smile>  (522) 
c1(c(sc2c1CCN(C2)Cc1ccccc1)N)C#N

>  <Color>  (522) 
BROWN

>  <Collection>  (522) 
DC

>  <InChI>  (522) 
InChI=1S/C15H15N3S/c16-8-13-12-6-7-18(10-14(12)19-15(13)17)9-11-4-2-1-3-5-11/h1-5H,6-7,9-10,17H2

>  <InChI Key>  (522) 
BWNBNBHFRHCKTK-UHFFFAOYSA-N

>  <PERCENTSP3>  (522) 
26.67

>  <Link>  (522) 
https://www.chemdiv.com/catalog/screening-compounds/compound-Y512-7452/

>  <MFCDNUMBER>  (522) 
MFCD00425859

>  <STEREO>  (522) 
ACHIRAL

>  <State>  (522) 
Solid

>  <Similarity score>  (522) 
0.19

$$$$
2-amino-4,5-dihydronaphtho[2,1-b]thiophene-1-carbonitrile
     RDKit          2D

 16 18  0  0  0  0  0  0  0  0999 V2000
    0.9270   -0.3728    0.0000 C   0  0  0  0  0  0  0  0  0  0  0  0
   -0.0562   -0.4354    0.0000 C   0  0  0  0  0  0  0  0  0  0  0  0
    1.3062   -1.3187    0.0000 C   0  0  0  0  0  0  0  0  0  0  0  0
   -0.3146   -1.3978    0.0000 C   0  0  0  0  0  0  0  0  0  0  0  0
    0.5270   -1.9519    0.0000 S   0  0  0  0  0  0  0  0  0  0  0  0
   -0.7604    0.2771    0.0000 C   0  0  0  0  0  0  0  0  0  0  0  0
    1.4561    0.4603    0.0000 C   0  0  0  0  0  0  0  0  0  0  0  0
    2.4435    0.4187    0.0000 N   0  0  0  0  0  0  0  0  0  0  0  0
   -1.2645   -1.6645    0.0000 C   0  0  0  0  0  0  0  0  0  0  0  0
   -1.7270    0.0062    0.0000 C   0  0  0  0  0  0  0  0  0  0  0  0
    2.2769   -1.5687    0.0000 N   0  0  0  0  0  0  0  0  0  0  0  0
   -1.9686   -0.9729    0.0000 C   0  0  0  0  0  0  0  0  0  0  0  0
   -0.5104    1.2520    0.0000 C   0  0  0  0  0  0  0  0  0  0  0  0
   -2.4435    0.7061    0.0000 C   0  0  0  0  0  0  0  0  0  0  0  0
   -1.2311    1.9519    0.0000 C   0  0  0  0  0  0  0  0  0  0  0  0
   -2.2061    1.6728    0.0000 C   0  0  0  0  0  0  0  0  0  0  0  0
  1  2  1  0
  1  3  2  0
  2  4  2  0
  4  5  1  0
  3  5  1  0
  2  6  1  0
  1  7  1  0
  7  8  3  0
  4  9  1  0
  9 12  1  0
  6 10  2  0
  3 11  1  0
 10 12  1  0
  6 13  1  0
 10 14  1  0
 13 15  2  0
 15 16  1  0
 14 16  2  0
M  END
>  <IDNUMBER>  (523) 
8019-5962

>  <available>  (523) 
15

>  <H_acceptor>  (523) 
1

>  <H_donor>  (523) 
2

>  <B_rotN>  (523) 
1

>  <N_O>  (523) 
2

>  <logP>  (523) 
3.0359

>  <logD>  (523) 
3.0359

>  <logSw>  (523) 
-3.4122

>  <PSA>  (523) 
38.22

>  <pKa_ma>  (523) 
19.2967

>  <pKa_mb>  (523) 
-4.5006

>  <N_Chirals>  (523) 
0

>  <Name>  (523) 
2-amino-4,5-dihydronaphtho[2,1-b]thiophene-1-carbonitrile

>  <Smile>  (523) 
Nc(sc(CC1)c2-c3c1cccc3)c2C#N

>  <Color>  (523) 
BROWN

>  <Collection>  (523) 
DC

>  <InChI>  (523) 
InChI=1S/C13H10N2S/c14-7-10-12-9-4-2-1-3-8(9)5-6-11(12)16-13(10)15/h1-4H,5-6,15H2

>  <InChI Key>  (523) 
KMUDCZOBMKTNNP-UHFFFAOYSA-N

>  <PERCENTSP3>  (523) 
15.38

>  <Link>  (523) 
https://www.chemdiv.com/catalog/screening-compounds/compound-8019-5962/

>  <MFCDNUMBER>  (523) 
MFCD00128275

>  <STEREO>  (523) 
ACHIRAL

>  <State>  (523) 
Solid

>  <Similarity score>  (523) 
0.19

$$$$
{3-fluoro-3-[3-(pyridin-4-yl)-1,2,4-oxadiazol-5-yl]piperidin-1-yl}(6-methoxypyri
     RDKit          2D

 28 31  0  0  0  0  0  0  0  0999 V2000
   -2.3906   -0.5015    0.0000 N   0  0  0  0  0  0  0  0  0  0  0  0
   -1.4036   -0.6517    0.0000 C   0  0  0  0  0  0  0  0  0  0  0  0
   -0.6985    0.0533    0.0000 C   0  0  0  0  0  0  0  0  0  0  0  0
   -2.8449   -1.4007    0.0000 C   0  0  0  0  0  0  0  0  0  0  0  0
    0.8019    0.9119    0.0000 N   0  0  0  0  0  0  0  0  0  0  0  0
   -2.1369   -2.1086    0.0000 N   0  0  0  0  0  0  0  0  0  0  0  0
    1.3034    1.7828    0.0000 C   0  0  0  0  0  0  0  0  0  0  0  0
   -1.2439   -1.6449    0.0000 O   0  0  0  0  0  0  0  0  0  0  0  0
    2.3093    1.7828    0.0000 C   0  0  0  0  0  0  0  0  0  0  0  0
   -0.2007    0.9119    0.0000 C   0  0  0  0  0  0  0  0  0  0  0  0
    3.8101    0.9119    0.0000 N   0  0  0  0  0  0  0  0  0  0  0  0
    2.8137    0.9119    0.0000 C   0  0  0  0  0  0  0  0  0  0  0  0
    4.3112    1.7828    0.0000 C   0  0  0  0  0  0  0  0  0  0  0  0
    0.8019    2.6413    0.0000 O   0  0  0  0  0  0  0  0  0  0  0  0
   -3.8319   -1.5509    0.0000 C   0  0  0  0  0  0  0  0  0  0  0  0
    2.8137    2.6413    0.0000 C   0  0  0  0  0  0  0  0  0  0  0  0
   -1.0777    0.9743    0.0000 F   0  0  0  0  0  0  0  0  0  0  0  0
   -5.8059   -1.8644    0.0000 N   0  0  0  0  0  0  0  0  0  0  0  0
    3.8101    2.6413    0.0000 C   0  0  0  0  0  0  0  0  0  0  0  0
   -0.2007   -0.8179    0.0000 C   0  0  0  0  0  0  0  0  0  0  0  0
    1.3034    0.0533    0.0000 C   0  0  0  0  0  0  0  0  0  0  0  0
    5.3077    1.7828    0.0000 O   0  0  0  0  0  0  0  0  0  0  0  0
    0.8019   -0.8179    0.0000 C   0  0  0  0  0  0  0  0  0  0  0  0
   -5.4488   -0.9337    0.0000 C   0  0  0  0  0  0  0  0  0  0  0  0
   -5.1825   -2.6413    0.0000 C   0  0  0  0  0  0  0  0  0  0  0  0
   -4.4586   -0.7740    0.0000 C   0  0  0  0  0  0  0  0  0  0  0  0
   -4.1955   -2.4911    0.0000 C   0  0  0  0  0  0  0  0  0  0  0  0
    5.8059    2.6413    0.0000 C   0  0  0  0  0  0  0  0  0  0  0  0
  1  2  2  0
  2  3  1  0
  1  4  1  0
  5 10  1  0
  4  6  2  0
  6  8  1  0
  5  7  1  0
  2  8  1  0
  7  9  1  0
  3 10  1  0
 11 12  1  0
  9 12  2  0
 13 19  1  0
 11 13  2  0
  7 14  2  0
  4 15  1  0
  9 16  1  0
  3 17  1  0
 18 25  2  0
 18 24  1  0
 16 19  2  0
  3 20  1  0
 21 23  1  0
  5 21  1  0
 13 22  1  0
 20 23  1  0
 24 26  2  0
 25 27  1  0
 15 26  1  0
 15 27  2  0
 22 28  1  0
M  END
>  <IDNUMBER>  (524) 
SA92-0193

>  <available>  (524) 
86

>  <H_acceptor>  (524) 
8

>  <H_donor>  (524) 
0

>  <B_rotN>  (524) 
5

>  <N_O>  (524) 
8

>  <logP>  (524) 
2.0953

>  <logD>  (524) 
2.0952

>  <logSw>  (524) 
-2.123

>  <PSA>  (524) 
74.236

>  <pKa_ma>  (524) 
27.08

>  <pKa_mb>  (524) 
3.6841

>  <N_Chirals>  (524) 
1

>  <Name>  (524) 
{3-fluoro-3-[3-(pyridin-4-yl)-1,2,4-oxadiazol-5-yl]piperidin-1-yl}(6-methoxypyridin-3-yl)methanone

>  <Smile>  (524) 
COc(cc1)ncc1C(N(CCC1)CC1(c1nc(-c2ccncc2)no1)F)=O

>  <Color>  (524) 
BROWN

>  <Collection>  (524) 
IC

>  <InChI>  (524) 
InChI=1S/C19H18FN5O3/c1-27-15-4-3-14(11-22-15)17(26)25-10-2-7-19(20,12-25)18-23-16(24-28-18)13-5-8-21-9-6-13/h3-6,8-9,11H,2,7,10,12H2,1H3/t19-/m0/s1

>  <InChI Key>  (524) 
BERFUGYEBNEHOP-IBGZPJMESA-N

>  <PERCENTSP3>  (524) 
31.58

>  <Link>  (524) 
https://www.chemdiv.com/catalog/screening-compounds/compound-SA92-0193/

>  <MFCDNUMBER>  (524) 
MFCD32241574

>  <CLNUMBER>  (524) 
CM4899

>  <STEREO>  (524) 
RACEMIC MIXTURE

>  <State>  (524) 
Solid

>  <Similarity score>  (524) 
0.19

$$$$
N-(3-cyano-4,5,6,7-tetrahydro-1-benzothiophen-2-yl)-5-(2-methyl-2,3-dihydro-1-be
     RDKit          2D

 30 34  0  0  0  0  0  0  0  0999 V2000
   -1.9170    1.4959    0.0000 C   0  0  0  0  0  0  0  0  0  0  0  0
   -2.5045    2.3002    0.0000 C   0  0  0  0  0  0  0  0  0  0  0  0
    0.5708    0.6083    0.0000 C   0  0  0  0  0  0  0  0  0  0  0  0
   -2.5087    0.6833    0.0000 S   0  0  0  0  0  0  0  0  0  0  0  0
   -3.4547    1.9961    0.0000 C   0  0  0  0  0  0  0  0  0  0  0  0
    1.1585    1.4084    0.0000 N   0  0  0  0  0  0  0  0  0  0  0  0
   -0.9168    1.4834    0.0000 N   0  0  0  0  0  0  0  0  0  0  0  0
    1.1585   -0.2043    0.0000 C   0  0  0  0  0  0  0  0  0  0  0  0
   -3.4588    0.9960    0.0000 C   0  0  0  0  0  0  0  0  0  0  0  0
   -0.4168    0.6125    0.0000 C   0  0  0  0  0  0  0  0  0  0  0  0
    2.1086    0.0875    0.0000 C   0  0  0  0  0  0  0  0  0  0  0  0
    2.1086    1.0876    0.0000 O   0  0  0  0  0  0  0  0  0  0  0  0
   -2.1920    3.2504    0.0000 C   0  0  0  0  0  0  0  0  0  0  0  0
    3.5964   -2.0794    0.0000 C   0  0  0  0  0  0  0  0  0  0  0  0
    5.1924   -2.4295    0.0000 O   0  0  0  0  0  0  0  0  0  0  0  0
    4.5216   -1.6877    0.0000 C   0  0  0  0  0  0  0  0  0  0  0  0
    2.9171   -0.5041    0.0000 C   0  0  0  0  0  0  0  0  0  0  0  0
   -1.9337    4.2172    0.0000 N   0  0  0  0  0  0  0  0  0  0  0  0
    2.7964   -1.4920    0.0000 C   0  0  0  0  0  0  0  0  0  0  0  0
    3.6965   -3.0878    0.0000 C   0  0  0  0  0  0  0  0  0  0  0  0
   -0.9293   -0.2500    0.0000 O   0  0  0  0  0  0  0  0  0  0  0  0
    4.6840   -3.3046    0.0000 C   0  0  0  0  0  0  0  0  0  0  0  0
    4.6298   -0.6794    0.0000 C   0  0  0  0  0  0  0  0  0  0  0  0
    3.8172   -0.0957    0.0000 C   0  0  0  0  0  0  0  0  0  0  0  0
   -4.3090    2.5003    0.0000 C   0  0  0  0  0  0  0  0  0  0  0  0
   -4.3298    0.5084    0.0000 C   0  0  0  0  0  0  0  0  0  0  0  0
    5.0716   -4.2172    0.0000 C   0  0  0  0  0  0  0  0  0  0  0  0
   -5.1799    2.0169    0.0000 C   0  0  0  0  0  0  0  0  0  0  0  0
   -5.1924    1.0127    0.0000 C   0  0  0  0  0  0  0  0  0  0  0  0
   -0.4168    2.3460    0.0000 H   0  0  0  0  0  0  0  0  0  0  0  0
  1  2  2  0
  3 10  1  0
  1  4  1  0
  2  5  1  0
  3  6  2  0
  1  7  1  0
  3  8  1  0
  4  9  1  0
  5  9  2  0
  7 10  1  0
  8 11  2  0
 11 12  1  0
  6 12  1  0
  2 13  1  0
 14 19  1  0
 15 16  1  0
 16 23  1  0
 14 16  2  0
 11 17  1  0
 13 18  3  0
 17 19  2  0
 14 20  1  0
 10 21  2  0
 20 22  1  0
 15 22  1  0
 23 24  2  0
 17 24  1  0
  5 25  1  0
  9 26  1  0
 22 27  1  0
 25 28  1  0
 26 29  1  0
 28 29  1  0
  7 30  1  0
M  END
>  <IDNUMBER>  (525) 
D337-1093

>  <available>  (525) 
64

>  <H_acceptor>  (525) 
6

>  <H_donor>  (525) 
1

>  <B_rotN>  (525) 
5

>  <N_O>  (525) 
6

>  <logP>  (525) 
4.8655

>  <logD>  (525) 
3.5744

>  <logSw>  (525) 
-4.7257

>  <PSA>  (525) 
69.038

>  <pKa_ma>  (525) 
6.1318

>  <pKa_mb>  (525) 
-6.3269

>  <N_Chirals>  (525) 
1

>  <Name>  (525) 
N-(3-cyano-4,5,6,7-tetrahydro-1-benzothiophen-2-yl)-5-(2-methyl-2,3-dihydro-1-benzofuran-5-yl)-1,2-oxazole-3-carboxamide

>  <Smile>  (525) 
CC(C1)Oc(cc2)c1cc2-c1cc(C(Nc(sc2c3CCCC2)c3C#N)=O)no1

>  <Color>  (525) 
ORANGE

>  <Collection>  (525) 
DC

>  <InChI>  (525) 
InChI=1S/C22H19N3O3S/c1-12-8-14-9-13(6-7-18(14)27-12)19-10-17(25-28-19)21(26)24-22-16(11-23)15-4-2-3-5-20(15)29-22/h6-7,9-10,12H,2-5,8H2,1H3,(H,24,26)/t12-/m1/s1

>  <InChI Key>  (525) 
ZRFPTQSWEYXVAA-GFCCVEGCSA-N

>  <PERCENTSP3>  (525) 
31.8

>  <Link>  (525) 
https://www.chemdiv.com/catalog/screening-compounds/compound-D337-1093/

>  <MFCDNUMBER>  (525) 
MFCD08545738

>  <CLNUMBER>  (525) 
CL2028

>  <STEREO>  (525) 
RACEMIC MIXTURE

>  <State>  (525) 
Solid

>  <Similarity score>  (525) 
0.19

$$$$
6-acetyl-2-amino-4,5,6,7-tetrahydrothieno[2,3-c]pyridine-3-carbonitrile
     RDKit          2D

 15 16  0  0  0  0  0  0  0  0999 V2000
   -1.6639   -0.0438    0.0000 C   0  0  0  0  0  0  0  0  0  0  0  0
   -1.9763   -0.9850    0.0000 C   0  0  0  0  0  0  0  0  0  0  0  0
   -0.3602   -1.0016    0.0000 C   0  0  0  0  0  0  0  0  0  0  0  0
   -0.6684   -0.0438    0.0000 C   0  0  0  0  0  0  0  0  0  0  0  0
   -1.1682   -1.5764    0.0000 S   0  0  0  0  0  0  0  0  0  0  0  0
    1.2808   -0.4685    0.0000 N   0  0  0  0  0  0  0  0  0  0  0  0
    0.6143   -1.2141    0.0000 C   0  0  0  0  0  0  0  0  0  0  0  0
   -2.2512    0.7643    0.0000 C   0  0  0  0  0  0  0  0  0  0  0  0
    2.2637   -0.6810    0.0000 C   0  0  0  0  0  0  0  0  0  0  0  0
   -2.7593    1.6306    0.0000 N   0  0  0  0  0  0  0  0  0  0  0  0
   -0.0021    0.7060    0.0000 C   0  0  0  0  0  0  0  0  0  0  0  0
    0.9809    0.4935    0.0000 C   0  0  0  0  0  0  0  0  0  0  0  0
   -2.9259   -1.3015    0.0000 N   0  0  0  0  0  0  0  0  0  0  0  0
    2.9259    0.0604    0.0000 O   0  0  0  0  0  0  0  0  0  0  0  0
    2.5636   -1.6306    0.0000 C   0  0  0  0  0  0  0  0  0  0  0  0
  1  2  2  0
  3  4  2  0
  3  5  1  0
  1  4  1  0
  2  5  1  0
  6 12  1  0
  6  7  1  0
  3  7  1  0
  1  8  1  0
  6  9  1  0
  8 10  3  0
  4 11  1  0
 11 12  1  0
  2 13  1  0
  9 14  2  0
  9 15  1  0
M  END
>  <IDNUMBER>  (526) 
FF01-4909

>  <available>  (526) 
617

>  <H_acceptor>  (526) 
3

>  <H_donor>  (526) 
2

>  <B_rotN>  (526) 
2

>  <N_O>  (526) 
4

>  <logP>  (526) 
0.6311

>  <logD>  (526) 
0.6311

>  <logSw>  (526) 
-1.0388

>  <PSA>  (526) 
55.62

>  <pKa_ma>  (526) 
15.7067

>  <pKa_mb>  (526) 
-0.8396

>  <N_Chirals>  (526) 
0

>  <Name>  (526) 
6-acetyl-2-amino-4,5,6,7-tetrahydrothieno[2,3-c]pyridine-3-carbonitrile

>  <Smile>  (526) 
CC(N(CC1)Cc2c1c(C#N)c(N)s2)=O

>  <Color>  (526) 
ORANGE

>  <Collection>  (526) 
NC

>  <InChI>  (526) 
InChI=1S/C10H11N3OS/c1-6(14)13-3-2-7-8(4-11)10(12)15-9(7)5-13/h2-3,5,12H2,1H3

>  <InChI Key>  (526) 
ONWFDBVICXATKK-UHFFFAOYSA-N

>  <PERCENTSP3>  (526) 
40

>  <Link>  (526) 
https://www.chemdiv.com/catalog/screening-compounds/compound-FF01-4909/

>  <MFCDNUMBER>  (526) 
MFCD09743161

>  <STEREO>  (526) 
ACHIRAL

>  <State>  (526) 
Solid

>  <Similarity score>  (526) 
0.19

$$$$
2-amino-6-(2-methylbutan-2-yl)-4,5,6,7-tetrahydro-1-benzothiophene-3-carbonitril
     RDKit          2D

 17 18  0  0  0  0  0  0  0  0999 V2000
    1.6932   -0.4603    0.0000 C   0  0  0  0  0  0  0  0  0  0  0  0
    1.3725   -1.3892    0.0000 C   0  0  0  0  0  0  0  0  0  0  0  0
    0.0688   -0.4603    0.0000 C   0  0  0  0  0  0  0  0  0  0  0  0
    0.8643    0.1437    0.0000 C   0  0  0  0  0  0  0  0  0  0  0  0
    0.4186   -1.3892    0.0000 S   0  0  0  0  0  0  0  0  0  0  0  0
    2.6471   -0.2062    0.0000 C   0  0  0  0  0  0  0  0  0  0  0  0
   -0.8267   -0.0479    0.0000 C   0  0  0  0  0  0  0  0  0  0  0  0
    3.6093    0.0479    0.0000 N   0  0  0  0  0  0  0  0  0  0  0  0
    0.7685    1.1350    0.0000 C   0  0  0  0  0  0  0  0  0  0  0  0
   -0.9559    0.9434    0.0000 C   0  0  0  0  0  0  0  0  0  0  0  0
   -1.9139    1.3225    0.0000 C   0  0  0  0  0  0  0  0  0  0  0  0
    1.9472   -2.2514    0.0000 N   0  0  0  0  0  0  0  0  0  0  0  0
   -0.1561    1.5474    0.0000 C   0  0  0  0  0  0  0  0  0  0  0  0
   -2.8428    1.6766    0.0000 C   0  0  0  0  0  0  0  0  0  0  0  0
   -1.5307    2.2514    0.0000 C   0  0  0  0  0  0  0  0  0  0  0  0
   -2.2639    0.3686    0.0000 C   0  0  0  0  0  0  0  0  0  0  0  0
   -3.6093    1.0559    0.0000 C   0  0  0  0  0  0  0  0  0  0  0  0
  1  2  2  0
  3  4  2  0
  3  5  1  0
  1  4  1  0
  2  5  1  0
  1  6  1  0
  3  7  1  0
  7 10  1  0
  6  8  3  0
  4  9  1  0
 10 13  1  0
 10 11  1  0
  2 12  1  0
  9 13  1  0
 11 14  1  0
 11 15  1  0
 11 16  1  0
 14 17  1  0
M  END
>  <IDNUMBER>  (527) 
Y503-0012

>  <available>  (527) 
20

>  <H_acceptor>  (527) 
1

>  <H_donor>  (527) 
2

>  <B_rotN>  (527) 
3

>  <N_O>  (527) 
2

>  <logP>  (527) 
3.612

>  <logD>  (527) 
3.612

>  <logSw>  (527) 
-3.9177

>  <PSA>  (527) 
38.492

>  <pKa_ma>  (527) 
15.9936

>  <pKa_mb>  (527) 
-2.1439

>  <N_Chirals>  (527) 
1

>  <Name>  (527) 
2-amino-6-(2-methylbutan-2-yl)-4,5,6,7-tetrahydro-1-benzothiophene-3-carbonitrile

>  <Smile>  (527) 
CCC(C)(C)C(CC1)Cc2c1c(C#N)c(N)s2

>  <Color>  (527) 
ORANGE

>  <Collection>  (527) 
DC

>  <InChI>  (527) 
InChI=1S/C14H20N2S/c1-4-14(2,3)9-5-6-10-11(8-15)13(16)17-12(10)7-9/h9H,4-7,16H2,1-3H3/t9-/m1/s1

>  <InChI Key>  (527) 
KWZDWUOSGNGFOU-SECBINFHSA-N

>  <PERCENTSP3>  (527) 
64.29

>  <Link>  (527) 
https://www.chemdiv.com/catalog/screening-compounds/compound-Y503-0012/

>  <MFCDNUMBER>  (527) 
MFCD01335783

>  <STEREO>  (527) 
RACEMIC MIXTURE

>  <State>  (527) 
Solid

>  <Similarity score>  (527) 
0.19

$$$$
2-amino-6-(2-phenylethyl)-4,5,6,7-tetrahydrothieno[2,3-c]pyridine-3-carbonitrile
     RDKit          2D

 20 22  0  0  0  0  0  0  0  0999 V2000
    2.7431    0.6914    0.0000 C   0  0  0  0  0  0  0  0  0  0  0  0
    3.3055   -0.1084    0.0000 C   0  0  0  0  0  0  0  0  0  0  0  0
    1.7934    0.3791    0.0000 C   0  0  0  0  0  0  0  0  0  0  0  0
    1.7934   -0.6208    0.0000 C   0  0  0  0  0  0  0  0  0  0  0  0
    2.7431   -0.9289    0.0000 S   0  0  0  0  0  0  0  0  0  0  0  0
    3.0680    1.6331    0.0000 C   0  0  0  0  0  0  0  0  0  0  0  0
    0.0562   -0.6208    0.0000 N   0  0  0  0  0  0  0  0  0  0  0  0
    3.3931    2.5787    0.0000 N   0  0  0  0  0  0  0  0  0  0  0  0
    0.9267   -1.1206    0.0000 C   0  0  0  0  0  0  0  0  0  0  0  0
    0.9267    0.8915    0.0000 C   0  0  0  0  0  0  0  0  0  0  0  0
    4.3055   -0.1084    0.0000 N   0  0  0  0  0  0  0  0  0  0  0  0
    0.0562    0.3791    0.0000 C   0  0  0  0  0  0  0  0  0  0  0  0
   -0.8436   -1.1206    0.0000 C   0  0  0  0  0  0  0  0  0  0  0  0
   -1.6935   -0.6041    0.0000 C   0  0  0  0  0  0  0  0  0  0  0  0
   -2.5683   -1.0914    0.0000 C   0  0  0  0  0  0  0  0  0  0  0  0
   -3.4181   -0.5791    0.0000 C   0  0  0  0  0  0  0  0  0  0  0  0
   -2.5807   -2.0912    0.0000 C   0  0  0  0  0  0  0  0  0  0  0  0
   -3.4473   -2.5787    0.0000 C   0  0  0  0  0  0  0  0  0  0  0  0
   -4.2928   -1.0707    0.0000 C   0  0  0  0  0  0  0  0  0  0  0  0
   -4.3055   -2.0704    0.0000 C   0  0  0  0  0  0  0  0  0  0  0  0
  1  2  2  0
  1  3  1  0
  3  4  2  0
  4  5  1  0
  2  5  1  0
  1  6  1  0
  7 12  1  0
  6  8  3  0
  4  9  1  0
  7  9  1  0
  3 10  1  0
  2 11  1  0
 10 12  1  0
  7 13  1  0
 13 14  1  0
 14 15  1  0
 15 16  2  0
 15 17  1  0
 17 18  2  0
 16 19  1  0
 19 20  2  0
 18 20  1  0
M  END
>  <IDNUMBER>  (528) 
Y512-6622

>  <available>  (528) 
10

>  <H_acceptor>  (528) 
2

>  <H_donor>  (528) 
2

>  <B_rotN>  (528) 
4

>  <N_O>  (528) 
3

>  <logP>  (528) 
2.769

>  <logD>  (528) 
2.767

>  <logSw>  (528) 
-2.953

>  <PSA>  (528) 
41.94

>  <pKa_ma>  (528) 
15.47

>  <pKa_mb>  (528) 
5.053

>  <N_Chirals>  (528) 
0

>  <Name>  (528) 
2-amino-6-(2-phenylethyl)-4,5,6,7-tetrahydrothieno[2,3-c]pyridine-3-carbonitrile

>  <Smile>  (528) 
c1(c(sc2c1CCN(C2)CCc1ccccc1)N)C#N

>  <Color>  (528) 
BROWN

>  <Collection>  (528) 
DC

>  <InChI>  (528) 
InChI=1S/C16H17N3S/c17-10-14-13-7-9-19(11-15(13)20-16(14)18)8-6-12-4-2-1-3-5-12/h1-5H,6-9,11,18H2

>  <InChI Key>  (528) 
NEZXGGXPFJZLFK-UHFFFAOYSA-N

>  <PERCENTSP3>  (528) 
31.3

>  <Link>  (528) 
https://www.chemdiv.com/catalog/screening-compounds/compound-Y512-6622/

>  <MFCDNUMBER>  (528) 
MFCD01565102

>  <STEREO>  (528) 
ACHIRAL

>  <State>  (528) 
Solid

>  <Similarity score>  (528) 
0.19

$$$$
3-(3-{[(1H-benzimidazol-2-yl)sulfanyl]methyl}-1,2,4-oxadiazol-5-yl)-N-(3-cyano-4
     RDKit          2D

 32 36  0  0  0  0  0  0  0  0999 V2000
    3.8430    1.2736    0.0000 C   0  0  0  0  0  0  0  0  0  0  0  0
    4.8181    0.9817    0.0000 C   0  0  0  0  0  0  0  0  0  0  0  0
    3.8303    2.2697    0.0000 S   0  0  0  0  0  0  0  0  0  0  0  0
    5.3767    1.7859    0.0000 C   0  0  0  0  0  0  0  0  0  0  0  0
   -3.5136   -2.6280    0.0000 C   0  0  0  0  0  0  0  0  0  0  0  0
   -4.1095   -1.8024    0.0000 N   0  0  0  0  0  0  0  0  0  0  0  0
   -0.3710   -0.9066    0.0000 N   0  0  0  0  0  0  0  0  0  0  0  0
    4.7764    2.5948    0.0000 C   0  0  0  0  0  0  0  0  0  0  0  0
   -0.9711   -1.7400    0.0000 C   0  0  0  0  0  0  0  0  0  0  0  0
   -4.0970   -3.4322    0.0000 N   0  0  0  0  0  0  0  0  0  0  0  0
    3.0551    0.6733    0.0000 N   0  0  0  0  0  0  0  0  0  0  0  0
   -0.3710   -2.5779    0.0000 N   0  0  0  0  0  0  0  0  0  0  0  0
    5.1517    0.0313    0.0000 C   0  0  0  0  0  0  0  0  0  0  0  0
    0.6043   -1.2190    0.0000 C   0  0  0  0  0  0  0  0  0  0  0  0
    0.6128   -2.2570    0.0000 O   0  0  0  0  0  0  0  0  0  0  0  0
   -5.0474   -2.1195    0.0000 C   0  0  0  0  0  0  0  0  0  0  0  0
   -5.0474   -3.1155    0.0000 C   0  0  0  0  0  0  0  0  0  0  0  0
    5.4766   -0.9066    0.0000 N   0  0  0  0  0  0  0  0  0  0  0  0
    2.1298    1.0608    0.0000 C   0  0  0  0  0  0  0  0  0  0  0  0
   -2.5216   -2.6193    0.0000 S   0  0  0  0  0  0  0  0  0  0  0  0
    2.0507    1.7819    0.0000 O   0  0  0  0  0  0  0  0  0  0  0  0
   -2.0131   -1.7527    0.0000 C   0  0  0  0  0  0  0  0  0  0  0  0
    1.4422   -0.5940    0.0000 C   0  0  0  0  0  0  0  0  0  0  0  0
    1.3129    0.4233    0.0000 C   0  0  0  0  0  0  0  0  0  0  0  0
    6.3686    1.8986    0.0000 C   0  0  0  0  0  0  0  0  0  0  0  0
    5.1766    3.5073    0.0000 C   0  0  0  0  0  0  0  0  0  0  0  0
   -5.9102   -1.6190    0.0000 C   0  0  0  0  0  0  0  0  0  0  0  0
   -5.9102   -3.6200    0.0000 C   0  0  0  0  0  0  0  0  0  0  0  0
    6.7688    2.8321    0.0000 C   0  0  0  0  0  0  0  0  0  0  0  0
    6.1687    3.6200    0.0000 C   0  0  0  0  0  0  0  0  0  0  0  0
   -6.7646   -3.1198    0.0000 C   0  0  0  0  0  0  0  0  0  0  0  0
   -6.7688   -2.1195    0.0000 C   0  0  0  0  0  0  0  0  0  0  0  0
  1  2  2  0
  1  3  1  0
  2  4  1  0
  5 20  1  0
  5  6  2  0
  7 14  2  0
  3  8  1  0
  4  8  2  0
  7  9  1  0
  5 10  1  0
  1 11  1  0
 12 15  1  0
  9 12  2  0
  2 13  1  0
 14 23  1  0
 14 15  1  0
  6 16  1  0
 10 17  1  0
 16 17  2  0
 13 18  3  0
 11 19  1  0
 20 22  1  0
 19 21  2  0
  9 22  1  0
 23 24  1  0
 19 24  1  0
  4 25  1  0
  8 26  1  0
 16 27  1  0
 17 28  1  0
 25 29  1  0
 26 30  1  0
 29 30  1  0
 28 31  2  0
 27 32  2  0
 31 32  1  0
M  END
>  <IDNUMBER>  (529) 
J021-0366

>  <available>  (529) 
82

>  <H_acceptor>  (529) 
8

>  <H_donor>  (529) 
2

>  <B_rotN>  (529) 
9

>  <N_O>  (529) 
8

>  <logP>  (529) 
3.7147

>  <logD>  (529) 
2.3958

>  <logSw>  (529) 
-4.4343

>  <PSA>  (529) 
90.234

>  <pKa_ma>  (529) 
6.1024

>  <pKa_mb>  (529) 
6.7942

>  <N_Chirals>  (529) 
0

>  <Name>  (529) 
3-(3-{[(1H-benzimidazol-2-yl)sulfanyl]methyl}-1,2,4-oxadiazol-5-yl)-N-(3-cyano-4,5,6,7-tetrahydro-1-benzothiophen-2-yl)propanamide

>  <Smile>  (529) 
N#Cc1c(NC(CCc2nc(CSc3nc(cccc4)c4[nH]3)no2)=O)sc2c1CCCC2

>  <Color>  (529) 
NOT COLORED

>  <Collection>  (529) 
DC

>  <InChI>  (529) 
InChI=1S/C22H20N6O2S2/c23-11-14-13-5-1-4-8-17(13)32-21(14)27-19(29)9-10-20-26-18(28-30-20)12-31-22-24-15-6-2-3-7-16(15)25-22/h2-3,6-7H,1,4-5,8-10,12H2,(H,24,25)(H,27,29)

>  <InChI Key>  (529) 
VCTVEJYTLRSQRV-UHFFFAOYSA-N

>  <PERCENTSP3>  (529) 
31.8

>  <Link>  (529) 
https://www.chemdiv.com/catalog/screening-compounds/compound-J021-0366/

>  <MFCDNUMBER>  (529) 
MFCD27218401

>  <CLNUMBER>  (529) 
CL8315

>  <STEREO>  (529) 
ACHIRAL

>  <State>  (529) 
Solid

>  <Similarity score>  (529) 
0.19

$$$$
2-(2-bromophenoxy)-N-(3-cyano-5,6-dihydro-4H-cyclopenta[b]thiophen-2-yl)propanam
     RDKit          2D

 23 25  0  0  0  0  0  0  0  0999 V2000
   -0.5177    1.4451    0.0000 C   0  0  0  0  0  0  0  0  0  0  0  0
   -0.5177    2.3413    0.0000 C   0  0  0  0  0  0  0  0  0  0  0  0
   -1.2957    1.0004    0.0000 S   0  0  0  0  0  0  0  0  0  0  0  0
   -2.0877    2.3413    0.0000 C   0  0  0  0  0  0  0  0  0  0  0  0
    0.3231    0.9725    0.0000 N   0  0  0  0  0  0  0  0  0  0  0  0
   -2.0877    1.4590    0.0000 C   0  0  0  0  0  0  0  0  0  0  0  0
    0.3231   -0.0000    0.0000 C   0  0  0  0  0  0  0  0  0  0  0  0
    0.3856    2.8623    0.0000 C   0  0  0  0  0  0  0  0  0  0  0  0
    1.2957    3.3626    0.0000 N   0  0  0  0  0  0  0  0  0  0  0  0
    1.1637   -1.4451    0.0000 O   0  0  0  0  0  0  0  0  0  0  0  0
    1.9904   -1.9175    0.0000 C   0  0  0  0  0  0  0  0  0  0  0  0
    1.1567   -0.4794    0.0000 C   0  0  0  0  0  0  0  0  0  0  0  0
   -0.5106   -0.4724    0.0000 O   0  0  0  0  0  0  0  0  0  0  0  0
    2.8309   -1.4451    0.0000 C   0  0  0  0  0  0  0  0  0  0  0  0
   -2.8797    2.7998    0.0000 C   0  0  0  0  0  0  0  0  0  0  0  0
    2.8450   -0.4933    0.0000 Br  0  0  0  0  0  0  0  0  0  0  0  0
   -3.6648    1.4590    0.0000 C   0  0  0  0  0  0  0  0  0  0  0  0
   -3.6648    2.3552    0.0000 C   0  0  0  0  0  0  0  0  0  0  0  0
    1.9904   -2.8832    0.0000 C   0  0  0  0  0  0  0  0  0  0  0  0
    1.9904   -0.0000    0.0000 C   0  0  0  0  0  0  0  0  0  0  0  0
    3.6578   -1.9197    0.0000 C   0  0  0  0  0  0  0  0  0  0  0  0
    2.8172   -3.3626    0.0000 C   0  0  0  0  0  0  0  0  0  0  0  0
    3.6648   -2.8901    0.0000 C   0  0  0  0  0  0  0  0  0  0  0  0
  1  2  2  0
  1  3  1  0
  2  4  1  0
  4  6  2  0
  1  5  1  0
  3  6  1  0
  5  7  1  0
  2  8  1  0
  8  9  3  0
 10 11  1  0
 10 12  1  0
  7 12  1  0
  7 13  2  0
 11 14  2  0
  4 15  1  0
 15 18  1  0
 14 16  1  0
  6 17  1  0
 17 18  1  0
 11 19  1  0
 12 20  1  0
 14 21  1  0
 19 22  2  0
 22 23  1  0
 21 23  2  0
M  END
>  <IDNUMBER>  (530) 
8011-9345

>  <available>  (530) 
21

>  <H_acceptor>  (530) 
4

>  <H_donor>  (530) 
1

>  <B_rotN>  (530) 
6

>  <N_O>  (530) 
4

>  <logP>  (530) 
4.2925

>  <logD>  (530) 
2.8547

>  <logSw>  (530) 
-4.4401

>  <PSA>  (530) 
47.342

>  <pKa_ma>  (530) 
5.9783

>  <pKa_mb>  (530) 
-5.9657

>  <N_Chirals>  (530) 
1

>  <Name>  (530) 
2-(2-bromophenoxy)-N-(3-cyano-5,6-dihydro-4H-cyclopenta[b]thiophen-2-yl)propanamide

>  <Smile>  (530) 
CC(C(Nc(sc1c2CCC1)c2C#N)=O)Oc(cccc1)c1Br

>  <Color>  (530) 
BROWN

>  <Collection>  (530) 
DC

>  <InChI>  (530) 
InChI=1S/C17H15BrN2O2S/c1-10(22-14-7-3-2-6-13(14)18)16(21)20-17-12(9-19)11-5-4-8-15(11)23-17/h2-3,6-7,10H,4-5,8H2,1H3,(H,20,21)/t10-/m0/s1

>  <InChI Key>  (530) 
FCIOKRPXKFICSS-JTQLQIEISA-N

>  <PERCENTSP3>  (530) 
29.41

>  <Link>  (530) 
https://www.chemdiv.com/catalog/screening-compounds/compound-8011-9345/

>  <MFCDNUMBER>  (530) 
MFCD02928295

>  <STEREO>  (530) 
RACEMIC MIXTURE

>  <State>  (530) 
Solid

>  <Similarity score>  (530) 
0.19

$$$$
N-(3-cyano-5,6,7,8-tetrahydro-4H-cyclohepta[b]thiophen-2-yl)-2-(4-propylphenoxy)
     RDKit          2D

 27 29  0  0  0  0  0  0  0  0999 V2000
   -2.3662    0.0462    0.0000 C   0  0  0  0  0  0  0  0  0  0  0  0
   -2.3662    0.9946    0.0000 C   0  0  0  0  0  0  0  0  0  0  0  0
   -3.1983   -0.4257    0.0000 S   0  0  0  0  0  0  0  0  0  0  0  0
   -4.0530    0.9946    0.0000 C   0  0  0  0  0  0  0  0  0  0  0  0
   -1.5612   -0.4257    0.0000 N   0  0  0  0  0  0  0  0  0  0  0  0
   -4.0530    0.0205    0.0000 C   0  0  0  0  0  0  0  0  0  0  0  0
   -0.6999    0.0462    0.0000 C   0  0  0  0  0  0  0  0  0  0  0  0
   -1.5100    1.4716    0.0000 C   0  0  0  0  0  0  0  0  0  0  0  0
   -0.6487    1.9380    0.0000 N   0  0  0  0  0  0  0  0  0  0  0  0
    0.1359   -0.4257    0.0000 C   0  0  0  0  0  0  0  0  0  0  0  0
    1.0075    0.0616    0.0000 O   0  0  0  0  0  0  0  0  0  0  0  0
   -0.6999    1.0204    0.0000 O   0  0  0  0  0  0  0  0  0  0  0  0
    1.9713   -0.4409    0.0000 C   0  0  0  0  0  0  0  0  0  0  0  0
   -4.8630    1.5858    0.0000 C   0  0  0  0  0  0  0  0  0  0  0  0
   -4.8630   -0.5641    0.0000 C   0  0  0  0  0  0  0  0  0  0  0  0
    3.6275   -1.3895    0.0000 C   0  0  0  0  0  0  0  0  0  0  0  0
    1.9713   -1.3638    0.0000 C   0  0  0  0  0  0  0  0  0  0  0  0
    2.7917    0.0462    0.0000 C   0  0  0  0  0  0  0  0  0  0  0  0
    2.8174   -1.8355    0.0000 C   0  0  0  0  0  0  0  0  0  0  0  0
    3.6275   -0.4409    0.0000 C   0  0  0  0  0  0  0  0  0  0  0  0
    0.1462   -1.4254    0.0000 C   0  0  0  0  0  0  0  0  0  0  0  0
    4.4853   -1.8612    0.0000 C   0  0  0  0  0  0  0  0  0  0  0  0
    5.3246   -1.3895    0.0000 C   0  0  0  0  0  0  0  0  0  0  0  0
   -5.7962    1.4047    0.0000 C   0  0  0  0  0  0  0  0  0  0  0  0
   -5.7962   -0.3641    0.0000 C   0  0  0  0  0  0  0  0  0  0  0  0
    6.2371   -1.9380    0.0000 C   0  0  0  0  0  0  0  0  0  0  0  0
   -6.2371    0.5229    0.0000 C   0  0  0  0  0  0  0  0  0  0  0  0
  1  2  2  0
  1  3  1  0
  2  4  1  0
  1  5  1  0
  3  6  1  0
  4  6  2  0
  5  7  1  0
  2  8  1  0
  8  9  3  0
  7 10  1  0
 10 11  1  0
  7 12  2  0
 11 13  1  0
  4 14  1  0
  6 15  1  0
 16 20  2  0
 13 17  1  0
 13 18  2  0
 17 19  2  0
 16 19  1  0
 18 20  1  0
 10 21  1  0
 16 22  1  0
 22 23  1  0
 14 24  1  0
 15 25  1  0
 23 26  1  0
 25 27  1  0
 24 27  1  0
M  END
>  <IDNUMBER>  (531) 
8010-3485

>  <available>  (531) 
23

>  <H_acceptor>  (531) 
4

>  <H_donor>  (531) 
1

>  <B_rotN>  (531) 
8

>  <N_O>  (531) 
4

>  <logP>  (531) 
5.9046

>  <logD>  (531) 
4.4866

>  <logSw>  (531) 
-5.3852

>  <PSA>  (531) 
47.221

>  <pKa_ma>  (531) 
5.9989

>  <pKa_mb>  (531) 
-4.7655

>  <N_Chirals>  (531) 
1

>  <Name>  (531) 
N-(3-cyano-5,6,7,8-tetrahydro-4H-cyclohepta[b]thiophen-2-yl)-2-(4-propylphenoxy)propanamide

>  <Smile>  (531) 
CCCc(cc1)ccc1OC(C)C(Nc(sc1c2CCCCC1)c2C#N)=O

>  <Color>  (531) 
NOT COLORED

>  <Collection>  (531) 
DC

>  <InChI>  (531) 
InChI=1S/C22H26N2O2S/c1-3-7-16-10-12-17(13-11-16)26-15(2)21(25)24-22-19(14-23)18-8-5-4-6-9-20(18)27-22/h10-13,15H,3-9H2,1-2H3,(H,24,25)/t15-/m0/s1

>  <InChI Key>  (531) 
XDQQVUDIOGXBDB-HNNXBMFYSA-N

>  <PERCENTSP3>  (531) 
45.46

>  <Link>  (531) 
https://www.chemdiv.com/catalog/screening-compounds/compound-8010-3485/

>  <MFCDNUMBER>  (531) 
MFCD01871928

>  <STEREO>  (531) 
RACEMIC MIXTURE

>  <State>  (531) 
Solid

>  <Similarity score>  (531) 
0.19

$$$$
1-{3-fluoro-3-[3-(pyridin-4-yl)-1,2,4-oxadiazol-5-yl]piperidin-1-yl}-2-(4-methox
     RDKit          2D

 29 32  0  0  0  0  0  0  0  0999 V2000
   -0.8929    2.6707    0.0000 N   0  0  0  0  0  0  0  0  0  0  0  0
    0.0970    2.8271    0.0000 C   0  0  0  0  0  0  0  0  0  0  0  0
    0.8083    2.1161    0.0000 C   0  0  0  0  0  0  0  0  0  0  0  0
   -1.3502    3.5603    0.0000 C   0  0  0  0  0  0  0  0  0  0  0  0
   -0.6359    4.2683    0.0000 N   0  0  0  0  0  0  0  0  0  0  0  0
    2.3056    1.2484    0.0000 N   0  0  0  0  0  0  0  0  0  0  0  0
    0.2474    3.8170    0.0000 O   0  0  0  0  0  0  0  0  0  0  0  0
    2.8037    0.3837    0.0000 C   0  0  0  0  0  0  0  0  0  0  0  0
    1.3064    1.2484    0.0000 C   0  0  0  0  0  0  0  0  0  0  0  0
    2.3056   -0.4810    0.0000 C   0  0  0  0  0  0  0  0  0  0  0  0
   -2.3371    3.7200    0.0000 C   0  0  0  0  0  0  0  0  0  0  0  0
    3.8062    0.3837    0.0000 O   0  0  0  0  0  0  0  0  0  0  0  0
    0.4227    1.1920    0.0000 F   0  0  0  0  0  0  0  0  0  0  0  0
   -4.3043    4.0302    0.0000 N   0  0  0  0  0  0  0  0  0  0  0  0
    2.8037   -1.3454    0.0000 C   0  0  0  0  0  0  0  0  0  0  0  0
    1.3064    2.9901    0.0000 C   0  0  0  0  0  0  0  0  0  0  0  0
    2.8037    2.1161    0.0000 C   0  0  0  0  0  0  0  0  0  0  0  0
    3.8062   -3.0748    0.0000 C   0  0  0  0  0  0  0  0  0  0  0  0
    2.3056   -2.2101    0.0000 C   0  0  0  0  0  0  0  0  0  0  0  0
    3.8062   -1.3454    0.0000 C   0  0  0  0  0  0  0  0  0  0  0  0
    4.3043   -2.2101    0.0000 C   0  0  0  0  0  0  0  0  0  0  0  0
    2.8037   -3.0748    0.0000 C   0  0  0  0  0  0  0  0  0  0  0  0
    4.3043   -3.9392    0.0000 O   0  0  0  0  0  0  0  0  0  0  0  0
    2.3056    2.9901    0.0000 C   0  0  0  0  0  0  0  0  0  0  0  0
   -3.6810    4.8039    0.0000 C   0  0  0  0  0  0  0  0  0  0  0  0
   -3.9533    3.0934    0.0000 C   0  0  0  0  0  0  0  0  0  0  0  0
   -2.6941    4.6505    0.0000 C   0  0  0  0  0  0  0  0  0  0  0  0
   -2.9604    2.9400    0.0000 C   0  0  0  0  0  0  0  0  0  0  0  0
    3.8062   -4.8039    0.0000 C   0  0  0  0  0  0  0  0  0  0  0  0
  1  2  2  0
  2  3  1  0
  1  4  1  0
  4  5  2  0
  5  7  1  0
  6  9  1  0
  2  7  1  0
  6  8  1  0
  3  9  1  0
  8 10  1  0
  4 11  1  0
  8 12  2  0
  3 13  1  0
 14 26  1  0
 14 25  2  0
 10 15  1  0
  3 16  1  0
 17 24  1  0
  6 17  1  0
 18 21  1  0
 15 19  2  0
 15 20  1  0
 20 21  2  0
 19 22  1  0
 18 22  2  0
 18 23  1  0
 16 24  1  0
 25 27  1  0
 26 28  2  0
 11 27  2  0
 11 28  1  0
 23 29  1  0
M  END
>  <IDNUMBER>  (532) 
SA92-0168

>  <available>  (532) 
28

>  <H_acceptor>  (532) 
7

>  <H_donor>  (532) 
0

>  <B_rotN>  (532) 
6

>  <N_O>  (532) 
7

>  <logP>  (532) 
2.982

>  <logD>  (532) 
2.9819

>  <logSw>  (532) 
-2.9525

>  <PSA>  (532) 
64.671

>  <pKa_ma>  (532) 
17.9425

>  <pKa_mb>  (532) 
3.6841

>  <N_Chirals>  (532) 
1

>  <Name>  (532) 
1-{3-fluoro-3-[3-(pyridin-4-yl)-1,2,4-oxadiazol-5-yl]piperidin-1-yl}-2-(4-methoxyphenyl)ethan-1-one

>  <Smile>  (532) 
COc1ccc(CC(N(CCC2)CC2(c2nc(-c3ccncc3)no2)F)=O)cc1

>  <Color>  (532) 
YELLOW

>  <Collection>  (532) 
IC

>  <InChI>  (532) 
InChI=1S/C21H21FN4O3/c1-28-17-5-3-15(4-6-17)13-18(27)26-12-2-9-21(22,14-26)20-24-19(25-29-20)16-7-10-23-11-8-16/h3-8,10-11H,2,9,12-14H2,1H3/t21-/m0/s1

>  <InChI Key>  (532) 
PZWRWFORUQNVMQ-NRFANRHFSA-N

>  <PERCENTSP3>  (532) 
33.33

>  <Link>  (532) 
https://www.chemdiv.com/catalog/screening-compounds/compound-SA92-0168/

>  <MFCDNUMBER>  (532) 
MFCD32243200

>  <CLNUMBER>  (532) 
CM4899

>  <STEREO>  (532) 
RACEMIC MIXTURE

>  <State>  (532) 
Liquid

>  <Similarity score>  (532) 
0.19

$$$$
N-(3-cyano-4,5,6,7-tetrahydro-1-benzothiophen-2-yl)-5-(propan-2-yl)-1,2-oxazole-
     RDKit          2D

 22 24  0  0  0  0  0  0  0  0999 V2000
   -0.5790   -1.4913    0.0000 C   0  0  0  0  0  0  0  0  0  0  0  0
    0.0277   -2.2642    0.0000 C   0  0  0  0  0  0  0  0  0  0  0  0
    0.2397    1.6850    0.0000 C   0  0  0  0  0  0  0  0  0  0  0  0
   -1.5043   -1.8257    0.0000 S   0  0  0  0  0  0  0  0  0  0  0  0
   -0.5030   -3.0808    0.0000 C   0  0  0  0  0  0  0  0  0  0  0  0
   -0.4592    2.3218    0.0000 N   0  0  0  0  0  0  0  0  0  0  0  0
   -0.5790   -0.4763    0.0000 N   0  0  0  0  0  0  0  0  0  0  0  0
    1.0126    2.3032    0.0000 C   0  0  0  0  0  0  0  0  0  0  0  0
   -1.4627   -2.8200    0.0000 C   0  0  0  0  0  0  0  0  0  0  0  0
    0.2859    0.0243    0.0000 C   0  0  0  0  0  0  0  0  0  0  0  0
    0.7336    3.1729    0.0000 C   0  0  0  0  0  0  0  0  0  0  0  0
   -0.1755    3.1822    0.0000 O   0  0  0  0  0  0  0  0  0  0  0  0
    1.0426   -2.2018    0.0000 C   0  0  0  0  0  0  0  0  0  0  0  0
    2.0506   -2.1718    0.0000 N   0  0  0  0  0  0  0  0  0  0  0  0
    1.0588   -0.4602    0.0000 O   0  0  0  0  0  0  0  0  0  0  0  0
    1.2847    3.9134    0.0000 C   0  0  0  0  0  0  0  0  0  0  0  0
   -0.2469   -4.0518    0.0000 C   0  0  0  0  0  0  0  0  0  0  0  0
   -2.1868   -3.5212    0.0000 C   0  0  0  0  0  0  0  0  0  0  0  0
    0.9225    4.7646    0.0000 C   0  0  0  0  0  0  0  0  0  0  0  0
    2.1868    3.8234    0.0000 C   0  0  0  0  0  0  0  0  0  0  0  0
   -0.9575   -4.7646    0.0000 C   0  0  0  0  0  0  0  0  0  0  0  0
   -1.9285   -4.5016    0.0000 C   0  0  0  0  0  0  0  0  0  0  0  0
  1  2  2  0
  3 10  1  0
  1  4  1  0
  2  5  1  0
  3  6  2  0
  1  7  1  0
  3  8  1  0
  4  9  1  0
  5  9  2  0
  7 10  1  0
  8 11  2  0
 11 12  1  0
  6 12  1  0
  2 13  1  0
 13 14  3  0
 10 15  2  0
 11 16  1  0
  5 17  1  0
  9 18  1  0
 16 19  1  0
 16 20  1  0
 17 21  1  0
 21 22  1  0
 18 22  1  0
M  END
>  <IDNUMBER>  (533) 
C226-2941

>  <available>  (533) 
48

>  <H_acceptor>  (533) 
5

>  <H_donor>  (533) 
1

>  <B_rotN>  (533) 
5

>  <N_O>  (533) 
5

>  <logP>  (533) 
3.9048

>  <logD>  (533) 
2.2344

>  <logSw>  (533) 
-4.1434

>  <PSA>  (533) 
61.908

>  <pKa_ma>  (533) 
5.739

>  <pKa_mb>  (533) 
-5.3583

>  <N_Chirals>  (533) 
0

>  <Name>  (533) 
N-(3-cyano-4,5,6,7-tetrahydro-1-benzothiophen-2-yl)-5-(propan-2-yl)-1,2-oxazole-3-carboxamide

>  <Smile>  (533) 
CC(C)c1cc(C(Nc(sc2c3CCCC2)c3C#N)=O)no1

>  <Color>  (533) 
ORANGE

>  <Collection>  (533) 
DC

>  <InChI>  (533) 
InChI=1S/C16H17N3O2S/c1-9(2)13-7-12(19-21-13)15(20)18-16-11(8-17)10-5-3-4-6-14(10)22-16/h7,9H,3-6H2,1-2H3,(H,18,20)

>  <InChI Key>  (533) 
DFPPLONANWUOAM-UHFFFAOYSA-N

>  <PERCENTSP3>  (533) 
43.8

>  <Link>  (533) 
https://www.chemdiv.com/catalog/screening-compounds/compound-C226-2941/

>  <MFCDNUMBER>  (533) 
MFCD09782910

>  <CLNUMBER>  (533) 
CL2030

>  <STEREO>  (533) 
ACHIRAL

>  <State>  (533) 
Solid

>  <Similarity score>  (533) 
0.19

$$$$
N-(3-cyano-4,5,6,7-tetrahydro-1-benzothiophen-2-yl)-6-cyclopropyl-3-(4-methoxyph
     RDKit          2D

 34 39  0  0  0  0  0  0  0  0999 V2000
    0.1208    1.0978    0.0000 C   0  0  0  0  0  0  0  0  0  0  0  0
    0.3457    2.0935    0.0000 C   0  0  0  0  0  0  0  0  0  0  0  0
    0.7833   -2.2935    0.0000 C   0  0  0  0  0  0  0  0  0  0  0  0
    1.4415   -3.0433    0.0000 C   0  0  0  0  0  0  0  0  0  0  0  0
    1.1081   -1.3435    0.0000 C   0  0  0  0  0  0  0  0  0  0  0  0
   -0.0458   -3.6808    0.0000 N   0  0  0  0  0  0  0  0  0  0  0  0
   -0.8707    1.0102    0.0000 S   0  0  0  0  0  0  0  0  0  0  0  0
   -0.5083    2.5934    0.0000 C   0  0  0  0  0  0  0  0  0  0  0  0
   -0.1332   -2.6809    0.0000 C   0  0  0  0  0  0  0  0  0  0  0  0
    0.7790    0.3562    0.0000 N   0  0  0  0  0  0  0  0  0  0  0  0
    0.4542   -0.5935    0.0000 C   0  0  0  0  0  0  0  0  0  0  0  0
    2.4206   -2.8559    0.0000 N   0  0  0  0  0  0  0  0  0  0  0  0
   -1.2706    1.9518    0.0000 C   0  0  0  0  0  0  0  0  0  0  0  0
    0.9291   -3.9057    0.0000 O   0  0  0  0  0  0  0  0  0  0  0  0
    2.7454   -1.9058    0.0000 C   0  0  0  0  0  0  0  0  0  0  0  0
    2.0913   -1.1560    0.0000 C   0  0  0  0  0  0  0  0  0  0  0  0
    1.2456    2.4975    0.0000 C   0  0  0  0  0  0  0  0  0  0  0  0
    3.7286   -1.7184    0.0000 C   0  0  0  0  0  0  0  0  0  0  0  0
    2.1371    2.9058    0.0000 N   0  0  0  0  0  0  0  0  0  0  0  0
    4.6701   -2.0435    0.0000 C   0  0  0  0  0  0  0  0  0  0  0  0
    4.4827   -1.0562    0.0000 C   0  0  0  0  0  0  0  0  0  0  0  0
   -1.0789   -2.3642    0.0000 C   0  0  0  0  0  0  0  0  0  0  0  0
   -0.5290   -0.7812    0.0000 O   0  0  0  0  0  0  0  0  0  0  0  0
   -1.8372   -3.0183    0.0000 C   0  0  0  0  0  0  0  0  0  0  0  0
   -1.2706   -1.3810    0.0000 C   0  0  0  0  0  0  0  0  0  0  0  0
   -2.9705   -1.7144    0.0000 C   0  0  0  0  0  0  0  0  0  0  0  0
   -0.6833    3.5599    0.0000 C   0  0  0  0  0  0  0  0  0  0  0  0
   -2.2205   -1.0562    0.0000 C   0  0  0  0  0  0  0  0  0  0  0  0
   -2.7787   -2.6933    0.0000 C   0  0  0  0  0  0  0  0  0  0  0  0
   -2.2288    2.2683    0.0000 C   0  0  0  0  0  0  0  0  0  0  0  0
   -3.9162   -1.3810    0.0000 O   0  0  0  0  0  0  0  0  0  0  0  0
   -4.6701   -2.0435    0.0000 C   0  0  0  0  0  0  0  0  0  0  0  0
   -1.6332    3.9057    0.0000 C   0  0  0  0  0  0  0  0  0  0  0  0
   -2.3955    3.2641    0.0000 C   0  0  0  0  0  0  0  0  0  0  0  0
  1  2  2  0
  3  5  1  0
  3  4  2  0
  5 11  1  0
  6  9  2  0
  6 14  1  0
  1  7  1  0
  2  8  1  0
  3  9  1  0
  1 10  1  0
 10 11  1  0
 12 15  2  0
  4 12  1  0
  7 13  1  0
  8 13  2  0
  4 14  1  0
 15 16  1  0
  5 16  2  0
  2 17  1  0
 15 18  1  0
 17 19  3  0
 18 20  1  0
 18 21  1  0
 20 21  1  0
  9 22  1  0
 11 23  2  0
 22 24  2  0
 22 25  1  0
 26 28  1  0
 26 29  2  0
  8 27  1  0
 25 28  2  0
 24 29  1  0
 13 30  1  0
 26 31  1  0
 31 32  1  0
 27 33  1  0
 30 34  1  0
 33 34  1  0
M  END
>  <IDNUMBER>  (534) 
Y505-2298

>  <available>  (534) 
17

>  <H_acceptor>  (534) 
7

>  <H_donor>  (534) 
1

>  <B_rotN>  (534) 
7

>  <N_O>  (534) 
7

>  <logP>  (534) 
5.6464

>  <logD>  (534) 
4.141

>  <logSw>  (534) 
-5.6909

>  <PSA>  (534) 
78.613

>  <pKa_ma>  (534) 
5.9084

>  <pKa_mb>  (534) 
-0.3426

>  <N_Chirals>  (534) 
0

>  <Name>  (534) 
N-(3-cyano-4,5,6,7-tetrahydro-1-benzothiophen-2-yl)-6-cyclopropyl-3-(4-methoxyphenyl)[1,2]oxazolo[5,4-b]pyridine-4-carboxamide

>  <Smile>  (534) 
COc(cc1)ccc1-c1noc2nc(C3CC3)cc(C(Nc(sc3c4CCCC3)c4C#N)=O)c12

>  <Color>  (534) 
BROWN

>  <Collection>  (534) 
DC

>  <InChI>  (534) 
InChI=1S/C26H22N4O3S/c1-32-16-10-8-15(9-11-16)23-22-18(12-20(14-6-7-14)28-25(22)33-30-23)24(31)29-26-19(13-27)17-4-2-3-5-21(17)34-26/h8-12,14H,2-7H2,1H3,(H,29,31)

>  <InChI Key>  (534) 
FSQSTPJPFLTSGF-UHFFFAOYSA-N

>  <PERCENTSP3>  (534) 
30.8

>  <Link>  (534) 
https://www.chemdiv.com/catalog/screening-compounds/compound-Y505-2298/

>  <MFCDNUMBER>  (534) 
MFCD10701920

>  <CLNUMBER>  (534) 
CL7490

>  <STEREO>  (534) 
ACHIRAL

>  <State>  (534) 
Solid

>  <Similarity score>  (534) 
0.19

$$$$
N-(3-cyano-5,6,7,8-tetrahydro-4H-cyclohepta[b]thiophen-2-yl)-6-cyclopropyl-3-(4-
     RDKit          2D

 35 40  0  0  0  0  0  0  0  0999 V2000
    1.6182    0.6311    0.0000 C   0  0  0  0  0  0  0  0  0  0  0  0
    2.3057    1.3808    0.0000 C   0  0  0  0  0  0  0  0  0  0  0  0
   -0.2062   -1.7683    0.0000 C   0  0  0  0  0  0  0  0  0  0  0  0
    0.1813   -2.6888    0.0000 C   0  0  0  0  0  0  0  0  0  0  0  0
    0.3936   -0.9686    0.0000 C   0  0  0  0  0  0  0  0  0  0  0  0
   -1.4308   -2.8304    0.0000 N   0  0  0  0  0  0  0  0  0  0  0  0
    2.1181   -0.2145    0.0000 S   0  0  0  0  0  0  0  0  0  0  0  0
    3.2136    0.9559    0.0000 C   0  0  0  0  0  0  0  0  0  0  0  0
   -1.2058   -1.8557    0.0000 C   0  0  0  0  0  0  0  0  0  0  0  0
    0.6018    0.7560    0.0000 N   0  0  0  0  0  0  0  0  0  0  0  0
    0.0022   -0.0439    0.0000 C   0  0  0  0  0  0  0  0  0  0  0  0
    1.1768   -2.8055    0.0000 N   0  0  0  0  0  0  0  0  0  0  0  0
    3.0888   -0.0312    0.0000 C   0  0  0  0  0  0  0  0  0  0  0  0
   -0.5686   -3.3427    0.0000 O   0  0  0  0  0  0  0  0  0  0  0  0
    1.7766   -2.0059    0.0000 C   0  0  0  0  0  0  0  0  0  0  0  0
    1.3810   -1.0892    0.0000 C   0  0  0  0  0  0  0  0  0  0  0  0
    2.1348    2.3680    0.0000 C   0  0  0  0  0  0  0  0  0  0  0  0
    2.7679   -2.1307    0.0000 C   0  0  0  0  0  0  0  0  0  0  0  0
    1.9682    3.3427    0.0000 N   0  0  0  0  0  0  0  0  0  0  0  0
    3.5678   -2.7305    0.0000 C   0  0  0  0  0  0  0  0  0  0  0  0
    3.6926   -1.7309    0.0000 C   0  0  0  0  0  0  0  0  0  0  0  0
   -2.0056   -1.2558    0.0000 C   0  0  0  0  0  0  0  0  0  0  0  0
   -0.9935    0.0729    0.0000 O   0  0  0  0  0  0  0  0  0  0  0  0
   -2.9221   -1.6432    0.0000 C   0  0  0  0  0  0  0  0  0  0  0  0
   -1.8806   -0.2645    0.0000 C   0  0  0  0  0  0  0  0  0  0  0  0
   -3.6052   -0.0563    0.0000 C   0  0  0  0  0  0  0  0  0  0  0  0
    4.0801    1.4808    0.0000 C   0  0  0  0  0  0  0  0  0  0  0  0
   -2.6805    0.3355    0.0000 C   0  0  0  0  0  0  0  0  0  0  0  0
   -3.7177   -1.0435    0.0000 C   0  0  0  0  0  0  0  0  0  0  0  0
    3.7760   -0.7519    0.0000 C   0  0  0  0  0  0  0  0  0  0  0  0
   -4.4008    0.5478    0.0000 O   0  0  0  0  0  0  0  0  0  0  0  0
   -5.3172    0.1562    0.0000 C   0  0  0  0  0  0  0  0  0  0  0  0
    5.0048    1.1058    0.0000 C   0  0  0  0  0  0  0  0  0  0  0  0
    4.7675   -0.6811    0.0000 C   0  0  0  0  0  0  0  0  0  0  0  0
    5.3172    0.1562    0.0000 C   0  0  0  0  0  0  0  0  0  0  0  0
  1  2  2  0
  3  5  1  0
  3  4  2  0
  5 11  1  0
  6  9  2  0
  6 14  1  0
  1  7  1  0
  2  8  1  0
  3  9  1  0
  1 10  1  0
 10 11  1  0
 12 15  2  0
  4 12  1  0
  7 13  1  0
  8 13  2  0
  4 14  1  0
 15 16  1  0
  5 16  2  0
  2 17  1  0
 15 18  1  0
 17 19  3  0
 18 20  1  0
 18 21  1  0
 20 21  1  0
  9 22  1  0
 11 23  2  0
 22 24  2  0
 22 25  1  0
 26 28  1  0
 26 29  2  0
  8 27  1  0
 25 28  2  0
 24 29  1  0
 13 30  1  0
 26 31  1  0
 31 32  1  0
 27 33  1  0
 33 35  1  0
 30 34  1  0
 34 35  1  0
M  END
>  <IDNUMBER>  (535) 
Y505-2299

>  <available>  (535) 
17

>  <H_acceptor>  (535) 
7

>  <H_donor>  (535) 
1

>  <B_rotN>  (535) 
7

>  <N_O>  (535) 
7

>  <logP>  (535) 
6.1423

>  <logD>  (535) 
4.6369

>  <logSw>  (535) 
-5.6765

>  <PSA>  (535) 
78.944

>  <pKa_ma>  (535) 
5.9084

>  <pKa_mb>  (535) 
-0.3426

>  <N_Chirals>  (535) 
0

>  <Name>  (535) 
N-(3-cyano-5,6,7,8-tetrahydro-4H-cyclohepta[b]thiophen-2-yl)-6-cyclopropyl-3-(4-methoxyphenyl)[1,2]oxazolo[5,4-b]pyridine-4-carboxamide

>  <Smile>  (535) 
COc(cc1)ccc1-c1noc2nc(C3CC3)cc(C(Nc(sc3c4CCCCC3)c4C#N)=O)c12

>  <Color>  (535) 
BROWN

>  <Collection>  (535) 
DC

>  <InChI>  (535) 
InChI=1S/C27H24N4O3S/c1-33-17-11-9-16(10-12-17)24-23-19(13-21(15-7-8-15)29-26(23)34-31-24)25(32)30-27-20(14-28)18-5-3-2-4-6-22(18)35-27/h9-13,15H,2-8H2,1H3,(H,30,32)

>  <InChI Key>  (535) 
WVKCYYZLRAXGGS-UHFFFAOYSA-N

>  <PERCENTSP3>  (535) 
33.3

>  <Link>  (535) 
https://www.chemdiv.com/catalog/screening-compounds/compound-Y505-2299/

>  <MFCDNUMBER>  (535) 
MFCD10701637

>  <CLNUMBER>  (535) 
CL7490

>  <STEREO>  (535) 
ACHIRAL

>  <State>  (535) 
Solid

>  <Similarity score>  (535) 
0.19

$$$$
2-{[4-(difluoromethyl)-6-(3,4-dimethoxyphenyl)pyrimidin-2-yl]amino}-4,5,6,7-tetr
     RDKit          2D

 31 34  0  0  0  0  0  0  0  0999 V2000
    2.2087    0.0042    0.0000 C   0  0  0  0  0  0  0  0  0  0  0  0
    1.7962   -0.9210    0.0000 C   0  0  0  0  0  0  0  0  0  0  0  0
    0.7085    0.8668    0.0000 C   0  0  0  0  0  0  0  0  0  0  0  0
    3.2089   -0.0959    0.0000 S   0  0  0  0  0  0  0  0  0  0  0  0
    1.7086    0.8668    0.0000 N   0  0  0  0  0  0  0  0  0  0  0  0
    2.5462   -1.5793    0.0000 C   0  0  0  0  0  0  0  0  0  0  0  0
    3.4171   -1.0960    0.0000 C   0  0  0  0  0  0  0  0  0  0  0  0
    0.2084    0.0042    0.0000 N   0  0  0  0  0  0  0  0  0  0  0  0
    0.2168    1.7294    0.0000 N   0  0  0  0  0  0  0  0  0  0  0  0
   -0.7918    0.0042    0.0000 C   0  0  0  0  0  0  0  0  0  0  0  0
   -0.7833    1.7336    0.0000 C   0  0  0  0  0  0  0  0  0  0  0  0
    0.8418   -1.1461    0.0000 C   0  0  0  0  0  0  0  0  0  0  0  0
   -1.2919    0.8709    0.0000 C   0  0  0  0  0  0  0  0  0  0  0  0
   -0.1167   -1.3711    0.0000 N   0  0  0  0  0  0  0  0  0  0  0  0
   -1.2919   -0.8585    0.0000 C   0  0  0  0  0  0  0  0  0  0  0  0
   -2.2920   -0.8585    0.0000 C   0  0  0  0  0  0  0  0  0  0  0  0
   -2.7920   -1.7294    0.0000 C   0  0  0  0  0  0  0  0  0  0  0  0
   -1.2837    2.5962    0.0000 C   0  0  0  0  0  0  0  0  0  0  0  0
   -2.2920   -2.5962    0.0000 C   0  0  0  0  0  0  0  0  0  0  0  0
   -0.7918   -1.7294    0.0000 C   0  0  0  0  0  0  0  0  0  0  0  0
   -1.2919   -2.5962    0.0000 C   0  0  0  0  0  0  0  0  0  0  0  0
   -0.7709    3.4589    0.0000 F   0  0  0  0  0  0  0  0  0  0  0  0
   -2.2836    2.6046    0.0000 F   0  0  0  0  0  0  0  0  0  0  0  0
    2.5295   -2.5588    0.0000 C   0  0  0  0  0  0  0  0  0  0  0  0
   -3.7921   -1.7294    0.0000 O   0  0  0  0  0  0  0  0  0  0  0  0
    4.2923   -1.5920    0.0000 C   0  0  0  0  0  0  0  0  0  0  0  0
   -2.7920   -3.4589    0.0000 O   0  0  0  0  0  0  0  0  0  0  0  0
   -4.2923   -0.8585    0.0000 C   0  0  0  0  0  0  0  0  0  0  0  0
   -3.7921   -3.4589    0.0000 C   0  0  0  0  0  0  0  0  0  0  0  0
    3.3963   -3.0838    0.0000 C   0  0  0  0  0  0  0  0  0  0  0  0
    4.2674   -2.5962    0.0000 C   0  0  0  0  0  0  0  0  0  0  0  0
  1  2  2  0
  3  5  1  0
  1  4  1  0
  1  5  1  0
  2  6  1  0
  4  7  1  0
  6  7  2  0
  3  8  1  0
  3  9  2  0
  8 10  2  0
 10 13  1  0
  9 11  1  0
  2 12  1  0
 11 13  2  0
 12 14  3  0
 10 15  1  0
 15 16  1  0
 16 17  2  0
 11 18  1  0
 19 21  2  0
 17 19  1  0
 15 20  2  0
 20 21  1  0
 18 22  1  0
 18 23  1  0
  6 24  1  0
 17 25  1  0
  7 26  1  0
 19 27  1  0
 25 28  1  0
 27 29  1  0
 24 30  1  0
 26 31  1  0
 30 31  1  0
M  END
>  <IDNUMBER>  (536) 
Y505-1727

>  <available>  (536) 
21

>  <H_acceptor>  (536) 
5

>  <H_donor>  (536) 
1

>  <B_rotN>  (536) 
7

>  <N_O>  (536) 
6

>  <logP>  (536) 
5.304

>  <logD>  (536) 
5.2988

>  <logSw>  (536) 
-5.4523

>  <PSA>  (536) 
60.617

>  <pKa_ma>  (536) 
11.8181

>  <pKa_mb>  (536) 
5.4812

>  <N_Chirals>  (536) 
0

>  <Name>  (536) 
2-{[4-(difluoromethyl)-6-(3,4-dimethoxyphenyl)pyrimidin-2-yl]amino}-4,5,6,7-tetrahydro-1-benzothiophene-3-carbonitrile

>  <Smile>  (536) 
COc(ccc(-c1cc(C(F)F)nc(Nc(sc2c3CCCC2)c3C#N)n1)c1)c1OC

>  <Color>  (536) 
BROWN

>  <Collection>  (536) 
DC

>  <InChI>  (536) 
InChI=1S/C22H20F2N4O2S/c1-29-17-8-7-12(9-18(17)30-2)15-10-16(20(23)24)27-22(26-15)28-21-14(11-25)13-5-3-4-6-19(13)31-21/h7-10,20H,3-6H2,1-2H3,(H,26,27,28)

>  <InChI Key>  (536) 
SFFNXGXGTBBPOK-UHFFFAOYSA-N

>  <PERCENTSP3>  (536) 
31.8

>  <Link>  (536) 
https://www.chemdiv.com/catalog/screening-compounds/compound-Y505-1727/

>  <MFCDNUMBER>  (536) 
MFCD10700556

>  <STEREO>  (536) 
ACHIRAL

>  <State>  (536) 
Solid

>  <Similarity score>  (536) 
0.19

$$$$
2-amino-6-methyl-4,5,6,7-tetrahydrothieno[2,3-c]pyridine-3-carbonitrile
     RDKit          2D

 13 14  0  0  0  0  0  0  0  0999 V2000
    0.9791   -0.0515    0.0000 C   0  0  0  0  0  0  0  0  0  0  0  0
    1.5684   -0.8581    0.0000 C   0  0  0  0  0  0  0  0  0  0  0  0
    0.0292   -0.3540    0.0000 C   0  0  0  0  0  0  0  0  0  0  0  0
    0.0292   -1.3555    0.0000 C   0  0  0  0  0  0  0  0  0  0  0  0
    0.9791   -1.6693    0.0000 S   0  0  0  0  0  0  0  0  0  0  0  0
    1.2861    0.9030    0.0000 C   0  0  0  0  0  0  0  0  0  0  0  0
    1.5415    1.8663    0.0000 N   0  0  0  0  0  0  0  0  0  0  0  0
   -1.6983   -1.3622    0.0000 N   0  0  0  0  0  0  0  0  0  0  0  0
   -0.8379   -1.8529    0.0000 C   0  0  0  0  0  0  0  0  0  0  0  0
   -0.8379    0.1434    0.0000 C   0  0  0  0  0  0  0  0  0  0  0  0
    2.5700   -0.8581    0.0000 N   0  0  0  0  0  0  0  0  0  0  0  0
   -1.6983   -0.3540    0.0000 C   0  0  0  0  0  0  0  0  0  0  0  0
   -2.5700   -1.8663    0.0000 C   0  0  0  0  0  0  0  0  0  0  0  0
  1  2  2  0
  1  3  1  0
  3  4  2  0
  4  5  1  0
  2  5  1  0
  1  6  1  0
  6  7  3  0
  8 12  1  0
  4  9  1  0
  8  9  1  0
  3 10  1  0
  2 11  1  0
 10 12  1  0
  8 13  1  0
M  END
>  <IDNUMBER>  (537) 
K815-1018

>  <available>  (537) 
11

>  <H_acceptor>  (537) 
2

>  <H_donor>  (537) 
2

>  <B_rotN>  (537) 
1

>  <N_O>  (537) 
3

>  <logP>  (537) 
0.7961

>  <logD>  (537) 
0.7867

>  <logSw>  (537) 
-0.8538

>  <PSA>  (537) 
41.902

>  <pKa_ma>  (537) 
15.4685

>  <pKa_mb>  (537) 
5.7408

>  <N_Chirals>  (537) 
0

>  <Name>  (537) 
2-amino-6-methyl-4,5,6,7-tetrahydrothieno[2,3-c]pyridine-3-carbonitrile

>  <Smile>  (537) 
CN(CC1)Cc2c1c(C#N)c(N)s2

>  <Color>  (537) 
YELLOW

>  <Collection>  (537) 
DC

>  <InChI>  (537) 
InChI=1S/C9H11N3S/c1-12-3-2-6-7(4-10)9(11)13-8(6)5-12/h2-3,5,11H2,1H3

>  <InChI Key>  (537) 
WVPOJZUKIIRHOQ-UHFFFAOYSA-N

>  <PERCENTSP3>  (537) 
44.4

>  <Link>  (537) 
https://www.chemdiv.com/catalog/screening-compounds/compound-K815-1018/

>  <MFCDNUMBER>  (537) 
MFCD00712387

>  <CLNUMBER>  (537) 
CL5675

>  <STEREO>  (537) 
ACHIRAL

>  <State>  (537) 
Solid

>  <Similarity score>  (537) 
0.19

$$$$
1-{3-fluoro-3-[3-(pyridin-4-yl)-1,2,4-oxadiazol-5-yl]piperidin-1-yl}-3-(4-methox
     RDKit          2D

 30 33  0  0  0  0  0  0  0  0999 V2000
   -0.6426    3.1060    0.0000 N   0  0  0  0  0  0  0  0  0  0  0  0
    0.3447    3.2656    0.0000 C   0  0  0  0  0  0  0  0  0  0  0  0
    1.0591    2.5604    0.0000 C   0  0  0  0  0  0  0  0  0  0  0  0
   -1.0939    3.9990    0.0000 C   0  0  0  0  0  0  0  0  0  0  0  0
   -0.3887    4.7137    0.0000 N   0  0  0  0  0  0  0  0  0  0  0  0
    2.5604    1.6893    0.0000 N   0  0  0  0  0  0  0  0  0  0  0  0
    0.5047    4.2468    0.0000 O   0  0  0  0  0  0  0  0  0  0  0  0
    1.5543    1.6893    0.0000 C   0  0  0  0  0  0  0  0  0  0  0  0
    3.0526    0.8212    0.0000 C   0  0  0  0  0  0  0  0  0  0  0  0
   -2.0904    4.1527    0.0000 C   0  0  0  0  0  0  0  0  0  0  0  0
    4.0586    0.8212    0.0000 O   0  0  0  0  0  0  0  0  0  0  0  0
    2.5604   -0.0439    0.0000 C   0  0  0  0  0  0  0  0  0  0  0  0
    0.6708    1.6297    0.0000 F   0  0  0  0  0  0  0  0  0  0  0  0
   -4.0586    4.4693    0.0000 N   0  0  0  0  0  0  0  0  0  0  0  0
    1.5543    3.4193    0.0000 C   0  0  0  0  0  0  0  0  0  0  0  0
    2.5604   -1.7834    0.0000 C   0  0  0  0  0  0  0  0  0  0  0  0
    3.0526    2.5604    0.0000 C   0  0  0  0  0  0  0  0  0  0  0  0
    1.5543   -3.5133    0.0000 C   0  0  0  0  0  0  0  0  0  0  0  0
    3.0526   -0.9153    0.0000 C   0  0  0  0  0  0  0  0  0  0  0  0
    1.5543   -1.7834    0.0000 C   0  0  0  0  0  0  0  0  0  0  0  0
    3.0526   -2.6452    0.0000 C   0  0  0  0  0  0  0  0  0  0  0  0
    1.0591   -2.6452    0.0000 C   0  0  0  0  0  0  0  0  0  0  0  0
    2.5604   -3.5133    0.0000 C   0  0  0  0  0  0  0  0  0  0  0  0
    1.0591   -4.3752    0.0000 O   0  0  0  0  0  0  0  0  0  0  0  0
    2.5604    3.4193    0.0000 C   0  0  0  0  0  0  0  0  0  0  0  0
   -3.7077    3.5383    0.0000 C   0  0  0  0  0  0  0  0  0  0  0  0
   -3.4350    5.2433    0.0000 C   0  0  0  0  0  0  0  0  0  0  0  0
   -2.7203    3.3787    0.0000 C   0  0  0  0  0  0  0  0  0  0  0  0
   -2.4476    5.0896    0.0000 C   0  0  0  0  0  0  0  0  0  0  0  0
    1.5543   -5.2433    0.0000 C   0  0  0  0  0  0  0  0  0  0  0  0
  1  2  2  0
  2  3  1  0
  1  4  1  0
  4  5  2  0
  5  7  1  0
  6  8  1  0
  2  7  1  0
  3  8  1  0
  6  9  1  0
  4 10  1  0
  9 11  2  0
  9 12  1  0
  3 13  1  0
 14 27  2  0
 14 26  1  0
  3 15  1  0
 16 19  1  0
 17 25  1  0
  6 17  1  0
 18 23  1  0
 12 19  1  0
 16 20  2  0
 16 21  1  0
 20 22  1  0
 18 22  2  0
 21 23  2  0
 18 24  1  0
 15 25  1  0
 26 28  2  0
 27 29  1  0
 10 28  1  0
 10 29  2  0
 24 30  1  0
M  END
>  <IDNUMBER>  (538) 
SA92-0183

>  <available>  (538) 
70

>  <H_acceptor>  (538) 
7

>  <H_donor>  (538) 
0

>  <B_rotN>  (538) 
7

>  <N_O>  (538) 
7

>  <logP>  (538) 
3.2908

>  <logD>  (538) 
3.2907

>  <logSw>  (538) 
-3.2472

>  <PSA>  (538) 
64.671

>  <pKa_ma>  (538) 
22.9745

>  <pKa_mb>  (538) 
3.6841

>  <N_Chirals>  (538) 
1

>  <Name>  (538) 
1-{3-fluoro-3-[3-(pyridin-4-yl)-1,2,4-oxadiazol-5-yl]piperidin-1-yl}-3-(4-methoxyphenyl)propan-1-one

>  <Smile>  (538) 
COc1ccc(CCC(N(CCC2)CC2(c2nc(-c3ccncc3)no2)F)=O)cc1

>  <Color>  (538) 
YELLOW

>  <Collection>  (538) 
IC

>  <InChI>  (538) 
InChI=1S/C22H23FN4O3/c1-29-18-6-3-16(4-7-18)5-8-19(28)27-14-2-11-22(23,15-27)21-25-20(26-30-21)17-9-12-24-13-10-17/h3-4,6-7,9-10,12-13H,2,5,8,11,14-15H2,1H3/t22-/m0/s1

>  <InChI Key>  (538) 
JNNBZZARQNPXQU-QFIPXVFZSA-N

>  <PERCENTSP3>  (538) 
36.36

>  <Link>  (538) 
https://www.chemdiv.com/catalog/screening-compounds/compound-SA92-0183/

>  <MFCDNUMBER>  (538) 
MFCD32241446

>  <CLNUMBER>  (538) 
CM4899

>  <STEREO>  (538) 
RACEMIC MIXTURE

>  <State>  (538) 
Liquid

>  <Similarity score>  (538) 
0.18

$$$$
4-(5-{3-fluoro-1-[(4-methyl-1,3-thiazol-5-yl)methyl]piperidin-3-yl}-1,2,4-oxadia
     RDKit          2D

 25 28  0  0  0  0  0  0  0  0999 V2000
   -0.5845   -1.2957    0.0000 N   0  0  0  0  0  0  0  0  0  0  0  0
    0.4027   -1.4522    0.0000 C   0  0  0  0  0  0  0  0  0  0  0  0
   -1.0355   -2.1886    0.0000 C   0  0  0  0  0  0  0  0  0  0  0  0
    1.1077   -0.7472    0.0000 C   0  0  0  0  0  0  0  0  0  0  0  0
   -0.3305   -2.8999    0.0000 N   0  0  0  0  0  0  0  0  0  0  0  0
    2.6116    1.8534    0.0000 C   0  0  0  0  0  0  0  0  0  0  0  0
    0.5592   -2.4424    0.0000 O   0  0  0  0  0  0  0  0  0  0  0  0
    2.2796    3.4358    0.0000 N   0  0  0  0  0  0  0  0  0  0  0  0
    3.0221    2.7654    0.0000 C   0  0  0  0  0  0  0  0  0  0  0  0
    2.6116    0.1175    0.0000 N   0  0  0  0  0  0  0  0  0  0  0  0
    1.6154    1.9569    0.0000 S   0  0  0  0  0  0  0  0  0  0  0  0
    1.4084    2.9344    0.0000 C   0  0  0  0  0  0  0  0  0  0  0  0
    1.6154    0.1175    0.0000 C   0  0  0  0  0  0  0  0  0  0  0  0
    3.1099    0.9887    0.0000 C   0  0  0  0  0  0  0  0  0  0  0  0
   -2.0257   -2.3484    0.0000 C   0  0  0  0  0  0  0  0  0  0  0  0
    0.7285    0.1802    0.0000 F   0  0  0  0  0  0  0  0  0  0  0  0
   -3.9998   -2.6586    0.0000 N   0  0  0  0  0  0  0  0  0  0  0  0
    1.6154   -1.6122    0.0000 C   0  0  0  0  0  0  0  0  0  0  0  0
    3.1099   -0.7472    0.0000 C   0  0  0  0  0  0  0  0  0  0  0  0
    3.9998    2.9721    0.0000 C   0  0  0  0  0  0  0  0  0  0  0  0
    2.6116   -1.6122    0.0000 C   0  0  0  0  0  0  0  0  0  0  0  0
   -3.6426   -1.7249    0.0000 C   0  0  0  0  0  0  0  0  0  0  0  0
   -3.3701   -3.4358    0.0000 C   0  0  0  0  0  0  0  0  0  0  0  0
   -2.6556   -1.5682    0.0000 C   0  0  0  0  0  0  0  0  0  0  0  0
   -2.3891   -3.2758    0.0000 C   0  0  0  0  0  0  0  0  0  0  0  0
  1  2  2  0
  1  3  1  0
  2  4  1  0
  3  5  2  0
  5  7  1  0
  6 14  1  0
  2  7  1  0
  8  9  1  0
  6  9  2  0
 10 13  1  0
  6 11  1  0
 11 12  1  0
  8 12  2  0
  4 13  1  0
 10 14  1  0
  3 15  1  0
  4 16  1  0
 17 23  2  0
 17 22  1  0
  4 18  1  0
 19 21  1  0
 10 19  1  0
  9 20  1  0
 18 21  1  0
 22 24  2  0
 23 25  1  0
 15 24  1  0
 15 25  2  0
M  END
>  <IDNUMBER>  (539) 
SA92-0264

>  <available>  (539) 
65

>  <H_acceptor>  (539) 
6

>  <H_donor>  (539) 
0

>  <B_rotN>  (539) 
4

>  <N_O>  (539) 
6

>  <logP>  (539) 
2.4633

>  <logD>  (539) 
2.3955

>  <logSw>  (539) 
-2.4011

>  <PSA>  (539) 
54.943

>  <pKa_ma>  (539) 
26.9519

>  <pKa_mb>  (539) 
6.6276

>  <N_Chirals>  (539) 
1

>  <Name>  (539) 
4-(5-{3-fluoro-1-[(4-methyl-1,3-thiazol-5-yl)methyl]piperidin-3-yl}-1,2,4-oxadiazol-3-yl)pyridine

>  <Smile>  (539) 
Cc1c(CN(CCC2)CC2(c2nc(-c3ccncc3)no2)F)scn1

>  <Color>  (539) 
YELLOW

>  <Collection>  (539) 
IC

>  <InChI>  (539) 
InChI=1S/C17H18FN5OS/c1-12-14(25-11-20-12)9-23-8-2-5-17(18,10-23)16-21-15(22-24-16)13-3-6-19-7-4-13/h3-4,6-7,11H,2,5,8-10H2,1H3/t17-/m0/s1

>  <InChI Key>  (539) 
ARFZORDUHWTOHJ-KRWDZBQOSA-N

>  <PERCENTSP3>  (539) 
41.18

>  <Link>  (539) 
https://www.chemdiv.com/catalog/screening-compounds/compound-SA92-0264/

>  <MFCDNUMBER>  (539) 
MFCD32242329

>  <CLNUMBER>  (539) 
CM4899

>  <STEREO>  (539) 
RACEMIC MIXTURE

>  <State>  (539) 
Oil

>  <Similarity score>  (539) 
0.18

$$$$
N-(3-cyano-4,5,6,7-tetrahydro-1-benzothiophen-2-yl)-3-(3-{[(5-methyl-1H-benzimid
     RDKit          2D

 33 37  0  0  0  0  0  0  0  0999 V2000
    4.2804    1.2734    0.0000 C   0  0  0  0  0  0  0  0  0  0  0  0
    5.2513    0.9815    0.0000 C   0  0  0  0  0  0  0  0  0  0  0  0
    4.2678    2.2693    0.0000 S   0  0  0  0  0  0  0  0  0  0  0  0
    5.8056    1.7858    0.0000 C   0  0  0  0  0  0  0  0  0  0  0  0
   -3.0842   -2.6278    0.0000 C   0  0  0  0  0  0  0  0  0  0  0  0
   -3.6718   -1.8025    0.0000 N   0  0  0  0  0  0  0  0  0  0  0  0
    0.0626   -0.9065    0.0000 N   0  0  0  0  0  0  0  0  0  0  0  0
    5.2056    2.5945    0.0000 C   0  0  0  0  0  0  0  0  0  0  0  0
   -3.6592   -3.4321    0.0000 N   0  0  0  0  0  0  0  0  0  0  0  0
   -0.5377   -1.7399    0.0000 C   0  0  0  0  0  0  0  0  0  0  0  0
    3.4884    0.6731    0.0000 N   0  0  0  0  0  0  0  0  0  0  0  0
    0.0666   -2.5776    0.0000 N   0  0  0  0  0  0  0  0  0  0  0  0
   -4.6094   -2.1194    0.0000 C   0  0  0  0  0  0  0  0  0  0  0  0
    5.5805    0.0313    0.0000 C   0  0  0  0  0  0  0  0  0  0  0  0
    1.0420   -1.2191    0.0000 C   0  0  0  0  0  0  0  0  0  0  0  0
   -4.6094   -3.1153    0.0000 C   0  0  0  0  0  0  0  0  0  0  0  0
    1.0420   -2.2569    0.0000 O   0  0  0  0  0  0  0  0  0  0  0  0
    5.9058   -0.9065    0.0000 N   0  0  0  0  0  0  0  0  0  0  0  0
    2.5675    1.0607    0.0000 C   0  0  0  0  0  0  0  0  0  0  0  0
   -2.0838   -2.6195    0.0000 S   0  0  0  0  0  0  0  0  0  0  0  0
   -5.4763   -1.6191    0.0000 C   0  0  0  0  0  0  0  0  0  0  0  0
    2.4799    1.7818    0.0000 O   0  0  0  0  0  0  0  0  0  0  0  0
   -1.5837   -1.7525    0.0000 C   0  0  0  0  0  0  0  0  0  0  0  0
   -5.4723   -3.6196    0.0000 C   0  0  0  0  0  0  0  0  0  0  0  0
    1.8797   -0.5939    0.0000 C   0  0  0  0  0  0  0  0  0  0  0  0
    1.7422    0.4231    0.0000 C   0  0  0  0  0  0  0  0  0  0  0  0
   -6.3392   -2.1194    0.0000 C   0  0  0  0  0  0  0  0  0  0  0  0
    6.8017    1.8984    0.0000 C   0  0  0  0  0  0  0  0  0  0  0  0
   -6.3309   -3.1195    0.0000 C   0  0  0  0  0  0  0  0  0  0  0  0
    5.6058    3.5071    0.0000 C   0  0  0  0  0  0  0  0  0  0  0  0
   -7.2019   -1.6191    0.0000 C   0  0  0  0  0  0  0  0  0  0  0  0
    7.2019    2.8319    0.0000 C   0  0  0  0  0  0  0  0  0  0  0  0
    6.5933    3.6196    0.0000 C   0  0  0  0  0  0  0  0  0  0  0  0
  1  2  2  0
  1  3  1  0
  2  4  1  0
  5 20  1  0
  5  6  2  0
  7 15  2  0
  3  8  1  0
  4  8  2  0
  5  9  1  0
  7 10  1  0
  1 11  1  0
 12 17  1  0
 10 12  2  0
  6 13  1  0
  2 14  1  0
 15 25  1  0
  9 16  1  0
 13 16  2  0
 15 17  1  0
 14 18  3  0
 11 19  1  0
 20 23  1  0
 13 21  1  0
 19 22  2  0
 10 23  1  0
 16 24  1  0
 25 26  1  0
 19 26  1  0
 21 27  2  0
 27 29  1  0
  4 28  1  0
 24 29  2  0
  8 30  1  0
 27 31  1  0
 28 32  1  0
 30 33  1  0
 32 33  1  0
M  END
>  <IDNUMBER>  (540) 
J021-0448

>  <available>  (540) 
65

>  <H_acceptor>  (540) 
8

>  <H_donor>  (540) 
2

>  <B_rotN>  (540) 
9

>  <N_O>  (540) 
8

>  <logP>  (540) 
4.1744

>  <logD>  (540) 
2.8555

>  <logSw>  (540) 
-4.4324

>  <PSA>  (540) 
90.234

>  <pKa_ma>  (540) 
6.1024

>  <pKa_mb>  (540) 
6.5756

>  <N_Chirals>  (540) 
0

>  <Name>  (540) 
N-(3-cyano-4,5,6,7-tetrahydro-1-benzothiophen-2-yl)-3-(3-{[(5-methyl-1H-benzimidazol-2-yl)sulfanyl]methyl}-1,2,4-oxadiazol-5-yl)propanamide

>  <Smile>  (540) 
Cc(cc1)cc2c1[nH]c(SCc1noc(CCC(Nc(sc3c4CCCC3)c4C#N)=O)n1)n2

>  <Color>  (540) 
NOT COLORED

>  <Collection>  (540) 
DC

>  <InChI>  (540) 
InChI=1S/C23H22N6O2S2/c1-13-6-7-16-17(10-13)26-23(25-16)32-12-19-27-21(31-29-19)9-8-20(30)28-22-15(11-24)14-4-2-3-5-18(14)33-22/h6-7,10H,2-5,8-9,12H2,1H3,(H,25,26)(H,28,30)

>  <InChI Key>  (540) 
HWAHMFFBRXTCGC-UHFFFAOYSA-N

>  <PERCENTSP3>  (540) 
34.8

>  <Link>  (540) 
https://www.chemdiv.com/catalog/screening-compounds/compound-J021-0448/

>  <MFCDNUMBER>  (540) 
MFCD27218420

>  <CLNUMBER>  (540) 
CL8315

>  <STEREO>  (540) 
ACHIRAL

>  <State>  (540) 
Solid

>  <Similarity score>  (540) 
0.18

$$$$
N-(3-cyano-4,5,6,7-tetrahydro-1-benzothiophen-2-yl)-2-[(5-methoxy-1H-benzimidazo
     RDKit          2D

 27 30  0  0  0  0  0  0  0  0999 V2000
    2.3969   -1.2795    0.0000 C   0  0  0  0  0  0  0  0  0  0  0  0
    3.0304   -0.4710    0.0000 C   0  0  0  0  0  0  0  0  0  0  0  0
    2.9220   -2.0843    0.0000 S   0  0  0  0  0  0  0  0  0  0  0  0
    3.9476   -0.8337    0.0000 C   0  0  0  0  0  0  0  0  0  0  0  0
   -1.6172    0.4544    0.0000 C   0  0  0  0  0  0  0  0  0  0  0  0
   -2.1798    1.2672    0.0000 N   0  0  0  0  0  0  0  0  0  0  0  0
    3.8723   -1.8465    0.0000 C   0  0  0  0  0  0  0  0  0  0  0  0
   -2.1798   -0.3459    0.0000 N   0  0  0  0  0  0  0  0  0  0  0  0
    1.3965   -1.2795    0.0000 N   0  0  0  0  0  0  0  0  0  0  0  0
   -3.1219    0.9421    0.0000 C   0  0  0  0  0  0  0  0  0  0  0  0
    2.7970    0.4961    0.0000 C   0  0  0  0  0  0  0  0  0  0  0  0
   -3.1219   -0.0708    0.0000 C   0  0  0  0  0  0  0  0  0  0  0  0
    2.5720    1.4673    0.0000 N   0  0  0  0  0  0  0  0  0  0  0  0
    0.9169   -0.4335    0.0000 C   0  0  0  0  0  0  0  0  0  0  0  0
   -3.9807    1.4673    0.0000 C   0  0  0  0  0  0  0  0  0  0  0  0
   -0.5919    0.4544    0.0000 S   0  0  0  0  0  0  0  0  0  0  0  0
    1.3965    0.4544    0.0000 O   0  0  0  0  0  0  0  0  0  0  0  0
   -3.9807   -0.5542    0.0000 C   0  0  0  0  0  0  0  0  0  0  0  0
   -0.1041   -0.4335    0.0000 C   0  0  0  0  0  0  0  0  0  0  0  0
   -4.8435    0.9421    0.0000 C   0  0  0  0  0  0  0  0  0  0  0  0
   -4.8435   -0.0708    0.0000 C   0  0  0  0  0  0  0  0  0  0  0  0
    4.8602   -0.4335    0.0000 C   0  0  0  0  0  0  0  0  0  0  0  0
    4.7103   -2.4218    0.0000 C   0  0  0  0  0  0  0  0  0  0  0  0
   -5.7064    1.4298    0.0000 O   0  0  0  0  0  0  0  0  0  0  0  0
   -5.7064    2.4218    0.0000 C   0  0  0  0  0  0  0  0  0  0  0  0
    5.7064   -0.9712    0.0000 C   0  0  0  0  0  0  0  0  0  0  0  0
    5.6358   -1.9799    0.0000 C   0  0  0  0  0  0  0  0  0  0  0  0
  1  2  2  0
  1  3  1  0
  2  4  1  0
  4  7  2  0
  5 16  1  0
  5  6  2  0
  3  7  1  0
  5  8  1  0
  1  9  1  0
  6 10  1  0
 10 12  2  0
  2 11  1  0
  8 12  1  0
 11 13  3  0
  9 14  1  0
 10 15  1  0
 16 19  1  0
 14 17  2  0
 12 18  1  0
 14 19  1  0
 15 20  2  0
 20 21  1  0
 18 21  2  0
  4 22  1  0
  7 23  1  0
 20 24  1  0
 24 25  1  0
 22 26  1  0
 26 27  1  0
 23 27  1  0
M  END
>  <IDNUMBER>  (541) 
Y505-4845

>  <available>  (541) 
26

>  <H_acceptor>  (541) 
6

>  <H_donor>  (541) 
2

>  <B_rotN>  (541) 
7

>  <N_O>  (541) 
6

>  <logP>  (541) 
3.5256

>  <logD>  (541) 
2.4929

>  <logSw>  (541) 
-4.2098

>  <PSA>  (541) 
65.444

>  <pKa_ma>  (541) 
6.4095

>  <pKa_mb>  (541) 
4.2873

>  <N_Chirals>  (541) 
0

>  <Name>  (541) 
N-(3-cyano-4,5,6,7-tetrahydro-1-benzothiophen-2-yl)-2-[(5-methoxy-1H-benzimidazol-2-yl)sulfanyl]acetamide

>  <Smile>  (541) 
c1(c(c2c(s1)CCCC2)C#N)NC(=O)CSc1nc2c([nH]1)ccc(c2)OC

>  <Color>  (541) 
ORANGE

>  <Collection>  (541) 
DC

>  <InChI>  (541) 
InChI=1S/C19H18N4O2S2/c1-25-11-6-7-14-15(8-11)22-19(21-14)26-10-17(24)23-18-13(9-20)12-4-2-3-5-16(12)27-18/h6-8H,2-5,10H2,1H3,(H,21,22)(H,23,24)

>  <InChI Key>  (541) 
JPLSNKJYBYFQJI-UHFFFAOYSA-N

>  <PERCENTSP3>  (541) 
8

>  <Link>  (541) 
https://www.chemdiv.com/catalog/screening-compounds/compound-Y505-4845/

>  <MFCDNUMBER>  (541) 
MFCD02008494

>  <STEREO>  (541) 
ACHIRAL

>  <State>  (541) 
Solid

>  <Similarity score>  (541) 
0.18

$$$$
N-(3-cyano-4,5,6,7-tetrahydro-1-benzothiophen-2-yl)-2-phenoxybutanamide
     RDKit          2D

 24 26  0  0  0  0  0  0  0  0999 V2000
    1.3694   -0.8691    0.0000 C   0  0  0  0  0  0  0  0  0  0  0  0
    1.9403   -0.0647    0.0000 C   0  0  0  0  0  0  0  0  0  0  0  0
    1.9403   -1.6736    0.0000 S   0  0  0  0  0  0  0  0  0  0  0  0
    2.8950   -0.3607    0.0000 C   0  0  0  0  0  0  0  0  0  0  0  0
    0.3730   -0.8691    0.0000 N   0  0  0  0  0  0  0  0  0  0  0  0
    2.8950   -1.3569    0.0000 C   0  0  0  0  0  0  0  0  0  0  0  0
   -0.1147   -0.0022    0.0000 C   0  0  0  0  0  0  0  0  0  0  0  0
    1.6235    0.8900    0.0000 C   0  0  0  0  0  0  0  0  0  0  0  0
    1.2818    1.8653    0.0000 N   0  0  0  0  0  0  0  0  0  0  0  0
   -1.1358   -0.0022    0.0000 C   0  0  0  0  0  0  0  0  0  0  0  0
   -1.6236    0.8690    0.0000 O   0  0  0  0  0  0  0  0  0  0  0  0
    0.3730    0.8483    0.0000 O   0  0  0  0  0  0  0  0  0  0  0  0
   -2.6199    0.8690    0.0000 C   0  0  0  0  0  0  0  0  0  0  0  0
    3.7662    0.1271    0.0000 C   0  0  0  0  0  0  0  0  0  0  0  0
    3.7662   -1.8653    0.0000 C   0  0  0  0  0  0  0  0  0  0  0  0
   -1.6236   -0.8691    0.0000 C   0  0  0  0  0  0  0  0  0  0  0  0
   -3.1285    0.0230    0.0000 C   0  0  0  0  0  0  0  0  0  0  0  0
   -3.1285    1.7403    0.0000 C   0  0  0  0  0  0  0  0  0  0  0  0
    4.6332   -0.3607    0.0000 C   0  0  0  0  0  0  0  0  0  0  0  0
    4.6332   -1.3569    0.0000 C   0  0  0  0  0  0  0  0  0  0  0  0
   -1.1358   -1.7403    0.0000 C   0  0  0  0  0  0  0  0  0  0  0  0
   -4.1247    0.0230    0.0000 C   0  0  0  0  0  0  0  0  0  0  0  0
   -4.1247    1.7612    0.0000 C   0  0  0  0  0  0  0  0  0  0  0  0
   -4.6332    0.8690    0.0000 C   0  0  0  0  0  0  0  0  0  0  0  0
  1  2  2  0
  1  3  1  0
  2  4  1  0
  1  5  1  0
  3  6  1  0
  4  6  2  0
  5  7  1  0
  2  8  1  0
  8  9  3  0
  7 10  1  0
 10 11  1  0
  7 12  2  0
 11 13  1  0
  4 14  1  0
  6 15  1  0
 10 16  1  0
 13 17  2  0
 13 18  1  0
 14 19  1  0
 19 20  1  0
 15 20  1  0
 16 21  1  0
 17 22  1  0
 18 23  2  0
 23 24  1  0
 22 24  2  0
M  END
>  <IDNUMBER>  (542) 
Y203-6112

>  <available>  (542) 
12

>  <H_acceptor>  (542) 
4

>  <H_donor>  (542) 
1

>  <B_rotN>  (542) 
7

>  <N_O>  (542) 
4

>  <logP>  (542) 
4.5466

>  <logD>  (542) 
2.9389

>  <logSw>  (542) 
-4.4714

>  <PSA>  (542) 
46.773

>  <pKa_ma>  (542) 
5.8032

>  <pKa_mb>  (542) 
-4.8807

>  <N_Chirals>  (542) 
1

>  <Name>  (542) 
N-(3-cyano-4,5,6,7-tetrahydro-1-benzothiophen-2-yl)-2-phenoxybutanamide

>  <Smile>  (542) 
CCC(C(Nc(sc1c2CCCC1)c2C#N)=O)Oc1ccccc1

>  <Color>  (542) 
BROWN

>  <Collection>  (542) 
DC

>  <InChI>  (542) 
InChI=1S/C19H20N2O2S/c1-2-16(23-13-8-4-3-5-9-13)18(22)21-19-15(12-20)14-10-6-7-11-17(14)24-19/h3-5,8-9,16H,2,6-7,10-11H2,1H3,(H,21,22)/t16-/m0/s1

>  <InChI Key>  (542) 
FYMKJXIUOQGUHW-INIZCTEOSA-N

>  <PERCENTSP3>  (542) 
36.84

>  <Link>  (542) 
https://www.chemdiv.com/catalog/screening-compounds/compound-Y203-6112/

>  <MFCDNUMBER>  (542) 
MFCD00851728

>  <STEREO>  (542) 
RACEMIC MIXTURE

>  <State>  (542) 
Solid

>  <Similarity score>  (542) 
0.18

$$$$
3-(3-{[(1,3-benzoxazol-2-yl)sulfanyl]methyl}-1,2,4-oxadiazol-5-yl)-N-(3-cyano-4,
     RDKit          2D

 32 36  0  0  0  0  0  0  0  0999 V2000
    3.8430    1.2736    0.0000 C   0  0  0  0  0  0  0  0  0  0  0  0
    4.8181    0.9817    0.0000 C   0  0  0  0  0  0  0  0  0  0  0  0
    3.8303    2.2697    0.0000 S   0  0  0  0  0  0  0  0  0  0  0  0
    5.3767    1.7859    0.0000 C   0  0  0  0  0  0  0  0  0  0  0  0
   -3.5136   -2.6280    0.0000 C   0  0  0  0  0  0  0  0  0  0  0  0
   -4.1095   -1.8024    0.0000 N   0  0  0  0  0  0  0  0  0  0  0  0
   -0.3710   -0.9066    0.0000 N   0  0  0  0  0  0  0  0  0  0  0  0
    4.7764    2.5948    0.0000 C   0  0  0  0  0  0  0  0  0  0  0  0
   -0.9711   -1.7400    0.0000 C   0  0  0  0  0  0  0  0  0  0  0  0
    3.0551    0.6733    0.0000 N   0  0  0  0  0  0  0  0  0  0  0  0
   -0.3710   -2.5779    0.0000 N   0  0  0  0  0  0  0  0  0  0  0  0
   -4.0970   -3.4322    0.0000 O   0  0  0  0  0  0  0  0  0  0  0  0
    5.1517    0.0313    0.0000 C   0  0  0  0  0  0  0  0  0  0  0  0
    0.6043   -1.2190    0.0000 C   0  0  0  0  0  0  0  0  0  0  0  0
    0.6128   -2.2570    0.0000 O   0  0  0  0  0  0  0  0  0  0  0  0
   -5.0474   -2.1195    0.0000 C   0  0  0  0  0  0  0  0  0  0  0  0
    5.4766   -0.9066    0.0000 N   0  0  0  0  0  0  0  0  0  0  0  0
   -5.0474   -3.1155    0.0000 C   0  0  0  0  0  0  0  0  0  0  0  0
    2.1298    1.0608    0.0000 C   0  0  0  0  0  0  0  0  0  0  0  0
   -2.5216   -2.6193    0.0000 S   0  0  0  0  0  0  0  0  0  0  0  0
    2.0507    1.7819    0.0000 O   0  0  0  0  0  0  0  0  0  0  0  0
   -2.0131   -1.7527    0.0000 C   0  0  0  0  0  0  0  0  0  0  0  0
    1.4422   -0.5940    0.0000 C   0  0  0  0  0  0  0  0  0  0  0  0
    1.3129    0.4233    0.0000 C   0  0  0  0  0  0  0  0  0  0  0  0
    6.3686    1.8986    0.0000 C   0  0  0  0  0  0  0  0  0  0  0  0
    5.1766    3.5073    0.0000 C   0  0  0  0  0  0  0  0  0  0  0  0
   -5.9102   -1.6190    0.0000 C   0  0  0  0  0  0  0  0  0  0  0  0
   -5.9102   -3.6200    0.0000 C   0  0  0  0  0  0  0  0  0  0  0  0
    6.7688    2.8321    0.0000 C   0  0  0  0  0  0  0  0  0  0  0  0
    6.1687    3.6200    0.0000 C   0  0  0  0  0  0  0  0  0  0  0  0
   -6.7646   -3.1198    0.0000 C   0  0  0  0  0  0  0  0  0  0  0  0
   -6.7688   -2.1195    0.0000 C   0  0  0  0  0  0  0  0  0  0  0  0
  1  2  2  0
  1  3  1  0
  2  4  1  0
  5 20  1  0
  5  6  2  0
  7 14  2  0
  3  8  1  0
  4  8  2  0
  7  9  1  0
  1 10  1  0
 11 15  1  0
  9 11  2  0
  5 12  1  0
  2 13  1  0
 14 23  1  0
 14 15  1  0
  6 16  1  0
 13 17  3  0
 12 18  1  0
 16 18  2  0
 10 19  1  0
 20 22  1  0
 19 21  2  0
  9 22  1  0
 23 24  1  0
 19 24  1  0
  4 25  1  0
  8 26  1  0
 16 27  1  0
 18 28  1  0
 25 29  1  0
 26 30  1  0
 29 30  1  0
 28 31  2  0
 27 32  2  0
 31 32  1  0
M  END
>  <IDNUMBER>  (543) 
J021-0120

>  <available>  (543) 
92

>  <H_acceptor>  (543) 
9

>  <H_donor>  (543) 
1

>  <B_rotN>  (543) 
9

>  <N_O>  (543) 
8

>  <logP>  (543) 
4.5264

>  <logD>  (543) 
3.2074

>  <logSw>  (543) 
-4.5742

>  <PSA>  (543) 
88.884

>  <pKa_ma>  (543) 
6.1024

>  <pKa_mb>  (543) 
0.428

>  <N_Chirals>  (543) 
0

>  <Name>  (543) 
3-(3-{[(1,3-benzoxazol-2-yl)sulfanyl]methyl}-1,2,4-oxadiazol-5-yl)-N-(3-cyano-4,5,6,7-tetrahydro-1-benzothiophen-2-yl)propanamide

>  <Smile>  (543) 
N#Cc1c(NC(CCc2nc(CSc3nc(cccc4)c4o3)no2)=O)sc2c1CCCC2

>  <Color>  (543) 
BROWN

>  <Collection>  (543) 
DC

>  <InChI>  (543) 
InChI=1S/C22H19N5O3S2/c23-11-14-13-5-1-4-8-17(13)32-21(14)26-19(28)9-10-20-25-18(27-30-20)12-31-22-24-15-6-2-3-7-16(15)29-22/h2-3,6-7H,1,4-5,8-10,12H2,(H,26,28)

>  <InChI Key>  (543) 
QWKGQSJEUSKONT-UHFFFAOYSA-N

>  <PERCENTSP3>  (543) 
31.8

>  <Link>  (543) 
https://www.chemdiv.com/catalog/screening-compounds/compound-J021-0120/

>  <MFCDNUMBER>  (543) 
MFCD24847622

>  <CLNUMBER>  (543) 
CL8315

>  <STEREO>  (543) 
ACHIRAL

>  <State>  (543) 
Solid

>  <Similarity score>  (543) 
0.18

$$$$
3-fluoro-N-(2-methoxyethyl)-3-[3-(pyridin-4-yl)-1,2,4-oxadiazol-5-yl]piperidine-
     RDKit          2D

 25 27  0  0  0  0  0  0  0  0999 V2000
   -0.6438   -2.2415    0.0000 N   0  0  0  0  0  0  0  0  0  0  0  0
    0.3460   -2.3949    0.0000 C   0  0  0  0  0  0  0  0  0  0  0  0
    1.0509   -1.6900    0.0000 C   0  0  0  0  0  0  0  0  0  0  0  0
   -1.0916   -3.1342    0.0000 C   0  0  0  0  0  0  0  0  0  0  0  0
   -0.3900   -3.8327    0.0000 N   0  0  0  0  0  0  0  0  0  0  0  0
    2.5610   -0.8224    0.0000 N   0  0  0  0  0  0  0  0  0  0  0  0
    0.5027   -3.3787    0.0000 O   0  0  0  0  0  0  0  0  0  0  0  0
    3.0588    0.0484    0.0000 C   0  0  0  0  0  0  0  0  0  0  0  0
    1.5491   -0.8224    0.0000 C   0  0  0  0  0  0  0  0  0  0  0  0
    4.0552    0.0484    0.0000 O   0  0  0  0  0  0  0  0  0  0  0  0
   -2.0784   -3.2783    0.0000 C   0  0  0  0  0  0  0  0  0  0  0  0
    0.6656   -0.7596    0.0000 F   0  0  0  0  0  0  0  0  0  0  0  0
   -4.0552   -3.5979    0.0000 N   0  0  0  0  0  0  0  0  0  0  0  0
    2.5610    0.9132    0.0000 N   0  0  0  0  0  0  0  0  0  0  0  0
    1.5491   -2.5546    0.0000 C   0  0  0  0  0  0  0  0  0  0  0  0
    3.0588   -1.6900    0.0000 C   0  0  0  0  0  0  0  0  0  0  0  0
    2.5610   -2.5546    0.0000 C   0  0  0  0  0  0  0  0  0  0  0  0
    3.0588    3.5102    0.0000 O   0  0  0  0  0  0  0  0  0  0  0  0
   -3.4255   -4.3747    0.0000 C   0  0  0  0  0  0  0  0  0  0  0  0
   -3.6981   -2.6674    0.0000 C   0  0  0  0  0  0  0  0  0  0  0  0
   -2.4388   -4.2181    0.0000 C   0  0  0  0  0  0  0  0  0  0  0  0
   -2.7080   -2.5078    0.0000 C   0  0  0  0  0  0  0  0  0  0  0  0
    3.0588    1.7778    0.0000 C   0  0  0  0  0  0  0  0  0  0  0  0
    2.5610    2.6423    0.0000 C   0  0  0  0  0  0  0  0  0  0  0  0
    2.5610    4.3747    0.0000 C   0  0  0  0  0  0  0  0  0  0  0  0
  1  2  2  0
  2  3  1  0
  1  4  1  0
  4  5  2  0
  5  7  1  0
  6  9  1  0
  2  7  1  0
  6  8  1  0
  3  9  1  0
  8 10  2  0
  4 11  1  0
  3 12  1  0
 13 20  1  0
 13 19  2  0
  8 14  1  0
  3 15  1  0
 16 17  1  0
  6 16  1  0
 15 17  1  0
 18 24  1  0
 19 21  1  0
 20 22  2  0
 11 21  2  0
 11 22  1  0
 14 23  1  0
 23 24  1  0
 18 25  1  0
M  END
>  <IDNUMBER>  (544) 
SA92-0235

>  <available>  (544) 
57

>  <H_acceptor>  (544) 
7

>  <H_donor>  (544) 
1

>  <B_rotN>  (544) 
7

>  <N_O>  (544) 
8

>  <logP>  (544) 
1.6173

>  <logD>  (544) 
1.6172

>  <logSw>  (544) 
-1.6835

>  <PSA>  (544) 
76.253

>  <pKa_ma>  (544) 
15.8688

>  <pKa_mb>  (544) 
3.6841

>  <N_Chirals>  (544) 
1

>  <Name>  (544) 
3-fluoro-N-(2-methoxyethyl)-3-[3-(pyridin-4-yl)-1,2,4-oxadiazol-5-yl]piperidine-1-carboxamide

>  <Smile>  (544) 
COCCNC(N(CCC1)CC1(c1nc(-c2ccncc2)no1)F)=O

>  <Color>  (544) 
NOT COLORED

>  <Collection>  (544) 
IC

>  <InChI>  (544) 
InChI=1S/C16H20FN5O3/c1-24-10-8-19-15(23)22-9-2-5-16(17,11-22)14-20-13(21-25-14)12-3-6-18-7-4-12/h3-4,6-7H,2,5,8-11H2,1H3,(H,19,23)/t16-/m0/s1

>  <InChI Key>  (544) 
YDVUVBREVBJBEC-INIZCTEOSA-N

>  <PERCENTSP3>  (544) 
50

>  <Link>  (544) 
https://www.chemdiv.com/catalog/screening-compounds/compound-SA92-0235/

>  <MFCDNUMBER>  (544) 
MFCD32242071

>  <CLNUMBER>  (544) 
CM4899

>  <STEREO>  (544) 
RACEMIC MIXTURE

>  <State>  (544) 
Solid

>  <Similarity score>  (544) 
0.18

$$$$
(2,6-dimethoxypyridin-3-yl){3-fluoro-3-[3-(pyridin-3-yl)-1,2,4-oxadiazol-5-yl]pi
     RDKit          2D

 30 33  0  0  0  0  0  0  0  0999 V2000
    0.0958    0.5602    0.0000 N   0  0  0  0  0  0  0  0  0  0  0  0
    0.4540    1.4934    0.0000 C   0  0  0  0  0  0  0  0  0  0  0  0
    1.4206   -1.2435    0.0000 C   0  0  0  0  0  0  0  0  0  0  0  0
   -0.9040    0.6186    0.0000 C   0  0  0  0  0  0  0  0  0  0  0  0
    2.2828   -0.7435    0.0000 C   0  0  0  0  0  0  0  0  0  0  0  0
    1.4206    1.7558    0.0000 C   0  0  0  0  0  0  0  0  0  0  0  0
    2.2828    0.2562    0.0000 N   0  0  0  0  0  0  0  0  0  0  0  0
   -1.1665    1.5809    0.0000 N   0  0  0  0  0  0  0  0  0  0  0  0
    1.4206   -2.2432    0.0000 C   0  0  0  0  0  0  0  0  0  0  0  0
    0.5541   -2.7433    0.0000 N   0  0  0  0  0  0  0  0  0  0  0  0
   -0.3208    2.1225    0.0000 O   0  0  0  0  0  0  0  0  0  0  0  0
    1.4206    0.7561    0.0000 C   0  0  0  0  0  0  0  0  0  0  0  0
   -1.5331   -0.1562    0.0000 C   0  0  0  0  0  0  0  0  0  0  0  0
    0.5541   -0.7435    0.0000 C   0  0  0  0  0  0  0  0  0  0  0  0
   -0.3166   -2.2432    0.0000 C   0  0  0  0  0  0  0  0  0  0  0  0
    3.1535   -1.2435    0.0000 O   0  0  0  0  0  0  0  0  0  0  0  0
   -3.1535   -0.7811    0.0000 N   0  0  0  0  0  0  0  0  0  0  0  0
    1.5455    2.7433    0.0000 F   0  0  0  0  0  0  0  0  0  0  0  0
   -0.3166   -1.2435    0.0000 C   0  0  0  0  0  0  0  0  0  0  0  0
    2.2828   -2.7433    0.0000 O   0  0  0  0  0  0  0  0  0  0  0  0
    2.2828    2.2557    0.0000 C   0  0  0  0  0  0  0  0  0  0  0  0
    3.1535    0.7561    0.0000 C   0  0  0  0  0  0  0  0  0  0  0  0
   -2.5202   -0.0063    0.0000 C   0  0  0  0  0  0  0  0  0  0  0  0
   -1.1788   -2.7433    0.0000 O   0  0  0  0  0  0  0  0  0  0  0  0
   -1.1788   -1.0936    0.0000 C   0  0  0  0  0  0  0  0  0  0  0  0
    3.1535    1.7558    0.0000 C   0  0  0  0  0  0  0  0  0  0  0  0
   -2.7910   -1.7185    0.0000 C   0  0  0  0  0  0  0  0  0  0  0  0
    3.1535   -2.2432    0.0000 C   0  0  0  0  0  0  0  0  0  0  0  0
   -2.0412   -2.2432    0.0000 C   0  0  0  0  0  0  0  0  0  0  0  0
   -1.8037   -1.8684    0.0000 C   0  0  0  0  0  0  0  0  0  0  0  0
  1  2  2  0
  3  5  1  0
  1  4  1  0
  5  7  1  0
  2  6  1  0
  7 12  1  0
  7 22  1  0
  4  8  2  0
  8 11  1  0
  3  9  2  0
  9 10  1  0
 10 15  2  0
  2 11  1  0
  6 12  1  0
  4 13  1  0
  3 14  1  0
 15 19  1  0
  5 16  2  0
 17 23  2  0
 17 27  1  0
  6 18  1  0
 14 19  2  0
  9 20  1  0
  6 21  1  0
 22 26  1  0
 13 23  1  0
 15 24  1  0
 13 25  2  0
 21 26  1  0
 27 30  2  0
 20 28  1  0
 24 29  1  0
 25 30  1  0
M  END
>  <IDNUMBER>  (545) 
SA92-0535

>  <available>  (545) 
51

>  <H_acceptor>  (545) 
9

>  <H_donor>  (545) 
0

>  <B_rotN>  (545) 
6

>  <N_O>  (545) 
9

>  <logP>  (545) 
2.6858

>  <logD>  (545) 
2.0471

>  <logSw>  (545) 
-2.6159

>  <PSA>  (545) 
82.105

>  <pKa_ma>  (545) 
27.08

>  <pKa_mb>  (545) 
7.9253

>  <N_Chirals>  (545) 
1

>  <Name>  (545) 
(2,6-dimethoxypyridin-3-yl){3-fluoro-3-[3-(pyridin-3-yl)-1,2,4-oxadiazol-5-yl]piperidin-1-yl}methanone

>  <Smile>  (545) 
COc(cc1)nc(OC)c1C(N(CCC1)CC1(c1nc(-c2cnccc2)no1)F)=O

>  <Color>  (545) 
BROWN

>  <Collection>  (545) 
IC

>  <InChI>  (545) 
InChI=1S/C20H20FN5O4/c1-28-15-7-6-14(17(23-15)29-2)18(27)26-10-4-8-20(21,12-26)19-24-16(25-30-19)13-5-3-9-22-11-13/h3,5-7,9,11H,4,8,10,12H2,1-2H3/t20-/m0/s1

>  <InChI Key>  (545) 
RCGDLOZSWISFNB-FQEVSTJZSA-N

>  <PERCENTSP3>  (545) 
35

>  <Link>  (545) 
https://www.chemdiv.com/catalog/screening-compounds/compound-SA92-0535/

>  <MFCDNUMBER>  (545) 
MFCD32242335

>  <CLNUMBER>  (545) 
CM4899

>  <STEREO>  (545) 
RACEMIC MIXTURE

>  <State>  (545) 
Oil

>  <Similarity score>  (545) 
0.18

$$$$
N-(3-cyano-5,6,7,8-tetrahydro-4H-cyclohepta[b]thiophen-2-yl)-2-(2,4-difluorophen
     RDKit          2D

 26 28  0  0  0  0  0  0  0  0999 V2000
   -1.9189    0.6020    0.0000 C   0  0  0  0  0  0  0  0  0  0  0  0
   -2.0813   -0.3605    0.0000 C   0  0  0  0  0  0  0  0  0  0  0  0
   -2.8190    1.0771    0.0000 S   0  0  0  0  0  0  0  0  0  0  0  0
   -3.0649   -0.5230    0.0000 C   0  0  0  0  0  0  0  0  0  0  0  0
   -0.9770    0.9856    0.0000 N   0  0  0  0  0  0  0  0  0  0  0  0
   -3.5190    0.3397    0.0000 C   0  0  0  0  0  0  0  0  0  0  0  0
   -0.1854    0.3397    0.0000 C   0  0  0  0  0  0  0  0  0  0  0  0
   -1.3524   -1.0773    0.0000 C   0  0  0  0  0  0  0  0  0  0  0  0
   -0.6647   -1.7772    0.0000 N   0  0  0  0  0  0  0  0  0  0  0  0
    1.5440    0.0646    0.0000 O   0  0  0  0  0  0  0  0  0  0  0  0
    2.4981    0.4521    0.0000 C   0  0  0  0  0  0  0  0  0  0  0  0
    3.2566   -0.1771    0.0000 C   0  0  0  0  0  0  0  0  0  0  0  0
    0.7564    0.6938    0.0000 C   0  0  0  0  0  0  0  0  0  0  0  0
    4.1776    0.1771    0.0000 C   0  0  0  0  0  0  0  0  0  0  0  0
   -0.3397   -0.6315    0.0000 O   0  0  0  0  0  0  0  0  0  0  0  0
    2.6482    1.4439    0.0000 C   0  0  0  0  0  0  0  0  0  0  0  0
    4.3400    1.1480    0.0000 C   0  0  0  0  0  0  0  0  0  0  0  0
    3.1149   -1.1605    0.0000 F   0  0  0  0  0  0  0  0  0  0  0  0
    3.5691    1.7772    0.0000 C   0  0  0  0  0  0  0  0  0  0  0  0
   -3.4190   -1.4523    0.0000 C   0  0  0  0  0  0  0  0  0  0  0  0
    5.2608    1.4855    0.0000 F   0  0  0  0  0  0  0  0  0  0  0  0
   -4.5315    0.5312    0.0000 C   0  0  0  0  0  0  0  0  0  0  0  0
    0.9063    1.6772    0.0000 C   0  0  0  0  0  0  0  0  0  0  0  0
   -4.3691   -1.7481    0.0000 C   0  0  0  0  0  0  0  0  0  0  0  0
   -5.2608   -0.1563    0.0000 C   0  0  0  0  0  0  0  0  0  0  0  0
   -5.1983   -1.1605    0.0000 C   0  0  0  0  0  0  0  0  0  0  0  0
  1  2  2  0
  1  3  1  0
  2  4  1  0
  4  6  2  0
  1  5  1  0
  3  6  1  0
  5  7  1  0
  2  8  1  0
  8  9  3  0
 10 13  1  0
 10 11  1  0
 11 12  2  0
  7 13  1  0
 12 14  1  0
  7 15  2  0
 11 16  1  0
 17 19  1  0
 14 17  2  0
 12 18  1  0
 16 19  2  0
  4 20  1  0
 17 21  1  0
  6 22  1  0
 13 23  1  0
 20 24  1  0
 22 25  1  0
 25 26  1  0
 24 26  1  0
M  END
>  <IDNUMBER>  (546) 
Y205-6163

>  <available>  (546) 
2

>  <H_acceptor>  (546) 
4

>  <H_donor>  (546) 
1

>  <B_rotN>  (546) 
6

>  <N_O>  (546) 
4

>  <logP>  (546) 
4.7094

>  <logD>  (546) 
3.2914

>  <logSw>  (546) 
-4.5444

>  <PSA>  (546) 
47.307

>  <pKa_ma>  (546) 
5.9989

>  <pKa_mb>  (546) 
-5.1628

>  <N_Chirals>  (546) 
1

>  <Name>  (546) 
N-(3-cyano-5,6,7,8-tetrahydro-4H-cyclohepta[b]thiophen-2-yl)-2-(2,4-difluorophenoxy)propanamide

>  <Smile>  (546) 
CC(C(Nc(sc1c2CCCCC1)c2C#N)=O)Oc(ccc(F)c1)c1F

>  <Color>  (546) 
BROWN

>  <Collection>  (546) 
DC

>  <InChI>  (546) 
InChI=1S/C19H18F2N2O2S/c1-11(25-16-8-7-12(20)9-15(16)21)18(24)23-19-14(10-22)13-5-3-2-4-6-17(13)26-19/h7-9,11H,2-6H2,1H3,(H,23,24)/t11-/m0/s1

>  <InChI Key>  (546) 
DUTGSXOBDMKFML-NSHDSACASA-N

>  <PERCENTSP3>  (546) 
36.84

>  <Link>  (546) 
https://www.chemdiv.com/catalog/screening-compounds/compound-Y205-6163/

>  <MFCDNUMBER>  (546) 
MFCD07182342

>  <STEREO>  (546) 
RACEMIC MIXTURE

>  <State>  (546) 
Solid

>  <Similarity score>  (546) 
0.18

$$$$
4-(5-{3-fluoro-1-[(3-methylthiophen-2-yl)methyl]piperidin-3-yl}-1,2,4-oxadiazol-
     RDKit          2D

 25 28  0  0  0  0  0  0  0  0999 V2000
   -0.5816    1.2995    0.0000 N   0  0  0  0  0  0  0  0  0  0  0  0
    0.4062    1.4502    0.0000 C   0  0  0  0  0  0  0  0  0  0  0  0
   -1.0330    2.1901    0.0000 C   0  0  0  0  0  0  0  0  0  0  0  0
    1.1115    0.7509    0.0000 C   0  0  0  0  0  0  0  0  0  0  0  0
   -0.3277    2.8985    0.0000 N   0  0  0  0  0  0  0  0  0  0  0  0
    0.5629    2.4440    0.0000 O   0  0  0  0  0  0  0  0  0  0  0  0
    2.6165   -1.8546    0.0000 C   0  0  0  0  0  0  0  0  0  0  0  0
    2.6165   -0.1145    0.0000 N   0  0  0  0  0  0  0  0  0  0  0  0
    3.0271   -2.7669    0.0000 C   0  0  0  0  0  0  0  0  0  0  0  0
    1.6194   -1.9581    0.0000 S   0  0  0  0  0  0  0  0  0  0  0  0
    1.6194   -0.1145    0.0000 C   0  0  0  0  0  0  0  0  0  0  0  0
    3.1151   -0.9893    0.0000 C   0  0  0  0  0  0  0  0  0  0  0  0
    1.4095   -2.9364    0.0000 C   0  0  0  0  0  0  0  0  0  0  0  0
    2.2778   -3.4348    0.0000 C   0  0  0  0  0  0  0  0  0  0  0  0
   -2.0238    2.3500    0.0000 C   0  0  0  0  0  0  0  0  0  0  0  0
    0.7259   -0.1802    0.0000 F   0  0  0  0  0  0  0  0  0  0  0  0
   -3.9992    2.6603    0.0000 N   0  0  0  0  0  0  0  0  0  0  0  0
    1.6194    1.6099    0.0000 C   0  0  0  0  0  0  0  0  0  0  0  0
    3.1151    0.7509    0.0000 C   0  0  0  0  0  0  0  0  0  0  0  0
    3.9992   -2.9739    0.0000 C   0  0  0  0  0  0  0  0  0  0  0  0
    2.6165    1.6099    0.0000 C   0  0  0  0  0  0  0  0  0  0  0  0
   -3.6416    1.7229    0.0000 C   0  0  0  0  0  0  0  0  0  0  0  0
   -3.3690    3.4348    0.0000 C   0  0  0  0  0  0  0  0  0  0  0  0
   -2.6603    1.5629    0.0000 C   0  0  0  0  0  0  0  0  0  0  0  0
   -2.3875    3.2748    0.0000 C   0  0  0  0  0  0  0  0  0  0  0  0
  1  2  2  0
  1  3  1  0
  2  4  1  0
  3  5  2  0
  5  6  1  0
  2  6  1  0
  7 12  1  0
  8 11  1  0
  7  9  2  0
  7 10  1  0
  4 11  1  0
  8 12  1  0
 10 13  1  0
  9 14  1  0
 13 14  2  0
  3 15  1  0
  4 16  1  0
 17 23  2  0
 17 22  1  0
  4 18  1  0
 19 21  1  0
  8 19  1  0
  9 20  1  0
 18 21  1  0
 22 24  2  0
 23 25  1  0
 15 24  1  0
 15 25  2  0
M  END
>  <IDNUMBER>  (547) 
SA92-0174

>  <available>  (547) 
49

>  <H_acceptor>  (547) 
5

>  <H_donor>  (547) 
0

>  <B_rotN>  (547) 
4

>  <N_O>  (547) 
5

>  <logP>  (547) 
3.4422

>  <logD>  (547) 
3.4141

>  <logSw>  (547) 
-3.4594

>  <PSA>  (547) 
45.757

>  <pKa_ma>  (547) 
26.9519

>  <pKa_mb>  (547) 
6.2244

>  <N_Chirals>  (547) 
1

>  <Name>  (547) 
4-(5-{3-fluoro-1-[(3-methylthiophen-2-yl)methyl]piperidin-3-yl}-1,2,4-oxadiazol-3-yl)pyridine

>  <Smile>  (547) 
Cc1c(CN(CCC2)CC2(c2nc(-c3ccncc3)no2)F)scc1

>  <Color>  (547) 
ORANGE

>  <Collection>  (547) 
IC

>  <InChI>  (547) 
InChI=1S/C18H19FN4OS/c1-13-5-10-25-15(13)11-23-9-2-6-18(19,12-23)17-21-16(22-24-17)14-3-7-20-8-4-14/h3-5,7-8,10H,2,6,9,11-12H2,1H3/t18-/m0/s1

>  <InChI Key>  (547) 
INJBZCNNLHEUQZ-SFHVURJKSA-N

>  <PERCENTSP3>  (547) 
38.89

>  <Link>  (547) 
https://www.chemdiv.com/catalog/screening-compounds/compound-SA92-0174/

>  <MFCDNUMBER>  (547) 
MFCD32243321

>  <CLNUMBER>  (547) 
CM4899

>  <STEREO>  (547) 
RACEMIC MIXTURE

>  <State>  (547) 
Liquid

>  <Similarity score>  (547) 
0.18

$$$$
3-(3-{[(1H-benzimidazol-2-yl)sulfanyl]methyl}-1,2,4-oxadiazol-5-yl)-N-(3-cyano-6
     RDKit          2D

 33 37  0  0  0  0  0  0  0  0999 V2000
    3.8584    0.8300    0.0000 C   0  0  0  0  0  0  0  0  0  0  0  0
    4.8217    0.5296    0.0000 C   0  0  0  0  0  0  0  0  0  0  0  0
    5.3848    1.3306    0.0000 C   0  0  0  0  0  0  0  0  0  0  0  0
    4.7925    2.1441    0.0000 C   0  0  0  0  0  0  0  0  0  0  0  0
    3.8584    1.8188    0.0000 S   0  0  0  0  0  0  0  0  0  0  0  0
   -3.5163   -3.0868    0.0000 C   0  0  0  0  0  0  0  0  0  0  0  0
   -4.1126   -2.2608    0.0000 N   0  0  0  0  0  0  0  0  0  0  0  0
   -0.3713   -1.3723    0.0000 N   0  0  0  0  0  0  0  0  0  0  0  0
   -0.9718   -2.1981    0.0000 C   0  0  0  0  0  0  0  0  0  0  0  0
   -4.1001   -3.8958    0.0000 N   0  0  0  0  0  0  0  0  0  0  0  0
    3.0573    0.2170    0.0000 N   0  0  0  0  0  0  0  0  0  0  0  0
   -0.3713   -3.0364    0.0000 N   0  0  0  0  0  0  0  0  0  0  0  0
    5.1555   -0.4295    0.0000 C   0  0  0  0  0  0  0  0  0  0  0  0
    0.6048   -1.6725    0.0000 C   0  0  0  0  0  0  0  0  0  0  0  0
    0.6173   -2.7195    0.0000 O   0  0  0  0  0  0  0  0  0  0  0  0
   -5.0512   -2.5817    0.0000 C   0  0  0  0  0  0  0  0  0  0  0  0
   -5.0512   -3.5745    0.0000 C   0  0  0  0  0  0  0  0  0  0  0  0
    5.4724   -1.3723    0.0000 N   0  0  0  0  0  0  0  0  0  0  0  0
    2.1314    0.6050    0.0000 C   0  0  0  0  0  0  0  0  0  0  0  0
    6.3734    1.4433    0.0000 C   0  0  0  0  0  0  0  0  0  0  0  0
   -2.5235   -3.0825    0.0000 S   0  0  0  0  0  0  0  0  0  0  0  0
    5.1973    3.0576    0.0000 C   0  0  0  0  0  0  0  0  0  0  0  0
    2.0523    1.3224    0.0000 O   0  0  0  0  0  0  0  0  0  0  0  0
   -2.0146   -2.2106    0.0000 C   0  0  0  0  0  0  0  0  0  0  0  0
    1.4433   -1.0595    0.0000 C   0  0  0  0  0  0  0  0  0  0  0  0
    1.3139   -0.0332    0.0000 C   0  0  0  0  0  0  0  0  0  0  0  0
    6.7739    2.3567    0.0000 C   0  0  0  0  0  0  0  0  0  0  0  0
    6.1858    3.1702    0.0000 C   0  0  0  0  0  0  0  0  0  0  0  0
   -5.9146   -2.0815    0.0000 C   0  0  0  0  0  0  0  0  0  0  0  0
   -5.9146   -4.0753    0.0000 C   0  0  0  0  0  0  0  0  0  0  0  0
    6.5861    4.0753    0.0000 C   0  0  0  0  0  0  0  0  0  0  0  0
   -6.7739   -2.5817    0.0000 C   0  0  0  0  0  0  0  0  0  0  0  0
   -6.7739   -3.5872    0.0000 C   0  0  0  0  0  0  0  0  0  0  0  0
  1  2  2  0
  2  3  1  0
  4  5  1  0
  3  4  2  0
  1  5  1  0
  6 21  1  0
  6  7  2  0
  8 14  2  0
  8  9  1  0
  6 10  1  0
  1 11  1  0
 12 15  1  0
  9 12  2  0
  2 13  1  0
 14 25  1  0
 14 15  1  0
  7 16  1  0
 10 17  1  0
 16 17  2  0
 13 18  3  0
 11 19  1  0
  3 20  1  0
 21 24  1  0
  4 22  1  0
 19 23  2  0
  9 24  1  0
 25 26  1  0
 19 26  1  0
 20 27  1  0
 22 28  1  0
 27 28  1  0
 16 29  1  0
 17 30  1  0
 28 31  1  0
 29 32  2  0
 32 33  1  0
 30 33  2  0
M  END
>  <IDNUMBER>  (548) 
J021-0387

>  <available>  (548) 
64

>  <H_acceptor>  (548) 
8

>  <H_donor>  (548) 
2

>  <B_rotN>  (548) 
9

>  <N_O>  (548) 
8

>  <logP>  (548) 
4.1487

>  <logD>  (548) 
2.8297

>  <logSw>  (548) 
-4.3511

>  <PSA>  (548) 
90.234

>  <pKa_ma>  (548) 
6.1024

>  <pKa_mb>  (548) 
6.7942

>  <N_Chirals>  (548) 
1

>  <Name>  (548) 
3-(3-{[(1H-benzimidazol-2-yl)sulfanyl]methyl}-1,2,4-oxadiazol-5-yl)-N-(3-cyano-6-methyl-4,5,6,7-tetrahydro-1-benzothiophen-2-yl)propanamide

>  <Smile>  (548) 
CC(CC1)Cc2c1c(C#N)c(NC(CCc1nc(CSc3nc(cccc4)c4[nH]3)no1)=O)s2

>  <Color>  (548) 
ORANGE

>  <Collection>  (548) 
DC

>  <InChI>  (548) 
InChI=1S/C23H22N6O2S2/c1-13-6-7-14-15(11-24)22(33-18(14)10-13)28-20(30)8-9-21-27-19(29-31-21)12-32-23-25-16-4-2-3-5-17(16)26-23/h2-5,13H,6-10,12H2,1H3,(H,25,26)(H,28,30)/t13-/m1/s1

>  <InChI Key>  (548) 
BRLJIJCAGJGFDS-CYBMUJFWSA-N

>  <PERCENTSP3>  (548) 
34.8

>  <Link>  (548) 
https://www.chemdiv.com/catalog/screening-compounds/compound-J021-0387/

>  <MFCDNUMBER>  (548) 
MFCD27218404

>  <CLNUMBER>  (548) 
CL8315

>  <STEREO>  (548) 
RACEMIC MIXTURE

>  <State>  (548) 
Solid

>  <Similarity score>  (548) 
0.18

$$$$
3-fluoro-N-(3-methoxyphenyl)-3-[3-(pyridin-4-yl)-1,2,4-oxadiazol-5-yl]piperidine
     RDKit          2D

 29 32  0  0  0  0  0  0  0  0999 V2000
   -0.6425   -0.9416    0.0000 N   0  0  0  0  0  0  0  0  0  0  0  0
    0.3447   -1.0920    0.0000 C   0  0  0  0  0  0  0  0  0  0  0  0
    1.0498   -0.3872    0.0000 C   0  0  0  0  0  0  0  0  0  0  0  0
   -1.0967   -1.8256    0.0000 C   0  0  0  0  0  0  0  0  0  0  0  0
    3.0586    1.3523    0.0000 C   0  0  0  0  0  0  0  0  0  0  0  0
   -0.3916   -2.5401    0.0000 N   0  0  0  0  0  0  0  0  0  0  0  0
    2.5541    0.4810    0.0000 N   0  0  0  0  0  0  0  0  0  0  0  0
    0.5014   -2.0855    0.0000 O   0  0  0  0  0  0  0  0  0  0  0  0
    1.5576    0.4810    0.0000 C   0  0  0  0  0  0  0  0  0  0  0  0
    2.5541    2.2172    0.0000 N   0  0  0  0  0  0  0  0  0  0  0  0
    4.0582    1.3523    0.0000 O   0  0  0  0  0  0  0  0  0  0  0  0
    1.5576    2.2172    0.0000 C   0  0  0  0  0  0  0  0  0  0  0  0
   -2.0808   -1.9854    0.0000 C   0  0  0  0  0  0  0  0  0  0  0  0
    1.0498    1.3523    0.0000 C   0  0  0  0  0  0  0  0  0  0  0  0
    0.6737    0.5373    0.0000 F   0  0  0  0  0  0  0  0  0  0  0  0
   -4.0582   -2.2956    0.0000 N   0  0  0  0  0  0  0  0  0  0  0  0
    1.5576   -1.2488    0.0000 C   0  0  0  0  0  0  0  0  0  0  0  0
    0.0533    1.3523    0.0000 C   0  0  0  0  0  0  0  0  0  0  0  0
    3.0586   -0.3872    0.0000 C   0  0  0  0  0  0  0  0  0  0  0  0
   -0.4482    0.4810    0.0000 O   0  0  0  0  0  0  0  0  0  0  0  0
    2.5541   -1.2488    0.0000 C   0  0  0  0  0  0  0  0  0  0  0  0
    0.0533    3.0757    0.0000 C   0  0  0  0  0  0  0  0  0  0  0  0
   -3.4251   -3.0757    0.0000 C   0  0  0  0  0  0  0  0  0  0  0  0
   -3.7072   -1.3617    0.0000 C   0  0  0  0  0  0  0  0  0  0  0  0
    1.0498    3.0757    0.0000 C   0  0  0  0  0  0  0  0  0  0  0  0
   -2.7139   -1.2049    0.0000 C   0  0  0  0  0  0  0  0  0  0  0  0
   -2.4474   -2.9223    0.0000 C   0  0  0  0  0  0  0  0  0  0  0  0
   -0.4482    2.2172    0.0000 C   0  0  0  0  0  0  0  0  0  0  0  0
   -1.4447    0.4810    0.0000 C   0  0  0  0  0  0  0  0  0  0  0  0
  1  2  2  0
  2  3  1  0
  1  4  1  0
  5  7  1  0
  4  6  2  0
  6  8  1  0
  7  9  1  0
  2  8  1  0
  3  9  1  0
  5 10  1  0
  5 11  2  0
 10 12  1  0
  4 13  1  0
 12 14  2  0
  3 15  1  0
 16 23  2  0
 16 24  1  0
  3 17  1  0
 14 18  1  0
 19 21  1  0
  7 19  1  0
 18 20  1  0
 17 21  1  0
 22 25  2  0
 23 27  1  0
 24 26  2  0
 12 25  1  0
 13 26  1  0
 13 27  2  0
 22 28  1  0
 18 28  2  0
 20 29  1  0
M  END
>  <IDNUMBER>  (549) 
SA92-0229

>  <available>  (549) 
203

>  <H_acceptor>  (549) 
7

>  <H_donor>  (549) 
1

>  <B_rotN>  (549) 
6

>  <N_O>  (549) 
8

>  <logP>  (549) 
3.0804

>  <logD>  (549) 
3.0803

>  <logSw>  (549) 
-3.218

>  <PSA>  (549) 
74.019

>  <pKa_ma>  (549) 
12.9537

>  <pKa_mb>  (549) 
3.6841

>  <N_Chirals>  (549) 
1

>  <Name>  (549) 
3-fluoro-N-(3-methoxyphenyl)-3-[3-(pyridin-4-yl)-1,2,4-oxadiazol-5-yl]piperidine-1-carboxamide

>  <Smile>  (549) 
COc1cccc(NC(N(CCC2)CC2(c2nc(-c3ccncc3)no2)F)=O)c1

>  <Color>  (549) 
NOT COLORED

>  <Collection>  (549) 
IC

>  <InChI>  (549) 
InChI=1S/C20H20FN5O3/c1-28-16-5-2-4-15(12-16)23-19(27)26-11-3-8-20(21,13-26)18-24-17(25-29-18)14-6-9-22-10-7-14/h2,4-7,9-10,12H,3,8,11,13H2,1H3,(H,23,27)/t20-/m0/s1

>  <InChI Key>  (549) 
KVLSJNLJEZXJKL-FQEVSTJZSA-N

>  <PERCENTSP3>  (549) 
30

>  <Link>  (549) 
https://www.chemdiv.com/catalog/screening-compounds/compound-SA92-0229/

>  <MFCDNUMBER>  (549) 
MFCD32241949

>  <CLNUMBER>  (549) 
CM4899

>  <STEREO>  (549) 
RACEMIC MIXTURE

>  <State>  (549) 
Solid

>  <Similarity score>  (549) 
0.18

$$$$
3-(3-{[(5-chloro-1H-benzimidazol-2-yl)sulfanyl]methyl}-1,2,4-oxadiazol-5-yl)-N-(
     RDKit          2D

 33 37  0  0  0  0  0  0  0  0999 V2000
    4.2765    1.2735    0.0000 C   0  0  0  0  0  0  0  0  0  0  0  0
    5.2435    0.9816    0.0000 C   0  0  0  0  0  0  0  0  0  0  0  0
    4.2682    2.2695    0.0000 S   0  0  0  0  0  0  0  0  0  0  0  0
    5.8062    1.7860    0.0000 C   0  0  0  0  0  0  0  0  0  0  0  0
   -3.0845   -2.6280    0.0000 C   0  0  0  0  0  0  0  0  0  0  0  0
   -3.6762   -1.8027    0.0000 N   0  0  0  0  0  0  0  0  0  0  0  0
    0.0542   -0.9066    0.0000 N   0  0  0  0  0  0  0  0  0  0  0  0
    5.2061    2.5947    0.0000 C   0  0  0  0  0  0  0  0  0  0  0  0
   -3.6639   -3.4325    0.0000 N   0  0  0  0  0  0  0  0  0  0  0  0
   -0.5460   -1.7401    0.0000 C   0  0  0  0  0  0  0  0  0  0  0  0
    3.4887    0.6732    0.0000 N   0  0  0  0  0  0  0  0  0  0  0  0
    0.0626   -2.5778    0.0000 N   0  0  0  0  0  0  0  0  0  0  0  0
   -4.6141   -2.1196    0.0000 C   0  0  0  0  0  0  0  0  0  0  0  0
    5.5811    0.0313    0.0000 C   0  0  0  0  0  0  0  0  0  0  0  0
    1.0421   -1.2193    0.0000 C   0  0  0  0  0  0  0  0  0  0  0  0
   -4.6141   -3.1156    0.0000 C   0  0  0  0  0  0  0  0  0  0  0  0
    1.0421   -2.2571    0.0000 O   0  0  0  0  0  0  0  0  0  0  0  0
    5.9063   -0.9066    0.0000 N   0  0  0  0  0  0  0  0  0  0  0  0
    2.5677    1.0608    0.0000 C   0  0  0  0  0  0  0  0  0  0  0  0
   -5.4852   -1.6192    0.0000 C   0  0  0  0  0  0  0  0  0  0  0  0
   -2.0883   -2.6197    0.0000 S   0  0  0  0  0  0  0  0  0  0  0  0
    2.4802    1.7820    0.0000 O   0  0  0  0  0  0  0  0  0  0  0  0
   -1.5839   -1.7527    0.0000 C   0  0  0  0  0  0  0  0  0  0  0  0
   -5.4728   -3.6200    0.0000 C   0  0  0  0  0  0  0  0  0  0  0  0
   -6.3398   -2.1196    0.0000 C   0  0  0  0  0  0  0  0  0  0  0  0
    1.8756   -0.5940    0.0000 C   0  0  0  0  0  0  0  0  0  0  0  0
    1.7423    0.4232    0.0000 C   0  0  0  0  0  0  0  0  0  0  0  0
   -6.3315   -3.1282    0.0000 C   0  0  0  0  0  0  0  0  0  0  0  0
    6.7940    1.8986    0.0000 C   0  0  0  0  0  0  0  0  0  0  0  0
   -7.2026   -1.6192    0.0000 Cl  0  0  0  0  0  0  0  0  0  0  0  0
    5.6063    3.5074    0.0000 C   0  0  0  0  0  0  0  0  0  0  0  0
    7.2026    2.8281    0.0000 C   0  0  0  0  0  0  0  0  0  0  0  0
    6.5939    3.6200    0.0000 C   0  0  0  0  0  0  0  0  0  0  0  0
  1  2  2  0
  1  3  1  0
  2  4  1  0
  4  8  2  0
  5 21  1  0
  5  6  2  0
  7 15  2  0
  3  8  1  0
  5  9  1  0
  7 10  1  0
 10 12  2  0
  1 11  1  0
 12 17  1  0
  6 13  1  0
 13 16  2  0
  2 14  1  0
 15 26  1  0
  9 16  1  0
 15 17  1  0
 14 18  3  0
 11 19  1  0
 13 20  1  0
 21 23  1  0
 19 22  2  0
 10 23  1  0
 16 24  1  0
 20 25  2  0
 26 27  1  0
 19 27  1  0
 24 28  2  0
 25 28  1  0
  4 29  1  0
 25 30  1  0
  8 31  1  0
 29 32  1  0
 32 33  1  0
 31 33  1  0
M  END
>  <IDNUMBER>  (550) 
J021-3331

>  <available>  (550) 
76

>  <H_acceptor>  (550) 
8

>  <H_donor>  (550) 
2

>  <B_rotN>  (550) 
9

>  <N_O>  (550) 
8

>  <logP>  (550) 
4.3944

>  <logD>  (550) 
3.0755

>  <logSw>  (550) 
-4.8599

>  <PSA>  (550) 
90.234

>  <pKa_ma>  (550) 
6.1024

>  <pKa_mb>  (550) 
6.7942

>  <N_Chirals>  (550) 
0

>  <Name>  (550) 
3-(3-{[(5-chloro-1H-benzimidazol-2-yl)sulfanyl]methyl}-1,2,4-oxadiazol-5-yl)-N-(3-cyano-4,5,6,7-tetrahydro-1-benzothiophen-2-yl)propanamide

>  <Smile>  (550) 
N#Cc1c(NC(CCc2nc(CSc3nc(cc(cc4)Cl)c4[nH]3)no2)=O)sc2c1CCCC2

>  <Color>  (550) 
ORANGE

>  <Collection>  (550) 
DC

>  <InChI>  (550) 
InChI=1S/C22H19ClN6O2S2/c23-12-5-6-15-16(9-12)26-22(25-15)32-11-18-27-20(31-29-18)8-7-19(30)28-21-14(10-24)13-3-1-2-4-17(13)33-21/h5-6,9H,1-4,7-8,11H2,(H,25,26)(H,28,30)

>  <InChI Key>  (550) 
OLJNEIQICRFLRD-UHFFFAOYSA-N

>  <PERCENTSP3>  (550) 
31.8

>  <Link>  (550) 
https://www.chemdiv.com/catalog/screening-compounds/compound-J021-3331/

>  <MFCDNUMBER>  (550) 
MFCD24847733

>  <CLNUMBER>  (550) 
CL8315

>  <STEREO>  (550) 
ACHIRAL

>  <State>  (550) 
Solid

>  <Similarity score>  (550) 
0.18

$$$$
N-(3-cyano-4,5,6,7-tetrahydro-1-benzothiophen-2-yl)-5-(3-methoxyphenyl)-1,2-oxaz
     RDKit          2D

 27 30  0  0  0  0  0  0  0  0999 V2000
   -1.6810   -1.8937    0.0000 C   0  0  0  0  0  0  0  0  0  0  0  0
   -1.0746   -2.6665    0.0000 C   0  0  0  0  0  0  0  0  0  0  0  0
   -0.8608    1.3401    0.0000 C   0  0  0  0  0  0  0  0  0  0  0  0
   -2.6048   -2.2259    0.0000 S   0  0  0  0  0  0  0  0  0  0  0  0
   -1.6056   -3.4844    0.0000 C   0  0  0  0  0  0  0  0  0  0  0  0
   -1.6206    1.9215    0.0000 N   0  0  0  0  0  0  0  0  0  0  0  0
   -1.6810   -0.8795    0.0000 N   0  0  0  0  0  0  0  0  0  0  0  0
   -0.0728    1.8761    0.0000 C   0  0  0  0  0  0  0  0  0  0  0  0
   -2.5645   -3.2201    0.0000 C   0  0  0  0  0  0  0  0  0  0  0  0
   -0.8156   -0.3789    0.0000 C   0  0  0  0  0  0  0  0  0  0  0  0
   -0.3446    2.7873    0.0000 C   0  0  0  0  0  0  0  0  0  0  0  0
   -1.3012    2.8124    0.0000 O   0  0  0  0  0  0  0  0  0  0  0  0
   -0.0578   -2.6034    0.0000 C   0  0  0  0  0  0  0  0  0  0  0  0
    0.9511   -2.5732    0.0000 N   0  0  0  0  0  0  0  0  0  0  0  0
    0.2466    3.5396    0.0000 C   0  0  0  0  0  0  0  0  0  0  0  0
   -0.0026   -0.8795    0.0000 O   0  0  0  0  0  0  0  0  0  0  0  0
    1.1828    3.4188    0.0000 C   0  0  0  0  0  0  0  0  0  0  0  0
    1.7591    4.1662    0.0000 C   0  0  0  0  0  0  0  0  0  0  0  0
   -1.3464   -4.4530    0.0000 C   0  0  0  0  0  0  0  0  0  0  0  0
   -3.2868   -3.9246    0.0000 C   0  0  0  0  0  0  0  0  0  0  0  0
    2.7003    4.0302    0.0000 O   0  0  0  0  0  0  0  0  0  0  0  0
   -0.1234    4.4078    0.0000 C   0  0  0  0  0  0  0  0  0  0  0  0
    0.4556    5.1680    0.0000 C   0  0  0  0  0  0  0  0  0  0  0  0
    1.3942    5.0448    0.0000 C   0  0  0  0  0  0  0  0  0  0  0  0
    3.2868    4.7880    0.0000 C   0  0  0  0  0  0  0  0  0  0  0  0
   -2.0586   -5.1680    0.0000 C   0  0  0  0  0  0  0  0  0  0  0  0
   -3.0301   -4.9036    0.0000 C   0  0  0  0  0  0  0  0  0  0  0  0
  1  2  2  0
  3 10  1  0
  1  4  1  0
  2  5  1  0
  3  6  2  0
  1  7  1  0
  3  8  1  0
  4  9  1  0
  5  9  2  0
  7 10  1  0
  8 11  2  0
 11 12  1  0
  6 12  1  0
  2 13  1  0
 13 14  3  0
 11 15  1  0
 10 16  2  0
 15 17  2  0
 17 18  1  0
 18 24  2  0
  5 19  1  0
  9 20  1  0
 18 21  1  0
 15 22  1  0
 22 23  2  0
 23 24  1  0
 21 25  1  0
 19 26  1  0
 26 27  1  0
 20 27  1  0
M  END
>  <IDNUMBER>  (551) 
C226-0889

>  <available>  (551) 
118

>  <H_acceptor>  (551) 
6

>  <H_donor>  (551) 
1

>  <B_rotN>  (551) 
6

>  <N_O>  (551) 
6

>  <logP>  (551) 
4.4551

>  <logD>  (551) 
3.1641

>  <logSw>  (551) 
-4.4893

>  <PSA>  (551) 
69.18

>  <pKa_ma>  (551) 
6.1318

>  <pKa_mb>  (551) 
-6.8683

>  <N_Chirals>  (551) 
0

>  <Name>  (551) 
N-(3-cyano-4,5,6,7-tetrahydro-1-benzothiophen-2-yl)-5-(3-methoxyphenyl)-1,2-oxazole-3-carboxamide

>  <Smile>  (551) 
COc1cccc(-c2cc(C(Nc(sc3c4CCCC3)c4C#N)=O)no2)c1

>  <Color>  (551) 
NOT COLORED

>  <Collection>  (551) 
DC

>  <InChI>  (551) 
InChI=1S/C20H17N3O3S/c1-25-13-6-4-5-12(9-13)17-10-16(23-26-17)19(24)22-20-15(11-21)14-7-2-3-8-18(14)27-20/h4-6,9-10H,2-3,7-8H2,1H3,(H,22,24)

>  <InChI Key>  (551) 
SGBTUQGUXSHNJF-UHFFFAOYSA-N

>  <PERCENTSP3>  (551) 
25

>  <Link>  (551) 
https://www.chemdiv.com/catalog/screening-compounds/compound-C226-0889/

>  <MFCDNUMBER>  (551) 
MFCD09782061

>  <CLNUMBER>  (551) 
CL2028

>  <STEREO>  (551) 
ACHIRAL

>  <State>  (551) 
Solid

>  <Similarity score>  (551) 
0.18

$$$$
N-(3-cyano-5,6-dihydro-4H-cyclopenta[b]thiophen-2-yl)-5-(4-methoxyphenyl)-1,2-ox
     RDKit          2D

 26 29  0  0  0  0  0  0  0  0999 V2000
   -1.0049   -2.9090    0.0000 C   0  0  0  0  0  0  0  0  0  0  0  0
   -0.3971   -3.6881    0.0000 C   0  0  0  0  0  0  0  0  0  0  0  0
   -0.0803    0.3956    0.0000 C   0  0  0  0  0  0  0  0  0  0  0  0
   -1.9412   -3.2496    0.0000 S   0  0  0  0  0  0  0  0  0  0  0  0
   -0.9426   -4.5149    0.0000 C   0  0  0  0  0  0  0  0  0  0  0  0
   -0.8654    0.9202    0.0000 N   0  0  0  0  0  0  0  0  0  0  0  0
   -1.0049   -1.9042    0.0000 N   0  0  0  0  0  0  0  0  0  0  0  0
    0.6697    0.9708    0.0000 C   0  0  0  0  0  0  0  0  0  0  0  0
   -1.8967   -4.2336    0.0000 C   0  0  0  0  0  0  0  0  0  0  0  0
   -0.1393   -1.4032    0.0000 C   0  0  0  0  0  0  0  0  0  0  0  0
    0.3408    1.8626    0.0000 C   0  0  0  0  0  0  0  0  0  0  0  0
   -0.5986    1.8331    0.0000 O   0  0  0  0  0  0  0  0  0  0  0  0
    0.6104   -3.6526    0.0000 C   0  0  0  0  0  0  0  0  0  0  0  0
    1.6090   -3.6112    0.0000 N   0  0  0  0  0  0  0  0  0  0  0  0
    0.8711    2.6510    0.0000 C   0  0  0  0  0  0  0  0  0  0  0  0
    0.6992   -1.8567    0.0000 O   0  0  0  0  0  0  0  0  0  0  0  0
    1.8107    2.5856    0.0000 C   0  0  0  0  0  0  0  0  0  0  0  0
    0.4594    3.4985    0.0000 C   0  0  0  0  0  0  0  0  0  0  0  0
   -0.8980   -5.5195    0.0000 C   0  0  0  0  0  0  0  0  0  0  0  0
    1.9263    4.2098    0.0000 C   0  0  0  0  0  0  0  0  0  0  0  0
   -2.4570   -5.0750    0.0000 C   0  0  0  0  0  0  0  0  0  0  0  0
    0.9777    4.2869    0.0000 C   0  0  0  0  0  0  0  0  0  0  0  0
    2.3414    3.3623    0.0000 C   0  0  0  0  0  0  0  0  0  0  0  0
    2.4570    5.0100    0.0000 O   0  0  0  0  0  0  0  0  0  0  0  0
   -1.8523   -5.8635    0.0000 C   0  0  0  0  0  0  0  0  0  0  0  0
    2.0390    5.8635    0.0000 C   0  0  0  0  0  0  0  0  0  0  0  0
  1  2  2  0
  3 10  1  0
  1  4  1  0
  2  5  1  0
  5  9  2  0
  3  6  2  0
  1  7  1  0
  3  8  1  0
  4  9  1  0
  7 10  1  0
  8 11  2  0
 11 12  1  0
  6 12  1  0
  2 13  1  0
 13 14  3  0
 11 15  1  0
 10 16  2  0
 15 17  2  0
 15 18  1  0
  5 19  1  0
 20 22  1  0
  9 21  1  0
 18 22  2  0
 17 23  1  0
 20 23  2  0
 20 24  1  0
 21 25  1  0
 19 25  1  0
 24 26  1  0
M  END
>  <IDNUMBER>  (552) 
C226-0779

>  <available>  (552) 
49

>  <H_acceptor>  (552) 
6

>  <H_donor>  (552) 
1

>  <B_rotN>  (552) 
6

>  <N_O>  (552) 
6

>  <logP>  (552) 
4.0602

>  <logD>  (552) 
2.7496

>  <logSw>  (552) 
-4.3837

>  <PSA>  (552) 
69.546

>  <pKa_ma>  (552) 
6.1111

>  <pKa_mb>  (552) 
-6.8683

>  <N_Chirals>  (552) 
0

>  <Name>  (552) 
N-(3-cyano-5,6-dihydro-4H-cyclopenta[b]thiophen-2-yl)-5-(4-methoxyphenyl)-1,2-oxazole-3-carboxamide

>  <Smile>  (552) 
COc(cc1)ccc1-c1cc(C(Nc(sc2c3CCC2)c3C#N)=O)no1

>  <Color>  (552) 
NOT COLORED

>  <Collection>  (552) 
DC

>  <InChI>  (552) 
InChI=1S/C19H15N3O3S/c1-24-12-7-5-11(6-8-12)16-9-15(22-25-16)18(23)21-19-14(10-20)13-3-2-4-17(13)26-19/h5-9H,2-4H2,1H3,(H,21,23)

>  <InChI Key>  (552) 
JKWBKXHLKIHMPX-UHFFFAOYSA-N

>  <PERCENTSP3>  (552) 
21.1

>  <Link>  (552) 
https://www.chemdiv.com/catalog/screening-compounds/compound-C226-0779/

>  <MFCDNUMBER>  (552) 
MFCD09781980

>  <CLNUMBER>  (552) 
CL2028

>  <STEREO>  (552) 
ACHIRAL

>  <State>  (552) 
Solid

>  <Similarity score>  (552) 
0.18

$$$$
N-(3-cyano-4,5,6,7-tetrahydro-1-benzothiophen-2-yl)-5-(4-methoxyphenyl)-1,2-oxaz
     RDKit          2D

 27 30  0  0  0  0  0  0  0  0999 V2000
   -0.9292   -2.7527    0.0000 C   0  0  0  0  0  0  0  0  0  0  0  0
   -0.3215   -3.5263    0.0000 C   0  0  0  0  0  0  0  0  0  0  0  0
   -0.0045    0.5571    0.0000 C   0  0  0  0  0  0  0  0  0  0  0  0
   -1.8506   -3.0878    0.0000 S   0  0  0  0  0  0  0  0  0  0  0  0
   -0.8521   -4.3441    0.0000 C   0  0  0  0  0  0  0  0  0  0  0  0
   -0.7897    1.0815    0.0000 N   0  0  0  0  0  0  0  0  0  0  0  0
   -0.9292   -1.7425    0.0000 N   0  0  0  0  0  0  0  0  0  0  0  0
    0.7453    1.1320    0.0000 C   0  0  0  0  0  0  0  0  0  0  0  0
   -1.8122   -4.0805    0.0000 C   0  0  0  0  0  0  0  0  0  0  0  0
   -0.0636   -1.2416    0.0000 C   0  0  0  0  0  0  0  0  0  0  0  0
    0.4164    2.0240    0.0000 C   0  0  0  0  0  0  0  0  0  0  0  0
   -0.5232    1.9942    0.0000 O   0  0  0  0  0  0  0  0  0  0  0  0
    0.6888   -3.4639    0.0000 C   0  0  0  0  0  0  0  0  0  0  0  0
    1.6994   -3.4344    0.0000 N   0  0  0  0  0  0  0  0  0  0  0  0
    0.9466    2.8122    0.0000 C   0  0  0  0  0  0  0  0  0  0  0  0
    0.7749   -1.6949    0.0000 O   0  0  0  0  0  0  0  0  0  0  0  0
    1.8862    2.7469    0.0000 C   0  0  0  0  0  0  0  0  0  0  0  0
    0.5348    3.6595    0.0000 C   0  0  0  0  0  0  0  0  0  0  0  0
    2.0016    4.3708    0.0000 C   0  0  0  0  0  0  0  0  0  0  0  0
   -0.5941   -5.3130    0.0000 C   0  0  0  0  0  0  0  0  0  0  0  0
    2.4167    3.5234    0.0000 C   0  0  0  0  0  0  0  0  0  0  0  0
    1.0533    4.4478    0.0000 C   0  0  0  0  0  0  0  0  0  0  0  0
   -2.5323   -4.7829    0.0000 C   0  0  0  0  0  0  0  0  0  0  0  0
    2.5323    5.1709    0.0000 O   0  0  0  0  0  0  0  0  0  0  0  0
    2.1143    6.0243    0.0000 C   0  0  0  0  0  0  0  0  0  0  0  0
   -1.3054   -6.0243    0.0000 C   0  0  0  0  0  0  0  0  0  0  0  0
   -2.2743   -5.7635    0.0000 C   0  0  0  0  0  0  0  0  0  0  0  0
  1  2  2  0
  3 10  1  0
  1  4  1  0
  2  5  1  0
  3  6  2  0
  1  7  1  0
  3  8  1  0
  4  9  1  0
  5  9  2  0
  7 10  1  0
  8 11  2  0
 11 12  1  0
  6 12  1  0
  2 13  1  0
 13 14  3  0
 11 15  1  0
 10 16  2  0
 15 17  2  0
 15 18  1  0
 19 22  1  0
  5 20  1  0
 17 21  1  0
 19 21  2  0
 18 22  2  0
  9 23  1  0
 19 24  1  0
 24 25  1  0
 20 26  1  0
 26 27  1  0
 23 27  1  0
M  END
>  <IDNUMBER>  (553) 
C226-0775

>  <available>  (553) 
64

>  <H_acceptor>  (553) 
6

>  <H_donor>  (553) 
1

>  <B_rotN>  (553) 
6

>  <N_O>  (553) 
6

>  <logP>  (553) 
4.4705

>  <logD>  (553) 
3.1794

>  <logSw>  (553) 
-4.4701

>  <PSA>  (553) 
69.18

>  <pKa_ma>  (553) 
6.1318

>  <pKa_mb>  (553) 
-6.8683

>  <N_Chirals>  (553) 
0

>  <Name>  (553) 
N-(3-cyano-4,5,6,7-tetrahydro-1-benzothiophen-2-yl)-5-(4-methoxyphenyl)-1,2-oxazole-3-carboxamide

>  <Smile>  (553) 
COc(cc1)ccc1-c1cc(C(Nc(sc2c3CCCC2)c3C#N)=O)no1

>  <Color>  (553) 
NOT COLORED

>  <Collection>  (553) 
DC

>  <InChI>  (553) 
InChI=1S/C20H17N3O3S/c1-25-13-8-6-12(7-9-13)17-10-16(23-26-17)19(24)22-20-15(11-21)14-4-2-3-5-18(14)27-20/h6-10H,2-5H2,1H3,(H,22,24)

>  <InChI Key>  (553) 
GEOFPCNFWRTZNM-UHFFFAOYSA-N

>  <PERCENTSP3>  (553) 
25

>  <Link>  (553) 
https://www.chemdiv.com/catalog/screening-compounds/compound-C226-0775/

>  <MFCDNUMBER>  (553) 
MFCD08546569

>  <CLNUMBER>  (553) 
CL2028

>  <STEREO>  (553) 
ACHIRAL

>  <State>  (553) 
Solid

>  <Similarity score>  (553) 
0.18

$$$$
1-{3-fluoro-3-[3-(pyridin-4-yl)-1,2,4-oxadiazol-5-yl]piperidin-1-yl}-2-methylpro
     RDKit          2D

 23 25  0  0  0  0  0  0  0  0999 V2000
   -0.6408    0.9399    0.0000 N   0  0  0  0  0  0  0  0  0  0  0  0
    0.3463    1.0966    0.0000 C   0  0  0  0  0  0  0  0  0  0  0  0
    1.0512    0.3916    0.0000 C   0  0  0  0  0  0  0  0  0  0  0  0
   -1.0950    1.8327    0.0000 C   0  0  0  0  0  0  0  0  0  0  0  0
    2.5551   -0.4793    0.0000 N   0  0  0  0  0  0  0  0  0  0  0  0
   -0.3901    2.5440    0.0000 N   0  0  0  0  0  0  0  0  0  0  0  0
    0.5029    2.0867    0.0000 O   0  0  0  0  0  0  0  0  0  0  0  0
    3.0532   -1.3379    0.0000 C   0  0  0  0  0  0  0  0  0  0  0  0
    1.5556   -0.4793    0.0000 C   0  0  0  0  0  0  0  0  0  0  0  0
    4.0557   -1.3379    0.0000 O   0  0  0  0  0  0  0  0  0  0  0  0
   -2.0788    1.9893    0.0000 C   0  0  0  0  0  0  0  0  0  0  0  0
    0.6720   -0.5359    0.0000 F   0  0  0  0  0  0  0  0  0  0  0  0
   -4.0557    2.3026    0.0000 N   0  0  0  0  0  0  0  0  0  0  0  0
    2.5551   -2.2025    0.0000 C   0  0  0  0  0  0  0  0  0  0  0  0
    1.5556    1.2563    0.0000 C   0  0  0  0  0  0  0  0  0  0  0  0
    3.0532    0.3916    0.0000 C   0  0  0  0  0  0  0  0  0  0  0  0
    2.5551    1.2563    0.0000 C   0  0  0  0  0  0  0  0  0  0  0  0
   -3.7049    1.3724    0.0000 C   0  0  0  0  0  0  0  0  0  0  0  0
   -3.4261    3.0735    0.0000 C   0  0  0  0  0  0  0  0  0  0  0  0
   -2.7118    1.2094    0.0000 C   0  0  0  0  0  0  0  0  0  0  0  0
   -2.4453    2.9199    0.0000 C   0  0  0  0  0  0  0  0  0  0  0  0
    3.0532   -3.0735    0.0000 C   0  0  0  0  0  0  0  0  0  0  0  0
    1.5556   -2.2025    0.0000 C   0  0  0  0  0  0  0  0  0  0  0  0
  1  2  2  0
  2  3  1  0
  1  4  1  0
  5  9  1  0
  4  6  2  0
  6  7  1  0
  2  7  1  0
  5  8  1  0
  3  9  1  0
  8 10  2  0
  4 11  1  0
  3 12  1  0
 13 19  2  0
 13 18  1  0
  8 14  1  0
  3 15  1  0
 16 17  1  0
  5 16  1  0
 15 17  1  0
 18 20  2  0
 19 21  1  0
 11 20  1  0
 11 21  2  0
 14 22  1  0
 14 23  1  0
M  END
>  <IDNUMBER>  (554) 
SA92-0213

>  <available>  (554) 
54

>  <H_acceptor>  (554) 
6

>  <H_donor>  (554) 
0

>  <B_rotN>  (554) 
4

>  <N_O>  (554) 
6

>  <logP>  (554) 
2.2953

>  <logD>  (554) 
2.2952

>  <logSw>  (554) 
-2.2391

>  <PSA>  (554) 
57.926

>  <pKa_ma>  (554) 
22.648

>  <pKa_mb>  (554) 
3.6841

>  <N_Chirals>  (554) 
1

>  <Name>  (554) 
1-{3-fluoro-3-[3-(pyridin-4-yl)-1,2,4-oxadiazol-5-yl]piperidin-1-yl}-2-methylpropan-1-one

>  <Smile>  (554) 
CC(C)C(N(CCC1)CC1(c1nc(-c2ccncc2)no1)F)=O

>  <Color>  (554) 
YELLOW

>  <Collection>  (554) 
IC

>  <InChI>  (554) 
InChI=1S/C16H19FN4O2/c1-11(2)14(22)21-9-3-6-16(17,10-21)15-19-13(20-23-15)12-4-7-18-8-5-12/h4-5,7-8,11H,3,6,9-10H2,1-2H3/t16-/m0/s1

>  <InChI Key>  (554) 
XAYAYKFRHPGKDT-INIZCTEOSA-N

>  <PERCENTSP3>  (554) 
50

>  <Link>  (554) 
https://www.chemdiv.com/catalog/screening-compounds/compound-SA92-0213/

>  <MFCDNUMBER>  (554) 
MFCD32241822

>  <CLNUMBER>  (554) 
CM4899

>  <STEREO>  (554) 
RACEMIC MIXTURE

>  <State>  (554) 
Liquid

>  <Similarity score>  (554) 
0.18

$$$$
(3,5-dimethoxyphenyl){3-fluoro-3-[3-(pyridin-4-yl)-1,2,4-oxadiazol-5-yl]piperidi
     RDKit          2D

 30 33  0  0  0  0  0  0  0  0999 V2000
   -2.1347    0.9351    0.0000 N   0  0  0  0  0  0  0  0  0  0  0  0
   -1.1576    1.0917    0.0000 C   0  0  0  0  0  0  0  0  0  0  0  0
   -0.4497    0.3899    0.0000 C   0  0  0  0  0  0  0  0  0  0  0  0
   -2.5920    1.8246    0.0000 C   0  0  0  0  0  0  0  0  0  0  0  0
    1.0542   -0.4778    0.0000 N   0  0  0  0  0  0  0  0  0  0  0  0
   -1.8906    2.5389    0.0000 N   0  0  0  0  0  0  0  0  0  0  0  0
    1.5521   -1.3424    0.0000 C   0  0  0  0  0  0  0  0  0  0  0  0
   -1.0038    2.0785    0.0000 O   0  0  0  0  0  0  0  0  0  0  0  0
    2.5545   -1.3424    0.0000 C   0  0  0  0  0  0  0  0  0  0  0  0
    0.0549   -0.4778    0.0000 C   0  0  0  0  0  0  0  0  0  0  0  0
    3.0528   -0.4778    0.0000 C   0  0  0  0  0  0  0  0  0  0  0  0
    3.0528   -2.2069    0.0000 C   0  0  0  0  0  0  0  0  0  0  0  0
    1.0542   -2.2069    0.0000 O   0  0  0  0  0  0  0  0  0  0  0  0
   -3.5788    1.9937    0.0000 C   0  0  0  0  0  0  0  0  0  0  0  0
    4.5500   -1.3424    0.0000 C   0  0  0  0  0  0  0  0  0  0  0  0
    4.0521   -0.4778    0.0000 C   0  0  0  0  0  0  0  0  0  0  0  0
    4.0521   -2.2069    0.0000 C   0  0  0  0  0  0  0  0  0  0  0  0
   -0.8253   -0.5309    0.0000 F   0  0  0  0  0  0  0  0  0  0  0  0
   -5.5555    2.3042    0.0000 N   0  0  0  0  0  0  0  0  0  0  0  0
    0.0549    1.2608    0.0000 C   0  0  0  0  0  0  0  0  0  0  0  0
    1.5521    0.3899    0.0000 C   0  0  0  0  0  0  0  0  0  0  0  0
    4.5500    0.3899    0.0000 O   0  0  0  0  0  0  0  0  0  0  0  0
    4.5500   -3.0778    0.0000 O   0  0  0  0  0  0  0  0  0  0  0  0
    1.0542    1.2608    0.0000 C   0  0  0  0  0  0  0  0  0  0  0  0
   -4.9229    3.0778    0.0000 C   0  0  0  0  0  0  0  0  0  0  0  0
   -5.2045    1.3674    0.0000 C   0  0  0  0  0  0  0  0  0  0  0  0
   -3.9361    2.9243    0.0000 C   0  0  0  0  0  0  0  0  0  0  0  0
   -4.2118    1.2139    0.0000 C   0  0  0  0  0  0  0  0  0  0  0  0
    5.5555    0.3899    0.0000 C   0  0  0  0  0  0  0  0  0  0  0  0
    5.5555   -3.0778    0.0000 C   0  0  0  0  0  0  0  0  0  0  0  0
  1  2  2  0
  2  3  1  0
  1  4  1  0
  5 10  1  0
  4  6  2  0
  6  8  1  0
  5  7  1  0
  2  8  1  0
  7  9  1  0
  3 10  1  0
  9 11  2  0
  9 12  1  0
  7 13  2  0
  4 14  1  0
 15 17  1  0
 11 16  1  0
 15 16  2  0
 12 17  2  0
  3 18  1  0
 19 26  1  0
 19 25  2  0
  3 20  1  0
 21 24  1  0
  5 21  1  0
 16 22  1  0
 17 23  1  0
 20 24  1  0
 25 27  1  0
 26 28  2  0
 14 27  2  0
 14 28  1  0
 22 29  1  0
 23 30  1  0
M  END
>  <IDNUMBER>  (555) 
SA92-0205

>  <available>  (555) 
69

>  <H_acceptor>  (555) 
8

>  <H_donor>  (555) 
0

>  <B_rotN>  (555) 
6

>  <N_O>  (555) 
8

>  <logP>  (555) 
2.8318

>  <logD>  (555) 
2.8317

>  <logSw>  (555) 
-2.9931

>  <PSA>  (555) 
72.742

>  <pKa_ma>  (555) 
27.08

>  <pKa_mb>  (555) 
3.6841

>  <N_Chirals>  (555) 
1

>  <Name>  (555) 
(3,5-dimethoxyphenyl){3-fluoro-3-[3-(pyridin-4-yl)-1,2,4-oxadiazol-5-yl]piperidin-1-yl}methanone

>  <Smile>  (555) 
COc1cc(C(N(CCC2)CC2(c2nc(-c3ccncc3)no2)F)=O)cc(OC)c1

>  <Color>  (555) 
YELLOW

>  <Collection>  (555) 
IC

>  <InChI>  (555) 
InChI=1S/C21H21FN4O4/c1-28-16-10-15(11-17(12-16)29-2)19(27)26-9-3-6-21(22,13-26)20-24-18(25-30-20)14-4-7-23-8-5-14/h4-5,7-8,10-12H,3,6,9,13H2,1-2H3/t21-/m0/s1

>  <InChI Key>  (555) 
LRSRYDINSILLBT-NRFANRHFSA-N

>  <PERCENTSP3>  (555) 
33.33

>  <Link>  (555) 
https://www.chemdiv.com/catalog/screening-compounds/compound-SA92-0205/

>  <MFCDNUMBER>  (555) 
MFCD32241696

>  <CLNUMBER>  (555) 
CM4899

>  <STEREO>  (555) 
RACEMIC MIXTURE

>  <State>  (555) 
Liquid

>  <Similarity score>  (555) 
0.18

$$$$
3-(5-{3-fluoro-1-[(5-methylthiophen-2-yl)methyl]piperidin-3-yl}-1,2,4-oxadiazol-
     RDKit          2D

 25 28  0  0  0  0  0  0  0  0999 V2000
    1.1966   -0.4168    0.0000 N   0  0  0  0  0  0  0  0  0  0  0  0
    0.8338   -1.3465    0.0000 C   0  0  0  0  0  0  0  0  0  0  0  0
    2.1970   -0.4669    0.0000 C   0  0  0  0  0  0  0  0  0  0  0  0
   -0.1292   -1.6092    0.0000 C   0  0  0  0  0  0  0  0  0  0  0  0
    2.4471   -1.4340    0.0000 N   0  0  0  0  0  0  0  0  0  0  0  0
    1.6175   -1.9802    0.0000 O   0  0  0  0  0  0  0  0  0  0  0  0
   -2.7807    0.9923    0.0000 S   0  0  0  0  0  0  0  0  0  0  0  0
   -0.9964   -0.1085    0.0000 N   0  0  0  0  0  0  0  0  0  0  0  0
   -1.8594    1.3925    0.0000 C   0  0  0  0  0  0  0  0  0  0  0  0
    2.8224    0.3084    0.0000 C   0  0  0  0  0  0  0  0  0  0  0  0
   -0.1292   -0.6086    0.0000 C   0  0  0  0  0  0  0  0  0  0  0  0
   -3.4434    1.7301    0.0000 C   0  0  0  0  0  0  0  0  0  0  0  0
   -1.9676    2.3931    0.0000 C   0  0  0  0  0  0  0  0  0  0  0  0
   -2.9432    2.5973    0.0000 C   0  0  0  0  0  0  0  0  0  0  0  0
   -0.9964    0.8921    0.0000 C   0  0  0  0  0  0  0  0  0  0  0  0
    4.4440    0.9298    0.0000 N   0  0  0  0  0  0  0  0  0  0  0  0
   -0.2584   -2.5973    0.0000 F   0  0  0  0  0  0  0  0  0  0  0  0
   -0.9964   -2.1095    0.0000 C   0  0  0  0  0  0  0  0  0  0  0  0
    3.8105    0.1542    0.0000 C   0  0  0  0  0  0  0  0  0  0  0  0
   -1.8594   -0.6086    0.0000 C   0  0  0  0  0  0  0  0  0  0  0  0
    2.4681    1.2424    0.0000 C   0  0  0  0  0  0  0  0  0  0  0  0
   -1.8594   -1.6092    0.0000 C   0  0  0  0  0  0  0  0  0  0  0  0
   -4.4440    1.6301    0.0000 C   0  0  0  0  0  0  0  0  0  0  0  0
    4.0856    1.8677    0.0000 C   0  0  0  0  0  0  0  0  0  0  0  0
    3.0975    2.0220    0.0000 C   0  0  0  0  0  0  0  0  0  0  0  0
  1  2  2  0
  1  3  1  0
  2  4  1  0
  3  5  2  0
  5  6  1  0
  2  6  1  0
  7  9  1  0
  8 11  1  0
  8 20  1  0
  9 15  1  0
  3 10  1  0
  4 11  1  0
  7 12  1  0
 12 14  2  0
  9 13  2  0
 13 14  1  0
  8 15  1  0
 16 19  2  0
 16 24  1  0
  4 17  1  0
  4 18  1  0
 10 19  1  0
 20 22  1  0
 10 21  2  0
 18 22  1  0
 12 23  1  0
 24 25  2  0
 21 25  1  0
M  END
>  <IDNUMBER>  (556) 
SA92-0555

>  <available>  (556) 
2

>  <H_acceptor>  (556) 
5

>  <H_donor>  (556) 
0

>  <B_rotN>  (556) 
4

>  <N_O>  (556) 
5

>  <logP>  (556) 
3.3148

>  <logD>  (556) 
2.6761

>  <logSw>  (556) 
-3.1843

>  <PSA>  (556) 
45.846

>  <pKa_ma>  (556) 
26.9519

>  <pKa_mb>  (556) 
7.9253

>  <N_Chirals>  (556) 
1

>  <Name>  (556) 
3-(5-{3-fluoro-1-[(5-methylthiophen-2-yl)methyl]piperidin-3-yl}-1,2,4-oxadiazol-3-yl)pyridine

>  <Smile>  (556) 
Cc1ccc(CN(CCC2)CC2(c2nc(-c3cnccc3)no2)F)s1

>  <Color>  (556) 
ORANGE

>  <Collection>  (556) 
IC

>  <InChI>  (556) 
InChI=1S/C18H19FN4OS/c1-13-5-6-15(25-13)11-23-9-3-7-18(19,12-23)17-21-16(22-24-17)14-4-2-8-20-10-14/h2,4-6,8,10H,3,7,9,11-12H2,1H3/t18-/m0/s1

>  <InChI Key>  (556) 
JUCNFSLBQFYAJL-SFHVURJKSA-N

>  <PERCENTSP3>  (556) 
38.89

>  <Link>  (556) 
https://www.chemdiv.com/catalog/screening-compounds/compound-SA92-0555/

>  <MFCDNUMBER>  (556) 
MFCD32242468

>  <CLNUMBER>  (556) 
CM4899

>  <STEREO>  (556) 
RACEMIC MIXTURE

>  <State>  (556) 
Liquid

>  <Similarity score>  (556) 
0.18

$$$$
N-(6-tert-butyl-3-cyano-4,5,6,7-tetrahydro-1-benzothiophen-2-yl)-2-(4-ethylpheno
     RDKit          2D

 29 31  0  0  0  0  0  0  0  0999 V2000
    1.2331   -0.4104    0.0000 C   0  0  0  0  0  0  0  0  0  0  0  0
    1.8705    0.3977    0.0000 C   0  0  0  0  0  0  0  0  0  0  0  0
    2.8036   -0.9351    0.0000 C   0  0  0  0  0  0  0  0  0  0  0  0
    2.8036    0.0605    0.0000 C   0  0  0  0  0  0  0  0  0  0  0  0
    1.8080   -1.2228    0.0000 S   0  0  0  0  0  0  0  0  0  0  0  0
    0.2583   -0.3853    0.0000 N   0  0  0  0  0  0  0  0  0  0  0  0
   -0.2624   -1.2599    0.0000 C   0  0  0  0  0  0  0  0  0  0  0  0
    1.6330    1.3477    0.0000 C   0  0  0  0  0  0  0  0  0  0  0  0
    3.6660   -1.4476    0.0000 C   0  0  0  0  0  0  0  0  0  0  0  0
    1.3955    2.2974    0.0000 N   0  0  0  0  0  0  0  0  0  0  0  0
    3.6660    0.5603    0.0000 C   0  0  0  0  0  0  0  0  0  0  0  0
    4.5409   -0.9478    0.0000 C   0  0  0  0  0  0  0  0  0  0  0  0
   -1.2623   -1.2599    0.0000 C   0  0  0  0  0  0  0  0  0  0  0  0
   -1.7621   -0.3853    0.0000 O   0  0  0  0  0  0  0  0  0  0  0  0
    5.3865   -1.4352    0.0000 C   0  0  0  0  0  0  0  0  0  0  0  0
    0.2583   -2.1348    0.0000 O   0  0  0  0  0  0  0  0  0  0  0  0
    4.5409    0.0605    0.0000 C   0  0  0  0  0  0  0  0  0  0  0  0
   -2.7577   -0.3853    0.0000 C   0  0  0  0  0  0  0  0  0  0  0  0
   -4.7532   -0.3853    0.0000 C   0  0  0  0  0  0  0  0  0  0  0  0
   -3.2576   -1.2599    0.0000 C   0  0  0  0  0  0  0  0  0  0  0  0
   -3.2576    0.4855    0.0000 C   0  0  0  0  0  0  0  0  0  0  0  0
   -4.2575    0.4855    0.0000 C   0  0  0  0  0  0  0  0  0  0  0  0
   -4.2575   -1.2599    0.0000 C   0  0  0  0  0  0  0  0  0  0  0  0
    6.2238   -1.9224    0.0000 C   0  0  0  0  0  0  0  0  0  0  0  0
    5.8864   -0.5728    0.0000 C   0  0  0  0  0  0  0  0  0  0  0  0
    4.8908   -2.2974    0.0000 C   0  0  0  0  0  0  0  0  0  0  0  0
   -1.7621   -2.1348    0.0000 C   0  0  0  0  0  0  0  0  0  0  0  0
   -5.7531   -0.4104    0.0000 C   0  0  0  0  0  0  0  0  0  0  0  0
   -6.2238   -1.2852    0.0000 C   0  0  0  0  0  0  0  0  0  0  0  0
  1  2  2  0
  3  5  1  0
  3  4  2  0
  2  4  1  0
  1  5  1  0
  1  6  1  0
  6  7  1  0
  2  8  1  0
  3  9  1  0
  8 10  3  0
  4 11  1  0
  9 12  1  0
  7 13  1  0
 13 14  1  0
 12 15  1  0
  7 16  2  0
 11 17  1  0
 12 17  1  0
 14 18  1  0
 19 22  2  0
 19 23  1  0
 18 20  1  0
 18 21  2  0
 21 22  1  0
 20 23  2  0
 15 24  1  0
 15 25  1  0
 15 26  1  0
 13 27  1  0
 19 28  1  0
 28 29  1  0
M  END
>  <IDNUMBER>  (557) 
Y202-9979

>  <available>  (557) 
19

>  <H_acceptor>  (557) 
4

>  <H_donor>  (557) 
1

>  <B_rotN>  (557) 
8

>  <N_O>  (557) 
4

>  <logP>  (557) 
6.4913

>  <logD>  (557) 
5.0733

>  <logSw>  (557) 
-5.6398

>  <PSA>  (557) 
46.89

>  <pKa_ma>  (557) 
5.9989

>  <pKa_mb>  (557) 
-4.9316

>  <N_Chirals>  (557) 
2

>  <Name>  (557) 
N-(6-tert-butyl-3-cyano-4,5,6,7-tetrahydro-1-benzothiophen-2-yl)-2-(4-ethylphenoxy)propanamide

>  <Smile>  (557) 
CCc(cc1)ccc1OC(C)C(Nc(sc(C1)c2CCC1C(C)(C)C)c2C#N)=O

>  <Color>  (557) 
NOT COLORED

>  <Collection>  (557) 
DC

>  <InChI>  (557) 
InChI=1S/C24H30N2O2S/c1-6-16-7-10-18(11-8-16)28-15(2)22(27)26-23-20(14-25)19-12-9-17(24(3,4)5)13-21(19)29-23/h7-8,10-11,15,17H,6,9,12-13H2,1-5H3,(H,26,27)

>  <InChI Key>  (557) 
PKKSFPGCVYGOKM-UHFFFAOYSA-N

>  <PERCENTSP3>  (557) 
50

>  <Link>  (557) 
https://www.chemdiv.com/catalog/screening-compounds/compound-Y202-9979/

>  <MFCDNUMBER>  (557) 
MFCD03944545

>  <STEREO>  (557) 
MIXTURE OF STEREOISOMERS

>  <State>  (557) 
Solid

>  <Similarity score>  (557) 
0.18

$$$$
2-amino-6-(propan-2-yl)-4,5,6,7-tetrahydrothieno[2,3-c]pyridine-3-carbonitrile
     RDKit          2D

 15 16  0  0  0  0  0  0  0  0999 V2000
    1.6707   -0.0209    0.0000 C   0  0  0  0  0  0  0  0  0  0  0  0
    1.9541   -0.9833    0.0000 C   0  0  0  0  0  0  0  0  0  0  0  0
    0.3292   -0.9208    0.0000 C   0  0  0  0  0  0  0  0  0  0  0  0
    0.6708    0.0167    0.0000 C   0  0  0  0  0  0  0  0  0  0  0  0
    1.1166   -1.5459    0.0000 S   0  0  0  0  0  0  0  0  0  0  0  0
   -1.2959   -0.3209    0.0000 N   0  0  0  0  0  0  0  0  0  0  0  0
   -0.6458   -1.0917    0.0000 C   0  0  0  0  0  0  0  0  0  0  0  0
    2.2834    0.7584    0.0000 C   0  0  0  0  0  0  0  0  0  0  0  0
    2.9166    1.5459    0.0000 N   0  0  0  0  0  0  0  0  0  0  0  0
    0.0334    0.7709    0.0000 C   0  0  0  0  0  0  0  0  0  0  0  0
   -0.9541    0.6166    0.0000 C   0  0  0  0  0  0  0  0  0  0  0  0
    2.8833   -1.3167    0.0000 N   0  0  0  0  0  0  0  0  0  0  0  0
   -2.2834   -0.4916    0.0000 C   0  0  0  0  0  0  0  0  0  0  0  0
   -2.6333   -1.4416    0.0000 C   0  0  0  0  0  0  0  0  0  0  0  0
   -2.9166    0.2792    0.0000 C   0  0  0  0  0  0  0  0  0  0  0  0
  1  2  2  0
  3  4  2  0
  1  4  1  0
  2  5  1  0
  3  5  1  0
  6 11  1  0
  3  7  1  0
  6  7  1  0
  1  8  1  0
  8  9  3  0
  4 10  1  0
 10 11  1  0
  2 12  1  0
  6 13  1  0
 13 14  1  0
 13 15  1  0
M  END
>  <IDNUMBER>  (558) 
Y512-6850

>  <available>  (558) 
73

>  <H_acceptor>  (558) 
2

>  <H_donor>  (558) 
2

>  <B_rotN>  (558) 
2

>  <N_O>  (558) 
3

>  <logP>  (558) 
1.827

>  <logD>  (558) 
1.797

>  <logSw>  (558) 
-1.691

>  <PSA>  (558) 
42.29

>  <pKa_ma>  (558) 
15.47

>  <pKa_mb>  (558) 
6.257

>  <N_Chirals>  (558) 
0

>  <Name>  (558) 
2-amino-6-(propan-2-yl)-4,5,6,7-tetrahydrothieno[2,3-c]pyridine-3-carbonitrile

>  <Smile>  (558) 
c1(c(sc2c1CCN(C2)C(C)C)N)C#N

>  <Color>  (558) 
BROWN

>  <Collection>  (558) 
DC

>  <InChI>  (558) 
InChI=1S/C11H15N3S/c1-7(2)14-4-3-8-9(5-12)11(13)15-10(8)6-14/h7H,3-4,6,13H2,1-2H3

>  <InChI Key>  (558) 
GRVDEWDYQKUPSB-UHFFFAOYSA-N

>  <PERCENTSP3>  (558) 
54.5

>  <Link>  (558) 
https://www.chemdiv.com/catalog/screening-compounds/compound-Y512-6850/

>  <MFCDNUMBER>  (558) 
MFCD00742042

>  <STEREO>  (558) 
ACHIRAL

>  <State>  (558) 
Solid

>  <Similarity score>  (558) 
0.18

$$$$
N-ethyl-3-fluoro-3-[3-(pyridin-4-yl)-1,2,4-oxadiazol-5-yl]piperidine-1-carboxami
     RDKit          2D

 23 25  0  0  0  0  0  0  0  0999 V2000
   -1.3834    0.5094    0.0000 N   0  0  0  0  0  0  0  0  0  0  0  0
   -0.4028    0.6659    0.0000 C   0  0  0  0  0  0  0  0  0  0  0  0
    0.3088   -0.0487    0.0000 C   0  0  0  0  0  0  0  0  0  0  0  0
   -1.8442    1.3993    0.0000 C   0  0  0  0  0  0  0  0  0  0  0  0
   -1.1359    2.1076    0.0000 N   0  0  0  0  0  0  0  0  0  0  0  0
    1.8066   -0.9134    0.0000 N   0  0  0  0  0  0  0  0  0  0  0  0
   -0.2430    1.6531    0.0000 O   0  0  0  0  0  0  0  0  0  0  0  0
    2.3049   -1.7784    0.0000 C   0  0  0  0  0  0  0  0  0  0  0  0
    0.8070   -0.9134    0.0000 C   0  0  0  0  0  0  0  0  0  0  0  0
    1.8066   -2.6434    0.0000 O   0  0  0  0  0  0  0  0  0  0  0  0
   -2.8281    1.5591    0.0000 C   0  0  0  0  0  0  0  0  0  0  0  0
   -0.0769   -0.9698    0.0000 F   0  0  0  0  0  0  0  0  0  0  0  0
   -4.8056    1.8694    0.0000 N   0  0  0  0  0  0  0  0  0  0  0  0
    3.3078   -1.7784    0.0000 N   0  0  0  0  0  0  0  0  0  0  0  0
    0.8070    0.8197    0.0000 C   0  0  0  0  0  0  0  0  0  0  0  0
    2.3049   -0.0487    0.0000 C   0  0  0  0  0  0  0  0  0  0  0  0
    1.8066    0.8197    0.0000 C   0  0  0  0  0  0  0  0  0  0  0  0
   -4.4545    0.9323    0.0000 C   0  0  0  0  0  0  0  0  0  0  0  0
   -4.1821    2.6434    0.0000 C   0  0  0  0  0  0  0  0  0  0  0  0
   -3.4613    0.7788    0.0000 C   0  0  0  0  0  0  0  0  0  0  0  0
   -3.1948    2.4899    0.0000 C   0  0  0  0  0  0  0  0  0  0  0  0
    3.8091   -2.6434    0.0000 C   0  0  0  0  0  0  0  0  0  0  0  0
    4.8056   -2.6434    0.0000 C   0  0  0  0  0  0  0  0  0  0  0  0
  1  2  2  0
  2  3  1  0
  1  4  1  0
  4  5  2  0
  5  7  1  0
  6  9  1  0
  2  7  1  0
  6  8  1  0
  3  9  1  0
  8 10  2  0
  4 11  1  0
  3 12  1  0
 13 19  2  0
 13 18  1  0
  8 14  1  0
  3 15  1  0
 16 17  1  0
  6 16  1  0
 15 17  1  0
 18 20  2  0
 19 21  1  0
 11 20  1  0
 11 21  2  0
 14 22  1  0
 22 23  1  0
M  END
>  <IDNUMBER>  (559) 
SA92-0267

>  <available>  (559) 
118

>  <H_acceptor>  (559) 
6

>  <H_donor>  (559) 
1

>  <B_rotN>  (559) 
5

>  <N_O>  (559) 
7

>  <logP>  (559) 
1.6405

>  <logD>  (559) 
1.6404

>  <logSw>  (559) 
-1.7848

>  <PSA>  (559) 
67.694

>  <pKa_ma>  (559) 
16.53

>  <pKa_mb>  (559) 
3.6841

>  <N_Chirals>  (559) 
1

>  <Name>  (559) 
N-ethyl-3-fluoro-3-[3-(pyridin-4-yl)-1,2,4-oxadiazol-5-yl]piperidine-1-carboxamide

>  <Smile>  (559) 
CCNC(N(CCC1)CC1(c1nc(-c2ccncc2)no1)F)=O

>  <Color>  (559) 
YELLOW

>  <Collection>  (559) 
IC

>  <InChI>  (559) 
InChI=1S/C15H18FN5O2/c1-2-18-14(22)21-9-3-6-15(16,10-21)13-19-12(20-23-13)11-4-7-17-8-5-11/h4-5,7-8H,2-3,6,9-10H2,1H3,(H,18,22)/t15-/m0/s1

>  <InChI Key>  (559) 
OCHWKHZWKWSLGB-HNNXBMFYSA-N

>  <PERCENTSP3>  (559) 
46.67

>  <Link>  (559) 
https://www.chemdiv.com/catalog/screening-compounds/compound-SA92-0267/

>  <MFCDNUMBER>  (559) 
MFCD32242331

>  <CLNUMBER>  (559) 
CM4899

>  <STEREO>  (559) 
RACEMIC MIXTURE

>  <State>  (559) 
Solid

>  <Similarity score>  (559) 
0.18

$$$$
2-(4-ethoxyphenyl)-1-{3-fluoro-3-[3-(pyridin-3-yl)-1,2,4-oxadiazol-5-yl]piperidi
     RDKit          2D

 30 33  0  0  0  0  0  0  0  0999 V2000
    2.0713   -0.1291    0.0000 N   0  0  0  0  0  0  0  0  0  0  0  0
    1.7087   -1.0586    0.0000 C   0  0  0  0  0  0  0  0  0  0  0  0
    3.0717   -0.1791    0.0000 C   0  0  0  0  0  0  0  0  0  0  0  0
    0.7462   -1.3212    0.0000 C   0  0  0  0  0  0  0  0  0  0  0  0
    3.3300   -1.1462    0.0000 N   0  0  0  0  0  0  0  0  0  0  0  0
   -0.1168    0.1791    0.0000 N   0  0  0  0  0  0  0  0  0  0  0  0
    2.4922   -1.6921    0.0000 O   0  0  0  0  0  0  0  0  0  0  0  0
   -0.1168    1.1796    0.0000 C   0  0  0  0  0  0  0  0  0  0  0  0
    0.7462   -0.3211    0.0000 C   0  0  0  0  0  0  0  0  0  0  0  0
    3.6967    0.5959    0.0000 C   0  0  0  0  0  0  0  0  0  0  0  0
   -0.9836    1.6796    0.0000 C   0  0  0  0  0  0  0  0  0  0  0  0
    0.7462    1.6796    0.0000 O   0  0  0  0  0  0  0  0  0  0  0  0
    5.3179    1.2170    0.0000 N   0  0  0  0  0  0  0  0  0  0  0  0
    0.6169   -2.3089    0.0000 F   0  0  0  0  0  0  0  0  0  0  0  0
   -1.8546    1.1796    0.0000 C   0  0  0  0  0  0  0  0  0  0  0  0
   -0.1168   -1.8214    0.0000 C   0  0  0  0  0  0  0  0  0  0  0  0
    4.6844    0.4417    0.0000 C   0  0  0  0  0  0  0  0  0  0  0  0
   -0.9836   -0.3211    0.0000 C   0  0  0  0  0  0  0  0  0  0  0  0
   -3.5842    0.1791    0.0000 C   0  0  0  0  0  0  0  0  0  0  0  0
   -2.7173    1.6796    0.0000 C   0  0  0  0  0  0  0  0  0  0  0  0
   -1.8546    0.1791    0.0000 C   0  0  0  0  0  0  0  0  0  0  0  0
   -2.7173   -0.3211    0.0000 C   0  0  0  0  0  0  0  0  0  0  0  0
   -3.5842    1.1796    0.0000 C   0  0  0  0  0  0  0  0  0  0  0  0
    3.3424    1.5294    0.0000 C   0  0  0  0  0  0  0  0  0  0  0  0
   -4.4552   -0.3211    0.0000 O   0  0  0  0  0  0  0  0  0  0  0  0
   -0.9836   -1.3212    0.0000 C   0  0  0  0  0  0  0  0  0  0  0  0
    4.9594    2.1546    0.0000 C   0  0  0  0  0  0  0  0  0  0  0  0
   -4.4552   -1.3212    0.0000 C   0  0  0  0  0  0  0  0  0  0  0  0
    3.9718    2.3089    0.0000 C   0  0  0  0  0  0  0  0  0  0  0  0
   -5.3179   -1.8214    0.0000 C   0  0  0  0  0  0  0  0  0  0  0  0
  1  2  2  0
  1  3  1  0
  2  4  1  0
  3  5  2  0
  5  7  1  0
  6  9  1  0
  6 18  1  0
  2  7  1  0
  6  8  1  0
  4  9  1  0
  3 10  1  0
  8 11  1  0
  8 12  2  0
 13 17  2  0
 13 27  1  0
  4 14  1  0
 11 15  1  0
  4 16  1  0
 10 17  1  0
 18 26  1  0
 19 22  1  0
 19 23  2  0
 15 20  2  0
 15 21  1  0
 21 22  2  0
 20 23  1  0
 10 24  2  0
 19 25  1  0
 16 26  1  0
 27 29  2  0
 25 28  1  0
 24 29  1  0
 28 30  1  0
M  END
>  <IDNUMBER>  (560) 
SA92-0628

>  <available>  (560) 
82

>  <H_acceptor>  (560) 
7

>  <H_donor>  (560) 
0

>  <B_rotN>  (560) 
7

>  <N_O>  (560) 
7

>  <logP>  (560) 
3.1371

>  <logD>  (560) 
2.4984

>  <logSw>  (560) 
-2.777

>  <PSA>  (560) 
64.34

>  <pKa_ma>  (560) 
17.9425

>  <pKa_mb>  (560) 
7.9253

>  <N_Chirals>  (560) 
1

>  <Name>  (560) 
2-(4-ethoxyphenyl)-1-{3-fluoro-3-[3-(pyridin-3-yl)-1,2,4-oxadiazol-5-yl]piperidin-1-yl}ethan-1-one

>  <Smile>  (560) 
CCOc1ccc(CC(N(CCC2)CC2(c2nc(-c3cnccc3)no2)F)=O)cc1

>  <Color>  (560) 
YELLOW

>  <Collection>  (560) 
IC

>  <InChI>  (560) 
InChI=1S/C22H23FN4O3/c1-2-29-18-8-6-16(7-9-18)13-19(28)27-12-4-10-22(23,15-27)21-25-20(26-30-21)17-5-3-11-24-14-17/h3,5-9,11,14H,2,4,10,12-13,15H2,1H3/t22-/m0/s1

>  <InChI Key>  (560) 
PDPXFHDHVGOJLH-QFIPXVFZSA-N

>  <PERCENTSP3>  (560) 
36.36

>  <Link>  (560) 
https://www.chemdiv.com/catalog/screening-compounds/compound-SA92-0628/

>  <MFCDNUMBER>  (560) 
MFCD32241457

>  <CLNUMBER>  (560) 
CM4899

>  <STEREO>  (560) 
RACEMIC MIXTURE

>  <State>  (560) 
Liquid

>  <Similarity score>  (560) 
0.18

$$$$
1-{3-fluoro-3-[3-(pyridin-3-yl)-1,2,4-oxadiazol-5-yl]piperidin-1-yl}-2-(3-methox
     RDKit          2D

 29 32  0  0  0  0  0  0  0  0999 V2000
    2.0828    1.1039    0.0000 N   0  0  0  0  0  0  0  0  0  0  0  0
    1.3080    0.4788    0.0000 C   0  0  0  0  0  0  0  0  0  0  0  0
    2.9201    0.5582    0.0000 C   0  0  0  0  0  0  0  0  0  0  0  0
    0.3414    0.7330    0.0000 C   0  0  0  0  0  0  0  0  0  0  0  0
    2.6658   -0.4082    0.0000 N   0  0  0  0  0  0  0  0  0  0  0  0
   -0.5291   -0.7666    0.0000 N   0  0  0  0  0  0  0  0  0  0  0  0
    1.6663   -0.4583    0.0000 O   0  0  0  0  0  0  0  0  0  0  0  0
   -0.5291   -1.7664    0.0000 C   0  0  0  0  0  0  0  0  0  0  0  0
    0.3414   -0.2667    0.0000 C   0  0  0  0  0  0  0  0  0  0  0  0
    3.8572    0.9164    0.0000 C   0  0  0  0  0  0  0  0  0  0  0  0
   -1.3913   -2.2660    0.0000 C   0  0  0  0  0  0  0  0  0  0  0  0
    0.3414   -2.2660    0.0000 O   0  0  0  0  0  0  0  0  0  0  0  0
    5.5652    0.6456    0.0000 N   0  0  0  0  0  0  0  0  0  0  0  0
    0.2082    1.7285    0.0000 F   0  0  0  0  0  0  0  0  0  0  0  0
   -2.2578   -1.7664    0.0000 C   0  0  0  0  0  0  0  0  0  0  0  0
   -0.5291    1.2329    0.0000 C   0  0  0  0  0  0  0  0  0  0  0  0
   -3.1201   -2.2660    0.0000 C   0  0  0  0  0  0  0  0  0  0  0  0
    4.6321    0.2913    0.0000 C   0  0  0  0  0  0  0  0  0  0  0  0
   -1.3913   -0.2667    0.0000 C   0  0  0  0  0  0  0  0  0  0  0  0
   -3.9908   -1.7664    0.0000 C   0  0  0  0  0  0  0  0  0  0  0  0
    4.0074    1.9035    0.0000 C   0  0  0  0  0  0  0  0  0  0  0  0
   -4.8530   -2.2660    0.0000 O   0  0  0  0  0  0  0  0  0  0  0  0
   -1.3913    0.7330    0.0000 C   0  0  0  0  0  0  0  0  0  0  0  0
   -3.1201   -0.2667    0.0000 C   0  0  0  0  0  0  0  0  0  0  0  0
    5.7195    1.6329    0.0000 C   0  0  0  0  0  0  0  0  0  0  0  0
   -2.2578   -0.7666    0.0000 C   0  0  0  0  0  0  0  0  0  0  0  0
   -3.9908   -0.7666    0.0000 C   0  0  0  0  0  0  0  0  0  0  0  0
   -5.7195   -1.7664    0.0000 C   0  0  0  0  0  0  0  0  0  0  0  0
    4.9447    2.2660    0.0000 C   0  0  0  0  0  0  0  0  0  0  0  0
  1  2  2  0
  1  3  1  0
  2  4  1  0
  3  5  2  0
  5  7  1  0
  6  9  1  0
  6 19  1  0
  2  7  1  0
  6  8  1  0
  4  9  1  0
  3 10  1  0
  8 11  1  0
  8 12  2  0
 13 18  2  0
 13 25  1  0
  4 14  1  0
 11 15  1  0
  4 16  1  0
 15 17  2  0
 10 18  1  0
 19 23  1  0
 17 20  1  0
 20 27  2  0
 10 21  2  0
 20 22  1  0
 16 23  1  0
 24 26  2  0
 25 29  2  0
 15 26  1  0
 24 27  1  0
 22 28  1  0
 21 29  1  0
M  END
>  <IDNUMBER>  (561) 
SA92-0542

>  <available>  (561) 
105

>  <H_acceptor>  (561) 
7

>  <H_donor>  (561) 
0

>  <B_rotN>  (561) 
6

>  <N_O>  (561) 
7

>  <logP>  (561) 
2.869

>  <logD>  (561) 
2.2303

>  <logSw>  (561) 
-2.9132

>  <PSA>  (561) 
64.76

>  <pKa_ma>  (561) 
17.9425

>  <pKa_mb>  (561) 
7.9253

>  <N_Chirals>  (561) 
1

>  <Name>  (561) 
1-{3-fluoro-3-[3-(pyridin-3-yl)-1,2,4-oxadiazol-5-yl]piperidin-1-yl}-2-(3-methoxyphenyl)ethan-1-one

>  <Smile>  (561) 
COc1cccc(CC(N(CCC2)CC2(c2nc(-c3cnccc3)no2)F)=O)c1

>  <Color>  (561) 
ORANGE

>  <Collection>  (561) 
IC

>  <InChI>  (561) 
InChI=1S/C21H21FN4O3/c1-28-17-7-2-5-15(11-17)12-18(27)26-10-4-8-21(22,14-26)20-24-19(25-29-20)16-6-3-9-23-13-16/h2-3,5-7,9,11,13H,4,8,10,12,14H2,1H3/t21-/m0/s1

>  <InChI Key>  (561) 
VGMAETKJAMUCPL-NRFANRHFSA-N

>  <PERCENTSP3>  (561) 
33.33

>  <Link>  (561) 
https://www.chemdiv.com/catalog/screening-compounds/compound-SA92-0542/

>  <MFCDNUMBER>  (561) 
MFCD32242338

>  <CLNUMBER>  (561) 
CM4899

>  <STEREO>  (561) 
RACEMIC MIXTURE

>  <State>  (561) 
Liquid

>  <Similarity score>  (561) 
0.18

$$$$
(2,4-dimethyl-1,3-thiazol-5-yl){3-fluoro-3-[3-(pyridin-4-yl)-1,2,4-oxadiazol-5-y
     RDKit          2D

 27 30  0  0  0  0  0  0  0  0999 V2000
    2.8873    1.3376    0.0000 C   0  0  0  0  0  0  0  0  0  0  0  0
   -1.8124   -0.9557    0.0000 N   0  0  0  0  0  0  0  0  0  0  0  0
   -0.8257   -1.1155    0.0000 C   0  0  0  0  0  0  0  0  0  0  0  0
    1.8813    1.3376    0.0000 C   0  0  0  0  0  0  0  0  0  0  0  0
   -0.1144   -0.4012    0.0000 C   0  0  0  0  0  0  0  0  0  0  0  0
    3.4699    2.1398    0.0000 C   0  0  0  0  0  0  0  0  0  0  0  0
   -2.2731   -1.8454    0.0000 C   0  0  0  0  0  0  0  0  0  0  0  0
    1.3834    0.4636    0.0000 N   0  0  0  0  0  0  0  0  0  0  0  0
    4.4256    1.8264    0.0000 N   0  0  0  0  0  0  0  0  0  0  0  0
    3.4699    0.5202    0.0000 S   0  0  0  0  0  0  0  0  0  0  0  0
   -1.5588   -2.5443    0.0000 N   0  0  0  0  0  0  0  0  0  0  0  0
   -0.6688   -2.0993    0.0000 O   0  0  0  0  0  0  0  0  0  0  0  0
    4.4256    0.8302    0.0000 C   0  0  0  0  0  0  0  0  0  0  0  0
    0.3869    0.4636    0.0000 C   0  0  0  0  0  0  0  0  0  0  0  0
    1.3834    2.1930    0.0000 O   0  0  0  0  0  0  0  0  0  0  0  0
   -3.2507   -2.0052    0.0000 C   0  0  0  0  0  0  0  0  0  0  0  0
   -0.4999    0.5202    0.0000 F   0  0  0  0  0  0  0  0  0  0  0  0
   -5.2277   -2.3185    0.0000 N   0  0  0  0  0  0  0  0  0  0  0  0
    0.3869   -1.2720    0.0000 C   0  0  0  0  0  0  0  0  0  0  0  0
    1.8813   -0.4012    0.0000 C   0  0  0  0  0  0  0  0  0  0  0  0
    3.1598    3.0892    0.0000 C   0  0  0  0  0  0  0  0  0  0  0  0
    5.2277    0.2473    0.0000 C   0  0  0  0  0  0  0  0  0  0  0  0
    1.3834   -1.2720    0.0000 C   0  0  0  0  0  0  0  0  0  0  0  0
   -4.8768   -1.3755    0.0000 C   0  0  0  0  0  0  0  0  0  0  0  0
   -4.6043   -3.0892    0.0000 C   0  0  0  0  0  0  0  0  0  0  0  0
   -3.8803   -1.2190    0.0000 C   0  0  0  0  0  0  0  0  0  0  0  0
   -3.6078   -2.9357    0.0000 C   0  0  0  0  0  0  0  0  0  0  0  0
  2  3  2  0
  3  5  1  0
  1  4  1  0
  5 14  1  0
  1  6  2  0
  2  7  1  0
  7 11  2  0
  4  8  1  0
  6  9  1  0
  1 10  1  0
 11 12  1  0
  3 12  1  0
 10 13  1  0
  9 13  2  0
  8 14  1  0
  4 15  2  0
  7 16  1  0
  5 17  1  0
 18 25  2  0
 18 24  1  0
 19 23  1  0
  5 19  1  0
  8 20  1  0
  6 21  1  0
 13 22  1  0
 20 23  1  0
 24 26  2  0
 25 27  1  0
 16 26  1  0
 16 27  2  0
M  END
>  <IDNUMBER>  (562) 
SA92-0276

>  <available>  (562) 
94

>  <H_acceptor>  (562) 
7

>  <H_donor>  (562) 
0

>  <B_rotN>  (562) 
4

>  <N_O>  (562) 
7

>  <logP>  (562) 
2.6564

>  <logD>  (562) 
2.6563

>  <logSw>  (562) 
-2.6472

>  <PSA>  (562) 
68.043

>  <pKa_ma>  (562) 
27.1581

>  <pKa_mb>  (562) 
3.6841

>  <N_Chirals>  (562) 
1

>  <Name>  (562) 
(2,4-dimethyl-1,3-thiazol-5-yl){3-fluoro-3-[3-(pyridin-4-yl)-1,2,4-oxadiazol-5-yl]piperidin-1-yl}methanone

>  <Smile>  (562) 
Cc1c(C(N(CCC2)CC2(c2nc(-c3ccncc3)no2)F)=O)sc(C)n1

>  <Color>  (562) 
YELLOW

>  <Collection>  (562) 
IC

>  <InChI>  (562) 
InChI=1S/C18H18FN5O2S/c1-11-14(27-12(2)21-11)16(25)24-9-3-6-18(19,10-24)17-22-15(23-26-17)13-4-7-20-8-5-13/h4-5,7-8H,3,6,9-10H2,1-2H3/t18-/m0/s1

>  <InChI Key>  (562) 
NAHSYKSBUGHCGJ-SFHVURJKSA-N

>  <PERCENTSP3>  (562) 
38.89

>  <Link>  (562) 
https://www.chemdiv.com/catalog/screening-compounds/compound-SA92-0276/

>  <MFCDNUMBER>  (562) 
MFCD32242459

>  <CLNUMBER>  (562) 
CM4899

>  <STEREO>  (562) 
RACEMIC MIXTURE

>  <State>  (562) 
Liquid

>  <Similarity score>  (562) 
0.18

$$$$
N-(3-cyano-4,5,6,7-tetrahydro-1-benzothiophen-2-yl)-5-(4-ethoxyphenyl)-1,2-oxazo
     RDKit          2D

 29 32  0  0  0  0  0  0  0  0999 V2000
   -2.3362    1.3130    0.0000 C   0  0  0  0  0  0  0  0  0  0  0  0
   -2.9324    2.1215    0.0000 C   0  0  0  0  0  0  0  0  0  0  0  0
    0.1521    0.4210    0.0000 C   0  0  0  0  0  0  0  0  0  0  0  0
   -2.9324    0.4960    0.0000 S   0  0  0  0  0  0  0  0  0  0  0  0
   -3.8702    1.8130    0.0000 C   0  0  0  0  0  0  0  0  0  0  0  0
    0.7440    1.2336    0.0000 N   0  0  0  0  0  0  0  0  0  0  0  0
   -1.3360    1.3006    0.0000 N   0  0  0  0  0  0  0  0  0  0  0  0
    0.7315   -0.3877    0.0000 C   0  0  0  0  0  0  0  0  0  0  0  0
   -3.8824    0.8086    0.0000 C   0  0  0  0  0  0  0  0  0  0  0  0
   -0.8482    0.4334    0.0000 C   0  0  0  0  0  0  0  0  0  0  0  0
    1.6944   -0.0917    0.0000 C   0  0  0  0  0  0  0  0  0  0  0  0
    1.6944    0.9211    0.0000 O   0  0  0  0  0  0  0  0  0  0  0  0
   -2.6113    3.0717    0.0000 C   0  0  0  0  0  0  0  0  0  0  0  0
   -2.3570    4.0305    0.0000 N   0  0  0  0  0  0  0  0  0  0  0  0
    2.5028   -0.6795    0.0000 C   0  0  0  0  0  0  0  0  0  0  0  0
   -1.3567   -0.4294    0.0000 O   0  0  0  0  0  0  0  0  0  0  0  0
    2.3821   -1.6754    0.0000 C   0  0  0  0  0  0  0  0  0  0  0  0
    3.4073   -0.2752    0.0000 C   0  0  0  0  0  0  0  0  0  0  0  0
    4.1076   -1.8673    0.0000 C   0  0  0  0  0  0  0  0  0  0  0  0
   -4.7328    2.3216    0.0000 C   0  0  0  0  0  0  0  0  0  0  0  0
    4.2159   -0.8668    0.0000 C   0  0  0  0  0  0  0  0  0  0  0  0
    3.1823   -2.2675    0.0000 C   0  0  0  0  0  0  0  0  0  0  0  0
   -4.7454    0.3249    0.0000 C   0  0  0  0  0  0  0  0  0  0  0  0
    4.9080   -2.4550    0.0000 O   0  0  0  0  0  0  0  0  0  0  0  0
    4.8078   -3.4511    0.0000 C   0  0  0  0  0  0  0  0  0  0  0  0
   -5.5999    1.8339    0.0000 C   0  0  0  0  0  0  0  0  0  0  0  0
   -5.6082    0.8335    0.0000 C   0  0  0  0  0  0  0  0  0  0  0  0
    5.6082   -4.0305    0.0000 C   0  0  0  0  0  0  0  0  0  0  0  0
   -0.8358    2.1714    0.0000 H   0  0  0  0  0  0  0  0  0  0  0  0
  1  2  2  0
  3 10  1  0
  1  4  1  0
  2  5  1  0
  3  6  2  0
  1  7  1  0
  3  8  1  0
  4  9  1  0
  5  9  2  0
  7 10  1  0
  8 11  2  0
 11 12  1  0
  6 12  1  0
  2 13  1  0
 13 14  3  0
 11 15  1  0
 10 16  2  0
 15 17  2  0
 15 18  1  0
 19 21  1  0
  5 20  1  0
 18 21  2  0
 17 22  1  0
 19 22  2  0
  9 23  1  0
 19 24  1  0
 24 25  1  0
 20 26  1  0
 23 27  1  0
 26 27  1  0
 25 28  1  0
  7 29  1  0
M  END
>  <IDNUMBER>  (563) 
D337-2045

>  <available>  (563) 
105

>  <H_acceptor>  (563) 
6

>  <H_donor>  (563) 
1

>  <B_rotN>  (563) 
7

>  <N_O>  (563) 
6

>  <logP>  (563) 
4.8571

>  <logD>  (563) 
3.566

>  <logSw>  (563) 
-4.6468

>  <PSA>  (563) 
68.76

>  <pKa_ma>  (563) 
6.1318

>  <pKa_mb>  (563) 
-6.8683

>  <N_Chirals>  (563) 
0

>  <Name>  (563) 
N-(3-cyano-4,5,6,7-tetrahydro-1-benzothiophen-2-yl)-5-(4-ethoxyphenyl)-1,2-oxazole-3-carboxamide

>  <Smile>  (563) 
CCOc(cc1)ccc1-c1cc(C(Nc(sc2c3CCCC2)c3C#N)=O)no1

>  <Color>  (563) 
PINK

>  <Collection>  (563) 
DC

>  <InChI>  (563) 
InChI=1S/C21H19N3O3S/c1-2-26-14-9-7-13(8-10-14)18-11-17(24-27-18)20(25)23-21-16(12-22)15-5-3-4-6-19(15)28-21/h7-11H,2-6H2,1H3,(H,23,25)

>  <InChI Key>  (563) 
PDTQUPSCHCJBNB-UHFFFAOYSA-N

>  <PERCENTSP3>  (563) 
28.6

>  <Link>  (563) 
https://www.chemdiv.com/catalog/screening-compounds/compound-D337-2045/

>  <MFCDNUMBER>  (563) 
MFCD12918360

>  <CLNUMBER>  (563) 
CL2028

>  <STEREO>  (563) 
ACHIRAL

>  <State>  (563) 
Solid

>  <Similarity score>  (563) 
0.18

$$$$
3-(5-{3-fluoro-1-[(4-methyl-1,3-thiazol-5-yl)methyl]piperidin-3-yl}-1,2,4-oxadia
     RDKit          2D

 25 28  0  0  0  0  0  0  0  0999 V2000
    0.1166   -0.7186    0.0000 N   0  0  0  0  0  0  0  0  0  0  0  0
    0.7831   -1.4643    0.0000 C   0  0  0  0  0  0  0  0  0  0  0  0
   -0.7957   -1.1268    0.0000 C   0  0  0  0  0  0  0  0  0  0  0  0
    1.7789   -1.3559    0.0000 C   0  0  0  0  0  0  0  0  0  0  0  0
   -0.6916   -2.1183    0.0000 N   0  0  0  0  0  0  0  0  0  0  0  0
    0.7040    1.4436    0.0000 C   0  0  0  0  0  0  0  0  0  0  0  0
    0.2833   -2.3308    0.0000 O   0  0  0  0  0  0  0  0  0  0  0  0
   -0.8915    1.1852    0.0000 N   0  0  0  0  0  0  0  0  0  0  0  0
   -0.0041    0.7312    0.0000 C   0  0  0  0  0  0  0  0  0  0  0  0
    2.0455    0.3562    0.0000 N   0  0  0  0  0  0  0  0  0  0  0  0
   -1.6663   -0.6269    0.0000 C   0  0  0  0  0  0  0  0  0  0  0  0
    0.2541    2.3308    0.0000 S   0  0  0  0  0  0  0  0  0  0  0  0
   -0.7332    2.1727    0.0000 C   0  0  0  0  0  0  0  0  0  0  0  0
    1.4206   -0.4269    0.0000 C   0  0  0  0  0  0  0  0  0  0  0  0
    1.6956    1.2853    0.0000 C   0  0  0  0  0  0  0  0  0  0  0  0
   -3.3953   -0.6269    0.0000 N   0  0  0  0  0  0  0  0  0  0  0  0
    2.2580   -2.2392    0.0000 F   0  0  0  0  0  0  0  0  0  0  0  0
    2.7703   -1.5185    0.0000 C   0  0  0  0  0  0  0  0  0  0  0  0
   -2.5287   -1.1268    0.0000 C   0  0  0  0  0  0  0  0  0  0  0  0
    3.0411    0.1938    0.0000 C   0  0  0  0  0  0  0  0  0  0  0  0
   -1.6663    0.3730    0.0000 C   0  0  0  0  0  0  0  0  0  0  0  0
    0.1541   -0.2561    0.0000 C   0  0  0  0  0  0  0  0  0  0  0  0
    3.3953   -0.7394    0.0000 C   0  0  0  0  0  0  0  0  0  0  0  0
   -3.3953    0.3730    0.0000 C   0  0  0  0  0  0  0  0  0  0  0  0
   -2.5287    0.8728    0.0000 C   0  0  0  0  0  0  0  0  0  0  0  0
  1  2  2  0
  1  3  1  0
  2  4  1  0
  3  5  2  0
  5  7  1  0
  6 15  1  0
  2  7  1  0
  8  9  1  0
  8 13  2  0
  6  9  2  0
 10 14  1  0
 10 20  1  0
  3 11  1  0
  6 12  1  0
 12 13  1  0
  4 14  1  0
 10 15  1  0
 16 19  2  0
 16 24  1  0
  4 17  1  0
  4 18  1  0
 11 19  1  0
 20 23  1  0
 11 21  2  0
  9 22  1  0
 18 23  1  0
 24 25  2  0
 21 25  1  0
M  END
>  <IDNUMBER>  (564) 
SA92-0562

>  <available>  (564) 
50

>  <H_acceptor>  (564) 
6

>  <H_donor>  (564) 
0

>  <B_rotN>  (564) 
4

>  <N_O>  (564) 
6

>  <logP>  (564) 
2.2318

>  <logD>  (564) 
1.5931

>  <logSw>  (564) 
-1.9678

>  <PSA>  (564) 
55.033

>  <pKa_ma>  (564) 
26.9519

>  <pKa_mb>  (564) 
7.9253

>  <N_Chirals>  (564) 
1

>  <Name>  (564) 
3-(5-{3-fluoro-1-[(4-methyl-1,3-thiazol-5-yl)methyl]piperidin-3-yl}-1,2,4-oxadiazol-3-yl)pyridine

>  <Smile>  (564) 
Cc1c(CN(CCC2)CC2(c2nc(-c3cnccc3)no2)F)scn1

>  <Color>  (564) 
ORANGE

>  <Collection>  (564) 
IC

>  <InChI>  (564) 
InChI=1S/C17H18FN5OS/c1-12-14(25-11-20-12)9-23-7-3-5-17(18,10-23)16-21-15(22-24-16)13-4-2-6-19-8-13/h2,4,6,8,11H,3,5,7,9-10H2,1H3/t17-/m0/s1

>  <InChI Key>  (564) 
WRHGERSUHPDIMB-KRWDZBQOSA-N

>  <PERCENTSP3>  (564) 
41.18

>  <Link>  (564) 
https://www.chemdiv.com/catalog/screening-compounds/compound-SA92-0562/

>  <MFCDNUMBER>  (564) 
MFCD32242596

>  <CLNUMBER>  (564) 
CM4899

>  <STEREO>  (564) 
RACEMIC MIXTURE

>  <State>  (564) 
Liquid

>  <Similarity score>  (564) 
0.18

$$$$
2-[5-(3-methoxyphenyl)-1H-1,2,4-triazol-1-yl]-5,6,7,8-tetrahydro-4H-cyclohepta[b
     RDKit          2D

 25 28  0  0  0  0  0  0  0  0999 V2000
    1.2014    0.4445    0.0000 C   0  0  0  0  0  0  0  0  0  0  0  0
    0.6587    1.2693    0.0000 N   0  0  0  0  0  0  0  0  0  0  0  0
    2.1868    0.4445    0.0000 C   0  0  0  0  0  0  0  0  0  0  0  0
    0.8479   -0.5159    0.0000 S   0  0  0  0  0  0  0  0  0  0  0  0
   -0.3088    1.2693    0.0000 C   0  0  0  0  0  0  0  0  0  0  0  0
    2.4866   -0.5623    0.0000 C   0  0  0  0  0  0  0  0  0  0  0  0
    1.6762   -1.0978    0.0000 C   0  0  0  0  0  0  0  0  0  0  0  0
   -0.6267    2.2118    0.0000 N   0  0  0  0  0  0  0  0  0  0  0  0
    0.9908    2.2369    0.0000 N   0  0  0  0  0  0  0  0  0  0  0  0
    2.7330    1.2585    0.0000 C   0  0  0  0  0  0  0  0  0  0  0  0
   -0.8730    0.4552    0.0000 C   0  0  0  0  0  0  0  0  0  0  0  0
    0.1731    2.8007    0.0000 C   0  0  0  0  0  0  0  0  0  0  0  0
    3.2828    2.0726    0.0000 N   0  0  0  0  0  0  0  0  0  0  0  0
   -1.8691    0.5231    0.0000 C   0  0  0  0  0  0  0  0  0  0  0  0
   -2.4367   -0.2874    0.0000 C   0  0  0  0  0  0  0  0  0  0  0  0
    3.4543   -0.8586    0.0000 C   0  0  0  0  0  0  0  0  0  0  0  0
    1.5584   -2.1047    0.0000 C   0  0  0  0  0  0  0  0  0  0  0  0
   -0.4660   -0.4445    0.0000 C   0  0  0  0  0  0  0  0  0  0  0  0
   -3.4257   -0.1982    0.0000 O   0  0  0  0  0  0  0  0  0  0  0  0
   -1.0228   -1.2692    0.0000 C   0  0  0  0  0  0  0  0  0  0  0  0
   -2.0119   -1.2013    0.0000 C   0  0  0  0  0  0  0  0  0  0  0  0
   -3.8291    0.7016    0.0000 C   0  0  0  0  0  0  0  0  0  0  0  0
    3.8291   -1.8262    0.0000 C   0  0  0  0  0  0  0  0  0  0  0  0
    2.2760   -2.8007    0.0000 C   0  0  0  0  0  0  0  0  0  0  0  0
    3.2900   -2.6830    0.0000 C   0  0  0  0  0  0  0  0  0  0  0  0
  1  2  1  0
  1  3  2  0
  1  4  1  0
  2  5  1  0
  3  6  1  0
  4  7  1  0
  6  7  2  0
  5  8  2  0
  8 12  1  0
  2  9  1  0
  3 10  1  0
  5 11  1  0
  9 12  2  0
 10 13  3  0
 11 14  2  0
 14 15  1  0
  6 16  1  0
  7 17  1  0
 11 18  1  0
 15 19  1  0
 18 20  2  0
 20 21  1  0
 15 21  2  0
 19 22  1  0
 16 23  1  0
 23 25  1  0
 17 24  1  0
 24 25  1  0
M  END
>  <IDNUMBER>  (565) 
4073-0156

>  <available>  (565) 
211

>  <H_acceptor>  (565) 
4

>  <H_donor>  (565) 
0

>  <B_rotN>  (565) 
4

>  <N_O>  (565) 
5

>  <logP>  (565) 
4.887

>  <logD>  (565) 
4.8866

>  <logSw>  (565) 
-4.764

>  <PSA>  (565) 
50.751

>  <pKa_ma>  (565) 
25.4916

>  <pKa_mb>  (565) 
4.2819

>  <N_Chirals>  (565) 
0

>  <Name>  (565) 
2-[5-(3-methoxyphenyl)-1H-1,2,4-triazol-1-yl]-5,6,7,8-tetrahydro-4H-cyclohepta[b]thiophene-3-carbonitrile

>  <Smile>  (565) 
COc1cccc(-c2ncnn2-c(sc2c3CCCCC2)c3C#N)c1

>  <Color>  (565) 
YELLOW

>  <Collection>  (565) 
DC

>  <InChI>  (565) 
InChI=1S/C19H18N4OS/c1-24-14-7-5-6-13(10-14)18-21-12-22-23(18)19-16(11-20)15-8-3-2-4-9-17(15)25-19/h5-7,10,12H,2-4,8-9H2,1H3

>  <InChI Key>  (565) 
LHTGLUNBOKASMN-UHFFFAOYSA-N

>  <PERCENTSP3>  (565) 
31.6

>  <Link>  (565) 
https://www.chemdiv.com/catalog/screening-compounds/compound-4073-0156/

>  <MFCDNUMBER>  (565) 
MFCD01655066

>  <STEREO>  (565) 
ACHIRAL

>  <State>  (565) 
Solid

>  <Similarity score>  (565) 
0.18

$$$$
1-[3-fluoro-3-(3-phenyl-1,2,4-oxadiazol-5-yl)piperidin-1-yl]-2-(3-methoxyphenyl)
     RDKit          2D

 29 32  0  0  0  0  0  0  0  0999 V2000
    0.6377    0.9402    0.0000 N   0  0  0  0  0  0  0  0  0  0  0  0
   -0.3494    1.0969    0.0000 C   0  0  0  0  0  0  0  0  0  0  0  0
   -1.0545    0.3917    0.0000 C   0  0  0  0  0  0  0  0  0  0  0  0
    1.0954    1.8332    0.0000 C   0  0  0  0  0  0  0  0  0  0  0  0
    0.3902    2.5447    0.0000 N   0  0  0  0  0  0  0  0  0  0  0  0
   -2.5589   -0.4795    0.0000 N   0  0  0  0  0  0  0  0  0  0  0  0
   -0.5031    2.0873    0.0000 O   0  0  0  0  0  0  0  0  0  0  0  0
   -3.0604   -1.3383    0.0000 C   0  0  0  0  0  0  0  0  0  0  0  0
   -1.5622   -0.4795    0.0000 C   0  0  0  0  0  0  0  0  0  0  0  0
   -2.5589   -2.2032    0.0000 C   0  0  0  0  0  0  0  0  0  0  0  0
    2.0764    1.9899    0.0000 C   0  0  0  0  0  0  0  0  0  0  0  0
   -4.0569   -1.3383    0.0000 O   0  0  0  0  0  0  0  0  0  0  0  0
   -0.6785   -0.5360    0.0000 F   0  0  0  0  0  0  0  0  0  0  0  0
   -1.5622   -2.2032    0.0000 C   0  0  0  0  0  0  0  0  0  0  0  0
   -1.5622    1.2566    0.0000 C   0  0  0  0  0  0  0  0  0  0  0  0
   -1.0545   -1.3383    0.0000 C   0  0  0  0  0  0  0  0  0  0  0  0
   -3.0604    0.3917    0.0000 C   0  0  0  0  0  0  0  0  0  0  0  0
   -0.0581   -1.3383    0.0000 C   0  0  0  0  0  0  0  0  0  0  0  0
    0.4465   -0.4795    0.0000 O   0  0  0  0  0  0  0  0  0  0  0  0
   -2.5589    1.2566    0.0000 C   0  0  0  0  0  0  0  0  0  0  0  0
   -0.0581   -3.0742    0.0000 C   0  0  0  0  0  0  0  0  0  0  0  0
   -1.0545   -3.0742    0.0000 C   0  0  0  0  0  0  0  0  0  0  0  0
    2.7062    1.2097    0.0000 C   0  0  0  0  0  0  0  0  0  0  0  0
    2.4430    2.9207    0.0000 C   0  0  0  0  0  0  0  0  0  0  0  0
    0.4465   -2.2032    0.0000 C   0  0  0  0  0  0  0  0  0  0  0  0
    1.4432   -0.4795    0.0000 C   0  0  0  0  0  0  0  0  0  0  0  0
    3.4207    3.0742    0.0000 C   0  0  0  0  0  0  0  0  0  0  0  0
    3.6996    1.3728    0.0000 C   0  0  0  0  0  0  0  0  0  0  0  0
    4.0569    2.3033    0.0000 C   0  0  0  0  0  0  0  0  0  0  0  0
  1  2  2  0
  2  3  1  0
  1  4  1  0
  4  5  2  0
  5  7  1  0
  6  9  1  0
  2  7  1  0
  6  8  1  0
  3  9  1  0
  8 10  1  0
  4 11  1  0
  8 12  2  0
  3 13  1  0
 10 14  1  0
  3 15  1  0
 14 16  2  0
 17 20  1  0
  6 17  1  0
 16 18  1  0
 18 19  1  0
 15 20  1  0
 21 22  2  0
 14 22  1  0
 11 23  1  0
 11 24  2  0
 21 25  1  0
 18 25  2  0
 19 26  1  0
 24 27  1  0
 23 28  2  0
 27 29  2  0
 28 29  1  0
M  END
>  <IDNUMBER>  (566) 
SA92-0017

>  <available>  (566) 
42

>  <H_acceptor>  (566) 
6

>  <H_donor>  (566) 
0

>  <B_rotN>  (566) 
6

>  <N_O>  (566) 
6

>  <logP>  (566) 
4.2446

>  <logD>  (566) 
4.2446

>  <logSw>  (566) 
-4.4451

>  <PSA>  (566) 
55.242

>  <pKa_ma>  (566) 
17.9425

>  <pKa_mb>  (566) 
-2.0756

>  <N_Chirals>  (566) 
1

>  <Name>  (566) 
1-[3-fluoro-3-(3-phenyl-1,2,4-oxadiazol-5-yl)piperidin-1-yl]-2-(3-methoxyphenyl)ethan-1-one

>  <Smile>  (566) 
COc1cccc(CC(N(CCC2)CC2(c2nc(-c3ccccc3)no2)F)=O)c1

>  <Color>  (566) 
NOT COLORED

>  <Collection>  (566) 
IC

>  <InChI>  (566) 
InChI=1S/C22H22FN3O3/c1-28-18-10-5-7-16(13-18)14-19(27)26-12-6-11-22(23,15-26)21-24-20(25-29-21)17-8-3-2-4-9-17/h2-5,7-10,13H,6,11-12,14-15H2,1H3/t22-/m0/s1

>  <InChI Key>  (566) 
CBJSDRLBPLYNSB-QFIPXVFZSA-N

>  <PERCENTSP3>  (566) 
31.82

>  <Link>  (566) 
https://www.chemdiv.com/catalog/screening-compounds/compound-SA92-0017/

>  <MFCDNUMBER>  (566) 
MFCD32241438

>  <CLNUMBER>  (566) 
CM4899

>  <STEREO>  (566) 
RACEMIC MIXTURE

>  <State>  (566) 
Liquid

>  <Similarity score>  (566) 
0.18

$$$$
2-(4-fluorophenoxy)-1-{3-fluoro-3-[3-(pyridin-4-yl)-1,2,4-oxadiazol-5-yl]piperid
     RDKit          2D

 29 32  0  0  0  0  0  0  0  0999 V2000
   -0.6440    2.6712    0.0000 N   0  0  0  0  0  0  0  0  0  0  0  0
    0.3461    2.8277    0.0000 C   0  0  0  0  0  0  0  0  0  0  0  0
    1.0575    2.1166    0.0000 C   0  0  0  0  0  0  0  0  0  0  0  0
   -1.1014    3.5610    0.0000 C   0  0  0  0  0  0  0  0  0  0  0  0
   -0.3869    4.2692    0.0000 N   0  0  0  0  0  0  0  0  0  0  0  0
    2.5552    1.2487    0.0000 N   0  0  0  0  0  0  0  0  0  0  0  0
    0.4966    3.8178    0.0000 O   0  0  0  0  0  0  0  0  0  0  0  0
    3.0534    0.3838    0.0000 C   0  0  0  0  0  0  0  0  0  0  0  0
    1.5557    1.2487    0.0000 C   0  0  0  0  0  0  0  0  0  0  0  0
   -2.0885    3.7208    0.0000 C   0  0  0  0  0  0  0  0  0  0  0  0
    2.5552   -0.4811    0.0000 C   0  0  0  0  0  0  0  0  0  0  0  0
    4.0561    0.3838    0.0000 O   0  0  0  0  0  0  0  0  0  0  0  0
    0.6719    1.1922    0.0000 F   0  0  0  0  0  0  0  0  0  0  0  0
   -4.0561    4.0310    0.0000 N   0  0  0  0  0  0  0  0  0  0  0  0
    3.0534   -1.3457    0.0000 O   0  0  0  0  0  0  0  0  0  0  0  0
    1.5557    2.9908    0.0000 C   0  0  0  0  0  0  0  0  0  0  0  0
    2.5552   -2.2106    0.0000 C   0  0  0  0  0  0  0  0  0  0  0  0
    1.5557   -3.9400    0.0000 C   0  0  0  0  0  0  0  0  0  0  0  0
    3.0534    2.1166    0.0000 C   0  0  0  0  0  0  0  0  0  0  0  0
    1.0575   -4.8049    0.0000 F   0  0  0  0  0  0  0  0  0  0  0  0
    1.5557   -2.2106    0.0000 C   0  0  0  0  0  0  0  0  0  0  0  0
    3.0534   -3.0754    0.0000 C   0  0  0  0  0  0  0  0  0  0  0  0
    1.0575   -3.0754    0.0000 C   0  0  0  0  0  0  0  0  0  0  0  0
    2.5552   -3.9400    0.0000 C   0  0  0  0  0  0  0  0  0  0  0  0
    2.5552    2.9908    0.0000 C   0  0  0  0  0  0  0  0  0  0  0  0
   -3.7050    3.0941    0.0000 C   0  0  0  0  0  0  0  0  0  0  0  0
   -3.4327    4.8049    0.0000 C   0  0  0  0  0  0  0  0  0  0  0  0
   -2.7119    2.9406    0.0000 C   0  0  0  0  0  0  0  0  0  0  0  0
   -2.4456    4.6515    0.0000 C   0  0  0  0  0  0  0  0  0  0  0  0
  1  2  2  0
  2  3  1  0
  1  4  1  0
  4  5  2  0
  5  7  1  0
  6  9  1  0
  2  7  1  0
  6  8  1  0
  3  9  1  0
  4 10  1  0
  8 11  1  0
  8 12  2  0
  3 13  1  0
 14 27  2  0
 14 26  1  0
 11 15  1  0
  3 16  1  0
 15 17  1  0
 18 24  2  0
 19 25  1  0
  6 19  1  0
 18 20  1  0
 17 21  1  0
 17 22  2  0
 21 23  2  0
 18 23  1  0
 22 24  1  0
 16 25  1  0
 26 28  2  0
 27 29  1  0
 10 28  1  0
 10 29  2  0
M  END
>  <IDNUMBER>  (567) 
SA92-0185

>  <available>  (567) 
66

>  <H_acceptor>  (567) 
7

>  <H_donor>  (567) 
0

>  <B_rotN>  (567) 
6

>  <N_O>  (567) 
7

>  <logP>  (567) 
2.5306

>  <logD>  (567) 
2.5305

>  <logSw>  (567) 
-2.2676

>  <PSA>  (567) 
64.626

>  <pKa_ma>  (567) 
24.578

>  <pKa_mb>  (567) 
3.6841

>  <N_Chirals>  (567) 
1

>  <Name>  (567) 
2-(4-fluorophenoxy)-1-{3-fluoro-3-[3-(pyridin-4-yl)-1,2,4-oxadiazol-5-yl]piperidin-1-yl}ethan-1-one

>  <Smile>  (567) 
O=C(COc(cc1)ccc1F)N(CCC1)CC1(c1nc(-c2ccncc2)no1)F

>  <Color>  (567) 
YELLOW

>  <Collection>  (567) 
IC

>  <InChI>  (567) 
InChI=1S/C20H18F2N4O3/c21-15-2-4-16(5-3-15)28-12-17(27)26-11-1-8-20(22,13-26)19-24-18(25-29-19)14-6-9-23-10-7-14/h2-7,9-10H,1,8,11-13H2/t20-/m0/s1

>  <InChI Key>  (567) 
MCTLZMYUMMNKOQ-FQEVSTJZSA-N

>  <PERCENTSP3>  (567) 
30

>  <Link>  (567) 
https://www.chemdiv.com/catalog/screening-compounds/compound-SA92-0185/

>  <MFCDNUMBER>  (567) 
MFCD32241568

>  <CLNUMBER>  (567) 
CM4899

>  <STEREO>  (567) 
RACEMIC MIXTURE

>  <State>  (567) 
Liquid

>  <Similarity score>  (567) 
0.18

$$$$
2-{[4-cyclopropyl-6-(trifluoromethyl)pyrimidin-2-yl]amino}-4,5,6,7-tetrahydro-1-
     RDKit          2D

 25 28  0  0  0  0  0  0  0  0999 V2000
    0.9918    1.7105    0.0000 C   0  0  0  0  0  0  0  0  0  0  0  0
    1.3543    0.7688    0.0000 C   0  0  0  0  0  0  0  0  0  0  0  0
   -0.6792    1.2606    0.0000 C   0  0  0  0  0  0  0  0  0  0  0  0
    1.7668    2.3438    0.0000 S   0  0  0  0  0  0  0  0  0  0  0  0
    0.0292    1.9688    0.0000 N   0  0  0  0  0  0  0  0  0  0  0  0
    2.3459    0.8313    0.0000 C   0  0  0  0  0  0  0  0  0  0  0  0
    2.6210    1.7939    0.0000 C   0  0  0  0  0  0  0  0  0  0  0  0
   -1.6418    1.5188    0.0000 N   0  0  0  0  0  0  0  0  0  0  0  0
   -0.4167    0.2938    0.0000 N   0  0  0  0  0  0  0  0  0  0  0  0
   -3.3168    1.0687    0.0000 C   0  0  0  0  0  0  0  0  0  0  0  0
   -2.3542    0.8104    0.0000 C   0  0  0  0  0  0  0  0  0  0  0  0
   -1.1209   -0.4146    0.0000 C   0  0  0  0  0  0  0  0  0  0  0  0
    0.8334   -0.0688    0.0000 C   0  0  0  0  0  0  0  0  0  0  0  0
   -2.0917   -0.1563    0.0000 C   0  0  0  0  0  0  0  0  0  0  0  0
   -0.8666   -1.3772    0.0000 C   0  0  0  0  0  0  0  0  0  0  0  0
    0.3209   -0.9064    0.0000 N   0  0  0  0  0  0  0  0  0  0  0  0
   -0.1541   -2.0813    0.0000 C   0  0  0  0  0  0  0  0  0  0  0  0
   -1.1209   -2.3438    0.0000 C   0  0  0  0  0  0  0  0  0  0  0  0
   -3.5793    0.0979    0.0000 F   0  0  0  0  0  0  0  0  0  0  0  0
   -3.0584    2.0355    0.0000 F   0  0  0  0  0  0  0  0  0  0  0  0
   -4.2835    1.3229    0.0000 F   0  0  0  0  0  0  0  0  0  0  0  0
    3.0335    0.1229    0.0000 C   0  0  0  0  0  0  0  0  0  0  0  0
    3.5836    2.0564    0.0000 C   0  0  0  0  0  0  0  0  0  0  0  0
    4.0169    0.3687    0.0000 C   0  0  0  0  0  0  0  0  0  0  0  0
    4.2835    1.3229    0.0000 C   0  0  0  0  0  0  0  0  0  0  0  0
  1  2  2  0
  3  5  1  0
  1  4  1  0
  1  5  1  0
  2  6  1  0
  4  7  1  0
  6  7  2  0
  3  8  1  0
  3  9  2  0
 10 11  1  0
  8 11  2  0
 11 14  1  0
  9 12  1  0
  2 13  1  0
 12 14  2  0
 12 15  1  0
 13 16  3  0
 15 17  1  0
 15 18  1  0
 17 18  1  0
 10 19  1  0
 10 20  1  0
 10 21  1  0
  6 22  1  0
  7 23  1  0
 22 24  1  0
 23 25  1  0
 24 25  1  0
M  END
>  <IDNUMBER>  (568) 
Y505-0618

>  <available>  (568) 
7

>  <H_acceptor>  (568) 
3

>  <H_donor>  (568) 
1

>  <B_rotN>  (568) 
5

>  <N_O>  (568) 
4

>  <logP>  (568) 
5.4561

>  <logD>  (568) 
5.4505

>  <logSw>  (568) 
-5.8786

>  <PSA>  (568) 
45.879

>  <pKa_ma>  (568) 
10.0838

>  <pKa_mb>  (568) 
5.4407

>  <N_Chirals>  (568) 
0

>  <Name>  (568) 
2-{[4-cyclopropyl-6-(trifluoromethyl)pyrimidin-2-yl]amino}-4,5,6,7-tetrahydro-1-benzothiophene-3-carbonitrile

>  <Smile>  (568) 
N#Cc1c(Nc2nc(C(F)(F)F)cc(C3CC3)n2)sc2c1CCCC2

>  <Color>  (568) 
BROWN

>  <Collection>  (568) 
DC

>  <InChI>  (568) 
InChI=1S/C17H15F3N4S/c18-17(19,20)14-7-12(9-5-6-9)22-16(23-14)24-15-11(8-21)10-3-1-2-4-13(10)25-15/h7,9H,1-6H2,(H,22,23,24)

>  <InChI Key>  (568) 
SYAIKRODGWFSBG-UHFFFAOYSA-N

>  <PERCENTSP3>  (568) 
47.1

>  <Link>  (568) 
https://www.chemdiv.com/catalog/screening-compounds/compound-Y505-0618/

>  <MFCDNUMBER>  (568) 
MFCD09468503

>  <STEREO>  (568) 
ACHIRAL

>  <State>  (568) 
Solid

>  <Similarity score>  (568) 
0.18

$$$$
3-fluoro-1-[(4-methyl-1,3-thiazol-5-yl)methyl]-3-(3-phenyl-1,2,4-oxadiazol-5-yl)
     RDKit          2D

 25 28  0  0  0  0  0  0  0  0999 V2000
    0.5848    1.2993    0.0000 N   0  0  0  0  0  0  0  0  0  0  0  0
   -0.4061    1.4500    0.0000 C   0  0  0  0  0  0  0  0  0  0  0  0
    1.0329    2.1897    0.0000 C   0  0  0  0  0  0  0  0  0  0  0  0
   -1.1113    0.7507    0.0000 C   0  0  0  0  0  0  0  0  0  0  0  0
    0.3306    2.8982    0.0000 N   0  0  0  0  0  0  0  0  0  0  0  0
   -2.6160   -1.8543    0.0000 C   0  0  0  0  0  0  0  0  0  0  0  0
   -0.5628    2.4436    0.0000 O   0  0  0  0  0  0  0  0  0  0  0  0
   -2.2836   -3.4342    0.0000 N   0  0  0  0  0  0  0  0  0  0  0  0
   -3.0266   -2.7665    0.0000 C   0  0  0  0  0  0  0  0  0  0  0  0
   -2.6160   -0.1145    0.0000 N   0  0  0  0  0  0  0  0  0  0  0  0
   -1.6159   -1.9578    0.0000 S   0  0  0  0  0  0  0  0  0  0  0  0
   -1.4092   -2.9359    0.0000 C   0  0  0  0  0  0  0  0  0  0  0  0
   -1.6159   -0.1145    0.0000 C   0  0  0  0  0  0  0  0  0  0  0  0
   -3.1113   -0.9891    0.0000 C   0  0  0  0  0  0  0  0  0  0  0  0
    2.0235    2.3496    0.0000 C   0  0  0  0  0  0  0  0  0  0  0  0
   -0.7257   -0.1802    0.0000 F   0  0  0  0  0  0  0  0  0  0  0  0
   -1.6159    1.6096    0.0000 C   0  0  0  0  0  0  0  0  0  0  0  0
   -3.1113    0.7507    0.0000 C   0  0  0  0  0  0  0  0  0  0  0  0
   -3.9985   -2.9734    0.0000 C   0  0  0  0  0  0  0  0  0  0  0  0
   -2.6160    1.6096    0.0000 C   0  0  0  0  0  0  0  0  0  0  0  0
    2.6538    1.5627    0.0000 C   0  0  0  0  0  0  0  0  0  0  0  0
    2.3871    3.2743    0.0000 C   0  0  0  0  0  0  0  0  0  0  0  0
    3.3685    3.4342    0.0000 C   0  0  0  0  0  0  0  0  0  0  0  0
    3.6411    1.7226    0.0000 C   0  0  0  0  0  0  0  0  0  0  0  0
    3.9985    2.6600    0.0000 C   0  0  0  0  0  0  0  0  0  0  0  0
  1  2  2  0
  1  3  1  0
  2  4  1  0
  3  5  2  0
  5  7  1  0
  6 14  1  0
  2  7  1  0
  8  9  1  0
  6  9  2  0
 10 13  1  0
  6 11  1  0
 11 12  1  0
  8 12  2  0
  4 13  1  0
 10 14  1  0
  3 15  1  0
  4 16  1  0
  4 17  1  0
 18 20  1  0
 10 18  1  0
  9 19  1  0
 17 20  1  0
 15 21  1  0
 15 22  2  0
 22 23  1  0
 21 24  2  0
 23 25  2  0
 24 25  1  0
M  END
>  <IDNUMBER>  (569) 
SA92-0037

>  <available>  (569) 
21

>  <H_acceptor>  (569) 
5

>  <H_donor>  (569) 
0

>  <B_rotN>  (569) 
4

>  <N_O>  (569) 
5

>  <logP>  (569) 
3.6073

>  <logD>  (569) 
3.5395

>  <logSw>  (569) 
-3.6752

>  <PSA>  (569) 
45.515

>  <pKa_ma>  (569) 
26.9519

>  <pKa_mb>  (569) 
6.6276

>  <N_Chirals>  (569) 
1

>  <Name>  (569) 
3-fluoro-1-[(4-methyl-1,3-thiazol-5-yl)methyl]-3-(3-phenyl-1,2,4-oxadiazol-5-yl)piperidine

>  <Smile>  (569) 
Cc1c(CN(CCC2)CC2(c2nc(-c3ccccc3)no2)F)scn1

>  <Color>  (569) 
YELLOW

>  <Collection>  (569) 
IC

>  <InChI>  (569) 
InChI=1S/C18H19FN4OS/c1-13-15(25-12-20-13)10-23-9-5-8-18(19,11-23)17-21-16(22-24-17)14-6-3-2-4-7-14/h2-4,6-7,12H,5,8-11H2,1H3/t18-/m0/s1

>  <InChI Key>  (569) 
BAXQFWGIZUVHMO-SFHVURJKSA-N

>  <PERCENTSP3>  (569) 
38.89

>  <Link>  (569) 
https://www.chemdiv.com/catalog/screening-compounds/compound-SA92-0037/

>  <MFCDNUMBER>  (569) 
MFCD32241692

>  <CLNUMBER>  (569) 
CM4899

>  <STEREO>  (569) 
RACEMIC MIXTURE

>  <State>  (569) 
Liquid

>  <Similarity score>  (569) 
0.18

$$$$
2-(4-fluorophenyl)-1-{3-fluoro-3-[3-(pyridin-4-yl)-1,2,4-oxadiazol-5-yl]piperidi
     RDKit          2D

 28 31  0  0  0  0  0  0  0  0999 V2000
   -0.6407    0.9459    0.0000 N   0  0  0  0  0  0  0  0  0  0  0  0
    0.3462    1.0964    0.0000 C   0  0  0  0  0  0  0  0  0  0  0  0
    1.0511    0.3916    0.0000 C   0  0  0  0  0  0  0  0  0  0  0  0
   -1.0949    1.8324    0.0000 C   0  0  0  0  0  0  0  0  0  0  0  0
   -0.3901    2.5436    0.0000 N   0  0  0  0  0  0  0  0  0  0  0  0
    2.5548   -0.4793    0.0000 N   0  0  0  0  0  0  0  0  0  0  0  0
    0.5028    2.0864    0.0000 O   0  0  0  0  0  0  0  0  0  0  0  0
    3.0528   -1.3377    0.0000 C   0  0  0  0  0  0  0  0  0  0  0  0
    1.5554   -0.4793    0.0000 C   0  0  0  0  0  0  0  0  0  0  0  0
    2.5548   -2.2022    0.0000 C   0  0  0  0  0  0  0  0  0  0  0  0
   -2.0785    1.9891    0.0000 C   0  0  0  0  0  0  0  0  0  0  0  0
    4.0552   -1.3377    0.0000 O   0  0  0  0  0  0  0  0  0  0  0  0
    0.6719   -0.5358    0.0000 F   0  0  0  0  0  0  0  0  0  0  0  0
   -4.0552    2.3087    0.0000 N   0  0  0  0  0  0  0  0  0  0  0  0
    1.5554   -2.2022    0.0000 C   0  0  0  0  0  0  0  0  0  0  0  0
    1.5554    1.2594    0.0000 C   0  0  0  0  0  0  0  0  0  0  0  0
   -0.4463   -2.2022    0.0000 C   0  0  0  0  0  0  0  0  0  0  0  0
    3.0528    0.3916    0.0000 C   0  0  0  0  0  0  0  0  0  0  0  0
   -1.4487   -2.2022    0.0000 F   0  0  0  0  0  0  0  0  0  0  0  0
    1.0511   -1.3377    0.0000 C   0  0  0  0  0  0  0  0  0  0  0  0
    1.0511   -3.0731    0.0000 C   0  0  0  0  0  0  0  0  0  0  0  0
    0.0547   -1.3377    0.0000 C   0  0  0  0  0  0  0  0  0  0  0  0
    0.0547   -3.0731    0.0000 C   0  0  0  0  0  0  0  0  0  0  0  0
    2.5548    1.2594    0.0000 C   0  0  0  0  0  0  0  0  0  0  0  0
   -3.4256    3.0731    0.0000 C   0  0  0  0  0  0  0  0  0  0  0  0
   -3.7044    1.3722    0.0000 C   0  0  0  0  0  0  0  0  0  0  0  0
   -2.4450    2.9195    0.0000 C   0  0  0  0  0  0  0  0  0  0  0  0
   -2.7114    1.2092    0.0000 C   0  0  0  0  0  0  0  0  0  0  0  0
  1  2  2  0
  2  3  1  0
  1  4  1  0
  4  5  2  0
  5  7  1  0
  6  9  1  0
  2  7  1  0
  6  8  1  0
  3  9  1  0
  8 10  1  0
  4 11  1  0
  8 12  2  0
  3 13  1  0
 14 26  1  0
 14 25  2  0
 10 15  1  0
  3 16  1  0
 17 23  2  0
 18 24  1  0
  6 18  1  0
 17 19  1  0
 15 20  1  0
 15 21  2  0
 20 22  2  0
 17 22  1  0
 21 23  1  0
 16 24  1  0
 25 27  1  0
 26 28  2  0
 11 27  2  0
 11 28  1  0
M  END
>  <IDNUMBER>  (570) 
SA92-0182

>  <available>  (570) 
88

>  <H_acceptor>  (570) 
6

>  <H_donor>  (570) 
0

>  <B_rotN>  (570) 
5

>  <N_O>  (570) 
6

>  <logP>  (570) 
3.0287

>  <logD>  (570) 
3.0286

>  <logSw>  (570) 
-2.9462

>  <PSA>  (570) 
57.127

>  <pKa_ma>  (570) 
17.477

>  <pKa_mb>  (570) 
3.6841

>  <N_Chirals>  (570) 
1

>  <Name>  (570) 
2-(4-fluorophenyl)-1-{3-fluoro-3-[3-(pyridin-4-yl)-1,2,4-oxadiazol-5-yl]piperidin-1-yl}ethan-1-one

>  <Smile>  (570) 
O=C(Cc(cc1)ccc1F)N(CCC1)CC1(c1nc(-c2ccncc2)no1)F

>  <Color>  (570) 
YELLOW

>  <Collection>  (570) 
IC

>  <InChI>  (570) 
InChI=1S/C20H18F2N4O2/c21-16-4-2-14(3-5-16)12-17(27)26-11-1-8-20(22,13-26)19-24-18(25-28-19)15-6-9-23-10-7-15/h2-7,9-10H,1,8,11-13H2/t20-/m0/s1

>  <InChI Key>  (570) 
SUDOBYCDKZWCGK-FQEVSTJZSA-N

>  <PERCENTSP3>  (570) 
30

>  <Link>  (570) 
https://www.chemdiv.com/catalog/screening-compounds/compound-SA92-0182/

>  <MFCDNUMBER>  (570) 
MFCD32241445

>  <CLNUMBER>  (570) 
CM4899

>  <STEREO>  (570) 
RACEMIC MIXTURE

>  <State>  (570) 
Solid

>  <Similarity score>  (570) 
0.18

$$$$
1-{3-fluoro-3-[3-(pyridin-4-yl)-1,2,4-oxadiazol-5-yl]piperidin-1-yl}-2-(3-methyl
     RDKit          2D

 29 32  0  0  0  0  0  0  0  0999 V2000
   -0.6440    2.2391    0.0000 N   0  0  0  0  0  0  0  0  0  0  0  0
    0.3430    2.3958    0.0000 C   0  0  0  0  0  0  0  0  0  0  0  0
    1.0515    1.6908    0.0000 C   0  0  0  0  0  0  0  0  0  0  0  0
   -1.0922    3.1324    0.0000 C   0  0  0  0  0  0  0  0  0  0  0  0
   -0.3900    3.8343    0.0000 N   0  0  0  0  0  0  0  0  0  0  0  0
    2.5557    0.8257    0.0000 N   0  0  0  0  0  0  0  0  0  0  0  0
    0.5029    3.3767    0.0000 O   0  0  0  0  0  0  0  0  0  0  0  0
    3.0539   -0.0454    0.0000 C   0  0  0  0  0  0  0  0  0  0  0  0
    1.5498    0.8257    0.0000 C   0  0  0  0  0  0  0  0  0  0  0  0
   -2.0792    3.2794    0.0000 C   0  0  0  0  0  0  0  0  0  0  0  0
    2.5557   -0.9105    0.0000 C   0  0  0  0  0  0  0  0  0  0  0  0
    4.0568   -0.0454    0.0000 O   0  0  0  0  0  0  0  0  0  0  0  0
    0.6658    0.7599    0.0000 F   0  0  0  0  0  0  0  0  0  0  0  0
   -4.0568    3.5992    0.0000 N   0  0  0  0  0  0  0  0  0  0  0  0
    3.0539   -1.7786    0.0000 O   0  0  0  0  0  0  0  0  0  0  0  0
    1.5498    2.5557    0.0000 C   0  0  0  0  0  0  0  0  0  0  0  0
    2.5557   -2.6434    0.0000 C   0  0  0  0  0  0  0  0  0  0  0  0
    3.0539    1.6908    0.0000 C   0  0  0  0  0  0  0  0  0  0  0  0
    1.5498   -2.6434    0.0000 C   0  0  0  0  0  0  0  0  0  0  0  0
    1.0515   -3.5085    0.0000 C   0  0  0  0  0  0  0  0  0  0  0  0
    2.5557    2.5557    0.0000 C   0  0  0  0  0  0  0  0  0  0  0  0
    2.5557   -4.3733    0.0000 C   0  0  0  0  0  0  0  0  0  0  0  0
   -3.4268    4.3733    0.0000 C   0  0  0  0  0  0  0  0  0  0  0  0
   -3.6996    2.6685    0.0000 C   0  0  0  0  0  0  0  0  0  0  0  0
   -2.4398    4.2197    0.0000 C   0  0  0  0  0  0  0  0  0  0  0  0
   -2.7093    2.5119    0.0000 C   0  0  0  0  0  0  0  0  0  0  0  0
    3.0539   -3.5085    0.0000 C   0  0  0  0  0  0  0  0  0  0  0  0
    1.5498   -4.3733    0.0000 C   0  0  0  0  0  0  0  0  0  0  0  0
    0.0549   -3.5085    0.0000 C   0  0  0  0  0  0  0  0  0  0  0  0
  1  2  2  0
  2  3  1  0
  1  4  1  0
  4  5  2  0
  5  7  1  0
  6  9  1  0
  2  7  1  0
  6  8  1  0
  3  9  1  0
  4 10  1  0
  8 11  1  0
  8 12  2  0
  3 13  1  0
 14 24  1  0
 14 23  2  0
 11 15  1  0
  3 16  1  0
 15 17  1  0
 18 21  1  0
  6 18  1  0
 17 19  1  0
 19 20  2  0
 16 21  1  0
 22 27  1  0
 23 25  1  0
 24 26  2  0
 10 25  2  0
 10 26  1  0
 17 27  2  0
 22 28  2  0
 20 28  1  0
 20 29  1  0
M  END
>  <IDNUMBER>  (571) 
SA92-0216

>  <available>  (571) 
53

>  <H_acceptor>  (571) 
7

>  <H_donor>  (571) 
0

>  <B_rotN>  (571) 
6

>  <N_O>  (571) 
7

>  <logP>  (571) 
2.9928

>  <logD>  (571) 
2.9927

>  <logSw>  (571) 
-2.8474

>  <PSA>  (571) 
64.626

>  <pKa_ma>  (571) 
24.9668

>  <pKa_mb>  (571) 
3.6841

>  <N_Chirals>  (571) 
1

>  <Name>  (571) 
1-{3-fluoro-3-[3-(pyridin-4-yl)-1,2,4-oxadiazol-5-yl]piperidin-1-yl}-2-(3-methylphenoxy)ethan-1-one

>  <Smile>  (571) 
Cc1cccc(OCC(N(CCC2)CC2(c2nc(-c3ccncc3)no2)F)=O)c1

>  <Color>  (571) 
YELLOW

>  <Collection>  (571) 
IC

>  <InChI>  (571) 
InChI=1S/C21H21FN4O3/c1-15-4-2-5-17(12-15)28-13-18(27)26-11-3-8-21(22,14-26)20-24-19(25-29-20)16-6-9-23-10-7-16/h2,4-7,9-10,12H,3,8,11,13-14H2,1H3/t21-/m0/s1

>  <InChI Key>  (571) 
RIJMPSFQPJTJTB-NRFANRHFSA-N

>  <PERCENTSP3>  (571) 
33.33

>  <Link>  (571) 
https://www.chemdiv.com/catalog/screening-compounds/compound-SA92-0216/

>  <MFCDNUMBER>  (571) 
MFCD32241825

>  <CLNUMBER>  (571) 
CM4899

>  <STEREO>  (571) 
RACEMIC MIXTURE

>  <State>  (571) 
Liquid

>  <Similarity score>  (571) 
0.18

$$$$
N-(3-cyano-5,6-dihydro-4H-cyclopenta[b]thiophen-2-yl)-2-(2,4-dichlorophenoxy)pro
     RDKit          2D

 24 26  0  0  0  0  0  0  0  0999 V2000
   -0.9259    1.4450    0.0000 C   0  0  0  0  0  0  0  0  0  0  0  0
   -0.9259    2.3438    0.0000 C   0  0  0  0  0  0  0  0  0  0  0  0
   -1.7084    0.9956    0.0000 S   0  0  0  0  0  0  0  0  0  0  0  0
   -2.5065    2.3438    0.0000 C   0  0  0  0  0  0  0  0  0  0  0  0
   -0.0814    0.9569    0.0000 N   0  0  0  0  0  0  0  0  0  0  0  0
   -2.5065    1.4528    0.0000 C   0  0  0  0  0  0  0  0  0  0  0  0
   -0.0814   -0.0040    0.0000 C   0  0  0  0  0  0  0  0  0  0  0  0
   -0.0116    2.8629    0.0000 C   0  0  0  0  0  0  0  0  0  0  0  0
    0.8949    3.3743    0.0000 N   0  0  0  0  0  0  0  0  0  0  0  0
    0.7477   -1.4528    0.0000 O   0  0  0  0  0  0  0  0  0  0  0  0
    1.5767   -1.9254    0.0000 C   0  0  0  0  0  0  0  0  0  0  0  0
    2.4213   -1.4605    0.0000 C   0  0  0  0  0  0  0  0  0  0  0  0
    0.7553   -0.4996    0.0000 C   0  0  0  0  0  0  0  0  0  0  0  0
    3.2501   -1.9254    0.0000 C   0  0  0  0  0  0  0  0  0  0  0  0
   -0.9104   -0.4920    0.0000 O   0  0  0  0  0  0  0  0  0  0  0  0
    1.5845   -2.8861    0.0000 C   0  0  0  0  0  0  0  0  0  0  0  0
    3.2501   -2.8939    0.0000 C   0  0  0  0  0  0  0  0  0  0  0  0
    2.4443   -0.4996    0.0000 Cl  0  0  0  0  0  0  0  0  0  0  0  0
   -3.2967    2.8009    0.0000 C   0  0  0  0  0  0  0  0  0  0  0  0
   -4.0871    1.4528    0.0000 C   0  0  0  0  0  0  0  0  0  0  0  0
    2.4135   -3.3588    0.0000 C   0  0  0  0  0  0  0  0  0  0  0  0
    4.0871   -3.3743    0.0000 Cl  0  0  0  0  0  0  0  0  0  0  0  0
   -4.0871    2.3515    0.0000 C   0  0  0  0  0  0  0  0  0  0  0  0
    1.5845   -0.0271    0.0000 C   0  0  0  0  0  0  0  0  0  0  0  0
  1  2  2  0
  1  3  1  0
  2  4  1  0
  4  6  2  0
  1  5  1  0
  3  6  1  0
  5  7  1  0
  2  8  1  0
  8  9  3  0
 10 11  1  0
 11 12  2  0
 10 13  1  0
  7 13  1  0
 12 14  1  0
 14 17  2  0
  7 15  2  0
 11 16  1  0
 17 21  1  0
 12 18  1  0
  4 19  1  0
 19 23  1  0
  6 20  1  0
 16 21  2  0
 17 22  1  0
 20 23  1  0
 13 24  1  0
M  END
>  <IDNUMBER>  (572) 
8012-3703

>  <available>  (572) 
16

>  <H_acceptor>  (572) 
4

>  <H_donor>  (572) 
1

>  <B_rotN>  (572) 
6

>  <N_O>  (572) 
4

>  <logP>  (572) 
4.9424

>  <logD>  (572) 
3.5046

>  <logSw>  (572) 
-5.0599

>  <PSA>  (572) 
47.342

>  <pKa_ma>  (572) 
5.9783

>  <pKa_mb>  (572) 
-6.0563

>  <N_Chirals>  (572) 
1

>  <Name>  (572) 
N-(3-cyano-5,6-dihydro-4H-cyclopenta[b]thiophen-2-yl)-2-(2,4-dichlorophenoxy)propanamide

>  <Smile>  (572) 
CC(C(Nc(sc1c2CCC1)c2C#N)=O)Oc(ccc(Cl)c1)c1Cl

>  <Color>  (572) 
ORANGE

>  <Collection>  (572) 
DC

>  <InChI>  (572) 
InChI=1S/C17H14Cl2N2O2S/c1-9(23-14-6-5-10(18)7-13(14)19)16(22)21-17-12(8-20)11-3-2-4-15(11)24-17/h5-7,9H,2-4H2,1H3,(H,21,22)/t9-/m0/s1

>  <InChI Key>  (572) 
FLHOMHATGIKCCI-VIFPVBQESA-N

>  <PERCENTSP3>  (572) 
29.41

>  <Link>  (572) 
https://www.chemdiv.com/catalog/screening-compounds/compound-8012-3703/

>  <MFCDNUMBER>  (572) 
MFCD02928197

>  <STEREO>  (572) 
RACEMIC MIXTURE

>  <State>  (572) 
Solid

>  <Similarity score>  (572) 
0.18

$$$$
1-{3-fluoro-3-[3-(pyridin-3-yl)-1,2,4-oxadiazol-5-yl]piperidin-1-yl}-3-(3-methox
     RDKit          2D

 30 33  0  0  0  0  0  0  0  0999 V2000
    2.5046   -0.5562    0.0000 N   0  0  0  0  0  0  0  0  0  0  0  0
    2.1463   -1.4940    0.0000 C   0  0  0  0  0  0  0  0  0  0  0  0
    3.5048   -0.6148    0.0000 C   0  0  0  0  0  0  0  0  0  0  0  0
    1.1837   -1.7523    0.0000 C   0  0  0  0  0  0  0  0  0  0  0  0
    3.7591   -1.5817    0.0000 N   0  0  0  0  0  0  0  0  0  0  0  0
    0.3166   -0.2522    0.0000 N   0  0  0  0  0  0  0  0  0  0  0  0
    2.9213   -2.1192    0.0000 O   0  0  0  0  0  0  0  0  0  0  0  0
    1.1837   -0.7565    0.0000 C   0  0  0  0  0  0  0  0  0  0  0  0
    0.3166    0.7480    0.0000 C   0  0  0  0  0  0  0  0  0  0  0  0
    4.1341    0.1688    0.0000 C   0  0  0  0  0  0  0  0  0  0  0  0
    1.1837    1.2441    0.0000 O   0  0  0  0  0  0  0  0  0  0  0  0
    5.7470    0.7857    0.0000 N   0  0  0  0  0  0  0  0  0  0  0  0
   -0.5542    1.2441    0.0000 C   0  0  0  0  0  0  0  0  0  0  0  0
    1.0460   -2.7442    0.0000 F   0  0  0  0  0  0  0  0  0  0  0  0
    0.3166   -2.2566    0.0000 C   0  0  0  0  0  0  0  0  0  0  0  0
    5.1219    0.0063    0.0000 C   0  0  0  0  0  0  0  0  0  0  0  0
   -0.5542   -0.7565    0.0000 C   0  0  0  0  0  0  0  0  0  0  0  0
   -3.1549    0.7480    0.0000 C   0  0  0  0  0  0  0  0  0  0  0  0
   -1.4170    0.7480    0.0000 C   0  0  0  0  0  0  0  0  0  0  0  0
   -2.2837    1.2441    0.0000 C   0  0  0  0  0  0  0  0  0  0  0  0
   -4.0175    1.2441    0.0000 C   0  0  0  0  0  0  0  0  0  0  0  0
    3.7717    1.0982    0.0000 C   0  0  0  0  0  0  0  0  0  0  0  0
   -4.8803    0.7480    0.0000 O   0  0  0  0  0  0  0  0  0  0  0  0
   -0.5542   -1.7523    0.0000 C   0  0  0  0  0  0  0  0  0  0  0  0
   -3.1549    2.7442    0.0000 C   0  0  0  0  0  0  0  0  0  0  0  0
    5.3927    1.7193    0.0000 C   0  0  0  0  0  0  0  0  0  0  0  0
   -2.2837    2.2485    0.0000 C   0  0  0  0  0  0  0  0  0  0  0  0
   -4.0175    2.2485    0.0000 C   0  0  0  0  0  0  0  0  0  0  0  0
   -5.7470    1.2441    0.0000 C   0  0  0  0  0  0  0  0  0  0  0  0
    4.4051    1.8734    0.0000 C   0  0  0  0  0  0  0  0  0  0  0  0
  1  2  2  0
  1  3  1  0
  2  4  1  0
  3  5  2  0
  5  7  1  0
  6  8  1  0
  6 17  1  0
  2  7  1  0
  4  8  1  0
  6  9  1  0
  3 10  1  0
  9 11  2  0
 12 16  2  0
 12 26  1  0
  9 13  1  0
  4 14  1  0
  4 15  1  0
 10 16  1  0
 17 24  1  0
 18 20  2  0
 13 19  1  0
 19 20  1  0
 18 21  1  0
 21 28  2  0
 10 22  2  0
 21 23  1  0
 15 24  1  0
 25 27  2  0
 26 30  2  0
 20 27  1  0
 25 28  1  0
 23 29  1  0
 22 30  1  0
M  END
>  <IDNUMBER>  (573) 
SA92-0625

>  <available>  (573) 
61

>  <H_acceptor>  (573) 
7

>  <H_donor>  (573) 
0

>  <B_rotN>  (573) 
7

>  <N_O>  (573) 
7

>  <logP>  (573) 
3.0763

>  <logD>  (573) 
2.4376

>  <logSw>  (573) 
-2.9444

>  <PSA>  (573) 
64.76

>  <pKa_ma>  (573) 
22.9745

>  <pKa_mb>  (573) 
7.9253

>  <N_Chirals>  (573) 
1

>  <Name>  (573) 
1-{3-fluoro-3-[3-(pyridin-3-yl)-1,2,4-oxadiazol-5-yl]piperidin-1-yl}-3-(3-methoxyphenyl)propan-1-one

>  <Smile>  (573) 
COc1cccc(CCC(N(CCC2)CC2(c2nc(-c3cnccc3)no2)F)=O)c1

>  <Color>  (573) 
BROWN

>  <Collection>  (573) 
IC

>  <InChI>  (573) 
InChI=1S/C22H23FN4O3/c1-29-18-7-2-5-16(13-18)8-9-19(28)27-12-4-10-22(23,15-27)21-25-20(26-30-21)17-6-3-11-24-14-17/h2-3,5-7,11,13-14H,4,8-10,12,15H2,1H3/t22-/m0/s1

>  <InChI Key>  (573) 
FSXPXOPHNRLJLO-QFIPXVFZSA-N

>  <PERCENTSP3>  (573) 
36.36

>  <Link>  (573) 
https://www.chemdiv.com/catalog/screening-compounds/compound-SA92-0625/

>  <MFCDNUMBER>  (573) 
MFCD32243337

>  <CLNUMBER>  (573) 
CM4899

>  <STEREO>  (573) 
RACEMIC MIXTURE

>  <State>  (573) 
Liquid

>  <Similarity score>  (573) 
0.18

$$$$
{3-fluoro-3-[3-(pyridin-4-yl)-1,2,4-oxadiazol-5-yl]piperidin-1-yl}(3-methylpyrid
     RDKit          2D

 27 30  0  0  0  0  0  0  0  0999 V2000
   -1.6413    0.9414    0.0000 N   0  0  0  0  0  0  0  0  0  0  0  0
   -0.6484    1.1073    0.0000 C   0  0  0  0  0  0  0  0  0  0  0  0
    0.0594    0.3963    0.0000 C   0  0  0  0  0  0  0  0  0  0  0  0
   -2.0925    1.8309    0.0000 C   0  0  0  0  0  0  0  0  0  0  0  0
    2.0518   -1.3424    0.0000 C   0  0  0  0  0  0  0  0  0  0  0  0
    1.5538   -0.4715    0.0000 N   0  0  0  0  0  0  0  0  0  0  0  0
   -1.3875    2.5390    0.0000 N   0  0  0  0  0  0  0  0  0  0  0  0
   -0.4948    2.0846    0.0000 O   0  0  0  0  0  0  0  0  0  0  0  0
    3.0541   -1.3424    0.0000 C   0  0  0  0  0  0  0  0  0  0  0  0
    0.5546   -0.4715    0.0000 C   0  0  0  0  0  0  0  0  0  0  0  0
    3.5556   -0.4715    0.0000 N   0  0  0  0  0  0  0  0  0  0  0  0
    1.5538   -2.2006    0.0000 O   0  0  0  0  0  0  0  0  0  0  0  0
   -3.0885    1.9939    0.0000 C   0  0  0  0  0  0  0  0  0  0  0  0
    3.5556   -2.2006    0.0000 C   0  0  0  0  0  0  0  0  0  0  0  0
   -0.3258   -0.5340    0.0000 F   0  0  0  0  0  0  0  0  0  0  0  0
   -5.0559    2.3102    0.0000 N   0  0  0  0  0  0  0  0  0  0  0  0
    0.5546    1.2577    0.0000 C   0  0  0  0  0  0  0  0  0  0  0  0
    2.0518    0.3963    0.0000 C   0  0  0  0  0  0  0  0  0  0  0  0
    1.5538    1.2577    0.0000 C   0  0  0  0  0  0  0  0  0  0  0  0
    4.5611   -0.4715    0.0000 C   0  0  0  0  0  0  0  0  0  0  0  0
   -4.4325    3.0746    0.0000 C   0  0  0  0  0  0  0  0  0  0  0  0
   -4.7052    1.3705    0.0000 C   0  0  0  0  0  0  0  0  0  0  0  0
   -3.4396    2.9242    0.0000 C   0  0  0  0  0  0  0  0  0  0  0  0
   -3.7120    1.2141    0.0000 C   0  0  0  0  0  0  0  0  0  0  0  0
    3.0541   -3.0746    0.0000 C   0  0  0  0  0  0  0  0  0  0  0  0
    4.5611   -2.2006    0.0000 C   0  0  0  0  0  0  0  0  0  0  0  0
    5.0559   -1.3424    0.0000 C   0  0  0  0  0  0  0  0  0  0  0  0
  1  2  2  0
  2  3  1  0
  1  4  1  0
  5  6  1  0
  6 10  1  0
  4  7  2  0
  7  8  1  0
  2  8  1  0
  5  9  1  0
  3 10  1  0
  9 11  2  0
  5 12  2  0
  4 13  1  0
  9 14  1  0
  3 15  1  0
 16 22  1  0
 16 21  2  0
  3 17  1  0
 18 19  1  0
  6 18  1  0
 17 19  1  0
 11 20  1  0
 21 23  1  0
 22 24  2  0
 13 23  2  0
 13 24  1  0
 14 25  1  0
 14 26  2  0
 26 27  1  0
 20 27  2  0
M  END
>  <IDNUMBER>  (574) 
SA92-0207

>  <available>  (574) 
29

>  <H_acceptor>  (574) 
7

>  <H_donor>  (574) 
0

>  <B_rotN>  (574) 
4

>  <N_O>  (574) 
7

>  <logP>  (574) 
2.2551

>  <logD>  (574) 
2.2551

>  <logSw>  (574) 
-2.0335

>  <PSA>  (574) 
67.472

>  <pKa_ma>  (574) 
24.399

>  <pKa_mb>  (574) 
3.6841

>  <N_Chirals>  (574) 
1

>  <Name>  (574) 
{3-fluoro-3-[3-(pyridin-4-yl)-1,2,4-oxadiazol-5-yl]piperidin-1-yl}(3-methylpyridin-2-yl)methanone

>  <Smile>  (574) 
Cc1cccnc1C(N(CCC1)CC1(c1nc(-c2ccncc2)no1)F)=O

>  <Color>  (574) 
YELLOW

>  <Collection>  (574) 
IC

>  <InChI>  (574) 
InChI=1S/C19H18FN5O2/c1-13-4-2-8-22-15(13)17(26)25-11-3-7-19(20,12-25)18-23-16(24-27-18)14-5-9-21-10-6-14/h2,4-6,8-10H,3,7,11-12H2,1H3/t19-/m0/s1

>  <InChI Key>  (574) 
QJGRXWFAXUUZOM-IBGZPJMESA-N

>  <PERCENTSP3>  (574) 
31.58

>  <Link>  (574) 
https://www.chemdiv.com/catalog/screening-compounds/compound-SA92-0207/

>  <MFCDNUMBER>  (574) 
MFCD32241698

>  <CLNUMBER>  (574) 
CM4899

>  <STEREO>  (574) 
RACEMIC MIXTURE

>  <State>  (574) 
Liquid

>  <Similarity score>  (574) 
0.18

$$$$
N-(3-cyano-6-ethyl-4,5,6,7-tetrahydro-1-benzothiophen-2-yl)-2-(4-ethylphenoxy)pr
     RDKit          2D

 27 29  0  0  0  0  0  0  0  0999 V2000
    1.6520   -0.3562    0.0000 C   0  0  0  0  0  0  0  0  0  0  0  0
    2.2896    0.4561    0.0000 C   0  0  0  0  0  0  0  0  0  0  0  0
    3.2229    0.1188    0.0000 C   0  0  0  0  0  0  0  0  0  0  0  0
    3.2229   -0.8813    0.0000 C   0  0  0  0  0  0  0  0  0  0  0  0
    2.2270   -1.1647    0.0000 S   0  0  0  0  0  0  0  0  0  0  0  0
    0.6813   -0.3313    0.0000 N   0  0  0  0  0  0  0  0  0  0  0  0
    0.1564   -1.2020    0.0000 C   0  0  0  0  0  0  0  0  0  0  0  0
    2.0519    1.4020    0.0000 C   0  0  0  0  0  0  0  0  0  0  0  0
    1.8146    2.3520    0.0000 N   0  0  0  0  0  0  0  0  0  0  0  0
    4.0853    0.6187    0.0000 C   0  0  0  0  0  0  0  0  0  0  0  0
    4.0853   -1.3895    0.0000 C   0  0  0  0  0  0  0  0  0  0  0  0
   -0.8437   -1.2020    0.0000 C   0  0  0  0  0  0  0  0  0  0  0  0
   -1.3396   -0.3313    0.0000 O   0  0  0  0  0  0  0  0  0  0  0  0
    0.6813   -2.0771    0.0000 O   0  0  0  0  0  0  0  0  0  0  0  0
   -2.3395   -0.3313    0.0000 C   0  0  0  0  0  0  0  0  0  0  0  0
    4.9560    0.1188    0.0000 C   0  0  0  0  0  0  0  0  0  0  0  0
    4.9560   -0.8938    0.0000 C   0  0  0  0  0  0  0  0  0  0  0  0
   -4.3353   -0.3313    0.0000 C   0  0  0  0  0  0  0  0  0  0  0  0
   -2.8354    0.5438    0.0000 C   0  0  0  0  0  0  0  0  0  0  0  0
   -2.8354   -1.2020    0.0000 C   0  0  0  0  0  0  0  0  0  0  0  0
   -3.8353   -1.2020    0.0000 C   0  0  0  0  0  0  0  0  0  0  0  0
   -3.8353    0.5438    0.0000 C   0  0  0  0  0  0  0  0  0  0  0  0
   -1.3396   -2.0771    0.0000 C   0  0  0  0  0  0  0  0  0  0  0  0
   -5.3310   -0.3562    0.0000 C   0  0  0  0  0  0  0  0  0  0  0  0
    5.8061   -1.3769    0.0000 C   0  0  0  0  0  0  0  0  0  0  0  0
   -5.8061   -1.2271    0.0000 C   0  0  0  0  0  0  0  0  0  0  0  0
    5.8061   -2.3520    0.0000 C   0  0  0  0  0  0  0  0  0  0  0  0
  1  2  2  0
  2  3  1  0
  3  4  2  0
  4  5  1  0
  1  5  1  0
  1  6  1  0
  6  7  1  0
  2  8  1  0
  8  9  3  0
  3 10  1  0
  4 11  1  0
  7 12  1  0
 12 13  1  0
  7 14  2  0
 13 15  1  0
 10 16  1  0
 11 17  1  0
 16 17  1  0
 18 21  1  0
 18 22  2  0
 15 19  2  0
 15 20  1  0
 20 21  2  0
 19 22  1  0
 12 23  1  0
 18 24  1  0
 17 25  1  0
 24 26  1  0
 25 27  1  0
M  END
>  <IDNUMBER>  (575) 
Y203-0140

>  <available>  (575) 
18

>  <H_acceptor>  (575) 
4

>  <H_donor>  (575) 
1

>  <B_rotN>  (575) 
8

>  <N_O>  (575) 
4

>  <logP>  (575) 
5.9135

>  <logD>  (575) 
4.4955

>  <logSw>  (575) 
-5.544

>  <PSA>  (575) 
46.89

>  <pKa_ma>  (575) 
5.9989

>  <pKa_mb>  (575) 
-4.9316

>  <N_Chirals>  (575) 
2

>  <Name>  (575) 
N-(3-cyano-6-ethyl-4,5,6,7-tetrahydro-1-benzothiophen-2-yl)-2-(4-ethylphenoxy)propanamide

>  <Smile>  (575) 
CCC(CC1)Cc2c1c(C#N)c(NC(C(C)Oc1ccc(CC)cc1)=O)s2

>  <Color>  (575) 
BROWN

>  <Collection>  (575) 
DC

>  <InChI>  (575) 
InChI=1S/C22H26N2O2S/c1-4-15-6-9-17(10-7-15)26-14(3)21(25)24-22-19(13-23)18-11-8-16(5-2)12-20(18)27-22/h6-7,9-10,14,16H,4-5,8,11-12H2,1-3H3,(H,24,25)

>  <InChI Key>  (575) 
VWFSGWNXFPMVBL-UHFFFAOYSA-N

>  <PERCENTSP3>  (575) 
45.46

>  <Link>  (575) 
https://www.chemdiv.com/catalog/screening-compounds/compound-Y203-0140/

>  <MFCDNUMBER>  (575) 
MFCD03944527

>  <STEREO>  (575) 
MIXTURE OF STEREOISOMERS

>  <State>  (575) 
Solid

>  <Similarity score>  (575) 
0.18

$$$$
N-{2-[3-(pyridin-2-yl)-1,2,4-oxadiazol-5-yl]ethyl}-2-(1H-tetrazol-1-yl)-5,6-dihy
     RDKit          2D

 29 33  0  0  0  0  0  0  0  0999 V2000
   -3.3559   -0.5812    0.0000 C   0  0  0  0  0  0  0  0  0  0  0  0
   -2.4351   -0.9687    0.0000 C   0  0  0  0  0  0  0  0  0  0  0  0
   -3.6851    0.3605    0.0000 N   0  0  0  0  0  0  0  0  0  0  0  0
   -4.0059   -1.3477    0.0000 S   0  0  0  0  0  0  0  0  0  0  0  0
    2.9475    0.7936    0.0000 C   0  0  0  0  0  0  0  0  0  0  0  0
    1.9684    0.5812    0.0000 N   0  0  0  0  0  0  0  0  0  0  0  0
   -2.5226   -1.9684    0.0000 C   0  0  0  0  0  0  0  0  0  0  0  0
   -4.6682    0.6104    0.0000 N   0  0  0  0  0  0  0  0  0  0  0  0
   -3.4892   -2.1976    0.0000 C   0  0  0  0  0  0  0  0  0  0  0  0
   -4.7350    1.6103    0.0000 N   0  0  0  0  0  0  0  0  0  0  0  0
    3.4599   -0.0645    0.0000 N   0  0  0  0  0  0  0  0  0  0  0  0
   -3.7976    1.9727    0.0000 N   0  0  0  0  0  0  0  0  0  0  0  0
   -1.5853   -0.4562    0.0000 C   0  0  0  0  0  0  0  0  0  0  0  0
   -3.1559    1.2062    0.0000 C   0  0  0  0  0  0  0  0  0  0  0  0
    1.8768   -0.4145    0.0000 C   0  0  0  0  0  0  0  0  0  0  0  0
    2.7976   -0.8186    0.0000 O   0  0  0  0  0  0  0  0  0  0  0  0
    3.3393    1.7185    0.0000 C   0  0  0  0  0  0  0  0  0  0  0  0
    4.3390    1.8352    0.0000 N   0  0  0  0  0  0  0  0  0  0  0  0
    1.0145   -0.9312    0.0000 C   0  0  0  0  0  0  0  0  0  0  0  0
   -1.5978    0.5396    0.0000 O   0  0  0  0  0  0  0  0  0  0  0  0
   -0.7061   -0.9437    0.0000 N   0  0  0  0  0  0  0  0  0  0  0  0
    0.1480   -0.4312    0.0000 C   0  0  0  0  0  0  0  0  0  0  0  0
   -2.0060   -2.8144    0.0000 C   0  0  0  0  0  0  0  0  0  0  0  0
   -3.5643   -3.1809    0.0000 C   0  0  0  0  0  0  0  0  0  0  0  0
   -2.6477   -3.5600    0.0000 C   0  0  0  0  0  0  0  0  0  0  0  0
    4.7350    2.7602    0.0000 C   0  0  0  0  0  0  0  0  0  0  0  0
    2.7393    2.5308    0.0000 C   0  0  0  0  0  0  0  0  0  0  0  0
    4.1391    3.5600    0.0000 C   0  0  0  0  0  0  0  0  0  0  0  0
    3.1476    3.4518    0.0000 C   0  0  0  0  0  0  0  0  0  0  0  0
  1  2  2  0
  1  3  1  0
  1  4  1  0
  5  6  1  0
  5 11  2  0
  6 15  2  0
  2  7  1  0
  3  8  1  0
  4  9  1  0
  7  9  2  0
  8 10  2  0
 11 16  1  0
 12 14  2  0
 10 12  1  0
  2 13  1  0
  3 14  1  0
 15 19  1  0
 15 16  1  0
  5 17  1  0
 17 18  2  0
 19 22  1  0
 13 20  2  0
 13 21  1  0
 21 22  1  0
  7 23  1  0
 23 25  1  0
  9 24  1  0
 24 25  1  0
 18 26  1  0
 26 28  2  0
 17 27  1  0
 28 29  1  0
 27 29  2  0
M  END
>  <IDNUMBER>  (576) 
IB07-6369

>  <available>  (576) 
50

>  <H_acceptor>  (576) 
9

>  <H_donor>  (576) 
1

>  <B_rotN>  (576) 
7

>  <N_O>  (576) 
10

>  <logP>  (576) 
1.89

>  <logD>  (576) 
1.89

>  <logSw>  (576) 
-2.78

>  <PSA>  (576) 
175.14

>  <pKa_ma>  (576) 
14

>  <pKa_mb>  (576) 
2.23

>  <N_Chirals>  (576) 
0

>  <Name>  (576) 
N-{2-[3-(pyridin-2-yl)-1,2,4-oxadiazol-5-yl]ethyl}-2-(1H-tetrazol-1-yl)-5,6-dihydro-4H-cyclopenta[b]thiophene-3-carboxamide

>  <Smile>  (576) 
O=C(c1c(-n2nnnc2)sc2c1CCC2)NCCc1nc(-c2ncccc2)no1

>  <Color>  (576) 
NOT COLORED

>  <Collection>  (576) 
DC

>  <InChI>  (576) 
InChI=1S/C18H16N8O2S/c27-17(15-11-4-3-6-13(11)29-18(15)26-10-21-24-25-26)20-9-7-14-22-16(23-28-14)12-5-1-2-8-19-12/h1-2,5,8,10H,3-4,6-7,9H2,(H,20,27)

>  <InChI Key>  (576) 
LIFJJBWXMCZOLN-UHFFFAOYSA-N

>  <PERCENTSP3>  (576) 
27.8

>  <Link>  (576) 
https://www.chemdiv.com/catalog/screening-compounds/compound-IB07-6369/

>  <STEREO>  (576) 
ACHIRAL

>  <State>  (576) 
Solid

>  <Similarity score>  (576) 
0.18

$$$$
{3-fluoro-3-[3-(pyridin-4-yl)-1,2,4-oxadiazol-5-yl]piperidin-1-yl}(3-methoxyphen
     RDKit          2D

 28 31  0  0  0  0  0  0  0  0999 V2000
   -1.6384   -1.3735    0.0000 N   0  0  0  0  0  0  0  0  0  0  0  0
   -0.6515   -1.5241    0.0000 C   0  0  0  0  0  0  0  0  0  0  0  0
    0.0594   -0.8161    0.0000 C   0  0  0  0  0  0  0  0  0  0  0  0
   -2.0926   -2.2631    0.0000 C   0  0  0  0  0  0  0  0  0  0  0  0
    1.5570    0.0455    0.0000 N   0  0  0  0  0  0  0  0  0  0  0  0
   -1.3845   -2.9712    0.0000 N   0  0  0  0  0  0  0  0  0  0  0  0
    2.0518    0.9102    0.0000 C   0  0  0  0  0  0  0  0  0  0  0  0
   -0.4949   -2.5170    0.0000 O   0  0  0  0  0  0  0  0  0  0  0  0
    0.5514    0.0455    0.0000 C   0  0  0  0  0  0  0  0  0  0  0  0
    3.0514    0.9102    0.0000 C   0  0  0  0  0  0  0  0  0  0  0  0
    1.5570    1.7840    0.0000 O   0  0  0  0  0  0  0  0  0  0  0  0
   -3.0858   -2.4138    0.0000 C   0  0  0  0  0  0  0  0  0  0  0  0
    3.5586    1.7840    0.0000 C   0  0  0  0  0  0  0  0  0  0  0  0
   -0.3228    0.1020    0.0000 F   0  0  0  0  0  0  0  0  0  0  0  0
   -5.0530   -2.7271    0.0000 N   0  0  0  0  0  0  0  0  0  0  0  0
    0.5514   -1.6836    0.0000 C   0  0  0  0  0  0  0  0  0  0  0  0
    2.0518   -0.8161    0.0000 C   0  0  0  0  0  0  0  0  0  0  0  0
    4.5550    1.7840    0.0000 C   0  0  0  0  0  0  0  0  0  0  0  0
    3.5586    0.0455    0.0000 C   0  0  0  0  0  0  0  0  0  0  0  0
    5.0530    2.6393    0.0000 O   0  0  0  0  0  0  0  0  0  0  0  0
    1.5570   -1.6836    0.0000 C   0  0  0  0  0  0  0  0  0  0  0  0
    4.5550    0.0455    0.0000 C   0  0  0  0  0  0  0  0  0  0  0  0
   -4.4296   -3.5071    0.0000 C   0  0  0  0  0  0  0  0  0  0  0  0
   -4.7021   -1.7967    0.0000 C   0  0  0  0  0  0  0  0  0  0  0  0
   -3.4367   -3.3533    0.0000 C   0  0  0  0  0  0  0  0  0  0  0  0
   -3.7092   -1.6369    0.0000 C   0  0  0  0  0  0  0  0  0  0  0  0
    5.0530    0.9102    0.0000 C   0  0  0  0  0  0  0  0  0  0  0  0
    4.5550    3.5071    0.0000 C   0  0  0  0  0  0  0  0  0  0  0  0
  1  2  2  0
  2  3  1  0
  1  4  1  0
  5  9  1  0
  4  6  2  0
  6  8  1  0
  5  7  1  0
  2  8  1  0
  3  9  1  0
  7 10  1  0
  7 11  2  0
  4 12  1  0
 10 13  2  0
  3 14  1  0
 15 24  1  0
 15 23  2  0
  3 16  1  0
 17 21  1  0
  5 17  1  0
 13 18  1  0
 10 19  1  0
 18 20  1  0
 16 21  1  0
 19 22  2  0
 23 25  1  0
 24 26  2  0
 12 25  2  0
 12 26  1  0
 22 27  1  0
 18 27  2  0
 20 28  1  0
M  END
>  <IDNUMBER>  (577) 
SA92-0181

>  <available>  (577) 
115

>  <H_acceptor>  (577) 
7

>  <H_donor>  (577) 
0

>  <B_rotN>  (577) 
5

>  <N_O>  (577) 
7

>  <logP>  (577) 
2.6101

>  <logD>  (577) 
2.6101

>  <logSw>  (577) 
-2.6375

>  <PSA>  (577) 
65.198

>  <pKa_ma>  (577) 
27.08

>  <pKa_mb>  (577) 
3.6841

>  <N_Chirals>  (577) 
1

>  <Name>  (577) 
{3-fluoro-3-[3-(pyridin-4-yl)-1,2,4-oxadiazol-5-yl]piperidin-1-yl}(3-methoxyphenyl)methanone

>  <Smile>  (577) 
COc1cccc(C(N(CCC2)CC2(c2nc(-c3ccncc3)no2)F)=O)c1

>  <Color>  (577) 
YELLOW

>  <Collection>  (577) 
IC

>  <InChI>  (577) 
InChI=1S/C20H19FN4O3/c1-27-16-5-2-4-15(12-16)18(26)25-11-3-8-20(21,13-25)19-23-17(24-28-19)14-6-9-22-10-7-14/h2,4-7,9-10,12H,3,8,11,13H2,1H3/t20-/m0/s1

>  <InChI Key>  (577) 
JKEGNPSWTVFVAA-FQEVSTJZSA-N

>  <PERCENTSP3>  (577) 
30

>  <Link>  (577) 
https://www.chemdiv.com/catalog/screening-compounds/compound-SA92-0181/

>  <MFCDNUMBER>  (577) 
MFCD32241444

>  <CLNUMBER>  (577) 
CM4899

>  <STEREO>  (577) 
RACEMIC MIXTURE

>  <State>  (577) 
Liquid

>  <Similarity score>  (577) 
0.18

$$$$
N-(3-cyano-5,6-dihydro-4H-cyclopenta[b]thiophen-2-yl)-5-ethyl-1,2-oxazole-3-carb
     RDKit          2D

 20 22  0  0  0  0  0  0  0  0999 V2000
   -0.5791   -1.5764    0.0000 C   0  0  0  0  0  0  0  0  0  0  0  0
    0.0262   -2.3517    0.0000 C   0  0  0  0  0  0  0  0  0  0  0  0
    0.2527    1.4563    0.0000 C   0  0  0  0  0  0  0  0  0  0  0  0
   -1.5176   -1.9143    0.0000 S   0  0  0  0  0  0  0  0  0  0  0  0
   -0.5179   -3.1790    0.0000 C   0  0  0  0  0  0  0  0  0  0  0  0
   -0.5791   -0.5678    0.0000 N   0  0  0  0  0  0  0  0  0  0  0  0
   -0.4885    2.0162    0.0000 N   0  0  0  0  0  0  0  0  0  0  0  0
   -1.4722   -2.8956    0.0000 C   0  0  0  0  0  0  0  0  0  0  0  0
    0.2845   -0.0668    0.0000 C   0  0  0  0  0  0  0  0  0  0  0  0
    1.0257    2.0162    0.0000 C   0  0  0  0  0  0  0  0  0  0  0  0
    1.0348   -2.3155    0.0000 C   0  0  0  0  0  0  0  0  0  0  0  0
   -0.2005    2.8935    0.0000 O   0  0  0  0  0  0  0  0  0  0  0  0
    2.0321   -2.2746    0.0000 N   0  0  0  0  0  0  0  0  0  0  0  0
    0.7379    2.8935    0.0000 C   0  0  0  0  0  0  0  0  0  0  0  0
    1.0847   -0.5520    0.0000 O   0  0  0  0  0  0  0  0  0  0  0  0
   -0.4725   -4.1834    0.0000 C   0  0  0  0  0  0  0  0  0  0  0  0
   -2.0321   -3.7389    0.0000 C   0  0  0  0  0  0  0  0  0  0  0  0
   -1.4269   -4.5254    0.0000 C   0  0  0  0  0  0  0  0  0  0  0  0
    1.2820    3.6754    0.0000 C   0  0  0  0  0  0  0  0  0  0  0  0
    0.8987    4.5254    0.0000 C   0  0  0  0  0  0  0  0  0  0  0  0
  1  2  2  0
  3  9  1  0
  1  4  1  0
  2  5  1  0
  5  8  2  0
  1  6  1  0
  3  7  2  0
  4  8  1  0
  6  9  1  0
  3 10  1  0
  2 11  1  0
  7 12  1  0
 11 13  3  0
 10 14  2  0
 12 14  1  0
  9 15  2  0
  5 16  1  0
  8 17  1  0
 17 18  1  0
 16 18  1  0
 14 19  1  0
 19 20  1  0
M  END
>  <IDNUMBER>  (578) 
C226-2831

>  <available>  (578) 
51

>  <H_acceptor>  (578) 
5

>  <H_donor>  (578) 
1

>  <B_rotN>  (578) 
5

>  <N_O>  (578) 
5

>  <logP>  (578) 
3.1646

>  <logD>  (578) 
1.474

>  <logSw>  (578) 
-3.4207

>  <PSA>  (578) 
61.444

>  <pKa_ma>  (578) 
5.7183

>  <pKa_mb>  (578) 
-5.8698

>  <N_Chirals>  (578) 
0

>  <Name>  (578) 
N-(3-cyano-5,6-dihydro-4H-cyclopenta[b]thiophen-2-yl)-5-ethyl-1,2-oxazole-3-carboxamide

>  <Smile>  (578) 
CCc1cc(C(Nc(sc2c3CCC2)c3C#N)=O)no1

>  <Color>  (578) 
ORANGE

>  <Collection>  (578) 
DC

>  <InChI>  (578) 
InChI=1S/C14H13N3O2S/c1-2-8-6-11(17-19-8)13(18)16-14-10(7-15)9-4-3-5-12(9)20-14/h6H,2-5H2,1H3,(H,16,18)

>  <InChI Key>  (578) 
GRPIRXFMRXUVDE-UHFFFAOYSA-N

>  <PERCENTSP3>  (578) 
35.7

>  <Link>  (578) 
https://www.chemdiv.com/catalog/screening-compounds/compound-C226-2831/

>  <MFCDNUMBER>  (578) 
MFCD14733197

>  <CLNUMBER>  (578) 
CL2030

>  <STEREO>  (578) 
ACHIRAL

>  <State>  (578) 
Solid

>  <Similarity score>  (578) 
0.18

$$$$
2-{[3-fluoro-3-(3-phenyl-1,2,4-oxadiazol-5-yl)piperidin-1-yl]methyl}pyridine
     RDKit          2D

 25 28  0  0  0  0  0  0  0  0999 V2000
    0.1411   -1.3648    0.0000 N   0  0  0  0  0  0  0  0  0  0  0  0
   -0.8464   -1.5249    0.0000 C   0  0  0  0  0  0  0  0  0  0  0  0
    0.5862   -2.2644    0.0000 C   0  0  0  0  0  0  0  0  0  0  0  0
   -1.5576   -0.8196    0.0000 C   0  0  0  0  0  0  0  0  0  0  0  0
   -0.1128   -2.9635    0.0000 N   0  0  0  0  0  0  0  0  0  0  0  0
   -1.0030   -2.5121    0.0000 O   0  0  0  0  0  0  0  0  0  0  0  0
   -3.0622    0.0485    0.0000 N   0  0  0  0  0  0  0  0  0  0  0  0
   -2.0560    0.0485    0.0000 C   0  0  0  0  0  0  0  0  0  0  0  0
    1.5795   -2.4181    0.0000 C   0  0  0  0  0  0  0  0  0  0  0  0
   -2.0560    1.7755    0.0000 N   0  0  0  0  0  0  0  0  0  0  0  0
   -1.1722    0.1050    0.0000 F   0  0  0  0  0  0  0  0  0  0  0  0
   -3.5542    0.9136    0.0000 C   0  0  0  0  0  0  0  0  0  0  0  0
   -3.0622    1.7755    0.0000 C   0  0  0  0  0  0  0  0  0  0  0  0
   -2.0560   -1.6846    0.0000 C   0  0  0  0  0  0  0  0  0  0  0  0
   -3.5542   -0.8196    0.0000 C   0  0  0  0  0  0  0  0  0  0  0  0
   -3.0622   -1.6846    0.0000 C   0  0  0  0  0  0  0  0  0  0  0  0
   -1.5576    2.6438    0.0000 C   0  0  0  0  0  0  0  0  0  0  0  0
    1.9402   -3.3489    0.0000 C   0  0  0  0  0  0  0  0  0  0  0  0
    2.2095   -1.6377    0.0000 C   0  0  0  0  0  0  0  0  0  0  0  0
   -3.5542    2.6438    0.0000 C   0  0  0  0  0  0  0  0  0  0  0  0
   -2.0560    3.5087    0.0000 C   0  0  0  0  0  0  0  0  0  0  0  0
    3.2002   -1.7942    0.0000 C   0  0  0  0  0  0  0  0  0  0  0  0
    2.9274   -3.5087    0.0000 C   0  0  0  0  0  0  0  0  0  0  0  0
   -3.0622    3.5087    0.0000 C   0  0  0  0  0  0  0  0  0  0  0  0
    3.5542   -2.7284    0.0000 C   0  0  0  0  0  0  0  0  0  0  0  0
  1  2  2  0
  1  3  1  0
  2  4  1  0
  3  5  2  0
  5  6  1  0
  2  6  1  0
  7  8  1  0
  4  8  1  0
  3  9  1  0
 10 13  2  0
  4 11  1  0
  7 12  1  0
 12 13  1  0
  4 14  1  0
 15 16  1  0
  7 15  1  0
 14 16  1  0
 10 17  1  0
  9 18  2  0
  9 19  1  0
 13 20  1  0
 21 24  1  0
 17 21  2  0
 19 22  2  0
 18 23  1  0
 20 24  2  0
 22 25  1  0
 23 25  2  0
M  END
>  <IDNUMBER>  (579) 
SA92-0103

>  <available>  (579) 
1

>  <H_acceptor>  (579) 
5

>  <H_donor>  (579) 
0

>  <B_rotN>  (579) 
4

>  <N_O>  (579) 
5

>  <logP>  (579) 
3.1673

>  <logD>  (579) 
3.1532

>  <logSw>  (579) 
-3.0843

>  <PSA>  (579) 
44.853

>  <pKa_ma>  (579) 
26.9519

>  <pKa_mb>  (579) 
5.9159

>  <N_Chirals>  (579) 
1

>  <Name>  (579) 
2-{[3-fluoro-3-(3-phenyl-1,2,4-oxadiazol-5-yl)piperidin-1-yl]methyl}pyridine

>  <Smile>  (579) 
FC1(CN(Cc2ncccc2)CCC1)c1nc(-c2ccccc2)no1

>  <Color>  (579) 
BROWN

>  <Collection>  (579) 
IC

>  <InChI>  (579) 
InChI=1S/C19H19FN4O/c20-19(18-22-17(23-25-18)15-7-2-1-3-8-15)10-6-12-24(14-19)13-16-9-4-5-11-21-16/h1-5,7-9,11H,6,10,12-14H2/t19-/m0/s1

>  <InChI Key>  (579) 
SKMILJSMGAZEHX-IBGZPJMESA-N

>  <PERCENTSP3>  (579) 
31.5789

>  <Link>  (579) 
https://www.chemdiv.com/catalog/screening-compounds/compound-SA92-0103/

>  <MFCDNUMBER>  (579) 
MFCD32242455

>  <CLNUMBER>  (579) 
CM4899

>  <STEREO>  (579) 
RACEMIC MIXTURE

>  <State>  (579) 
Oil

>  <Similarity score>  (579) 
0.18

$$$$
{3-fluoro-3-[3-(pyridin-4-yl)-1,2,4-oxadiazol-5-yl]piperidin-1-yl}(1,3-thiazol-4
     RDKit          2D

 25 28  0  0  0  0  0  0  0  0999 V2000
   -1.4088   -0.5091    0.0000 N   0  0  0  0  0  0  0  0  0  0  0  0
   -0.4246   -0.6659    0.0000 C   0  0  0  0  0  0  0  0  0  0  0  0
    0.2898    0.0487    0.0000 C   0  0  0  0  0  0  0  0  0  0  0  0
   -1.8632   -1.3993    0.0000 C   0  0  0  0  0  0  0  0  0  0  0  0
    3.2921    1.7753    0.0000 C   0  0  0  0  0  0  0  0  0  0  0  0
    1.7848    0.9105    0.0000 N   0  0  0  0  0  0  0  0  0  0  0  0
   -1.1579   -2.1042    0.0000 N   0  0  0  0  0  0  0  0  0  0  0  0
    2.2862    1.7753    0.0000 C   0  0  0  0  0  0  0  0  0  0  0  0
   -0.2617   -1.6468    0.0000 O   0  0  0  0  0  0  0  0  0  0  0  0
    3.8717    2.5870    0.0000 N   0  0  0  0  0  0  0  0  0  0  0  0
    0.7819    0.9105    0.0000 C   0  0  0  0  0  0  0  0  0  0  0  0
    4.8245    1.2771    0.0000 S   0  0  0  0  0  0  0  0  0  0  0  0
    4.8245    2.2767    0.0000 C   0  0  0  0  0  0  0  0  0  0  0  0
    3.8717    0.9669    0.0000 C   0  0  0  0  0  0  0  0  0  0  0  0
    1.7848    2.6434    0.0000 O   0  0  0  0  0  0  0  0  0  0  0  0
   -2.8471   -1.5527    0.0000 C   0  0  0  0  0  0  0  0  0  0  0  0
   -0.0956    0.9669    0.0000 F   0  0  0  0  0  0  0  0  0  0  0  0
   -4.8245   -1.8630    0.0000 N   0  0  0  0  0  0  0  0  0  0  0  0
    0.7819   -0.8194    0.0000 C   0  0  0  0  0  0  0  0  0  0  0  0
    2.2862    0.0487    0.0000 C   0  0  0  0  0  0  0  0  0  0  0  0
    1.7848   -0.8194    0.0000 C   0  0  0  0  0  0  0  0  0  0  0  0
   -4.4735   -0.9322    0.0000 C   0  0  0  0  0  0  0  0  0  0  0  0
   -4.2009   -2.6434    0.0000 C   0  0  0  0  0  0  0  0  0  0  0  0
   -3.4863   -0.7820    0.0000 C   0  0  0  0  0  0  0  0  0  0  0  0
   -3.2044   -2.4899    0.0000 C   0  0  0  0  0  0  0  0  0  0  0  0
  1  2  2  0
  2  3  1  0
  1  4  1  0
  5  8  1  0
  6 11  1  0
  4  7  2  0
  7  9  1  0
  6  8  1  0
  2  9  1  0
  5 10  1  0
  3 11  1  0
 12 14  1  0
 10 13  2  0
 12 13  1  0
  5 14  2  0
  8 15  2  0
  4 16  1  0
  3 17  1  0
 18 23  2  0
 18 22  1  0
  3 19  1  0
 20 21  1  0
  6 20  1  0
 19 21  1  0
 22 24  2  0
 23 25  1  0
 16 24  1  0
 16 25  2  0
M  END
>  <IDNUMBER>  (580) 
SA92-0285

>  <available>  (580) 
101

>  <H_acceptor>  (580) 
7

>  <H_donor>  (580) 
0

>  <B_rotN>  (580) 
4

>  <N_O>  (580) 
7

>  <logP>  (580) 
1.9856

>  <logD>  (580) 
1.9855

>  <logSw>  (580) 
-2.1598

>  <PSA>  (580) 
67.282

>  <pKa_ma>  (580) 
27.1581

>  <pKa_mb>  (580) 
3.6841

>  <N_Chirals>  (580) 
1

>  <Name>  (580) 
{3-fluoro-3-[3-(pyridin-4-yl)-1,2,4-oxadiazol-5-yl]piperidin-1-yl}(1,3-thiazol-4-yl)methanone

>  <Smile>  (580) 
O=C(c1cscn1)N(CCC1)CC1(c1nc(-c2ccncc2)no1)F

>  <Color>  (580) 
ORANGE

>  <Collection>  (580) 
IC

>  <InChI>  (580) 
InChI=1S/C16H14FN5O2S/c17-16(15-20-13(21-24-15)11-2-5-18-6-3-11)4-1-7-22(9-16)14(23)12-8-25-10-19-12/h2-3,5-6,8,10H,1,4,7,9H2/t16-/m0/s1

>  <InChI Key>  (580) 
LCRDUISHRQFTPC-INIZCTEOSA-N

>  <PERCENTSP3>  (580) 
31.25

>  <Link>  (580) 
https://www.chemdiv.com/catalog/screening-compounds/compound-SA92-0285/

>  <MFCDNUMBER>  (580) 
MFCD32242586

>  <CLNUMBER>  (580) 
CM4899

>  <STEREO>  (580) 
RACEMIC MIXTURE

>  <State>  (580) 
Solid

>  <Similarity score>  (580) 
0.18

$$$$
{3-fluoro-3-[3-(pyridin-4-yl)-1,2,4-oxadiazol-5-yl]piperidin-1-yl}(oxan-4-yl)met
     RDKit          2D

 26 29  0  0  0  0  0  0  0  0999 V2000
   -0.6410    1.3790    0.0000 N   0  0  0  0  0  0  0  0  0  0  0  0
    0.3494    1.5295    0.0000 C   0  0  0  0  0  0  0  0  0  0  0  0
    1.0545    0.8244    0.0000 C   0  0  0  0  0  0  0  0  0  0  0  0
   -1.0984    2.2661    0.0000 C   0  0  0  0  0  0  0  0  0  0  0  0
    2.5558   -0.0407    0.0000 N   0  0  0  0  0  0  0  0  0  0  0  0
   -0.3932    2.9773    0.0000 N   0  0  0  0  0  0  0  0  0  0  0  0
    0.4999    2.5199    0.0000 O   0  0  0  0  0  0  0  0  0  0  0  0
    3.0572   -0.9120    0.0000 C   0  0  0  0  0  0  0  0  0  0  0  0
    1.5593   -0.0407    0.0000 C   0  0  0  0  0  0  0  0  0  0  0  0
    4.0540   -0.9120    0.0000 O   0  0  0  0  0  0  0  0  0  0  0  0
   -2.0764    2.4226    0.0000 C   0  0  0  0  0  0  0  0  0  0  0  0
    0.6692   -0.0972    0.0000 F   0  0  0  0  0  0  0  0  0  0  0  0
   -4.0540    2.7330    0.0000 N   0  0  0  0  0  0  0  0  0  0  0  0
    2.5558   -1.7707    0.0000 C   0  0  0  0  0  0  0  0  0  0  0  0
    1.5593   -3.5071    0.0000 O   0  0  0  0  0  0  0  0  0  0  0  0
    1.5593    1.6924    0.0000 C   0  0  0  0  0  0  0  0  0  0  0  0
    3.0572    0.8244    0.0000 C   0  0  0  0  0  0  0  0  0  0  0  0
    2.5558    1.6924    0.0000 C   0  0  0  0  0  0  0  0  0  0  0  0
   -3.4241    3.5071    0.0000 C   0  0  0  0  0  0  0  0  0  0  0  0
   -3.7031    1.7958    0.0000 C   0  0  0  0  0  0  0  0  0  0  0  0
    1.0545   -2.6357    0.0000 C   0  0  0  0  0  0  0  0  0  0  0  0
    2.5558   -3.5071    0.0000 C   0  0  0  0  0  0  0  0  0  0  0  0
   -2.4430    3.3536    0.0000 C   0  0  0  0  0  0  0  0  0  0  0  0
   -2.7093    1.6423    0.0000 C   0  0  0  0  0  0  0  0  0  0  0  0
    1.5593   -1.7707    0.0000 C   0  0  0  0  0  0  0  0  0  0  0  0
    3.0572   -2.6357    0.0000 C   0  0  0  0  0  0  0  0  0  0  0  0
  1  2  2  0
  2  3  1  0
  1  4  1  0
  5  9  1  0
  4  6  2  0
  6  7  1  0
  2  7  1  0
  5  8  1  0
  3  9  1  0
  8 10  2  0
  4 11  1  0
  3 12  1  0
 13 20  1  0
 13 19  2  0
  8 14  1  0
 15 22  1  0
  3 16  1  0
 17 18  1  0
  5 17  1  0
 16 18  1  0
 19 23  1  0
 20 24  2  0
 21 25  1  0
 15 21  1  0
 22 26  1  0
 11 23  2  0
 11 24  1  0
 14 25  1  0
 14 26  1  0
M  END
>  <IDNUMBER>  (581) 
SA92-0273

>  <available>  (581) 
47

>  <H_acceptor>  (581) 
7

>  <H_donor>  (581) 
0

>  <B_rotN>  (581) 
4

>  <N_O>  (581) 
7

>  <logP>  (581) 
1.9226

>  <logD>  (581) 
1.9225

>  <logSw>  (581) 
-1.9448

>  <PSA>  (581) 
65.755

>  <pKa_ma>  (581) 
23.3669

>  <pKa_mb>  (581) 
3.6841

>  <N_Chirals>  (581) 
1

>  <Name>  (581) 
{3-fluoro-3-[3-(pyridin-4-yl)-1,2,4-oxadiazol-5-yl]piperidin-1-yl}(oxan-4-yl)methanone

>  <Smile>  (581) 
O=C(C1CCOCC1)N(CCC1)CC1(c1nc(-c2ccncc2)no1)F

>  <Color>  (581) 
YELLOW

>  <Collection>  (581) 
IC

>  <InChI>  (581) 
InChI=1S/C18H21FN4O3/c19-18(17-21-15(22-26-17)13-2-7-20-8-3-13)6-1-9-23(12-18)16(24)14-4-10-25-11-5-14/h2-3,7-8,14H,1,4-6,9-12H2/t18-/m0/s1

>  <InChI Key>  (581) 
DWNNWQPYIKDWDC-SFHVURJKSA-N

>  <PERCENTSP3>  (581) 
55.56

>  <Link>  (581) 
https://www.chemdiv.com/catalog/screening-compounds/compound-SA92-0273/

>  <MFCDNUMBER>  (581) 
MFCD32242456

>  <CLNUMBER>  (581) 
CM4899

>  <STEREO>  (581) 
RACEMIC MIXTURE

>  <State>  (581) 
Solid

>  <Similarity score>  (581) 
0.18

$$$$
1-[3-fluoro-3-(3-phenyl-1,2,4-oxadiazol-5-yl)piperidin-1-yl]-3-(3-methoxyphenyl)
     RDKit          2D

 30 33  0  0  0  0  0  0  0  0999 V2000
    0.6375   -2.2386    0.0000 N   0  0  0  0  0  0  0  0  0  0  0  0
   -0.3492   -2.3984    0.0000 C   0  0  0  0  0  0  0  0  0  0  0  0
   -1.0575   -1.6904    0.0000 C   0  0  0  0  0  0  0  0  0  0  0  0
    1.0887   -3.1316    0.0000 C   0  0  0  0  0  0  0  0  0  0  0  0
    0.3839   -3.8333    0.0000 N   0  0  0  0  0  0  0  0  0  0  0  0
   -2.5613   -0.8255    0.0000 N   0  0  0  0  0  0  0  0  0  0  0  0
   -0.5091   -3.3759    0.0000 O   0  0  0  0  0  0  0  0  0  0  0  0
   -1.5557   -0.8255    0.0000 C   0  0  0  0  0  0  0  0  0  0  0  0
   -3.0595    0.0454    0.0000 C   0  0  0  0  0  0  0  0  0  0  0  0
    2.0757   -3.2819    0.0000 C   0  0  0  0  0  0  0  0  0  0  0  0
   -4.0558    0.0454    0.0000 O   0  0  0  0  0  0  0  0  0  0  0  0
   -2.5613    0.9102    0.0000 C   0  0  0  0  0  0  0  0  0  0  0  0
   -0.6720   -0.7629    0.0000 F   0  0  0  0  0  0  0  0  0  0  0  0
   -1.5557   -2.5583    0.0000 C   0  0  0  0  0  0  0  0  0  0  0  0
   -3.0595   -1.6904    0.0000 C   0  0  0  0  0  0  0  0  0  0  0  0
   -1.5557    2.6397    0.0000 C   0  0  0  0  0  0  0  0  0  0  0  0
   -3.0595    1.7748    0.0000 C   0  0  0  0  0  0  0  0  0  0  0  0
   -2.5613    2.6397    0.0000 C   0  0  0  0  0  0  0  0  0  0  0  0
   -1.0575    3.5076    0.0000 C   0  0  0  0  0  0  0  0  0  0  0  0
   -0.0579    3.5076    0.0000 O   0  0  0  0  0  0  0  0  0  0  0  0
   -2.5613   -2.5583    0.0000 C   0  0  0  0  0  0  0  0  0  0  0  0
   -2.5613    4.3722    0.0000 C   0  0  0  0  0  0  0  0  0  0  0  0
    2.7053   -2.5113    0.0000 C   0  0  0  0  0  0  0  0  0  0  0  0
    2.4329   -4.2186    0.0000 C   0  0  0  0  0  0  0  0  0  0  0  0
   -3.0595    3.5076    0.0000 C   0  0  0  0  0  0  0  0  0  0  0  0
   -1.5557    4.3722    0.0000 C   0  0  0  0  0  0  0  0  0  0  0  0
    0.4402    2.6397    0.0000 C   0  0  0  0  0  0  0  0  0  0  0  0
    3.6923   -2.6709    0.0000 C   0  0  0  0  0  0  0  0  0  0  0  0
    3.4259   -4.3722    0.0000 C   0  0  0  0  0  0  0  0  0  0  0  0
    4.0558   -3.5983    0.0000 C   0  0  0  0  0  0  0  0  0  0  0  0
  1  2  2  0
  2  3  1  0
  1  4  1  0
  4  5  2  0
  5  7  1  0
  6  8  1  0
  2  7  1  0
  3  8  1  0
  6  9  1  0
  4 10  1  0
  9 11  2  0
  9 12  1  0
  3 13  1  0
  3 14  1  0
 15 21  1  0
  6 15  1  0
 16 18  2  0
 12 17  1  0
 17 18  1  0
 16 19  1  0
 19 20  1  0
 14 21  1  0
 22 25  2  0
 10 23  1  0
 10 24  2  0
 18 25  1  0
 22 26  1  0
 19 26  2  0
 20 27  1  0
 23 28  2  0
 24 29  1  0
 29 30  2  0
 28 30  1  0
M  END
>  <IDNUMBER>  (582) 
SA92-0099

>  <available>  (582) 
187

>  <H_acceptor>  (582) 
6

>  <H_donor>  (582) 
0

>  <B_rotN>  (582) 
7

>  <N_O>  (582) 
6

>  <logP>  (582) 
4.4518

>  <logD>  (582) 
4.4518

>  <logSw>  (582) 
-4.469

>  <PSA>  (582) 
55.242

>  <pKa_ma>  (582) 
22.9745

>  <pKa_mb>  (582) 
-2.0325

>  <N_Chirals>  (582) 
1

>  <Name>  (582) 
1-[3-fluoro-3-(3-phenyl-1,2,4-oxadiazol-5-yl)piperidin-1-yl]-3-(3-methoxyphenyl)propan-1-one

>  <Smile>  (582) 
COc1cccc(CCC(N(CCC2)CC2(c2nc(-c3ccccc3)no2)F)=O)c1

>  <Color>  (582) 
YELLOW

>  <Collection>  (582) 
IC

>  <InChI>  (582) 
InChI=1S/C23H24FN3O3/c1-29-19-10-5-7-17(15-19)11-12-20(28)27-14-6-13-23(24,16-27)22-25-21(26-30-22)18-8-3-2-4-9-18/h2-5,7-10,15H,6,11-14,16H2,1H3/t23-/m0/s1

>  <InChI Key>  (582) 
SYQPGYGIFJXQTE-QHCPKHFHSA-N

>  <PERCENTSP3>  (582) 
34.78

>  <Link>  (582) 
https://www.chemdiv.com/catalog/screening-compounds/compound-SA92-0099/

>  <MFCDNUMBER>  (582) 
MFCD32242452

>  <CLNUMBER>  (582) 
CM4899

>  <STEREO>  (582) 
RACEMIC MIXTURE

>  <State>  (582) 
Oil

>  <Similarity score>  (582) 
0.18

$$$$
{3-fluoro-3-[3-(pyridin-4-yl)-1,2,4-oxadiazol-5-yl]piperidin-1-yl}(4-methyl-1,3-
     RDKit          2D

 26 29  0  0  0  0  0  0  0  0999 V2000
   -1.4092   -0.9545    0.0000 N   0  0  0  0  0  0  0  0  0  0  0  0
    3.2933    1.3370    0.0000 C   0  0  0  0  0  0  0  0  0  0  0  0
   -0.4247   -1.1081    0.0000 C   0  0  0  0  0  0  0  0  0  0  0  0
    2.2870    1.3370    0.0000 C   0  0  0  0  0  0  0  0  0  0  0  0
    0.2899   -0.3935    0.0000 C   0  0  0  0  0  0  0  0  0  0  0  0
   -1.8638   -1.8416    0.0000 C   0  0  0  0  0  0  0  0  0  0  0  0
    1.7884    0.4656    0.0000 N   0  0  0  0  0  0  0  0  0  0  0  0
   -1.1583   -2.5472    0.0000 N   0  0  0  0  0  0  0  0  0  0  0  0
   -0.2618   -2.0956    0.0000 O   0  0  0  0  0  0  0  0  0  0  0  0
    3.8730    2.1460    0.0000 C   0  0  0  0  0  0  0  0  0  0  0  0
    0.7821    0.4656    0.0000 C   0  0  0  0  0  0  0  0  0  0  0  0
    4.8262    1.8356    0.0000 N   0  0  0  0  0  0  0  0  0  0  0  0
    3.8730    0.5220    0.0000 O   0  0  0  0  0  0  0  0  0  0  0  0
    4.8262    0.8324    0.0000 C   0  0  0  0  0  0  0  0  0  0  0  0
    1.7884    2.2024    0.0000 O   0  0  0  0  0  0  0  0  0  0  0  0
   -2.8480   -1.9985    0.0000 C   0  0  0  0  0  0  0  0  0  0  0  0
   -0.0956    0.5220    0.0000 F   0  0  0  0  0  0  0  0  0  0  0  0
   -4.8262   -2.3089    0.0000 N   0  0  0  0  0  0  0  0  0  0  0  0
    0.7821   -1.2649    0.0000 C   0  0  0  0  0  0  0  0  0  0  0  0
    2.2870   -0.3935    0.0000 C   0  0  0  0  0  0  0  0  0  0  0  0
    3.5659    3.0895    0.0000 C   0  0  0  0  0  0  0  0  0  0  0  0
    1.7884   -1.2649    0.0000 C   0  0  0  0  0  0  0  0  0  0  0  0
   -4.2024   -3.0895    0.0000 C   0  0  0  0  0  0  0  0  0  0  0  0
   -4.4687   -1.3807    0.0000 C   0  0  0  0  0  0  0  0  0  0  0  0
   -3.2055   -2.9327    0.0000 C   0  0  0  0  0  0  0  0  0  0  0  0
   -3.4875   -1.2272    0.0000 C   0  0  0  0  0  0  0  0  0  0  0  0
  2  4  1  0
  1  3  2  0
  4  7  1  0
  3  5  1  0
  1  6  1  0
  7 11  1  0
  6  8  2  0
  8  9  1  0
  3  9  1  0
  2 10  2  0
  5 11  1  0
 10 12  1  0
  2 13  1  0
 13 14  1  0
 12 14  2  0
  4 15  2  0
  6 16  1  0
  5 17  1  0
 18 24  1  0
 18 23  2  0
  5 19  1  0
 20 22  1  0
  7 20  1  0
 10 21  1  0
 19 22  1  0
 23 25  1  0
 24 26  2  0
 16 25  2  0
 16 26  1  0
M  END
>  <IDNUMBER>  (583) 
SA92-0278

>  <available>  (583) 
17

>  <H_acceptor>  (583) 
8

>  <H_donor>  (583) 
0

>  <B_rotN>  (583) 
4

>  <N_O>  (583) 
8

>  <logP>  (583) 
1.4532

>  <logD>  (583) 
1.4531

>  <logSw>  (583) 
-1.5168

>  <PSA>  (583) 
76.568

>  <pKa_ma>  (583) 
27.1581

>  <pKa_mb>  (583) 
3.6841

>  <N_Chirals>  (583) 
1

>  <Name>  (583) 
{3-fluoro-3-[3-(pyridin-4-yl)-1,2,4-oxadiazol-5-yl]piperidin-1-yl}(4-methyl-1,3-oxazol-5-yl)methanone

>  <Smile>  (583) 
Cc1c(C(N(CCC2)CC2(c2nc(-c3ccncc3)no2)F)=O)ocn1

>  <Color>  (583) 
YELLOW

>  <Collection>  (583) 
IC

>  <InChI>  (583) 
InChI=1S/C17H16FN5O3/c1-11-13(25-10-20-11)15(24)23-8-2-5-17(18,9-23)16-21-14(22-26-16)12-3-6-19-7-4-12/h3-4,6-7,10H,2,5,8-9H2,1H3/t17-/m0/s1

>  <InChI Key>  (583) 
OXUPVKKBOGJGHQ-KRWDZBQOSA-N

>  <PERCENTSP3>  (583) 
35.29

>  <Link>  (583) 
https://www.chemdiv.com/catalog/screening-compounds/compound-SA92-0278/

>  <MFCDNUMBER>  (583) 
MFCD32242461

>  <CLNUMBER>  (583) 
CM4899

>  <STEREO>  (583) 
RACEMIC MIXTURE

>  <State>  (583) 
Solid

>  <Similarity score>  (583) 
0.18

$$$$
2-(3,5-dimethyl-1,2-oxazol-4-yl)-1-{3-fluoro-3-[3-(pyridin-4-yl)-1,2,4-oxadiazol
     RDKit          2D

 28 31  0  0  0  0  0  0  0  0999 V2000
   -1.7176    1.2961    0.0000 N   0  0  0  0  0  0  0  0  0  0  0  0
   -0.7303    1.4593    0.0000 C   0  0  0  0  0  0  0  0  0  0  0  0
    3.4763   -1.8509    0.0000 C   0  0  0  0  0  0  0  0  0  0  0  0
   -0.0315    0.7508    0.0000 C   0  0  0  0  0  0  0  0  0  0  0  0
   -2.1786    2.1896    0.0000 C   0  0  0  0  0  0  0  0  0  0  0  0
   -1.4702    2.9041    0.0000 N   0  0  0  0  0  0  0  0  0  0  0  0
    4.6799   -2.9324    0.0000 N   0  0  0  0  0  0  0  0  0  0  0  0
    1.4731   -0.1144    0.0000 N   0  0  0  0  0  0  0  0  0  0  0  0
    1.9717   -0.9889    0.0000 C   0  0  0  0  0  0  0  0  0  0  0  0
   -0.5767    2.4466    0.0000 O   0  0  0  0  0  0  0  0  0  0  0  0
    2.9745   -0.9889    0.0000 C   0  0  0  0  0  0  0  0  0  0  0  0
    3.8146   -3.4339    0.0000 O   0  0  0  0  0  0  0  0  0  0  0  0
    3.0779   -2.7663    0.0000 C   0  0  0  0  0  0  0  0  0  0  0  0
    4.4729   -1.9544    0.0000 C   0  0  0  0  0  0  0  0  0  0  0  0
    0.4733   -0.1144    0.0000 C   0  0  0  0  0  0  0  0  0  0  0  0
   -3.1660    2.3492    0.0000 C   0  0  0  0  0  0  0  0  0  0  0  0
    1.4731   -1.8509    0.0000 O   0  0  0  0  0  0  0  0  0  0  0  0
   -0.4106   -0.1709    0.0000 F   0  0  0  0  0  0  0  0  0  0  0  0
   -5.1406    2.6628    0.0000 N   0  0  0  0  0  0  0  0  0  0  0  0
    0.4733    1.6157    0.0000 C   0  0  0  0  0  0  0  0  0  0  0  0
    1.9717    0.7508    0.0000 C   0  0  0  0  0  0  0  0  0  0  0  0
    2.0906   -2.9729    0.0000 C   0  0  0  0  0  0  0  0  0  0  0  0
    1.4731    1.6157    0.0000 C   0  0  0  0  0  0  0  0  0  0  0  0
    5.1406   -1.2145    0.0000 C   0  0  0  0  0  0  0  0  0  0  0  0
   -4.5166    3.4339    0.0000 C   0  0  0  0  0  0  0  0  0  0  0  0
   -4.7833    1.7288    0.0000 C   0  0  0  0  0  0  0  0  0  0  0  0
   -3.5293    3.2803    0.0000 C   0  0  0  0  0  0  0  0  0  0  0  0
   -3.7960    1.5721    0.0000 C   0  0  0  0  0  0  0  0  0  0  0  0
  1  2  2  0
  3 11  1  0
  2  4  1  0
  1  5  1  0
  5  6  2  0
  6 10  1  0
  7 14  2  0
  8 15  1  0
  8  9  1  0
  2 10  1  0
  9 11  1  0
 12 13  1  0
  7 12  1  0
  3 13  2  0
  3 14  1  0
  4 15  1  0
  5 16  1  0
  9 17  2  0
  4 18  1  0
 19 26  1  0
 19 25  2  0
  4 20  1  0
 21 23  1  0
  8 21  1  0
 13 22  1  0
 20 23  1  0
 14 24  1  0
 25 27  1  0
 26 28  2  0
 16 27  2  0
 16 28  1  0
M  END
>  <IDNUMBER>  (584) 
SA92-0302

>  <available>  (584) 
66

>  <H_acceptor>  (584) 
8

>  <H_donor>  (584) 
0

>  <B_rotN>  (584) 
5

>  <N_O>  (584) 
8

>  <logP>  (584) 
2.1085

>  <logD>  (584) 
2.1084

>  <logSw>  (584) 
-2.1248

>  <PSA>  (584) 
79.165

>  <pKa_ma>  (584) 
13.9111

>  <pKa_mb>  (584) 
3.6841

>  <N_Chirals>  (584) 
1

>  <Name>  (584) 
2-(3,5-dimethyl-1,2-oxazol-4-yl)-1-{3-fluoro-3-[3-(pyridin-4-yl)-1,2,4-oxadiazol-5-yl]piperidin-1-yl}ethan-1-one

>  <Smile>  (584) 
Cc1noc(C)c1CC(N(CCC1)CC1(c1nc(-c2ccncc2)no1)F)=O

>  <Color>  (584) 
YELLOW

>  <Collection>  (584) 
IC

>  <InChI>  (584) 
InChI=1S/C19H20FN5O3/c1-12-15(13(2)27-23-12)10-16(26)25-9-3-6-19(20,11-25)18-22-17(24-28-18)14-4-7-21-8-5-14/h4-5,7-8H,3,6,9-11H2,1-2H3/t19-/m0/s1

>  <InChI Key>  (584) 
JZSPCVVKYCTLQG-IBGZPJMESA-N

>  <PERCENTSP3>  (584) 
42.1

>  <Link>  (584) 
https://www.chemdiv.com/catalog/screening-compounds/compound-SA92-0302/

>  <MFCDNUMBER>  (584) 
MFCD32242712

>  <CLNUMBER>  (584) 
CM4899

>  <STEREO>  (584) 
RACEMIC MIXTURE

>  <State>  (584) 
Solid

>  <Similarity score>  (584) 
0.18

$$$$
3-fluoro-1-[(5-methylthiophen-2-yl)methyl]-3-(3-phenyl-1,2,4-oxadiazol-5-yl)pipe
     RDKit          2D

 25 28  0  0  0  0  0  0  0  0999 V2000
    0.1410   -1.2896    0.0000 N   0  0  0  0  0  0  0  0  0  0  0  0
   -0.8463   -1.4493    0.0000 C   0  0  0  0  0  0  0  0  0  0  0  0
    0.5862   -2.1889    0.0000 C   0  0  0  0  0  0  0  0  0  0  0  0
   -1.5575   -0.7443    0.0000 C   0  0  0  0  0  0  0  0  0  0  0  0
   -0.1128   -2.8943    0.0000 N   0  0  0  0  0  0  0  0  0  0  0  0
   -1.0030   -2.4366    0.0000 O   0  0  0  0  0  0  0  0  0  0  0  0
   -2.0652    1.9572    0.0000 S   0  0  0  0  0  0  0  0  0  0  0  0
   -3.0620    0.1206    0.0000 N   0  0  0  0  0  0  0  0  0  0  0  0
   -3.0620    1.8508    0.0000 C   0  0  0  0  0  0  0  0  0  0  0  0
   -2.0559    0.1206    0.0000 C   0  0  0  0  0  0  0  0  0  0  0  0
   -1.8584    2.9414    0.0000 C   0  0  0  0  0  0  0  0  0  0  0  0
   -3.4661    2.7658    0.0000 C   0  0  0  0  0  0  0  0  0  0  0  0
   -2.7171    3.4332    0.0000 C   0  0  0  0  0  0  0  0  0  0  0  0
   -3.5538    0.9889    0.0000 C   0  0  0  0  0  0  0  0  0  0  0  0
    1.5796   -2.3428    0.0000 C   0  0  0  0  0  0  0  0  0  0  0  0
   -1.1721    0.1770    0.0000 F   0  0  0  0  0  0  0  0  0  0  0  0
   -2.0559   -1.6092    0.0000 C   0  0  0  0  0  0  0  0  0  0  0  0
   -3.5538   -0.7443    0.0000 C   0  0  0  0  0  0  0  0  0  0  0  0
   -3.0620   -1.6092    0.0000 C   0  0  0  0  0  0  0  0  0  0  0  0
   -0.9402    3.3455    0.0000 C   0  0  0  0  0  0  0  0  0  0  0  0
    2.2094   -1.5621    0.0000 C   0  0  0  0  0  0  0  0  0  0  0  0
    1.9401   -3.2733    0.0000 C   0  0  0  0  0  0  0  0  0  0  0  0
    2.9270   -3.4332    0.0000 C   0  0  0  0  0  0  0  0  0  0  0  0
    3.1998   -1.7191    0.0000 C   0  0  0  0  0  0  0  0  0  0  0  0
    3.5538   -2.6593    0.0000 C   0  0  0  0  0  0  0  0  0  0  0  0
  1  2  2  0
  1  3  1  0
  2  4  1  0
  3  5  2  0
  5  6  1  0
  2  6  1  0
  7  9  1  0
  8 10  1  0
  9 14  1  0
  4 10  1  0
  7 11  1  0
  9 12  2  0
 12 13  1  0
 11 13  2  0
  8 14  1  0
  3 15  1  0
  4 16  1  0
  4 17  1  0
 18 19  1  0
  8 18  1  0
 17 19  1  0
 11 20  1  0
 15 21  1  0
 15 22  2  0
 22 23  1  0
 21 24  2  0
 23 25  2  0
 24 25  1  0
M  END
>  <IDNUMBER>  (585) 
SA92-0030

>  <available>  (585) 
3

>  <H_acceptor>  (585) 
4

>  <H_donor>  (585) 
0

>  <B_rotN>  (585) 
4

>  <N_O>  (585) 
4

>  <logP>  (585) 
4.6903

>  <logD>  (585) 
4.3536

>  <logSw>  (585) 
-4.2989

>  <PSA>  (585) 
36.329

>  <pKa_ma>  (585) 
26.9519

>  <pKa_mb>  (585) 
7.4686

>  <N_Chirals>  (585) 
1

>  <Name>  (585) 
3-fluoro-1-[(5-methylthiophen-2-yl)methyl]-3-(3-phenyl-1,2,4-oxadiazol-5-yl)piperidine

>  <Smile>  (585) 
Cc1ccc(CN(CCC2)CC2(c2nc(-c3ccccc3)no2)F)s1

>  <Color>  (585) 
ORANGE

>  <Collection>  (585) 
IC

>  <InChI>  (585) 
InChI=1S/C19H20FN3OS/c1-14-8-9-16(25-14)12-23-11-5-10-19(20,13-23)18-21-17(22-24-18)15-6-3-2-4-7-15/h2-4,6-9H,5,10-13H2,1H3/t19-/m0/s1

>  <InChI Key>  (585) 
PDWYOOOAJSXAKN-IBGZPJMESA-N

>  <PERCENTSP3>  (585) 
36.84

>  <Link>  (585) 
https://www.chemdiv.com/catalog/screening-compounds/compound-SA92-0030/

>  <MFCDNUMBER>  (585) 
MFCD32241567

>  <CLNUMBER>  (585) 
CM4899

>  <STEREO>  (585) 
RACEMIC MIXTURE

>  <State>  (585) 
Liquid

>  <Similarity score>  (585) 
0.18

$$$$
2-(4-chloro-2-methylphenoxy)-N-(3-cyano-5,6-dihydro-4H-cyclopenta[b]thiophen-2-y
     RDKit          2D

 24 26  0  0  0  0  0  0  0  0999 V2000
   -2.0067   -0.2647    0.0000 C   0  0  0  0  0  0  0  0  0  0  0  0
   -2.6359   -1.0524    0.0000 C   0  0  0  0  0  0  0  0  0  0  0  0
   -2.5153    0.5523    0.0000 S   0  0  0  0  0  0  0  0  0  0  0  0
   -3.5988   -0.6731    0.0000 C   0  0  0  0  0  0  0  0  0  0  0  0
   -1.0105   -0.3522    0.0000 N   0  0  0  0  0  0  0  0  0  0  0  0
   -3.4988    0.3188    0.0000 C   0  0  0  0  0  0  0  0  0  0  0  0
   -0.4480    0.4647    0.0000 C   0  0  0  0  0  0  0  0  0  0  0  0
   -2.3693   -2.0024    0.0000 C   0  0  0  0  0  0  0  0  0  0  0  0
   -2.1066   -2.9528    0.0000 N   0  0  0  0  0  0  0  0  0  0  0  0
    1.0773    1.2482    0.0000 O   0  0  0  0  0  0  0  0  0  0  0  0
    2.0816    1.2149    0.0000 C   0  0  0  0  0  0  0  0  0  0  0  0
    0.5481    0.3980    0.0000 C   0  0  0  0  0  0  0  0  0  0  0  0
    2.6152    2.0775    0.0000 C   0  0  0  0  0  0  0  0  0  0  0  0
   -0.8440    1.3358    0.0000 O   0  0  0  0  0  0  0  0  0  0  0  0
    3.6321    2.0653    0.0000 C   0  0  0  0  0  0  0  0  0  0  0  0
    2.5608    0.3522    0.0000 C   0  0  0  0  0  0  0  0  0  0  0  0
    4.0947    1.1815    0.0000 C   0  0  0  0  0  0  0  0  0  0  0  0
   -4.5491   -0.9065    0.0000 C   0  0  0  0  0  0  0  0  0  0  0  0
   -4.4280    0.7189    0.0000 C   0  0  0  0  0  0  0  0  0  0  0  0
    3.5653    0.3105    0.0000 C   0  0  0  0  0  0  0  0  0  0  0  0
    5.0907    1.1733    0.0000 Cl  0  0  0  0  0  0  0  0  0  0  0  0
   -5.0907   -0.0229    0.0000 C   0  0  0  0  0  0  0  0  0  0  0  0
    2.1276    2.9528    0.0000 C   0  0  0  0  0  0  0  0  0  0  0  0
    0.9774   -0.5064    0.0000 C   0  0  0  0  0  0  0  0  0  0  0  0
  1  2  2  0
  1  3  1  0
  2  4  1  0
  4  6  2  0
  1  5  1  0
  3  6  1  0
  5  7  1  0
  2  8  1  0
  8  9  3  0
 10 12  1  0
 10 11  1  0
  7 12  1  0
 11 13  2  0
  7 14  2  0
 13 15  1  0
 11 16  1  0
 17 20  1  0
 15 17  2  0
  4 18  1  0
  6 19  1  0
 16 20  2  0
 17 21  1  0
 19 22  1  0
 18 22  1  0
 13 23  1  0
 12 24  1  0
M  END
>  <IDNUMBER>  (586) 
Y205-6122

>  <available>  (586) 
17

>  <H_acceptor>  (586) 
4

>  <H_donor>  (586) 
1

>  <B_rotN>  (586) 
6

>  <N_O>  (586) 
4

>  <logP>  (586) 
5.1134

>  <logD>  (586) 
3.6755

>  <logSw>  (586) 
-5.5602

>  <PSA>  (586) 
47.342

>  <pKa_ma>  (586) 
5.9783

>  <pKa_mb>  (586) 
-6.1288

>  <N_Chirals>  (586) 
1

>  <Name>  (586) 
2-(4-chloro-2-methylphenoxy)-N-(3-cyano-5,6-dihydro-4H-cyclopenta[b]thiophen-2-yl)propanamide

>  <Smile>  (586) 
CC(C(Nc(sc1c2CCC1)c2C#N)=O)Oc(cc1)c(C)cc1Cl

>  <Color>  (586) 
BROWN

>  <Collection>  (586) 
DC

>  <InChI>  (586) 
InChI=1S/C18H17ClN2O2S/c1-10-8-12(19)6-7-15(10)23-11(2)17(22)21-18-14(9-20)13-4-3-5-16(13)24-18/h6-8,11H,3-5H2,1-2H3,(H,21,22)/t11-/m0/s1

>  <InChI Key>  (586) 
PZOFNWUCEWCCMZ-NSHDSACASA-N

>  <PERCENTSP3>  (586) 
33.33

>  <Link>  (586) 
https://www.chemdiv.com/catalog/screening-compounds/compound-Y205-6122/

>  <MFCDNUMBER>  (586) 
MFCD07182410

>  <STEREO>  (586) 
RACEMIC MIXTURE

>  <State>  (586) 
Solid

>  <Similarity score>  (586) 
0.18

$$$$
3-amino-N-(3-cyano-4,5,6,7-tetrahydro-1-benzothiophen-2-yl)-6-methylthieno[2,3-b
     RDKit          2D

 25 28  0  0  0  0  0  0  0  0999 V2000
    0.8149   -1.2940    0.0000 C   0  0  0  0  0  0  0  0  0  0  0  0
   -1.6858   -0.4315    0.0000 C   0  0  0  0  0  0  0  0  0  0  0  0
   -2.2693    0.3856    0.0000 C   0  0  0  0  0  0  0  0  0  0  0  0
    1.4066   -2.1026    0.0000 S   0  0  0  0  0  0  0  0  0  0  0  0
    2.3569   -1.7900    0.0000 C   0  0  0  0  0  0  0  0  0  0  0  0
    1.4066   -0.4815    0.0000 C   0  0  0  0  0  0  0  0  0  0  0  0
    2.3569   -0.7940    0.0000 C   0  0  0  0  0  0  0  0  0  0  0  0
   -0.1813   -1.2940    0.0000 C   0  0  0  0  0  0  0  0  0  0  0  0
   -2.2693   -1.2399    0.0000 S   0  0  0  0  0  0  0  0  0  0  0  0
   -3.2281    0.0688    0.0000 C   0  0  0  0  0  0  0  0  0  0  0  0
   -0.6813   -0.4315    0.0000 N   0  0  0  0  0  0  0  0  0  0  0  0
   -3.2281   -0.9315    0.0000 C   0  0  0  0  0  0  0  0  0  0  0  0
    3.2196   -2.2902    0.0000 N   0  0  0  0  0  0  0  0  0  0  0  0
   -1.9568    1.3356    0.0000 C   0  0  0  0  0  0  0  0  0  0  0  0
   -1.6484    2.2902    0.0000 N   0  0  0  0  0  0  0  0  0  0  0  0
    3.2154   -0.2939    0.0000 C   0  0  0  0  0  0  0  0  0  0  0  0
   -0.6813   -2.1651    0.0000 O   0  0  0  0  0  0  0  0  0  0  0  0
    1.0982    0.4689    0.0000 N   0  0  0  0  0  0  0  0  0  0  0  0
    4.0864   -1.7900    0.0000 C   0  0  0  0  0  0  0  0  0  0  0  0
    4.0823   -0.7899    0.0000 C   0  0  0  0  0  0  0  0  0  0  0  0
   -4.0905    0.5772    0.0000 C   0  0  0  0  0  0  0  0  0  0  0  0
   -4.0905   -1.4274    0.0000 C   0  0  0  0  0  0  0  0  0  0  0  0
    4.9491   -2.2902    0.0000 C   0  0  0  0  0  0  0  0  0  0  0  0
   -4.9491    0.0688    0.0000 C   0  0  0  0  0  0  0  0  0  0  0  0
   -4.9491   -0.9315    0.0000 C   0  0  0  0  0  0  0  0  0  0  0  0
  2 11  1  0
  2  3  2  0
  1  4  1  0
  4  5  1  0
  1  6  2  0
  6  7  1  0
  5  7  2  0
  1  8  1  0
  2  9  1  0
  3 10  1  0
 10 12  2  0
  8 11  1  0
  9 12  1  0
  5 13  1  0
  3 14  1  0
 14 15  3  0
  7 16  1  0
  8 17  2  0
  6 18  1  0
 13 19  2  0
 19 20  1  0
 16 20  2  0
 10 21  1  0
 12 22  1  0
 19 23  1  0
 21 24  1  0
 24 25  1  0
 22 25  1  0
M  END
>  <IDNUMBER>  (587) 
8018-8815

>  <available>  (587) 
7

>  <H_acceptor>  (587) 
4

>  <H_donor>  (587) 
3

>  <B_rotN>  (587) 
4

>  <N_O>  (587) 
5

>  <logP>  (587) 
4.0861

>  <logD>  (587) 
2.5869

>  <logSw>  (587) 
-4.5521

>  <PSA>  (587) 
69.014

>  <pKa_ma>  (587) 
5.9148

>  <pKa_mb>  (587) 
4.3992

>  <N_Chirals>  (587) 
0

>  <Name>  (587) 
3-amino-N-(3-cyano-4,5,6,7-tetrahydro-1-benzothiophen-2-yl)-6-methylthieno[2,3-b]pyridine-2-carboxamide

>  <Smile>  (587) 
Cc1ccc(c(N)c(C(Nc(sc2c3CCCC2)c3C#N)=O)s2)c2n1

>  <Color>  (587) 
YELLOW

>  <Collection>  (587) 
DC

>  <InChI>  (587) 
InChI=1S/C18H16N4OS2/c1-9-6-7-11-14(20)15(25-17(11)21-9)16(23)22-18-12(8-19)10-4-2-3-5-13(10)24-18/h6-7H,2-5,20H2,1H3,(H,22,23)

>  <InChI Key>  (587) 
DKPBECBPZQVPMC-UHFFFAOYSA-N

>  <PERCENTSP3>  (587) 
27.8

>  <Link>  (587) 
https://www.chemdiv.com/catalog/screening-compounds/compound-8018-8815/

>  <MFCDNUMBER>  (587) 
MFCD09062872

>  <STEREO>  (587) 
ACHIRAL

>  <State>  (587) 
Solid

>  <Similarity score>  (587) 
0.18

$$$$
2-{[3-cyano-6-(4-methoxyphenyl)pyridin-2-yl]sulfanyl}-N-(3-cyano-4,5,6,7-tetrahy
     RDKit          2D

 32 35  0  0  0  0  0  0  0  0999 V2000
    1.4671    2.7971    0.0000 C   0  0  0  0  0  0  0  0  0  0  0  0
    1.0587    3.7100    0.0000 C   0  0  0  0  0  0  0  0  0  0  0  0
    2.4594    2.8971    0.0000 S   0  0  0  0  0  0  0  0  0  0  0  0
    1.8050    4.3686    0.0000 C   0  0  0  0  0  0  0  0  0  0  0  0
    2.6720    3.8767    0.0000 C   0  0  0  0  0  0  0  0  0  0  0  0
   -1.5341   -0.6753    0.0000 N   0  0  0  0  0  0  0  0  0  0  0  0
   -2.0343    0.1959    0.0000 C   0  0  0  0  0  0  0  0  0  0  0  0
    0.9670    1.9259    0.0000 N   0  0  0  0  0  0  0  0  0  0  0  0
   -3.0348    0.1959    0.0000 C   0  0  0  0  0  0  0  0  0  0  0  0
    0.0835    3.9185    0.0000 C   0  0  0  0  0  0  0  0  0  0  0  0
   -2.0343   -1.5381    0.0000 C   0  0  0  0  0  0  0  0  0  0  0  0
   -0.5921    3.1722    0.0000 N   0  0  0  0  0  0  0  0  0  0  0  0
   -3.5348    1.0589    0.0000 C   0  0  0  0  0  0  0  0  0  0  0  0
   -3.0348    1.9259    0.0000 N   0  0  0  0  0  0  0  0  0  0  0  0
   -0.0336    1.9259    0.0000 C   0  0  0  0  0  0  0  0  0  0  0  0
   -1.5341    1.0589    0.0000 S   0  0  0  0  0  0  0  0  0  0  0  0
   -1.5341   -2.4053    0.0000 C   0  0  0  0  0  0  0  0  0  0  0  0
   -3.5348   -0.6753    0.0000 C   0  0  0  0  0  0  0  0  0  0  0  0
   -3.0348   -1.5381    0.0000 C   0  0  0  0  0  0  0  0  0  0  0  0
   -0.5336    2.7971    0.0000 O   0  0  0  0  0  0  0  0  0  0  0  0
   -0.5336    1.0589    0.0000 C   0  0  0  0  0  0  0  0  0  0  0  0
   -2.0343   -3.2681    0.0000 C   0  0  0  0  0  0  0  0  0  0  0  0
   -0.5336   -2.4053    0.0000 C   0  0  0  0  0  0  0  0  0  0  0  0
   -0.5336   -4.1351    0.0000 C   0  0  0  0  0  0  0  0  0  0  0  0
    1.8050    5.3691    0.0000 C   0  0  0  0  0  0  0  0  0  0  0  0
   -1.5341   -4.1351    0.0000 C   0  0  0  0  0  0  0  0  0  0  0  0
   -0.0336   -3.2681    0.0000 C   0  0  0  0  0  0  0  0  0  0  0  0
    3.5348    4.3686    0.0000 C   0  0  0  0  0  0  0  0  0  0  0  0
   -0.0336   -5.0063    0.0000 O   0  0  0  0  0  0  0  0  0  0  0  0
   -0.5336   -5.8693    0.0000 C   0  0  0  0  0  0  0  0  0  0  0  0
    2.6720    5.8693    0.0000 C   0  0  0  0  0  0  0  0  0  0  0  0
    3.5348    5.3691    0.0000 C   0  0  0  0  0  0  0  0  0  0  0  0
  1  2  2  0
  1  3  1  0
  2  4  1  0
  4  5  2  0
  3  5  1  0
  6  7  2  0
  7 16  1  0
  1  8  1  0
  7  9  1  0
  2 10  1  0
  6 11  1  0
 11 19  2  0
 10 12  3  0
  9 13  1  0
 13 14  3  0
  8 15  1  0
 16 21  1  0
 11 17  1  0
  9 18  2  0
 18 19  1  0
 15 20  2  0
 15 21  1  0
 17 22  1  0
 17 23  2  0
 24 27  2  0
  4 25  1  0
 22 26  2  0
 24 26  1  0
 23 27  1  0
  5 28  1  0
 24 29  1  0
 29 30  1  0
 25 31  1  0
 31 32  1  0
 28 32  1  0
M  END
>  <IDNUMBER>  (588) 
D360-0584

>  <available>  (588) 
176

>  <H_acceptor>  (588) 
7

>  <H_donor>  (588) 
1

>  <B_rotN>  (588) 
9

>  <N_O>  (588) 
6

>  <logP>  (588) 
5.3211

>  <logD>  (588) 
4.216

>  <logSw>  (588) 
-5.2685

>  <PSA>  (588) 
72.963

>  <pKa_ma>  (588) 
6.3303

>  <pKa_mb>  (588) 
-1.2655

>  <N_Chirals>  (588) 
0

>  <Name>  (588) 
2-{[3-cyano-6-(4-methoxyphenyl)pyridin-2-yl]sulfanyl}-N-(3-cyano-4,5,6,7-tetrahydro-1-benzothiophen-2-yl)acetamide

>  <Smile>  (588) 
COc(cc1)ccc1-c(nc1SCC(Nc(sc2c3CCCC2)c3C#N)=O)ccc1C#N

>  <Color>  (588) 
NOT COLORED

>  <Collection>  (588) 
DC

>  <InChI>  (588) 
InChI=1S/C24H20N4O2S2/c1-30-17-9-6-15(7-10-17)20-11-8-16(12-25)23(27-20)31-14-22(29)28-24-19(13-26)18-4-2-3-5-21(18)32-24/h6-11H,2-5,14H2,1H3,(H,28,29)

>  <InChI Key>  (588) 
NKUPNBRYAQWAMM-UHFFFAOYSA-N

>  <PERCENTSP3>  (588) 
25

>  <Link>  (588) 
https://www.chemdiv.com/catalog/screening-compounds/compound-D360-0584/

>  <MFCDNUMBER>  (588) 
MFCD03234601

>  <CLNUMBER>  (588) 
CL1961

>  <STEREO>  (588) 
ACHIRAL

>  <State>  (588) 
Solid

>  <Similarity score>  (588) 
0.18

$$$$
N-(3-cyano-4,5,6,7-tetrahydro-1-benzothiophen-2-yl)-2-{[5-(pyridin-4-yl)-4H-1,2,
     RDKit          2D

 27 30  0  0  0  0  0  0  0  0999 V2000
    1.2668    0.9855    0.0000 C   0  0  0  0  0  0  0  0  0  0  0  0
    1.3585    1.9856    0.0000 C   0  0  0  0  0  0  0  0  0  0  0  0
    0.5667   -2.0147    0.0000 N   0  0  0  0  0  0  0  0  0  0  0  0
    0.2792    0.7813    0.0000 S   0  0  0  0  0  0  0  0  0  0  0  0
    0.4584    2.3939    0.0000 C   0  0  0  0  0  0  0  0  0  0  0  0
   -0.2458   -2.6022    0.0000 C   0  0  0  0  0  0  0  0  0  0  0  0
    0.0667   -3.5564    0.0000 N   0  0  0  0  0  0  0  0  0  0  0  0
   -0.2208    1.6440    0.0000 C   0  0  0  0  0  0  0  0  0  0  0  0
    1.3792   -2.6022    0.0000 C   0  0  0  0  0  0  0  0  0  0  0  0
    1.0667   -3.5564    0.0000 N   0  0  0  0  0  0  0  0  0  0  0  0
    2.0043    0.3230    0.0000 N   0  0  0  0  0  0  0  0  0  0  0  0
    2.2293    2.4813    0.0000 C   0  0  0  0  0  0  0  0  0  0  0  0
    3.0919    1.9856    0.0000 N   0  0  0  0  0  0  0  0  0  0  0  0
    1.7918   -0.6563    0.0000 C   0  0  0  0  0  0  0  0  0  0  0  0
    2.3167   -2.2938    0.0000 S   0  0  0  0  0  0  0  0  0  0  0  0
   -1.1917   -2.2938    0.0000 C   0  0  0  0  0  0  0  0  0  0  0  0
   -3.0919   -1.6771    0.0000 N   0  0  0  0  0  0  0  0  0  0  0  0
    0.8334   -0.9646    0.0000 O   0  0  0  0  0  0  0  0  0  0  0  0
    2.5335   -1.3188    0.0000 C   0  0  0  0  0  0  0  0  0  0  0  0
    0.1458    3.3439    0.0000 C   0  0  0  0  0  0  0  0  0  0  0  0
   -1.2042    1.8566    0.0000 C   0  0  0  0  0  0  0  0  0  0  0  0
   -2.3460   -1.0146    0.0000 C   0  0  0  0  0  0  0  0  0  0  0  0
   -2.8794   -2.6564    0.0000 C   0  0  0  0  0  0  0  0  0  0  0  0
   -1.3959   -1.3188    0.0000 C   0  0  0  0  0  0  0  0  0  0  0  0
   -1.9294   -2.9564    0.0000 C   0  0  0  0  0  0  0  0  0  0  0  0
   -0.8334    3.5564    0.0000 C   0  0  0  0  0  0  0  0  0  0  0  0
   -1.5167    2.8066    0.0000 C   0  0  0  0  0  0  0  0  0  0  0  0
  1  2  2  0
  3  9  1  0
  1  4  1  0
  2  5  1  0
  3  6  1  0
  6  7  2  0
  7 10  1  0
  4  8  1  0
  5  8  2  0
  9 15  1  0
  9 10  2  0
  1 11  1  0
  2 12  1  0
 12 13  3  0
 11 14  1  0
 15 19  1  0
  6 16  1  0
 17 23  1  0
 14 18  2  0
 14 19  1  0
  5 20  1  0
  8 21  1  0
 22 24  1  0
 17 22  2  0
 23 25  2  0
 16 24  2  0
 16 25  1  0
 20 26  1  0
 26 27  1  0
 21 27  1  0
M  END
>  <IDNUMBER>  (589) 
8015-7193

>  <available>  (589) 
10

>  <H_acceptor>  (589) 
7

>  <H_donor>  (589) 
2

>  <B_rotN>  (589) 
7

>  <N_O>  (589) 
7

>  <logP>  (589) 
2.2411

>  <logD>  (589) 
1.184

>  <logSw>  (589) 
-2.5783

>  <PSA>  (589) 
81.823

>  <pKa_ma>  (589) 
6.3828

>  <pKa_mb>  (589) 
4.1519

>  <N_Chirals>  (589) 
0

>  <Name>  (589) 
N-(3-cyano-4,5,6,7-tetrahydro-1-benzothiophen-2-yl)-2-{[5-(pyridin-4-yl)-4H-1,2,4-triazol-3-yl]sulfanyl}acetamide

>  <Smile>  (589) 
N#Cc1c(NC(CSc2nnc(-c3ccncc3)[nH]2)=O)sc2c1CCCC2

>  <Color>  (589) 
ORANGE

>  <Collection>  (589) 
DC

>  <InChI>  (589) 
InChI=1S/C18H16N6OS2/c19-9-13-12-3-1-2-4-14(12)27-17(13)21-15(25)10-26-18-22-16(23-24-18)11-5-7-20-8-6-11/h5-8H,1-4,10H2,(H,21,25)(H,22,23,24)

>  <InChI Key>  (589) 
OQFOQEFORBIGPC-UHFFFAOYSA-N

>  <PERCENTSP3>  (589) 
27.8

>  <Link>  (589) 
https://www.chemdiv.com/catalog/screening-compounds/compound-8015-7193/

>  <MFCDNUMBER>  (589) 
MFCD04031165

>  <CLNUMBER>  (589) 
CL2674

>  <STEREO>  (589) 
ACHIRAL

>  <State>  (589) 
Solid

>  <Similarity score>  (589) 
0.18

$$$$
1-{3-fluoro-3-[3-(pyridin-4-yl)-1,2,4-oxadiazol-5-yl]piperidin-1-yl}-2-methoxyet
     RDKit          2D

 23 25  0  0  0  0  0  0  0  0999 V2000
   -0.6411    1.3791    0.0000 N   0  0  0  0  0  0  0  0  0  0  0  0
    0.3494    1.5296    0.0000 C   0  0  0  0  0  0  0  0  0  0  0  0
    1.0546    0.8244    0.0000 C   0  0  0  0  0  0  0  0  0  0  0  0
   -1.0984    2.2662    0.0000 C   0  0  0  0  0  0  0  0  0  0  0  0
   -0.3933    2.9775    0.0000 N   0  0  0  0  0  0  0  0  0  0  0  0
    0.4999    2.5201    0.0000 O   0  0  0  0  0  0  0  0  0  0  0  0
    2.5560   -0.0407    0.0000 N   0  0  0  0  0  0  0  0  0  0  0  0
    1.5594   -0.0407    0.0000 C   0  0  0  0  0  0  0  0  0  0  0  0
    3.0574   -0.9121    0.0000 C   0  0  0  0  0  0  0  0  0  0  0  0
   -2.0765    2.4228    0.0000 C   0  0  0  0  0  0  0  0  0  0  0  0
    4.0543   -0.9121    0.0000 O   0  0  0  0  0  0  0  0  0  0  0  0
    0.6692   -0.0972    0.0000 F   0  0  0  0  0  0  0  0  0  0  0  0
   -4.0543    2.7332    0.0000 N   0  0  0  0  0  0  0  0  0  0  0  0
    1.5594    1.6925    0.0000 C   0  0  0  0  0  0  0  0  0  0  0  0
    3.0574    0.8244    0.0000 C   0  0  0  0  0  0  0  0  0  0  0  0
    2.5560   -1.7708    0.0000 C   0  0  0  0  0  0  0  0  0  0  0  0
    2.5560    1.6925    0.0000 C   0  0  0  0  0  0  0  0  0  0  0  0
    3.0574   -2.6359    0.0000 O   0  0  0  0  0  0  0  0  0  0  0  0
   -3.4243    3.5073    0.0000 C   0  0  0  0  0  0  0  0  0  0  0  0
   -3.7033    1.7959    0.0000 C   0  0  0  0  0  0  0  0  0  0  0  0
   -2.4432    3.3538    0.0000 C   0  0  0  0  0  0  0  0  0  0  0  0
   -2.7095    1.6424    0.0000 C   0  0  0  0  0  0  0  0  0  0  0  0
    2.5560   -3.5073    0.0000 C   0  0  0  0  0  0  0  0  0  0  0  0
  1  2  2  0
  2  3  1  0
  1  4  1  0
  4  5  2  0
  5  6  1  0
  2  6  1  0
  7  8  1  0
  3  8  1  0
  7  9  1  0
  4 10  1  0
  9 11  2  0
  3 12  1  0
 13 20  1  0
 13 19  2  0
  3 14  1  0
 15 17  1  0
  7 15  1  0
  9 16  1  0
 14 17  1  0
 16 18  1  0
 19 21  1  0
 20 22  2  0
 10 21  2  0
 10 22  1  0
 18 23  1  0
M  END
>  <IDNUMBER>  (590) 
SA92-0163

>  <available>  (590) 
71

>  <H_acceptor>  (590) 
7

>  <H_donor>  (590) 
0

>  <B_rotN>  (590) 
5

>  <N_O>  (590) 
7

>  <logP>  (590) 
0.8856

>  <logD>  (590) 
0.8855

>  <logSw>  (590) 
-1.0334

>  <PSA>  (590) 
65.822

>  <pKa_ma>  (590) 
22.1376

>  <pKa_mb>  (590) 
3.6841

>  <N_Chirals>  (590) 
1

>  <Name>  (590) 
1-{3-fluoro-3-[3-(pyridin-4-yl)-1,2,4-oxadiazol-5-yl]piperidin-1-yl}-2-methoxyethan-1-one

>  <Smile>  (590) 
COCC(N(CCC1)CC1(c1nc(-c2ccncc2)no1)F)=O

>  <Color>  (590) 
YELLOW

>  <Collection>  (590) 
IC

>  <InChI>  (590) 
InChI=1S/C15H17FN4O3/c1-22-9-12(21)20-8-2-5-15(16,10-20)14-18-13(19-23-14)11-3-6-17-7-4-11/h3-4,6-7H,2,5,8-10H2,1H3/t15-/m0/s1

>  <InChI Key>  (590) 
ABPBDRFSFWRGGS-HNNXBMFYSA-N

>  <PERCENTSP3>  (590) 
46.67

>  <Link>  (590) 
https://www.chemdiv.com/catalog/screening-compounds/compound-SA92-0163/

>  <MFCDNUMBER>  (590) 
MFCD32243195

>  <CLNUMBER>  (590) 
CM4899

>  <STEREO>  (590) 
RACEMIC MIXTURE

>  <State>  (590) 
Liquid

>  <Similarity score>  (590) 
0.18

$$$$
{3-fluoro-3-[3-(pyridin-4-yl)-1,2,4-oxadiazol-5-yl]piperidin-1-yl}[1-(4-methoxyp
     RDKit          2D

 31 35  0  0  0  0  0  0  0  0999 V2000
    1.9660   -0.4167    0.0000 C   0  0  0  0  0  0  0  0  0  0  0  0
   -1.3144    2.2748    0.0000 N   0  0  0  0  0  0  0  0  0  0  0  0
   -0.4028    2.6853    0.0000 C   0  0  0  0  0  0  0  0  0  0  0  0
    2.4613    0.4481    0.0000 C   0  0  0  0  0  0  0  0  0  0  0  0
    0.4620    2.1777    0.0000 C   0  0  0  0  0  0  0  0  0  0  0  0
   -1.9912    3.0235    0.0000 C   0  0  0  0  0  0  0  0  0  0  0  0
    1.9660    1.3129    0.0000 N   0  0  0  0  0  0  0  0  0  0  0  0
   -1.4835    3.8821    0.0000 N   0  0  0  0  0  0  0  0  0  0  0  0
   -0.5061    3.6755    0.0000 O   0  0  0  0  0  0  0  0  0  0  0  0
    1.1012    0.0813    0.0000 C   0  0  0  0  0  0  0  0  0  0  0  0
    1.1012   -0.9213    0.0000 C   0  0  0  0  0  0  0  0  0  0  0  0
    0.9604    1.3129    0.0000 C   0  0  0  0  0  0  0  0  0  0  0  0
    2.4613   -1.2815    0.0000 C   0  0  0  0  0  0  0  0  0  0  0  0
    3.4607    0.4481    0.0000 O   0  0  0  0  0  0  0  0  0  0  0  0
   -2.9813    2.9109    0.0000 C   0  0  0  0  0  0  0  0  0  0  0  0
   -0.4028    1.6793    0.0000 F   0  0  0  0  0  0  0  0  0  0  0  0
   -4.9647    2.7039    0.0000 N   0  0  0  0  0  0  0  0  0  0  0  0
    3.4607   -1.2815    0.0000 C   0  0  0  0  0  0  0  0  0  0  0  0
    1.9660   -2.1525    0.0000 C   0  0  0  0  0  0  0  0  0  0  0  0
    0.9604    3.0518    0.0000 C   0  0  0  0  0  0  0  0  0  0  0  0
    2.4613    2.1777    0.0000 C   0  0  0  0  0  0  0  0  0  0  0  0
    3.4607   -3.0173    0.0000 C   0  0  0  0  0  0  0  0  0  0  0  0
    2.4613   -3.0173    0.0000 C   0  0  0  0  0  0  0  0  0  0  0  0
    3.9591   -2.1525    0.0000 C   0  0  0  0  0  0  0  0  0  0  0  0
    3.9591   -3.8821    0.0000 O   0  0  0  0  0  0  0  0  0  0  0  0
    1.9660    3.0518    0.0000 C   0  0  0  0  0  0  0  0  0  0  0  0
   -4.5604    3.6159    0.0000 C   0  0  0  0  0  0  0  0  0  0  0  0
   -4.3820    1.8987    0.0000 C   0  0  0  0  0  0  0  0  0  0  0  0
   -3.5703    3.7285    0.0000 C   0  0  0  0  0  0  0  0  0  0  0  0
   -3.3918    1.9989    0.0000 C   0  0  0  0  0  0  0  0  0  0  0  0
    4.9647   -3.8821    0.0000 C   0  0  0  0  0  0  0  0  0  0  0  0
  2  3  2  0
  3  5  1  0
  1  4  1  0
  5 12  1  0
  2  6  1  0
  6  8  2  0
  4  7  1  0
  8  9  1  0
  3  9  1  0
  1 10  1  0
 10 11  1  0
  1 11  1  0
  7 12  1  0
  1 13  1  0
  4 14  2  0
  6 15  1  0
  5 16  1  0
 17 28  1  0
 17 27  2  0
 13 18  2  0
 13 19  1  0
 20 26  1  0
  5 20  1  0
  7 21  1  0
 22 23  1  0
 19 23  2  0
 18 24  1  0
 22 24  2  0
 22 25  1  0
 21 26  1  0
 27 29  1  0
 28 30  2  0
 15 29  2  0
 15 30  1  0
 25 31  1  0
M  END
>  <IDNUMBER>  (591) 
SA92-0215

>  <available>  (591) 
64

>  <H_acceptor>  (591) 
7

>  <H_donor>  (591) 
0

>  <B_rotN>  (591) 
6

>  <N_O>  (591) 
7

>  <logP>  (591) 
3.2126

>  <logD>  (591) 
3.2125

>  <logSw>  (591) 
-3.1296

>  <PSA>  (591) 
65.45

>  <pKa_ma>  (591) 
21.0371

>  <pKa_mb>  (591) 
3.6841

>  <N_Chirals>  (591) 
1

>  <Name>  (591) 
{3-fluoro-3-[3-(pyridin-4-yl)-1,2,4-oxadiazol-5-yl]piperidin-1-yl}[1-(4-methoxyphenyl)cyclopropyl]methanone

>  <Smile>  (591) 
COc1ccc(C2(CC2)C(N(CCC2)CC2(c2nc(-c3ccncc3)no2)F)=O)cc1

>  <Color>  (591) 
NOT COLORED

>  <Collection>  (591) 
IC

>  <InChI>  (591) 
InChI=1S/C23H23FN4O3/c1-30-18-5-3-17(4-6-18)22(10-11-22)21(29)28-14-2-9-23(24,15-28)20-26-19(27-31-20)16-7-12-25-13-8-16/h3-8,12-13H,2,9-11,14-15H2,1H3/t23-/m0/s1

>  <InChI Key>  (591) 
OASSYDRHONKWLJ-QHCPKHFHSA-N

>  <PERCENTSP3>  (591) 
39.13

>  <Link>  (591) 
https://www.chemdiv.com/catalog/screening-compounds/compound-SA92-0215/

>  <MFCDNUMBER>  (591) 
MFCD32241824

>  <CLNUMBER>  (591) 
CM4899

>  <STEREO>  (591) 
RACEMIC MIXTURE

>  <State>  (591) 
Solid

>  <Similarity score>  (591) 
0.18

$$$$
N-(3-cyano-4,5,6,7,8,9-hexahydrocycloocta[b]thiophen-2-yl)-2-(2,4-dichlorophenox
     RDKit          2D

 27 29  0  0  0  0  0  0  0  0999 V2000
   -1.0943   -0.5440    0.0000 C   0  0  0  0  0  0  0  0  0  0  0  0
   -2.0822   -0.4565    0.0000 C   0  0  0  0  0  0  0  0  0  0  0  0
   -0.7066    0.3815    0.0000 S   0  0  0  0  0  0  0  0  0  0  0  0
   -2.3116    0.4982    0.0000 C   0  0  0  0  0  0  0  0  0  0  0  0
   -0.5816   -1.4403    0.0000 N   0  0  0  0  0  0  0  0  0  0  0  0
   -1.4819    1.0568    0.0000 C   0  0  0  0  0  0  0  0  0  0  0  0
    0.4271   -1.4403    0.0000 C   0  0  0  0  0  0  0  0  0  0  0  0
   -2.7617   -1.2694    0.0000 C   0  0  0  0  0  0  0  0  0  0  0  0
   -3.4079   -2.0697    0.0000 N   0  0  0  0  0  0  0  0  0  0  0  0
    1.8446   -2.3449    0.0000 O   0  0  0  0  0  0  0  0  0  0  0  0
    2.3699   -1.5278    0.0000 C   0  0  0  0  0  0  0  0  0  0  0  0
    3.3535   -1.5278    0.0000 C   0  0  0  0  0  0  0  0  0  0  0  0
    0.8817   -2.3074    0.0000 C   0  0  0  0  0  0  0  0  0  0  0  0
    3.8706   -0.7191    0.0000 C   0  0  0  0  0  0  0  0  0  0  0  0
    0.9317   -0.5691    0.0000 O   0  0  0  0  0  0  0  0  0  0  0  0
    1.9280   -0.6566    0.0000 C   0  0  0  0  0  0  0  0  0  0  0  0
    3.4036    0.1605    0.0000 C   0  0  0  0  0  0  0  0  0  0  0  0
    3.8456   -2.3699    0.0000 Cl  0  0  0  0  0  0  0  0  0  0  0  0
    2.4156    0.1605    0.0000 C   0  0  0  0  0  0  0  0  0  0  0  0
   -3.3329    0.7566    0.0000 C   0  0  0  0  0  0  0  0  0  0  0  0
    3.8831    0.9942    0.0000 Cl  0  0  0  0  0  0  0  0  0  0  0  0
   -1.2362    2.0197    0.0000 C   0  0  0  0  0  0  0  0  0  0  0  0
    0.3646   -3.1453    0.0000 C   0  0  0  0  0  0  0  0  0  0  0  0
   -3.8831    1.6195    0.0000 C   0  0  0  0  0  0  0  0  0  0  0  0
   -1.7946    2.8952    0.0000 C   0  0  0  0  0  0  0  0  0  0  0  0
   -3.6622    2.5992    0.0000 C   0  0  0  0  0  0  0  0  0  0  0  0
   -2.7742    3.1453    0.0000 C   0  0  0  0  0  0  0  0  0  0  0  0
  1  2  2  0
  1  3  1  0
  2  4  1  0
  4  6  2  0
  1  5  1  0
  3  6  1  0
  5  7  1  0
  2  8  1  0
  8  9  3  0
 10 13  1  0
 10 11  1  0
 11 12  2  0
  7 13  1  0
 12 14  1  0
 14 17  2  0
  7 15  2  0
 11 16  1  0
 17 19  1  0
 12 18  1  0
 16 19  2  0
  4 20  1  0
 17 21  1  0
  6 22  1  0
 13 23  1  0
 20 24  1  0
 22 25  1  0
 24 26  1  0
 25 27  1  0
 26 27  1  0
M  END
>  <IDNUMBER>  (592) 
Y509-7692

>  <available>  (592) 
6

>  <H_acceptor>  (592) 
4

>  <H_donor>  (592) 
1

>  <B_rotN>  (592) 
6

>  <N_O>  (592) 
4

>  <logP>  (592) 
6.3445

>  <logD>  (592) 
4.9265

>  <logSw>  (592) 
-6.3471

>  <PSA>  (592) 
47.307

>  <pKa_ma>  (592) 
5.9989

>  <pKa_mb>  (592) 
-5.4019

>  <N_Chirals>  (592) 
1

>  <Name>  (592) 
N-(3-cyano-4,5,6,7,8,9-hexahydrocycloocta[b]thiophen-2-yl)-2-(2,4-dichlorophenoxy)propanamide

>  <Smile>  (592) 
c1(c(c2c(s1)CCCCCC2)C#N)NC(C(Oc1c(cc(cc1)Cl)Cl)C)=O

>  <Color>  (592) 
BROWN

>  <Collection>  (592) 
DC

>  <InChI>  (592) 
InChI=1S/C20H20Cl2N2O2S/c1-12(26-17-9-8-13(21)10-16(17)22)19(25)24-20-15(11-23)14-6-4-2-3-5-7-18(14)27-20/h8-10,12H,2-7H2,1H3,(H,24,25)/t12-/m0/s1

>  <InChI Key>  (592) 
UZQZPNPAQCQYCH-LBPRGKRZSA-N

>  <PERCENTSP3>  (592) 
40

>  <Link>  (592) 
https://www.chemdiv.com/catalog/screening-compounds/compound-Y509-7692/

>  <MFCDNUMBER>  (592) 
MFCD01355654

>  <STEREO>  (592) 
RACEMIC MIXTURE

>  <State>  (592) 
Solid

>  <Similarity score>  (592) 
0.18

$$$$
3-fluoro-N-(4-methoxyphenyl)-3-[3-(pyridin-3-yl)-1,2,4-oxadiazol-5-yl]piperidine
     RDKit          2D

 29 32  0  0  0  0  0  0  0  0999 V2000
    1.6398   -0.1292    0.0000 N   0  0  0  0  0  0  0  0  0  0  0  0
    1.2816   -1.0587    0.0000 C   0  0  0  0  0  0  0  0  0  0  0  0
    2.6318   -0.1793    0.0000 C   0  0  0  0  0  0  0  0  0  0  0  0
    0.3146   -1.3211    0.0000 C   0  0  0  0  0  0  0  0  0  0  0  0
   -0.5564    1.1793    0.0000 C   0  0  0  0  0  0  0  0  0  0  0  0
    2.8944   -1.1461    0.0000 N   0  0  0  0  0  0  0  0  0  0  0  0
   -0.5564    0.1791    0.0000 N   0  0  0  0  0  0  0  0  0  0  0  0
    2.0566   -1.6920    0.0000 O   0  0  0  0  0  0  0  0  0  0  0  0
    0.3146   -0.3208    0.0000 C   0  0  0  0  0  0  0  0  0  0  0  0
    3.2652    0.5959    0.0000 C   0  0  0  0  0  0  0  0  0  0  0  0
   -1.4189    1.6795    0.0000 N   0  0  0  0  0  0  0  0  0  0  0  0
    0.3146    1.6795    0.0000 O   0  0  0  0  0  0  0  0  0  0  0  0
    4.8821    1.2169    0.0000 N   0  0  0  0  0  0  0  0  0  0  0  0
    0.1812   -2.3088    0.0000 F   0  0  0  0  0  0  0  0  0  0  0  0
   -2.2859    1.1793    0.0000 C   0  0  0  0  0  0  0  0  0  0  0  0
   -0.5564   -1.8213    0.0000 C   0  0  0  0  0  0  0  0  0  0  0  0
    4.2528    0.4415    0.0000 C   0  0  0  0  0  0  0  0  0  0  0  0
   -1.4189   -0.3208    0.0000 C   0  0  0  0  0  0  0  0  0  0  0  0
   -4.0195    0.1791    0.0000 C   0  0  0  0  0  0  0  0  0  0  0  0
   -3.1568    1.6795    0.0000 C   0  0  0  0  0  0  0  0  0  0  0  0
   -2.2859    0.1791    0.0000 C   0  0  0  0  0  0  0  0  0  0  0  0
   -3.1568   -0.3208    0.0000 C   0  0  0  0  0  0  0  0  0  0  0  0
   -4.0195    1.1793    0.0000 C   0  0  0  0  0  0  0  0  0  0  0  0
   -4.8821   -0.3208    0.0000 O   0  0  0  0  0  0  0  0  0  0  0  0
    2.9069    1.5295    0.0000 C   0  0  0  0  0  0  0  0  0  0  0  0
   -1.4189   -1.3211    0.0000 C   0  0  0  0  0  0  0  0  0  0  0  0
    4.5196    2.1546    0.0000 C   0  0  0  0  0  0  0  0  0  0  0  0
   -4.8821   -1.3211    0.0000 C   0  0  0  0  0  0  0  0  0  0  0  0
    3.5321    2.3088    0.0000 C   0  0  0  0  0  0  0  0  0  0  0  0
  1  2  2  0
  1  3  1  0
  2  4  1  0
  5  7  1  0
  3  6  2  0
  6  8  1  0
  7  9  1  0
  7 18  1  0
  2  8  1  0
  4  9  1  0
  3 10  1  0
  5 11  1  0
  5 12  2  0
 13 17  2  0
 13 27  1  0
  4 14  1  0
 11 15  1  0
  4 16  1  0
 10 17  1  0
 18 26  1  0
 19 22  1  0
 19 23  2  0
 15 20  2  0
 15 21  1  0
 21 22  2  0
 20 23  1  0
 19 24  1  0
 10 25  2  0
 16 26  1  0
 27 29  2  0
 24 28  1  0
 25 29  1  0
M  END
>  <IDNUMBER>  (593) 
SA92-0598

>  <available>  (593) 
183

>  <H_acceptor>  (593) 
7

>  <H_donor>  (593) 
1

>  <B_rotN>  (593) 
6

>  <N_O>  (593) 
8

>  <logP>  (593) 
2.7648

>  <logD>  (593) 
2.1261

>  <logSw>  (593) 
-3.0149

>  <PSA>  (593) 
74.108

>  <pKa_ma>  (593) 
13.6081

>  <pKa_mb>  (593) 
7.9253

>  <N_Chirals>  (593) 
1

>  <Name>  (593) 
3-fluoro-N-(4-methoxyphenyl)-3-[3-(pyridin-3-yl)-1,2,4-oxadiazol-5-yl]piperidine-1-carboxamide

>  <Smile>  (593) 
COc(cc1)ccc1NC(N(CCC1)CC1(c1nc(-c2cnccc2)no1)F)=O

>  <Color>  (593) 
NOT COLORED

>  <Collection>  (593) 
IC

>  <InChI>  (593) 
InChI=1S/C20H20FN5O3/c1-28-16-7-5-15(6-8-16)23-19(27)26-11-3-9-20(21,13-26)18-24-17(25-29-18)14-4-2-10-22-12-14/h2,4-8,10,12H,3,9,11,13H2,1H3,(H,23,27)/t20-/m0/s1

>  <InChI Key>  (593) 
AJBACORGLUEGNT-FQEVSTJZSA-N

>  <PERCENTSP3>  (593) 
30

>  <Link>  (593) 
https://www.chemdiv.com/catalog/screening-compounds/compound-SA92-0598/

>  <MFCDNUMBER>  (593) 
MFCD32243089

>  <CLNUMBER>  (593) 
CM4899

>  <STEREO>  (593) 
RACEMIC MIXTURE

>  <State>  (593) 
Solid

>  <Similarity score>  (593) 
0.18

$$$$
2-[2-(4-amino-1,2,5-oxadiazol-3-yl)-1H-benzimidazol-1-yl]-N-(3-cyano-6-methyl-4,
     RDKit          2D

 31 35  0  0  0  0  0  0  0  0999 V2000
    2.3808    0.1042    0.0000 C   0  0  0  0  0  0  0  0  0  0  0  0
    1.6517    0.8041    0.0000 N   0  0  0  0  0  0  0  0  0  0  0  0
   -1.5727    0.4290    0.0000 C   0  0  0  0  0  0  0  0  0  0  0  0
   -2.5808    0.4666    0.0000 C   0  0  0  0  0  0  0  0  0  0  0  0
    2.2434   -0.8915    0.0000 C   0  0  0  0  0  0  0  0  0  0  0  0
    3.2681    0.5791    0.0000 N   0  0  0  0  0  0  0  0  0  0  0  0
   -2.9183   -0.4708    0.0000 C   0  0  0  0  0  0  0  0  0  0  0  0
   -2.1308   -1.0832    0.0000 C   0  0  0  0  0  0  0  0  0  0  0  0
   -1.3061   -0.5290    0.0000 S   0  0  0  0  0  0  0  0  0  0  0  0
    2.9682   -1.5831    0.0000 C   0  0  0  0  0  0  0  0  0  0  0  0
    2.5266   -2.4829    0.0000 N   0  0  0  0  0  0  0  0  0  0  0  0
   -0.9603    1.2082    0.0000 N   0  0  0  0  0  0  0  0  0  0  0  0
    1.3560   -1.3581    0.0000 N   0  0  0  0  0  0  0  0  0  0  0  0
    2.0934    1.7038    0.0000 C   0  0  0  0  0  0  0  0  0  0  0  0
    1.5309   -2.3454    0.0000 O   0  0  0  0  0  0  0  0  0  0  0  0
    3.0889    1.5664    0.0000 C   0  0  0  0  0  0  0  0  0  0  0  0
   -3.1349    1.2915    0.0000 C   0  0  0  0  0  0  0  0  0  0  0  0
    0.0187    1.3831    0.0000 C   0  0  0  0  0  0  0  0  0  0  0  0
    0.6686    0.6208    0.0000 C   0  0  0  0  0  0  0  0  0  0  0  0
   -2.7433    2.2205    0.0000 N   0  0  0  0  0  0  0  0  0  0  0  0
   -3.8305   -0.8457    0.0000 C   0  0  0  0  0  0  0  0  0  0  0  0
   -2.2684   -2.0580    0.0000 C   0  0  0  0  0  0  0  0  0  0  0  0
    0.3687    2.3287    0.0000 O   0  0  0  0  0  0  0  0  0  0  0  0
    3.9555   -1.4082    0.0000 N   0  0  0  0  0  0  0  0  0  0  0  0
   -3.9555   -1.8288    0.0000 C   0  0  0  0  0  0  0  0  0  0  0  0
   -3.1932   -2.4412    0.0000 C   0  0  0  0  0  0  0  0  0  0  0  0
    1.7184    2.6412    0.0000 C   0  0  0  0  0  0  0  0  0  0  0  0
    3.7056    2.3663    0.0000 C   0  0  0  0  0  0  0  0  0  0  0  0
   -3.3307   -3.4285    0.0000 C   0  0  0  0  0  0  0  0  0  0  0  0
    2.3308    3.4285    0.0000 C   0  0  0  0  0  0  0  0  0  0  0  0
    3.3307    3.2910    0.0000 C   0  0  0  0  0  0  0  0  0  0  0  0
  1  2  1  0
  3 12  1  0
  3  4  2  0
  1  5  1  0
  1  6  2  0
  4  7  1  0
  8  9  1  0
  7  8  2  0
  3  9  1  0
  5 10  1  0
 10 11  2  0
 12 18  1  0
  5 13  2  0
  2 14  1  0
 13 15  1  0
 11 15  1  0
  6 16  1  0
 14 16  2  0
  4 17  1  0
 18 19  1  0
  2 19  1  0
 17 20  3  0
  7 21  1  0
  8 22  1  0
 18 23  2  0
 10 24  1  0
 21 25  1  0
 25 26  1  0
 22 26  1  0
 26 29  1  0
 14 27  1  0
 16 28  1  0
 27 30  2  0
 28 31  2  0
 30 31  1  0
M  END
>  <IDNUMBER>  (594) 
8016-2378

>  <available>  (594) 
15

>  <H_acceptor>  (594) 
7

>  <H_donor>  (594) 
3

>  <B_rotN>  (594) 
6

>  <N_O>  (594) 
9

>  <logP>  (594) 
4.2503

>  <logD>  (594) 
2.8477

>  <logSw>  (594) 
-4.4837

>  <PSA>  (594) 
106.901

>  <pKa_ma>  (594) 
6.0149

>  <pKa_mb>  (594) 
3.9643

>  <N_Chirals>  (594) 
1

>  <Name>  (594) 
2-[2-(4-amino-1,2,5-oxadiazol-3-yl)-1H-benzimidazol-1-yl]-N-(3-cyano-6-methyl-4,5,6,7-tetrahydro-1-benzothiophen-2-yl)acetamide

>  <Smile>  (594) 
CC(CC1)Cc2c1c(C#N)c(NC(Cn1c(-c3nonc3N)nc3c1cccc3)=O)s2

>  <Color>  (594) 
BROWN

>  <Collection>  (594) 
DC

>  <InChI>  (594) 
InChI=1S/C21H19N7O2S/c1-11-6-7-12-13(9-22)21(31-16(12)8-11)25-17(29)10-28-15-5-3-2-4-14(15)24-20(28)18-19(23)27-30-26-18/h2-5,11H,6-8,10H2,1H3,(H2,23,27)(H,25,29)/t11-/m1/s1

>  <InChI Key>  (594) 
YYKQUXZJLHAVCS-LLVKDONJSA-N

>  <PERCENTSP3>  (594) 
28.57

>  <Link>  (594) 
https://www.chemdiv.com/catalog/screening-compounds/compound-8016-2378/

>  <MFCDNUMBER>  (594) 
MFCD05854943

>  <CLNUMBER>  (594) 
CL2888

>  <STEREO>  (594) 
RACEMIC MIXTURE

>  <State>  (594) 
Solid

>  <Similarity score>  (594) 
0.18

$$$$
N-(3-cyano-5,6-dihydro-4H-cyclopenta[b]thiophen-2-yl)-5-methyl-1,2-oxazole-3-car
     RDKit          2D

 19 21  0  0  0  0  0  0  0  0999 V2000
   -0.4729    0.8313    0.0000 C   0  0  0  0  0  0  0  0  0  0  0  0
   -1.4647    0.9355    0.0000 C   0  0  0  0  0  0  0  0  0  0  0  0
    1.5437   -0.9021    0.0000 C   0  0  0  0  0  0  0  0  0  0  0  0
   -0.0646    1.7063    0.0000 S   0  0  0  0  0  0  0  0  0  0  0  0
   -1.6521    1.8813    0.0000 C   0  0  0  0  0  0  0  0  0  0  0  0
    0.0438   -0.0479    0.0000 N   0  0  0  0  0  0  0  0  0  0  0  0
    2.5439   -1.0313    0.0000 N   0  0  0  0  0  0  0  0  0  0  0  0
   -0.8147    2.3813    0.0000 C   0  0  0  0  0  0  0  0  0  0  0  0
    1.0437   -0.0479    0.0000 C   0  0  0  0  0  0  0  0  0  0  0  0
    1.1729   -1.7897    0.0000 C   0  0  0  0  0  0  0  0  0  0  0  0
   -2.1272    0.1687    0.0000 C   0  0  0  0  0  0  0  0  0  0  0  0
    2.8022   -1.9313    0.0000 O   0  0  0  0  0  0  0  0  0  0  0  0
   -2.8022   -0.6104    0.0000 N   0  0  0  0  0  0  0  0  0  0  0  0
    1.9022   -2.4771    0.0000 C   0  0  0  0  0  0  0  0  0  0  0  0
    1.5437    0.8521    0.0000 O   0  0  0  0  0  0  0  0  0  0  0  0
   -2.4022    2.5730    0.0000 C   0  0  0  0  0  0  0  0  0  0  0  0
   -0.9897    3.3647    0.0000 C   0  0  0  0  0  0  0  0  0  0  0  0
   -1.9813    3.4897    0.0000 C   0  0  0  0  0  0  0  0  0  0  0  0
    1.8146   -3.4897    0.0000 C   0  0  0  0  0  0  0  0  0  0  0  0
  1  2  2  0
  3  9  1  0
  1  4  1  0
  2  5  1  0
  5  8  2  0
  1  6  1  0
  3  7  2  0
  4  8  1  0
  6  9  1  0
  3 10  1  0
  2 11  1  0
  7 12  1  0
 12 14  1  0
 11 13  3  0
 10 14  2  0
  9 15  2  0
  5 16  1  0
 16 18  1  0
  8 17  1  0
 17 18  1  0
 14 19  1  0
M  END
>  <IDNUMBER>  (595) 
Y205-4160

>  <available>  (595) 
16

>  <H_acceptor>  (595) 
5

>  <H_donor>  (595) 
1

>  <B_rotN>  (595) 
4

>  <N_O>  (595) 
5

>  <logP>  (595) 
2.6528

>  <logD>  (595) 
0.9621

>  <logSw>  (595) 
-3.007

>  <PSA>  (595) 
61.695

>  <pKa_ma>  (595) 
5.7183

>  <pKa_mb>  (595) 
-6.3814

>  <N_Chirals>  (595) 
0

>  <Name>  (595) 
N-(3-cyano-5,6-dihydro-4H-cyclopenta[b]thiophen-2-yl)-5-methyl-1,2-oxazole-3-carboxamide

>  <Smile>  (595) 
Cc1cc(C(Nc(sc2c3CCC2)c3C#N)=O)no1

>  <Color>  (595) 
BROWN

>  <Collection>  (595) 
DC

>  <InChI>  (595) 
InChI=1S/C13H11N3O2S/c1-7-5-10(16-18-7)12(17)15-13-9(6-14)8-3-2-4-11(8)19-13/h5H,2-4H2,1H3,(H,15,17)

>  <InChI Key>  (595) 
GVFCSNMGSRACHX-UHFFFAOYSA-N

>  <PERCENTSP3>  (595) 
30.77

>  <Link>  (595) 
https://www.chemdiv.com/catalog/screening-compounds/compound-Y205-4160/

>  <MFCDNUMBER>  (595) 
MFCD05025637

>  <STEREO>  (595) 
ACHIRAL

>  <State>  (595) 
Solid

>  <Similarity score>  (595) 
0.18

$$$$
N-benzyl-3-fluoro-3-[3-(pyridin-4-yl)-1,2,4-oxadiazol-5-yl]piperidine-1-carboxam
     RDKit          2D

 28 31  0  0  0  0  0  0  0  0999 V2000
   -0.6379    2.2394    0.0000 N   0  0  0  0  0  0  0  0  0  0  0  0
    0.3462    2.3960    0.0000 C   0  0  0  0  0  0  0  0  0  0  0  0
    1.0548    1.6910    0.0000 C   0  0  0  0  0  0  0  0  0  0  0  0
   -1.0892    3.1328    0.0000 C   0  0  0  0  0  0  0  0  0  0  0  0
   -0.3869    3.8347    0.0000 N   0  0  0  0  0  0  0  0  0  0  0  0
    2.5591    0.8258    0.0000 N   0  0  0  0  0  0  0  0  0  0  0  0
    3.0574   -0.0454    0.0000 C   0  0  0  0  0  0  0  0  0  0  0  0
    0.4998    3.3771    0.0000 O   0  0  0  0  0  0  0  0  0  0  0  0
    1.5531    0.8258    0.0000 C   0  0  0  0  0  0  0  0  0  0  0  0
    2.5591   -0.9106    0.0000 N   0  0  0  0  0  0  0  0  0  0  0  0
    4.0541   -0.0454    0.0000 O   0  0  0  0  0  0  0  0  0  0  0  0
   -2.0763    3.2798    0.0000 C   0  0  0  0  0  0  0  0  0  0  0  0
    0.6691    0.7600    0.0000 F   0  0  0  0  0  0  0  0  0  0  0  0
   -4.0541    3.5997    0.0000 N   0  0  0  0  0  0  0  0  0  0  0  0
    3.0574   -1.7788    0.0000 C   0  0  0  0  0  0  0  0  0  0  0  0
    1.5531    2.5560    0.0000 C   0  0  0  0  0  0  0  0  0  0  0  0
    3.0574    1.6910    0.0000 C   0  0  0  0  0  0  0  0  0  0  0  0
    2.5591   -2.6437    0.0000 C   0  0  0  0  0  0  0  0  0  0  0  0
    2.5591    2.5560    0.0000 C   0  0  0  0  0  0  0  0  0  0  0  0
   -3.6968    2.6593    0.0000 C   0  0  0  0  0  0  0  0  0  0  0  0
   -3.4240    4.3738    0.0000 C   0  0  0  0  0  0  0  0  0  0  0  0
   -2.7064    2.5122    0.0000 C   0  0  0  0  0  0  0  0  0  0  0  0
   -2.4369    4.2202    0.0000 C   0  0  0  0  0  0  0  0  0  0  0  0
    3.0574   -3.5089    0.0000 C   0  0  0  0  0  0  0  0  0  0  0  0
    1.5531   -2.6437    0.0000 C   0  0  0  0  0  0  0  0  0  0  0  0
    1.0548   -3.5089    0.0000 C   0  0  0  0  0  0  0  0  0  0  0  0
    2.5591   -4.3738    0.0000 C   0  0  0  0  0  0  0  0  0  0  0  0
    1.5531   -4.3738    0.0000 C   0  0  0  0  0  0  0  0  0  0  0  0
  1  2  2  0
  2  3  1  0
  1  4  1  0
  4  5  2  0
  5  8  1  0
  6  9  1  0
  6  7  1  0
  2  8  1  0
  3  9  1  0
  7 10  1  0
  7 11  2  0
  4 12  1  0
  3 13  1  0
 14 21  2  0
 14 20  1  0
 10 15  1  0
  3 16  1  0
 17 19  1  0
  6 17  1  0
 15 18  1  0
 16 19  1  0
 20 22  2  0
 21 23  1  0
 12 22  1  0
 12 23  2  0
 18 24  2  0
 18 25  1  0
 25 26  2  0
 24 27  1  0
 26 28  1  0
 27 28  2  0
M  END
>  <IDNUMBER>  (596) 
SA92-0271

>  <available>  (596) 
45

>  <H_acceptor>  (596) 
6

>  <H_donor>  (596) 
1

>  <B_rotN>  (596) 
6

>  <N_O>  (596) 
7

>  <logP>  (596) 
2.6415

>  <logD>  (596) 
2.6414

>  <logSw>  (596) 
-2.6934

>  <PSA>  (596) 
67.797

>  <pKa_ma>  (596) 
14.4198

>  <pKa_mb>  (596) 
3.6841

>  <N_Chirals>  (596) 
1

>  <Name>  (596) 
N-benzyl-3-fluoro-3-[3-(pyridin-4-yl)-1,2,4-oxadiazol-5-yl]piperidine-1-carboxamide

>  <Smile>  (596) 
O=C(NCc1ccccc1)N(CCC1)CC1(c1nc(-c2ccncc2)no1)F

>  <Color>  (596) 
YELLOW

>  <Collection>  (596) 
IC

>  <InChI>  (596) 
InChI=1S/C20H20FN5O2/c21-20(18-24-17(25-28-18)16-7-10-22-11-8-16)9-4-12-26(14-20)19(27)23-13-15-5-2-1-3-6-15/h1-3,5-8,10-11H,4,9,12-14H2,(H,23,27)/t20-/m0/s1

>  <InChI Key>  (596) 
WDDYMHAGSKZCSW-FQEVSTJZSA-N

>  <PERCENTSP3>  (596) 
30

>  <Link>  (596) 
https://www.chemdiv.com/catalog/screening-compounds/compound-SA92-0271/

>  <MFCDNUMBER>  (596) 
MFCD32242334

>  <CLNUMBER>  (596) 
CM4899

>  <STEREO>  (596) 
RACEMIC MIXTURE

>  <State>  (596) 
Liquid

>  <Similarity score>  (596) 
0.18

$$$$
2-[5-(4-methoxyphenyl)-1H-1,2,4-triazol-1-yl]-4,5,6,7-tetrahydro-1-benzothiophen
     RDKit          2D

 24 27  0  0  0  0  0  0  0  0999 V2000
    1.2521    0.3305    0.0000 C   0  0  0  0  0  0  0  0  0  0  0  0
    0.7092    1.1558    0.0000 N   0  0  0  0  0  0  0  0  0  0  0  0
    2.2384    0.3305    0.0000 C   0  0  0  0  0  0  0  0  0  0  0  0
    0.8986   -0.6306    0.0000 S   0  0  0  0  0  0  0  0  0  0  0  0
   -0.2590    1.1558    0.0000 C   0  0  0  0  0  0  0  0  0  0  0  0
    2.5385   -0.6771    0.0000 C   0  0  0  0  0  0  0  0  0  0  0  0
    1.7275   -1.2130    0.0000 C   0  0  0  0  0  0  0  0  0  0  0  0
   -0.5770    2.0990    0.0000 N   0  0  0  0  0  0  0  0  0  0  0  0
    1.0415    2.1241    0.0000 N   0  0  0  0  0  0  0  0  0  0  0  0
    2.7958    1.1558    0.0000 C   0  0  0  0  0  0  0  0  0  0  0  0
    0.2233    2.6886    0.0000 C   0  0  0  0  0  0  0  0  0  0  0  0
    3.3530    1.9812    0.0000 N   0  0  0  0  0  0  0  0  0  0  0  0
   -0.8235    0.3411    0.0000 C   0  0  0  0  0  0  0  0  0  0  0  0
   -1.8203    0.4091    0.0000 C   0  0  0  0  0  0  0  0  0  0  0  0
   -0.4163   -0.5592    0.0000 C   0  0  0  0  0  0  0  0  0  0  0  0
   -1.9631   -1.3166    0.0000 C   0  0  0  0  0  0  0  0  0  0  0  0
    3.4425   -1.1165    0.0000 C   0  0  0  0  0  0  0  0  0  0  0  0
   -0.9736   -1.3845    0.0000 C   0  0  0  0  0  0  0  0  0  0  0  0
   -2.3884   -0.4019    0.0000 C   0  0  0  0  0  0  0  0  0  0  0  0
    1.7704   -2.2312    0.0000 C   0  0  0  0  0  0  0  0  0  0  0  0
   -2.5206   -2.1348    0.0000 O   0  0  0  0  0  0  0  0  0  0  0  0
   -3.5068   -2.0705    0.0000 C   0  0  0  0  0  0  0  0  0  0  0  0
    3.5068   -2.1311    0.0000 C   0  0  0  0  0  0  0  0  0  0  0  0
    2.6564   -2.6886    0.0000 C   0  0  0  0  0  0  0  0  0  0  0  0
  1  2  1  0
  1  3  2  0
  1  4  1  0
  2  5  1  0
  3  6  1  0
  4  7  1  0
  6  7  2  0
  5  8  2  0
  8 11  1  0
  2  9  1  0
  3 10  1  0
  9 11  2  0
 10 12  3  0
  5 13  1  0
 13 14  2  0
 13 15  1  0
 16 18  1  0
 16 19  2  0
  6 17  1  0
 15 18  2  0
 14 19  1  0
  7 20  1  0
 16 21  1  0
 21 22  1  0
 17 23  1  0
 23 24  1  0
 20 24  1  0
M  END
>  <IDNUMBER>  (597) 
4073-0146

>  <available>  (597) 
149

>  <H_acceptor>  (597) 
4

>  <H_donor>  (597) 
0

>  <B_rotN>  (597) 
4

>  <N_O>  (597) 
5

>  <logP>  (597) 
4.313

>  <logD>  (597) 
4.313

>  <logSw>  (597) 
-4.495

>  <PSA>  (597) 
50.42

>  <pKa_ma>  (597) 
25.2661

>  <pKa_mb>  (597) 
2.5452

>  <N_Chirals>  (597) 
0

>  <Name>  (597) 
2-[5-(4-methoxyphenyl)-1H-1,2,4-triazol-1-yl]-4,5,6,7-tetrahydro-1-benzothiophene-3-carbonitrile

>  <Smile>  (597) 
COc(cc1)ccc1-c1ncnn1-c(sc1c2CCCC1)c2C#N

>  <Color>  (597) 
YELLOW

>  <Collection>  (597) 
DC

>  <InChI>  (597) 
InChI=1S/C18H16N4OS/c1-23-13-8-6-12(7-9-13)17-20-11-21-22(17)18-15(10-19)14-4-2-3-5-16(14)24-18/h6-9,11H,2-5H2,1H3

>  <InChI Key>  (597) 
GVRDXTJPIROCLJ-UHFFFAOYSA-N

>  <PERCENTSP3>  (597) 
27.8

>  <Link>  (597) 
https://www.chemdiv.com/catalog/screening-compounds/compound-4073-0146/

>  <MFCDNUMBER>  (597) 
MFCD01308468

>  <STEREO>  (597) 
ACHIRAL

>  <State>  (597) 
Solid

>  <Similarity score>  (597) 
0.18

$$$$
3-fluoro-3-(3-phenyl-1,2,4-oxadiazol-5-yl)-1-[(3,4,5-trimethoxyphenyl)methyl]pip
     RDKit          2D

 31 34  0  0  0  0  0  0  0  0999 V2000
    0.1362    2.2427    0.0000 N   0  0  0  0  0  0  0  0  0  0  0  0
   -0.8566    2.3994    0.0000 C   0  0  0  0  0  0  0  0  0  0  0  0
    0.5905    3.1357    0.0000 C   0  0  0  0  0  0  0  0  0  0  0  0
   -1.5551    1.6946    0.0000 C   0  0  0  0  0  0  0  0  0  0  0  0
   -0.1176    3.8372    0.0000 N   0  0  0  0  0  0  0  0  0  0  0  0
   -1.0103    3.3799    0.0000 O   0  0  0  0  0  0  0  0  0  0  0  0
   -2.0628   -2.6377    0.0000 C   0  0  0  0  0  0  0  0  0  0  0  0
   -3.0588    0.8238    0.0000 N   0  0  0  0  0  0  0  0  0  0  0  0
   -3.0588   -2.6377    0.0000 C   0  0  0  0  0  0  0  0  0  0  0  0
   -1.5551   -1.7728    0.0000 C   0  0  0  0  0  0  0  0  0  0  0  0
   -2.0628    0.8238    0.0000 C   0  0  0  0  0  0  0  0  0  0  0  0
   -3.0588   -0.9083    0.0000 C   0  0  0  0  0  0  0  0  0  0  0  0
   -3.5569   -1.7728    0.0000 C   0  0  0  0  0  0  0  0  0  0  0  0
   -2.0628   -0.9083    0.0000 C   0  0  0  0  0  0  0  0  0  0  0  0
    1.5773    3.2828    0.0000 C   0  0  0  0  0  0  0  0  0  0  0  0
   -3.5569   -0.0408    0.0000 C   0  0  0  0  0  0  0  0  0  0  0  0
   -1.1793    0.7644    0.0000 F   0  0  0  0  0  0  0  0  0  0  0  0
   -1.5551   -3.5082    0.0000 O   0  0  0  0  0  0  0  0  0  0  0  0
   -2.0628    2.5592    0.0000 C   0  0  0  0  0  0  0  0  0  0  0  0
   -3.5569   -3.5082    0.0000 O   0  0  0  0  0  0  0  0  0  0  0  0
   -0.5560   -1.7728    0.0000 O   0  0  0  0  0  0  0  0  0  0  0  0
   -3.5569    1.6946    0.0000 C   0  0  0  0  0  0  0  0  0  0  0  0
   -3.0588    2.5592    0.0000 C   0  0  0  0  0  0  0  0  0  0  0  0
    1.9342    4.2226    0.0000 C   0  0  0  0  0  0  0  0  0  0  0  0
    2.2069    2.5121    0.0000 C   0  0  0  0  0  0  0  0  0  0  0  0
   -0.5560   -3.5082    0.0000 C   0  0  0  0  0  0  0  0  0  0  0  0
   -0.0580   -2.6377    0.0000 C   0  0  0  0  0  0  0  0  0  0  0  0
   -3.0588   -4.3760    0.0000 C   0  0  0  0  0  0  0  0  0  0  0  0
    2.9273    4.3760    0.0000 C   0  0  0  0  0  0  0  0  0  0  0  0
    3.1997    2.6718    0.0000 C   0  0  0  0  0  0  0  0  0  0  0  0
    3.5569    3.6023    0.0000 C   0  0  0  0  0  0  0  0  0  0  0  0
  1  2  2  0
  1  3  1  0
  2  4  1  0
  3  5  2  0
  5  6  1  0
  2  6  1  0
  7 10  2  0
  7  9  1  0
  8 11  1  0
  9 13  2  0
 10 14  1  0
  4 11  1  0
 12 16  1  0
 12 13  1  0
 12 14  2  0
  3 15  1  0
  8 16  1  0
  4 17  1  0
  7 18  1  0
  4 19  1  0
  9 20  1  0
 10 21  1  0
 22 23  1  0
  8 22  1  0
 19 23  1  0
 15 24  2  0
 15 25  1  0
 18 26  1  0
 21 27  1  0
 20 28  1  0
 24 29  1  0
 25 30  2  0
 30 31  1  0
 29 31  2  0
M  END
>  <IDNUMBER>  (598) 
SA92-0038

>  <available>  (598) 
30

>  <H_acceptor>  (598) 
7

>  <H_donor>  (598) 
0

>  <B_rotN>  (598) 
7

>  <N_O>  (598) 
7

>  <logP>  (598) 
3.9608

>  <logD>  (598) 
2.0903

>  <logSw>  (598) 
-4.0767

>  <PSA>  (598) 
58.288

>  <pKa_ma>  (598) 
26.9519

>  <pKa_mb>  (598) 
9.2646

>  <N_Chirals>  (598) 
1

>  <Name>  (598) 
3-fluoro-3-(3-phenyl-1,2,4-oxadiazol-5-yl)-1-[(3,4,5-trimethoxyphenyl)methyl]piperidine

>  <Smile>  (598) 
COc1cc(CN(CCC2)CC2(c2nc(-c3ccccc3)no2)F)cc(OC)c1OC

>  <Color>  (598) 
ORANGE

>  <Collection>  (598) 
IC

>  <InChI>  (598) 
InChI=1S/C23H26FN3O4/c1-28-18-12-16(13-19(29-2)20(18)30-3)14-27-11-7-10-23(24,15-27)22-25-21(26-31-22)17-8-5-4-6-9-17/h4-6,8-9,12-13H,7,10-11,14-15H2,1-3H3/t23-/m0/s1

>  <InChI Key>  (598) 
HKNRHXMUOWUVDJ-QHCPKHFHSA-N

>  <PERCENTSP3>  (598) 
39.13

>  <Link>  (598) 
https://www.chemdiv.com/catalog/screening-compounds/compound-SA92-0038/

>  <MFCDNUMBER>  (598) 
MFCD32241812

>  <CLNUMBER>  (598) 
CM4899

>  <STEREO>  (598) 
RACEMIC MIXTURE

>  <State>  (598) 
Liquid

>  <Similarity score>  (598) 
0.18

$$$$
2-cyclopropyl-1-{3-fluoro-3-[3-(pyridin-4-yl)-1,2,4-oxadiazol-5-yl]piperidin-1-y
     RDKit          2D

 24 27  0  0  0  0  0  0  0  0999 V2000
   -0.5656    1.4701    0.0000 N   0  0  0  0  0  0  0  0  0  0  0  0
    0.3527    1.8837    0.0000 C   0  0  0  0  0  0  0  0  0  0  0  0
    1.2114    1.3792    0.0000 C   0  0  0  0  0  0  0  0  0  0  0  0
   -1.2333    2.2224    0.0000 C   0  0  0  0  0  0  0  0  0  0  0  0
   -0.7349    3.0811    0.0000 N   0  0  0  0  0  0  0  0  0  0  0  0
    2.7159    0.5204    0.0000 N   0  0  0  0  0  0  0  0  0  0  0  0
    0.2430    2.8806    0.0000 O   0  0  0  0  0  0  0  0  0  0  0  0
    3.2144   -0.3510    0.0000 C   0  0  0  0  0  0  0  0  0  0  0  0
    1.7193    0.5204    0.0000 C   0  0  0  0  0  0  0  0  0  0  0  0
    3.2144   -2.0811    0.0000 C   0  0  0  0  0  0  0  0  0  0  0  0
    2.7159   -1.2192    0.0000 C   0  0  0  0  0  0  0  0  0  0  0  0
    3.2144   -3.0811    0.0000 C   0  0  0  0  0  0  0  0  0  0  0  0
    4.0795   -2.5827    0.0000 C   0  0  0  0  0  0  0  0  0  0  0  0
   -2.2302    2.1127    0.0000 C   0  0  0  0  0  0  0  0  0  0  0  0
    4.2173   -0.3510    0.0000 O   0  0  0  0  0  0  0  0  0  0  0  0
    0.3527    0.8808    0.0000 F   0  0  0  0  0  0  0  0  0  0  0  0
   -4.2173    1.9027    0.0000 N   0  0  0  0  0  0  0  0  0  0  0  0
    1.7193    2.2506    0.0000 C   0  0  0  0  0  0  0  0  0  0  0  0
    3.2144    1.3792    0.0000 C   0  0  0  0  0  0  0  0  0  0  0  0
    2.7159    2.2506    0.0000 C   0  0  0  0  0  0  0  0  0  0  0  0
   -3.8130    2.8241    0.0000 C   0  0  0  0  0  0  0  0  0  0  0  0
   -3.6311    1.0940    0.0000 C   0  0  0  0  0  0  0  0  0  0  0  0
   -2.8224    2.9214    0.0000 C   0  0  0  0  0  0  0  0  0  0  0  0
   -2.6345    1.2005    0.0000 C   0  0  0  0  0  0  0  0  0  0  0  0
  1  2  2  0
  2  3  1  0
  1  4  1  0
  4  5  2  0
  5  7  1  0
  6  9  1  0
  2  7  1  0
  6  8  1  0
  3  9  1  0
 10 11  1  0
  8 11  1  0
 10 12  1  0
 12 13  1  0
 10 13  1  0
  4 14  1  0
  8 15  2  0
  3 16  1  0
 17 22  1  0
 17 21  2  0
  3 18  1  0
 19 20  1  0
  6 19  1  0
 18 20  1  0
 21 23  1  0
 22 24  2  0
 14 23  2  0
 14 24  1  0
M  END
>  <IDNUMBER>  (599) 
SA92-0206

>  <available>  (599) 
82

>  <H_acceptor>  (599) 
6

>  <H_donor>  (599) 
0

>  <B_rotN>  (599) 
5

>  <N_O>  (599) 
6

>  <logP>  (599) 
2.2295

>  <logD>  (599) 
2.2295

>  <logSw>  (599) 
-2.2685

>  <PSA>  (599) 
57.65

>  <pKa_ma>  (599) 
23.8009

>  <pKa_mb>  (599) 
3.6841

>  <N_Chirals>  (599) 
1

>  <Name>  (599) 
2-cyclopropyl-1-{3-fluoro-3-[3-(pyridin-4-yl)-1,2,4-oxadiazol-5-yl]piperidin-1-yl}ethan-1-one

>  <Smile>  (599) 
O=C(CC1CC1)N(CCC1)CC1(c1nc(-c2ccncc2)no1)F

>  <Color>  (599) 
YELLOW

>  <Collection>  (599) 
IC

>  <InChI>  (599) 
InChI=1S/C17H19FN4O2/c18-17(6-1-9-22(11-17)14(23)10-12-2-3-12)16-20-15(21-24-16)13-4-7-19-8-5-13/h4-5,7-8,12H,1-3,6,9-11H2/t17-/m0/s1

>  <InChI Key>  (599) 
HBCYOPQXHLBHSJ-KRWDZBQOSA-N

>  <PERCENTSP3>  (599) 
52.94

>  <Link>  (599) 
https://www.chemdiv.com/catalog/screening-compounds/compound-SA92-0206/

>  <MFCDNUMBER>  (599) 
MFCD32241697

>  <CLNUMBER>  (599) 
CM4899

>  <STEREO>  (599) 
RACEMIC MIXTURE

>  <State>  (599) 
Liquid

>  <Similarity score>  (599) 
0.18

$$$$
3-(2H-1,3-benzodioxol-5-yl)-N-(3-cyano-5,6-dihydro-4H-cyclopenta[b]thiophen-2-yl
     RDKit          2D

 32 37  0  0  0  0  0  0  0  0999 V2000
    1.5853    0.6562    0.0000 C   0  0  0  0  0  0  0  0  0  0  0  0
    2.5562    0.7187    0.0000 C   0  0  0  0  0  0  0  0  0  0  0  0
   -1.4105   -1.0770    0.0000 C   0  0  0  0  0  0  0  0  0  0  0  0
   -1.9062   -1.9438    0.0000 C   0  0  0  0  0  0  0  0  0  0  0  0
   -0.4147   -1.0770    0.0000 C   0  0  0  0  0  0  0  0  0  0  0  0
   -2.9896   -0.7438    0.0000 N   0  0  0  0  0  0  0  0  0  0  0  0
   -2.0854   -0.3396    0.0000 C   0  0  0  0  0  0  0  0  0  0  0  0
    1.2312    1.6270    0.0000 S   0  0  0  0  0  0  0  0  0  0  0  0
    2.8353    1.6646    0.0000 C   0  0  0  0  0  0  0  0  0  0  0  0
    1.0896   -0.2104    0.0000 N   0  0  0  0  0  0  0  0  0  0  0  0
    0.0811   -0.2104    0.0000 C   0  0  0  0  0  0  0  0  0  0  0  0
    2.0312    2.2478    0.0000 C   0  0  0  0  0  0  0  0  0  0  0  0
   -2.8853   -1.7271    0.0000 O   0  0  0  0  0  0  0  0  0  0  0  0
   -1.4105   -2.8104    0.0000 N   0  0  0  0  0  0  0  0  0  0  0  0
   -2.1105    0.6562    0.0000 C   0  0  0  0  0  0  0  0  0  0  0  0
    3.2062   -0.0689    0.0000 C   0  0  0  0  0  0  0  0  0  0  0  0
    3.8188   -0.8354    0.0000 N   0  0  0  0  0  0  0  0  0  0  0  0
   -3.0396    2.1229    0.0000 C   0  0  0  0  0  0  0  0  0  0  0  0
   -3.0022    1.1271    0.0000 C   0  0  0  0  0  0  0  0  0  0  0  0
    0.0811   -1.9438    0.0000 C   0  0  0  0  0  0  0  0  0  0  0  0
   -2.1980    2.6562    0.0000 C   0  0  0  0  0  0  0  0  0  0  0  0
   -3.8188    2.7605    0.0000 O   0  0  0  0  0  0  0  0  0  0  0  0
   -0.4147   -2.8104    0.0000 C   0  0  0  0  0  0  0  0  0  0  0  0
   -2.4521    3.6271    0.0000 O   0  0  0  0  0  0  0  0  0  0  0  0
   -0.4147    0.6562    0.0000 O   0  0  0  0  0  0  0  0  0  0  0  0
   -3.4479    3.6896    0.0000 C   0  0  0  0  0  0  0  0  0  0  0  0
   -1.2687    1.1937    0.0000 C   0  0  0  0  0  0  0  0  0  0  0  0
   -1.3062    2.1978    0.0000 C   0  0  0  0  0  0  0  0  0  0  0  0
    3.6396    2.2895    0.0000 C   0  0  0  0  0  0  0  0  0  0  0  0
    2.3146    3.2187    0.0000 C   0  0  0  0  0  0  0  0  0  0  0  0
    3.2938    3.2187    0.0000 C   0  0  0  0  0  0  0  0  0  0  0  0
    0.0937   -3.6896    0.0000 C   0  0  0  0  0  0  0  0  0  0  0  0
  1  2  2  0
  3  5  1  0
  3  4  2  0
  4 14  1  0
  5 11  1  0
  6  7  2  0
  3  7  1  0
  1  8  1  0
  2  9  1  0
  9 12  2  0
  1 10  1  0
 10 11  1  0
  8 12  1  0
  4 13  1  0
  6 13  1  0
 14 23  2  0
  7 15  1  0
  2 16  1  0
 16 17  3  0
 18 19  1  0
 18 21  2  0
 15 19  2  0
  5 20  2  0
 21 28  1  0
 18 22  1  0
 20 23  1  0
 21 24  1  0
 11 25  2  0
 22 26  1  0
 24 26  1  0
 15 27  1  0
 27 28  2  0
  9 29  1  0
 29 31  1  0
 12 30  1  0
 30 31  1  0
 23 32  1  0
M  END
>  <IDNUMBER>  (600) 
Y501-2683

>  <available>  (600) 
13

>  <H_acceptor>  (600) 
8

>  <H_donor>  (600) 
1

>  <B_rotN>  (600) 
5

>  <N_O>  (600) 
8

>  <logP>  (600) 
4.2591

>  <logD>  (600) 
2.7337

>  <logSw>  (600) 
-4.5644

>  <PSA>  (600) 
88.105

>  <pKa_ma>  (600) 
5.8877

>  <pKa_mb>  (600) 
-1.9333

>  <N_Chirals>  (600) 
0

>  <Name>  (600) 
3-(2H-1,3-benzodioxol-5-yl)-N-(3-cyano-5,6-dihydro-4H-cyclopenta[b]thiophen-2-yl)-6-methyl[1,2]oxazolo[5,4-b]pyridine-4-carboxamide

>  <Smile>  (600) 
Cc1cc(C(Nc(sc2c3CCC2)c3C#N)=O)c(c(-c(cc2)cc3c2OCO3)no2)c2n1

>  <Color>  (600) 
BROWN

>  <Collection>  (600) 
DC

>  <InChI>  (600) 
InChI=1S/C23H16N4O4S/c1-11-7-14(21(28)26-23-15(9-24)13-3-2-4-18(13)32-23)19-20(27-31-22(19)25-11)12-5-6-16-17(8-12)30-10-29-16/h5-8H,2-4,10H2,1H3,(H,26,28)

>  <InChI Key>  (600) 
GSFFRALGTHMSLX-UHFFFAOYSA-N

>  <PERCENTSP3>  (600) 
21.74

>  <Link>  (600) 
https://www.chemdiv.com/catalog/screening-compounds/compound-Y501-2683/

>  <MFCDNUMBER>  (600) 
MFCD08557785

>  <CLNUMBER>  (600) 
CL7490

>  <STEREO>  (600) 
ACHIRAL

>  <State>  (600) 
Solid

>  <Similarity score>  (600) 
0.18

$$$$
2-amino-6-tert-butyl-4,5,6,7-tetrahydro-1-benzothiophene-3-carbonitrile
     RDKit          2D

 16 17  0  0  0  0  0  0  0  0999 V2000
    1.4271    0.4072    0.0000 C   0  0  0  0  0  0  0  0  0  0  0  0
    1.9993   -0.4100    0.0000 C   0  0  0  0  0  0  0  0  0  0  0  0
    0.4664   -0.9057    0.0000 C   0  0  0  0  0  0  0  0  0  0  0  0
    0.4664    0.1106    0.0000 C   0  0  0  0  0  0  0  0  0  0  0  0
    1.4271   -1.2203    0.0000 S   0  0  0  0  0  0  0  0  0  0  0  0
    1.7528    1.3386    0.0000 C   0  0  0  0  0  0  0  0  0  0  0  0
   -0.3996   -1.4208    0.0000 C   0  0  0  0  0  0  0  0  0  0  0  0
    2.0786    2.2687    0.0000 N   0  0  0  0  0  0  0  0  0  0  0  0
   -0.3996    0.6063    0.0000 C   0  0  0  0  0  0  0  0  0  0  0  0
   -1.2655   -0.9057    0.0000 C   0  0  0  0  0  0  0  0  0  0  0  0
   -2.1343   -1.4027    0.0000 C   0  0  0  0  0  0  0  0  0  0  0  0
    2.9934   -0.4100    0.0000 N   0  0  0  0  0  0  0  0  0  0  0  0
   -1.2655    0.1106    0.0000 C   0  0  0  0  0  0  0  0  0  0  0  0
   -2.9934   -1.8831    0.0000 C   0  0  0  0  0  0  0  0  0  0  0  0
   -1.6372   -2.2687    0.0000 C   0  0  0  0  0  0  0  0  0  0  0  0
   -2.6313   -0.5340    0.0000 C   0  0  0  0  0  0  0  0  0  0  0  0
  1  2  2  0
  3  4  2  0
  3  5  1  0
  1  4  1  0
  2  5  1  0
  1  6  1  0
  3  7  1  0
  6  8  3  0
  4  9  1  0
 10 13  1  0
 10 11  1  0
  7 10  1  0
 11 14  1  0
  2 12  1  0
  9 13  1  0
 11 15  1  0
 11 16  1  0
M  END
>  <IDNUMBER>  (601) 
8010-3876

>  <available>  (601) 
13

>  <H_acceptor>  (601) 
1

>  <H_donor>  (601) 
2

>  <B_rotN>  (601) 
2

>  <N_O>  (601) 
2

>  <logP>  (601) 
3.7035

>  <logD>  (601) 
3.7035

>  <logSw>  (601) 
-4.2816

>  <PSA>  (601) 
38.492

>  <pKa_ma>  (601) 
15.9936

>  <pKa_mb>  (601) 
-2.1439

>  <N_Chirals>  (601) 
1

>  <Name>  (601) 
2-amino-6-tert-butyl-4,5,6,7-tetrahydro-1-benzothiophene-3-carbonitrile

>  <Smile>  (601) 
CC(C)(C)C(CC1)Cc2c1c(C#N)c(N)s2

>  <Color>  (601) 
NOT COLORED

>  <Collection>  (601) 
DC

>  <InChI>  (601) 
InChI=1S/C13H18N2S/c1-13(2,3)8-4-5-9-10(7-14)12(15)16-11(9)6-8/h8H,4-6,15H2,1-3H3/t8-/m1/s1

>  <InChI Key>  (601) 
QDIYAWBTKKYATE-MRVPVSSYSA-N

>  <PERCENTSP3>  (601) 
61.5

>  <Link>  (601) 
https://www.chemdiv.com/catalog/screening-compounds/compound-8010-3876/

>  <MFCDNUMBER>  (601) 
MFCD00128283

>  <STEREO>  (601) 
RACEMIC MIXTURE

>  <State>  (601) 
Solid

>  <Similarity score>  (601) 
0.21

$$$$
2-amino-6-(2-methylbutan-2-yl)-4,5,6,7-tetrahydro-1-benzothiophene-3-carbonitril
     RDKit          2D

 17 18  0  0  0  0  0  0  0  0999 V2000
    1.6932   -0.4603    0.0000 C   0  0  0  0  0  0  0  0  0  0  0  0
    1.3725   -1.3892    0.0000 C   0  0  0  0  0  0  0  0  0  0  0  0
    0.0688   -0.4603    0.0000 C   0  0  0  0  0  0  0  0  0  0  0  0
    0.8643    0.1437    0.0000 C   0  0  0  0  0  0  0  0  0  0  0  0
    0.4186   -1.3892    0.0000 S   0  0  0  0  0  0  0  0  0  0  0  0
    2.6471   -0.2062    0.0000 C   0  0  0  0  0  0  0  0  0  0  0  0
   -0.8267   -0.0479    0.0000 C   0  0  0  0  0  0  0  0  0  0  0  0
    3.6093    0.0479    0.0000 N   0  0  0  0  0  0  0  0  0  0  0  0
    0.7685    1.1350    0.0000 C   0  0  0  0  0  0  0  0  0  0  0  0
   -0.9559    0.9434    0.0000 C   0  0  0  0  0  0  0  0  0  0  0  0
   -1.9139    1.3225    0.0000 C   0  0  0  0  0  0  0  0  0  0  0  0
    1.9472   -2.2514    0.0000 N   0  0  0  0  0  0  0  0  0  0  0  0
   -0.1561    1.5474    0.0000 C   0  0  0  0  0  0  0  0  0  0  0  0
   -2.8428    1.6766    0.0000 C   0  0  0  0  0  0  0  0  0  0  0  0
   -1.5307    2.2514    0.0000 C   0  0  0  0  0  0  0  0  0  0  0  0
   -2.2639    0.3686    0.0000 C   0  0  0  0  0  0  0  0  0  0  0  0
   -3.6093    1.0559    0.0000 C   0  0  0  0  0  0  0  0  0  0  0  0
  1  2  2  0
  3  4  2  0
  3  5  1  0
  1  4  1  0
  2  5  1  0
  1  6  1  0
  3  7  1  0
  7 10  1  0
  6  8  3  0
  4  9  1  0
 10 13  1  0
 10 11  1  0
  2 12  1  0
  9 13  1  0
 11 14  1  0
 11 15  1  0
 11 16  1  0
 14 17  1  0
M  END
>  <IDNUMBER>  (602) 
Y503-0012

>  <available>  (602) 
20

>  <H_acceptor>  (602) 
1

>  <H_donor>  (602) 
2

>  <B_rotN>  (602) 
3

>  <N_O>  (602) 
2

>  <logP>  (602) 
3.612

>  <logD>  (602) 
3.612

>  <logSw>  (602) 
-3.9177

>  <PSA>  (602) 
38.492

>  <pKa_ma>  (602) 
15.9936

>  <pKa_mb>  (602) 
-2.1439

>  <N_Chirals>  (602) 
1

>  <Name>  (602) 
2-amino-6-(2-methylbutan-2-yl)-4,5,6,7-tetrahydro-1-benzothiophene-3-carbonitrile

>  <Smile>  (602) 
CCC(C)(C)C(CC1)Cc2c1c(C#N)c(N)s2

>  <Color>  (602) 
ORANGE

>  <Collection>  (602) 
DC

>  <InChI>  (602) 
InChI=1S/C14H20N2S/c1-4-14(2,3)9-5-6-10-11(8-15)13(16)17-12(10)7-9/h9H,4-7,16H2,1-3H3/t9-/m1/s1

>  <InChI Key>  (602) 
KWZDWUOSGNGFOU-SECBINFHSA-N

>  <PERCENTSP3>  (602) 
64.29

>  <Link>  (602) 
https://www.chemdiv.com/catalog/screening-compounds/compound-Y503-0012/

>  <MFCDNUMBER>  (602) 
MFCD01335783

>  <STEREO>  (602) 
RACEMIC MIXTURE

>  <State>  (602) 
Solid

>  <Similarity score>  (602) 
0.21

$$$$
N-(6-tert-butyl-3-cyano-4,5,6,7-tetrahydro-1-benzothiophen-2-yl)-6-methyl-3-phen
     RDKit          2D

 34 38  0  0  0  0  0  0  0  0999 V2000
   -0.2772   -1.0770    0.0000 C   0  0  0  0  0  0  0  0  0  0  0  0
    0.0270   -2.0227    0.0000 C   0  0  0  0  0  0  0  0  0  0  0  0
   -2.7520    1.4020    0.0000 C   0  0  0  0  0  0  0  0  0  0  0  0
   -3.7185    1.6687    0.0000 C   0  0  0  0  0  0  0  0  0  0  0  0
    1.3227   -0.9687    0.0000 C   0  0  0  0  0  0  0  0  0  0  0  0
    1.1188   -1.9102    0.0000 C   0  0  0  0  0  0  0  0  0  0  0  0
    0.4688   -0.4394    0.0000 S   0  0  0  0  0  0  0  0  0  0  0  0
   -2.5021    0.4355    0.0000 C   0  0  0  0  0  0  0  0  0  0  0  0
   -2.8270    3.0229    0.0000 N   0  0  0  0  0  0  0  0  0  0  0  0
   -2.2021    2.2354    0.0000 C   0  0  0  0  0  0  0  0  0  0  0  0
   -1.2853   -0.7977    0.0000 N   0  0  0  0  0  0  0  0  0  0  0  0
   -1.5354    0.1687    0.0000 C   0  0  0  0  0  0  0  0  0  0  0  0
   -3.7645    2.6687    0.0000 O   0  0  0  0  0  0  0  0  0  0  0  0
   -4.4310    0.9646    0.0000 N   0  0  0  0  0  0  0  0  0  0  0  0
   -0.4355   -2.8562    0.0000 C   0  0  0  0  0  0  0  0  0  0  0  0
    2.3061   -0.6478    0.0000 C   0  0  0  0  0  0  0  0  0  0  0  0
   -0.9187   -3.7062    0.0000 N   0  0  0  0  0  0  0  0  0  0  0  0
    1.8603   -2.6019    0.0000 C   0  0  0  0  0  0  0  0  0  0  0  0
    3.0102   -1.3186    0.0000 C   0  0  0  0  0  0  0  0  0  0  0  0
   -3.2145   -0.2645    0.0000 C   0  0  0  0  0  0  0  0  0  0  0  0
   -4.1769   -0.0021    0.0000 C   0  0  0  0  0  0  0  0  0  0  0  0
    3.9560   -1.0103    0.0000 C   0  0  0  0  0  0  0  0  0  0  0  0
   -0.8271    0.8688    0.0000 O   0  0  0  0  0  0  0  0  0  0  0  0
   -1.2312    2.4895    0.0000 C   0  0  0  0  0  0  0  0  0  0  0  0
    2.8352   -2.2853    0.0000 C   0  0  0  0  0  0  0  0  0  0  0  0
    3.6437   -0.0646    0.0000 C   0  0  0  0  0  0  0  0  0  0  0  0
    4.2600   -1.9437    0.0000 C   0  0  0  0  0  0  0  0  0  0  0  0
    4.8894   -0.7064    0.0000 C   0  0  0  0  0  0  0  0  0  0  0  0
   -4.8894   -0.7064    0.0000 C   0  0  0  0  0  0  0  0  0  0  0  0
   -0.5313    1.7771    0.0000 C   0  0  0  0  0  0  0  0  0  0  0  0
   -0.9728    3.4560    0.0000 C   0  0  0  0  0  0  0  0  0  0  0  0
    0.4355    2.0311    0.0000 C   0  0  0  0  0  0  0  0  0  0  0  0
   -0.0105    3.7062    0.0000 C   0  0  0  0  0  0  0  0  0  0  0  0
    0.6937    2.9978    0.0000 C   0  0  0  0  0  0  0  0  0  0  0  0
  1  2  2  0
  3  8  1  0
  3  4  2  0
  5  7  1  0
  5  6  2  0
  2  6  1  0
  1  7  1  0
  8 12  1  0
  9 10  2  0
  9 13  1  0
  3 10  1  0
  1 11  1  0
 11 12  1  0
  4 13  1  0
 14 21  2  0
  4 14  1  0
  2 15  1  0
  5 16  1  0
 15 17  3  0
  6 18  1  0
 16 19  1  0
 19 25  1  0
  8 20  2  0
 20 21  1  0
 19 22  1  0
 12 23  2  0
 10 24  1  0
 18 25  1  0
 22 26  1  0
 22 27  1  0
 22 28  1  0
 21 29  1  0
 24 30  2  0
 24 31  1  0
 30 32  1  0
 31 33  2  0
 33 34  1  0
 32 34  2  0
M  END
>  <IDNUMBER>  (603) 
Y501-3243

>  <available>  (603) 
22

>  <H_acceptor>  (603) 
6

>  <H_donor>  (603) 
1

>  <B_rotN>  (603) 
6

>  <N_O>  (603) 
6

>  <logP>  (603) 
6.1127

>  <logD>  (603) 
4.6073

>  <logSw>  (603) 
-5.8344

>  <PSA>  (603) 
70.624

>  <pKa_ma>  (603) 
5.9084

>  <pKa_mb>  (603) 
-1.9333

>  <N_Chirals>  (603) 
1

>  <Name>  (603) 
N-(6-tert-butyl-3-cyano-4,5,6,7-tetrahydro-1-benzothiophen-2-yl)-6-methyl-3-phenyl[1,2]oxazolo[5,4-b]pyridine-4-carboxamide

>  <Smile>  (603) 
CC(C)(C)C(CC1)Cc2c1c(C#N)c(NC(c1c(c(-c3ccccc3)no3)c3nc(C)c1)=O)s2

>  <Color>  (603) 
BROWN

>  <Collection>  (603) 
DC

>  <InChI>  (603) 
InChI=1S/C27H26N4O2S/c1-15-12-19(22-23(31-33-25(22)29-15)16-8-6-5-7-9-16)24(32)30-26-20(14-28)18-11-10-17(27(2,3)4)13-21(18)34-26/h5-9,12,17H,10-11,13H2,1-4H3,(H,30,32)/t17-/m1/s1

>  <InChI Key>  (603) 
UNLHKJVPYHSOBN-QGZVFWFLSA-N

>  <PERCENTSP3>  (603) 
33.33

>  <Link>  (603) 
https://www.chemdiv.com/catalog/screening-compounds/compound-Y501-3243/

>  <MFCDNUMBER>  (603) 
MFCD08558513

>  <CLNUMBER>  (603) 
CL7490

>  <STEREO>  (603) 
RACEMIC MIXTURE

>  <State>  (603) 
Solid

>  <Similarity score>  (603) 
0.21

$$$$
N-(6-tert-butyl-3-cyano-4,5,6,7-tetrahydro-1-benzothiophen-2-yl)-7-methoxy-4,5-d
     RDKit          2D

 33 37  0  0  0  0  0  0  0  0999 V2000
   -0.6047   -1.6597    0.0000 C   0  0  0  0  0  0  0  0  0  0  0  0
    0.2101    1.4626    0.0000 C   0  0  0  0  0  0  0  0  0  0  0  0
   -1.4111   -2.2203    0.0000 C   0  0  0  0  0  0  0  0  0  0  0  0
    0.9934    2.0375    0.0000 C   0  0  0  0  0  0  0  0  0  0  0  0
    0.7104    2.9580    0.0000 C   0  0  0  0  0  0  0  0  0  0  0  0
   -0.5591    2.0459    0.0000 N   0  0  0  0  0  0  0  0  0  0  0  0
   -0.1271   -3.2009    0.0000 C   0  0  0  0  0  0  0  0  0  0  0  0
   -1.1338   -3.1810    0.0000 C   0  0  0  0  0  0  0  0  0  0  0  0
    0.1956   -2.2632    0.0000 S   0  0  0  0  0  0  0  0  0  0  0  0
    0.2557   -0.1498    0.0000 C   0  0  0  0  0  0  0  0  0  0  0  0
   -0.2557    2.9580    0.0000 O   0  0  0  0  0  0  0  0  0  0  0  0
   -0.6047   -0.6505    0.0000 N   0  0  0  0  0  0  0  0  0  0  0  0
    1.3569    3.6701    0.0000 C   0  0  0  0  0  0  0  0  0  0  0  0
   -2.3546   -1.8858    0.0000 C   0  0  0  0  0  0  0  0  0  0  0  0
    2.2947    3.4583    0.0000 C   0  0  0  0  0  0  0  0  0  0  0  0
    1.9430    1.8257    0.0000 C   0  0  0  0  0  0  0  0  0  0  0  0
    0.3473   -4.0786    0.0000 C   0  0  0  0  0  0  0  0  0  0  0  0
   -3.3068   -1.5540    0.0000 N   0  0  0  0  0  0  0  0  0  0  0  0
   -1.6486   -4.0273    0.0000 C   0  0  0  0  0  0  0  0  0  0  0  0
   -0.1818   -4.9338    0.0000 C   0  0  0  0  0  0  0  0  0  0  0  0
    1.0708    4.5906    0.0000 C   0  0  0  0  0  0  0  0  0  0  0  0
    0.2958   -5.8259    0.0000 C   0  0  0  0  0  0  0  0  0  0  0  0
    1.0794   -0.6646    0.0000 O   0  0  0  0  0  0  0  0  0  0  0  0
    2.5922    2.5464    0.0000 C   0  0  0  0  0  0  0  0  0  0  0  0
    2.9437    4.1675    0.0000 C   0  0  0  0  0  0  0  0  0  0  0  0
   -1.1680   -4.9052    0.0000 C   0  0  0  0  0  0  0  0  0  0  0  0
    2.6576    5.0911    0.0000 C   0  0  0  0  0  0  0  0  0  0  0  0
    1.7198    5.3025    0.0000 C   0  0  0  0  0  0  0  0  0  0  0  0
    3.3068    5.8001    0.0000 O   0  0  0  0  0  0  0  0  0  0  0  0
   -0.6047   -6.2949    0.0000 C   0  0  0  0  0  0  0  0  0  0  0  0
    1.1853   -5.3626    0.0000 C   0  0  0  0  0  0  0  0  0  0  0  0
    0.7564   -6.7238    0.0000 C   0  0  0  0  0  0  0  0  0  0  0  0
    3.0211    6.7238    0.0000 C   0  0  0  0  0  0  0  0  0  0  0  0
  2 10  1  0
  1  3  2  0
  2  4  1  0
  4  5  2  0
  5 11  1  0
  2  6  2  0
  7  9  1  0
  7  8  2  0
  3  8  1  0
  1  9  1  0
 10 12  1  0
  6 11  1  0
  1 12  1  0
  5 13  1  0
 13 15  2  0
  3 14  1  0
 15 24  1  0
  4 16  1  0
  7 17  1  0
 14 18  3  0
  8 19  1  0
 17 20  1  0
 13 21  1  0
 20 22  1  0
 10 23  2  0
 16 24  1  0
 15 25  1  0
 19 26  1  0
 20 26  1  0
 25 27  2  0
 21 28  2  0
 27 28  1  0
 27 29  1  0
 22 30  1  0
 22 31  1  0
 22 32  1  0
 29 33  1  0
M  END
>  <IDNUMBER>  (604) 
C226-4089

>  <available>  (604) 
179

>  <H_acceptor>  (604) 
6

>  <H_donor>  (604) 
1

>  <B_rotN>  (604) 
6

>  <N_O>  (604) 
6

>  <logP>  (604) 
6.4941

>  <logD>  (604) 
4.7214

>  <logSw>  (604) 
-5.7453

>  <PSA>  (604) 
69.726

>  <pKa_ma>  (604) 
5.6347

>  <pKa_mb>  (604) 
-6.2231

>  <N_Chirals>  (604) 
1

>  <Name>  (604) 
N-(6-tert-butyl-3-cyano-4,5,6,7-tetrahydro-1-benzothiophen-2-yl)-7-methoxy-4,5-dihydronaphtho[2,1-d][1,2]oxazole-3-carboxamide

>  <Smile>  (604) 
CC(C)(C)C(CC1)Cc2c1c(C#N)c(NC(c1noc-3c1CCc1c3ccc(OC)c1)=O)s2

>  <Color>  (604) 
PINK

>  <Collection>  (604) 
DC

>  <InChI>  (604) 
InChI=1S/C26H27N3O3S/c1-26(2,3)15-6-9-18-20(13-27)25(33-21(18)12-15)28-24(30)22-19-8-5-14-11-16(31-4)7-10-17(14)23(19)32-29-22/h7,10-11,15H,5-6,8-9,12H2,1-4H3,(H,28,30)/t15-/m1/s1

>  <InChI Key>  (604) 
WFZSOGLSFMECFP-OAHLLOKOSA-N

>  <PERCENTSP3>  (604) 
42.3

>  <Link>  (604) 
https://www.chemdiv.com/catalog/screening-compounds/compound-C226-4089/

>  <MFCDNUMBER>  (604) 
MFCD09783258

>  <CLNUMBER>  (604) 
CL6931

>  <STEREO>  (604) 
RACEMIC MIXTURE

>  <State>  (604) 
Solid

>  <Similarity score>  (604) 
0.21

$$$$
N-(3-cyano-4,5,6,7-tetrahydro-1-benzothiophen-2-yl)-6-cyclopropyl-3-(4-methoxyph
     RDKit          2D

 34 39  0  0  0  0  0  0  0  0999 V2000
    0.1208    1.0978    0.0000 C   0  0  0  0  0  0  0  0  0  0  0  0
    0.3457    2.0935    0.0000 C   0  0  0  0  0  0  0  0  0  0  0  0
    0.7833   -2.2935    0.0000 C   0  0  0  0  0  0  0  0  0  0  0  0
    1.4415   -3.0433    0.0000 C   0  0  0  0  0  0  0  0  0  0  0  0
    1.1081   -1.3435    0.0000 C   0  0  0  0  0  0  0  0  0  0  0  0
   -0.0458   -3.6808    0.0000 N   0  0  0  0  0  0  0  0  0  0  0  0
   -0.8707    1.0102    0.0000 S   0  0  0  0  0  0  0  0  0  0  0  0
   -0.5083    2.5934    0.0000 C   0  0  0  0  0  0  0  0  0  0  0  0
   -0.1332   -2.6809    0.0000 C   0  0  0  0  0  0  0  0  0  0  0  0
    0.7790    0.3562    0.0000 N   0  0  0  0  0  0  0  0  0  0  0  0
    0.4542   -0.5935    0.0000 C   0  0  0  0  0  0  0  0  0  0  0  0
    2.4206   -2.8559    0.0000 N   0  0  0  0  0  0  0  0  0  0  0  0
   -1.2706    1.9518    0.0000 C   0  0  0  0  0  0  0  0  0  0  0  0
    0.9291   -3.9057    0.0000 O   0  0  0  0  0  0  0  0  0  0  0  0
    2.7454   -1.9058    0.0000 C   0  0  0  0  0  0  0  0  0  0  0  0
    2.0913   -1.1560    0.0000 C   0  0  0  0  0  0  0  0  0  0  0  0
    1.2456    2.4975    0.0000 C   0  0  0  0  0  0  0  0  0  0  0  0
    3.7286   -1.7184    0.0000 C   0  0  0  0  0  0  0  0  0  0  0  0
    2.1371    2.9058    0.0000 N   0  0  0  0  0  0  0  0  0  0  0  0
    4.6701   -2.0435    0.0000 C   0  0  0  0  0  0  0  0  0  0  0  0
    4.4827   -1.0562    0.0000 C   0  0  0  0  0  0  0  0  0  0  0  0
   -1.0789   -2.3642    0.0000 C   0  0  0  0  0  0  0  0  0  0  0  0
   -0.5290   -0.7812    0.0000 O   0  0  0  0  0  0  0  0  0  0  0  0
   -1.8372   -3.0183    0.0000 C   0  0  0  0  0  0  0  0  0  0  0  0
   -1.2706   -1.3810    0.0000 C   0  0  0  0  0  0  0  0  0  0  0  0
   -2.9705   -1.7144    0.0000 C   0  0  0  0  0  0  0  0  0  0  0  0
   -0.6833    3.5599    0.0000 C   0  0  0  0  0  0  0  0  0  0  0  0
   -2.2205   -1.0562    0.0000 C   0  0  0  0  0  0  0  0  0  0  0  0
   -2.7787   -2.6933    0.0000 C   0  0  0  0  0  0  0  0  0  0  0  0
   -2.2288    2.2683    0.0000 C   0  0  0  0  0  0  0  0  0  0  0  0
   -3.9162   -1.3810    0.0000 O   0  0  0  0  0  0  0  0  0  0  0  0
   -4.6701   -2.0435    0.0000 C   0  0  0  0  0  0  0  0  0  0  0  0
   -1.6332    3.9057    0.0000 C   0  0  0  0  0  0  0  0  0  0  0  0
   -2.3955    3.2641    0.0000 C   0  0  0  0  0  0  0  0  0  0  0  0
  1  2  2  0
  3  5  1  0
  3  4  2  0
  5 11  1  0
  6  9  2  0
  6 14  1  0
  1  7  1  0
  2  8  1  0
  3  9  1  0
  1 10  1  0
 10 11  1  0
 12 15  2  0
  4 12  1  0
  7 13  1  0
  8 13  2  0
  4 14  1  0
 15 16  1  0
  5 16  2  0
  2 17  1  0
 15 18  1  0
 17 19  3  0
 18 20  1  0
 18 21  1  0
 20 21  1  0
  9 22  1  0
 11 23  2  0
 22 24  2  0
 22 25  1  0
 26 28  1  0
 26 29  2  0
  8 27  1  0
 25 28  2  0
 24 29  1  0
 13 30  1  0
 26 31  1  0
 31 32  1  0
 27 33  1  0
 30 34  1  0
 33 34  1  0
M  END
>  <IDNUMBER>  (605) 
Y505-2298

>  <available>  (605) 
17

>  <H_acceptor>  (605) 
7

>  <H_donor>  (605) 
1

>  <B_rotN>  (605) 
7

>  <N_O>  (605) 
7

>  <logP>  (605) 
5.6464

>  <logD>  (605) 
4.141

>  <logSw>  (605) 
-5.6909

>  <PSA>  (605) 
78.613

>  <pKa_ma>  (605) 
5.9084

>  <pKa_mb>  (605) 
-0.3426

>  <N_Chirals>  (605) 
0

>  <Name>  (605) 
N-(3-cyano-4,5,6,7-tetrahydro-1-benzothiophen-2-yl)-6-cyclopropyl-3-(4-methoxyphenyl)[1,2]oxazolo[5,4-b]pyridine-4-carboxamide

>  <Smile>  (605) 
COc(cc1)ccc1-c1noc2nc(C3CC3)cc(C(Nc(sc3c4CCCC3)c4C#N)=O)c12

>  <Color>  (605) 
BROWN

>  <Collection>  (605) 
DC

>  <InChI>  (605) 
InChI=1S/C26H22N4O3S/c1-32-16-10-8-15(9-11-16)23-22-18(12-20(14-6-7-14)28-25(22)33-30-23)24(31)29-26-19(13-27)17-4-2-3-5-21(17)34-26/h8-12,14H,2-7H2,1H3,(H,29,31)

>  <InChI Key>  (605) 
FSQSTPJPFLTSGF-UHFFFAOYSA-N

>  <PERCENTSP3>  (605) 
30.8

>  <Link>  (605) 
https://www.chemdiv.com/catalog/screening-compounds/compound-Y505-2298/

>  <MFCDNUMBER>  (605) 
MFCD10701920

>  <CLNUMBER>  (605) 
CL7490

>  <STEREO>  (605) 
ACHIRAL

>  <State>  (605) 
Solid

>  <Similarity score>  (605) 
0.21

$$$$
N-(6-tert-butyl-3-cyano-4,5,6,7-tetrahydro-1-benzothiophen-2-yl)-4,5,6,7-tetrahy
     RDKit          2D

 27 30  0  0  0  0  0  0  0  0999 V2000
   -0.2489   -0.1276    0.0000 C   0  0  0  0  0  0  0  0  0  0  0  0
   -1.0559   -0.6835    0.0000 C   0  0  0  0  0  0  0  0  0  0  0  0
    0.5816    2.9347    0.0000 C   0  0  0  0  0  0  0  0  0  0  0  0
    0.2296   -1.6664    0.0000 C   0  0  0  0  0  0  0  0  0  0  0  0
   -0.7792   -1.6471    0.0000 C   0  0  0  0  0  0  0  0  0  0  0  0
   -0.0987    3.5850    0.0000 N   0  0  0  0  0  0  0  0  0  0  0  0
    0.5516   -0.7288    0.0000 S   0  0  0  0  0  0  0  0  0  0  0  0
    1.4227    3.6001    0.0000 C   0  0  0  0  0  0  0  0  0  0  0  0
    0.6116    1.3831    0.0000 C   0  0  0  0  0  0  0  0  0  0  0  0
   -0.2489    0.8852    0.0000 N   0  0  0  0  0  0  0  0  0  0  0  0
    0.1826    4.4779    0.0000 O   0  0  0  0  0  0  0  0  0  0  0  0
    1.1245    4.4928    0.0000 C   0  0  0  0  0  0  0  0  0  0  0  0
   -1.9981   -0.3530    0.0000 C   0  0  0  0  0  0  0  0  0  0  0  0
    0.7015   -2.5419    0.0000 C   0  0  0  0  0  0  0  0  0  0  0  0
   -2.9509   -0.0204    0.0000 N   0  0  0  0  0  0  0  0  0  0  0  0
   -1.2918   -2.4927    0.0000 C   0  0  0  0  0  0  0  0  0  0  0  0
    0.1736   -3.3982    0.0000 C   0  0  0  0  0  0  0  0  0  0  0  0
    0.6526   -4.2911    0.0000 C   0  0  0  0  0  0  0  0  0  0  0  0
    1.4227    0.8896    0.0000 O   0  0  0  0  0  0  0  0  0  0  0  0
   -0.8134   -3.3684    0.0000 C   0  0  0  0  0  0  0  0  0  0  0  0
    2.3264    3.4200    0.0000 C   0  0  0  0  0  0  0  0  0  0  0  0
    1.7447    5.1881    0.0000 C   0  0  0  0  0  0  0  0  0  0  0  0
   -0.2489   -4.7590    0.0000 C   0  0  0  0  0  0  0  0  0  0  0  0
    1.5430   -3.8276    0.0000 C   0  0  0  0  0  0  0  0  0  0  0  0
    1.1096   -5.1881    0.0000 C   0  0  0  0  0  0  0  0  0  0  0  0
    2.9509    4.1088    0.0000 C   0  0  0  0  0  0  0  0  0  0  0  0
    2.6505    5.0057    0.0000 C   0  0  0  0  0  0  0  0  0  0  0  0
  1  2  2  0
  3  9  1  0
  4  7  1  0
  4  5  2  0
  2  5  1  0
  3  6  2  0
  1  7  1  0
  3  8  1  0
  9 10  1  0
  1 10  1  0
  6 11  1  0
  8 12  2  0
 11 12  1  0
  2 13  1  0
  4 14  1  0
 13 15  3  0
  5 16  1  0
 14 17  1  0
 17 18  1  0
  9 19  2  0
 16 20  1  0
 17 20  1  0
  8 21  1  0
 12 22  1  0
 18 23  1  0
 18 24  1  0
 18 25  1  0
 21 26  1  0
 26 27  1  0
 22 27  1  0
M  END
>  <IDNUMBER>  (606) 
C226-3405

>  <available>  (606) 
220

>  <H_acceptor>  (606) 
5

>  <H_donor>  (606) 
1

>  <B_rotN>  (606) 
5

>  <N_O>  (606) 
5

>  <logP>  (606) 
5.0495

>  <logD>  (606) 
2.8678

>  <logSw>  (606) 
-4.6096

>  <PSA>  (606) 
62.501

>  <pKa_ma>  (606) 
5.2212

>  <pKa_mb>  (606) 
-5.5427

>  <N_Chirals>  (606) 
1

>  <Name>  (606) 
N-(6-tert-butyl-3-cyano-4,5,6,7-tetrahydro-1-benzothiophen-2-yl)-4,5,6,7-tetrahydro-1,2-benzoxazole-3-carboxamide

>  <Smile>  (606) 
CC(C)(C)C(CC1)Cc2c1c(C#N)c(NC(c1noc3c1CCCC3)=O)s2

>  <Color>  (606) 
NOT COLORED

>  <Collection>  (606) 
DC

>  <InChI>  (606) 
InChI=1S/C21H25N3O2S/c1-21(2,3)12-8-9-13-15(11-22)20(27-17(13)10-12)23-19(25)18-14-6-4-5-7-16(14)26-24-18/h12H,4-10H2,1-3H3,(H,23,25)/t12-/m1/s1

>  <InChI Key>  (606) 
YSLLOKYIJDDBBV-GFCCVEGCSA-N

>  <PERCENTSP3>  (606) 
57.1

>  <Link>  (606) 
https://www.chemdiv.com/catalog/screening-compounds/compound-C226-3405/

>  <MFCDNUMBER>  (606) 
MFCD09783055

>  <CLNUMBER>  (606) 
CL2031

>  <STEREO>  (606) 
RACEMIC MIXTURE

>  <CAS>  (606) 
912800-47-6

>  <State>  (606) 
Solid

>  <Similarity score>  (606) 
0.21

$$$$
N-(3-cyano-5,6,7,8-tetrahydro-4H-cyclohepta[b]thiophen-2-yl)-6-cyclopropyl-3-(4-
     RDKit          2D

 35 40  0  0  0  0  0  0  0  0999 V2000
    1.6182    0.6311    0.0000 C   0  0  0  0  0  0  0  0  0  0  0  0
    2.3057    1.3808    0.0000 C   0  0  0  0  0  0  0  0  0  0  0  0
   -0.2062   -1.7683    0.0000 C   0  0  0  0  0  0  0  0  0  0  0  0
    0.1813   -2.6888    0.0000 C   0  0  0  0  0  0  0  0  0  0  0  0
    0.3936   -0.9686    0.0000 C   0  0  0  0  0  0  0  0  0  0  0  0
   -1.4308   -2.8304    0.0000 N   0  0  0  0  0  0  0  0  0  0  0  0
    2.1181   -0.2145    0.0000 S   0  0  0  0  0  0  0  0  0  0  0  0
    3.2136    0.9559    0.0000 C   0  0  0  0  0  0  0  0  0  0  0  0
   -1.2058   -1.8557    0.0000 C   0  0  0  0  0  0  0  0  0  0  0  0
    0.6018    0.7560    0.0000 N   0  0  0  0  0  0  0  0  0  0  0  0
    0.0022   -0.0439    0.0000 C   0  0  0  0  0  0  0  0  0  0  0  0
    1.1768   -2.8055    0.0000 N   0  0  0  0  0  0  0  0  0  0  0  0
    3.0888   -0.0312    0.0000 C   0  0  0  0  0  0  0  0  0  0  0  0
   -0.5686   -3.3427    0.0000 O   0  0  0  0  0  0  0  0  0  0  0  0
    1.7766   -2.0059    0.0000 C   0  0  0  0  0  0  0  0  0  0  0  0
    1.3810   -1.0892    0.0000 C   0  0  0  0  0  0  0  0  0  0  0  0
    2.1348    2.3680    0.0000 C   0  0  0  0  0  0  0  0  0  0  0  0
    2.7679   -2.1307    0.0000 C   0  0  0  0  0  0  0  0  0  0  0  0
    1.9682    3.3427    0.0000 N   0  0  0  0  0  0  0  0  0  0  0  0
    3.5678   -2.7305    0.0000 C   0  0  0  0  0  0  0  0  0  0  0  0
    3.6926   -1.7309    0.0000 C   0  0  0  0  0  0  0  0  0  0  0  0
   -2.0056   -1.2558    0.0000 C   0  0  0  0  0  0  0  0  0  0  0  0
   -0.9935    0.0729    0.0000 O   0  0  0  0  0  0  0  0  0  0  0  0
   -2.9221   -1.6432    0.0000 C   0  0  0  0  0  0  0  0  0  0  0  0
   -1.8806   -0.2645    0.0000 C   0  0  0  0  0  0  0  0  0  0  0  0
   -3.6052   -0.0563    0.0000 C   0  0  0  0  0  0  0  0  0  0  0  0
    4.0801    1.4808    0.0000 C   0  0  0  0  0  0  0  0  0  0  0  0
   -2.6805    0.3355    0.0000 C   0  0  0  0  0  0  0  0  0  0  0  0
   -3.7177   -1.0435    0.0000 C   0  0  0  0  0  0  0  0  0  0  0  0
    3.7760   -0.7519    0.0000 C   0  0  0  0  0  0  0  0  0  0  0  0
   -4.4008    0.5478    0.0000 O   0  0  0  0  0  0  0  0  0  0  0  0
   -5.3172    0.1562    0.0000 C   0  0  0  0  0  0  0  0  0  0  0  0
    5.0048    1.1058    0.0000 C   0  0  0  0  0  0  0  0  0  0  0  0
    4.7675   -0.6811    0.0000 C   0  0  0  0  0  0  0  0  0  0  0  0
    5.3172    0.1562    0.0000 C   0  0  0  0  0  0  0  0  0  0  0  0
  1  2  2  0
  3  5  1  0
  3  4  2  0
  5 11  1  0
  6  9  2  0
  6 14  1  0
  1  7  1  0
  2  8  1  0
  3  9  1  0
  1 10  1  0
 10 11  1  0
 12 15  2  0
  4 12  1  0
  7 13  1  0
  8 13  2  0
  4 14  1  0
 15 16  1  0
  5 16  2  0
  2 17  1  0
 15 18  1  0
 17 19  3  0
 18 20  1  0
 18 21  1  0
 20 21  1  0
  9 22  1  0
 11 23  2  0
 22 24  2  0
 22 25  1  0
 26 28  1  0
 26 29  2  0
  8 27  1  0
 25 28  2  0
 24 29  1  0
 13 30  1  0
 26 31  1  0
 31 32  1  0
 27 33  1  0
 33 35  1  0
 30 34  1  0
 34 35  1  0
M  END
>  <IDNUMBER>  (607) 
Y505-2299

>  <available>  (607) 
17

>  <H_acceptor>  (607) 
7

>  <H_donor>  (607) 
1

>  <B_rotN>  (607) 
7

>  <N_O>  (607) 
7

>  <logP>  (607) 
6.1423

>  <logD>  (607) 
4.6369

>  <logSw>  (607) 
-5.6765

>  <PSA>  (607) 
78.944

>  <pKa_ma>  (607) 
5.9084

>  <pKa_mb>  (607) 
-0.3426

>  <N_Chirals>  (607) 
0

>  <Name>  (607) 
N-(3-cyano-5,6,7,8-tetrahydro-4H-cyclohepta[b]thiophen-2-yl)-6-cyclopropyl-3-(4-methoxyphenyl)[1,2]oxazolo[5,4-b]pyridine-4-carboxamide

>  <Smile>  (607) 
COc(cc1)ccc1-c1noc2nc(C3CC3)cc(C(Nc(sc3c4CCCCC3)c4C#N)=O)c12

>  <Color>  (607) 
BROWN

>  <Collection>  (607) 
DC

>  <InChI>  (607) 
InChI=1S/C27H24N4O3S/c1-33-17-11-9-16(10-12-17)24-23-19(13-21(15-7-8-15)29-26(23)34-31-24)25(32)30-27-20(14-28)18-5-3-2-4-6-22(18)35-27/h9-13,15H,2-8H2,1H3,(H,30,32)

>  <InChI Key>  (607) 
WVKCYYZLRAXGGS-UHFFFAOYSA-N

>  <PERCENTSP3>  (607) 
33.3

>  <Link>  (607) 
https://www.chemdiv.com/catalog/screening-compounds/compound-Y505-2299/

>  <MFCDNUMBER>  (607) 
MFCD10701637

>  <CLNUMBER>  (607) 
CL7490

>  <STEREO>  (607) 
ACHIRAL

>  <State>  (607) 
Solid

>  <Similarity score>  (607) 
0.21

$$$$
N-(6-tert-butyl-3-cyano-4,5,6,7-tetrahydro-1-benzothiophen-2-yl)-5,6,7,8-tetrahy
     RDKit          2D

 28 31  0  0  0  0  0  0  0  0999 V2000
   -0.2948   -0.2327    0.0000 C   0  0  0  0  0  0  0  0  0  0  0  0
   -1.1018   -0.7886    0.0000 C   0  0  0  0  0  0  0  0  0  0  0  0
    0.4602    3.0260    0.0000 C   0  0  0  0  0  0  0  0  0  0  0  0
    0.1834   -1.7709    0.0000 C   0  0  0  0  0  0  0  0  0  0  0  0
   -0.8250   -1.7516    0.0000 C   0  0  0  0  0  0  0  0  0  0  0  0
   -0.2948    3.6309    0.0000 N   0  0  0  0  0  0  0  0  0  0  0  0
    0.5052   -0.8336    0.0000 S   0  0  0  0  0  0  0  0  0  0  0  0
    1.2603    3.5687    0.0000 C   0  0  0  0  0  0  0  0  0  0  0  0
    0.5652    1.2774    0.0000 C   0  0  0  0  0  0  0  0  0  0  0  0
   -0.2948    0.7798    0.0000 N   0  0  0  0  0  0  0  0  0  0  0  0
    0.0461    4.5319    0.0000 O   0  0  0  0  0  0  0  0  0  0  0  0
    1.0029    4.4912    0.0000 C   0  0  0  0  0  0  0  0  0  0  0  0
   -2.0434   -0.4580    0.0000 C   0  0  0  0  0  0  0  0  0  0  0  0
    0.6553   -2.6462    0.0000 C   0  0  0  0  0  0  0  0  0  0  0  0
   -2.9959   -0.1257    0.0000 N   0  0  0  0  0  0  0  0  0  0  0  0
   -1.3376   -2.5971    0.0000 C   0  0  0  0  0  0  0  0  0  0  0  0
    0.1277   -3.5022    0.0000 C   0  0  0  0  0  0  0  0  0  0  0  0
    0.6060   -4.3948    0.0000 C   0  0  0  0  0  0  0  0  0  0  0  0
    1.3657    0.7496    0.0000 O   0  0  0  0  0  0  0  0  0  0  0  0
   -0.8592   -3.4723    0.0000 C   0  0  0  0  0  0  0  0  0  0  0  0
    1.9705    3.1760    0.0000 C   0  0  0  0  0  0  0  0  0  0  0  0
    1.4364    5.2012    0.0000 C   0  0  0  0  0  0  0  0  0  0  0  0
   -0.2948   -4.8624    0.0000 C   0  0  0  0  0  0  0  0  0  0  0  0
    1.4963   -3.9313    0.0000 C   0  0  0  0  0  0  0  0  0  0  0  0
    1.0631   -5.2913    0.0000 C   0  0  0  0  0  0  0  0  0  0  0  0
    2.8094    3.5687    0.0000 C   0  0  0  0  0  0  0  0  0  0  0  0
    2.3608    5.2913    0.0000 C   0  0  0  0  0  0  0  0  0  0  0  0
    2.9959    4.5363    0.0000 C   0  0  0  0  0  0  0  0  0  0  0  0
  1  2  2  0
  3  9  1  0
  4  7  1  0
  4  5  2  0
  2  5  1  0
  3  6  2  0
  1  7  1  0
  3  8  1  0
  9 10  1  0
  1 10  1  0
  6 11  1  0
  8 12  2  0
 11 12  1  0
  2 13  1  0
  4 14  1  0
 13 15  3  0
  5 16  1  0
 14 17  1  0
 17 18  1  0
  9 19  2  0
 16 20  1  0
 17 20  1  0
  8 21  1  0
 12 22  1  0
 18 23  1  0
 18 24  1  0
 18 25  1  0
 21 26  1  0
 22 27  1  0
 26 28  1  0
 27 28  1  0
M  END
>  <IDNUMBER>  (608) 
C226-3519

>  <available>  (608) 
242

>  <H_acceptor>  (608) 
5

>  <H_donor>  (608) 
1

>  <B_rotN>  (608) 
5

>  <N_O>  (608) 
5

>  <logP>  (608) 
5.5454

>  <logD>  (608) 
3.3637

>  <logSw>  (608) 
-5.1755

>  <PSA>  (608) 
62.832

>  <pKa_ma>  (608) 
5.2212

>  <pKa_mb>  (608) 
-5.3039

>  <N_Chirals>  (608) 
1

>  <Name>  (608) 
N-(6-tert-butyl-3-cyano-4,5,6,7-tetrahydro-1-benzothiophen-2-yl)-5,6,7,8-tetrahydro-4H-cyclohepta[d][1,2]oxazole-3-carboxamide

>  <Smile>  (608) 
CC(C)(C)C(CC1)Cc2c1c(C#N)c(NC(c1noc3c1CCCCC3)=O)s2

>  <Color>  (608) 
NOT COLORED

>  <Collection>  (608) 
DC

>  <InChI>  (608) 
InChI=1S/C22H27N3O2S/c1-22(2,3)13-9-10-14-16(12-23)21(28-18(14)11-13)24-20(26)19-15-7-5-4-6-8-17(15)27-25-19/h13H,4-11H2,1-3H3,(H,24,26)/t13-/m1/s1

>  <InChI Key>  (608) 
LFJDGOOGHKSHIG-CYBMUJFWSA-N

>  <PERCENTSP3>  (608) 
59.1

>  <Link>  (608) 
https://www.chemdiv.com/catalog/screening-compounds/compound-C226-3519/

>  <MFCDNUMBER>  (608) 
MFCD09783109

>  <CLNUMBER>  (608) 
CL2031

>  <STEREO>  (608) 
RACEMIC MIXTURE

>  <State>  (608) 
Solid

>  <Similarity score>  (608) 
0.21

$$$$
2-amino-5,6-dihydro-4H-cyclopenta[b]thiophene-3-carbonitrile
     RDKit          2D

 11 12  0  0  0  0  0  0  0  0999 V2000
    0.6813   -0.0354    0.0000 C   0  0  0  0  0  0  0  0  0  0  0  0
    0.9841   -0.9894    0.0000 C   0  0  0  0  0  0  0  0  0  0  0  0
   -0.3181   -0.0354    0.0000 C   0  0  0  0  0  0  0  0  0  0  0  0
    0.1766   -1.5748    0.0000 S   0  0  0  0  0  0  0  0  0  0  0  0
   -0.6260   -0.9894    0.0000 C   0  0  0  0  0  0  0  0  0  0  0  0
    1.2667    0.7673    0.0000 C   0  0  0  0  0  0  0  0  0  0  0  0
    1.8575    1.5748    0.0000 N   0  0  0  0  0  0  0  0  0  0  0  0
    1.9382   -1.3022    0.0000 N   0  0  0  0  0  0  0  0  0  0  0  0
   -1.1258    0.5552    0.0000 C   0  0  0  0  0  0  0  0  0  0  0  0
   -1.6254   -0.9894    0.0000 C   0  0  0  0  0  0  0  0  0  0  0  0
   -1.9382   -0.0354    0.0000 C   0  0  0  0  0  0  0  0  0  0  0  0
  1  2  2  0
  1  3  1  0
  2  4  1  0
  3  5  2  0
  4  5  1  0
  1  6  1  0
  6  7  3  0
  2  8  1  0
  3  9  1  0
  5 10  1  0
  9 11  1  0
 10 11  1  0
M  END
>  <IDNUMBER>  (609) 
R052-2295

>  <available>  (609) 
1082

>  <H_acceptor>  (609) 
1

>  <H_donor>  (609) 
2

>  <B_rotN>  (609) 
1

>  <N_O>  (609) 
2

>  <logP>  (609) 
1.736

>  <logD>  (609) 
1.736

>  <logSw>  (609) 
-1.8508

>  <PSA>  (609) 
38.857

>  <pKa_ma>  (609) 
15.973

>  <pKa_mb>  (609) 
-1.8136

>  <N_Chirals>  (609) 
0

>  <Name>  (609) 
2-amino-5,6-dihydro-4H-cyclopenta[b]thiophene-3-carbonitrile

>  <Smile>  (609) 
Nc(sc1c2CCC1)c2C#N

>  <Color>  (609) 
ORANGE

>  <Collection>  (609) 
NC

>  <InChI>  (609) 
InChI=1S/C8H8N2S/c9-4-6-5-2-1-3-7(5)11-8(6)10/h1-3,10H2

>  <InChI Key>  (609) 
RILAXFOADRDGPQ-UHFFFAOYSA-N

>  <PERCENTSP3>  (609) 
37.5

>  <Link>  (609) 
https://www.chemdiv.com/catalog/screening-compounds/compound-R052-2295/

>  <MFCDNUMBER>  (609) 
MFCD00121495

>  <STEREO>  (609) 
ACHIRAL

>  <State>  (609) 
Solid

>  <Similarity score>  (609) 
0.21

$$$$
2-amino-4,5,6,7-tetrahydro-1-benzothiophene-3-carbonitrile
     RDKit          2D

 12 13  0  0  0  0  0  0  0  0999 V2000
    0.5778   -0.0290    0.0000 C   0  0  0  0  0  0  0  0  0  0  0  0
    1.1355   -0.8321    0.0000 C   0  0  0  0  0  0  0  0  0  0  0  0
   -0.3994   -0.3280    0.0000 C   0  0  0  0  0  0  0  0  0  0  0  0
    0.5778   -1.6352    0.0000 S   0  0  0  0  0  0  0  0  0  0  0  0
   -0.3994   -1.3319    0.0000 C   0  0  0  0  0  0  0  0  0  0  0  0
    0.9213    0.9035    0.0000 C   0  0  0  0  0  0  0  0  0  0  0  0
    1.2604    1.8404    0.0000 N   0  0  0  0  0  0  0  0  0  0  0  0
    2.1304   -0.8321    0.0000 N   0  0  0  0  0  0  0  0  0  0  0  0
   -1.2693    0.1718    0.0000 C   0  0  0  0  0  0  0  0  0  0  0  0
   -1.2693   -1.8404    0.0000 C   0  0  0  0  0  0  0  0  0  0  0  0
   -2.1304   -0.3280    0.0000 C   0  0  0  0  0  0  0  0  0  0  0  0
   -2.1304   -1.3319    0.0000 C   0  0  0  0  0  0  0  0  0  0  0  0
  1  2  2  0
  1  3  1  0
  2  4  1  0
  3  5  2  0
  4  5  1  0
  1  6  1  0
  6  7  3  0
  2  8  1  0
  3  9  1  0
  5 10  1  0
  9 11  1  0
 11 12  1  0
 10 12  1  0
M  END
>  <IDNUMBER>  (610) 
0848-0050

>  <available>  (610) 
7

>  <H_acceptor>  (610) 
1

>  <H_donor>  (610) 
2

>  <B_rotN>  (610) 
1

>  <N_O>  (610) 
2

>  <logP>  (610) 
2.1463

>  <logD>  (610) 
2.1463

>  <logSw>  (610) 
-2.0208

>  <PSA>  (610) 
38.492

>  <pKa_ma>  (610) 
15.9936

>  <pKa_mb>  (610) 
-2.0609

>  <N_Chirals>  (610) 
0

>  <Name>  (610) 
2-amino-4,5,6,7-tetrahydro-1-benzothiophene-3-carbonitrile

>  <Smile>  (610) 
Nc(sc1c2CCCC1)c2C#N

>  <Color>  (610) 
ORANGE

>  <Collection>  (610) 
DC

>  <InChI>  (610) 
InChI=1S/C9H10N2S/c10-5-7-6-3-1-2-4-8(6)12-9(7)11/h1-4,11H2

>  <InChI Key>  (610) 
ADHVMGAFAKSNOM-UHFFFAOYSA-N

>  <PERCENTSP3>  (610) 
44.4

>  <Link>  (610) 
https://www.chemdiv.com/catalog/screening-compounds/compound-0848-0050/

>  <MFCDNUMBER>  (610) 
MFCD00128278

>  <STEREO>  (610) 
ACHIRAL

>  <State>  (610) 
Solid

>  <Similarity score>  (610) 
0.20

$$$$
2-[2-(4-amino-1,2,5-oxadiazol-3-yl)-1H-benzimidazol-1-yl]-N-(6-tert-butyl-3-cyan
     RDKit          2D

 34 38  0  0  0  0  0  0  0  0999 V2000
    3.4465   -0.1069    0.0000 C   0  0  0  0  0  0  0  0  0  0  0  0
    2.4766   -0.1674    0.0000 N   0  0  0  0  0  0  0  0  0  0  0  0
   -0.9532    0.5361    0.0000 C   0  0  0  0  0  0  0  0  0  0  0  0
   -1.7373    1.1344    0.0000 C   0  0  0  0  0  0  0  0  0  0  0  0
    4.0231    0.7066    0.0000 C   0  0  0  0  0  0  0  0  0  0  0  0
    3.8045   -1.0337    0.0000 N   0  0  0  0  0  0  0  0  0  0  0  0
   -2.2362   -0.4091    0.0000 C   0  0  0  0  0  0  0  0  0  0  0  0
   -2.5338    0.5471    0.0000 C   0  0  0  0  0  0  0  0  0  0  0  0
   -1.2538   -0.4091    0.0000 S   0  0  0  0  0  0  0  0  0  0  0  0
    3.7487    1.6769    0.0000 C   0  0  0  0  0  0  0  0  0  0  0  0
    4.5888    2.2191    0.0000 N   0  0  0  0  0  0  0  0  0  0  0  0
    0.0139    0.8708    0.0000 N   0  0  0  0  0  0  0  0  0  0  0  0
    5.0164    0.6959    0.0000 N   0  0  0  0  0  0  0  0  0  0  0  0
    2.2083   -1.1158    0.0000 C   0  0  0  0  0  0  0  0  0  0  0  0
    5.3558    1.6551    0.0000 O   0  0  0  0  0  0  0  0  0  0  0  0
    3.0530   -1.6581    0.0000 C   0  0  0  0  0  0  0  0  0  0  0  0
   -1.6923    2.1418    0.0000 C   0  0  0  0  0  0  0  0  0  0  0  0
    0.7764    0.1906    0.0000 C   0  0  0  0  0  0  0  0  0  0  0  0
    1.7482    0.5147    0.0000 C   0  0  0  0  0  0  0  0  0  0  0  0
   -2.9258   -1.1374    0.0000 C   0  0  0  0  0  0  0  0  0  0  0  0
   -1.6675    3.1460    0.0000 N   0  0  0  0  0  0  0  0  0  0  0  0
   -3.5286    0.7779    0.0000 C   0  0  0  0  0  0  0  0  0  0  0  0
   -3.8851   -0.9173    0.0000 C   0  0  0  0  0  0  0  0  0  0  0  0
   -4.5561   -1.6581    0.0000 C   0  0  0  0  0  0  0  0  0  0  0  0
   -4.1874    0.0311    0.0000 C   0  0  0  0  0  0  0  0  0  0  0  0
    0.5798   -0.7764    0.0000 O   0  0  0  0  0  0  0  0  0  0  0  0
    2.8220    2.0006    0.0000 N   0  0  0  0  0  0  0  0  0  0  0  0
    1.3078   -1.5994    0.0000 C   0  0  0  0  0  0  0  0  0  0  0  0
    3.0419   -2.6625    0.0000 C   0  0  0  0  0  0  0  0  0  0  0  0
   -5.3558   -2.3494    0.0000 C   0  0  0  0  0  0  0  0  0  0  0  0
   -5.1575   -0.9624    0.0000 C   0  0  0  0  0  0  0  0  0  0  0  0
   -3.8743   -2.4422    0.0000 C   0  0  0  0  0  0  0  0  0  0  0  0
    1.2646   -2.6034    0.0000 C   0  0  0  0  0  0  0  0  0  0  0  0
    2.1525   -3.1460    0.0000 C   0  0  0  0  0  0  0  0  0  0  0  0
  1  2  1  0
  3 12  1  0
  3  4  2  0
  1  5  1  0
  1  6  2  0
  7  9  1  0
  7  8  2  0
  4  8  1  0
  3  9  1  0
  5 10  1  0
 10 11  2  0
 12 18  1  0
  5 13  2  0
  2 14  1  0
 14 16  1  0
 13 15  1  0
 11 15  1  0
  6 16  1  0
  4 17  1  0
 18 19  1  0
  2 19  1  0
  7 20  1  0
 17 21  3  0
  8 22  1  0
 20 23  1  0
 23 24  1  0
 22 25  1  0
 23 25  1  0
 18 26  2  0
 10 27  1  0
 14 28  2  0
 16 29  2  0
 24 30  1  0
 24 31  1  0
 24 32  1  0
 28 33  1  0
 33 34  2  0
 29 34  1  0
M  END
>  <IDNUMBER>  (611) 
8014-1167

>  <available>  (611) 
25

>  <H_acceptor>  (611) 
7

>  <H_donor>  (611) 
3

>  <B_rotN>  (611) 
7

>  <N_O>  (611) 
9

>  <logP>  (611) 
5.3736

>  <logD>  (611) 
3.971

>  <logSw>  (611) 
-5.3873

>  <PSA>  (611) 
106.901

>  <pKa_ma>  (611) 
6.0149

>  <pKa_mb>  (611) 
3.9643

>  <N_Chirals>  (611) 
1

>  <Name>  (611) 
2-[2-(4-amino-1,2,5-oxadiazol-3-yl)-1H-benzimidazol-1-yl]-N-(6-tert-butyl-3-cyano-4,5,6,7-tetrahydro-1-benzothiophen-2-yl)acetamide

>  <Smile>  (611) 
CC(C)(C)C(CC1)Cc2c1c(C#N)c(NC(Cn1c(-c3nonc3N)nc3c1cccc3)=O)s2

>  <Color>  (611) 
BROWN

>  <Collection>  (611) 
DC

>  <InChI>  (611) 
InChI=1S/C24H25N7O2S/c1-24(2,3)13-8-9-14-15(11-25)23(34-18(14)10-13)28-19(32)12-31-17-7-5-4-6-16(17)27-22(31)20-21(26)30-33-29-20/h4-7,13H,8-10,12H2,1-3H3,(H2,26,30)(H,28,32)/t13-/m1/s1

>  <InChI Key>  (611) 
IDKGSEMMYVDLEV-CYBMUJFWSA-N

>  <PERCENTSP3>  (611) 
37.5

>  <Link>  (611) 
https://www.chemdiv.com/catalog/screening-compounds/compound-8014-1167/

>  <MFCDNUMBER>  (611) 
MFCD03767504

>  <CLNUMBER>  (611) 
CL2888

>  <STEREO>  (611) 
RACEMIC MIXTURE

>  <State>  (611) 
Solid

>  <Similarity score>  (611) 
0.20

$$$$
2-amino-5,6,7,8-tetrahydro-4H-cyclohepta[b]thiophene-3-carbonitrile
     RDKit          2D

 13 14  0  0  0  0  0  0  0  0999 V2000
   -0.3355   -0.3963    0.0000 C   0  0  0  0  0  0  0  0  0  0  0  0
    0.1678   -1.2911    0.0000 C   0  0  0  0  0  0  0  0  0  0  0  0
    0.3449    0.3307    0.0000 C   0  0  0  0  0  0  0  0  0  0  0  0
    1.1282   -1.0674    0.0000 S   0  0  0  0  0  0  0  0  0  0  0  0
    1.2400   -0.0794    0.0000 C   0  0  0  0  0  0  0  0  0  0  0  0
   -1.3329   -0.2751    0.0000 C   0  0  0  0  0  0  0  0  0  0  0  0
   -2.3492   -0.1633    0.0000 N   0  0  0  0  0  0  0  0  0  0  0  0
   -0.3355   -2.1207    0.0000 N   0  0  0  0  0  0  0  0  0  0  0  0
    0.1118    1.3097    0.0000 C   0  0  0  0  0  0  0  0  0  0  0  0
    2.1348    0.3683    0.0000 C   0  0  0  0  0  0  0  0  0  0  0  0
    0.7270    2.1207    0.0000 C   0  0  0  0  0  0  0  0  0  0  0  0
    2.3492    1.3097    0.0000 C   0  0  0  0  0  0  0  0  0  0  0  0
    1.7340    2.1207    0.0000 C   0  0  0  0  0  0  0  0  0  0  0  0
  1  2  2  0
  1  3  1  0
  2  4  1  0
  3  5  2  0
  4  5  1  0
  1  6  1  0
  6  7  3  0
  2  8  1  0
  3  9  1  0
  5 10  1  0
  9 11  1  0
 10 12  1  0
 11 13  1  0
 12 13  1  0
M  END
>  <IDNUMBER>  (612) 
R052-0786

>  <available>  (612) 
327

>  <H_acceptor>  (612) 
1

>  <H_donor>  (612) 
2

>  <B_rotN>  (612) 
1

>  <N_O>  (612) 
2

>  <logP>  (612) 
2.6422

>  <logD>  (612) 
2.6422

>  <logSw>  (612) 
-2.7776

>  <PSA>  (612) 
38.822

>  <pKa_ma>  (612) 
15.9936

>  <pKa_mb>  (612) 
-1.0762

>  <N_Chirals>  (612) 
0

>  <Name>  (612) 
2-amino-5,6,7,8-tetrahydro-4H-cyclohepta[b]thiophene-3-carbonitrile

>  <Smile>  (612) 
Nc(sc1c2CCCCC1)c2C#N

>  <Color>  (612) 
ORANGE

>  <Collection>  (612) 
NC

>  <InChI>  (612) 
InChI=1S/C10H12N2S/c11-6-8-7-4-2-1-3-5-9(7)13-10(8)12/h1-5,12H2

>  <InChI Key>  (612) 
GBQACFCEZPKMTA-UHFFFAOYSA-N

>  <PERCENTSP3>  (612) 
50

>  <Link>  (612) 
https://www.chemdiv.com/catalog/screening-compounds/compound-R052-0786/

>  <MFCDNUMBER>  (612) 
MFCD00121496

>  <STEREO>  (612) 
ACHIRAL

>  <State>  (612) 
Solid

>  <Similarity score>  (612) 
0.20

$$$$
2-amino-4,5,6,7,8,9,10,11,12,13-decahydrocyclododeca[b]thiophene-3-carbonitrile
     RDKit          2D

 18 19  0  0  0  0  0  0  0  0999 V2000
    2.1285    0.2218    0.0000 C   0  0  0  0  0  0  0  0  0  0  0  0
    2.1285   -0.7769    0.0000 C   0  0  0  0  0  0  0  0  0  0  0  0
    0.5566    0.2218    0.0000 C   0  0  0  0  0  0  0  0  0  0  0  0
    1.3501   -1.2233    0.0000 S   0  0  0  0  0  0  0  0  0  0  0  0
    0.5566   -0.7527    0.0000 C   0  0  0  0  0  0  0  0  0  0  0  0
    2.9642    0.7457    0.0000 C   0  0  0  0  0  0  0  0  0  0  0  0
    3.8029    1.2687    0.0000 N   0  0  0  0  0  0  0  0  0  0  0  0
    2.9431   -1.2687    0.0000 N   0  0  0  0  0  0  0  0  0  0  0  0
   -0.4118    0.2218    0.0000 C   0  0  0  0  0  0  0  0  0  0  0  0
   -0.4058   -0.7527    0.0000 C   0  0  0  0  0  0  0  0  0  0  0  0
   -1.2505    0.6945    0.0000 C   0  0  0  0  0  0  0  0  0  0  0  0
   -1.2505   -1.2385    0.0000 C   0  0  0  0  0  0  0  0  0  0  0  0
   -3.8029    0.2067    0.0000 C   0  0  0  0  0  0  0  0  0  0  0  0
   -2.9582    0.6945    0.0000 C   0  0  0  0  0  0  0  0  0  0  0  0
   -2.1044    0.2067    0.0000 C   0  0  0  0  0  0  0  0  0  0  0  0
   -2.1044   -0.7527    0.0000 C   0  0  0  0  0  0  0  0  0  0  0  0
   -2.9582   -1.2385    0.0000 C   0  0  0  0  0  0  0  0  0  0  0  0
   -3.8029   -0.7527    0.0000 C   0  0  0  0  0  0  0  0  0  0  0  0
  1  2  2  0
  1  3  1  0
  2  4  1  0
  4  5  1  0
  3  5  2  0
  1  6  1  0
  6  7  3  0
  2  8  1  0
  3  9  1  0
  5 10  1  0
  9 11  1  0
 10 12  1  0
 13 14  1  0
 14 15  1  0
 11 15  1  0
 12 16  1  0
 16 17  1  0
 17 18  1  0
 13 18  1  0
M  END
>  <IDNUMBER>  (613) 
8003-0436

>  <available>  (613) 
24

>  <H_acceptor>  (613) 
1

>  <H_donor>  (613) 
2

>  <B_rotN>  (613) 
1

>  <N_O>  (613) 
2

>  <logP>  (613) 
5.1218

>  <logD>  (613) 
5.1218

>  <logSw>  (613) 
-5.2389

>  <PSA>  (613) 
38.822

>  <pKa_ma>  (613) 
15.9936

>  <pKa_mb>  (613) 
-1.1592

>  <N_Chirals>  (613) 
0

>  <Name>  (613) 
2-amino-4,5,6,7,8,9,10,11,12,13-decahydrocyclododeca[b]thiophene-3-carbonitrile

>  <Smile>  (613) 
Nc(sc1c2CCCCCCCCCC1)c2C#N

>  <Color>  (613) 
ORANGE

>  <Collection>  (613) 
DC

>  <InChI>  (613) 
InChI=1S/C15H22N2S/c16-11-13-12-9-7-5-3-1-2-4-6-8-10-14(12)18-15(13)17/h1-10,17H2

>  <InChI Key>  (613) 
NJKJOVJKMPBQIL-UHFFFAOYSA-N

>  <PERCENTSP3>  (613) 
66.7

>  <Link>  (613) 
https://www.chemdiv.com/catalog/screening-compounds/compound-8003-0436/

>  <MFCDNUMBER>  (613) 
MFCD00742783

>  <STEREO>  (613) 
ACHIRAL

>  <State>  (613) 
Solid

>  <Similarity score>  (613) 
0.20

$$$$
3-(2H-1,3-benzodioxol-5-yl)-N-(3-cyano-5,6-dihydro-4H-cyclopenta[b]thiophen-2-yl
     RDKit          2D

 32 37  0  0  0  0  0  0  0  0999 V2000
    1.5853    0.6562    0.0000 C   0  0  0  0  0  0  0  0  0  0  0  0
    2.5562    0.7187    0.0000 C   0  0  0  0  0  0  0  0  0  0  0  0
   -1.4105   -1.0770    0.0000 C   0  0  0  0  0  0  0  0  0  0  0  0
   -1.9062   -1.9438    0.0000 C   0  0  0  0  0  0  0  0  0  0  0  0
   -0.4147   -1.0770    0.0000 C   0  0  0  0  0  0  0  0  0  0  0  0
   -2.9896   -0.7438    0.0000 N   0  0  0  0  0  0  0  0  0  0  0  0
   -2.0854   -0.3396    0.0000 C   0  0  0  0  0  0  0  0  0  0  0  0
    1.2312    1.6270    0.0000 S   0  0  0  0  0  0  0  0  0  0  0  0
    2.8353    1.6646    0.0000 C   0  0  0  0  0  0  0  0  0  0  0  0
    1.0896   -0.2104    0.0000 N   0  0  0  0  0  0  0  0  0  0  0  0
    0.0811   -0.2104    0.0000 C   0  0  0  0  0  0  0  0  0  0  0  0
    2.0312    2.2478    0.0000 C   0  0  0  0  0  0  0  0  0  0  0  0
   -2.8853   -1.7271    0.0000 O   0  0  0  0  0  0  0  0  0  0  0  0
   -1.4105   -2.8104    0.0000 N   0  0  0  0  0  0  0  0  0  0  0  0
   -2.1105    0.6562    0.0000 C   0  0  0  0  0  0  0  0  0  0  0  0
    3.2062   -0.0689    0.0000 C   0  0  0  0  0  0  0  0  0  0  0  0
    3.8188   -0.8354    0.0000 N   0  0  0  0  0  0  0  0  0  0  0  0
   -3.0396    2.1229    0.0000 C   0  0  0  0  0  0  0  0  0  0  0  0
   -3.0022    1.1271    0.0000 C   0  0  0  0  0  0  0  0  0  0  0  0
    0.0811   -1.9438    0.0000 C   0  0  0  0  0  0  0  0  0  0  0  0
   -2.1980    2.6562    0.0000 C   0  0  0  0  0  0  0  0  0  0  0  0
   -3.8188    2.7605    0.0000 O   0  0  0  0  0  0  0  0  0  0  0  0
   -0.4147   -2.8104    0.0000 C   0  0  0  0  0  0  0  0  0  0  0  0
   -2.4521    3.6271    0.0000 O   0  0  0  0  0  0  0  0  0  0  0  0
   -0.4147    0.6562    0.0000 O   0  0  0  0  0  0  0  0  0  0  0  0
   -3.4479    3.6896    0.0000 C   0  0  0  0  0  0  0  0  0  0  0  0
   -1.2687    1.1937    0.0000 C   0  0  0  0  0  0  0  0  0  0  0  0
   -1.3062    2.1978    0.0000 C   0  0  0  0  0  0  0  0  0  0  0  0
    3.6396    2.2895    0.0000 C   0  0  0  0  0  0  0  0  0  0  0  0
    2.3146    3.2187    0.0000 C   0  0  0  0  0  0  0  0  0  0  0  0
    3.2938    3.2187    0.0000 C   0  0  0  0  0  0  0  0  0  0  0  0
    0.0937   -3.6896    0.0000 C   0  0  0  0  0  0  0  0  0  0  0  0
  1  2  2  0
  3  5  1  0
  3  4  2  0
  4 14  1  0
  5 11  1  0
  6  7  2  0
  3  7  1  0
  1  8  1  0
  2  9  1  0
  9 12  2  0
  1 10  1  0
 10 11  1  0
  8 12  1  0
  4 13  1  0
  6 13  1  0
 14 23  2  0
  7 15  1  0
  2 16  1  0
 16 17  3  0
 18 19  1  0
 18 21  2  0
 15 19  2  0
  5 20  2  0
 21 28  1  0
 18 22  1  0
 20 23  1  0
 21 24  1  0
 11 25  2  0
 22 26  1  0
 24 26  1  0
 15 27  1  0
 27 28  2  0
  9 29  1  0
 29 31  1  0
 12 30  1  0
 30 31  1  0
 23 32  1  0
M  END
>  <IDNUMBER>  (614) 
Y501-2683

>  <available>  (614) 
13

>  <H_acceptor>  (614) 
8

>  <H_donor>  (614) 
1

>  <B_rotN>  (614) 
5

>  <N_O>  (614) 
8

>  <logP>  (614) 
4.2591

>  <logD>  (614) 
2.7337

>  <logSw>  (614) 
-4.5644

>  <PSA>  (614) 
88.105

>  <pKa_ma>  (614) 
5.8877

>  <pKa_mb>  (614) 
-1.9333

>  <N_Chirals>  (614) 
0

>  <Name>  (614) 
3-(2H-1,3-benzodioxol-5-yl)-N-(3-cyano-5,6-dihydro-4H-cyclopenta[b]thiophen-2-yl)-6-methyl[1,2]oxazolo[5,4-b]pyridine-4-carboxamide

>  <Smile>  (614) 
Cc1cc(C(Nc(sc2c3CCC2)c3C#N)=O)c(c(-c(cc2)cc3c2OCO3)no2)c2n1

>  <Color>  (614) 
BROWN

>  <Collection>  (614) 
DC

>  <InChI>  (614) 
InChI=1S/C23H16N4O4S/c1-11-7-14(21(28)26-23-15(9-24)13-3-2-4-18(13)32-23)19-20(27-31-22(19)25-11)12-5-6-16-17(8-12)30-10-29-16/h5-8H,2-4,10H2,1H3,(H,26,28)

>  <InChI Key>  (614) 
GSFFRALGTHMSLX-UHFFFAOYSA-N

>  <PERCENTSP3>  (614) 
21.74

>  <Link>  (614) 
https://www.chemdiv.com/catalog/screening-compounds/compound-Y501-2683/

>  <MFCDNUMBER>  (614) 
MFCD08557785

>  <CLNUMBER>  (614) 
CL7490

>  <STEREO>  (614) 
ACHIRAL

>  <State>  (614) 
Solid

>  <Similarity score>  (614) 
0.20

$$$$
3-(2H-1,3-benzodioxol-5-yl)-N-(3-cyano-4,5,6,7-tetrahydro-1-benzothiophen-2-yl)-
     RDKit          2D

 33 38  0  0  0  0  0  0  0  0999 V2000
    1.6521   -0.6228    0.0000 C   0  0  0  0  0  0  0  0  0  0  0  0
    1.2438   -1.5478    0.0000 C   0  0  0  0  0  0  0  0  0  0  0  0
   -1.3437    1.0979    0.0000 C   0  0  0  0  0  0  0  0  0  0  0  0
   -1.8396    1.9730    0.0000 C   0  0  0  0  0  0  0  0  0  0  0  0
   -0.3436    1.0979    0.0000 C   0  0  0  0  0  0  0  0  0  0  0  0
   -2.9144    0.7729    0.0000 N   0  0  0  0  0  0  0  0  0  0  0  0
   -2.0021    0.3604    0.0000 C   0  0  0  0  0  0  0  0  0  0  0  0
    2.6519   -0.7228    0.0000 S   0  0  0  0  0  0  0  0  0  0  0  0
    1.9897   -2.2103    0.0000 C   0  0  0  0  0  0  0  0  0  0  0  0
    1.1563    0.2354    0.0000 N   0  0  0  0  0  0  0  0  0  0  0  0
    0.1564    0.2354    0.0000 C   0  0  0  0  0  0  0  0  0  0  0  0
    2.8645   -1.7229    0.0000 C   0  0  0  0  0  0  0  0  0  0  0  0
   -2.8146    1.7603    0.0000 O   0  0  0  0  0  0  0  0  0  0  0  0
   -1.3437    2.8353    0.0000 N   0  0  0  0  0  0  0  0  0  0  0  0
   -2.0396   -0.6353    0.0000 C   0  0  0  0  0  0  0  0  0  0  0  0
    0.2813   -1.7728    0.0000 C   0  0  0  0  0  0  0  0  0  0  0  0
   -0.6687   -2.0104    0.0000 N   0  0  0  0  0  0  0  0  0  0  0  0
   -2.9645   -2.0978    0.0000 C   0  0  0  0  0  0  0  0  0  0  0  0
   -2.9270   -1.0979    0.0000 C   0  0  0  0  0  0  0  0  0  0  0  0
    0.1564    1.9730    0.0000 C   0  0  0  0  0  0  0  0  0  0  0  0
   -2.1146   -2.6353    0.0000 C   0  0  0  0  0  0  0  0  0  0  0  0
   -3.7396   -2.7354    0.0000 O   0  0  0  0  0  0  0  0  0  0  0  0
   -0.3436    2.8353    0.0000 C   0  0  0  0  0  0  0  0  0  0  0  0
   -2.3772   -3.5936    0.0000 O   0  0  0  0  0  0  0  0  0  0  0  0
   -0.3436   -0.6228    0.0000 O   0  0  0  0  0  0  0  0  0  0  0  0
   -3.3771   -3.6561    0.0000 C   0  0  0  0  0  0  0  0  0  0  0  0
   -1.1937   -1.1603    0.0000 C   0  0  0  0  0  0  0  0  0  0  0  0
   -1.2313   -2.1602    0.0000 C   0  0  0  0  0  0  0  0  0  0  0  0
    1.9647   -3.1937    0.0000 C   0  0  0  0  0  0  0  0  0  0  0  0
    3.7396   -2.2228    0.0000 C   0  0  0  0  0  0  0  0  0  0  0  0
    0.1564    3.7187    0.0000 C   0  0  0  0  0  0  0  0  0  0  0  0
    2.8395   -3.7187    0.0000 C   0  0  0  0  0  0  0  0  0  0  0  0
    3.7144   -3.2311    0.0000 C   0  0  0  0  0  0  0  0  0  0  0  0
  1  2  2  0
  3  5  1  0
  3  4  2  0
  5 11  1  0
  6  7  2  0
  6 13  1  0
  3  7  1  0
  1  8  1  0
  2  9  1  0
  1 10  1  0
 10 11  1  0
  8 12  1  0
  9 12  2  0
  4 13  1  0
 14 23  2  0
  4 14  1  0
  7 15  1  0
  2 16  1  0
 16 17  3  0
 18 19  1  0
 15 19  2  0
  5 20  2  0
 21 28  1  0
 18 21  2  0
 18 22  1  0
 20 23  1  0
 21 24  1  0
 24 26  1  0
 11 25  2  0
 22 26  1  0
 15 27  1  0
 27 28  2  0
  9 29  1  0
 12 30  1  0
 23 31  1  0
 29 32  1  0
 30 33  1  0
 32 33  1  0
M  END
>  <IDNUMBER>  (615) 
Y501-6644

>  <available>  (615) 
8

>  <H_acceptor>  (615) 
8

>  <H_donor>  (615) 
1

>  <B_rotN>  (615) 
5

>  <N_O>  (615) 
8

>  <logP>  (615) 
4.6694

>  <logD>  (615) 
3.164

>  <logSw>  (615) 
-4.7313

>  <PSA>  (615) 
87.739

>  <pKa_ma>  (615) 
5.9084

>  <pKa_mb>  (615) 
-1.9333

>  <N_Chirals>  (615) 
0

>  <Name>  (615) 
3-(2H-1,3-benzodioxol-5-yl)-N-(3-cyano-4,5,6,7-tetrahydro-1-benzothiophen-2-yl)-6-methyl[1,2]oxazolo[5,4-b]pyridine-4-carboxamide

>  <Smile>  (615) 
Cc1cc(C(Nc(sc2c3CCCC2)c3C#N)=O)c(c(-c(cc2)cc3c2OCO3)no2)c2n1

>  <Color>  (615) 
BROWN

>  <Collection>  (615) 
DC

>  <InChI>  (615) 
InChI=1S/C24H18N4O4S/c1-12-8-15(22(29)27-24-16(10-25)14-4-2-3-5-19(14)33-24)20-21(28-32-23(20)26-12)13-6-7-17-18(9-13)31-11-30-17/h6-9H,2-5,11H2,1H3,(H,27,29)

>  <InChI Key>  (615) 
RNLJRMSRWMDHRK-UHFFFAOYSA-N

>  <PERCENTSP3>  (615) 
25

>  <Link>  (615) 
https://www.chemdiv.com/catalog/screening-compounds/compound-Y501-6644/

>  <MFCDNUMBER>  (615) 
MFCD08557730

>  <CLNUMBER>  (615) 
CL7490

>  <STEREO>  (615) 
ACHIRAL

>  <State>  (615) 
Solid

>  <Similarity score>  (615) 
0.20

$$$$
3-(2-chlorophenyl)-N-[3-cyano-6-(2-methylbutan-2-yl)-4,5,6,7-tetrahydro-1-benzot
     RDKit          2D

 32 35  0  0  0  0  0  0  0  0999 V2000
   -1.4988   -1.6134    0.0000 C   0  0  0  0  0  0  0  0  0  0  0  0
    0.6441   -1.6134    0.0000 C   0  0  0  0  0  0  0  0  0  0  0  0
   -2.4451   -1.5634    0.0000 C   0  0  0  0  0  0  0  0  0  0  0  0
    1.6529   -1.5759    0.0000 C   0  0  0  0  0  0  0  0  0  0  0  0
    0.1063   -2.5014    0.0000 C   0  0  0  0  0  0  0  0  0  0  0  0
   -1.9116   -0.0668    0.0000 C   0  0  0  0  0  0  0  0  0  0  0  0
   -2.6620   -0.5796    0.0000 C   0  0  0  0  0  0  0  0  0  0  0  0
    1.8448   -0.5921    0.0000 N   0  0  0  0  0  0  0  0  0  0  0  0
   -1.1319   -0.6796    0.0000 S   0  0  0  0  0  0  0  0  0  0  0  0
   -0.8942   -2.5014    0.0000 N   0  0  0  0  0  0  0  0  0  0  0  0
    2.2950   -2.3138    0.0000 C   0  0  0  0  0  0  0  0  0  0  0  0
    0.9900   -0.0918    0.0000 O   0  0  0  0  0  0  0  0  0  0  0  0
    0.2772   -0.7629    0.0000 C   0  0  0  0  0  0  0  0  0  0  0  0
   -3.1122   -2.3806    0.0000 C   0  0  0  0  0  0  0  0  0  0  0  0
   -1.9698    0.8837    0.0000 C   0  0  0  0  0  0  0  0  0  0  0  0
   -3.7751   -3.1935    0.0000 N   0  0  0  0  0  0  0  0  0  0  0  0
   -3.5957   -0.1793    0.0000 C   0  0  0  0  0  0  0  0  0  0  0  0
   -2.8328    1.3590    0.0000 C   0  0  0  0  0  0  0  0  0  0  0  0
    0.5816   -3.3894    0.0000 O   0  0  0  0  0  0  0  0  0  0  0  0
   -2.8703    2.4221    0.0000 C   0  0  0  0  0  0  0  0  0  0  0  0
    3.2706   -2.1429    0.0000 C   0  0  0  0  0  0  0  0  0  0  0  0
   -3.6958    0.8087    0.0000 C   0  0  0  0  0  0  0  0  0  0  0  0
    3.5957   -1.2299    0.0000 Cl  0  0  0  0  0  0  0  0  0  0  0  0
    1.9949   -3.2686    0.0000 C   0  0  0  0  0  0  0  0  0  0  0  0
   -0.6984   -0.5128    0.0000 C   0  0  0  0  0  0  0  0  0  0  0  0
   -2.9329    3.4812    0.0000 C   0  0  0  0  0  0  0  0  0  0  0  0
   -3.9209    2.3971    0.0000 C   0  0  0  0  0  0  0  0  0  0  0  0
   -1.8865    2.4471    0.0000 C   0  0  0  0  0  0  0  0  0  0  0  0
    3.9209   -2.8641    0.0000 C   0  0  0  0  0  0  0  0  0  0  0  0
   -2.0824    4.0022    0.0000 C   0  0  0  0  0  0  0  0  0  0  0  0
    2.6410   -4.0022    0.0000 C   0  0  0  0  0  0  0  0  0  0  0  0
    3.6208   -3.8064    0.0000 C   0  0  0  0  0  0  0  0  0  0  0  0
  2  5  1  0
  1  3  2  0
  2  4  1  0
  5 10  1  0
  6  9  1  0
  6  7  2  0
  3  7  1  0
  4  8  2  0
  8 12  1  0
  1  9  1  0
  1 10  1  0
  4 11  1  0
 12 13  1  0
  2 13  2  0
  3 14  1  0
  6 15  1  0
 14 16  3  0
  7 17  1  0
 15 18  1  0
 18 22  1  0
  5 19  2  0
 18 20  1  0
 11 21  1  0
 17 22  1  0
 21 23  1  0
 11 24  2  0
 13 25  1  0
 20 26  1  0
 20 27  1  0
 20 28  1  0
 21 29  2  0
 26 30  1  0
 24 31  1  0
 31 32  2  0
 29 32  1  0
M  END
>  <IDNUMBER>  (616) 
Y509-7610

>  <available>  (616) 
27

>  <H_acceptor>  (616) 
5

>  <H_donor>  (616) 
1

>  <B_rotN>  (616) 
7

>  <N_O>  (616) 
5

>  <logP>  (616) 
5.9743

>  <logD>  (616) 
3.2214

>  <logSw>  (616) 
-5.9648

>  <PSA>  (616) 
62.061

>  <pKa_ma>  (616) 
4.6479

>  <pKa_mb>  (616) 
-6.8683

>  <N_Chirals>  (616) 
1

>  <Name>  (616) 
3-(2-chlorophenyl)-N-[3-cyano-6-(2-methylbutan-2-yl)-4,5,6,7-tetrahydro-1-benzothiophen-2-yl]-5-methyl-1,2-oxazole-4-carboxamide

>  <Smile>  (616) 
c1(c(c2c(s1)CC(C(CC)(C)C)CC2)C#N)NC(c1c(noc1C)c1c(Cl)cccc1)=O

>  <Color>  (616) 
ORANGE

>  <Collection>  (616) 
DC

>  <InChI>  (616) 
InChI=1S/C25H26ClN3O2S/c1-5-25(3,4)15-10-11-16-18(13-27)24(32-20(16)12-15)28-23(30)21-14(2)31-29-22(21)17-8-6-7-9-19(17)26/h6-9,15H,5,10-12H2,1-4H3,(H,28,30)/t15-/m1/s1

>  <InChI Key>  (616) 
WKMHDJPWBULJDL-OAHLLOKOSA-N

>  <PERCENTSP3>  (616) 
40

>  <Link>  (616) 
https://www.chemdiv.com/catalog/screening-compounds/compound-Y509-7610/

>  <MFCDNUMBER>  (616) 
MFCD01350468

>  <CLNUMBER>  (616) 
CL2451

>  <STEREO>  (616) 
RACEMIC MIXTURE

>  <State>  (616) 
Solid

>  <Similarity score>  (616) 
0.20

$$$$
3-(2H-1,3-benzodioxol-5-yl)-N-(3-cyano-5,6,7,8-tetrahydro-4H-cyclohepta[b]thioph
     RDKit          2D

 34 39  0  0  0  0  0  0  0  0999 V2000
    1.6314    0.5605    0.0000 C   0  0  0  0  0  0  0  0  0  0  0  0
    2.3688    1.2728    0.0000 C   0  0  0  0  0  0  0  0  0  0  0  0
   -0.3521   -1.7019    0.0000 C   0  0  0  0  0  0  0  0  0  0  0  0
   -0.0188   -2.6478    0.0000 C   0  0  0  0  0  0  0  0  0  0  0  0
    0.2979   -0.9478    0.0000 C   0  0  0  0  0  0  0  0  0  0  0  0
   -1.6314   -2.6896    0.0000 N   0  0  0  0  0  0  0  0  0  0  0  0
   -1.3480   -1.7269    0.0000 C   0  0  0  0  0  0  0  0  0  0  0  0
    2.0730   -0.3063    0.0000 S   0  0  0  0  0  0  0  0  0  0  0  0
    3.2437    0.7853    0.0000 C   0  0  0  0  0  0  0  0  0  0  0  0
    0.6187    0.7521    0.0000 N   0  0  0  0  0  0  0  0  0  0  0  0
   -0.0312   -0.0063    0.0000 C   0  0  0  0  0  0  0  0  0  0  0  0
    3.0521   -0.1896    0.0000 C   0  0  0  0  0  0  0  0  0  0  0  0
   -0.8148   -3.2563    0.0000 O   0  0  0  0  0  0  0  0  0  0  0  0
    0.9604   -2.8354    0.0000 N   0  0  0  0  0  0  0  0  0  0  0  0
   -2.1271   -1.1062    0.0000 C   0  0  0  0  0  0  0  0  0  0  0  0
    2.2603    2.2605    0.0000 C   0  0  0  0  0  0  0  0  0  0  0  0
    2.1564    3.2563    0.0000 N   0  0  0  0  0  0  0  0  0  0  0  0
   -3.8353   -0.8521    0.0000 C   0  0  0  0  0  0  0  0  0  0  0  0
   -3.0521   -1.4771    0.0000 C   0  0  0  0  0  0  0  0  0  0  0  0
    1.2852   -1.1313    0.0000 C   0  0  0  0  0  0  0  0  0  0  0  0
   -3.6937    0.1312    0.0000 C   0  0  0  0  0  0  0  0  0  0  0  0
   -4.8230   -1.0270    0.0000 O   0  0  0  0  0  0  0  0  0  0  0  0
    1.6147   -2.0770    0.0000 C   0  0  0  0  0  0  0  0  0  0  0  0
   -4.5978    0.5647    0.0000 O   0  0  0  0  0  0  0  0  0  0  0  0
   -1.0146    0.1772    0.0000 O   0  0  0  0  0  0  0  0  0  0  0  0
   -5.2896   -0.1479    0.0000 C   0  0  0  0  0  0  0  0  0  0  0  0
   -1.9729   -0.1228    0.0000 C   0  0  0  0  0  0  0  0  0  0  0  0
   -2.7604    0.5063    0.0000 C   0  0  0  0  0  0  0  0  0  0  0  0
    4.1395    1.2522    0.0000 C   0  0  0  0  0  0  0  0  0  0  0  0
    3.6895   -0.9521    0.0000 C   0  0  0  0  0  0  0  0  0  0  0  0
    2.6063   -2.2686    0.0000 C   0  0  0  0  0  0  0  0  0  0  0  0
    5.0437    0.8148    0.0000 C   0  0  0  0  0  0  0  0  0  0  0  0
    4.6894   -0.9439    0.0000 C   0  0  0  0  0  0  0  0  0  0  0  0
    5.2896   -0.1479    0.0000 C   0  0  0  0  0  0  0  0  0  0  0  0
  1  2  2  0
  3  5  1  0
  3  4  2  0
  4 14  1  0
  5 11  1  0
  6  7  2  0
  3  7  1  0
  1  8  1  0
  2  9  1  0
  9 12  2  0
  1 10  1  0
 10 11  1  0
  8 12  1  0
  4 13  1  0
  6 13  1  0
 14 23  2  0
  7 15  1  0
  2 16  1  0
 16 17  3  0
 18 19  1  0
 18 21  2  0
 15 19  2  0
  5 20  2  0
 21 28  1  0
 18 22  1  0
 20 23  1  0
 21 24  1  0
 11 25  2  0
 22 26  1  0
 24 26  1  0
 15 27  1  0
 27 28  2  0
  9 29  1  0
 12 30  1  0
 23 31  1  0
 29 32  1  0
 32 34  1  0
 30 33  1  0
 33 34  1  0
M  END
>  <IDNUMBER>  (617) 
Y501-6656

>  <available>  (617) 
20

>  <H_acceptor>  (617) 
8

>  <H_donor>  (617) 
1

>  <B_rotN>  (617) 
5

>  <N_O>  (617) 
8

>  <logP>  (617) 
5.1653

>  <logD>  (617) 
3.6599

>  <logSw>  (617) 
-5.0627

>  <PSA>  (617) 
88.07

>  <pKa_ma>  (617) 
5.9084

>  <pKa_mb>  (617) 
-1.9333

>  <N_Chirals>  (617) 
0

>  <Name>  (617) 
3-(2H-1,3-benzodioxol-5-yl)-N-(3-cyano-5,6,7,8-tetrahydro-4H-cyclohepta[b]thiophen-2-yl)-6-methyl[1,2]oxazolo[5,4-b]pyridine-4-carboxamide

>  <Smile>  (617) 
Cc1cc(C(Nc(sc2c3CCCCC2)c3C#N)=O)c(c(-c(cc2)cc3c2OCO3)no2)c2n1

>  <Color>  (617) 
BROWN

>  <Collection>  (617) 
DC

>  <InChI>  (617) 
InChI=1S/C25H20N4O4S/c1-13-9-16(23(30)28-25-17(11-26)15-5-3-2-4-6-20(15)34-25)21-22(29-33-24(21)27-13)14-7-8-18-19(10-14)32-12-31-18/h7-10H,2-6,12H2,1H3,(H,28,30)

>  <InChI Key>  (617) 
LWINYZMOSDMBEP-UHFFFAOYSA-N

>  <PERCENTSP3>  (617) 
28

>  <Link>  (617) 
https://www.chemdiv.com/catalog/screening-compounds/compound-Y501-6656/

>  <MFCDNUMBER>  (617) 
MFCD08557486

>  <CLNUMBER>  (617) 
CL7490

>  <STEREO>  (617) 
ACHIRAL

>  <State>  (617) 
Solid

>  <Similarity score>  (617) 
0.20

$$$$
N-(3-cyano-5,6-dihydro-4H-cyclopenta[b]thiophen-2-yl)-7-methoxy-4,5-dihydronapht
     RDKit          2D

 28 32  0  0  0  0  0  0  0  0999 V2000
   -1.2330   -2.7196    0.0000 C   0  0  0  0  0  0  0  0  0  0  0  0
   -0.4167    0.4024    0.0000 C   0  0  0  0  0  0  0  0  0  0  0  0
   -0.6289   -3.4984    0.0000 C   0  0  0  0  0  0  0  0  0  0  0  0
    0.3680    0.9781    0.0000 C   0  0  0  0  0  0  0  0  0  0  0  0
    0.0844    1.9001    0.0000 C   0  0  0  0  0  0  0  0  0  0  0  0
   -1.1872    0.9868    0.0000 N   0  0  0  0  0  0  0  0  0  0  0  0
   -2.1722   -3.0574    0.0000 S   0  0  0  0  0  0  0  0  0  0  0  0
   -0.3710   -1.2128    0.0000 C   0  0  0  0  0  0  0  0  0  0  0  0
   -1.1729   -4.3262    0.0000 C   0  0  0  0  0  0  0  0  0  0  0  0
   -0.8834    1.9001    0.0000 O   0  0  0  0  0  0  0  0  0  0  0  0
   -1.2330   -1.7142    0.0000 N   0  0  0  0  0  0  0  0  0  0  0  0
   -2.1265   -4.0426    0.0000 C   0  0  0  0  0  0  0  0  0  0  0  0
    0.7319    2.6134    0.0000 C   0  0  0  0  0  0  0  0  0  0  0  0
    0.3797   -3.4612    0.0000 C   0  0  0  0  0  0  0  0  0  0  0  0
    1.6711    2.4012    0.0000 C   0  0  0  0  0  0  0  0  0  0  0  0
    1.3188    0.7661    0.0000 C   0  0  0  0  0  0  0  0  0  0  0  0
    1.3790   -3.4210    0.0000 N   0  0  0  0  0  0  0  0  0  0  0  0
    0.4453    3.5355    0.0000 C   0  0  0  0  0  0  0  0  0  0  0  0
    0.4538   -1.7284    0.0000 O   0  0  0  0  0  0  0  0  0  0  0  0
    1.9691    1.4878    0.0000 C   0  0  0  0  0  0  0  0  0  0  0  0
    2.3213    3.1117    0.0000 C   0  0  0  0  0  0  0  0  0  0  0  0
    2.0347    4.0369    0.0000 C   0  0  0  0  0  0  0  0  0  0  0  0
    1.0956    4.2485    0.0000 C   0  0  0  0  0  0  0  0  0  0  0  0
   -1.1271   -5.3284    0.0000 C   0  0  0  0  0  0  0  0  0  0  0  0
   -2.6850   -4.8847    0.0000 C   0  0  0  0  0  0  0  0  0  0  0  0
    2.6850    4.7468    0.0000 O   0  0  0  0  0  0  0  0  0  0  0  0
   -2.0808   -5.6720    0.0000 C   0  0  0  0  0  0  0  0  0  0  0  0
    2.3987    5.6720    0.0000 C   0  0  0  0  0  0  0  0  0  0  0  0
  2  8  1  0
  1  3  2  0
  2  4  1  0
  4  5  2  0
  5 10  1  0
  2  6  2  0
  1  7  1  0
  8 11  1  0
  3  9  1  0
  9 12  2  0
  6 10  1  0
  1 11  1  0
  7 12  1  0
  5 13  1  0
 13 15  2  0
  3 14  1  0
 15 20  1  0
  4 16  1  0
 14 17  3  0
 13 18  1  0
  8 19  2  0
 16 20  1  0
 15 21  1  0
 21 22  2  0
 22 23  1  0
 18 23  2  0
  9 24  1  0
 12 25  1  0
 22 26  1  0
 25 27  1  0
 24 27  1  0
 26 28  1  0
M  END
>  <IDNUMBER>  (618) 
C226-4085

>  <available>  (618) 
136

>  <H_acceptor>  (618) 
6

>  <H_donor>  (618) 
1

>  <B_rotN>  (618) 
5

>  <N_O>  (618) 
6

>  <logP>  (618) 
4.5266

>  <logD>  (618) 
2.7336

>  <logSw>  (618) 
-4.498

>  <PSA>  (618) 
70.091

>  <pKa_ma>  (618) 
5.614

>  <pKa_mb>  (618) 
-6.2231

>  <N_Chirals>  (618) 
0

>  <Name>  (618) 
N-(3-cyano-5,6-dihydro-4H-cyclopenta[b]thiophen-2-yl)-7-methoxy-4,5-dihydronaphtho[2,1-d][1,2]oxazole-3-carboxamide

>  <Smile>  (618) 
COc(cc1)cc(CC2)c1-c1c2c(C(Nc(sc2c3CCC2)c3C#N)=O)no1

>  <Color>  (618) 
PINK

>  <Collection>  (618) 
DC

>  <InChI>  (618) 
InChI=1S/C21H17N3O3S/c1-26-12-6-8-13-11(9-12)5-7-15-18(24-27-19(13)15)20(25)23-21-16(10-22)14-3-2-4-17(14)28-21/h6,8-9H,2-5,7H2,1H3,(H,23,25)

>  <InChI Key>  (618) 
QQVXHZSFJVNFGU-UHFFFAOYSA-N

>  <PERCENTSP3>  (618) 
28.6

>  <Link>  (618) 
https://www.chemdiv.com/catalog/screening-compounds/compound-C226-4085/

>  <MFCDNUMBER>  (618) 
MFCD09783254

>  <CLNUMBER>  (618) 
CL6931

>  <STEREO>  (618) 
ACHIRAL

>  <State>  (618) 
Solid

>  <Similarity score>  (618) 
0.20

$$$$
N-(6-tert-butyl-3-cyano-4,5,6,7-tetrahydro-1-benzothiophen-2-yl)-4,5-dihydronaph
     RDKit          2D

 31 35  0  0  0  0  0  0  0  0999 V2000
   -0.4173   -0.9279    0.0000 C   0  0  0  0  0  0  0  0  0  0  0  0
    0.4151    2.1390    0.0000 C   0  0  0  0  0  0  0  0  0  0  0  0
   -1.2250   -1.4828    0.0000 C   0  0  0  0  0  0  0  0  0  0  0  0
    1.2005    2.7138    0.0000 C   0  0  0  0  0  0  0  0  0  0  0  0
    0.8979    3.6353    0.0000 C   0  0  0  0  0  0  0  0  0  0  0  0
   -0.3555    2.7138    0.0000 N   0  0  0  0  0  0  0  0  0  0  0  0
    0.0607   -2.4661    0.0000 C   0  0  0  0  0  0  0  0  0  0  0  0
   -0.9473   -2.4463    0.0000 C   0  0  0  0  0  0  0  0  0  0  0  0
    0.3853   -1.5298    0.0000 S   0  0  0  0  0  0  0  0  0  0  0  0
    0.4447    0.5858    0.0000 C   0  0  0  0  0  0  0  0  0  0  0  0
   -0.0706    3.6203    0.0000 O   0  0  0  0  0  0  0  0  0  0  0  0
   -0.4173    0.0880    0.0000 N   0  0  0  0  0  0  0  0  0  0  0  0
    1.5446    4.3563    0.0000 C   0  0  0  0  0  0  0  0  0  0  0  0
   -2.1662   -1.1507    0.0000 C   0  0  0  0  0  0  0  0  0  0  0  0
    2.1368    2.5155    0.0000 C   0  0  0  0  0  0  0  0  0  0  0  0
    0.5364   -3.3430    0.0000 C   0  0  0  0  0  0  0  0  0  0  0  0
   -3.1201   -0.8213    0.0000 N   0  0  0  0  0  0  0  0  0  0  0  0
   -1.4601   -3.2934    0.0000 C   0  0  0  0  0  0  0  0  0  0  0  0
    0.0062   -4.2002    0.0000 C   0  0  0  0  0  0  0  0  0  0  0  0
    0.4842   -5.0919    0.0000 C   0  0  0  0  0  0  0  0  0  0  0  0
    2.4786    4.1504    0.0000 C   0  0  0  0  0  0  0  0  0  0  0  0
    1.2720    0.0880    0.0000 O   0  0  0  0  0  0  0  0  0  0  0  0
   -0.9822   -4.1704    0.0000 C   0  0  0  0  0  0  0  0  0  0  0  0
    2.7806    3.2414    0.0000 C   0  0  0  0  0  0  0  0  0  0  0  0
    1.2422    5.2703    0.0000 C   0  0  0  0  0  0  0  0  0  0  0  0
   -0.4173   -5.5628    0.0000 C   0  0  0  0  0  0  0  0  0  0  0  0
    1.3761   -4.6287    0.0000 C   0  0  0  0  0  0  0  0  0  0  0  0
    0.9449   -5.9911    0.0000 C   0  0  0  0  0  0  0  0  0  0  0  0
    3.1201    4.8764    0.0000 C   0  0  0  0  0  0  0  0  0  0  0  0
    1.8790    5.9911    0.0000 C   0  0  0  0  0  0  0  0  0  0  0  0
    2.8155    5.7929    0.0000 C   0  0  0  0  0  0  0  0  0  0  0  0
  2 10  1  0
  1  3  2  0
  2  4  1  0
  4  5  2  0
  5 11  1  0
  2  6  2  0
  7  9  1  0
  7  8  2  0
  3  8  1  0
  1  9  1  0
 10 12  1  0
  6 11  1  0
  1 12  1  0
  5 13  1  0
 13 21  2  0
  3 14  1  0
  4 15  1  0
  7 16  1  0
 14 17  3  0
  8 18  1  0
 16 19  1  0
 19 20  1  0
 21 24  1  0
 10 22  2  0
 18 23  1  0
 19 23  1  0
 15 24  1  0
 13 25  1  0
 20 26  1  0
 20 27  1  0
 20 28  1  0
 21 29  1  0
 25 30  2  0
 29 31  2  0
 30 31  1  0
M  END
>  <IDNUMBER>  (619) 
C226-3975

>  <available>  (619) 
196

>  <H_acceptor>  (619) 
5

>  <H_donor>  (619) 
1

>  <B_rotN>  (619) 
5

>  <N_O>  (619) 
5

>  <logP>  (619) 
6.3912

>  <logD>  (619) 
4.6185

>  <logSw>  (619) 
-5.717

>  <PSA>  (619) 
62.182

>  <pKa_ma>  (619) 
5.6347

>  <pKa_mb>  (619) 
-6.2231

>  <N_Chirals>  (619) 
1

>  <Name>  (619) 
N-(6-tert-butyl-3-cyano-4,5,6,7-tetrahydro-1-benzothiophen-2-yl)-4,5-dihydronaphtho[2,1-d][1,2]oxazole-3-carboxamide

>  <Smile>  (619) 
CC(C)(C)C(CC1)Cc2c1c(C#N)c(NC(c1noc-3c1CCc1c3cccc1)=O)s2

>  <Color>  (619) 
NOT COLORED

>  <Collection>  (619) 
DC

>  <InChI>  (619) 
InChI=1S/C25H25N3O2S/c1-25(2,3)15-9-11-17-19(13-26)24(31-20(17)12-15)27-23(29)21-18-10-8-14-6-4-5-7-16(14)22(18)30-28-21/h4-7,15H,8-12H2,1-3H3,(H,27,29)/t15-/m1/s1

>  <InChI Key>  (619) 
JDWZNYXLRZPBNZ-OAHLLOKOSA-N

>  <PERCENTSP3>  (619) 
40

>  <Link>  (619) 
https://www.chemdiv.com/catalog/screening-compounds/compound-C226-3975/

>  <MFCDNUMBER>  (619) 
MFCD09783182

>  <CLNUMBER>  (619) 
CL6931

>  <STEREO>  (619) 
RACEMIC MIXTURE

>  <State>  (619) 
Solid

>  <Similarity score>  (619) 
0.20

$$$$
N-(3-cyano-5,6-dihydro-4H-cyclopenta[b]thiophen-2-yl)-6-methyl-3-phenyl[1,2]oxaz
     RDKit          2D

 29 33  0  0  0  0  0  0  0  0999 V2000
    1.0187   -0.7271    0.0000 C   0  0  0  0  0  0  0  0  0  0  0  0
    1.8186   -1.2853    0.0000 C   0  0  0  0  0  0  0  0  0  0  0  0
   -2.4021   -0.2022    0.0000 C   0  0  0  0  0  0  0  0  0  0  0  0
   -3.3354   -0.5645    0.0000 C   0  0  0  0  0  0  0  0  0  0  0  0
   -1.6187   -0.8271    0.0000 C   0  0  0  0  0  0  0  0  0  0  0  0
   -3.4311    1.0480    0.0000 N   0  0  0  0  0  0  0  0  0  0  0  0
    1.3521    0.2523    0.0000 S   0  0  0  0  0  0  0  0  0  0  0  0
    2.6352   -0.7188    0.0000 C   0  0  0  0  0  0  0  0  0  0  0  0
   -2.4562    0.7937    0.0000 C   0  0  0  0  0  0  0  0  0  0  0  0
    0.0895   -1.0895    0.0000 N   0  0  0  0  0  0  0  0  0  0  0  0
   -0.6855   -0.4645    0.0000 C   0  0  0  0  0  0  0  0  0  0  0  0
    2.3603    0.2354    0.0000 C   0  0  0  0  0  0  0  0  0  0  0  0
   -3.9686    0.2022    0.0000 O   0  0  0  0  0  0  0  0  0  0  0  0
   -3.4811   -1.5520    0.0000 N   0  0  0  0  0  0  0  0  0  0  0  0
    1.8354   -2.3019    0.0000 C   0  0  0  0  0  0  0  0  0  0  0  0
    1.8395   -3.2853    0.0000 N   0  0  0  0  0  0  0  0  0  0  0  0
   -1.7729   -1.8186    0.0000 C   0  0  0  0  0  0  0  0  0  0  0  0
   -2.7021   -2.1813    0.0000 C   0  0  0  0  0  0  0  0  0  0  0  0
   -0.5355    0.5186    0.0000 O   0  0  0  0  0  0  0  0  0  0  0  0
   -1.8313    1.5772    0.0000 C   0  0  0  0  0  0  0  0  0  0  0  0
    3.6477   -0.7312    0.0000 C   0  0  0  0  0  0  0  0  0  0  0  0
    3.1936    0.8147    0.0000 C   0  0  0  0  0  0  0  0  0  0  0  0
    3.9686    0.2022    0.0000 C   0  0  0  0  0  0  0  0  0  0  0  0
   -2.8521   -3.1687    0.0000 C   0  0  0  0  0  0  0  0  0  0  0  0
   -2.1979    2.5104    0.0000 C   0  0  0  0  0  0  0  0  0  0  0  0
   -0.8437    1.4229    0.0000 C   0  0  0  0  0  0  0  0  0  0  0  0
   -1.5729    3.2853    0.0000 C   0  0  0  0  0  0  0  0  0  0  0  0
   -0.2186    2.2061    0.0000 C   0  0  0  0  0  0  0  0  0  0  0  0
   -0.5855    3.1355    0.0000 C   0  0  0  0  0  0  0  0  0  0  0  0
  1  2  2  0
  3  5  1  0
  3  4  2  0
  5 11  1  0
  6  9  2  0
  6 13  1  0
  1  7  1  0
  2  8  1  0
  3  9  1  0
  1 10  1  0
 10 11  1  0
  7 12  1  0
  8 12  2  0
  4 13  1  0
 14 18  2  0
  4 14  1  0
  2 15  1  0
 15 16  3  0
  5 17  2  0
 17 18  1  0
 11 19  2  0
  9 20  1  0
  8 21  1  0
 12 22  1  0
 22 23  1  0
 21 23  1  0
 18 24  1  0
 20 25  1  0
 20 26  2  0
 25 27  2  0
 27 29  1  0
 26 28  1  0
 28 29  2  0
M  END
>  <IDNUMBER>  (620) 
Y501-2729

>  <available>  (620) 
10

>  <H_acceptor>  (620) 
6

>  <H_donor>  (620) 
1

>  <B_rotN>  (620) 
5

>  <N_O>  (620) 
6

>  <logP>  (620) 
4.1451

>  <logD>  (620) 
2.6197

>  <logSw>  (620) 
-4.59

>  <PSA>  (620) 
70.99

>  <pKa_ma>  (620) 
5.8877

>  <pKa_mb>  (620) 
-1.9333

>  <N_Chirals>  (620) 
0

>  <Name>  (620) 
N-(3-cyano-5,6-dihydro-4H-cyclopenta[b]thiophen-2-yl)-6-methyl-3-phenyl[1,2]oxazolo[5,4-b]pyridine-4-carboxamide

>  <Smile>  (620) 
Cc1cc(C(Nc(sc2c3CCC2)c3C#N)=O)c(c(-c2ccccc2)no2)c2n1

>  <Color>  (620) 
BROWN

>  <Collection>  (620) 
DC

>  <InChI>  (620) 
InChI=1S/C22H16N4O2S/c1-12-10-15(18-19(26-28-21(18)24-12)13-6-3-2-4-7-13)20(27)25-22-16(11-23)14-8-5-9-17(14)29-22/h2-4,6-7,10H,5,8-9H2,1H3,(H,25,27)

>  <InChI Key>  (620) 
GJEICPIYJGGZKP-UHFFFAOYSA-N

>  <PERCENTSP3>  (620) 
18.18

>  <Link>  (620) 
https://www.chemdiv.com/catalog/screening-compounds/compound-Y501-2729/

>  <MFCDNUMBER>  (620) 
MFCD08557909

>  <CLNUMBER>  (620) 
CL7490

>  <STEREO>  (620) 
ACHIRAL

>  <State>  (620) 
Solid

>  <Similarity score>  (620) 
0.20

$$$$
3-(2-chlorophenyl)-N-(3-cyano-5,6-dihydro-4H-cyclopenta[b]thiophen-2-yl)-5-methy
     RDKit          2D

 26 29  0  0  0  0  0  0  0  0999 V2000
    0.9916   -1.1651    0.0000 C   0  0  0  0  0  0  0  0  0  0  0  0
   -1.6308   -0.9219    0.0000 C   0  0  0  0  0  0  0  0  0  0  0  0
    1.2895   -0.2375    0.0000 C   0  0  0  0  0  0  0  0  0  0  0  0
   -2.3301   -0.1981    0.0000 C   0  0  0  0  0  0  0  0  0  0  0  0
   -0.6674   -0.6844    0.0000 C   0  0  0  0  0  0  0  0  0  0  0  0
   -3.2143   -0.6391    0.0000 N   0  0  0  0  0  0  0  0  0  0  0  0
    1.7986   -1.7703    0.0000 S   0  0  0  0  0  0  0  0  0  0  0  0
    0.0339   -1.4083    0.0000 N   0  0  0  0  0  0  0  0  0  0  0  0
    2.2849   -0.2375    0.0000 C   0  0  0  0  0  0  0  0  0  0  0  0
    2.6073   -1.2048    0.0000 C   0  0  0  0  0  0  0  0  0  0  0  0
   -2.1680    0.7730    0.0000 C   0  0  0  0  0  0  0  0  0  0  0  0
   -3.1107   -1.6063    0.0000 O   0  0  0  0  0  0  0  0  0  0  0  0
   -2.1114   -1.8099    0.0000 C   0  0  0  0  0  0  0  0  0  0  0  0
    0.6730    0.5656    0.0000 C   0  0  0  0  0  0  0  0  0  0  0  0
    0.0566    1.3648    0.0000 N   0  0  0  0  0  0  0  0  0  0  0  0
   -0.3959    0.2828    0.0000 O   0  0  0  0  0  0  0  0  0  0  0  0
   -2.9750    1.3648    0.0000 C   0  0  0  0  0  0  0  0  0  0  0  0
    3.0881    0.3280    0.0000 C   0  0  0  0  0  0  0  0  0  0  0  0
   -3.9195    1.0162    0.0000 Cl  0  0  0  0  0  0  0  0  0  0  0  0
    3.5971   -1.2048    0.0000 C   0  0  0  0  0  0  0  0  0  0  0  0
   -1.2556    1.1311    0.0000 C   0  0  0  0  0  0  0  0  0  0  0  0
   -1.7137   -2.7374    0.0000 C   0  0  0  0  0  0  0  0  0  0  0  0
    3.9195   -0.2375    0.0000 C   0  0  0  0  0  0  0  0  0  0  0  0
   -2.8449    2.3755    0.0000 C   0  0  0  0  0  0  0  0  0  0  0  0
   -1.1217    2.1284    0.0000 C   0  0  0  0  0  0  0  0  0  0  0  0
   -1.9003    2.7374    0.0000 C   0  0  0  0  0  0  0  0  0  0  0  0
  2  5  1  0
  1  3  2  0
  2  4  1  0
  5  8  1  0
  4  6  2  0
  1  7  1  0
  1  8  1  0
  3  9  1  0
  7 10  1  0
  9 10  2  0
  4 11  1  0
 12 13  1  0
  6 12  1  0
  2 13  2  0
  3 14  1  0
 14 15  3  0
  5 16  2  0
 11 17  1  0
  9 18  1  0
 18 23  1  0
 17 19  1  0
 10 20  1  0
 11 21  2  0
 13 22  1  0
 20 23  1  0
 17 24  2  0
 24 26  1  0
 21 25  1  0
 25 26  2  0
M  END
>  <IDNUMBER>  (621) 
8008-9661

>  <available>  (621) 
15

>  <H_acceptor>  (621) 
5

>  <H_donor>  (621) 
1

>  <B_rotN>  (621) 
5

>  <N_O>  (621) 
5

>  <logP>  (621) 
4.0983

>  <logD>  (621) 
1.3248

>  <logSw>  (621) 
-4.6576

>  <PSA>  (621) 
62.427

>  <pKa_ma>  (621) 
4.6272

>  <pKa_mb>  (621) 
-6.8683

>  <N_Chirals>  (621) 
0

>  <Name>  (621) 
3-(2-chlorophenyl)-N-(3-cyano-5,6-dihydro-4H-cyclopenta[b]thiophen-2-yl)-5-methyl-1,2-oxazole-4-carboxamide

>  <Smile>  (621) 
Cc1c(C(Nc(sc2c3CCC2)c3C#N)=O)c(-c(cccc2)c2Cl)no1

>  <Color>  (621) 
BROWN

>  <Collection>  (621) 
DC

>  <InChI>  (621) 
InChI=1S/C19H14ClN3O2S/c1-10-16(17(23-25-10)12-5-2-3-7-14(12)20)18(24)22-19-13(9-21)11-6-4-8-15(11)26-19/h2-3,5,7H,4,6,8H2,1H3,(H,22,24)

>  <InChI Key>  (621) 
PPPHOQFSIXVYRL-UHFFFAOYSA-N

>  <PERCENTSP3>  (621) 
21.1

>  <Link>  (621) 
https://www.chemdiv.com/catalog/screening-compounds/compound-8008-9661/

>  <MFCDNUMBER>  (621) 
MFCD01460598

>  <CLNUMBER>  (621) 
CL2451

>  <STEREO>  (621) 
ACHIRAL

>  <State>  (621) 
Solid

>  <Similarity score>  (621) 
0.20

$$$$
3-(2-chlorophenyl)-N-(3-cyano-4,5,6,7-tetrahydro-1-benzothiophen-2-yl)-5-methyl-
     RDKit          2D

 27 30  0  0  0  0  0  0  0  0999 V2000
    1.1989   -0.2311    0.0000 C   0  0  0  0  0  0  0  0  0  0  0  0
   -1.3869   -0.7378    0.0000 C   0  0  0  0  0  0  0  0  0  0  0  0
    1.2939    0.7948    0.0000 C   0  0  0  0  0  0  0  0  0  0  0  0
   -2.3495   -0.4592    0.0000 C   0  0  0  0  0  0  0  0  0  0  0  0
   -0.5466   -0.2311    0.0000 C   0  0  0  0  0  0  0  0  0  0  0  0
   -2.9384   -1.2508    0.0000 N   0  0  0  0  0  0  0  0  0  0  0  0
    2.1026   -0.5985    0.0000 S   0  0  0  0  0  0  0  0  0  0  0  0
    0.3420   -0.7378    0.0000 N   0  0  0  0  0  0  0  0  0  0  0  0
    2.2861    0.9827    0.0000 C   0  0  0  0  0  0  0  0  0  0  0  0
    2.7801    0.1424    0.0000 C   0  0  0  0  0  0  0  0  0  0  0  0
   -2.6851    0.4655    0.0000 C   0  0  0  0  0  0  0  0  0  0  0  0
   -2.3178   -2.0867    0.0000 O   0  0  0  0  0  0  0  0  0  0  0  0
   -1.3869   -1.7637    0.0000 C   0  0  0  0  0  0  0  0  0  0  0  0
    0.5636    1.4406    0.0000 C   0  0  0  0  0  0  0  0  0  0  0  0
   -0.2153    2.0867    0.0000 N   0  0  0  0  0  0  0  0  0  0  0  0
   -0.5466    0.7440    0.0000 O   0  0  0  0  0  0  0  0  0  0  0  0
   -3.6794    0.6492    0.0000 C   0  0  0  0  0  0  0  0  0  0  0  0
   -4.3000   -0.1363    0.0000 Cl  0  0  0  0  0  0  0  0  0  0  0  0
    2.8075    1.8480    0.0000 C   0  0  0  0  0  0  0  0  0  0  0  0
    3.8060    0.1424    0.0000 C   0  0  0  0  0  0  0  0  0  0  0  0
   -2.0708    1.2571    0.0000 C   0  0  0  0  0  0  0  0  0  0  0  0
   -0.5466   -2.3653    0.0000 C   0  0  0  0  0  0  0  0  0  0  0  0
   -4.0213    1.5843    0.0000 C   0  0  0  0  0  0  0  0  0  0  0  0
    3.8060    1.8480    0.0000 C   0  0  0  0  0  0  0  0  0  0  0  0
    4.3000    0.9827    0.0000 C   0  0  0  0  0  0  0  0  0  0  0  0
   -2.4338    2.1753    0.0000 C   0  0  0  0  0  0  0  0  0  0  0  0
   -3.4007    2.3653    0.0000 C   0  0  0  0  0  0  0  0  0  0  0  0
  2  5  1  0
  1  3  2  0
  2  4  1  0
  5  8  1  0
  4  6  2  0
  1  7  1  0
  1  8  1  0
  3  9  1  0
  7 10  1  0
  9 10  2  0
  4 11  1  0
 12 13  1  0
  6 12  1  0
  2 13  2  0
  3 14  1  0
 14 15  3  0
  5 16  2  0
 11 17  1  0
 17 18  1  0
  9 19  1  0
 10 20  1  0
 11 21  2  0
 13 22  1  0
 17 23  2  0
 23 27  1  0
 19 24  1  0
 20 25  1  0
 24 25  1  0
 21 26  1  0
 26 27  2  0
M  END
>  <IDNUMBER>  (622) 
8009-5648

>  <available>  (622) 
9

>  <H_acceptor>  (622) 
5

>  <H_donor>  (622) 
1

>  <B_rotN>  (622) 
5

>  <N_O>  (622) 
5

>  <logP>  (622) 
4.5086

>  <logD>  (622) 
1.7557

>  <logSw>  (622) 
-4.8238

>  <PSA>  (622) 
62.061

>  <pKa_ma>  (622) 
4.6479

>  <pKa_mb>  (622) 
-6.8125

>  <N_Chirals>  (622) 
0

>  <Name>  (622) 
3-(2-chlorophenyl)-N-(3-cyano-4,5,6,7-tetrahydro-1-benzothiophen-2-yl)-5-methyl-1,2-oxazole-4-carboxamide

>  <Smile>  (622) 
Cc1c(C(Nc(sc2c3CCCC2)c3C#N)=O)c(-c(cccc2)c2Cl)no1

>  <Color>  (622) 
NOT COLORED

>  <Collection>  (622) 
DC

>  <InChI>  (622) 
InChI=1S/C20H16ClN3O2S/c1-11-17(18(24-26-11)13-7-2-4-8-15(13)21)19(25)23-20-14(10-22)12-6-3-5-9-16(12)27-20/h2,4,7-8H,3,5-6,9H2,1H3,(H,23,25)

>  <InChI Key>  (622) 
IEYTVLZRFYNCEB-UHFFFAOYSA-N

>  <PERCENTSP3>  (622) 
25

>  <Link>  (622) 
https://www.chemdiv.com/catalog/screening-compounds/compound-8009-5648/

>  <MFCDNUMBER>  (622) 
MFCD01197445

>  <CLNUMBER>  (622) 
CL2451

>  <STEREO>  (622) 
ACHIRAL

>  <State>  (622) 
Solid

>  <Similarity score>  (622) 
0.20

$$$$
3-(2H-1,3-benzodioxol-5-yl)-N-(3-cyano-6-methyl-4,5,6,7-tetrahydro-1-benzothioph
     RDKit          2D

 34 39  0  0  0  0  0  0  0  0999 V2000
    1.2437   -0.6103    0.0000 C   0  0  0  0  0  0  0  0  0  0  0  0
    0.8437   -1.5476    0.0000 C   0  0  0  0  0  0  0  0  0  0  0  0
   -1.7560    1.1103    0.0000 C   0  0  0  0  0  0  0  0  0  0  0  0
   -2.2519    1.9852    0.0000 C   0  0  0  0  0  0  0  0  0  0  0  0
    1.5936   -2.1976    0.0000 C   0  0  0  0  0  0  0  0  0  0  0  0
    2.4517   -1.7102    0.0000 C   0  0  0  0  0  0  0  0  0  0  0  0
    2.2394   -0.7103    0.0000 S   0  0  0  0  0  0  0  0  0  0  0  0
   -0.7561    1.1103    0.0000 C   0  0  0  0  0  0  0  0  0  0  0  0
   -3.3267    0.7853    0.0000 N   0  0  0  0  0  0  0  0  0  0  0  0
   -2.4143    0.3729    0.0000 C   0  0  0  0  0  0  0  0  0  0  0  0
    0.7437    0.2479    0.0000 N   0  0  0  0  0  0  0  0  0  0  0  0
   -0.2562    0.2479    0.0000 C   0  0  0  0  0  0  0  0  0  0  0  0
   -3.2268    1.7727    0.0000 O   0  0  0  0  0  0  0  0  0  0  0  0
   -1.7560    2.8476    0.0000 N   0  0  0  0  0  0  0  0  0  0  0  0
   -2.4518   -0.6227    0.0000 C   0  0  0  0  0  0  0  0  0  0  0  0
   -0.1188   -1.7727    0.0000 C   0  0  0  0  0  0  0  0  0  0  0  0
   -1.0811   -2.0102    0.0000 N   0  0  0  0  0  0  0  0  0  0  0  0
   -3.3767   -2.0851    0.0000 C   0  0  0  0  0  0  0  0  0  0  0  0
    1.5811   -3.1851    0.0000 C   0  0  0  0  0  0  0  0  0  0  0  0
   -3.3392   -1.0853    0.0000 C   0  0  0  0  0  0  0  0  0  0  0  0
   -0.2562    1.9852    0.0000 C   0  0  0  0  0  0  0  0  0  0  0  0
    3.3392   -2.1976    0.0000 C   0  0  0  0  0  0  0  0  0  0  0  0
   -2.5269   -2.6225    0.0000 C   0  0  0  0  0  0  0  0  0  0  0  0
   -4.1516   -2.7225    0.0000 O   0  0  0  0  0  0  0  0  0  0  0  0
   -0.7561    2.8476    0.0000 C   0  0  0  0  0  0  0  0  0  0  0  0
   -2.7894   -3.5849    0.0000 O   0  0  0  0  0  0  0  0  0  0  0  0
   -0.7561   -0.6103    0.0000 O   0  0  0  0  0  0  0  0  0  0  0  0
   -3.7893   -3.6474    0.0000 C   0  0  0  0  0  0  0  0  0  0  0  0
   -1.6062   -1.1477    0.0000 C   0  0  0  0  0  0  0  0  0  0  0  0
   -1.6436   -2.1475    0.0000 C   0  0  0  0  0  0  0  0  0  0  0  0
    2.4393   -3.7099    0.0000 C   0  0  0  0  0  0  0  0  0  0  0  0
    3.3142   -3.2100    0.0000 C   0  0  0  0  0  0  0  0  0  0  0  0
   -0.2562    3.7350    0.0000 C   0  0  0  0  0  0  0  0  0  0  0  0
    4.1516   -3.7350    0.0000 C   0  0  0  0  0  0  0  0  0  0  0  0
  1  2  2  0
  3  8  1  0
  3  4  2  0
  2  5  1  0
  6  7  1  0
  5  6  2  0
  1  7  1  0
  8 12  1  0
  9 10  2  0
  9 13  1  0
  3 10  1  0
  1 11  1  0
 11 12  1  0
  4 13  1  0
 14 25  2  0
  4 14  1  0
 10 15  1  0
  2 16  1  0
 16 17  3  0
 18 20  1  0
  5 19  1  0
 15 20  2  0
  8 21  2  0
  6 22  1  0
 23 30  1  0
 18 23  2  0
 18 24  1  0
 21 25  1  0
 23 26  1  0
 26 28  1  0
 12 27  2  0
 24 28  1  0
 15 29  1  0
 29 30  2  0
 19 31  1  0
 22 32  1  0
 31 32  1  0
 25 33  1  0
 32 34  1  0
M  END
>  <IDNUMBER>  (623) 
Y501-6662

>  <available>  (623) 
18

>  <H_acceptor>  (623) 
8

>  <H_donor>  (623) 
1

>  <B_rotN>  (623) 
5

>  <N_O>  (623) 
8

>  <logP>  (623) 
5.1033

>  <logD>  (623) 
3.5979

>  <logSw>  (623) 
-5.1086

>  <PSA>  (623) 
87.739

>  <pKa_ma>  (623) 
5.9084

>  <pKa_mb>  (623) 
-1.9333

>  <N_Chirals>  (623) 
1

>  <Name>  (623) 
3-(2H-1,3-benzodioxol-5-yl)-N-(3-cyano-6-methyl-4,5,6,7-tetrahydro-1-benzothiophen-2-yl)-6-methyl[1,2]oxazolo[5,4-b]pyridine-4-carboxamide

>  <Smile>  (623) 
CC(CC1)Cc2c1c(C#N)c(NC(c1c(c(-c(cc3)cc4c3OCO4)no3)c3nc(C)c1)=O)s2

>  <Color>  (623) 
BROWN

>  <Collection>  (623) 
DC

>  <InChI>  (623) 
InChI=1S/C25H20N4O4S/c1-12-3-5-15-17(10-26)25(34-20(15)7-12)28-23(30)16-8-13(2)27-24-21(16)22(29-33-24)14-4-6-18-19(9-14)32-11-31-18/h4,6,8-9,12H,3,5,7,11H2,1-2H3,(H,28,30)/t12-/m1/s1

>  <InChI Key>  (623) 
BWJFNRGMLBOHQH-GFCCVEGCSA-N

>  <PERCENTSP3>  (623) 
28

>  <Link>  (623) 
https://www.chemdiv.com/catalog/screening-compounds/compound-Y501-6662/

>  <MFCDNUMBER>  (623) 
MFCD08557385

>  <CLNUMBER>  (623) 
CL7490

>  <STEREO>  (623) 
RACEMIC MIXTURE

>  <State>  (623) 
Solid

>  <Similarity score>  (623) 
0.20

$$$$
3-(2-chlorophenyl)-N-(3-cyano-5,6,7,8-tetrahydro-4H-cyclohepta[b]thiophen-2-yl)-
     RDKit          2D

 28 31  0  0  0  0  0  0  0  0999 V2000
   -1.4936    0.0312    0.0000 C   0  0  0  0  0  0  0  0  0  0  0  0
    0.5394   -1.7352    0.0000 C   0  0  0  0  0  0  0  0  0  0  0  0
   -2.4643    0.1521    0.0000 C   0  0  0  0  0  0  0  0  0  0  0  0
    1.5518   -1.8061    0.0000 C   0  0  0  0  0  0  0  0  0  0  0  0
    0.0146   -0.8604    0.0000 C   0  0  0  0  0  0  0  0  0  0  0  0
    1.7935   -2.8185    0.0000 N   0  0  0  0  0  0  0  0  0  0  0  0
   -1.0644    0.9227    0.0000 S   0  0  0  0  0  0  0  0  0  0  0  0
   -0.9895   -0.8604    0.0000 N   0  0  0  0  0  0  0  0  0  0  0  0
   -2.6518    1.1309    0.0000 C   0  0  0  0  0  0  0  0  0  0  0  0
   -1.7978    1.6310    0.0000 C   0  0  0  0  0  0  0  0  0  0  0  0
    2.1976   -1.0144    0.0000 C   0  0  0  0  0  0  0  0  0  0  0  0
    0.9477   -3.3516    0.0000 O   0  0  0  0  0  0  0  0  0  0  0  0
    0.1562   -2.7018    0.0000 C   0  0  0  0  0  0  0  0  0  0  0  0
   -3.1601   -0.5896    0.0000 C   0  0  0  0  0  0  0  0  0  0  0  0
   -3.8475   -1.3602    0.0000 N   0  0  0  0  0  0  0  0  0  0  0  0
    0.5145    0.0187    0.0000 O   0  0  0  0  0  0  0  0  0  0  0  0
    3.2099   -1.1644    0.0000 C   0  0  0  0  0  0  0  0  0  0  0  0
    3.5684   -2.0934    0.0000 Cl  0  0  0  0  0  0  0  0  0  0  0  0
   -3.5725    1.5269    0.0000 C   0  0  0  0  0  0  0  0  0  0  0  0
   -1.6269    2.5976    0.0000 C   0  0  0  0  0  0  0  0  0  0  0  0
    1.8393   -0.0564    0.0000 C   0  0  0  0  0  0  0  0  0  0  0  0
   -0.4729   -2.9100    0.0000 C   0  0  0  0  0  0  0  0  0  0  0  0
    3.8558   -0.3812    0.0000 C   0  0  0  0  0  0  0  0  0  0  0  0
   -3.8558    2.4851    0.0000 C   0  0  0  0  0  0  0  0  0  0  0  0
   -2.2935    3.3516    0.0000 C   0  0  0  0  0  0  0  0  0  0  0  0
    2.4767    0.7437    0.0000 C   0  0  0  0  0  0  0  0  0  0  0  0
    3.4974    0.5854    0.0000 C   0  0  0  0  0  0  0  0  0  0  0  0
   -3.2934    3.2850    0.0000 C   0  0  0  0  0  0  0  0  0  0  0  0
  2  5  1  0
  1  3  2  0
  2  4  1  0
  5  8  1  0
  4  6  2  0
  6 12  1  0
  1  7  1  0
  1  8  1  0
  3  9  1  0
  9 10  2  0
  7 10  1  0
  4 11  1  0
 12 13  1  0
  2 13  2  0
  3 14  1  0
 14 15  3  0
  5 16  2  0
 11 17  2  0
 17 18  1  0
  9 19  1  0
 10 20  1  0
 11 21  1  0
 13 22  1  0
 17 23  1  0
 23 27  2  0
 19 24  1  0
 24 28  1  0
 20 25  1  0
 21 26  2  0
 26 27  1  0
 25 28  1  0
M  END
>  <IDNUMBER>  (624) 
Y205-1523

>  <available>  (624) 
21

>  <H_acceptor>  (624) 
5

>  <H_donor>  (624) 
1

>  <B_rotN>  (624) 
5

>  <N_O>  (624) 
5

>  <logP>  (624) 
5.0045

>  <logD>  (624) 
2.2516

>  <logSw>  (624) 
-5.0998

>  <PSA>  (624) 
62.392

>  <pKa_ma>  (624) 
4.6479

>  <pKa_mb>  (624) 
-6.7294

>  <N_Chirals>  (624) 
0

>  <Name>  (624) 
3-(2-chlorophenyl)-N-(3-cyano-5,6,7,8-tetrahydro-4H-cyclohepta[b]thiophen-2-yl)-5-methyl-1,2-oxazole-4-carboxamide

>  <Smile>  (624) 
Cc1c(C(Nc(sc2c3CCCCC2)c3C#N)=O)c(-c(cccc2)c2Cl)no1

>  <Color>  (624) 
BROWN

>  <Collection>  (624) 
DC

>  <InChI>  (624) 
InChI=1S/C21H18ClN3O2S/c1-12-18(19(25-27-12)14-8-5-6-9-16(14)22)20(26)24-21-15(11-23)13-7-3-2-4-10-17(13)28-21/h5-6,8-9H,2-4,7,10H2,1H3,(H,24,26)

>  <InChI Key>  (624) 
PYRADUXWQSGPRH-UHFFFAOYSA-N

>  <PERCENTSP3>  (624) 
28.57

>  <Link>  (624) 
https://www.chemdiv.com/catalog/screening-compounds/compound-Y205-1523/

>  <MFCDNUMBER>  (624) 
MFCD03386073

>  <CLNUMBER>  (624) 
CL2451

>  <STEREO>  (624) 
ACHIRAL

>  <State>  (624) 
Solid

>  <Similarity score>  (624) 
0.20

$$$$
3-(2-chlorophenyl)-N-(3-cyano-4,5,6,7,8,9-hexahydrocycloocta[b]thiophen-2-yl)-5-
     RDKit          2D

 29 32  0  0  0  0  0  0  0  0999 V2000
   -1.2731   -0.6458    0.0000 C   0  0  0  0  0  0  0  0  0  0  0  0
    0.7771   -0.6335    0.0000 C   0  0  0  0  0  0  0  0  0  0  0  0
   -2.2481   -0.5585    0.0000 C   0  0  0  0  0  0  0  0  0  0  0  0
    1.7813   -0.5959    0.0000 C   0  0  0  0  0  0  0  0  0  0  0  0
    0.2395   -1.5293    0.0000 C   0  0  0  0  0  0  0  0  0  0  0  0
    1.9771    0.3918    0.0000 N   0  0  0  0  0  0  0  0  0  0  0  0
   -0.8856    0.2792    0.0000 S   0  0  0  0  0  0  0  0  0  0  0  0
   -0.7605   -1.5293    0.0000 N   0  0  0  0  0  0  0  0  0  0  0  0
   -2.4815    0.3918    0.0000 C   0  0  0  0  0  0  0  0  0  0  0  0
   -1.6563    0.9417    0.0000 C   0  0  0  0  0  0  0  0  0  0  0  0
    2.4190   -1.3334    0.0000 C   0  0  0  0  0  0  0  0  0  0  0  0
    1.1187    0.8834    0.0000 O   0  0  0  0  0  0  0  0  0  0  0  0
    0.4062    0.2209    0.0000 C   0  0  0  0  0  0  0  0  0  0  0  0
   -2.9315   -1.3585    0.0000 C   0  0  0  0  0  0  0  0  0  0  0  0
   -3.5690   -2.1543    0.0000 N   0  0  0  0  0  0  0  0  0  0  0  0
    0.7145   -2.4085    0.0000 O   0  0  0  0  0  0  0  0  0  0  0  0
    3.3898   -1.1709    0.0000 C   0  0  0  0  0  0  0  0  0  0  0  0
    3.7188   -0.2541    0.0000 Cl  0  0  0  0  0  0  0  0  0  0  0  0
   -3.4940    0.6542    0.0000 C   0  0  0  0  0  0  0  0  0  0  0  0
   -1.4189    1.9044    0.0000 C   0  0  0  0  0  0  0  0  0  0  0  0
    2.1271   -2.2960    0.0000 C   0  0  0  0  0  0  0  0  0  0  0  0
   -0.5688    0.4584    0.0000 C   0  0  0  0  0  0  0  0  0  0  0  0
    4.0440   -1.8834    0.0000 C   0  0  0  0  0  0  0  0  0  0  0  0
   -4.0440    1.5084    0.0000 C   0  0  0  0  0  0  0  0  0  0  0  0
   -1.9689    2.7792    0.0000 C   0  0  0  0  0  0  0  0  0  0  0  0
    2.7689   -3.0210    0.0000 C   0  0  0  0  0  0  0  0  0  0  0  0
    3.7440   -2.8335    0.0000 C   0  0  0  0  0  0  0  0  0  0  0  0
   -3.8232    2.4835    0.0000 C   0  0  0  0  0  0  0  0  0  0  0  0
   -2.9440    3.0210    0.0000 C   0  0  0  0  0  0  0  0  0  0  0  0
  2  5  1  0
  1  3  2  0
  2  4  1  0
  5  8  1  0
  4  6  2  0
  6 12  1  0
  1  7  1  0
  1  8  1  0
  3  9  1  0
  9 10  2  0
  7 10  1  0
  4 11  1  0
 12 13  1  0
  2 13  2  0
  3 14  1  0
 14 15  3  0
  5 16  2  0
 11 17  1  0
 17 18  1  0
  9 19  1  0
 10 20  1  0
 11 21  2  0
 13 22  1  0
 17 23  2  0
 19 24  1  0
 20 25  1  0
 21 26  1  0
 26 27  2  0
 23 27  1  0
 24 28  1  0
 25 29  1  0
 28 29  1  0
M  END
>  <IDNUMBER>  (625) 
Y509-7636

>  <available>  (625) 
21

>  <H_acceptor>  (625) 
5

>  <H_donor>  (625) 
1

>  <B_rotN>  (625) 
5

>  <N_O>  (625) 
5

>  <logP>  (625) 
5.5

>  <logD>  (625) 
2.748

>  <logSw>  (625) 
-5.831

>  <PSA>  (625) 
62.39

>  <pKa_ma>  (625) 
4.648

>  <pKa_mb>  (625) 
-6.812

>  <N_Chirals>  (625) 
0

>  <Name>  (625) 
3-(2-chlorophenyl)-N-(3-cyano-4,5,6,7,8,9-hexahydrocycloocta[b]thiophen-2-yl)-5-methyl-1,2-oxazole-4-carboxamide

>  <Smile>  (625) 
c1(c(c2c(s1)CCCCCC2)C#N)NC(c1c(noc1C)c1c(Cl)cccc1)=O

>  <Color>  (625) 
BROWN

>  <Collection>  (625) 
DC

>  <InChI>  (625) 
InChI=1S/C22H20ClN3O2S/c1-13-19(20(26-28-13)15-9-6-7-10-17(15)23)21(27)25-22-16(12-24)14-8-4-2-3-5-11-18(14)29-22/h6-7,9-10H,2-5,8,11H2,1H3,(H,25,27)

>  <InChI Key>  (625) 
ZYOACJCWPUYMAG-UHFFFAOYSA-N

>  <PERCENTSP3>  (625) 
31.82

>  <Link>  (625) 
https://www.chemdiv.com/catalog/screening-compounds/compound-Y509-7636/

>  <MFCDNUMBER>  (625) 
MFCD01349375

>  <CLNUMBER>  (625) 
CL2451

>  <STEREO>  (625) 
ACHIRAL

>  <State>  (625) 
Solid

>  <Similarity score>  (625) 
0.20

$$$$
2-amino-6-methyl-4,5,6,7-tetrahydro-1-benzothiophene-3-carbonitrile
     RDKit          2D

 13 14  0  0  0  0  0  0  0  0999 V2000
    1.1928    0.2240    0.0000 C   0  0  0  0  0  0  0  0  0  0  0  0
    1.1928   -0.7084    0.0000 C   0  0  0  0  0  0  0  0  0  0  0  0
   -0.4331    0.2240    0.0000 C   0  0  0  0  0  0  0  0  0  0  0  0
   -0.4331   -0.7084    0.0000 C   0  0  0  0  0  0  0  0  0  0  0  0
    0.3787   -1.1700    0.0000 S   0  0  0  0  0  0  0  0  0  0  0  0
    2.0543    0.7163    0.0000 C   0  0  0  0  0  0  0  0  0  0  0  0
    2.9181    1.2102    0.0000 N   0  0  0  0  0  0  0  0  0  0  0  0
   -1.2449    0.6761    0.0000 C   0  0  0  0  0  0  0  0  0  0  0  0
   -1.2449   -1.1700    0.0000 C   0  0  0  0  0  0  0  0  0  0  0  0
    2.0543   -1.2102    0.0000 N   0  0  0  0  0  0  0  0  0  0  0  0
   -2.0567    0.2240    0.0000 C   0  0  0  0  0  0  0  0  0  0  0  0
   -2.0567   -0.7084    0.0000 C   0  0  0  0  0  0  0  0  0  0  0  0
   -2.9181   -1.2102    0.0000 C   0  0  0  0  0  0  0  0  0  0  0  0
  1  2  2  0
  1  3  1  0
  3  4  2  0
  4  5  1  0
  2  5  1  0
  1  6  1  0
  6  7  3  0
  3  8  1  0
  4  9  1  0
  9 12  1  0
  2 10  1  0
  8 11  1  0
 11 12  1  0
 12 13  1  0
M  END
>  <IDNUMBER>  (626) 
8002-2657

>  <available>  (626) 
19

>  <H_acceptor>  (626) 
1

>  <H_donor>  (626) 
2

>  <B_rotN>  (626) 
1

>  <N_O>  (626) 
2

>  <logP>  (626) 
2.5802

>  <logD>  (626) 
2.5802

>  <logSw>  (626) 
-2.7257

>  <PSA>  (626) 
38.492

>  <pKa_ma>  (626) 
15.9936

>  <pKa_mb>  (626) 
-2.1439

>  <N_Chirals>  (626) 
1

>  <Name>  (626) 
2-amino-6-methyl-4,5,6,7-tetrahydro-1-benzothiophene-3-carbonitrile

>  <Smile>  (626) 
CC(CC1)Cc2c1c(C#N)c(N)s2

>  <Color>  (626) 
NOT COLORED

>  <Collection>  (626) 
DC

>  <InChI>  (626) 
InChI=1S/C10H12N2S/c1-6-2-3-7-8(5-11)10(12)13-9(7)4-6/h6H,2-4,12H2,1H3/t6-/m1/s1

>  <InChI Key>  (626) 
VDMBPDMXBJUYMB-ZCFIWIBFSA-N

>  <PERCENTSP3>  (626) 
50

>  <Link>  (626) 
https://www.chemdiv.com/catalog/screening-compounds/compound-8002-2657/

>  <MFCDNUMBER>  (626) 
MFCD00128282

>  <STEREO>  (626) 
RACEMIC MIXTURE

>  <State>  (626) 
Solid

>  <Similarity score>  (626) 
0.20

$$$$
2-amino-7-methoxy-4,5-dihydronaphtho[2,1-b]thiophene-1-carbonitrile
     RDKit          2D

 18 20  0  0  0  0  0  0  0  0999 V2000
    1.8553    0.0355    0.0000 C   0  0  0  0  0  0  0  0  0  0  0  0
    0.9640   -0.4268    0.0000 C   0  0  0  0  0  0  0  0  0  0  0  0
    2.5632   -0.6642    0.0000 C   0  0  0  0  0  0  0  0  0  0  0  0
    1.1348   -1.4180    0.0000 C   0  0  0  0  0  0  0  0  0  0  0  0
    2.1426   -1.5428    0.0000 S   0  0  0  0  0  0  0  0  0  0  0  0
    0.0439   -0.1103    0.0000 C   0  0  0  0  0  0  0  0  0  0  0  0
    1.9802    1.0349    0.0000 C   0  0  0  0  0  0  0  0  0  0  0  0
   -0.7267   -0.7559    0.0000 C   0  0  0  0  0  0  0  0  0  0  0  0
    2.1176    2.0550    0.0000 N   0  0  0  0  0  0  0  0  0  0  0  0
   -0.1270    0.8724    0.0000 C   0  0  0  0  0  0  0  0  0  0  0  0
    0.3645   -2.0550    0.0000 C   0  0  0  0  0  0  0  0  0  0  0  0
   -1.6637   -0.4102    0.0000 C   0  0  0  0  0  0  0  0  0  0  0  0
   -0.5558   -1.7178    0.0000 C   0  0  0  0  0  0  0  0  0  0  0  0
    3.5709   -0.4976    0.0000 N   0  0  0  0  0  0  0  0  0  0  0  0
   -1.8426    0.5644    0.0000 C   0  0  0  0  0  0  0  0  0  0  0  0
   -1.0556    1.2097    0.0000 C   0  0  0  0  0  0  0  0  0  0  0  0
   -2.8088    0.9099    0.0000 O   0  0  0  0  0  0  0  0  0  0  0  0
   -3.5709    0.2728    0.0000 C   0  0  0  0  0  0  0  0  0  0  0  0
  1  2  1  0
  1  3  2  0
  2  4  2  0
  4  5  1  0
  3  5  1  0
  2  6  1  0
  1  7  1  0
  6  8  1  0
  7  9  3  0
  6 10  2  0
  4 11  1  0
  8 12  2  0
 12 15  1  0
  8 13  1  0
 11 13  1  0
  3 14  1  0
 15 16  2  0
 10 16  1  0
 15 17  1  0
 17 18  1  0
M  END
>  <IDNUMBER>  (627) 
Y203-3906

>  <available>  (627) 
14

>  <H_acceptor>  (627) 
2

>  <H_donor>  (627) 
2

>  <B_rotN>  (627) 
2

>  <N_O>  (627) 
3

>  <logP>  (627) 
3.1388

>  <logD>  (627) 
3.1388

>  <logSw>  (627) 
-3.3986

>  <PSA>  (627) 
45.764

>  <pKa_ma>  (627) 
19.2967

>  <pKa_mb>  (627) 
-4.5006

>  <N_Chirals>  (627) 
0

>  <Name>  (627) 
2-amino-7-methoxy-4,5-dihydronaphtho[2,1-b]thiophene-1-carbonitrile

>  <Smile>  (627) 
COc(cc1)cc(CC2)c1-c1c2sc(N)c1C#N

>  <Color>  (627) 
BROWN

>  <Collection>  (627) 
DC

>  <InChI>  (627) 
InChI=1S/C14H12N2OS/c1-17-9-3-4-10-8(6-9)2-5-12-13(10)11(7-15)14(16)18-12/h3-4,6H,2,5,16H2,1H3

>  <InChI Key>  (627) 
DARFGQSXUDRHIP-UHFFFAOYSA-N

>  <PERCENTSP3>  (627) 
21.43

>  <Link>  (627) 
https://www.chemdiv.com/catalog/screening-compounds/compound-Y203-3906/

>  <MFCDNUMBER>  (627) 
MFCD02853930

>  <STEREO>  (627) 
ACHIRAL

>  <State>  (627) 
Solid

>  <Similarity score>  (627) 
0.20

$$$$
N-(6-tert-butyl-3-cyano-4,5,6,7-tetrahydro-1-benzothiophen-2-yl)-2-(4-ethylpheno
     RDKit          2D

 29 31  0  0  0  0  0  0  0  0999 V2000
    1.2331   -0.4104    0.0000 C   0  0  0  0  0  0  0  0  0  0  0  0
    1.8705    0.3977    0.0000 C   0  0  0  0  0  0  0  0  0  0  0  0
    2.8036   -0.9351    0.0000 C   0  0  0  0  0  0  0  0  0  0  0  0
    2.8036    0.0605    0.0000 C   0  0  0  0  0  0  0  0  0  0  0  0
    1.8080   -1.2228    0.0000 S   0  0  0  0  0  0  0  0  0  0  0  0
    0.2583   -0.3853    0.0000 N   0  0  0  0  0  0  0  0  0  0  0  0
   -0.2624   -1.2599    0.0000 C   0  0  0  0  0  0  0  0  0  0  0  0
    1.6330    1.3477    0.0000 C   0  0  0  0  0  0  0  0  0  0  0  0
    3.6660   -1.4476    0.0000 C   0  0  0  0  0  0  0  0  0  0  0  0
    1.3955    2.2974    0.0000 N   0  0  0  0  0  0  0  0  0  0  0  0
    3.6660    0.5603    0.0000 C   0  0  0  0  0  0  0  0  0  0  0  0
    4.5409   -0.9478    0.0000 C   0  0  0  0  0  0  0  0  0  0  0  0
   -1.2623   -1.2599    0.0000 C   0  0  0  0  0  0  0  0  0  0  0  0
   -1.7621   -0.3853    0.0000 O   0  0  0  0  0  0  0  0  0  0  0  0
    5.3865   -1.4352    0.0000 C   0  0  0  0  0  0  0  0  0  0  0  0
    0.2583   -2.1348    0.0000 O   0  0  0  0  0  0  0  0  0  0  0  0
    4.5409    0.0605    0.0000 C   0  0  0  0  0  0  0  0  0  0  0  0
   -2.7577   -0.3853    0.0000 C   0  0  0  0  0  0  0  0  0  0  0  0
   -4.7532   -0.3853    0.0000 C   0  0  0  0  0  0  0  0  0  0  0  0
   -3.2576   -1.2599    0.0000 C   0  0  0  0  0  0  0  0  0  0  0  0
   -3.2576    0.4855    0.0000 C   0  0  0  0  0  0  0  0  0  0  0  0
   -4.2575    0.4855    0.0000 C   0  0  0  0  0  0  0  0  0  0  0  0
   -4.2575   -1.2599    0.0000 C   0  0  0  0  0  0  0  0  0  0  0  0
    6.2238   -1.9224    0.0000 C   0  0  0  0  0  0  0  0  0  0  0  0
    5.8864   -0.5728    0.0000 C   0  0  0  0  0  0  0  0  0  0  0  0
    4.8908   -2.2974    0.0000 C   0  0  0  0  0  0  0  0  0  0  0  0
   -1.7621   -2.1348    0.0000 C   0  0  0  0  0  0  0  0  0  0  0  0
   -5.7531   -0.4104    0.0000 C   0  0  0  0  0  0  0  0  0  0  0  0
   -6.2238   -1.2852    0.0000 C   0  0  0  0  0  0  0  0  0  0  0  0
  1  2  2  0
  3  5  1  0
  3  4  2  0
  2  4  1  0
  1  5  1  0
  1  6  1  0
  6  7  1  0
  2  8  1  0
  3  9  1  0
  8 10  3  0
  4 11  1  0
  9 12  1  0
  7 13  1  0
 13 14  1  0
 12 15  1  0
  7 16  2  0
 11 17  1  0
 12 17  1  0
 14 18  1  0
 19 22  2  0
 19 23  1  0
 18 20  1  0
 18 21  2  0
 21 22  1  0
 20 23  2  0
 15 24  1  0
 15 25  1  0
 15 26  1  0
 13 27  1  0
 19 28  1  0
 28 29  1  0
M  END
>  <IDNUMBER>  (628) 
Y202-9979

>  <available>  (628) 
19

>  <H_acceptor>  (628) 
4

>  <H_donor>  (628) 
1

>  <B_rotN>  (628) 
8

>  <N_O>  (628) 
4

>  <logP>  (628) 
6.4913

>  <logD>  (628) 
5.0733

>  <logSw>  (628) 
-5.6398

>  <PSA>  (628) 
46.89

>  <pKa_ma>  (628) 
5.9989

>  <pKa_mb>  (628) 
-4.9316

>  <N_Chirals>  (628) 
2

>  <Name>  (628) 
N-(6-tert-butyl-3-cyano-4,5,6,7-tetrahydro-1-benzothiophen-2-yl)-2-(4-ethylphenoxy)propanamide

>  <Smile>  (628) 
CCc(cc1)ccc1OC(C)C(Nc(sc(C1)c2CCC1C(C)(C)C)c2C#N)=O

>  <Color>  (628) 
NOT COLORED

>  <Collection>  (628) 
DC

>  <InChI>  (628) 
InChI=1S/C24H30N2O2S/c1-6-16-7-10-18(11-8-16)28-15(2)22(27)26-23-20(14-25)19-12-9-17(24(3,4)5)13-21(19)29-23/h7-8,10-11,15,17H,6,9,12-13H2,1-5H3,(H,26,27)

>  <InChI Key>  (628) 
PKKSFPGCVYGOKM-UHFFFAOYSA-N

>  <PERCENTSP3>  (628) 
50

>  <Link>  (628) 
https://www.chemdiv.com/catalog/screening-compounds/compound-Y202-9979/

>  <MFCDNUMBER>  (628) 
MFCD03944545

>  <STEREO>  (628) 
MIXTURE OF STEREOISOMERS

>  <State>  (628) 
Solid

>  <Similarity score>  (628) 
0.19

$$$$
4-[3-(2-chlorophenyl)-1,2,4-oxadiazol-5-yl]-N-(3-cyano-6-methyl-4,5,6,7-tetrahyd
     RDKit          2D

 30 33  0  0  0  0  0  0  0  0999 V2000
    1.7822    2.0654    0.0000 C   0  0  0  0  0  0  0  0  0  0  0  0
    1.9947    1.0661    0.0000 C   0  0  0  0  0  0  0  0  0  0  0  0
   -2.9272   -1.7074    0.0000 C   0  0  0  0  0  0  0  0  0  0  0  0
    2.9691    0.9660    0.0000 C   0  0  0  0  0  0  0  0  0  0  0  0
    3.3813    1.8906    0.0000 C   0  0  0  0  0  0  0  0  0  0  0  0
   -2.3151   -0.9203    0.0000 N   0  0  0  0  0  0  0  0  0  0  0  0
    2.6442    2.5401    0.0000 S   0  0  0  0  0  0  0  0  0  0  0  0
   -2.3567   -2.5401    0.0000 N   0  0  0  0  0  0  0  0  0  0  0  0
   -3.9394   -1.6907    0.0000 C   0  0  0  0  0  0  0  0  0  0  0  0
    0.8580    2.4652    0.0000 N   0  0  0  0  0  0  0  0  0  0  0  0
    1.3160    0.3165    0.0000 C   0  0  0  0  0  0  0  0  0  0  0  0
   -1.3701   -1.2535    0.0000 C   0  0  0  0  0  0  0  0  0  0  0  0
   -1.4032   -2.2653    0.0000 O   0  0  0  0  0  0  0  0  0  0  0  0
    0.6330   -0.4290    0.0000 N   0  0  0  0  0  0  0  0  0  0  0  0
    3.5437    0.1540    0.0000 C   0  0  0  0  0  0  0  0  0  0  0  0
    0.0584    1.8906    0.0000 C   0  0  0  0  0  0  0  0  0  0  0  0
    4.3806    1.9780    0.0000 C   0  0  0  0  0  0  0  0  0  0  0  0
   -4.4180   -0.8039    0.0000 C   0  0  0  0  0  0  0  0  0  0  0  0
   -0.8284    2.2777    0.0000 O   0  0  0  0  0  0  0  0  0  0  0  0
    4.5389    0.2414    0.0000 C   0  0  0  0  0  0  0  0  0  0  0  0
   -3.9018    0.0459    0.0000 Cl  0  0  0  0  0  0  0  0  0  0  0  0
    4.9513    1.1575    0.0000 C   0  0  0  0  0  0  0  0  0  0  0  0
   -4.4638   -2.5401    0.0000 C   0  0  0  0  0  0  0  0  0  0  0  0
   -0.5580   -0.6705    0.0000 C   0  0  0  0  0  0  0  0  0  0  0  0
    0.1666    0.9160    0.0000 C   0  0  0  0  0  0  0  0  0  0  0  0
   -0.6454    0.3289    0.0000 C   0  0  0  0  0  0  0  0  0  0  0  0
   -5.4300   -0.7829    0.0000 C   0  0  0  0  0  0  0  0  0  0  0  0
    5.9504    1.2535    0.0000 C   0  0  0  0  0  0  0  0  0  0  0  0
   -5.4675   -2.5193    0.0000 C   0  0  0  0  0  0  0  0  0  0  0  0
   -5.9504   -1.6282    0.0000 C   0  0  0  0  0  0  0  0  0  0  0  0
  1  2  2  0
  3  6  1  0
  2  4  1  0
  5  7  1  0
  4  5  2  0
  6 12  2  0
  1  7  1  0
  8 13  1  0
  3  8  2  0
  3  9  1  0
  1 10  1  0
  2 11  1  0
 12 24  1  0
 12 13  1  0
 11 14  3  0
  4 15  1  0
 10 16  1  0
  5 17  1  0
  9 18  1  0
 16 19  2  0
 15 20  1  0
 18 21  1  0
 17 22  1  0
 20 22  1  0
  9 23  2  0
 24 26  1  0
 16 25  1  0
 25 26  1  0
 18 27  2  0
 27 30  1  0
 22 28  1  0
 23 29  1  0
 29 30  2  0
M  END
>  <IDNUMBER>  (629) 
D321-0300

>  <available>  (629) 
275

>  <H_acceptor>  (629) 
6

>  <H_donor>  (629) 
1

>  <B_rotN>  (629) 
8

>  <N_O>  (629) 
6

>  <logP>  (629) 
5.0503

>  <logD>  (629) 
3.7371

>  <logSw>  (629) 
-5.1567

>  <PSA>  (629) 
71.23

>  <pKa_ma>  (629) 
6.1085

>  <pKa_mb>  (629) 
-3.8515

>  <N_Chirals>  (629) 
1

>  <Name>  (629) 
4-[3-(2-chlorophenyl)-1,2,4-oxadiazol-5-yl]-N-(3-cyano-6-methyl-4,5,6,7-tetrahydro-1-benzothiophen-2-yl)butanamide

>  <Smile>  (629) 
CC(CC1)Cc2c1c(C#N)c(NC(CCCc1nc(-c(cccc3)c3Cl)no1)=O)s2

>  <Color>  (629) 
BROWN

>  <Collection>  (629) 
DC

>  <InChI>  (629) 
InChI=1S/C22H21ClN4O2S/c1-13-9-10-14-16(12-24)22(30-18(14)11-13)25-19(28)7-4-8-20-26-21(27-29-20)15-5-2-3-6-17(15)23/h2-3,5-6,13H,4,7-11H2,1H3,(H,25,28)/t13-/m1/s1

>  <InChI Key>  (629) 
JEIZBYACTGUTQR-CYBMUJFWSA-N

>  <PERCENTSP3>  (629) 
36.4

>  <Link>  (629) 
https://www.chemdiv.com/catalog/screening-compounds/compound-D321-0300/

>  <MFCDNUMBER>  (629) 
MFCD09764499

>  <CLNUMBER>  (629) 
CL5000

>  <STEREO>  (629) 
RACEMIC MIXTURE

>  <State>  (629) 
Solid

>  <Similarity score>  (629) 
0.19

$$$$
7-tert-butyl-2-(3,6-dimethyl[1,2]oxazolo[5,4-b]pyridin-4-yl)-5,6,7,8-tetrahydro[
     RDKit          2D

 29 33  0  0  0  0  0  0  0  0999 V2000
   -0.0646    0.2354    0.0000 C   0  0  0  0  0  0  0  0  0  0  0  0
   -0.0646    1.2401    0.0000 C   0  0  0  0  0  0  0  0  0  0  0  0
    1.6650    0.2354    0.0000 C   0  0  0  0  0  0  0  0  0  0  0  0
    0.8024   -0.2563    0.0000 N   0  0  0  0  0  0  0  0  0  0  0  0
    0.8024    1.7360    0.0000 C   0  0  0  0  0  0  0  0  0  0  0  0
    1.6650    1.2401    0.0000 N   0  0  0  0  0  0  0  0  0  0  0  0
   -1.6027    0.7398    0.0000 C   0  0  0  0  0  0  0  0  0  0  0  0
   -1.0150    1.5486    0.0000 C   0  0  0  0  0  0  0  0  0  0  0  0
    3.3949    0.2354    0.0000 C   0  0  0  0  0  0  0  0  0  0  0  0
    4.2660   -0.2563    0.0000 C   0  0  0  0  0  0  0  0  0  0  0  0
    2.5321   -0.2563    0.0000 C   0  0  0  0  0  0  0  0  0  0  0  0
   -1.0191   -0.0689    0.0000 S   0  0  0  0  0  0  0  0  0  0  0  0
    4.6036    1.3191    0.0000 N   0  0  0  0  0  0  0  0  0  0  0  0
    5.0080    0.4064    0.0000 O   0  0  0  0  0  0  0  0  0  0  0  0
    4.2660   -1.2609    0.0000 N   0  0  0  0  0  0  0  0  0  0  0  0
    3.6074    1.2151    0.0000 C   0  0  0  0  0  0  0  0  0  0  0  0
   -2.5988    0.8482    0.0000 C   0  0  0  0  0  0  0  0  0  0  0  0
   -1.4191    2.4655    0.0000 C   0  0  0  0  0  0  0  0  0  0  0  0
   -3.0071    1.7651    0.0000 C   0  0  0  0  0  0  0  0  0  0  0  0
    2.5321   -1.2609    0.0000 C   0  0  0  0  0  0  0  0  0  0  0  0
    0.8024    2.7404    0.0000 O   0  0  0  0  0  0  0  0  0  0  0  0
    3.3949   -1.7609    0.0000 C   0  0  0  0  0  0  0  0  0  0  0  0
   -4.0076    1.7651    0.0000 C   0  0  0  0  0  0  0  0  0  0  0  0
   -2.4154    2.5696    0.0000 C   0  0  0  0  0  0  0  0  0  0  0  0
    3.1073    2.0819    0.0000 C   0  0  0  0  0  0  0  0  0  0  0  0
   -4.0076    0.7650    0.0000 C   0  0  0  0  0  0  0  0  0  0  0  0
   -4.0076    2.7614    0.0000 C   0  0  0  0  0  0  0  0  0  0  0  0
   -5.0080    1.7651    0.0000 C   0  0  0  0  0  0  0  0  0  0  0  0
    3.3949   -2.7614    0.0000 C   0  0  0  0  0  0  0  0  0  0  0  0
  1  2  2  0
  3  4  2  0
  1  4  1  0
  2  5  1  0
  3  6  1  0
  5  6  1  0
  7 12  1  0
  2  8  1  0
  7  8  2  0
  9 11  1  0
  9 10  2  0
  3 11  1  0
  1 12  1  0
 13 16  2  0
 10 14  1  0
 13 14  1  0
 15 22  2  0
 10 15  1  0
  9 16  1  0
  7 17  1  0
  8 18  1  0
 17 19  1  0
 11 20  2  0
  5 21  2  0
 20 22  1  0
 19 23  1  0
 18 24  1  0
 19 24  1  0
 16 25  1  0
 23 26  1  0
 23 27  1  0
 23 28  1  0
 22 29  1  0
M  END
>  <IDNUMBER>  (630) 
Y501-3608

>  <available>  (630) 
23

>  <H_acceptor>  (630) 
6

>  <H_donor>  (630) 
1

>  <B_rotN>  (630) 
2

>  <N_O>  (630) 
6

>  <logP>  (630) 
4.7409

>  <logD>  (630) 
4.6602

>  <logSw>  (630) 
-4.7887

>  <PSA>  (630) 
65.315

>  <pKa_ma>  (630) 
8.0897

>  <pKa_mb>  (630) 
1.1496

>  <N_Chirals>  (630) 
1

>  <Name>  (630) 
7-tert-butyl-2-(3,6-dimethyl[1,2]oxazolo[5,4-b]pyridin-4-yl)-5,6,7,8-tetrahydro[1]benzothieno[2,3-d]pyrimidin-4(3H)-one

>  <Smile>  (630) 
CC(C)(C)C(CC1)Cc2c1c(C(NC(c1c(c(C)no3)c3nc(C)c1)=N1)=O)c1s2

>  <Color>  (630) 
BROWN

>  <Collection>  (630) 
DC

>  <InChI>  (630) 
InChI=1S/C22H24N4O2S/c1-10-8-14(16-11(2)26-28-20(16)23-10)18-24-19(27)17-13-7-6-12(22(3,4)5)9-15(13)29-21(17)25-18/h8,12H,6-7,9H2,1-5H3,(H,24,25,27)/t12-/m1/s1

>  <InChI Key>  (630) 
ATMBGSNAICLXOB-GFCCVEGCSA-N

>  <PERCENTSP3>  (630) 
45.46

>  <Link>  (630) 
https://www.chemdiv.com/catalog/screening-compounds/compound-Y501-3608/

>  <MFCDNUMBER>  (630) 
MFCD08555799

>  <STEREO>  (630) 
RACEMIC MIXTURE

>  <State>  (630) 
Solid

>  <Similarity score>  (630) 
0.19

$$$$
N-(3-cyano-5,6-dihydro-4H-cyclopenta[b]thiophen-2-yl)-3-phenyl-6-(thiophen-2-yl)
     RDKit          2D

 33 38  0  0  0  0  0  0  0  0999 V2000
    1.4084   -1.0333    0.0000 C   0  0  0  0  0  0  0  0  0  0  0  0
    1.7542   -1.9415    0.0000 C   0  0  0  0  0  0  0  0  0  0  0  0
   -1.1085    1.3211    0.0000 C   0  0  0  0  0  0  0  0  0  0  0  0
   -2.0833    1.5459    0.0000 C   0  0  0  0  0  0  0  0  0  0  0  0
   -0.8293    0.3667    0.0000 C   0  0  0  0  0  0  0  0  0  0  0  0
   -1.2541    2.9210    0.0000 N   0  0  0  0  0  0  0  0  0  0  0  0
    2.2334   -0.4083    0.0000 S   0  0  0  0  0  0  0  0  0  0  0  0
    2.7458   -1.9334    0.0000 C   0  0  0  0  0  0  0  0  0  0  0  0
   -0.6042    2.1709    0.0000 C   0  0  0  0  0  0  0  0  0  0  0  0
    0.4333   -0.8082    0.0000 N   0  0  0  0  0  0  0  0  0  0  0  0
    0.1457    0.1459    0.0000 C   0  0  0  0  0  0  0  0  0  0  0  0
    3.0585   -0.9916    0.0000 C   0  0  0  0  0  0  0  0  0  0  0  0
   -2.7667    0.8167    0.0000 N   0  0  0  0  0  0  0  0  0  0  0  0
   -2.1709    2.5335    0.0000 O   0  0  0  0  0  0  0  0  0  0  0  0
   -2.4666   -0.1333    0.0000 C   0  0  0  0  0  0  0  0  0  0  0  0
   -1.4959   -0.3583    0.0000 C   0  0  0  0  0  0  0  0  0  0  0  0
    1.1959   -2.7915    0.0000 C   0  0  0  0  0  0  0  0  0  0  0  0
   -3.1459   -0.8583    0.0000 C   0  0  0  0  0  0  0  0  0  0  0  0
    0.6416   -3.6042    0.0000 N   0  0  0  0  0  0  0  0  0  0  0  0
   -2.7542   -1.7708    0.0000 S   0  0  0  0  0  0  0  0  0  0  0  0
    0.8293    0.8792    0.0000 O   0  0  0  0  0  0  0  0  0  0  0  0
    0.3959    2.3167    0.0000 C   0  0  0  0  0  0  0  0  0  0  0  0
   -4.1417   -0.9457    0.0000 C   0  0  0  0  0  0  0  0  0  0  0  0
   -3.5084   -2.4333    0.0000 C   0  0  0  0  0  0  0  0  0  0  0  0
   -4.3667   -1.9166    0.0000 C   0  0  0  0  0  0  0  0  0  0  0  0
    3.5793   -2.5167    0.0000 C   0  0  0  0  0  0  0  0  0  0  0  0
    4.0710   -0.9791    0.0000 C   0  0  0  0  0  0  0  0  0  0  0  0
    4.3667   -1.9166    0.0000 C   0  0  0  0  0  0  0  0  0  0  0  0
    0.6209    3.3085    0.0000 C   0  0  0  0  0  0  0  0  0  0  0  0
    1.1418    1.6336    0.0000 C   0  0  0  0  0  0  0  0  0  0  0  0
    1.5917    3.6042    0.0000 C   0  0  0  0  0  0  0  0  0  0  0  0
    2.0959    1.9293    0.0000 C   0  0  0  0  0  0  0  0  0  0  0  0
    2.3209    2.9167    0.0000 C   0  0  0  0  0  0  0  0  0  0  0  0
  1  2  2  0
  3  5  1  0
  3  4  2  0
  4 13  1  0
  5 11  1  0
  6  9  2  0
  6 14  1  0
  1  7  1  0
  2  8  1  0
  8 12  2  0
  3  9  1  0
  1 10  1  0
 10 11  1  0
  7 12  1  0
 13 15  2  0
  4 14  1  0
 15 16  1  0
  5 16  2  0
  2 17  1  0
 15 18  1  0
 17 19  3  0
 18 20  1  0
 11 21  2  0
  9 22  1  0
 18 23  2  0
 20 24  1  0
 24 25  2  0
 23 25  1  0
  8 26  1  0
 26 28  1  0
 12 27  1  0
 27 28  1  0
 22 29  2  0
 22 30  1  0
 29 31  1  0
 30 32  2  0
 32 33  1  0
 31 33  2  0
M  END
>  <IDNUMBER>  (631) 
F018-3060

>  <available>  (631) 
1

>  <H_acceptor>  (631) 
6

>  <H_donor>  (631) 
1

>  <B_rotN>  (631) 
6

>  <N_O>  (631) 
6

>  <logP>  (631) 
5.8098

>  <logD>  (631) 
5.1874

>  <logSw>  (631) 
-6.1333

>  <PSA>  (631) 
71.93

>  <pKa_ma>  (631) 
6.896

>  <pKa_mb>  (631) 
-3.6716

>  <N_Chirals>  (631) 
0

>  <Name>  (631) 
N-(3-cyano-5,6-dihydro-4H-cyclopenta[b]thiophen-2-yl)-3-phenyl-6-(thiophen-2-yl)[1,2]oxazolo[5,4-b]pyridine-4-carboxamide

>  <Smile>  (631) 
N#Cc1c(NC(c2c(c(-c3ccccc3)no3)c3nc(-c3cccs3)c2)=O)sc2c1CCC2

>  <Color>  (631) 
BLACK

>  <Collection>  (631) 
DC

>  <InChI>  (631) 
InChI=1S/C25H16N4O2S2/c26-13-17-15-8-4-9-19(15)33-25(17)28-23(30)16-12-18(20-10-5-11-32-20)27-24-21(16)22(29-31-24)14-6-2-1-3-7-14/h1-3,5-7,10-12H,4,8-9H2,(H,28,30)

>  <InChI Key>  (631) 
GQMPWATWISUSFY-UHFFFAOYSA-N

>  <PERCENTSP3>  (631) 
12

>  <Link>  (631) 
https://www.chemdiv.com/catalog/screening-compounds/compound-F018-3060/

>  <MFCDNUMBER>  (631) 
MFCD08557424

>  <CLNUMBER>  (631) 
CL7490

>  <STEREO>  (631) 
ACHIRAL

>  <State>  (631) 
Solid

>  <Similarity score>  (631) 
0.19

$$$$
N-(3-cyano-4,5,6,7,8,9-hexahydrocycloocta[b]thiophen-2-yl)-5-methyl-3-phenyl-1,2
     RDKit          2D

 28 31  0  0  0  0  0  0  0  0999 V2000
   -1.2730   -0.6438    0.0000 C   0  0  0  0  0  0  0  0  0  0  0  0
   -2.2437   -0.5562    0.0000 C   0  0  0  0  0  0  0  0  0  0  0  0
    0.7771   -0.6352    0.0000 C   0  0  0  0  0  0  0  0  0  0  0  0
    0.2395   -1.5228    0.0000 C   0  0  0  0  0  0  0  0  0  0  0  0
    1.9729    0.3897    0.0000 N   0  0  0  0  0  0  0  0  0  0  0  0
   -0.8855    0.2813    0.0000 S   0  0  0  0  0  0  0  0  0  0  0  0
    1.7813   -0.5978    0.0000 C   0  0  0  0  0  0  0  0  0  0  0  0
   -0.7604   -1.5228    0.0000 N   0  0  0  0  0  0  0  0  0  0  0  0
   -2.4772    0.3937    0.0000 C   0  0  0  0  0  0  0  0  0  0  0  0
   -1.6563    0.9438    0.0000 C   0  0  0  0  0  0  0  0  0  0  0  0
    1.1188    0.8855    0.0000 O   0  0  0  0  0  0  0  0  0  0  0  0
    0.4062    0.2229    0.0000 C   0  0  0  0  0  0  0  0  0  0  0  0
   -2.9272   -1.3563    0.0000 C   0  0  0  0  0  0  0  0  0  0  0  0
   -3.5647   -2.1522    0.0000 N   0  0  0  0  0  0  0  0  0  0  0  0
    0.7147   -2.4062    0.0000 O   0  0  0  0  0  0  0  0  0  0  0  0
    2.4188   -1.3313    0.0000 C   0  0  0  0  0  0  0  0  0  0  0  0
   -3.4855    0.6522    0.0000 C   0  0  0  0  0  0  0  0  0  0  0  0
   -1.4104    1.9064    0.0000 C   0  0  0  0  0  0  0  0  0  0  0  0
   -0.5646    0.4605    0.0000 C   0  0  0  0  0  0  0  0  0  0  0  0
    2.1272   -2.2895    0.0000 C   0  0  0  0  0  0  0  0  0  0  0  0
    3.3896   -1.1687    0.0000 C   0  0  0  0  0  0  0  0  0  0  0  0
   -4.0397    1.5105    0.0000 C   0  0  0  0  0  0  0  0  0  0  0  0
   -1.9646    2.7772    0.0000 C   0  0  0  0  0  0  0  0  0  0  0  0
    2.7646   -3.0188    0.0000 C   0  0  0  0  0  0  0  0  0  0  0  0
    4.0397   -1.8812    0.0000 C   0  0  0  0  0  0  0  0  0  0  0  0
    3.7480   -2.8272    0.0000 C   0  0  0  0  0  0  0  0  0  0  0  0
   -3.8230    2.4813    0.0000 C   0  0  0  0  0  0  0  0  0  0  0  0
   -2.9355    3.0188    0.0000 C   0  0  0  0  0  0  0  0  0  0  0  0
  1  2  2  0
  3  4  1  0
  4  8  1  0
  5  7  2  0
  5 11  1  0
  1  6  1  0
  3  7  1  0
  1  8  1  0
  2  9  1  0
  9 10  2  0
  6 10  1  0
 11 12  1  0
  3 12  2  0
  2 13  1  0
 13 14  3  0
  4 15  2  0
  7 16  1  0
  9 17  1  0
 10 18  1  0
 12 19  1  0
 16 20  2  0
 16 21  1  0
 17 22  1  0
 18 23  1  0
 20 24  1  0
 24 26  2  0
 21 25  2  0
 25 26  1  0
 22 27  1  0
 23 28  1  0
 27 28  1  0
M  END
>  <IDNUMBER>  (632) 
Y503-0304

>  <available>  (632) 
21

>  <H_acceptor>  (632) 
5

>  <H_donor>  (632) 
1

>  <B_rotN>  (632) 
5

>  <N_O>  (632) 
5

>  <logP>  (632) 
4.9538

>  <logD>  (632) 
3.1345

>  <logSw>  (632) 
-4.7084

>  <PSA>  (632) 
62.392

>  <pKa_ma>  (632) 
5.5873

>  <pKa_mb>  (632) 
-6.2591

>  <N_Chirals>  (632) 
0

>  <Name>  (632) 
N-(3-cyano-4,5,6,7,8,9-hexahydrocycloocta[b]thiophen-2-yl)-5-methyl-3-phenyl-1,2-oxazole-4-carboxamide

>  <Smile>  (632) 
Cc1c(C(Nc(sc2c3CCCCCC2)c3C#N)=O)c(-c2ccccc2)no1

>  <Color>  (632) 
ORANGE

>  <Collection>  (632) 
DC

>  <InChI>  (632) 
InChI=1S/C22H21N3O2S/c1-14-19(20(25-27-14)15-9-5-4-6-10-15)21(26)24-22-17(13-23)16-11-7-2-3-8-12-18(16)28-22/h4-6,9-10H,2-3,7-8,11-12H2,1H3,(H,24,26)

>  <InChI Key>  (632) 
NXKOYVAULDCALT-UHFFFAOYSA-N

>  <PERCENTSP3>  (632) 
31.82

>  <Link>  (632) 
https://www.chemdiv.com/catalog/screening-compounds/compound-Y503-0304/

>  <MFCDNUMBER>  (632) 
MFCD01338205

>  <CLNUMBER>  (632) 
CL2451

>  <STEREO>  (632) 
ACHIRAL

>  <State>  (632) 
Solid

>  <Similarity score>  (632) 
0.19

$$$$
N-(3-cyano-5,6-dihydro-4H-cyclopenta[b]thiophen-2-yl)-5-methyl-4-[(4-nitrophenox
     RDKit          2D

 30 33  0  0  0  0  0  0  0  0999 V2000
    2.8232    0.0604    0.0000 C   0  0  0  0  0  0  0  0  0  0  0  0
    0.8104    1.7898    0.0000 C   0  0  0  0  0  0  0  0  0  0  0  0
    2.3858   -0.8187    0.0000 C   0  0  0  0  0  0  0  0  0  0  0  0
   -0.1731    1.9064    0.0000 C   0  0  0  0  0  0  0  0  0  0  0  0
    1.2273    2.6983    0.0000 N   0  0  0  0  0  0  0  0  0  0  0  0
    3.8401   -0.1188    0.0000 S   0  0  0  0  0  0  0  0  0  0  0  0
    1.3190    0.9231    0.0000 C   0  0  0  0  0  0  0  0  0  0  0  0
    3.0732   -1.5397    0.0000 C   0  0  0  0  0  0  0  0  0  0  0  0
    2.3274    0.9231    0.0000 N   0  0  0  0  0  0  0  0  0  0  0  0
    3.9734   -1.1230    0.0000 C   0  0  0  0  0  0  0  0  0  0  0  0
   -3.7235   -2.3898    0.0000 N   0  0  0  0  0  0  0  0  0  0  0  0
    0.4896    3.3733    0.0000 O   0  0  0  0  0  0  0  0  0  0  0  0
   -0.3730    2.8777    0.0000 C   0  0  0  0  0  0  0  0  0  0  0  0
    1.3897   -0.9814    0.0000 C   0  0  0  0  0  0  0  0  0  0  0  0
   -0.9314    1.2314    0.0000 C   0  0  0  0  0  0  0  0  0  0  0  0
    0.4188   -1.1355    0.0000 N   0  0  0  0  0  0  0  0  0  0  0  0
   -2.9776   -1.7272    0.0000 C   0  0  0  0  0  0  0  0  0  0  0  0
   -4.6694   -2.0731    0.0000 O   0  0  0  0  0  0  0  0  0  0  0  0
   -3.5235   -3.3733    0.0000 O   0  0  0  0  0  0  0  0  0  0  0  0
    0.8228    0.0604    0.0000 O   0  0  0  0  0  0  0  0  0  0  0  0
   -0.7273    0.2605    0.0000 O   0  0  0  0  0  0  0  0  0  0  0  0
   -2.0315   -2.0481    0.0000 C   0  0  0  0  0  0  0  0  0  0  0  0
   -3.1777   -0.7437    0.0000 C   0  0  0  0  0  0  0  0  0  0  0  0
   -1.4730   -0.4020    0.0000 C   0  0  0  0  0  0  0  0  0  0  0  0
    3.2150   -2.5315    0.0000 C   0  0  0  0  0  0  0  0  0  0  0  0
    4.6694   -1.8606    0.0000 C   0  0  0  0  0  0  0  0  0  0  0  0
   -2.4233   -0.0813    0.0000 C   0  0  0  0  0  0  0  0  0  0  0  0
   -1.2731   -1.3855    0.0000 C   0  0  0  0  0  0  0  0  0  0  0  0
   -1.2857    3.3026    0.0000 C   0  0  0  0  0  0  0  0  0  0  0  0
    4.1860   -2.7107    0.0000 C   0  0  0  0  0  0  0  0  0  0  0  0
  2  7  1  0
  1  3  2  0
  2  4  1  0
  2  5  2  0
  1  6  1  0
  7  9  1  0
  3  8  1  0
  8 10  2  0
  1  9  1  0
  6 10  1  0
 11 17  1  0
  5 12  1  0
 12 13  1  0
  4 13  2  0
  3 14  1  0
  4 15  1  0
 14 16  3  0
 17 22  1  0
 11 18  1  0
 11 19  2  0
  7 20  2  0
 15 21  1  0
 22 28  2  0
 23 27  1  0
 17 23  2  0
 21 24  1  0
  8 25  1  0
 25 30  1  0
 10 26  1  0
 24 27  2  0
 24 28  1  0
 13 29  1  0
 26 30  1  0
M  CHG  2  11   1  18  -1
M  END
>  <IDNUMBER>  (633) 
Y501-2467

>  <available>  (633) 
17

>  <H_acceptor>  (633) 
10

>  <H_donor>  (633) 
1

>  <B_rotN>  (633) 
8

>  <N_O>  (633) 
9

>  <logP>  (633) 
3.8492

>  <logD>  (633) 
1.3615

>  <logSw>  (633) 
-4.2784

>  <PSA>  (633) 
103.308

>  <pKa_ma>  (633) 
4.9137

>  <pKa_mb>  (633) 
-6.5152

>  <N_Chirals>  (633) 
0

>  <Name>  (633) 
N-(3-cyano-5,6-dihydro-4H-cyclopenta[b]thiophen-2-yl)-5-methyl-4-[(4-nitrophenoxy)methyl]-1,2-oxazole-3-carboxamide

>  <Smile>  (633) 
Cc1c(COc(cc2)ccc2[N+]([O-])=O)c(C(Nc(sc2c3CCC2)c3C#N)=O)no1

>  <Color>  (633) 
BROWN

>  <Collection>  (633) 
DC

>  <InChI>  (633) 
InChI=1S/C20H16N4O5S/c1-11-16(10-28-13-7-5-12(6-8-13)24(26)27)18(23-29-11)19(25)22-20-15(9-21)14-3-2-4-17(14)30-20/h5-8H,2-4,10H2,1H3,(H,22,25)

>  <InChI Key>  (633) 
BZKKAAWEHXQYMU-UHFFFAOYSA-N

>  <PERCENTSP3>  (633) 
25

>  <Link>  (633) 
https://www.chemdiv.com/catalog/screening-compounds/compound-Y501-2467/

>  <MFCDNUMBER>  (633) 
MFCD08557403

>  <STEREO>  (633) 
ACHIRAL

>  <State>  (633) 
Solid

>  <Similarity score>  (633) 
0.19

$$$$
N-(3-cyano-4,5,6,7-tetrahydro-1-benzothiophen-2-yl)-5-(2-methyl-2,3-dihydro-1-be
     RDKit          2D

 30 34  0  0  0  0  0  0  0  0999 V2000
   -1.9170    1.4959    0.0000 C   0  0  0  0  0  0  0  0  0  0  0  0
   -2.5045    2.3002    0.0000 C   0  0  0  0  0  0  0  0  0  0  0  0
    0.5708    0.6083    0.0000 C   0  0  0  0  0  0  0  0  0  0  0  0
   -2.5087    0.6833    0.0000 S   0  0  0  0  0  0  0  0  0  0  0  0
   -3.4547    1.9961    0.0000 C   0  0  0  0  0  0  0  0  0  0  0  0
    1.1585    1.4084    0.0000 N   0  0  0  0  0  0  0  0  0  0  0  0
   -0.9168    1.4834    0.0000 N   0  0  0  0  0  0  0  0  0  0  0  0
    1.1585   -0.2043    0.0000 C   0  0  0  0  0  0  0  0  0  0  0  0
   -3.4588    0.9960    0.0000 C   0  0  0  0  0  0  0  0  0  0  0  0
   -0.4168    0.6125    0.0000 C   0  0  0  0  0  0  0  0  0  0  0  0
    2.1086    0.0875    0.0000 C   0  0  0  0  0  0  0  0  0  0  0  0
    2.1086    1.0876    0.0000 O   0  0  0  0  0  0  0  0  0  0  0  0
   -2.1920    3.2504    0.0000 C   0  0  0  0  0  0  0  0  0  0  0  0
    3.5964   -2.0794    0.0000 C   0  0  0  0  0  0  0  0  0  0  0  0
    5.1924   -2.4295    0.0000 O   0  0  0  0  0  0  0  0  0  0  0  0
    4.5216   -1.6877    0.0000 C   0  0  0  0  0  0  0  0  0  0  0  0
    2.9171   -0.5041    0.0000 C   0  0  0  0  0  0  0  0  0  0  0  0
   -1.9337    4.2172    0.0000 N   0  0  0  0  0  0  0  0  0  0  0  0
    2.7964   -1.4920    0.0000 C   0  0  0  0  0  0  0  0  0  0  0  0
    3.6965   -3.0878    0.0000 C   0  0  0  0  0  0  0  0  0  0  0  0
   -0.9293   -0.2500    0.0000 O   0  0  0  0  0  0  0  0  0  0  0  0
    4.6840   -3.3046    0.0000 C   0  0  0  0  0  0  0  0  0  0  0  0
    4.6298   -0.6794    0.0000 C   0  0  0  0  0  0  0  0  0  0  0  0
    3.8172   -0.0957    0.0000 C   0  0  0  0  0  0  0  0  0  0  0  0
   -4.3090    2.5003    0.0000 C   0  0  0  0  0  0  0  0  0  0  0  0
   -4.3298    0.5084    0.0000 C   0  0  0  0  0  0  0  0  0  0  0  0
    5.0716   -4.2172    0.0000 C   0  0  0  0  0  0  0  0  0  0  0  0
   -5.1799    2.0169    0.0000 C   0  0  0  0  0  0  0  0  0  0  0  0
   -5.1924    1.0127    0.0000 C   0  0  0  0  0  0  0  0  0  0  0  0
   -0.4168    2.3460    0.0000 H   0  0  0  0  0  0  0  0  0  0  0  0
  1  2  2  0
  3 10  1  0
  1  4  1  0
  2  5  1  0
  3  6  2  0
  1  7  1  0
  3  8  1  0
  4  9  1  0
  5  9  2  0
  7 10  1  0
  8 11  2  0
 11 12  1  0
  6 12  1  0
  2 13  1  0
 14 19  1  0
 15 16  1  0
 16 23  1  0
 14 16  2  0
 11 17  1  0
 13 18  3  0
 17 19  2  0
 14 20  1  0
 10 21  2  0
 20 22  1  0
 15 22  1  0
 23 24  2  0
 17 24  1  0
  5 25  1  0
  9 26  1  0
 22 27  1  0
 25 28  1  0
 26 29  1  0
 28 29  1  0
  7 30  1  0
M  END
>  <IDNUMBER>  (634) 
D337-1093

>  <available>  (634) 
64

>  <H_acceptor>  (634) 
6

>  <H_donor>  (634) 
1

>  <B_rotN>  (634) 
5

>  <N_O>  (634) 
6

>  <logP>  (634) 
4.8655

>  <logD>  (634) 
3.5744

>  <logSw>  (634) 
-4.7257

>  <PSA>  (634) 
69.038

>  <pKa_ma>  (634) 
6.1318

>  <pKa_mb>  (634) 
-6.3269

>  <N_Chirals>  (634) 
1

>  <Name>  (634) 
N-(3-cyano-4,5,6,7-tetrahydro-1-benzothiophen-2-yl)-5-(2-methyl-2,3-dihydro-1-benzofuran-5-yl)-1,2-oxazole-3-carboxamide

>  <Smile>  (634) 
CC(C1)Oc(cc2)c1cc2-c1cc(C(Nc(sc2c3CCCC2)c3C#N)=O)no1

>  <Color>  (634) 
ORANGE

>  <Collection>  (634) 
DC

>  <InChI>  (634) 
InChI=1S/C22H19N3O3S/c1-12-8-14-9-13(6-7-18(14)27-12)19-10-17(25-28-19)21(26)24-22-16(11-23)15-4-2-3-5-20(15)29-22/h6-7,9-10,12H,2-5,8H2,1H3,(H,24,26)/t12-/m1/s1

>  <InChI Key>  (634) 
ZRFPTQSWEYXVAA-GFCCVEGCSA-N

>  <PERCENTSP3>  (634) 
31.8

>  <Link>  (634) 
https://www.chemdiv.com/catalog/screening-compounds/compound-D337-1093/

>  <MFCDNUMBER>  (634) 
MFCD08545738

>  <CLNUMBER>  (634) 
CL2028

>  <STEREO>  (634) 
RACEMIC MIXTURE

>  <State>  (634) 
Solid

>  <Similarity score>  (634) 
0.19

$$$$
N-(3-cyano-6-methyl-4,5,6,7-tetrahydro-1-benzothiophen-2-yl)-3-phenyl-6-(thiophe
     RDKit          2D

 35 40  0  0  0  0  0  0  0  0999 V2000
    0.7833   -1.0063    0.0000 C   0  0  0  0  0  0  0  0  0  0  0  0
    1.1084   -1.9688    0.0000 C   0  0  0  0  0  0  0  0  0  0  0  0
   -1.5166    1.5604    0.0000 C   0  0  0  0  0  0  0  0  0  0  0  0
   -2.4668    1.8687    0.0000 C   0  0  0  0  0  0  0  0  0  0  0  0
   -1.3167    0.5855    0.0000 C   0  0  0  0  0  0  0  0  0  0  0  0
    2.1083   -1.9521    0.0000 C   0  0  0  0  0  0  0  0  0  0  0  0
    2.4208   -1.0063    0.0000 C   0  0  0  0  0  0  0  0  0  0  0  0
    1.6042   -0.4062    0.0000 S   0  0  0  0  0  0  0  0  0  0  0  0
   -1.5207    3.1687    0.0000 N   0  0  0  0  0  0  0  0  0  0  0  0
   -0.9333    2.3606    0.0000 C   0  0  0  0  0  0  0  0  0  0  0  0
   -0.1583   -0.6939    0.0000 N   0  0  0  0  0  0  0  0  0  0  0  0
   -0.3668    0.2812    0.0000 C   0  0  0  0  0  0  0  0  0  0  0  0
   -3.2041    1.1979    0.0000 N   0  0  0  0  0  0  0  0  0  0  0  0
   -2.4668    2.8605    0.0000 O   0  0  0  0  0  0  0  0  0  0  0  0
   -2.9958    0.2229    0.0000 C   0  0  0  0  0  0  0  0  0  0  0  0
   -2.0458   -0.0770    0.0000 C   0  0  0  0  0  0  0  0  0  0  0  0
    0.5543   -2.7813    0.0000 C   0  0  0  0  0  0  0  0  0  0  0  0
   -3.7333   -0.4314    0.0000 C   0  0  0  0  0  0  0  0  0  0  0  0
   -0.0043   -3.5937    0.0000 N   0  0  0  0  0  0  0  0  0  0  0  0
    2.7542   -2.6938    0.0000 C   0  0  0  0  0  0  0  0  0  0  0  0
   -3.4291   -1.3813    0.0000 S   0  0  0  0  0  0  0  0  0  0  0  0
    3.4083   -0.7813    0.0000 C   0  0  0  0  0  0  0  0  0  0  0  0
    0.3791    0.9480    0.0000 O   0  0  0  0  0  0  0  0  0  0  0  0
    0.0709    2.4230    0.0000 C   0  0  0  0  0  0  0  0  0  0  0  0
   -4.7333   -0.4396    0.0000 C   0  0  0  0  0  0  0  0  0  0  0  0
   -4.2334   -1.9688    0.0000 C   0  0  0  0  0  0  0  0  0  0  0  0
   -5.0416   -1.3813    0.0000 C   0  0  0  0  0  0  0  0  0  0  0  0
    3.7541   -2.4937    0.0000 C   0  0  0  0  0  0  0  0  0  0  0  0
    4.0710   -1.5437    0.0000 C   0  0  0  0  0  0  0  0  0  0  0  0
    0.7585    1.6730    0.0000 C   0  0  0  0  0  0  0  0  0  0  0  0
    0.3835    3.3896    0.0000 C   0  0  0  0  0  0  0  0  0  0  0  0
    5.0416   -1.3813    0.0000 C   0  0  0  0  0  0  0  0  0  0  0  0
    1.3790    3.5937    0.0000 C   0  0  0  0  0  0  0  0  0  0  0  0
    1.7417    1.8813    0.0000 C   0  0  0  0  0  0  0  0  0  0  0  0
    2.0458    2.8479    0.0000 C   0  0  0  0  0  0  0  0  0  0  0  0
  1  2  2  0
  3  5  1  0
  3  4  2  0
  5 12  1  0
  2  6  1  0
  7  8  1  0
  6  7  2  0
  1  8  1  0
  9 10  2  0
  3 10  1  0
  1 11  1  0
 11 12  1  0
 13 15  2  0
  4 13  1  0
  4 14  1  0
  9 14  1  0
 15 16  1  0
  5 16  2  0
  2 17  1  0
 15 18  1  0
 17 19  3  0
  6 20  1  0
 18 21  1  0
  7 22  1  0
 12 23  2  0
 10 24  1  0
 18 25  2  0
 21 26  1  0
 25 27  1  0
 26 27  2  0
 20 28  1  0
 22 29  1  0
 28 29  1  0
 24 30  1  0
 24 31  2  0
 29 32  1  0
 31 33  1  0
 30 34  2  0
 33 35  2  0
 34 35  1  0
M  END
>  <IDNUMBER>  (635) 
Y509-2638

>  <available>  (635) 
11

>  <H_acceptor>  (635) 
6

>  <H_donor>  (635) 
1

>  <B_rotN>  (635) 
6

>  <N_O>  (635) 
6

>  <logP>  (635) 
6.654

>  <logD>  (635) 
6.0473

>  <logSw>  (635) 
-5.9755

>  <PSA>  (635) 
71.564

>  <pKa_ma>  (635) 
6.9166

>  <pKa_mb>  (635) 
-3.6716

>  <N_Chirals>  (635) 
1

>  <Name>  (635) 
N-(3-cyano-6-methyl-4,5,6,7-tetrahydro-1-benzothiophen-2-yl)-3-phenyl-6-(thiophen-2-yl)[1,2]oxazolo[5,4-b]pyridine-4-carboxamide

>  <Smile>  (635) 
c1(c(c2c(s1)CC(CC2)C)C#N)NC(c1c2c(nc(c1)c1sccc1)onc2c1ccccc1)=O

>  <Color>  (635) 
BROWN

>  <Collection>  (635) 
DC

>  <InChI>  (635) 
InChI=1S/C27H20N4O2S2/c1-15-9-10-17-19(14-28)27(35-22(17)12-15)30-25(32)18-13-20(21-8-5-11-34-21)29-26-23(18)24(31-33-26)16-6-3-2-4-7-16/h2-8,11,13,15H,9-10,12H2,1H3,(H,30,32)/t15-/m1/s1

>  <InChI Key>  (635) 
VIEYFJYZLGSPQI-OAHLLOKOSA-N

>  <PERCENTSP3>  (635) 
18.5

>  <Link>  (635) 
https://www.chemdiv.com/catalog/screening-compounds/compound-Y509-2638/

>  <MFCDNUMBER>  (635) 
MFCD08557610

>  <CLNUMBER>  (635) 
CL7490

>  <STEREO>  (635) 
RACEMIC MIXTURE

>  <State>  (635) 
Solid

>  <Similarity score>  (635) 
0.19

$$$$
N-(3-cyano-4,5,6,7-tetrahydro-1-benzothiophen-2-yl)-2-[(5-methoxy-1H-benzimidazo
     RDKit          2D

 27 30  0  0  0  0  0  0  0  0999 V2000
    2.3969   -1.2795    0.0000 C   0  0  0  0  0  0  0  0  0  0  0  0
    3.0304   -0.4710    0.0000 C   0  0  0  0  0  0  0  0  0  0  0  0
    2.9220   -2.0843    0.0000 S   0  0  0  0  0  0  0  0  0  0  0  0
    3.9476   -0.8337    0.0000 C   0  0  0  0  0  0  0  0  0  0  0  0
   -1.6172    0.4544    0.0000 C   0  0  0  0  0  0  0  0  0  0  0  0
   -2.1798    1.2672    0.0000 N   0  0  0  0  0  0  0  0  0  0  0  0
    3.8723   -1.8465    0.0000 C   0  0  0  0  0  0  0  0  0  0  0  0
   -2.1798   -0.3459    0.0000 N   0  0  0  0  0  0  0  0  0  0  0  0
    1.3965   -1.2795    0.0000 N   0  0  0  0  0  0  0  0  0  0  0  0
   -3.1219    0.9421    0.0000 C   0  0  0  0  0  0  0  0  0  0  0  0
    2.7970    0.4961    0.0000 C   0  0  0  0  0  0  0  0  0  0  0  0
   -3.1219   -0.0708    0.0000 C   0  0  0  0  0  0  0  0  0  0  0  0
    2.5720    1.4673    0.0000 N   0  0  0  0  0  0  0  0  0  0  0  0
    0.9169   -0.4335    0.0000 C   0  0  0  0  0  0  0  0  0  0  0  0
   -3.9807    1.4673    0.0000 C   0  0  0  0  0  0  0  0  0  0  0  0
   -0.5919    0.4544    0.0000 S   0  0  0  0  0  0  0  0  0  0  0  0
    1.3965    0.4544    0.0000 O   0  0  0  0  0  0  0  0  0  0  0  0
   -3.9807   -0.5542    0.0000 C   0  0  0  0  0  0  0  0  0  0  0  0
   -0.1041   -0.4335    0.0000 C   0  0  0  0  0  0  0  0  0  0  0  0
   -4.8435    0.9421    0.0000 C   0  0  0  0  0  0  0  0  0  0  0  0
   -4.8435   -0.0708    0.0000 C   0  0  0  0  0  0  0  0  0  0  0  0
    4.8602   -0.4335    0.0000 C   0  0  0  0  0  0  0  0  0  0  0  0
    4.7103   -2.4218    0.0000 C   0  0  0  0  0  0  0  0  0  0  0  0
   -5.7064    1.4298    0.0000 O   0  0  0  0  0  0  0  0  0  0  0  0
   -5.7064    2.4218    0.0000 C   0  0  0  0  0  0  0  0  0  0  0  0
    5.7064   -0.9712    0.0000 C   0  0  0  0  0  0  0  0  0  0  0  0
    5.6358   -1.9799    0.0000 C   0  0  0  0  0  0  0  0  0  0  0  0
  1  2  2  0
  1  3  1  0
  2  4  1  0
  4  7  2  0
  5 16  1  0
  5  6  2  0
  3  7  1  0
  5  8  1  0
  1  9  1  0
  6 10  1  0
 10 12  2  0
  2 11  1  0
  8 12  1  0
 11 13  3  0
  9 14  1  0
 10 15  1  0
 16 19  1  0
 14 17  2  0
 12 18  1  0
 14 19  1  0
 15 20  2  0
 20 21  1  0
 18 21  2  0
  4 22  1  0
  7 23  1  0
 20 24  1  0
 24 25  1  0
 22 26  1  0
 26 27  1  0
 23 27  1  0
M  END
>  <IDNUMBER>  (636) 
Y505-4845

>  <available>  (636) 
26

>  <H_acceptor>  (636) 
6

>  <H_donor>  (636) 
2

>  <B_rotN>  (636) 
7

>  <N_O>  (636) 
6

>  <logP>  (636) 
3.5256

>  <logD>  (636) 
2.4929

>  <logSw>  (636) 
-4.2098

>  <PSA>  (636) 
65.444

>  <pKa_ma>  (636) 
6.4095

>  <pKa_mb>  (636) 
4.2873

>  <N_Chirals>  (636) 
0

>  <Name>  (636) 
N-(3-cyano-4,5,6,7-tetrahydro-1-benzothiophen-2-yl)-2-[(5-methoxy-1H-benzimidazol-2-yl)sulfanyl]acetamide

>  <Smile>  (636) 
c1(c(c2c(s1)CCCC2)C#N)NC(=O)CSc1nc2c([nH]1)ccc(c2)OC

>  <Color>  (636) 
ORANGE

>  <Collection>  (636) 
DC

>  <InChI>  (636) 
InChI=1S/C19H18N4O2S2/c1-25-11-6-7-14-15(8-11)22-19(21-14)26-10-17(24)23-18-13(9-20)12-4-2-3-5-16(12)27-18/h6-8H,2-5,10H2,1H3,(H,21,22)(H,23,24)

>  <InChI Key>  (636) 
JPLSNKJYBYFQJI-UHFFFAOYSA-N

>  <PERCENTSP3>  (636) 
8

>  <Link>  (636) 
https://www.chemdiv.com/catalog/screening-compounds/compound-Y505-4845/

>  <MFCDNUMBER>  (636) 
MFCD02008494

>  <STEREO>  (636) 
ACHIRAL

>  <State>  (636) 
Solid

>  <Similarity score>  (636) 
0.19

$$$$
N-(3-cyano-6-methyl-4,5,6,7-tetrahydro-1-benzothiophen-2-yl)-4-[3-(4-methoxyphen
     RDKit          2D

 31 34  0  0  0  0  0  0  0  0999 V2000
    2.5373    2.0664    0.0000 C   0  0  0  0  0  0  0  0  0  0  0  0
    2.7498    1.0665    0.0000 C   0  0  0  0  0  0  0  0  0  0  0  0
    3.7247    0.9666    0.0000 C   0  0  0  0  0  0  0  0  0  0  0  0
    4.1372    1.8915    0.0000 C   0  0  0  0  0  0  0  0  0  0  0  0
    3.3998    2.5415    0.0000 S   0  0  0  0  0  0  0  0  0  0  0  0
   -1.5582   -0.9207    0.0000 N   0  0  0  0  0  0  0  0  0  0  0  0
   -2.1749   -1.7080    0.0000 C   0  0  0  0  0  0  0  0  0  0  0  0
   -1.6083   -2.5415    0.0000 N   0  0  0  0  0  0  0  0  0  0  0  0
    1.6166    2.4665    0.0000 N   0  0  0  0  0  0  0  0  0  0  0  0
    2.0666    0.3165    0.0000 C   0  0  0  0  0  0  0  0  0  0  0  0
   -0.6207   -1.2538    0.0000 C   0  0  0  0  0  0  0  0  0  0  0  0
   -0.6500   -2.2663    0.0000 O   0  0  0  0  0  0  0  0  0  0  0  0
    1.3916   -0.4290    0.0000 N   0  0  0  0  0  0  0  0  0  0  0  0
    4.2996    0.1544    0.0000 C   0  0  0  0  0  0  0  0  0  0  0  0
    0.8166    1.8915    0.0000 C   0  0  0  0  0  0  0  0  0  0  0  0
   -3.1872   -1.6914    0.0000 C   0  0  0  0  0  0  0  0  0  0  0  0
    5.1371    1.9793    0.0000 C   0  0  0  0  0  0  0  0  0  0  0  0
   -0.0750    2.2790    0.0000 O   0  0  0  0  0  0  0  0  0  0  0  0
   -3.7080   -2.5415    0.0000 C   0  0  0  0  0  0  0  0  0  0  0  0
   -3.6705   -0.8040    0.0000 C   0  0  0  0  0  0  0  0  0  0  0  0
    5.2913    0.2415    0.0000 C   0  0  0  0  0  0  0  0  0  0  0  0
   -5.1953   -1.6288    0.0000 C   0  0  0  0  0  0  0  0  0  0  0  0
   -4.6829   -0.7833    0.0000 C   0  0  0  0  0  0  0  0  0  0  0  0
   -4.7204   -2.5206    0.0000 C   0  0  0  0  0  0  0  0  0  0  0  0
    5.7038    1.1585    0.0000 C   0  0  0  0  0  0  0  0  0  0  0  0
    0.1917   -0.6708    0.0000 C   0  0  0  0  0  0  0  0  0  0  0  0
   -6.1871   -1.5913    0.0000 O   0  0  0  0  0  0  0  0  0  0  0  0
    0.9167    0.9165    0.0000 C   0  0  0  0  0  0  0  0  0  0  0  0
    0.1041    0.3291    0.0000 C   0  0  0  0  0  0  0  0  0  0  0  0
   -6.7037   -2.4456    0.0000 C   0  0  0  0  0  0  0  0  0  0  0  0
    6.7037    1.2540    0.0000 C   0  0  0  0  0  0  0  0  0  0  0  0
  1  2  2  0
  2  3  1  0
  4  5  1  0
  3  4  2  0
  1  5  1  0
  6 11  2  0
  6  7  1  0
  8 12  1  0
  7  8  2  0
  1  9  1  0
  2 10  1  0
 11 26  1  0
 11 12  1  0
 10 13  3  0
  3 14  1  0
  9 15  1  0
  7 16  1  0
  4 17  1  0
 15 18  2  0
 16 19  2  0
 16 20  1  0
 14 21  1  0
 22 23  1  0
 20 23  2  0
 19 24  1  0
 22 24  2  0
 17 25  1  0
 21 25  1  0
 26 29  1  0
 22 27  1  0
 15 28  1  0
 28 29  1  0
 27 30  1  0
 25 31  1  0
M  END
>  <IDNUMBER>  (637) 
D321-0807

>  <available>  (637) 
128

>  <H_acceptor>  (637) 
7

>  <H_donor>  (637) 
1

>  <B_rotN>  (637) 
9

>  <N_O>  (637) 
7

>  <logP>  (637) 
4.8665

>  <logD>  (637) 
3.5533

>  <logSw>  (637) 
-4.7326

>  <PSA>  (637) 
78.774

>  <pKa_ma>  (637) 
6.1085

>  <pKa_mb>  (637) 
-4.0588

>  <N_Chirals>  (637) 
1

>  <Name>  (637) 
N-(3-cyano-6-methyl-4,5,6,7-tetrahydro-1-benzothiophen-2-yl)-4-[3-(4-methoxyphenyl)-1,2,4-oxadiazol-5-yl]butanamide

>  <Smile>  (637) 
CC(CC1)Cc2c1c(C#N)c(NC(CCCc1nc(-c(cc3)ccc3OC)no1)=O)s2

>  <Color>  (637) 
ORANGE

>  <Collection>  (637) 
DC

>  <InChI>  (637) 
InChI=1S/C23H24N4O3S/c1-14-6-11-17-18(13-24)23(31-19(17)12-14)25-20(28)4-3-5-21-26-22(27-30-21)15-7-9-16(29-2)10-8-15/h7-10,14H,3-6,11-12H2,1-2H3,(H,25,28)/t14-/m1/s1

>  <InChI Key>  (637) 
XLLNDVBSZBVZLD-CQSZACIVSA-N

>  <PERCENTSP3>  (637) 
39.1

>  <Link>  (637) 
https://www.chemdiv.com/catalog/screening-compounds/compound-D321-0807/

>  <MFCDNUMBER>  (637) 
MFCD09764581

>  <CLNUMBER>  (637) 
CL5000

>  <STEREO>  (637) 
RACEMIC MIXTURE

>  <State>  (637) 
Solid

>  <Similarity score>  (637) 
0.19

$$$$
N-[(3-cyano-4,5,6,7-tetrahydro-1-benzothiophen-2-yl)carbamothioyl]-3-(2,6-dichlo
     RDKit          2D

 31 34  0  0  0  0  0  0  0  0999 V2000
    1.9882    0.2101    0.0000 C   0  0  0  0  0  0  0  0  0  0  0  0
   -3.2629    0.2652    0.0000 C   0  0  0  0  0  0  0  0  0  0  0  0
   -2.3326    0.6581    0.0000 C   0  0  0  0  0  0  0  0  0  0  0  0
    2.8495    0.6786    0.0000 C   0  0  0  0  0  0  0  0  0  0  0  0
   -1.4715    0.1827    0.0000 C   0  0  0  0  0  0  0  0  0  0  0  0
   -3.9038    0.9546    0.0000 N   0  0  0  0  0  0  0  0  0  0  0  0
    2.1329   -0.7823    0.0000 S   0  0  0  0  0  0  0  0  0  0  0  0
    3.5592    0.0378    0.0000 C   0  0  0  0  0  0  0  0  0  0  0  0
    1.1199    0.6994    0.0000 N   0  0  0  0  0  0  0  0  0  0  0  0
   -3.4905   -0.6994    0.0000 C   0  0  0  0  0  0  0  0  0  0  0  0
   -0.6236    0.6994    0.0000 N   0  0  0  0  0  0  0  0  0  0  0  0
    0.2515    0.2033    0.0000 C   0  0  0  0  0  0  0  0  0  0  0  0
    3.1251   -0.8925    0.0000 C   0  0  0  0  0  0  0  0  0  0  0  0
   -3.4352    1.8157    0.0000 O   0  0  0  0  0  0  0  0  0  0  0  0
   -2.4430    1.6160    0.0000 C   0  0  0  0  0  0  0  0  0  0  0  0
    2.9321    1.6366    0.0000 C   0  0  0  0  0  0  0  0  0  0  0  0
    3.0218    2.6014    0.0000 N   0  0  0  0  0  0  0  0  0  0  0  0
    0.2515   -0.8097    0.0000 S   0  0  0  0  0  0  0  0  0  0  0  0
   -2.7944   -1.3680    0.0000 C   0  0  0  0  0  0  0  0  0  0  0  0
   -4.4277   -0.9476    0.0000 C   0  0  0  0  0  0  0  0  0  0  0  0
   -1.4715   -0.8097    0.0000 O   0  0  0  0  0  0  0  0  0  0  0  0
   -1.5333   -2.1121    0.0000 Cl  0  0  0  0  0  0  0  0  0  0  0  0
   -5.1098   -0.2311    0.0000 Cl  0  0  0  0  0  0  0  0  0  0  0  0
    4.5102    0.0998    0.0000 C   0  0  0  0  0  0  0  0  0  0  0  0
    3.6834   -1.6917    0.0000 C   0  0  0  0  0  0  0  0  0  0  0  0
   -1.7193    2.2707    0.0000 C   0  0  0  0  0  0  0  0  0  0  0  0
   -3.9659   -2.6014    0.0000 C   0  0  0  0  0  0  0  0  0  0  0  0
   -3.0424   -2.3187    0.0000 C   0  0  0  0  0  0  0  0  0  0  0  0
   -4.6757   -1.8849    0.0000 C   0  0  0  0  0  0  0  0  0  0  0  0
    5.1098   -0.6994    0.0000 C   0  0  0  0  0  0  0  0  0  0  0  0
    4.6757   -1.6091    0.0000 C   0  0  0  0  0  0  0  0  0  0  0  0
  2  3  1  0
  3  5  1  0
  1  4  2  0
  5 11  1  0
  2  6  2  0
  1  7  1  0
  4  8  1  0
  1  9  1  0
  2 10  1  0
 11 12  1  0
  9 12  1  0
  7 13  1  0
  8 13  2  0
 14 15  1  0
  6 14  1  0
  3 15  2  0
  4 16  1  0
 16 17  3  0
 12 18  2  0
 10 19  2  0
 10 20  1  0
  5 21  2  0
 19 22  1  0
 20 23  1  0
  8 24  1  0
 13 25  1  0
 15 26  1  0
 27 29  1  0
 19 28  1  0
 27 28  2  0
 20 29  2  0
 24 30  1  0
 25 31  1  0
 30 31  1  0
M  END
>  <IDNUMBER>  (638) 
5182-2771

>  <available>  (638) 
48

>  <H_acceptor>  (638) 
7

>  <H_donor>  (638) 
2

>  <B_rotN>  (638) 
7

>  <N_O>  (638) 
6

>  <logP>  (638) 
5.2664

>  <logD>  (638) 
4.9199

>  <logSw>  (638) 
-5.8804

>  <PSA>  (638) 
71.971

>  <pKa_ma>  (638) 
7.3133

>  <pKa_mb>  (638) 
-6.8683

>  <N_Chirals>  (638) 
0

>  <Name>  (638) 
N-[(3-cyano-4,5,6,7-tetrahydro-1-benzothiophen-2-yl)carbamothioyl]-3-(2,6-dichlorophenyl)-5-methyl-1,2-oxazole-4-carboxamide

>  <Smile>  (638) 
Cc1c(C(NC(Nc(sc2c3CCCC2)c3C#N)=S)=O)c(-c(c(Cl)ccc2)c2Cl)no1

>  <Color>  (638) 
YELLOW

>  <Collection>  (638) 
DC

>  <InChI>  (638) 
InChI=1S/C21H16Cl2N4O2S2/c1-10-16(18(27-29-10)17-13(22)6-4-7-14(17)23)19(28)25-21(30)26-20-12(9-24)11-5-2-3-8-15(11)31-20/h4,6-7H,2-3,5,8H2,1H3,(H2,25,26,28,30)

>  <InChI Key>  (638) 
ZJUSXZVMLXZJDW-UHFFFAOYSA-N

>  <PERCENTSP3>  (638) 
23.8

>  <Link>  (638) 
https://www.chemdiv.com/catalog/screening-compounds/compound-5182-2771/

>  <MFCDNUMBER>  (638) 
MFCD01963048

>  <CLNUMBER>  (638) 
CL2451

>  <STEREO>  (638) 
ACHIRAL

>  <State>  (638) 
Solid

>  <Similarity score>  (638) 
0.19

$$$$
2-amino-6-ethyl-4,5,6,7-tetrahydro-1-benzothiophene-3-carbonitrile
     RDKit          2D

 14 15  0  0  0  0  0  0  0  0999 V2000
    1.2479   -0.1146    0.0000 C   0  0  0  0  0  0  0  0  0  0  0  0
    0.9189   -1.0647    0.0000 C   0  0  0  0  0  0  0  0  0  0  0  0
    0.4271    0.4772    0.0000 C   0  0  0  0  0  0  0  0  0  0  0  0
   -0.3604   -0.1146    0.0000 C   0  0  0  0  0  0  0  0  0  0  0  0
   -0.0646   -1.0647    0.0000 S   0  0  0  0  0  0  0  0  0  0  0  0
    2.1856    0.1812    0.0000 C   0  0  0  0  0  0  0  0  0  0  0  0
    3.1233    0.4772    0.0000 N   0  0  0  0  0  0  0  0  0  0  0  0
    0.3271    1.4606    0.0000 C   0  0  0  0  0  0  0  0  0  0  0  0
   -1.2813    0.3146    0.0000 C   0  0  0  0  0  0  0  0  0  0  0  0
    1.5440   -1.8898    0.0000 N   0  0  0  0  0  0  0  0  0  0  0  0
   -0.5605    1.8898    0.0000 C   0  0  0  0  0  0  0  0  0  0  0  0
   -1.4148    1.2980    0.0000 C   0  0  0  0  0  0  0  0  0  0  0  0
   -2.3357    1.6606    0.0000 C   0  0  0  0  0  0  0  0  0  0  0  0
   -3.1233    1.0355    0.0000 C   0  0  0  0  0  0  0  0  0  0  0  0
  1  2  2  0
  1  3  1  0
  3  4  2  0
  4  5  1  0
  2  5  1  0
  1  6  1  0
  6  7  3  0
  3  8  1  0
  4  9  1  0
  9 12  1  0
  2 10  1  0
  8 11  1  0
 11 12  1  0
 12 13  1  0
 13 14  1  0
M  END
>  <IDNUMBER>  (639) 
Y503-0029

>  <available>  (639) 
19

>  <H_acceptor>  (639) 
1

>  <H_donor>  (639) 
2

>  <B_rotN>  (639) 
2

>  <N_O>  (639) 
2

>  <logP>  (639) 
3.1257

>  <logD>  (639) 
3.1257

>  <logSw>  (639) 
-3.2209

>  <PSA>  (639) 
38.492

>  <pKa_ma>  (639) 
15.9936

>  <pKa_mb>  (639) 
-2.1439

>  <N_Chirals>  (639) 
1

>  <Name>  (639) 
2-amino-6-ethyl-4,5,6,7-tetrahydro-1-benzothiophene-3-carbonitrile

>  <Smile>  (639) 
CCC(CC1)Cc2c1c(C#N)c(N)s2

>  <Color>  (639) 
ORANGE

>  <Collection>  (639) 
DC

>  <InChI>  (639) 
InChI=1S/C11H14N2S/c1-2-7-3-4-8-9(6-12)11(13)14-10(8)5-7/h7H,2-5,13H2,1H3/t7-/m1/s1

>  <InChI Key>  (639) 
UJSSIVVJQQNBCO-SSDOTTSWSA-N

>  <PERCENTSP3>  (639) 
54.55

>  <Link>  (639) 
https://www.chemdiv.com/catalog/screening-compounds/compound-Y503-0029/

>  <MFCDNUMBER>  (639) 
MFCD01114964

>  <STEREO>  (639) 
RACEMIC MIXTURE

>  <State>  (639) 
Solid

>  <Similarity score>  (639) 
0.19

$$$$
N-(3-cyano-5,6-dihydro-4H-cyclopenta[b]thiophen-2-yl)-4,5,6,7-tetrahydro-1,2-ben
     RDKit          2D

 22 25  0  0  0  0  0  0  0  0999 V2000
   -0.8782   -1.1844    0.0000 C   0  0  0  0  0  0  0  0  0  0  0  0
   -0.2715   -1.9604    0.0000 C   0  0  0  0  0  0  0  0  0  0  0  0
   -0.0445    1.8777    0.0000 C   0  0  0  0  0  0  0  0  0  0  0  0
   -0.7274    2.5300    0.0000 N   0  0  0  0  0  0  0  0  0  0  0  0
    0.7975    2.5443    0.0000 C   0  0  0  0  0  0  0  0  0  0  0  0
   -1.8170   -1.5230    0.0000 S   0  0  0  0  0  0  0  0  0  0  0  0
   -0.8183   -2.7879    0.0000 C   0  0  0  0  0  0  0  0  0  0  0  0
   -0.0155    0.3238    0.0000 C   0  0  0  0  0  0  0  0  0  0  0  0
   -0.8782   -0.1754    0.0000 N   0  0  0  0  0  0  0  0  0  0  0  0
   -1.7716   -2.5052    0.0000 C   0  0  0  0  0  0  0  0  0  0  0  0
   -0.4449    3.4234    0.0000 O   0  0  0  0  0  0  0  0  0  0  0  0
    0.5002    3.4379    0.0000 C   0  0  0  0  0  0  0  0  0  0  0  0
    0.7376   -1.9253    0.0000 C   0  0  0  0  0  0  0  0  0  0  0  0
    1.7343   -1.8839    0.0000 N   0  0  0  0  0  0  0  0  0  0  0  0
    0.7975   -0.1714    0.0000 O   0  0  0  0  0  0  0  0  0  0  0  0
    1.7034    2.3628    0.0000 C   0  0  0  0  0  0  0  0  0  0  0  0
   -0.7730   -3.7929    0.0000 C   0  0  0  0  0  0  0  0  0  0  0  0
   -2.3308   -3.3491    0.0000 C   0  0  0  0  0  0  0  0  0  0  0  0
    1.1214    4.1353    0.0000 C   0  0  0  0  0  0  0  0  0  0  0  0
   -1.7264   -4.1353    0.0000 C   0  0  0  0  0  0  0  0  0  0  0  0
    2.3308    3.0541    0.0000 C   0  0  0  0  0  0  0  0  0  0  0  0
    2.0275    3.9516    0.0000 C   0  0  0  0  0  0  0  0  0  0  0  0
  1  2  2  0
  3  8  1  0
  3  4  2  0
  3  5  1  0
  1  6  1  0
  2  7  1  0
  7 10  2  0
  8  9  1  0
  1  9  1  0
  6 10  1  0
  4 11  1  0
  5 12  2  0
 11 12  1  0
  2 13  1  0
 13 14  3  0
  8 15  2  0
  5 16  1  0
  7 17  1  0
 10 18  1  0
 12 19  1  0
 18 20  1  0
 17 20  1  0
 16 21  1  0
 21 22  1  0
 19 22  1  0
M  END
>  <IDNUMBER>  (640) 
C226-3401

>  <available>  (640) 
1

>  <H_acceptor>  (640) 
5

>  <H_donor>  (640) 
1

>  <B_rotN>  (640) 
4

>  <N_O>  (640) 
5

>  <logP>  (640) 
3.0819

>  <logD>  (640) 
0.8798

>  <logSw>  (640) 
-3.3368

>  <PSA>  (640) 
62.867

>  <pKa_ma>  (640) 
5.2006

>  <pKa_mb>  (640) 
-5.5427

>  <N_Chirals>  (640) 
0

>  <Name>  (640) 
N-(3-cyano-5,6-dihydro-4H-cyclopenta[b]thiophen-2-yl)-4,5,6,7-tetrahydro-1,2-benzoxazole-3-carboxamide

>  <Smile>  (640) 
N#Cc1c(NC(c2noc3c2CCCC3)=O)sc2c1CCC2

>  <Color>  (640) 
BROWN

>  <Collection>  (640) 
NC

>  <InChI>  (640) 
InChI=1S/C16H15N3O2S/c17-8-11-9-5-3-7-13(9)22-16(11)18-15(20)14-10-4-1-2-6-12(10)21-19-14/h1-7H2,(H,18,20)

>  <InChI Key>  (640) 
GQOOVLDOQVJXGH-UHFFFAOYSA-N

>  <PERCENTSP3>  (640) 
43.8

>  <Link>  (640) 
https://www.chemdiv.com/catalog/screening-compounds/compound-C226-3401/

>  <MFCDNUMBER>  (640) 
MFCD09783053

>  <CLNUMBER>  (640) 
CL2031

>  <STEREO>  (640) 
ACHIRAL

>  <State>  (640) 
Solid

>  <Similarity score>  (640) 
0.19

$$$$
N-(3-cyano-5,6,7,8-tetrahydro-4H-cyclohepta[b]thiophen-2-yl)-6-(furan-2-yl)-3-ph
     RDKit          2D

 35 40  0  0  0  0  0  0  0  0999 V2000
    1.1021    1.0562    0.0000 C   0  0  0  0  0  0  0  0  0  0  0  0
    1.4853    2.0061    0.0000 C   0  0  0  0  0  0  0  0  0  0  0  0
   -1.4353   -1.3314    0.0000 C   0  0  0  0  0  0  0  0  0  0  0  0
   -2.4103   -1.5645    0.0000 C   0  0  0  0  0  0  0  0  0  0  0  0
   -1.1562   -0.3687    0.0000 C   0  0  0  0  0  0  0  0  0  0  0  0
   -1.5729   -2.9395    0.0000 N   0  0  0  0  0  0  0  0  0  0  0  0
    1.8604    0.4437    0.0000 S   0  0  0  0  0  0  0  0  0  0  0  0
    2.4812    1.9186    0.0000 C   0  0  0  0  0  0  0  0  0  0  0  0
   -0.9187   -2.1813    0.0000 C   0  0  0  0  0  0  0  0  0  0  0  0
    0.1022    0.8186    0.0000 N   0  0  0  0  0  0  0  0  0  0  0  0
   -0.1813   -0.1397    0.0000 C   0  0  0  0  0  0  0  0  0  0  0  0
   -3.1020   -0.8355    0.0000 N   0  0  0  0  0  0  0  0  0  0  0  0
    2.7062    0.9478    0.0000 C   0  0  0  0  0  0  0  0  0  0  0  0
   -2.4937   -2.5563    0.0000 O   0  0  0  0  0  0  0  0  0  0  0  0
   -2.8103    0.1229    0.0000 C   0  0  0  0  0  0  0  0  0  0  0  0
   -1.8397    0.3562    0.0000 C   0  0  0  0  0  0  0  0  0  0  0  0
    0.9813    2.8645    0.0000 C   0  0  0  0  0  0  0  0  0  0  0  0
   -3.5021    0.8436    0.0000 C   0  0  0  0  0  0  0  0  0  0  0  0
    0.4812    3.7271    0.0000 N   0  0  0  0  0  0  0  0  0  0  0  0
   -3.1145    1.7687    0.0000 O   0  0  0  0  0  0  0  0  0  0  0  0
    0.5062   -0.8687    0.0000 O   0  0  0  0  0  0  0  0  0  0  0  0
    0.0396   -2.4729    0.0000 C   0  0  0  0  0  0  0  0  0  0  0  0
   -4.5019    0.9311    0.0000 C   0  0  0  0  0  0  0  0  0  0  0  0
   -3.8771    2.4271    0.0000 C   0  0  0  0  0  0  0  0  0  0  0  0
   -4.7311    1.9021    0.0000 C   0  0  0  0  0  0  0  0  0  0  0  0
    3.1144    2.7103    0.0000 C   0  0  0  0  0  0  0  0  0  0  0  0
    3.5979    0.5104    0.0000 C   0  0  0  0  0  0  0  0  0  0  0  0
    0.7604   -1.7813    0.0000 C   0  0  0  0  0  0  0  0  0  0  0  0
    0.2729   -3.4397    0.0000 C   0  0  0  0  0  0  0  0  0  0  0  0
    4.1144    2.6811    0.0000 C   0  0  0  0  0  0  0  0  0  0  0  0
    4.5061    0.9270    0.0000 C   0  0  0  0  0  0  0  0  0  0  0  0
    1.7187   -2.0730    0.0000 C   0  0  0  0  0  0  0  0  0  0  0  0
    1.2271   -3.7271    0.0000 C   0  0  0  0  0  0  0  0  0  0  0  0
    1.9520   -3.0439    0.0000 C   0  0  0  0  0  0  0  0  0  0  0  0
    4.7311    1.9021    0.0000 C   0  0  0  0  0  0  0  0  0  0  0  0
  1  2  2  0
  3  5  1  0
  3  4  2  0
  4 12  1  0
  5 11  1  0
  6  9  2  0
  6 14  1  0
  1  7  1  0
  2  8  1  0
  8 13  2  0
  3  9  1  0
  1 10  1  0
 10 11  1  0
 12 15  2  0
  7 13  1  0
  4 14  1  0
 15 16  1  0
  5 16  2  0
  2 17  1  0
 15 18  1  0
 17 19  3  0
 18 20  1  0
 11 21  2  0
  9 22  1  0
 18 23  2  0
 20 24  1  0
 24 25  2  0
 23 25  1  0
  8 26  1  0
 13 27  1  0
 22 28  2  0
 22 29  1  0
 26 30  1  0
 30 35  1  0
 27 31  1  0
 28 32  1  0
 32 34  2  0
 29 33  2  0
 33 34  1  0
 31 35  1  0
M  END
>  <IDNUMBER>  (641) 
Y501-2733

>  <available>  (641) 
22

>  <H_acceptor>  (641) 
7

>  <H_donor>  (641) 
1

>  <B_rotN>  (641) 
6

>  <N_O>  (641) 
7

>  <logP>  (641) 
5.9781

>  <logD>  (641) 
5.3714

>  <logSw>  (641) 
-6.1136

>  <PSA>  (641) 
79.455

>  <pKa_ma>  (641) 
6.9166

>  <pKa_mb>  (641) 
-4.0324

>  <N_Chirals>  (641) 
0

>  <Name>  (641) 
N-(3-cyano-5,6,7,8-tetrahydro-4H-cyclohepta[b]thiophen-2-yl)-6-(furan-2-yl)-3-phenyl[1,2]oxazolo[5,4-b]pyridine-4-carboxamide

>  <Smile>  (641) 
N#Cc1c(NC(c2c(c(-c3ccccc3)no3)c3nc(-c3ccco3)c2)=O)sc2c1CCCCC2

>  <Color>  (641) 
ORANGE

>  <Collection>  (641) 
DC

>  <InChI>  (641) 
InChI=1S/C27H20N4O3S/c28-15-19-17-10-5-2-6-12-22(17)35-27(19)30-25(32)18-14-20(21-11-7-13-33-21)29-26-23(18)24(31-34-26)16-8-3-1-4-9-16/h1,3-4,7-9,11,13-14H,2,5-6,10,12H2,(H,30,32)

>  <InChI Key>  (641) 
YOZXUXIUTROHGN-UHFFFAOYSA-N

>  <PERCENTSP3>  (641) 
18.52

>  <Link>  (641) 
https://www.chemdiv.com/catalog/screening-compounds/compound-Y501-2733/

>  <MFCDNUMBER>  (641) 
MFCD08557563

>  <CLNUMBER>  (641) 
CL7490

>  <STEREO>  (641) 
ACHIRAL

>  <State>  (641) 
Solid

>  <Similarity score>  (641) 
0.19

$$$$
2-[2-(4-amino-1,2,5-oxadiazol-3-yl)-1H-benzimidazol-1-yl]-N-(3-cyano-6-methyl-4,
     RDKit          2D

 31 35  0  0  0  0  0  0  0  0999 V2000
    2.3808    0.1042    0.0000 C   0  0  0  0  0  0  0  0  0  0  0  0
    1.6517    0.8041    0.0000 N   0  0  0  0  0  0  0  0  0  0  0  0
   -1.5727    0.4290    0.0000 C   0  0  0  0  0  0  0  0  0  0  0  0
   -2.5808    0.4666    0.0000 C   0  0  0  0  0  0  0  0  0  0  0  0
    2.2434   -0.8915    0.0000 C   0  0  0  0  0  0  0  0  0  0  0  0
    3.2681    0.5791    0.0000 N   0  0  0  0  0  0  0  0  0  0  0  0
   -2.9183   -0.4708    0.0000 C   0  0  0  0  0  0  0  0  0  0  0  0
   -2.1308   -1.0832    0.0000 C   0  0  0  0  0  0  0  0  0  0  0  0
   -1.3061   -0.5290    0.0000 S   0  0  0  0  0  0  0  0  0  0  0  0
    2.9682   -1.5831    0.0000 C   0  0  0  0  0  0  0  0  0  0  0  0
    2.5266   -2.4829    0.0000 N   0  0  0  0  0  0  0  0  0  0  0  0
   -0.9603    1.2082    0.0000 N   0  0  0  0  0  0  0  0  0  0  0  0
    1.3560   -1.3581    0.0000 N   0  0  0  0  0  0  0  0  0  0  0  0
    2.0934    1.7038    0.0000 C   0  0  0  0  0  0  0  0  0  0  0  0
    1.5309   -2.3454    0.0000 O   0  0  0  0  0  0  0  0  0  0  0  0
    3.0889    1.5664    0.0000 C   0  0  0  0  0  0  0  0  0  0  0  0
   -3.1349    1.2915    0.0000 C   0  0  0  0  0  0  0  0  0  0  0  0
    0.0187    1.3831    0.0000 C   0  0  0  0  0  0  0  0  0  0  0  0
    0.6686    0.6208    0.0000 C   0  0  0  0  0  0  0  0  0  0  0  0
   -2.7433    2.2205    0.0000 N   0  0  0  0  0  0  0  0  0  0  0  0
   -3.8305   -0.8457    0.0000 C   0  0  0  0  0  0  0  0  0  0  0  0
   -2.2684   -2.0580    0.0000 C   0  0  0  0  0  0  0  0  0  0  0  0
    0.3687    2.3287    0.0000 O   0  0  0  0  0  0  0  0  0  0  0  0
    3.9555   -1.4082    0.0000 N   0  0  0  0  0  0  0  0  0  0  0  0
   -3.9555   -1.8288    0.0000 C   0  0  0  0  0  0  0  0  0  0  0  0
   -3.1932   -2.4412    0.0000 C   0  0  0  0  0  0  0  0  0  0  0  0
    1.7184    2.6412    0.0000 C   0  0  0  0  0  0  0  0  0  0  0  0
    3.7056    2.3663    0.0000 C   0  0  0  0  0  0  0  0  0  0  0  0
   -3.3307   -3.4285    0.0000 C   0  0  0  0  0  0  0  0  0  0  0  0
    2.3308    3.4285    0.0000 C   0  0  0  0  0  0  0  0  0  0  0  0
    3.3307    3.2910    0.0000 C   0  0  0  0  0  0  0  0  0  0  0  0
  1  2  1  0
  3 12  1  0
  3  4  2  0
  1  5  1  0
  1  6  2  0
  4  7  1  0
  8  9  1  0
  7  8  2  0
  3  9  1  0
  5 10  1  0
 10 11  2  0
 12 18  1  0
  5 13  2  0
  2 14  1  0
 13 15  1  0
 11 15  1  0
  6 16  1  0
 14 16  2  0
  4 17  1  0
 18 19  1  0
  2 19  1  0
 17 20  3  0
  7 21  1  0
  8 22  1  0
 18 23  2  0
 10 24  1  0
 21 25  1  0
 25 26  1  0
 22 26  1  0
 26 29  1  0
 14 27  1  0
 16 28  1  0
 27 30  2  0
 28 31  2  0
 30 31  1  0
M  END
>  <IDNUMBER>  (642) 
8016-2378

>  <available>  (642) 
15

>  <H_acceptor>  (642) 
7

>  <H_donor>  (642) 
3

>  <B_rotN>  (642) 
6

>  <N_O>  (642) 
9

>  <logP>  (642) 
4.2503

>  <logD>  (642) 
2.8477

>  <logSw>  (642) 
-4.4837

>  <PSA>  (642) 
106.901

>  <pKa_ma>  (642) 
6.0149

>  <pKa_mb>  (642) 
3.9643

>  <N_Chirals>  (642) 
1

>  <Name>  (642) 
2-[2-(4-amino-1,2,5-oxadiazol-3-yl)-1H-benzimidazol-1-yl]-N-(3-cyano-6-methyl-4,5,6,7-tetrahydro-1-benzothiophen-2-yl)acetamide

>  <Smile>  (642) 
CC(CC1)Cc2c1c(C#N)c(NC(Cn1c(-c3nonc3N)nc3c1cccc3)=O)s2

>  <Color>  (642) 
BROWN

>  <Collection>  (642) 
DC

>  <InChI>  (642) 
InChI=1S/C21H19N7O2S/c1-11-6-7-12-13(9-22)21(31-16(12)8-11)25-17(29)10-28-15-5-3-2-4-14(15)24-20(28)18-19(23)27-30-26-18/h2-5,11H,6-8,10H2,1H3,(H2,23,27)(H,25,29)/t11-/m1/s1

>  <InChI Key>  (642) 
YYKQUXZJLHAVCS-LLVKDONJSA-N

>  <PERCENTSP3>  (642) 
28.57

>  <Link>  (642) 
https://www.chemdiv.com/catalog/screening-compounds/compound-8016-2378/

>  <MFCDNUMBER>  (642) 
MFCD05854943

>  <CLNUMBER>  (642) 
CL2888

>  <STEREO>  (642) 
RACEMIC MIXTURE

>  <State>  (642) 
Solid

>  <Similarity score>  (642) 
0.19

$$$$
N-(6-tert-butyl-3-cyano-4,5,6,7-tetrahydro-1-benzothiophen-2-yl)-2-(4-nitropheno
     RDKit          2D

 30 32  0  0  0  0  0  0  0  0999 V2000
    1.2042    0.1439    0.0000 C   0  0  0  0  0  0  0  0  0  0  0  0
    1.5751   -0.7896    0.0000 C   0  0  0  0  0  0  0  0  0  0  0  0
    2.8045    0.3439    0.0000 C   0  0  0  0  0  0  0  0  0  0  0  0
    2.6545   -0.6021    0.0000 C   0  0  0  0  0  0  0  0  0  0  0  0
    1.9170    0.8190    0.0000 S   0  0  0  0  0  0  0  0  0  0  0  0
    0.1792    0.3478    0.0000 N   0  0  0  0  0  0  0  0  0  0  0  0
   -5.6839    1.5812    0.0000 N   0  0  0  0  0  0  0  0  0  0  0  0
   -0.4834   -0.3938    0.0000 C   0  0  0  0  0  0  0  0  0  0  0  0
    1.1626   -1.6440    0.0000 C   0  0  0  0  0  0  0  0  0  0  0  0
    3.7628    0.7313    0.0000 C   0  0  0  0  0  0  0  0  0  0  0  0
    0.7294   -2.5316    0.0000 N   0  0  0  0  0  0  0  0  0  0  0  0
    3.4421   -1.2520    0.0000 C   0  0  0  0  0  0  0  0  0  0  0  0
   -4.7088    1.3729    0.0000 C   0  0  0  0  0  0  0  0  0  0  0  0
    4.5046    0.1106    0.0000 C   0  0  0  0  0  0  0  0  0  0  0  0
   -5.9965    2.5316    0.0000 O   0  0  0  0  0  0  0  0  0  0  0  0
   -1.4627   -0.1814    0.0000 C   0  0  0  0  0  0  0  0  0  0  0  0
   -6.3423    0.8356    0.0000 O   0  0  0  0  0  0  0  0  0  0  0  0
   -1.7628    0.7607    0.0000 O   0  0  0  0  0  0  0  0  0  0  0  0
    5.4298    0.4731    0.0000 C   0  0  0  0  0  0  0  0  0  0  0  0
   -0.1625   -1.3396    0.0000 O   0  0  0  0  0  0  0  0  0  0  0  0
    4.3921   -0.8689    0.0000 C   0  0  0  0  0  0  0  0  0  0  0  0
   -4.3921    0.4313    0.0000 C   0  0  0  0  0  0  0  0  0  0  0  0
   -4.0337    2.1233    0.0000 C   0  0  0  0  0  0  0  0  0  0  0  0
   -2.7460    0.9690    0.0000 C   0  0  0  0  0  0  0  0  0  0  0  0
   -3.0586    1.9189    0.0000 C   0  0  0  0  0  0  0  0  0  0  0  0
   -3.4086    0.2230    0.0000 C   0  0  0  0  0  0  0  0  0  0  0  0
    5.0671    1.3937    0.0000 C   0  0  0  0  0  0  0  0  0  0  0  0
    5.7923   -0.4398    0.0000 C   0  0  0  0  0  0  0  0  0  0  0  0
    6.3423    0.8356    0.0000 C   0  0  0  0  0  0  0  0  0  0  0  0
   -2.1378   -0.9313    0.0000 C   0  0  0  0  0  0  0  0  0  0  0  0
  1  2  2  0
  3  5  1  0
  3  4  2  0
  2  4  1  0
  1  5  1  0
  1  6  1  0
  7 13  1  0
  6  8  1  0
  2  9  1  0
  3 10  1  0
  9 11  3  0
  4 12  1  0
 13 22  1  0
 10 14  1  0
 14 21  1  0
  7 15  1  0
  8 16  1  0
  7 17  2  0
 16 18  1  0
 14 19  1  0
  8 20  2  0
 12 21  1  0
 22 26  2  0
 23 25  1  0
 13 23  2  0
 18 24  1  0
 24 25  2  0
 24 26  1  0
 19 27  1  0
 19 28  1  0
 19 29  1  0
 16 30  1  0
M  CHG  2   7   1  15  -1
M  END
>  <IDNUMBER>  (643) 
Y509-2635

>  <available>  (643) 
65

>  <H_acceptor>  (643) 
8

>  <H_donor>  (643) 
1

>  <B_rotN>  (643) 
8

>  <N_O>  (643) 
7

>  <logP>  (643) 
5.4863

>  <logD>  (643) 
4.0683

>  <logSw>  (643) 
-5.3745

>  <PSA>  (643) 
80.271

>  <pKa_ma>  (643) 
5.9989

>  <pKa_mb>  (643) 
-4.9316

>  <N_Chirals>  (643) 
2

>  <Name>  (643) 
N-(6-tert-butyl-3-cyano-4,5,6,7-tetrahydro-1-benzothiophen-2-yl)-2-(4-nitrophenoxy)propanamide

>  <Smile>  (643) 
c1(c(c2c(s1)CC(C(C)(C)C)CC2)C#N)NC(C(Oc1ccc([N+]([O-])=O)cc1)C)=O

>  <Color>  (643) 
ORANGE

>  <Collection>  (643) 
DC

>  <InChI>  (643) 
InChI=1S/C22H25N3O4S/c1-13(29-16-8-6-15(7-9-16)25(27)28)20(26)24-21-18(12-23)17-10-5-14(22(2,3)4)11-19(17)30-21/h6-9,13-14H,5,10-11H2,1-4H3,(H,24,26)

>  <InChI Key>  (643) 
YBSVIYLDKAMQIP-UHFFFAOYSA-N

>  <PERCENTSP3>  (643) 
45.5

>  <Link>  (643) 
https://www.chemdiv.com/catalog/screening-compounds/compound-Y509-2635/

>  <MFCDNUMBER>  (643) 
MFCD08557995

>  <STEREO>  (643) 
MIXTURE OF STEREOISOMERS

>  <State>  (643) 
Solid

>  <Similarity score>  (643) 
0.19

$$$$
4-[3-(4-chlorophenyl)-1,2,4-oxadiazol-5-yl]-N-(3-cyano-4,5,6,7-tetrahydro-1-benz
     RDKit          2D

 29 32  0  0  0  0  0  0  0  0999 V2000
    2.7760    2.0576    0.0000 C   0  0  0  0  0  0  0  0  0  0  0  0
    2.9926    1.0663    0.0000 C   0  0  0  0  0  0  0  0  0  0  0  0
   -1.3182   -0.9327    0.0000 N   0  0  0  0  0  0  0  0  0  0  0  0
    3.6298    2.5447    0.0000 S   0  0  0  0  0  0  0  0  0  0  0  0
    3.9671    0.9705    0.0000 C   0  0  0  0  0  0  0  0  0  0  0  0
   -1.9346   -1.7201    0.0000 C   0  0  0  0  0  0  0  0  0  0  0  0
    4.3794    1.8909    0.0000 C   0  0  0  0  0  0  0  0  0  0  0  0
   -1.3683   -2.5447    0.0000 N   0  0  0  0  0  0  0  0  0  0  0  0
    1.8556    2.4575    0.0000 N   0  0  0  0  0  0  0  0  0  0  0  0
    2.3136    0.3081    0.0000 C   0  0  0  0  0  0  0  0  0  0  0  0
   -0.3812   -1.2578    0.0000 C   0  0  0  0  0  0  0  0  0  0  0  0
   -0.4062   -2.2699    0.0000 O   0  0  0  0  0  0  0  0  0  0  0  0
    1.6555   -0.4331    0.0000 N   0  0  0  0  0  0  0  0  0  0  0  0
    1.0559    1.8784    0.0000 C   0  0  0  0  0  0  0  0  0  0  0  0
   -2.9466   -1.6952    0.0000 C   0  0  0  0  0  0  0  0  0  0  0  0
    0.1645    2.2699    0.0000 O   0  0  0  0  0  0  0  0  0  0  0  0
   -3.4672   -2.5447    0.0000 C   0  0  0  0  0  0  0  0  0  0  0  0
   -3.4298   -0.8081    0.0000 C   0  0  0  0  0  0  0  0  0  0  0  0
   -4.9542   -1.6408    0.0000 C   0  0  0  0  0  0  0  0  0  0  0  0
    4.5419    0.1541    0.0000 C   0  0  0  0  0  0  0  0  0  0  0  0
   -4.4420   -0.7911    0.0000 C   0  0  0  0  0  0  0  0  0  0  0  0
   -4.4794   -2.5323    0.0000 C   0  0  0  0  0  0  0  0  0  0  0  0
    5.3749    1.9826    0.0000 C   0  0  0  0  0  0  0  0  0  0  0  0
   -5.9539   -1.5951    0.0000 Cl  0  0  0  0  0  0  0  0  0  0  0  0
    0.4395   -0.6787    0.0000 C   0  0  0  0  0  0  0  0  0  0  0  0
    1.1640    0.9082    0.0000 C   0  0  0  0  0  0  0  0  0  0  0  0
    0.3436    0.3208    0.0000 C   0  0  0  0  0  0  0  0  0  0  0  0
    5.5416    0.2582    0.0000 C   0  0  0  0  0  0  0  0  0  0  0  0
    5.9539    1.1662    0.0000 C   0  0  0  0  0  0  0  0  0  0  0  0
  1  2  2  0
  3 11  2  0
  1  4  1  0
  2  5  1  0
  3  6  1  0
  4  7  1  0
  5  7  2  0
  8 12  1  0
  6  8  2  0
  1  9  1  0
  2 10  1  0
 11 25  1  0
 11 12  1  0
 10 13  3  0
  9 14  1  0
  6 15  1  0
 14 16  2  0
 15 17  2  0
 15 18  1  0
 19 21  1  0
  5 20  1  0
 18 21  2  0
 17 22  1  0
 19 22  2  0
  7 23  1  0
 19 24  1  0
 25 27  1  0
 14 26  1  0
 26 27  1  0
 20 28  1  0
 23 29  1  0
 28 29  1  0
M  END
>  <IDNUMBER>  (644) 
D321-0411

>  <available>  (644) 
131

>  <H_acceptor>  (644) 
6

>  <H_donor>  (644) 
1

>  <B_rotN>  (644) 
8

>  <N_O>  (644) 
6

>  <logP>  (644) 
5.0449

>  <logD>  (644) 
3.7317

>  <logSw>  (644) 
-5.5402

>  <PSA>  (644) 
71.23

>  <pKa_ma>  (644) 
6.1085

>  <pKa_mb>  (644) 
-3.8515

>  <N_Chirals>  (644) 
0

>  <Name>  (644) 
4-[3-(4-chlorophenyl)-1,2,4-oxadiazol-5-yl]-N-(3-cyano-4,5,6,7-tetrahydro-1-benzothiophen-2-yl)butanamide

>  <Smile>  (644) 
N#Cc1c(NC(CCCc2nc(-c(cc3)ccc3Cl)no2)=O)sc2c1CCCC2

>  <Color>  (644) 
NOT COLORED

>  <Collection>  (644) 
DC

>  <InChI>  (644) 
InChI=1S/C21H19ClN4O2S/c22-14-10-8-13(9-11-14)20-25-19(28-26-20)7-3-6-18(27)24-21-16(12-23)15-4-1-2-5-17(15)29-21/h8-11H,1-7H2,(H,24,27)

>  <InChI Key>  (644) 
RLKNCKNRMYVAGU-UHFFFAOYSA-N

>  <PERCENTSP3>  (644) 
33.3

>  <Link>  (644) 
https://www.chemdiv.com/catalog/screening-compounds/compound-D321-0411/

>  <MFCDNUMBER>  (644) 
MFCD14819087

>  <CLNUMBER>  (644) 
CL5000

>  <STEREO>  (644) 
ACHIRAL

>  <State>  (644) 
Solid

>  <Similarity score>  (644) 
0.19

$$$$
N-(6-tert-butyl-3-cyano-4,5,6,7-tetrahydro-1-benzothiophen-2-yl)-5-cyclopropyl-1
     RDKit          2D

 26 29  0  0  0  0  0  0  0  0999 V2000
    0.0234   -0.6624    0.0000 C   0  0  0  0  0  0  0  0  0  0  0  0
   -0.7829   -1.2186    0.0000 C   0  0  0  0  0  0  0  0  0  0  0  0
    0.5024   -2.2002    0.0000 C   0  0  0  0  0  0  0  0  0  0  0  0
   -0.5046   -2.1813    0.0000 C   0  0  0  0  0  0  0  0  0  0  0  0
    0.8388    2.6419    0.0000 C   0  0  0  0  0  0  0  0  0  0  0  0
    0.8249   -1.2629    0.0000 S   0  0  0  0  0  0  0  0  0  0  0  0
    0.0983    3.1865    0.0000 N   0  0  0  0  0  0  0  0  0  0  0  0
    0.0234    0.3494    0.0000 N   0  0  0  0  0  0  0  0  0  0  0  0
    1.5938    3.1654    0.0000 C   0  0  0  0  0  0  0  0  0  0  0  0
    0.8856    0.8494    0.0000 C   0  0  0  0  0  0  0  0  0  0  0  0
    1.3226    4.0462    0.0000 C   0  0  0  0  0  0  0  0  0  0  0  0
    0.4020    4.0462    0.0000 O   0  0  0  0  0  0  0  0  0  0  0  0
    1.8462    4.8012    0.0000 C   0  0  0  0  0  0  0  0  0  0  0  0
   -1.7244   -0.8892    0.0000 C   0  0  0  0  0  0  0  0  0  0  0  0
    0.9746   -3.0764    0.0000 C   0  0  0  0  0  0  0  0  0  0  0  0
   -2.6757   -0.5550    0.0000 N   0  0  0  0  0  0  0  0  0  0  0  0
    1.9114    5.7195    0.0000 C   0  0  0  0  0  0  0  0  0  0  0  0
    2.6757    5.1937    0.0000 C   0  0  0  0  0  0  0  0  0  0  0  0
   -1.0190   -3.0274    0.0000 C   0  0  0  0  0  0  0  0  0  0  0  0
    0.4463   -3.9318    0.0000 C   0  0  0  0  0  0  0  0  0  0  0  0
    0.9255   -4.8244    0.0000 C   0  0  0  0  0  0  0  0  0  0  0  0
    1.6708    0.3657    0.0000 O   0  0  0  0  0  0  0  0  0  0  0  0
   -0.5398   -3.9013    0.0000 C   0  0  0  0  0  0  0  0  0  0  0  0
    0.0234   -5.2918    0.0000 C   0  0  0  0  0  0  0  0  0  0  0  0
    1.8160   -4.3617    0.0000 C   0  0  0  0  0  0  0  0  0  0  0  0
    1.3834   -5.7195    0.0000 C   0  0  0  0  0  0  0  0  0  0  0  0
  1  2  2  0
  3  6  1  0
  3  4  2  0
  2  4  1  0
  5 10  1  0
  1  6  1  0
  5  7  2  0
  1  8  1  0
  5  9  1  0
  8 10  1  0
  9 11  2  0
 11 12  1  0
  7 12  1  0
 11 13  1  0
  2 14  1  0
  3 15  1  0
 14 16  3  0
 13 17  1  0
 13 18  1  0
 17 18  1  0
  4 19  1  0
 15 20  1  0
 20 21  1  0
 10 22  2  0
 19 23  1  0
 20 23  1  0
 21 24  1  0
 21 25  1  0
 21 26  1  0
M  END
>  <IDNUMBER>  (645) 
C226-2721

>  <available>  (645) 
38

>  <H_acceptor>  (645) 
5

>  <H_donor>  (645) 
1

>  <B_rotN>  (645) 
6

>  <N_O>  (645) 
5

>  <logP>  (645) 
5.257

>  <logD>  (645) 
3.5866

>  <logSw>  (645) 
-5.1111

>  <PSA>  (645) 
62.159

>  <pKa_ma>  (645) 
5.739

>  <pKa_mb>  (645) 
-6.3564

>  <N_Chirals>  (645) 
1

>  <Name>  (645) 
N-(6-tert-butyl-3-cyano-4,5,6,7-tetrahydro-1-benzothiophen-2-yl)-5-cyclopropyl-1,2-oxazole-3-carboxamide

>  <Smile>  (645) 
CC(C)(C)C(CC1)Cc2c1c(C#N)c(NC(c1noc(C3CC3)c1)=O)s2

>  <Color>  (645) 
ORANGE

>  <Collection>  (645) 
DC

>  <InChI>  (645) 
InChI=1S/C20H23N3O2S/c1-20(2,3)12-6-7-13-14(10-21)19(26-17(13)8-12)22-18(24)15-9-16(25-23-15)11-4-5-11/h9,11-12H,4-8H2,1-3H3,(H,22,24)/t12-/m1/s1

>  <InChI Key>  (645) 
QHKHYYOCRLMJAA-GFCCVEGCSA-N

>  <PERCENTSP3>  (645) 
55

>  <Link>  (645) 
https://www.chemdiv.com/catalog/screening-compounds/compound-C226-2721/

>  <MFCDNUMBER>  (645) 
MFCD14733161

>  <CLNUMBER>  (645) 
CL2030

>  <STEREO>  (645) 
RACEMIC MIXTURE

>  <State>  (645) 
Solid

>  <Similarity score>  (645) 
0.19

$$$$
2-{[4-(difluoromethyl)-6-(3,4-dimethoxyphenyl)pyrimidin-2-yl]amino}-4,5,6,7-tetr
     RDKit          2D

 31 34  0  0  0  0  0  0  0  0999 V2000
    2.2087    0.0042    0.0000 C   0  0  0  0  0  0  0  0  0  0  0  0
    1.7962   -0.9210    0.0000 C   0  0  0  0  0  0  0  0  0  0  0  0
    0.7085    0.8668    0.0000 C   0  0  0  0  0  0  0  0  0  0  0  0
    3.2089   -0.0959    0.0000 S   0  0  0  0  0  0  0  0  0  0  0  0
    1.7086    0.8668    0.0000 N   0  0  0  0  0  0  0  0  0  0  0  0
    2.5462   -1.5793    0.0000 C   0  0  0  0  0  0  0  0  0  0  0  0
    3.4171   -1.0960    0.0000 C   0  0  0  0  0  0  0  0  0  0  0  0
    0.2084    0.0042    0.0000 N   0  0  0  0  0  0  0  0  0  0  0  0
    0.2168    1.7294    0.0000 N   0  0  0  0  0  0  0  0  0  0  0  0
   -0.7918    0.0042    0.0000 C   0  0  0  0  0  0  0  0  0  0  0  0
   -0.7833    1.7336    0.0000 C   0  0  0  0  0  0  0  0  0  0  0  0
    0.8418   -1.1461    0.0000 C   0  0  0  0  0  0  0  0  0  0  0  0
   -1.2919    0.8709    0.0000 C   0  0  0  0  0  0  0  0  0  0  0  0
   -0.1167   -1.3711    0.0000 N   0  0  0  0  0  0  0  0  0  0  0  0
   -1.2919   -0.8585    0.0000 C   0  0  0  0  0  0  0  0  0  0  0  0
   -2.2920   -0.8585    0.0000 C   0  0  0  0  0  0  0  0  0  0  0  0
   -2.7920   -1.7294    0.0000 C   0  0  0  0  0  0  0  0  0  0  0  0
   -1.2837    2.5962    0.0000 C   0  0  0  0  0  0  0  0  0  0  0  0
   -2.2920   -2.5962    0.0000 C   0  0  0  0  0  0  0  0  0  0  0  0
   -0.7918   -1.7294    0.0000 C   0  0  0  0  0  0  0  0  0  0  0  0
   -1.2919   -2.5962    0.0000 C   0  0  0  0  0  0  0  0  0  0  0  0
   -0.7709    3.4589    0.0000 F   0  0  0  0  0  0  0  0  0  0  0  0
   -2.2836    2.6046    0.0000 F   0  0  0  0  0  0  0  0  0  0  0  0
    2.5295   -2.5588    0.0000 C   0  0  0  0  0  0  0  0  0  0  0  0
   -3.7921   -1.7294    0.0000 O   0  0  0  0  0  0  0  0  0  0  0  0
    4.2923   -1.5920    0.0000 C   0  0  0  0  0  0  0  0  0  0  0  0
   -2.7920   -3.4589    0.0000 O   0  0  0  0  0  0  0  0  0  0  0  0
   -4.2923   -0.8585    0.0000 C   0  0  0  0  0  0  0  0  0  0  0  0
   -3.7921   -3.4589    0.0000 C   0  0  0  0  0  0  0  0  0  0  0  0
    3.3963   -3.0838    0.0000 C   0  0  0  0  0  0  0  0  0  0  0  0
    4.2674   -2.5962    0.0000 C   0  0  0  0  0  0  0  0  0  0  0  0
  1  2  2  0
  3  5  1  0
  1  4  1  0
  1  5  1  0
  2  6  1  0
  4  7  1  0
  6  7  2  0
  3  8  1  0
  3  9  2  0
  8 10  2  0
 10 13  1  0
  9 11  1  0
  2 12  1  0
 11 13  2  0
 12 14  3  0
 10 15  1  0
 15 16  1  0
 16 17  2  0
 11 18  1  0
 19 21  2  0
 17 19  1  0
 15 20  2  0
 20 21  1  0
 18 22  1  0
 18 23  1  0
  6 24  1  0
 17 25  1  0
  7 26  1  0
 19 27  1  0
 25 28  1  0
 27 29  1  0
 24 30  1  0
 26 31  1  0
 30 31  1  0
M  END
>  <IDNUMBER>  (646) 
Y505-1727

>  <available>  (646) 
21

>  <H_acceptor>  (646) 
5

>  <H_donor>  (646) 
1

>  <B_rotN>  (646) 
7

>  <N_O>  (646) 
6

>  <logP>  (646) 
5.304

>  <logD>  (646) 
5.2988

>  <logSw>  (646) 
-5.4523

>  <PSA>  (646) 
60.617

>  <pKa_ma>  (646) 
11.8181

>  <pKa_mb>  (646) 
5.4812

>  <N_Chirals>  (646) 
0

>  <Name>  (646) 
2-{[4-(difluoromethyl)-6-(3,4-dimethoxyphenyl)pyrimidin-2-yl]amino}-4,5,6,7-tetrahydro-1-benzothiophene-3-carbonitrile

>  <Smile>  (646) 
COc(ccc(-c1cc(C(F)F)nc(Nc(sc2c3CCCC2)c3C#N)n1)c1)c1OC

>  <Color>  (646) 
BROWN

>  <Collection>  (646) 
DC

>  <InChI>  (646) 
InChI=1S/C22H20F2N4O2S/c1-29-17-8-7-12(9-18(17)30-2)15-10-16(20(23)24)27-22(26-15)28-21-14(11-25)13-5-3-4-6-19(13)31-21/h7-10,20H,3-6H2,1-2H3,(H,26,27,28)

>  <InChI Key>  (646) 
SFFNXGXGTBBPOK-UHFFFAOYSA-N

>  <PERCENTSP3>  (646) 
31.8

>  <Link>  (646) 
https://www.chemdiv.com/catalog/screening-compounds/compound-Y505-1727/

>  <MFCDNUMBER>  (646) 
MFCD10700556

>  <STEREO>  (646) 
ACHIRAL

>  <State>  (646) 
Solid

>  <Similarity score>  (646) 
0.19

$$$$
2-[(6-amino-4-oxo-1,4-dihydropyrimidin-2-yl)sulfanyl]-N-(3-cyano-4,5,6,7-tetrahy
     RDKit          2D

 24 26  0  0  0  0  0  0  0  0999 V2000
   -0.3565   -1.3930    0.0000 C   0  0  0  0  0  0  0  0  0  0  0  0
   -1.1573   -2.0186    0.0000 C   0  0  0  0  0  0  0  0  0  0  0  0
    0.4191    3.1154    0.0000 N   0  0  0  0  0  0  0  0  0  0  0  0
    1.3075    2.6107    0.0000 C   0  0  0  0  0  0  0  0  0  0  0  0
    0.4442   -1.8892    0.0000 S   0  0  0  0  0  0  0  0  0  0  0  0
    2.1790    3.0736    0.0000 N   0  0  0  0  0  0  0  0  0  0  0  0
   -0.7568   -2.9069    0.0000 C   0  0  0  0  0  0  0  0  0  0  0  0
    0.1939   -2.8818    0.0000 C   0  0  0  0  0  0  0  0  0  0  0  0
    2.1790    4.1080    0.0000 C   0  0  0  0  0  0  0  0  0  0  0  0
    0.4191    4.1289    0.0000 C   0  0  0  0  0  0  0  0  0  0  0  0
    1.2824    4.5959    0.0000 C   0  0  0  0  0  0  0  0  0  0  0  0
   -0.3983   -0.3545    0.0000 N   0  0  0  0  0  0  0  0  0  0  0  0
   -2.1082   -1.7766    0.0000 C   0  0  0  0  0  0  0  0  0  0  0  0
   -3.1342   -1.5306    0.0000 N   0  0  0  0  0  0  0  0  0  0  0  0
    0.4442    0.1835    0.0000 C   0  0  0  0  0  0  0  0  0  0  0  0
    1.3075    1.5847    0.0000 S   0  0  0  0  0  0  0  0  0  0  0  0
   -0.4233    4.6418    0.0000 O   0  0  0  0  0  0  0  0  0  0  0  0
    1.3075   -0.3921    0.0000 O   0  0  0  0  0  0  0  0  0  0  0  0
    3.1342    4.6209    0.0000 N   0  0  0  0  0  0  0  0  0  0  0  0
    0.4442    1.1219    0.0000 C   0  0  0  0  0  0  0  0  0  0  0  0
   -1.1990   -3.7952    0.0000 C   0  0  0  0  0  0  0  0  0  0  0  0
    0.7319   -3.6658    0.0000 C   0  0  0  0  0  0  0  0  0  0  0  0
   -0.6694   -4.6418    0.0000 C   0  0  0  0  0  0  0  0  0  0  0  0
    0.3066   -4.5542    0.0000 C   0  0  0  0  0  0  0  0  0  0  0  0
  1  2  2  0
  3  4  2  0
  4 16  1  0
  1  5  1  0
  4  6  1  0
  2  7  1  0
  5  8  1  0
  7  8  2  0
  6  9  1  0
  3 10  1  0
 10 11  1  0
  9 11  2  0
  1 12  1  0
  2 13  1  0
 13 14  3  0
 12 15  1  0
 16 20  1  0
 10 17  2  0
 15 18  2  0
  9 19  1  0
 15 20  1  0
  7 21  1  0
  8 22  1  0
 21 23  1  0
 22 24  1  0
 23 24  1  0
M  END
>  <IDNUMBER>  (647) 
Y511-6721

>  <available>  (647) 
50

>  <H_acceptor>  (647) 
7

>  <H_donor>  (647) 
4

>  <B_rotN>  (647) 
6

>  <N_O>  (647) 
7

>  <logP>  (647) 
1.082

>  <logD>  (647) 
0.2234

>  <logSw>  (647) 
-1.974

>  <PSA>  (647) 
94.6

>  <pKa_ma>  (647) 
6.606

>  <pKa_mb>  (647) 
0.4058

>  <N_Chirals>  (647) 
0

>  <Name>  (647) 
2-[(6-amino-4-oxo-1,4-dihydropyrimidin-2-yl)sulfanyl]-N-(3-cyano-4,5,6,7-tetrahydro-1-benzothiophen-2-yl)acetamide

>  <Smile>  (647) 
c1(c(c2c(s1)CCCC2)C#N)NC(=O)CS/C/1=N/C(/C=C(\N1)/N)=O

>  <Color>  (647) 
ORANGE

>  <Collection>  (647) 
DC

>  <InChI>  (647) 
InChI=1S/C15H15N5O2S2/c16-6-9-8-3-1-2-4-10(8)24-14(9)19-13(22)7-23-15-18-11(17)5-12(21)20-15/h5H,1-4,7H2,(H,19,22)(H3,17,18,20,21)

>  <InChI Key>  (647) 
XCMFUQYVTWLQHZ-UHFFFAOYSA-N

>  <PERCENTSP3>  (647) 
33.3

>  <Link>  (647) 
https://www.chemdiv.com/catalog/screening-compounds/compound-Y511-6721/

>  <MFCDNUMBER>  (647) 
MFCD02873604

>  <STEREO>  (647) 
ACHIRAL

>  <State>  (647) 
Solid

>  <Similarity score>  (647) 
0.19

$$$$
N-(6-tert-butyl-3-cyano-4,5,6,7-tetrahydro-1-benzothiophen-2-yl)-2-(2-chloro-5-m
     RDKit          2D

 29 31  0  0  0  0  0  0  0  0999 V2000
    1.0395    0.1021    0.0000 C   0  0  0  0  0  0  0  0  0  0  0  0
    1.8477    0.7605    0.0000 C   0  0  0  0  0  0  0  0  0  0  0  0
    2.4185   -0.7851    0.0000 C   0  0  0  0  0  0  0  0  0  0  0  0
    2.6851    0.1647    0.0000 C   0  0  0  0  0  0  0  0  0  0  0  0
    1.4061   -0.8229    0.0000 S   0  0  0  0  0  0  0  0  0  0  0  0
    0.1021    0.3563    0.0000 N   0  0  0  0  0  0  0  0  0  0  0  0
   -0.5935   -0.3687    0.0000 C   0  0  0  0  0  0  0  0  0  0  0  0
    1.8351    1.7477    0.0000 C   0  0  0  0  0  0  0  0  0  0  0  0
   -3.2017   -0.6187    0.0000 C   0  0  0  0  0  0  0  0  0  0  0  0
    3.0893   -1.5061    0.0000 C   0  0  0  0  0  0  0  0  0  0  0  0
   -2.2269   -0.8353    0.0000 O   0  0  0  0  0  0  0  0  0  0  0  0
    1.8227    2.7351    0.0000 N   0  0  0  0  0  0  0  0  0  0  0  0
    3.6475    0.4063    0.0000 C   0  0  0  0  0  0  0  0  0  0  0  0
    4.0641   -1.2519    0.0000 C   0  0  0  0  0  0  0  0  0  0  0  0
   -1.5685   -0.1021    0.0000 C   0  0  0  0  0  0  0  0  0  0  0  0
    4.7725   -2.0019    0.0000 C   0  0  0  0  0  0  0  0  0  0  0  0
   -3.4935    0.2895    0.0000 C   0  0  0  0  0  0  0  0  0  0  0  0
   -0.3271   -1.2895    0.0000 O   0  0  0  0  0  0  0  0  0  0  0  0
   -3.8351   -1.3561    0.0000 C   0  0  0  0  0  0  0  0  0  0  0  0
    4.3433   -0.2895    0.0000 C   0  0  0  0  0  0  0  0  0  0  0  0
   -4.4683    0.4937    0.0000 C   0  0  0  0  0  0  0  0  0  0  0  0
   -4.8347   -1.1643    0.0000 C   0  0  0  0  0  0  0  0  0  0  0  0
   -2.8225    1.0645    0.0000 Cl  0  0  0  0  0  0  0  0  0  0  0  0
   -5.1515   -0.2395    0.0000 C   0  0  0  0  0  0  0  0  0  0  0  0
    5.5181   -1.2895    0.0000 C   0  0  0  0  0  0  0  0  0  0  0  0
    4.0517   -2.7225    0.0000 C   0  0  0  0  0  0  0  0  0  0  0  0
    5.4807   -2.7351    0.0000 C   0  0  0  0  0  0  0  0  0  0  0  0
   -1.8603    0.8479    0.0000 C   0  0  0  0  0  0  0  0  0  0  0  0
   -5.5181   -1.9225    0.0000 C   0  0  0  0  0  0  0  0  0  0  0  0
  1  2  2  0
  3  5  1  0
  2  4  1  0
  3  4  2  0
  1  5  1  0
  1  6  1  0
  6  7  1  0
  2  8  1  0
  9 11  1  0
  3 10  1  0
 11 15  1  0
  8 12  3  0
  4 13  1  0
 10 14  1  0
 14 20  1  0
  7 15  1  0
 14 16  1  0
  9 17  1  0
  7 18  2  0
  9 19  2  0
 13 20  1  0
 17 21  2  0
 19 22  1  0
 17 23  1  0
 22 24  2  0
 21 24  1  0
 16 25  1  0
 16 26  1  0
 16 27  1  0
 15 28  1  0
 22 29  1  0
M  END
>  <IDNUMBER>  (648) 
Y203-0090

>  <available>  (648) 
19

>  <H_acceptor>  (648) 
4

>  <H_donor>  (648) 
1

>  <B_rotN>  (648) 
7

>  <N_O>  (648) 
4

>  <logP>  (648) 
6.7006

>  <logD>  (648) 
5.2827

>  <logSw>  (648) 
-6.5245

>  <PSA>  (648) 
46.977

>  <pKa_ma>  (648) 
5.9989

>  <pKa_mb>  (648) 
-5.485

>  <N_Chirals>  (648) 
2

>  <Name>  (648) 
N-(6-tert-butyl-3-cyano-4,5,6,7-tetrahydro-1-benzothiophen-2-yl)-2-(2-chloro-5-methylphenoxy)propanamide

>  <Smile>  (648) 
CC(C(Nc(sc(C1)c2CCC1C(C)(C)C)c2C#N)=O)Oc(cc(C)cc1)c1Cl

>  <Color>  (648) 
NOT COLORED

>  <Collection>  (648) 
DC

>  <InChI>  (648) 
InChI=1S/C23H27ClN2O2S/c1-13-6-9-18(24)19(10-13)28-14(2)21(27)26-22-17(12-25)16-8-7-15(23(3,4)5)11-20(16)29-22/h6,9-10,14-15H,7-8,11H2,1-5H3,(H,26,27)

>  <InChI Key>  (648) 
MCSNZOBIVIMKIB-UHFFFAOYSA-N

>  <PERCENTSP3>  (648) 
47.83

>  <Link>  (648) 
https://www.chemdiv.com/catalog/screening-compounds/compound-Y203-0090/

>  <MFCDNUMBER>  (648) 
MFCD03944493

>  <STEREO>  (648) 
MIXTURE OF STEREOISOMERS

>  <State>  (648) 
Solid

>  <Similarity score>  (648) 
0.19

$$$$
N-(3-cyano-6-methyl-4,5,6,7-tetrahydro-1-benzothiophen-2-yl)-6-(furan-2-yl)-3-ph
     RDKit          2D

 35 40  0  0  0  0  0  0  0  0999 V2000
    0.7980   -1.0812    0.0000 C   0  0  0  0  0  0  0  0  0  0  0  0
    1.1228   -2.0438    0.0000 C   0  0  0  0  0  0  0  0  0  0  0  0
   -1.5062    1.4936    0.0000 C   0  0  0  0  0  0  0  0  0  0  0  0
   -2.4602    1.8021    0.0000 C   0  0  0  0  0  0  0  0  0  0  0  0
   -1.3060    0.5147    0.0000 C   0  0  0  0  0  0  0  0  0  0  0  0
    2.1145   -2.0311    0.0000 C   0  0  0  0  0  0  0  0  0  0  0  0
    2.4353   -1.0853    0.0000 C   0  0  0  0  0  0  0  0  0  0  0  0
    1.6145   -0.4896    0.0000 S   0  0  0  0  0  0  0  0  0  0  0  0
   -1.5144    3.1061    0.0000 N   0  0  0  0  0  0  0  0  0  0  0  0
   -0.9229    2.3020    0.0000 C   0  0  0  0  0  0  0  0  0  0  0  0
   -0.1479   -0.7728    0.0000 N   0  0  0  0  0  0  0  0  0  0  0  0
   -0.3520    0.2022    0.0000 C   0  0  0  0  0  0  0  0  0  0  0  0
   -3.2103    1.1311    0.0000 N   0  0  0  0  0  0  0  0  0  0  0  0
   -2.4602    2.7978    0.0000 O   0  0  0  0  0  0  0  0  0  0  0  0
   -2.9978    0.1520    0.0000 C   0  0  0  0  0  0  0  0  0  0  0  0
   -2.0395   -0.1561    0.0000 C   0  0  0  0  0  0  0  0  0  0  0  0
    0.5645   -2.8603    0.0000 C   0  0  0  0  0  0  0  0  0  0  0  0
   -3.7394   -0.5061    0.0000 C   0  0  0  0  0  0  0  0  0  0  0  0
    0.0021   -3.6686    0.0000 N   0  0  0  0  0  0  0  0  0  0  0  0
    2.7603   -2.7685    0.0000 C   0  0  0  0  0  0  0  0  0  0  0  0
    3.4187   -0.8645    0.0000 C   0  0  0  0  0  0  0  0  0  0  0  0
   -3.4310   -1.4603    0.0000 O   0  0  0  0  0  0  0  0  0  0  0  0
    0.3937    0.8773    0.0000 O   0  0  0  0  0  0  0  0  0  0  0  0
    0.0564    2.5104    0.0000 C   0  0  0  0  0  0  0  0  0  0  0  0
   -4.7433   -0.5147    0.0000 C   0  0  0  0  0  0  0  0  0  0  0  0
   -4.2435   -2.0562    0.0000 C   0  0  0  0  0  0  0  0  0  0  0  0
   -5.0518   -1.4646    0.0000 C   0  0  0  0  0  0  0  0  0  0  0  0
    3.7603   -2.5769    0.0000 C   0  0  0  0  0  0  0  0  0  0  0  0
    4.0811   -1.6268    0.0000 C   0  0  0  0  0  0  0  0  0  0  0  0
    0.7188    1.7647    0.0000 C   0  0  0  0  0  0  0  0  0  0  0  0
    0.3647    3.4602    0.0000 C   0  0  0  0  0  0  0  0  0  0  0  0
    5.0518   -1.4646    0.0000 C   0  0  0  0  0  0  0  0  0  0  0  0
    1.3354    3.6686    0.0000 C   0  0  0  0  0  0  0  0  0  0  0  0
    1.6979    1.9770    0.0000 C   0  0  0  0  0  0  0  0  0  0  0  0
    2.0062    2.9270    0.0000 C   0  0  0  0  0  0  0  0  0  0  0  0
  1  2  2  0
  3  5  1  0
  3  4  2  0
  4 13  1  0
  5 12  1  0
  2  6  1  0
  6  7  2  0
  7  8  1  0
  1  8  1  0
  9 10  2  0
  9 14  1  0
  3 10  1  0
  1 11  1  0
 11 12  1  0
 13 15  2  0
  4 14  1  0
 15 16  1  0
  5 16  2  0
  2 17  1  0
 15 18  1  0
 17 19  3  0
  6 20  1  0
  7 21  1  0
 18 22  1  0
 12 23  2  0
 10 24  1  0
 18 25  2  0
 22 26  1  0
 26 27  2  0
 25 27  1  0
 20 28  1  0
 28 29  1  0
 21 29  1  0
 24 30  2  0
 24 31  1  0
 29 32  1  0
 31 33  2  0
 30 34  1  0
 34 35  2  0
 33 35  1  0
M  END
>  <IDNUMBER>  (649) 
Y501-6664

>  <available>  (649) 
29

>  <H_acceptor>  (649) 
7

>  <H_donor>  (649) 
1

>  <B_rotN>  (649) 
6

>  <N_O>  (649) 
7

>  <logP>  (649) 
5.9162

>  <logD>  (649) 
5.3094

>  <logSw>  (649) 
-5.8785

>  <PSA>  (649) 
79.124

>  <pKa_ma>  (649) 
6.9166

>  <pKa_mb>  (649) 
-4.0324

>  <N_Chirals>  (649) 
1

>  <Name>  (649) 
N-(3-cyano-6-methyl-4,5,6,7-tetrahydro-1-benzothiophen-2-yl)-6-(furan-2-yl)-3-phenyl[1,2]oxazolo[5,4-b]pyridine-4-carboxamide

>  <Smile>  (649) 
CC(CC1)Cc2c1c(C#N)c(NC(c1c(c(-c3ccccc3)no3)c3nc(-c3ccco3)c1)=O)s2

>  <Color>  (649) 
ORANGE

>  <Collection>  (649) 
DC

>  <InChI>  (649) 
InChI=1S/C27H20N4O3S/c1-15-9-10-17-19(14-28)27(35-22(17)12-15)30-25(32)18-13-20(21-8-5-11-33-21)29-26-23(18)24(31-34-26)16-6-3-2-4-7-16/h2-8,11,13,15H,9-10,12H2,1H3,(H,30,32)/t15-/m1/s1

>  <InChI Key>  (649) 
IIPXLUKWQQTBEF-OAHLLOKOSA-N

>  <PERCENTSP3>  (649) 
18.5

>  <Link>  (649) 
https://www.chemdiv.com/catalog/screening-compounds/compound-Y501-6664/

>  <MFCDNUMBER>  (649) 
MFCD08557383

>  <CLNUMBER>  (649) 
CL7490

>  <STEREO>  (649) 
RACEMIC MIXTURE

>  <State>  (649) 
Solid

>  <Similarity score>  (649) 
0.19

$$$$
4-[3-(4-chlorophenyl)-1,2,4-oxadiazol-5-yl]-N-(3-cyano-6-methyl-4,5,6,7-tetrahyd
     RDKit          2D

 30 33  0  0  0  0  0  0  0  0999 V2000
    2.2786    2.0660    0.0000 C   0  0  0  0  0  0  0  0  0  0  0  0
    2.4911    1.0662    0.0000 C   0  0  0  0  0  0  0  0  0  0  0  0
    3.4657    0.9664    0.0000 C   0  0  0  0  0  0  0  0  0  0  0  0
    3.8781    1.8912    0.0000 C   0  0  0  0  0  0  0  0  0  0  0  0
    3.1367    2.5410    0.0000 S   0  0  0  0  0  0  0  0  0  0  0  0
   -1.8203   -0.9207    0.0000 N   0  0  0  0  0  0  0  0  0  0  0  0
   -2.4327   -1.7080    0.0000 C   0  0  0  0  0  0  0  0  0  0  0  0
   -1.8620   -2.5410    0.0000 N   0  0  0  0  0  0  0  0  0  0  0  0
    1.3538    2.4659    0.0000 N   0  0  0  0  0  0  0  0  0  0  0  0
    1.8038    0.3166    0.0000 C   0  0  0  0  0  0  0  0  0  0  0  0
   -0.8831   -1.2540    0.0000 C   0  0  0  0  0  0  0  0  0  0  0  0
   -0.9080   -2.2661    0.0000 O   0  0  0  0  0  0  0  0  0  0  0  0
    1.1288   -0.4291    0.0000 N   0  0  0  0  0  0  0  0  0  0  0  0
    4.0407    0.1540    0.0000 C   0  0  0  0  0  0  0  0  0  0  0  0
    0.5540    1.8912    0.0000 C   0  0  0  0  0  0  0  0  0  0  0  0
   -3.4448   -1.6913    0.0000 C   0  0  0  0  0  0  0  0  0  0  0  0
    4.8737    1.9785    0.0000 C   0  0  0  0  0  0  0  0  0  0  0  0
   -0.3333    2.2786    0.0000 O   0  0  0  0  0  0  0  0  0  0  0  0
   -3.9614   -2.5410    0.0000 C   0  0  0  0  0  0  0  0  0  0  0  0
   -3.9322   -0.8040    0.0000 C   0  0  0  0  0  0  0  0  0  0  0  0
    5.0361    0.2415    0.0000 C   0  0  0  0  0  0  0  0  0  0  0  0
   -5.4569   -1.6287    0.0000 C   0  0  0  0  0  0  0  0  0  0  0  0
   -4.9445   -0.7833    0.0000 C   0  0  0  0  0  0  0  0  0  0  0  0
   -4.9737   -2.5203    0.0000 C   0  0  0  0  0  0  0  0  0  0  0  0
    5.4487    1.1580    0.0000 C   0  0  0  0  0  0  0  0  0  0  0  0
   -6.4400   -1.5913    0.0000 Cl  0  0  0  0  0  0  0  0  0  0  0  0
   -0.0624   -0.6708    0.0000 C   0  0  0  0  0  0  0  0  0  0  0  0
    0.6623    0.9163    0.0000 C   0  0  0  0  0  0  0  0  0  0  0  0
   -0.1582    0.3290    0.0000 C   0  0  0  0  0  0  0  0  0  0  0  0
    6.4400    1.2538    0.0000 C   0  0  0  0  0  0  0  0  0  0  0  0
  1  2  2  0
  2  3  1  0
  4  5  1  0
  3  4  2  0
  1  5  1  0
  6 11  2  0
  6  7  1  0
  8 12  1  0
  7  8  2  0
  1  9  1  0
  2 10  1  0
 11 27  1  0
 11 12  1  0
 10 13  3  0
  3 14  1  0
  9 15  1  0
  7 16  1  0
  4 17  1  0
 15 18  2  0
 16 19  2  0
 16 20  1  0
 14 21  1  0
 22 23  1  0
 20 23  2  0
 19 24  1  0
 22 24  2  0
 17 25  1  0
 21 25  1  0
 22 26  1  0
 27 29  1  0
 15 28  1  0
 28 29  1  0
 25 30  1  0
M  END
>  <IDNUMBER>  (650) 
D321-0469

>  <available>  (650) 
97

>  <H_acceptor>  (650) 
6

>  <H_donor>  (650) 
1

>  <B_rotN>  (650) 
8

>  <N_O>  (650) 
6

>  <logP>  (650) 
5.4789

>  <logD>  (650) 
4.1657

>  <logSw>  (650) 
-6.1582

>  <PSA>  (650) 
71.23

>  <pKa_ma>  (650) 
6.1085

>  <pKa_mb>  (650) 
-3.8515

>  <N_Chirals>  (650) 
1

>  <Name>  (650) 
4-[3-(4-chlorophenyl)-1,2,4-oxadiazol-5-yl]-N-(3-cyano-6-methyl-4,5,6,7-tetrahydro-1-benzothiophen-2-yl)butanamide

>  <Smile>  (650) 
CC(CC1)Cc2c1c(C#N)c(NC(CCCc1nc(-c(cc3)ccc3Cl)no1)=O)s2

>  <Color>  (650) 
NOT COLORED

>  <Collection>  (650) 
DC

>  <InChI>  (650) 
InChI=1S/C22H21ClN4O2S/c1-13-5-10-16-17(12-24)22(30-18(16)11-13)25-19(28)3-2-4-20-26-21(27-29-20)14-6-8-15(23)9-7-14/h6-9,13H,2-5,10-11H2,1H3,(H,25,28)/t13-/m1/s1

>  <InChI Key>  (650) 
WEKULDGCPFUSPF-CYBMUJFWSA-N

>  <PERCENTSP3>  (650) 
36.4

>  <Link>  (650) 
https://www.chemdiv.com/catalog/screening-compounds/compound-D321-0469/

>  <MFCDNUMBER>  (650) 
MFCD14819089

>  <CLNUMBER>  (650) 
CL5000

>  <STEREO>  (650) 
RACEMIC MIXTURE

>  <State>  (650) 
Solid

>  <Similarity score>  (650) 
0.19

$$$$
N-[(3-cyano-5,6-dihydro-4H-cyclopenta[b]thiophen-2-yl)carbamothioyl]-5-methyl-3-
     RDKit          2D

 28 31  0  0  0  0  0  0  0  0999 V2000
   -1.2568    1.3505    0.0000 C   0  0  0  0  0  0  0  0  0  0  0  0
   -1.8403    2.1715    0.0000 C   0  0  0  0  0  0  0  0  0  0  0  0
    2.7572   -0.3751    0.0000 C   0  0  0  0  0  0  0  0  0  0  0  0
    1.7485   -0.3751    0.0000 C   0  0  0  0  0  0  0  0  0  0  0  0
    4.3243   -0.7253    0.0000 N   0  0  0  0  0  0  0  0  0  0  0  0
   -1.8403    0.5459    0.0000 S   0  0  0  0  0  0  0  0  0  0  0  0
    3.4322   -1.1296    0.0000 C   0  0  0  0  0  0  0  0  0  0  0  0
   -2.7905    1.8631    0.0000 C   0  0  0  0  0  0  0  0  0  0  0  0
   -0.2564    1.3505    0.0000 N   0  0  0  0  0  0  0  0  0  0  0  0
    1.2482    0.4876    0.0000 N   0  0  0  0  0  0  0  0  0  0  0  0
    0.2355    0.4876    0.0000 C   0  0  0  0  0  0  0  0  0  0  0  0
   -2.7905    0.8585    0.0000 C   0  0  0  0  0  0  0  0  0  0  0  0
    4.2326    0.2751    0.0000 O   0  0  0  0  0  0  0  0  0  0  0  0
    3.2491    0.4876    0.0000 C   0  0  0  0  0  0  0  0  0  0  0  0
   -1.5318    3.1218    0.0000 C   0  0  0  0  0  0  0  0  0  0  0  0
   -1.2274    4.0680    0.0000 N   0  0  0  0  0  0  0  0  0  0  0  0
   -0.2564   -0.3876    0.0000 S   0  0  0  0  0  0  0  0  0  0  0  0
    1.2482   -1.2505    0.0000 O   0  0  0  0  0  0  0  0  0  0  0  0
    3.2491   -2.0923    0.0000 C   0  0  0  0  0  0  0  0  0  0  0  0
   -3.7408    2.1715    0.0000 C   0  0  0  0  0  0  0  0  0  0  0  0
   -3.7408    0.5459    0.0000 C   0  0  0  0  0  0  0  0  0  0  0  0
    2.8446    1.4088    0.0000 C   0  0  0  0  0  0  0  0  0  0  0  0
   -4.3243    1.3505    0.0000 C   0  0  0  0  0  0  0  0  0  0  0  0
    2.3237   -2.4508    0.0000 C   0  0  0  0  0  0  0  0  0  0  0  0
    4.0242   -2.7384    0.0000 C   0  0  0  0  0  0  0  0  0  0  0  0
    3.8616   -3.7180    0.0000 C   0  0  0  0  0  0  0  0  0  0  0  0
    2.1487   -3.4303    0.0000 C   0  0  0  0  0  0  0  0  0  0  0  0
    2.9196   -4.0680    0.0000 C   0  0  0  0  0  0  0  0  0  0  0  0
  1  2  2  0
  3  4  1  0
  4 10  1  0
  5  7  2  0
  1  6  1  0
  3  7  1  0
  2  8  1  0
  8 12  2  0
  1  9  1  0
 10 11  1  0
  9 11  1  0
  6 12  1  0
 13 14  1  0
  5 13  1  0
  3 14  2  0
  2 15  1  0
 15 16  3  0
 11 17  2  0
  4 18  2  0
  7 19  1  0
  8 20  1  0
 12 21  1  0
 14 22  1  0
 21 23  1  0
 20 23  1  0
 19 24  2  0
 19 25  1  0
 25 26  2  0
 24 27  1  0
 26 28  1  0
 27 28  2  0
M  END
>  <IDNUMBER>  (651) 
8015-9527

>  <available>  (651) 
6

>  <H_acceptor>  (651) 
7

>  <H_donor>  (651) 
2

>  <B_rotN>  (651) 
7

>  <N_O>  (651) 
6

>  <logP>  (651) 
3.9988

>  <logD>  (651) 
3.6408

>  <logSw>  (651) 
-4.3864

>  <PSA>  (651) 
72.337

>  <pKa_ma>  (651) 
7.2927

>  <pKa_mb>  (651) 
-6.8683

>  <N_Chirals>  (651) 
0

>  <Name>  (651) 
N-[(3-cyano-5,6-dihydro-4H-cyclopenta[b]thiophen-2-yl)carbamothioyl]-5-methyl-3-phenyl-1,2-oxazole-4-carboxamide

>  <Smile>  (651) 
Cc1c(C(NC(Nc(sc2c3CCC2)c3C#N)=S)=O)c(-c2ccccc2)no1

>  <Color>  (651) 
ORANGE

>  <Collection>  (651) 
DC

>  <InChI>  (651) 
InChI=1S/C20H16N4O2S2/c1-11-16(17(24-26-11)12-6-3-2-4-7-12)18(25)22-20(27)23-19-14(10-21)13-8-5-9-15(13)28-19/h2-4,6-7H,5,8-9H2,1H3,(H2,22,23,25,27)

>  <InChI Key>  (651) 
OETZIRPFQXQKQY-UHFFFAOYSA-N

>  <PERCENTSP3>  (651) 
20

>  <Link>  (651) 
https://www.chemdiv.com/catalog/screening-compounds/compound-8015-9527/

>  <MFCDNUMBER>  (651) 
MFCD03682695

>  <STEREO>  (651) 
ACHIRAL

>  <State>  (651) 
Solid

>  <Similarity score>  (651) 
0.19

$$$$
N-[(3-cyano-5,6,7,8-tetrahydro-4H-cyclohepta[b]thiophen-2-yl)carbamothioyl]-5-me
     RDKit          2D

 30 33  0  0  0  0  0  0  0  0999 V2000
   -0.9445    1.2925    0.0000 C   0  0  0  0  0  0  0  0  0  0  0  0
   -1.4574    2.1557    0.0000 C   0  0  0  0  0  0  0  0  0  0  0  0
    3.1083   -0.3711    0.0000 C   0  0  0  0  0  0  0  0  0  0  0  0
    2.1036   -0.3962    0.0000 C   0  0  0  0  0  0  0  0  0  0  0  0
    4.6720   -0.8340    0.0000 N   0  0  0  0  0  0  0  0  0  0  0  0
   -1.6075    0.5420    0.0000 S   0  0  0  0  0  0  0  0  0  0  0  0
    3.7338   -1.1717    0.0000 C   0  0  0  0  0  0  0  0  0  0  0  0
   -2.4329    1.9221    0.0000 C   0  0  0  0  0  0  0  0  0  0  0  0
    0.0562    1.3049    0.0000 N   0  0  0  0  0  0  0  0  0  0  0  0
    1.5823    0.4545    0.0000 N   0  0  0  0  0  0  0  0  0  0  0  0
    0.5817    0.4419    0.0000 C   0  0  0  0  0  0  0  0  0  0  0  0
   -2.5246    0.9297    0.0000 C   0  0  0  0  0  0  0  0  0  0  0  0
    4.6428    0.1584    0.0000 O   0  0  0  0  0  0  0  0  0  0  0  0
    3.6837    0.4419    0.0000 C   0  0  0  0  0  0  0  0  0  0  0  0
   -1.0737    3.0772    0.0000 C   0  0  0  0  0  0  0  0  0  0  0  0
   -0.6817    3.9986    0.0000 N   0  0  0  0  0  0  0  0  0  0  0  0
    0.0895   -0.4295    0.0000 S   0  0  0  0  0  0  0  0  0  0  0  0
    1.6282   -1.2717    0.0000 O   0  0  0  0  0  0  0  0  0  0  0  0
    3.4168   -2.1098    0.0000 C   0  0  0  0  0  0  0  0  0  0  0  0
   -3.1708    2.6184    0.0000 C   0  0  0  0  0  0  0  0  0  0  0  0
   -3.3586    0.3711    0.0000 C   0  0  0  0  0  0  0  0  0  0  0  0
    3.3544    1.3969    0.0000 C   0  0  0  0  0  0  0  0  0  0  0  0
    2.4454   -2.3226    0.0000 C   0  0  0  0  0  0  0  0  0  0  0  0
    4.0924   -2.8562    0.0000 C   0  0  0  0  0  0  0  0  0  0  0  0
   -4.1592    2.4725    0.0000 C   0  0  0  0  0  0  0  0  0  0  0  0
   -4.3092    0.6839    0.0000 C   0  0  0  0  0  0  0  0  0  0  0  0
    3.7796   -3.7985    0.0000 C   0  0  0  0  0  0  0  0  0  0  0  0
    2.1452   -3.2730    0.0000 C   0  0  0  0  0  0  0  0  0  0  0  0
   -4.6720    1.6053    0.0000 C   0  0  0  0  0  0  0  0  0  0  0  0
    2.7958   -3.9986    0.0000 C   0  0  0  0  0  0  0  0  0  0  0  0
  1  2  2  0
  3  4  1  0
  4 10  1  0
  5  7  2  0
  1  6  1  0
  3  7  1  0
  2  8  1  0
  1  9  1  0
 10 11  1  0
  9 11  1  0
  6 12  1  0
  8 12  2  0
 13 14  1  0
  5 13  1  0
  3 14  2  0
  2 15  1  0
 15 16  3  0
 11 17  2  0
  4 18  2  0
  7 19  1  0
  8 20  1  0
 12 21  1  0
 14 22  1  0
 19 23  2  0
 19 24  1  0
 20 25  1  0
 21 26  1  0
 24 27  2  0
 23 28  1  0
 26 29  1  0
 25 29  1  0
 27 30  1  0
 28 30  2  0
M  END
>  <IDNUMBER>  (652) 
Y512-4165

>  <available>  (652) 
87

>  <H_acceptor>  (652) 
7

>  <H_donor>  (652) 
2

>  <B_rotN>  (652) 
7

>  <N_O>  (652) 
6

>  <logP>  (652) 
4.905

>  <logD>  (652) 
4.558

>  <logSw>  (652) 
-4.702

>  <PSA>  (652) 
72.3

>  <pKa_ma>  (652) 
7.313

>  <pKa_mb>  (652) 
-6.868

>  <N_Chirals>  (652) 
0

>  <Name>  (652) 
N-[(3-cyano-5,6,7,8-tetrahydro-4H-cyclohepta[b]thiophen-2-yl)carbamothioyl]-5-methyl-3-phenyl-1,2-oxazole-4-carboxamide

>  <Smile>  (652) 
c1(c(c2c(s1)CCCCC2)C#N)NC(NC(c1c(noc1C)c1ccccc1)=O)=S

>  <Color>  (652) 
ORANGE

>  <Collection>  (652) 
DC

>  <InChI>  (652) 
InChI=1S/C22H20N4O2S2/c1-13-18(19(26-28-13)14-8-4-2-5-9-14)20(27)24-22(29)25-21-16(12-23)15-10-6-3-7-11-17(15)30-21/h2,4-5,8-9H,3,6-7,10-11H2,1H3,(H2,24,25,27,29)

>  <InChI Key>  (652) 
MBGSVWZLCYMILA-UHFFFAOYSA-N

>  <PERCENTSP3>  (652) 
27.3

>  <Link>  (652) 
https://www.chemdiv.com/catalog/screening-compounds/compound-Y512-4165/

>  <MFCDNUMBER>  (652) 
MFCD03680033

>  <STEREO>  (652) 
ACHIRAL

>  <State>  (652) 
Solid

>  <Similarity score>  (652) 
0.19

$$$$
N-[(3-cyano-4,5,6,7,8,9-hexahydrocycloocta[b]thiophen-2-yl)carbamothioyl]-5-meth
     RDKit          2D

 31 34  0  0  0  0  0  0  0  0999 V2000
   -0.8146    1.2773    0.0000 C   0  0  0  0  0  0  0  0  0  0  0  0
   -1.3356    2.1231    0.0000 C   0  0  0  0  0  0  0  0  0  0  0  0
    3.2484   -0.3605    0.0000 C   0  0  0  0  0  0  0  0  0  0  0  0
    2.2400   -0.3647    0.0000 C   0  0  0  0  0  0  0  0  0  0  0  0
    4.7902   -0.7854    0.0000 N   0  0  0  0  0  0  0  0  0  0  0  0
   -1.4564    0.5272    0.0000 S   0  0  0  0  0  0  0  0  0  0  0  0
    3.8777   -1.1482    0.0000 C   0  0  0  0  0  0  0  0  0  0  0  0
   -2.3063    1.9064    0.0000 C   0  0  0  0  0  0  0  0  0  0  0  0
    0.1814    1.3148    0.0000 N   0  0  0  0  0  0  0  0  0  0  0  0
    1.7023    0.4813    0.0000 N   0  0  0  0  0  0  0  0  0  0  0  0
    0.7272    0.4521    0.0000 C   0  0  0  0  0  0  0  0  0  0  0  0
   -2.3691    0.9104    0.0000 C   0  0  0  0  0  0  0  0  0  0  0  0
    4.7610    0.2105    0.0000 O   0  0  0  0  0  0  0  0  0  0  0  0
    3.8193    0.4855    0.0000 C   0  0  0  0  0  0  0  0  0  0  0  0
   -0.9688    3.0734    0.0000 C   0  0  0  0  0  0  0  0  0  0  0  0
   -0.5730    3.9985    0.0000 N   0  0  0  0  0  0  0  0  0  0  0  0
    0.2397   -0.4229    0.0000 S   0  0  0  0  0  0  0  0  0  0  0  0
    1.7606   -1.2690    0.0000 O   0  0  0  0  0  0  0  0  0  0  0  0
    3.5819   -2.0773    0.0000 C   0  0  0  0  0  0  0  0  0  0  0  0
   -2.9734    2.6650    0.0000 C   0  0  0  0  0  0  0  0  0  0  0  0
   -3.1482    0.2439    0.0000 C   0  0  0  0  0  0  0  0  0  0  0  0
    3.4734    1.4356    0.0000 C   0  0  0  0  0  0  0  0  0  0  0  0
    2.6108   -2.3066    0.0000 C   0  0  0  0  0  0  0  0  0  0  0  0
    4.2610   -2.7900    0.0000 C   0  0  0  0  0  0  0  0  0  0  0  0
   -3.9691    2.7316    0.0000 C   0  0  0  0  0  0  0  0  0  0  0  0
   -4.1235    0.3313    0.0000 C   0  0  0  0  0  0  0  0  0  0  0  0
    3.9985   -3.7567    0.0000 C   0  0  0  0  0  0  0  0  0  0  0  0
    2.3357   -3.2734    0.0000 C   0  0  0  0  0  0  0  0  0  0  0  0
   -4.7902    1.0898    0.0000 C   0  0  0  0  0  0  0  0  0  0  0  0
    3.0026   -3.9985    0.0000 C   0  0  0  0  0  0  0  0  0  0  0  0
   -4.7278    2.0649    0.0000 C   0  0  0  0  0  0  0  0  0  0  0  0
  1  2  2  0
  3  4  1  0
  4 10  1  0
  5  7  2  0
  5 13  1  0
  1  6  1  0
  3  7  1  0
  2  8  1  0
  8 12  2  0
  1  9  1  0
 10 11  1  0
  9 11  1  0
  6 12  1  0
 13 14  1  0
  3 14  2  0
  2 15  1  0
 15 16  3  0
 11 17  2  0
  4 18  2  0
  7 19  1  0
  8 20  1  0
 12 21  1  0
 14 22  1  0
 19 23  2  0
 19 24  1  0
 20 25  1  0
 21 26  1  0
 24 27  2  0
 23 28  1  0
 28 30  2  0
 26 29  1  0
 29 31  1  0
 27 30  1  0
 25 31  1  0
M  END
>  <IDNUMBER>  (653) 
IB03-2476

>  <available>  (653) 
50

>  <H_acceptor>  (653) 
7

>  <H_donor>  (653) 
2

>  <B_rotN>  (653) 
7

>  <N_O>  (653) 
6

>  <logP>  (653) 
5.4

>  <logD>  (653) 
5.05

>  <logSw>  (653) 
-6.27

>  <PSA>  (653) 
204.3

>  <pKa_ma>  (653) 
7.31

>  <pKa_mb>  (653) 
0

>  <N_Chirals>  (653) 
0

>  <Name>  (653) 
N-[(3-cyano-4,5,6,7,8,9-hexahydrocycloocta[b]thiophen-2-yl)carbamothioyl]-5-methyl-3-phenyl-1,2-oxazole-4-carboxamide

>  <Smile>  (653) 
Cc1c(C(NC(Nc(sc2c3CCCCCC2)c3C#N)=S)=O)c(-c2ccccc2)no1

>  <Color>  (653) 
NOT COLORED

>  <Collection>  (653) 
DC

>  <InChI>  (653) 
InChI=1S/C23H22N4O2S2/c1-14-19(20(27-29-14)15-9-5-4-6-10-15)21(28)25-23(30)26-22-17(13-24)16-11-7-2-3-8-12-18(16)31-22/h4-6,9-10H,2-3,7-8,11-12H2,1H3,(H2,25,26,28,30)

>  <InChI Key>  (653) 
GHKNWBGJBNDAGC-UHFFFAOYSA-N

>  <PERCENTSP3>  (653) 
30.4

>  <Link>  (653) 
https://www.chemdiv.com/catalog/screening-compounds/compound-IB03-2476/

>  <STEREO>  (653) 
ACHIRAL

>  <State>  (653) 
Solid

>  <Similarity score>  (653) 
0.19

$$$$
2-{[4-cyclopropyl-6-(trifluoromethyl)pyrimidin-2-yl]amino}-4,5,6,7-tetrahydro-1-
     RDKit          2D

 25 28  0  0  0  0  0  0  0  0999 V2000
    0.9918    1.7105    0.0000 C   0  0  0  0  0  0  0  0  0  0  0  0
    1.3543    0.7688    0.0000 C   0  0  0  0  0  0  0  0  0  0  0  0
   -0.6792    1.2606    0.0000 C   0  0  0  0  0  0  0  0  0  0  0  0
    1.7668    2.3438    0.0000 S   0  0  0  0  0  0  0  0  0  0  0  0
    0.0292    1.9688    0.0000 N   0  0  0  0  0  0  0  0  0  0  0  0
    2.3459    0.8313    0.0000 C   0  0  0  0  0  0  0  0  0  0  0  0
    2.6210    1.7939    0.0000 C   0  0  0  0  0  0  0  0  0  0  0  0
   -1.6418    1.5188    0.0000 N   0  0  0  0  0  0  0  0  0  0  0  0
   -0.4167    0.2938    0.0000 N   0  0  0  0  0  0  0  0  0  0  0  0
   -3.3168    1.0687    0.0000 C   0  0  0  0  0  0  0  0  0  0  0  0
   -2.3542    0.8104    0.0000 C   0  0  0  0  0  0  0  0  0  0  0  0
   -1.1209   -0.4146    0.0000 C   0  0  0  0  0  0  0  0  0  0  0  0
    0.8334   -0.0688    0.0000 C   0  0  0  0  0  0  0  0  0  0  0  0
   -2.0917   -0.1563    0.0000 C   0  0  0  0  0  0  0  0  0  0  0  0
   -0.8666   -1.3772    0.0000 C   0  0  0  0  0  0  0  0  0  0  0  0
    0.3209   -0.9064    0.0000 N   0  0  0  0  0  0  0  0  0  0  0  0
   -0.1541   -2.0813    0.0000 C   0  0  0  0  0  0  0  0  0  0  0  0
   -1.1209   -2.3438    0.0000 C   0  0  0  0  0  0  0  0  0  0  0  0
   -3.5793    0.0979    0.0000 F   0  0  0  0  0  0  0  0  0  0  0  0
   -3.0584    2.0355    0.0000 F   0  0  0  0  0  0  0  0  0  0  0  0
   -4.2835    1.3229    0.0000 F   0  0  0  0  0  0  0  0  0  0  0  0
    3.0335    0.1229    0.0000 C   0  0  0  0  0  0  0  0  0  0  0  0
    3.5836    2.0564    0.0000 C   0  0  0  0  0  0  0  0  0  0  0  0
    4.0169    0.3687    0.0000 C   0  0  0  0  0  0  0  0  0  0  0  0
    4.2835    1.3229    0.0000 C   0  0  0  0  0  0  0  0  0  0  0  0
  1  2  2  0
  3  5  1  0
  1  4  1  0
  1  5  1  0
  2  6  1  0
  4  7  1  0
  6  7  2  0
  3  8  1  0
  3  9  2  0
 10 11  1  0
  8 11  2  0
 11 14  1  0
  9 12  1  0
  2 13  1  0
 12 14  2  0
 12 15  1  0
 13 16  3  0
 15 17  1  0
 15 18  1  0
 17 18  1  0
 10 19  1  0
 10 20  1  0
 10 21  1  0
  6 22  1  0
  7 23  1  0
 22 24  1  0
 23 25  1  0
 24 25  1  0
M  END
>  <IDNUMBER>  (654) 
Y505-0618

>  <available>  (654) 
7

>  <H_acceptor>  (654) 
3

>  <H_donor>  (654) 
1

>  <B_rotN>  (654) 
5

>  <N_O>  (654) 
4

>  <logP>  (654) 
5.4561

>  <logD>  (654) 
5.4505

>  <logSw>  (654) 
-5.8786

>  <PSA>  (654) 
45.879

>  <pKa_ma>  (654) 
10.0838

>  <pKa_mb>  (654) 
5.4407

>  <N_Chirals>  (654) 
0

>  <Name>  (654) 
2-{[4-cyclopropyl-6-(trifluoromethyl)pyrimidin-2-yl]amino}-4,5,6,7-tetrahydro-1-benzothiophene-3-carbonitrile

>  <Smile>  (654) 
N#Cc1c(Nc2nc(C(F)(F)F)cc(C3CC3)n2)sc2c1CCCC2

>  <Color>  (654) 
BROWN

>  <Collection>  (654) 
DC

>  <InChI>  (654) 
InChI=1S/C17H15F3N4S/c18-17(19,20)14-7-12(9-5-6-9)22-16(23-14)24-15-11(8-21)10-3-1-2-4-13(10)25-15/h7,9H,1-6H2,(H,22,23,24)

>  <InChI Key>  (654) 
SYAIKRODGWFSBG-UHFFFAOYSA-N

>  <PERCENTSP3>  (654) 
47.1

>  <Link>  (654) 
https://www.chemdiv.com/catalog/screening-compounds/compound-Y505-0618/

>  <MFCDNUMBER>  (654) 
MFCD09468503

>  <STEREO>  (654) 
ACHIRAL

>  <State>  (654) 
Solid

>  <Similarity score>  (654) 
0.19

$$$$
2-{[5-cyano-4-(3-methoxyphenyl)-6-oxo-1,6-dihydropyrimidin-2-yl]sulfanyl}-N-(3-c
     RDKit          2D

 33 36  0  0  0  0  0  0  0  0999 V2000
    2.8330   -0.7939    0.0000 C   0  0  0  0  0  0  0  0  0  0  0  0
    3.3623    0.0394    0.0000 C   0  0  0  0  0  0  0  0  0  0  0  0
   -3.1578    0.8884    0.0000 C   0  0  0  0  0  0  0  0  0  0  0  0
   -2.6389    0.0237    0.0000 C   0  0  0  0  0  0  0  0  0  0  0  0
   -1.6639    1.7427    0.0000 N   0  0  0  0  0  0  0  0  0  0  0  0
   -2.6546    1.7377    0.0000 C   0  0  0  0  0  0  0  0  0  0  0  0
   -1.6223    0.0394    0.0000 N   0  0  0  0  0  0  0  0  0  0  0  0
   -1.1294    0.9043    0.0000 C   0  0  0  0  0  0  0  0  0  0  0  0
    3.4307   -1.6273    0.0000 S   0  0  0  0  0  0  0  0  0  0  0  0
    4.3739   -0.2751    0.0000 C   0  0  0  0  0  0  0  0  0  0  0  0
    4.3739   -1.2604    0.0000 C   0  0  0  0  0  0  0  0  0  0  0  0
    1.8370   -0.7939    0.0000 N   0  0  0  0  0  0  0  0  0  0  0  0
    2.9693    0.9410    0.0000 C   0  0  0  0  0  0  0  0  0  0  0  0
   -4.1485    0.8884    0.0000 C   0  0  0  0  0  0  0  0  0  0  0  0
   -3.1319   -0.8412    0.0000 C   0  0  0  0  0  0  0  0  0  0  0  0
   -5.1550    0.8884    0.0000 N   0  0  0  0  0  0  0  0  0  0  0  0
    2.5812    1.8477    0.0000 N   0  0  0  0  0  0  0  0  0  0  0  0
    1.3340    0.0445    0.0000 C   0  0  0  0  0  0  0  0  0  0  0  0
   -0.1389    0.9043    0.0000 S   0  0  0  0  0  0  0  0  0  0  0  0
   -3.1420    2.6181    0.0000 O   0  0  0  0  0  0  0  0  0  0  0  0
   -4.1380   -0.8726    0.0000 C   0  0  0  0  0  0  0  0  0  0  0  0
    1.8111    0.9251    0.0000 O   0  0  0  0  0  0  0  0  0  0  0  0
    0.3431    0.0445    0.0000 C   0  0  0  0  0  0  0  0  0  0  0  0
   -4.6515   -1.7375    0.0000 C   0  0  0  0  0  0  0  0  0  0  0  0
    5.2545    0.2333    0.0000 C   0  0  0  0  0  0  0  0  0  0  0  0
    5.2545   -1.7793    0.0000 C   0  0  0  0  0  0  0  0  0  0  0  0
   -2.6389   -1.7008    0.0000 C   0  0  0  0  0  0  0  0  0  0  0  0
   -5.6319   -1.7375    0.0000 O   0  0  0  0  0  0  0  0  0  0  0  0
   -3.1319   -2.5812    0.0000 C   0  0  0  0  0  0  0  0  0  0  0  0
   -4.1170   -2.6181    0.0000 C   0  0  0  0  0  0  0  0  0  0  0  0
   -6.1139   -0.8831    0.0000 C   0  0  0  0  0  0  0  0  0  0  0  0
    6.1139   -0.2700    0.0000 C   0  0  0  0  0  0  0  0  0  0  0  0
    6.1139   -1.2763    0.0000 C   0  0  0  0  0  0  0  0  0  0  0  0
  1  2  2  0
  3  4  2  0
  3  6  1  0
  4  7  1  0
  5  8  1  0
  5  6  1  0
  7  8  2  0
  8 19  1  0
  1  9  1  0
  2 10  1  0
  9 11  1  0
 10 11  2  0
  1 12  1  0
  2 13  1  0
  3 14  1  0
  4 15  1  0
 14 16  3  0
 13 17  3  0
 12 18  1  0
 19 23  1  0
  6 20  2  0
 15 21  2  0
 18 22  2  0
 18 23  1  0
 21 24  1  0
 10 25  1  0
 11 26  1  0
 15 27  1  0
 24 28  1  0
 27 29  2  0
 29 30  1  0
 24 30  2  0
 28 31  1  0
 25 32  1  0
 26 33  1  0
 32 33  1  0
M  END
>  <IDNUMBER>  (655) 
3698-0273

>  <available>  (655) 
6

>  <H_acceptor>  (655) 
9

>  <H_donor>  (655) 
2

>  <B_rotN>  (655) 
9

>  <N_O>  (655) 
8

>  <logP>  (655) 
3.4912

>  <logD>  (655) 
-0.0618

>  <logSw>  (655) 
-4.1213

>  <PSA>  (655) 
98.903

>  <pKa_ma>  (655) 
3.8471

>  <pKa_mb>  (655) 
1.2389

>  <N_Chirals>  (655) 
0

>  <Name>  (655) 
2-{[5-cyano-4-(3-methoxyphenyl)-6-oxo-1,6-dihydropyrimidin-2-yl]sulfanyl}-N-(3-cyano-4,5,6,7-tetrahydro-1-benzothiophen-2-yl)acetamide

>  <Smile>  (655) 
COc1cccc(C(N=C(NC2=O)SCC(Nc(sc3c4CCCC3)c4C#N)=O)=C2C#N)c1

>  <Color>  (655) 
NOT COLORED

>  <Collection>  (655) 
DC

>  <InChI>  (655) 
InChI=1S/C23H19N5O3S2/c1-31-14-6-4-5-13(9-14)20-17(11-25)21(30)28-23(27-20)32-12-19(29)26-22-16(10-24)15-7-2-3-8-18(15)33-22/h4-6,9H,2-3,7-8,12H2,1H3,(H,26,29)(H,27,28,30)

>  <InChI Key>  (655) 
GZYVCJDJIJOBHP-UHFFFAOYSA-N

>  <PERCENTSP3>  (655) 
26.1

>  <Link>  (655) 
https://www.chemdiv.com/catalog/screening-compounds/compound-3698-0273/

>  <MFCDNUMBER>  (655) 
MFCD02577543

>  <CLNUMBER>  (655) 
CL6863

>  <STEREO>  (655) 
ACHIRAL

>  <State>  (655) 
Solid

>  <Similarity score>  (655) 
0.19

$$$$
N-(3-cyano-4,5,6,7-tetrahydro-1-benzothiophen-2-yl)-2-[(4,6-dimethylpyrimidin-2-
     RDKit          2D

 24 26  0  0  0  0  0  0  0  0999 V2000
   -1.9166   -0.4584    0.0000 C   0  0  0  0  0  0  0  0  0  0  0  0
   -2.7914   -0.0335    0.0000 C   0  0  0  0  0  0  0  0  0  0  0  0
   -2.0456   -1.4582    0.0000 S   0  0  0  0  0  0  0  0  0  0  0  0
   -3.4956   -0.7416    0.0000 C   0  0  0  0  0  0  0  0  0  0  0  0
   -3.0289   -1.6290    0.0000 C   0  0  0  0  0  0  0  0  0  0  0  0
   -1.0332    0.0416    0.0000 N   0  0  0  0  0  0  0  0  0  0  0  0
    2.4331   -0.0083    0.0000 C   0  0  0  0  0  0  0  0  0  0  0  0
   -2.9289    0.9459    0.0000 C   0  0  0  0  0  0  0  0  0  0  0  0
    3.2957   -0.5208    0.0000 N   0  0  0  0  0  0  0  0  0  0  0  0
    2.4331    0.9916    0.0000 N   0  0  0  0  0  0  0  0  0  0  0  0
   -3.0707    1.9207    0.0000 N   0  0  0  0  0  0  0  0  0  0  0  0
   -0.1666   -0.4666    0.0000 C   0  0  0  0  0  0  0  0  0  0  0  0
    1.5583   -0.5041    0.0000 S   0  0  0  0  0  0  0  0  0  0  0  0
    3.3081    1.4915    0.0000 C   0  0  0  0  0  0  0  0  0  0  0  0
    4.1704   -0.0207    0.0000 C   0  0  0  0  0  0  0  0  0  0  0  0
    4.1830    0.9665    0.0000 C   0  0  0  0  0  0  0  0  0  0  0  0
   -0.1666   -1.4832    0.0000 O   0  0  0  0  0  0  0  0  0  0  0  0
    0.6916    0.0083    0.0000 C   0  0  0  0  0  0  0  0  0  0  0  0
   -4.4954   -0.6959    0.0000 C   0  0  0  0  0  0  0  0  0  0  0  0
   -3.5663   -2.4788    0.0000 C   0  0  0  0  0  0  0  0  0  0  0  0
    3.3081    2.4788    0.0000 C   0  0  0  0  0  0  0  0  0  0  0  0
    5.0287   -0.5084    0.0000 C   0  0  0  0  0  0  0  0  0  0  0  0
   -5.0287   -1.5459    0.0000 C   0  0  0  0  0  0  0  0  0  0  0  0
   -4.5746   -2.4331    0.0000 C   0  0  0  0  0  0  0  0  0  0  0  0
  1  2  2  0
  1  3  1  0
  2  4  1  0
  4  5  2  0
  3  5  1  0
  1  6  1  0
  7 13  1  0
  2  8  1  0
  7  9  2  0
  7 10  1  0
  8 11  3  0
  6 12  1  0
 13 18  1  0
 10 14  2  0
  9 15  1  0
 15 16  2  0
 14 16  1  0
 12 17  2  0
 12 18  1  0
  4 19  1  0
  5 20  1  0
 14 21  1  0
 15 22  1  0
 19 23  1  0
 23 24  1  0
 20 24  1  0
M  END
>  <IDNUMBER>  (656) 
Y511-2285

>  <available>  (656) 
55

>  <H_acceptor>  (656) 
6

>  <H_donor>  (656) 
1

>  <B_rotN>  (656) 
6

>  <N_O>  (656) 
5

>  <logP>  (656) 
3.22

>  <logD>  (656) 
2.187

>  <logSw>  (656) 
-3.494

>  <PSA>  (656) 
56.79

>  <pKa_ma>  (656) 
6.41

>  <pKa_mb>  (656) 
0.7247

>  <N_Chirals>  (656) 
0

>  <Name>  (656) 
N-(3-cyano-4,5,6,7-tetrahydro-1-benzothiophen-2-yl)-2-[(4,6-dimethylpyrimidin-2-yl)sulfanyl]acetamide

>  <Smile>  (656) 
c1(c(c2c(s1)CCCC2)C#N)NC(=O)CSc1nc(cc(n1)C)C

>  <Color>  (656) 
NOT COLORED

>  <Collection>  (656) 
DC

>  <InChI>  (656) 
InChI=1S/C17H18N4OS2/c1-10-7-11(2)20-17(19-10)23-9-15(22)21-16-13(8-18)12-5-3-4-6-14(12)24-16/h7H,3-6,9H2,1-2H3,(H,21,22)

>  <InChI Key>  (656) 
LVLYQLNWJXREHW-UHFFFAOYSA-N

>  <PERCENTSP3>  (656) 
41.18

>  <Link>  (656) 
https://www.chemdiv.com/catalog/screening-compounds/compound-Y511-2285/

>  <MFCDNUMBER>  (656) 
MFCD00746978

>  <STEREO>  (656) 
ACHIRAL

>  <State>  (656) 
Solid

>  <Similarity score>  (656) 
0.18

$$$$
N-(3-cyano-4,5,6,7-tetrahydro-1-benzothiophen-2-yl)-4-(3-phenyl-1,2,4-oxadiazol-
     RDKit          2D

 28 31  0  0  0  0  0  0  0  0999 V2000
    2.2770    2.0584    0.0000 C   0  0  0  0  0  0  0  0  0  0  0  0
    2.4813    1.0708    0.0000 C   0  0  0  0  0  0  0  0  0  0  0  0
   -1.8189   -0.9293    0.0000 N   0  0  0  0  0  0  0  0  0  0  0  0
    3.1313    2.5502    0.0000 S   0  0  0  0  0  0  0  0  0  0  0  0
    3.4689    0.9707    0.0000 C   0  0  0  0  0  0  0  0  0  0  0  0
   -2.4314   -1.7167    0.0000 C   0  0  0  0  0  0  0  0  0  0  0  0
    3.8773    1.8958    0.0000 C   0  0  0  0  0  0  0  0  0  0  0  0
   -1.8688   -2.5502    0.0000 N   0  0  0  0  0  0  0  0  0  0  0  0
    1.3646    2.4626    0.0000 N   0  0  0  0  0  0  0  0  0  0  0  0
    1.8189    0.3209    0.0000 C   0  0  0  0  0  0  0  0  0  0  0  0
   -0.8812   -1.2543    0.0000 C   0  0  0  0  0  0  0  0  0  0  0  0
   -0.9105   -2.2668    0.0000 O   0  0  0  0  0  0  0  0  0  0  0  0
    1.1564   -0.4292    0.0000 N   0  0  0  0  0  0  0  0  0  0  0  0
    0.5520    1.8709    0.0000 C   0  0  0  0  0  0  0  0  0  0  0  0
   -3.4437   -1.6918    0.0000 C   0  0  0  0  0  0  0  0  0  0  0  0
   -0.3313    2.2709    0.0000 O   0  0  0  0  0  0  0  0  0  0  0  0
    4.0439    0.1582    0.0000 C   0  0  0  0  0  0  0  0  0  0  0  0
    4.8690    1.9832    0.0000 C   0  0  0  0  0  0  0  0  0  0  0  0
   -0.0563   -0.6751    0.0000 C   0  0  0  0  0  0  0  0  0  0  0  0
    0.6561    0.9126    0.0000 C   0  0  0  0  0  0  0  0  0  0  0  0
   -0.1564    0.3209    0.0000 C   0  0  0  0  0  0  0  0  0  0  0  0
   -3.9607   -2.5502    0.0000 C   0  0  0  0  0  0  0  0  0  0  0  0
   -3.9230   -0.8125    0.0000 C   0  0  0  0  0  0  0  0  0  0  0  0
    5.0564    0.2583    0.0000 C   0  0  0  0  0  0  0  0  0  0  0  0
    5.4564    1.1709    0.0000 C   0  0  0  0  0  0  0  0  0  0  0  0
   -4.9357   -0.7876    0.0000 C   0  0  0  0  0  0  0  0  0  0  0  0
   -4.9732   -2.5166    0.0000 C   0  0  0  0  0  0  0  0  0  0  0  0
   -5.4564   -1.6293    0.0000 C   0  0  0  0  0  0  0  0  0  0  0  0
  1  2  2  0
  3 11  2  0
  1  4  1  0
  2  5  1  0
  3  6  1  0
  4  7  1  0
  5  7  2  0
  8 12  1  0
  6  8  2  0
  1  9  1  0
  2 10  1  0
 11 19  1  0
 11 12  1  0
 10 13  3  0
  9 14  1  0
  6 15  1  0
 14 16  2  0
  5 17  1  0
  7 18  1  0
 19 21  1  0
 14 20  1  0
 20 21  1  0
 15 22  2  0
 15 23  1  0
 17 24  1  0
 18 25  1  0
 24 25  1  0
 23 26  2  0
 22 27  1  0
 27 28  2  0
 26 28  1  0
M  END
>  <IDNUMBER>  (657) 
D321-0073

>  <available>  (657) 
73

>  <H_acceptor>  (657) 
6

>  <H_donor>  (657) 
1

>  <B_rotN>  (657) 
8

>  <N_O>  (657) 
6

>  <logP>  (657) 
4.3451

>  <logD>  (657) 
3.0319

>  <logSw>  (657) 
-4.5909

>  <PSA>  (657) 
71.23

>  <pKa_ma>  (657) 
6.1085

>  <pKa_mb>  (657) 
-3.8515

>  <N_Chirals>  (657) 
0

>  <Name>  (657) 
N-(3-cyano-4,5,6,7-tetrahydro-1-benzothiophen-2-yl)-4-(3-phenyl-1,2,4-oxadiazol-5-yl)butanamide

>  <Smile>  (657) 
N#Cc1c(NC(CCCc2nc(-c3ccccc3)no2)=O)sc2c1CCCC2

>  <Color>  (657) 
BROWN

>  <Collection>  (657) 
DC

>  <InChI>  (657) 
InChI=1S/C21H20N4O2S/c22-13-16-15-9-4-5-10-17(15)28-21(16)23-18(26)11-6-12-19-24-20(25-27-19)14-7-2-1-3-8-14/h1-3,7-8H,4-6,9-12H2,(H,23,26)

>  <InChI Key>  (657) 
JSCZVXYKOMCNNE-UHFFFAOYSA-N

>  <PERCENTSP3>  (657) 
33.3

>  <Link>  (657) 
https://www.chemdiv.com/catalog/screening-compounds/compound-D321-0073/

>  <MFCDNUMBER>  (657) 
MFCD14819067

>  <CLNUMBER>  (657) 
CL5000

>  <STEREO>  (657) 
ACHIRAL

>  <State>  (657) 
Solid

>  <Similarity score>  (657) 
0.18

$$$$
2-amino-5-propyl-4,7-dihydro-5H-thieno[2,3-c]pyran-3-carbonitrile
     RDKit          2D

 17 18  0  0  0  0  0  0  0  0999 V2000
    2.0668    0.4792    0.0000 C   0  0  0  0  0  0  0  0  0  0  0  0
    0.4166    0.4667    0.0000 C   0  0  0  0  0  0  0  0  0  0  0  0
    2.0710   -0.4959    0.0000 C   0  0  0  0  0  0  0  0  0  0  0  0
    1.2334   -0.9709    0.0000 S   0  0  0  0  0  0  0  0  0  0  0  0
    0.4166   -0.4959    0.0000 C   0  0  0  0  0  0  0  0  0  0  0  0
    2.8960    0.9709    0.0000 C   0  0  0  0  0  0  0  0  0  0  0  0
    2.8918    1.9293    0.0000 N   0  0  0  0  0  0  0  0  0  0  0  0
   -0.4335    0.9542    0.0000 C   0  0  0  0  0  0  0  0  0  0  0  0
   -1.2543   -0.5042    0.0000 O   0  0  0  0  0  0  0  0  0  0  0  0
   -0.4166   -0.9917    0.0000 C   0  0  0  0  0  0  0  0  0  0  0  0
    2.9210   -0.9709    0.0000 N   0  0  0  0  0  0  0  0  0  0  0  0
   -1.2543    0.4667    0.0000 C   0  0  0  0  0  0  0  0  0  0  0  0
   -2.0835    0.9334    0.0000 C   0  0  0  0  0  0  0  0  0  0  0  0
   -2.9085    0.4542    0.0000 C   0  0  0  0  0  0  0  0  0  0  0  0
   -3.7336    0.9292    0.0000 C   0  0  0  0  0  0  0  0  0  0  0  0
    2.9335   -1.9293    0.0000 H   0  0  0  0  0  0  0  0  0  0  0  0
    3.7336   -0.4834    0.0000 H   0  0  0  0  0  0  0  0  0  0  0  0
  1  2  1  0
  1  3  2  0
  3  4  1  0
  4  5  1  0
  2  5  2  0
  1  6  1  0
  6  7  3  0
  2  8  1  0
  9 12  1  0
  5 10  1  0
  9 10  1  0
  3 11  1  0
  8 12  1  0
 12 13  1  0
 13 14  1  0
 14 15  1  0
 11 16  1  0
 11 17  1  0
M  END
>  <IDNUMBER>  (658) 
8640-0074

>  <available>  (658) 
79

>  <H_acceptor>  (658) 
2

>  <H_donor>  (658) 
2

>  <B_rotN>  (658) 
3

>  <N_O>  (658) 
3

>  <logP>  (658) 
2.381

>  <logD>  (658) 
2.381

>  <logSw>  (658) 
-2.2284

>  <PSA>  (658) 
47.086

>  <pKa_ma>  (658) 
15.973

>  <pKa_mb>  (658) 
-1.5134

>  <N_Chirals>  (658) 
1

>  <Name>  (658) 
2-amino-5-propyl-4,7-dihydro-5H-thieno[2,3-c]pyran-3-carbonitrile

>  <Smile>  (658) 
CCCC(C1)OCc2c1c(C#N)c(N)s2

>  <Color>  (658) 
BROWN

>  <Collection>  (658) 
DC

>  <InChI>  (658) 
InChI=1S/C11H14N2OS/c1-2-3-7-4-8-9(5-12)11(13)15-10(8)6-14-7/h7H,2-4,6,13H2,1H3/t7-/m1/s1

>  <InChI Key>  (658) 
FGTHHTWHWXEGFI-SSDOTTSWSA-N

>  <PERCENTSP3>  (658) 
54.5

>  <Link>  (658) 
https://www.chemdiv.com/catalog/screening-compounds/compound-8640-0074/

>  <MFCDNUMBER>  (658) 
MFCD03675056

>  <STEREO>  (658) 
RACEMIC MIXTURE

>  <State>  (658) 
Solid

>  <Similarity score>  (658) 
0.18

$$$$
2-{[4-(1,5-dimethyl-1H-pyrazol-4-yl)-6-(trifluoromethyl)pyrimidin-2-yl]amino}-5,
     RDKit          2D

 28 31  0  0  0  0  0  0  0  0999 V2000
    1.8551   -0.3456    0.0000 C   0  0  0  0  0  0  0  0  0  0  0  0
    1.4178   -1.2201    0.0000 C   0  0  0  0  0  0  0  0  0  0  0  0
   -1.6428   -1.2076    0.0000 C   0  0  0  0  0  0  0  0  0  0  0  0
    0.3559    0.5163    0.0000 C   0  0  0  0  0  0  0  0  0  0  0  0
    2.8669   -0.5205    0.0000 S   0  0  0  0  0  0  0  0  0  0  0  0
    1.3554    0.5163    0.0000 N   0  0  0  0  0  0  0  0  0  0  0  0
    2.1050   -1.9404    0.0000 C   0  0  0  0  0  0  0  0  0  0  0  0
   -1.1430   -0.3456    0.0000 C   0  0  0  0  0  0  0  0  0  0  0  0
   -2.6338   -1.3158    0.0000 C   0  0  0  0  0  0  0  0  0  0  0  0
    3.0043   -1.5199    0.0000 C   0  0  0  0  0  0  0  0  0  0  0  0
   -1.9799   -2.7898    0.0000 N   0  0  0  0  0  0  0  0  0  0  0  0
   -2.8419   -2.2903    0.0000 N   0  0  0  0  0  0  0  0  0  0  0  0
   -0.1438   -0.3456    0.0000 N   0  0  0  0  0  0  0  0  0  0  0  0
   -1.2348   -2.1195    0.0000 C   0  0  0  0  0  0  0  0  0  0  0  0
   -0.1438    1.3825    0.0000 N   0  0  0  0  0  0  0  0  0  0  0  0
   -1.6428    2.2444    0.0000 C   0  0  0  0  0  0  0  0  0  0  0  0
   -1.1430    1.3825    0.0000 C   0  0  0  0  0  0  0  0  0  0  0  0
   -1.6428    0.5163    0.0000 C   0  0  0  0  0  0  0  0  0  0  0  0
    0.4185   -1.3825    0.0000 C   0  0  0  0  0  0  0  0  0  0  0  0
   -0.5559   -1.5324    0.0000 N   0  0  0  0  0  0  0  0  0  0  0  0
   -2.5046    1.7448    0.0000 F   0  0  0  0  0  0  0  0  0  0  0  0
   -2.1425    3.1146    0.0000 F   0  0  0  0  0  0  0  0  0  0  0  0
   -0.7725    2.7441    0.0000 F   0  0  0  0  0  0  0  0  0  0  0  0
    2.2422   -2.9397    0.0000 C   0  0  0  0  0  0  0  0  0  0  0  0
    3.7039   -2.2568    0.0000 C   0  0  0  0  0  0  0  0  0  0  0  0
   -3.2709   -0.5080    0.0000 C   0  0  0  0  0  0  0  0  0  0  0  0
   -3.7039   -2.7898    0.0000 C   0  0  0  0  0  0  0  0  0  0  0  0
    3.2167   -3.1146    0.0000 C   0  0  0  0  0  0  0  0  0  0  0  0
  1  2  2  0
  3  8  1  0
  4  6  1  0
  1  5  1  0
  1  6  1  0
  2  7  1  0
  8 13  2  0
  8 18  1  0
  3  9  2  0
  5 10  1  0
  7 10  2  0
 11 14  2  0
  9 12  1  0
 11 12  1  0
  4 13  1  0
  3 14  1  0
  4 15  2  0
 16 17  1  0
 15 17  1  0
 17 18  2  0
  2 19  1  0
 19 20  3  0
 16 21  1  0
 16 22  1  0
 16 23  1  0
  7 24  1  0
 10 25  1  0
  9 26  1  0
 12 27  1  0
 25 28  1  0
 24 28  1  0
M  END
>  <IDNUMBER>  (659) 
Y505-0471

>  <available>  (659) 
5

>  <H_acceptor>  (659) 
4

>  <H_donor>  (659) 
1

>  <B_rotN>  (659) 
5

>  <N_O>  (659) 
6

>  <logP>  (659) 
4.257

>  <logD>  (659) 
4.2568

>  <logSw>  (659) 
-4.4928

>  <PSA>  (659) 
60.208

>  <pKa_ma>  (659) 
11.544

>  <pKa_mb>  (659) 
4.0864

>  <N_Chirals>  (659) 
0

>  <Name>  (659) 
2-{[4-(1,5-dimethyl-1H-pyrazol-4-yl)-6-(trifluoromethyl)pyrimidin-2-yl]amino}-5,6-dihydro-4H-cyclopenta[b]thiophene-3-carbonitrile

>  <Smile>  (659) 
Cc(n(C)nc1)c1-c1cc(C(F)(F)F)nc(Nc(sc2c3CCC2)c3C#N)n1

>  <Color>  (659) 
BROWN

>  <Collection>  (659) 
DC

>  <InChI>  (659) 
InChI=1S/C18H15F3N6S/c1-9-12(8-23-27(9)2)13-6-15(18(19,20)21)25-17(24-13)26-16-11(7-22)10-4-3-5-14(10)28-16/h6,8H,3-5H2,1-2H3,(H,24,25,26)

>  <InChI Key>  (659) 
OYLGNRJCEFSSKH-UHFFFAOYSA-N

>  <PERCENTSP3>  (659) 
33.3

>  <Link>  (659) 
https://www.chemdiv.com/catalog/screening-compounds/compound-Y505-0471/

>  <MFCDNUMBER>  (659) 
MFCD09468933

>  <STEREO>  (659) 
ACHIRAL

>  <State>  (659) 
Solid

>  <Similarity score>  (659) 
0.18

$$$$
N-(3-cyano-6-methyl-4,5,6,7-tetrahydro-1-benzothiophen-2-yl)-5-methyl-3-phenyl-1
     RDKit          2D

 27 30  0  0  0  0  0  0  0  0999 V2000
    0.9064   -0.3084    0.0000 C   0  0  0  0  0  0  0  0  0  0  0  0
    1.8065   -0.7084    0.0000 C   0  0  0  0  0  0  0  0  0  0  0  0
   -1.6605   -0.8334    0.0000 C   0  0  0  0  0  0  0  0  0  0  0  0
   -0.8106   -0.3333    0.0000 C   0  0  0  0  0  0  0  0  0  0  0  0
    2.5065    0.0333    0.0000 C   0  0  0  0  0  0  0  0  0  0  0  0
    2.0064    0.9085    0.0000 C   0  0  0  0  0  0  0  0  0  0  0  0
    1.0064    0.6835    0.0000 S   0  0  0  0  0  0  0  0  0  0  0  0
   -3.1857   -1.3334    0.0000 N   0  0  0  0  0  0  0  0  0  0  0  0
   -2.6107   -0.5334    0.0000 C   0  0  0  0  0  0  0  0  0  0  0  0
    0.0563   -0.8084    0.0000 N   0  0  0  0  0  0  0  0  0  0  0  0
   -2.6107   -2.1335    0.0000 O   0  0  0  0  0  0  0  0  0  0  0  0
   -1.6605   -1.8335    0.0000 C   0  0  0  0  0  0  0  0  0  0  0  0
    2.0064   -1.7084    0.0000 C   0  0  0  0  0  0  0  0  0  0  0  0
    2.1814   -2.6835    0.0000 N   0  0  0  0  0  0  0  0  0  0  0  0
    3.5066    0.0333    0.0000 C   0  0  0  0  0  0  0  0  0  0  0  0
    2.5065    1.7834    0.0000 C   0  0  0  0  0  0  0  0  0  0  0  0
   -0.8106    0.6585    0.0000 O   0  0  0  0  0  0  0  0  0  0  0  0
   -2.8356    0.4333    0.0000 C   0  0  0  0  0  0  0  0  0  0  0  0
    4.0066    0.9085    0.0000 C   0  0  0  0  0  0  0  0  0  0  0  0
    3.5066    1.7834    0.0000 C   0  0  0  0  0  0  0  0  0  0  0  0
   -0.8355   -2.4335    0.0000 C   0  0  0  0  0  0  0  0  0  0  0  0
   -2.1106    1.1084    0.0000 C   0  0  0  0  0  0  0  0  0  0  0  0
   -3.7816    0.7335    0.0000 C   0  0  0  0  0  0  0  0  0  0  0  0
    4.0066    2.6835    0.0000 C   0  0  0  0  0  0  0  0  0  0  0  0
   -4.0066    1.7085    0.0000 C   0  0  0  0  0  0  0  0  0  0  0  0
   -2.3356    2.0835    0.0000 C   0  0  0  0  0  0  0  0  0  0  0  0
   -3.2858    2.3878    0.0000 C   0  0  0  0  0  0  0  0  0  0  0  0
  1  2  2  0
  3  4  1  0
  4 10  1  0
  2  5  1  0
  5  6  2  0
  6  7  1  0
  1  7  1  0
  8  9  2  0
  3  9  1  0
  1 10  1  0
 11 12  1  0
  8 11  1  0
  3 12  2  0
  2 13  1  0
 13 14  3  0
  5 15  1  0
  6 16  1  0
  4 17  2  0
  9 18  1  0
 15 19  1  0
 19 20  1  0
 16 20  1  0
 12 21  1  0
 18 22  1  0
 18 23  2  0
 20 24  1  0
 23 25  1  0
 22 26  2  0
 26 27  1  0
 25 27  2  0
M  END
>  <IDNUMBER>  (660) 
Y509-7405

>  <available>  (660) 
25

>  <H_acceptor>  (660) 
5

>  <H_donor>  (660) 
1

>  <B_rotN>  (660) 
5

>  <N_O>  (660) 
5

>  <logP>  (660) 
4.396

>  <logD>  (660) 
2.577

>  <logSw>  (660) 
-4.454

>  <PSA>  (660) 
62.06

>  <pKa_ma>  (660) 
5.587

>  <pKa_mb>  (660) 
-6.342

>  <N_Chirals>  (660) 
1

>  <Name>  (660) 
N-(3-cyano-6-methyl-4,5,6,7-tetrahydro-1-benzothiophen-2-yl)-5-methyl-3-phenyl-1,2-oxazole-4-carboxamide

>  <Smile>  (660) 
c1(c(c2c(s1)CC(CC2)C)C#N)NC(c1c(noc1C)c1ccccc1)=O

>  <Color>  (660) 
ORANGE

>  <Collection>  (660) 
DC

>  <InChI>  (660) 
InChI=1S/C21H19N3O2S/c1-12-8-9-15-16(11-22)21(27-17(15)10-12)23-20(25)18-13(2)26-24-19(18)14-6-4-3-5-7-14/h3-7,12H,8-10H2,1-2H3,(H,23,25)/t12-/m1/s1

>  <InChI Key>  (660) 
WBMFCSWUYHUKII-GFCCVEGCSA-N

>  <PERCENTSP3>  (660) 
28.57

>  <Link>  (660) 
https://www.chemdiv.com/catalog/screening-compounds/compound-Y509-7405/

>  <MFCDNUMBER>  (660) 
MFCD01106773

>  <CLNUMBER>  (660) 
CL2451

>  <STEREO>  (660) 
RACEMIC MIXTURE

>  <State>  (660) 
Solid

>  <Similarity score>  (660) 
0.18

$$$$
N-(3-cyano-4,5,6,7-tetrahydro-1-benzothiophen-2-yl)-2-[(4-methyl-6-oxo-1,6-dihyd
     RDKit          2D

 26 28  0  0  0  0  0  0  0  0999 V2000
   -1.6309   -0.7039    0.0000 C   0  0  0  0  0  0  0  0  0  0  0  0
   -2.1017    0.1666    0.0000 C   0  0  0  0  0  0  0  0  0  0  0  0
    2.6599    0.0666    0.0000 C   0  0  0  0  0  0  0  0  0  0  0  0
   -2.3391   -1.4329    0.0000 S   0  0  0  0  0  0  0  0  0  0  0  0
    3.3348    0.8209    0.0000 N   0  0  0  0  0  0  0  0  0  0  0  0
   -3.0889   -0.0458    0.0000 C   0  0  0  0  0  0  0  0  0  0  0  0
   -0.6644   -0.9456    0.0000 N   0  0  0  0  0  0  0  0  0  0  0  0
   -3.2181   -0.9912    0.0000 C   0  0  0  0  0  0  0  0  0  0  0  0
    3.0099   -0.8915    0.0000 N   0  0  0  0  0  0  0  0  0  0  0  0
    4.3053    0.6334    0.0000 C   0  0  0  0  0  0  0  0  0  0  0  0
    4.6346   -0.2916    0.0000 C   0  0  0  0  0  0  0  0  0  0  0  0
    0.0356   -0.2041    0.0000 C   0  0  0  0  0  0  0  0  0  0  0  0
    3.9931   -1.0457    0.0000 C   0  0  0  0  0  0  0  0  0  0  0  0
   -1.6767    1.0664    0.0000 C   0  0  0  0  0  0  0  0  0  0  0  0
    1.6727    0.2959    0.0000 S   0  0  0  0  0  0  0  0  0  0  0  0
   -1.2642    1.9788    0.0000 N   0  0  0  0  0  0  0  0  0  0  0  0
    0.9936   -0.4208    0.0000 C   0  0  0  0  0  0  0  0  0  0  0  0
   -0.2645    0.7332    0.0000 O   0  0  0  0  0  0  0  0  0  0  0  0
    4.9469    1.4205    0.0000 O   0  0  0  0  0  0  0  0  0  0  0  0
   -3.8764    0.5666    0.0000 C   0  0  0  0  0  0  0  0  0  0  0  0
   -4.1470   -1.4038    0.0000 C   0  0  0  0  0  0  0  0  0  0  0  0
    4.3346   -1.9788    0.0000 C   0  0  0  0  0  0  0  0  0  0  0  0
    1.2935   -1.3788    0.0000 C   0  0  0  0  0  0  0  0  0  0  0  0
   -4.8220    0.1917    0.0000 C   0  0  0  0  0  0  0  0  0  0  0  0
   -4.9469   -0.8206    0.0000 C   0  0  0  0  0  0  0  0  0  0  0  0
    2.2933   -1.6037    0.0000 C   0  0  0  0  0  0  0  0  0  0  0  0
  1  2  2  0
  3 15  1  0
  1  4  1  0
  3  5  1  0
  2  6  1  0
  1  7  1  0
  4  8  1  0
  6  8  2  0
  3  9  2  0
  5 10  1  0
 11 13  2  0
 10 11  1  0
  7 12  1  0
  9 13  1  0
  2 14  1  0
 15 17  1  0
 14 16  3  0
 12 17  1  0
 12 18  2  0
 10 19  2  0
  6 20  1  0
  8 21  1  0
 13 22  1  0
 17 23  1  0
 20 24  1  0
 21 25  1  0
 24 25  1  0
 23 26  1  0
M  END
>  <IDNUMBER>  (661) 
Y505-4336

>  <available>  (661) 
10

>  <H_acceptor>  (661) 
7

>  <H_donor>  (661) 
2

>  <B_rotN>  (661) 
7

>  <N_O>  (661) 
6

>  <logP>  (661) 
3.2377

>  <logD>  (661) 
1.9714

>  <logSw>  (661) 
-3.5473

>  <PSA>  (661) 
74.434

>  <pKa_ma>  (661) 
6.1579

>  <pKa_mb>  (661) 
-0.4871

>  <N_Chirals>  (661) 
1

>  <Name>  (661) 
N-(3-cyano-4,5,6,7-tetrahydro-1-benzothiophen-2-yl)-2-[(4-methyl-6-oxo-1,6-dihydropyrimidin-2-yl)sulfanyl]butanamide

>  <Smile>  (661) 
CCC(C(Nc(sc1c2CCCC1)c2C#N)=O)SC(N1)=NC(C)=CC1=O

>  <Color>  (661) 
ORANGE

>  <Collection>  (661) 
DC

>  <InChI>  (661) 
InChI=1S/C18H20N4O2S2/c1-3-13(26-18-20-10(2)8-15(23)21-18)16(24)22-17-12(9-19)11-6-4-5-7-14(11)25-17/h8,13H,3-7H2,1-2H3,(H,22,24)(H,20,21,23)/t13-/m0/s1

>  <InChI Key>  (661) 
ZWEWXSYMOXEWEX-ZDUSSCGKSA-N

>  <PERCENTSP3>  (661) 
44.4

>  <Link>  (661) 
https://www.chemdiv.com/catalog/screening-compounds/compound-Y505-4336/

>  <MFCDNUMBER>  (661) 
MFCD02056540

>  <STEREO>  (661) 
RACEMIC MIXTURE

>  <State>  (661) 
Solid

>  <Similarity score>  (661) 
0.18

$$$$
N-(6-tert-butyl-3-cyano-4,5,6,7-tetrahydro-1-benzothiophen-2-yl)-3,5-dimethyl-1,
     RDKit          2D

 25 27  0  0  0  0  0  0  0  0999 V2000
   -0.4519   -0.3644    0.0000 C   0  0  0  0  0  0  0  0  0  0  0  0
   -0.1771    0.5728    0.0000 C   0  0  0  0  0  0  0  0  0  0  0  0
    1.1516   -0.3561    0.0000 C   0  0  0  0  0  0  0  0  0  0  0  0
   -3.1135   -0.3644    0.0000 C   0  0  0  0  0  0  0  0  0  0  0  0
    0.8309    0.5811    0.0000 C   0  0  0  0  0  0  0  0  0  0  0  0
   -2.1679   -0.0645    0.0000 C   0  0  0  0  0  0  0  0  0  0  0  0
    0.3519   -0.9475    0.0000 S   0  0  0  0  0  0  0  0  0  0  0  0
   -1.4058   -0.7101    0.0000 N   0  0  0  0  0  0  0  0  0  0  0  0
   -4.7338   -0.2186    0.0000 N   0  0  0  0  0  0  0  0  0  0  0  0
   -4.5088   -1.1808    0.0000 O   0  0  0  0  0  0  0  0  0  0  0  0
   -3.5175   -1.2808    0.0000 C   0  0  0  0  0  0  0  0  0  0  0  0
   -3.8632    0.2896    0.0000 C   0  0  0  0  0  0  0  0  0  0  0  0
   -0.7851    1.3644    0.0000 C   0  0  0  0  0  0  0  0  0  0  0  0
    2.1346   -0.5559    0.0000 C   0  0  0  0  0  0  0  0  0  0  0  0
   -1.3974    2.1555    0.0000 N   0  0  0  0  0  0  0  0  0  0  0  0
    1.4889    1.3476    0.0000 C   0  0  0  0  0  0  0  0  0  0  0  0
    2.7969    0.1896    0.0000 C   0  0  0  0  0  0  0  0  0  0  0  0
   -1.9679    0.9185    0.0000 O   0  0  0  0  0  0  0  0  0  0  0  0
    3.7715   -0.0186    0.0000 C   0  0  0  0  0  0  0  0  0  0  0  0
    2.4803    1.1476    0.0000 C   0  0  0  0  0  0  0  0  0  0  0  0
   -3.0136   -2.1555    0.0000 C   0  0  0  0  0  0  0  0  0  0  0  0
   -3.7799    1.3099    0.0000 C   0  0  0  0  0  0  0  0  0  0  0  0
    4.7338   -0.2269    0.0000 C   0  0  0  0  0  0  0  0  0  0  0  0
    3.9799    0.9559    0.0000 C   0  0  0  0  0  0  0  0  0  0  0  0
    3.5508   -0.9934    0.0000 C   0  0  0  0  0  0  0  0  0  0  0  0
  1  2  2  0
  3  7  1  0
  4  6  1  0
  2  5  1  0
  3  5  2  0
  6  8  1  0
  1  7  1  0
  1  8  1  0
  9 12  2  0
  9 10  1  0
 10 11  1  0
  4 11  2  0
  4 12  1  0
  2 13  1  0
  3 14  1  0
 13 15  3  0
  5 16  1  0
 14 17  1  0
  6 18  2  0
 17 19  1  0
 16 20  1  0
 17 20  1  0
 11 21  1  0
 12 22  1  0
 19 23  1  0
 19 24  1  0
 19 25  1  0
M  END
>  <IDNUMBER>  (662) 
Y202-7736

>  <available>  (662) 
17

>  <H_acceptor>  (662) 
5

>  <H_donor>  (662) 
1

>  <B_rotN>  (662) 
5

>  <N_O>  (662) 
5

>  <logP>  (662) 
4.3154

>  <logD>  (662) 
0.9507

>  <logSw>  (662) 
-4.2547

>  <PSA>  (662) 
62.139

>  <pKa_ma>  (662) 
4.0354

>  <pKa_mb>  (662) 
-4.7208

>  <N_Chirals>  (662) 
1

>  <Name>  (662) 
N-(6-tert-butyl-3-cyano-4,5,6,7-tetrahydro-1-benzothiophen-2-yl)-3,5-dimethyl-1,2-oxazole-4-carboxamide

>  <Smile>  (662) 
CC(C)(C)C(CC1)Cc2c1c(C#N)c(NC(c1c(C)onc1C)=O)s2

>  <Color>  (662) 
YELLOW

>  <Collection>  (662) 
DC

>  <InChI>  (662) 
InChI=1S/C19H23N3O2S/c1-10-16(11(2)24-22-10)17(23)21-18-14(9-20)13-7-6-12(19(3,4)5)8-15(13)25-18/h12H,6-8H2,1-5H3,(H,21,23)/t12-/m1/s1

>  <InChI Key>  (662) 
AGTHXWXYQILABZ-GFCCVEGCSA-N

>  <PERCENTSP3>  (662) 
52.63

>  <Link>  (662) 
https://www.chemdiv.com/catalog/screening-compounds/compound-Y202-7736/

>  <MFCDNUMBER>  (662) 
MFCD03074916

>  <STEREO>  (662) 
RACEMIC MIXTURE

>  <State>  (662) 
Solid

>  <Similarity score>  (662) 
0.18

$$$$
6-acetyl-2-amino-4,5,6,7-tetrahydrothieno[2,3-c]pyridine-3-carbonitrile
     RDKit          2D

 15 16  0  0  0  0  0  0  0  0999 V2000
   -1.6639   -0.0438    0.0000 C   0  0  0  0  0  0  0  0  0  0  0  0
   -1.9763   -0.9850    0.0000 C   0  0  0  0  0  0  0  0  0  0  0  0
   -0.3602   -1.0016    0.0000 C   0  0  0  0  0  0  0  0  0  0  0  0
   -0.6684   -0.0438    0.0000 C   0  0  0  0  0  0  0  0  0  0  0  0
   -1.1682   -1.5764    0.0000 S   0  0  0  0  0  0  0  0  0  0  0  0
    1.2808   -0.4685    0.0000 N   0  0  0  0  0  0  0  0  0  0  0  0
    0.6143   -1.2141    0.0000 C   0  0  0  0  0  0  0  0  0  0  0  0
   -2.2512    0.7643    0.0000 C   0  0  0  0  0  0  0  0  0  0  0  0
    2.2637   -0.6810    0.0000 C   0  0  0  0  0  0  0  0  0  0  0  0
   -2.7593    1.6306    0.0000 N   0  0  0  0  0  0  0  0  0  0  0  0
   -0.0021    0.7060    0.0000 C   0  0  0  0  0  0  0  0  0  0  0  0
    0.9809    0.4935    0.0000 C   0  0  0  0  0  0  0  0  0  0  0  0
   -2.9259   -1.3015    0.0000 N   0  0  0  0  0  0  0  0  0  0  0  0
    2.9259    0.0604    0.0000 O   0  0  0  0  0  0  0  0  0  0  0  0
    2.5636   -1.6306    0.0000 C   0  0  0  0  0  0  0  0  0  0  0  0
  1  2  2  0
  3  4  2  0
  3  5  1  0
  1  4  1  0
  2  5  1  0
  6 12  1  0
  6  7  1  0
  3  7  1  0
  1  8  1  0
  6  9  1  0
  8 10  3  0
  4 11  1  0
 11 12  1  0
  2 13  1  0
  9 14  2  0
  9 15  1  0
M  END
>  <IDNUMBER>  (663) 
FF01-4909

>  <available>  (663) 
617

>  <H_acceptor>  (663) 
3

>  <H_donor>  (663) 
2

>  <B_rotN>  (663) 
2

>  <N_O>  (663) 
4

>  <logP>  (663) 
0.6311

>  <logD>  (663) 
0.6311

>  <logSw>  (663) 
-1.0388

>  <PSA>  (663) 
55.62

>  <pKa_ma>  (663) 
15.7067

>  <pKa_mb>  (663) 
-0.8396

>  <N_Chirals>  (663) 
0

>  <Name>  (663) 
6-acetyl-2-amino-4,5,6,7-tetrahydrothieno[2,3-c]pyridine-3-carbonitrile

>  <Smile>  (663) 
CC(N(CC1)Cc2c1c(C#N)c(N)s2)=O

>  <Color>  (663) 
ORANGE

>  <Collection>  (663) 
NC

>  <InChI>  (663) 
InChI=1S/C10H11N3OS/c1-6(14)13-3-2-7-8(4-11)10(12)15-9(7)5-13/h2-3,5,12H2,1H3

>  <InChI Key>  (663) 
ONWFDBVICXATKK-UHFFFAOYSA-N

>  <PERCENTSP3>  (663) 
40

>  <Link>  (663) 
https://www.chemdiv.com/catalog/screening-compounds/compound-FF01-4909/

>  <MFCDNUMBER>  (663) 
MFCD09743161

>  <STEREO>  (663) 
ACHIRAL

>  <State>  (663) 
Solid

>  <Similarity score>  (663) 
0.18

$$$$
N-(6-tert-butyl-3-cyano-4,5,6,7-tetrahydro-1-benzothiophen-2-yl)-2-{[4-methyl-6-
     RDKit          2D

 31 33  0  0  0  0  0  0  0  0999 V2000
   -0.9357    0.8103    0.0000 C   0  0  0  0  0  0  0  0  0  0  0  0
   -1.5042    1.6345    0.0000 C   0  0  0  0  0  0  0  0  0  0  0  0
   -2.4566    0.3127    0.0000 C   0  0  0  0  0  0  0  0  0  0  0  0
   -2.4566    1.3361    0.0000 C   0  0  0  0  0  0  0  0  0  0  0  0
   -1.5042    0.0143    0.0000 S   0  0  0  0  0  0  0  0  0  0  0  0
    5.0718   -2.6437    0.0000 C   0  0  0  0  0  0  0  0  0  0  0  0
    0.0687    0.8103    0.0000 N   0  0  0  0  0  0  0  0  0  0  0  0
    3.0726   -0.9190    0.0000 C   0  0  0  0  0  0  0  0  0  0  0  0
    3.5700   -1.7766    0.0000 N   0  0  0  0  0  0  0  0  0  0  0  0
    4.5742   -1.7766    0.0000 C   0  0  0  0  0  0  0  0  0  0  0  0
   -1.1822    2.5634    0.0000 C   0  0  0  0  0  0  0  0  0  0  0  0
    3.5700   -0.0520    0.0000 N   0  0  0  0  0  0  0  0  0  0  0  0
   -3.3235   -0.1848    0.0000 C   0  0  0  0  0  0  0  0  0  0  0  0
   -0.8647    3.4965    0.0000 N   0  0  0  0  0  0  0  0  0  0  0  0
   -3.3235    1.8334    0.0000 C   0  0  0  0  0  0  0  0  0  0  0  0
    0.5711   -0.0520    0.0000 C   0  0  0  0  0  0  0  0  0  0  0  0
    5.0718   -0.9190    0.0000 C   0  0  0  0  0  0  0  0  0  0  0  0
   -4.1813    0.3127    0.0000 C   0  0  0  0  0  0  0  0  0  0  0  0
    2.0727   -0.9190    0.0000 S   0  0  0  0  0  0  0  0  0  0  0  0
    4.5742   -0.0520    0.0000 C   0  0  0  0  0  0  0  0  0  0  0  0
   -5.0480   -0.1848    0.0000 C   0  0  0  0  0  0  0  0  0  0  0  0
   -4.1813    1.3361    0.0000 C   0  0  0  0  0  0  0  0  0  0  0  0
    0.0687   -0.9190    0.0000 O   0  0  0  0  0  0  0  0  0  0  0  0
    5.5597   -3.4965    0.0000 F   0  0  0  0  0  0  0  0  0  0  0  0
    5.9389   -2.1462    0.0000 F   0  0  0  0  0  0  0  0  0  0  0  0
    4.2095   -3.1411    0.0000 F   0  0  0  0  0  0  0  0  0  0  0  0
    1.5658   -0.0520    0.0000 C   0  0  0  0  0  0  0  0  0  0  0  0
   -5.9389   -0.7106    0.0000 C   0  0  0  0  0  0  0  0  0  0  0  0
   -4.5460   -1.0755    0.0000 C   0  0  0  0  0  0  0  0  0  0  0  0
   -5.5694    0.6728    0.0000 C   0  0  0  0  0  0  0  0  0  0  0  0
    5.0718    0.8103    0.0000 C   0  0  0  0  0  0  0  0  0  0  0  0
  1  2  2  0
  3  5  1  0
  2  4  1  0
  3  4  2  0
  1  5  1  0
  6 10  1  0
  1  7  1  0
  8 19  1  0
  8  9  2  0
  9 10  1  0
 10 17  2  0
  2 11  1  0
  8 12  1  0
  3 13  1  0
 11 14  3  0
  4 15  1  0
  7 16  1  0
 17 20  1  0
 13 18  1  0
 19 27  1  0
 12 20  2  0
 18 21  1  0
 15 22  1  0
 18 22  1  0
 16 23  2  0
  6 24  1  0
  6 25  1  0
  6 26  1  0
 16 27  1  0
 21 28  1  0
 21 29  1  0
 21 30  1  0
 20 31  1  0
M  END
>  <IDNUMBER>  (664) 
3112-5015

>  <available>  (664) 
25

>  <H_acceptor>  (664) 
6

>  <H_donor>  (664) 
1

>  <B_rotN>  (664) 
8

>  <N_O>  (664) 
5

>  <logP>  (664) 
5.5884

>  <logD>  (664) 
4.5557

>  <logSw>  (664) 
-5.4225

>  <PSA>  (664) 
56.987

>  <pKa_ma>  (664) 
6.4095

>  <pKa_mb>  (664) 
-0.3205

>  <N_Chirals>  (664) 
1

>  <Name>  (664) 
N-(6-tert-butyl-3-cyano-4,5,6,7-tetrahydro-1-benzothiophen-2-yl)-2-{[4-methyl-6-(trifluoromethyl)pyrimidin-2-yl]sulfanyl}acetamide

>  <Smile>  (664) 
CC(C)(C)C(CC1)Cc2c1c(C#N)c(NC(CSc1nc(C(F)(F)F)cc(C)n1)=O)s2

>  <Color>  (664) 
ORANGE

>  <Collection>  (664) 
DC

>  <InChI>  (664) 
InChI=1S/C21H23F3N4OS2/c1-11-7-16(21(22,23)24)27-19(26-11)30-10-17(29)28-18-14(9-25)13-6-5-12(20(2,3)4)8-15(13)31-18/h7,12H,5-6,8,10H2,1-4H3,(H,28,29)/t12-/m1/s1

>  <InChI Key>  (664) 
NHDQHVOHBGJOOL-GFCCVEGCSA-N

>  <PERCENTSP3>  (664) 
52.4

>  <Link>  (664) 
https://www.chemdiv.com/catalog/screening-compounds/compound-3112-5015/

>  <MFCDNUMBER>  (664) 
MFCD02086224

>  <CLNUMBER>  (664) 
CL1325

>  <STEREO>  (664) 
RACEMIC MIXTURE

>  <State>  (664) 
Solid

>  <Similarity score>  (664) 
0.18

$$$$
N-(3-cyano-4,5,6,7-tetrahydro-1-benzothiophen-2-yl)-2-[(4,6-dimethylpyrimidin-2-
     RDKit          2D

 26 28  0  0  0  0  0  0  0  0999 V2000
   -1.6087   -0.2787    0.0000 C   0  0  0  0  0  0  0  0  0  0  0  0
   -2.3679    0.3630    0.0000 C   0  0  0  0  0  0  0  0  0  0  0  0
   -1.9828   -1.1957    0.0000 S   0  0  0  0  0  0  0  0  0  0  0  0
   -3.2231   -0.1572    0.0000 C   0  0  0  0  0  0  0  0  0  0  0  0
   -0.6356   -0.0581    0.0000 N   0  0  0  0  0  0  0  0  0  0  0  0
    2.6525   -1.0994    0.0000 C   0  0  0  0  0  0  0  0  0  0  0  0
   -3.0213   -1.0687    0.0000 C   0  0  0  0  0  0  0  0  0  0  0  0
    0.0581   -0.7987    0.0000 C   0  0  0  0  0  0  0  0  0  0  0  0
    2.9533   -0.1572    0.0000 N   0  0  0  0  0  0  0  0  0  0  0  0
    3.3341   -1.8305    0.0000 N   0  0  0  0  0  0  0  0  0  0  0  0
   -2.2688    1.3614    0.0000 C   0  0  0  0  0  0  0  0  0  0  0  0
    1.6820   -1.3012    0.0000 S   0  0  0  0  0  0  0  0  0  0  0  0
   -2.1726    2.3598    0.0000 N   0  0  0  0  0  0  0  0  0  0  0  0
    1.0164   -0.5633    0.0000 C   0  0  0  0  0  0  0  0  0  0  0  0
    4.3045   -1.6231    0.0000 C   0  0  0  0  0  0  0  0  0  0  0  0
    3.9517    0.0662    0.0000 C   0  0  0  0  0  0  0  0  0  0  0  0
   -0.2426   -1.7434    0.0000 O   0  0  0  0  0  0  0  0  0  0  0  0
    4.6053   -0.6877    0.0000 C   0  0  0  0  0  0  0  0  0  0  0  0
   -4.2243    0.1558    0.0000 C   0  0  0  0  0  0  0  0  0  0  0  0
   -3.7311   -1.7742    0.0000 C   0  0  0  0  0  0  0  0  0  0  0  0
    1.3012    0.3630    0.0000 C   0  0  0  0  0  0  0  0  0  0  0  0
    4.9742   -2.3598    0.0000 C   0  0  0  0  0  0  0  0  0  0  0  0
    4.2764    0.9923    0.0000 C   0  0  0  0  0  0  0  0  0  0  0  0
   -4.9742   -0.5232    0.0000 C   0  0  0  0  0  0  0  0  0  0  0  0
   -4.7135   -1.5017    0.0000 C   0  0  0  0  0  0  0  0  0  0  0  0
    2.2996    0.6115    0.0000 C   0  0  0  0  0  0  0  0  0  0  0  0
  1  2  2  0
  1  3  1  0
  2  4  1  0
  1  5  1  0
  6 12  1  0
  3  7  1  0
  4  7  2  0
  5  8  1  0
  6  9  2  0
  6 10  1  0
  2 11  1  0
 11 13  3  0
 12 14  1  0
  8 14  1  0
 10 15  2  0
  9 16  1  0
 16 18  2  0
  8 17  2  0
 15 18  1  0
  4 19  1  0
  7 20  1  0
 14 21  1  0
 15 22  1  0
 16 23  1  0
 19 24  1  0
 20 25  1  0
 24 25  1  0
 21 26  1  0
M  END
>  <IDNUMBER>  (665) 
8008-3308

>  <available>  (665) 
2

>  <H_acceptor>  (665) 
6

>  <H_donor>  (665) 
1

>  <B_rotN>  (665) 
7

>  <N_O>  (665) 
5

>  <logP>  (665) 
4.412

>  <logD>  (665) 
2.9581

>  <logSw>  (665) 
-4.3163

>  <PSA>  (665) 
57.007

>  <pKa_ma>  (665) 
5.9617

>  <pKa_mb>  (665) 
0.319

>  <N_Chirals>  (665) 
1

>  <Name>  (665) 
N-(3-cyano-4,5,6,7-tetrahydro-1-benzothiophen-2-yl)-2-[(4,6-dimethylpyrimidin-2-yl)sulfanyl]butanamide

>  <Smile>  (665) 
CCC(C(Nc(sc1c2CCCC1)c2C#N)=O)Sc1nc(C)cc(C)n1

>  <Color>  (665) 
NOT COLORED

>  <Collection>  (665) 
DC

>  <InChI>  (665) 
InChI=1S/C19H22N4OS2/c1-4-15(26-19-21-11(2)9-12(3)22-19)17(24)23-18-14(10-20)13-7-5-6-8-16(13)25-18/h9,15H,4-8H2,1-3H3,(H,23,24)/t15-/m0/s1

>  <InChI Key>  (665) 
LQKVBZOLQQBYFL-HNNXBMFYSA-N

>  <PERCENTSP3>  (665) 
47.37

>  <Link>  (665) 
https://www.chemdiv.com/catalog/screening-compounds/compound-8008-3308/

>  <MFCDNUMBER>  (665) 
MFCD01305964

>  <STEREO>  (665) 
RACEMIC MIXTURE

>  <State>  (665) 
Solid

>  <Similarity score>  (665) 
0.18

$$$$
N-(3-cyano-6-methyl-4,5,6,7-tetrahydro-1-benzothiophen-2-yl)-4-(3-phenyl-1,2,4-o
     RDKit          2D

 29 32  0  0  0  0  0  0  0  0999 V2000
    1.7771    2.0606    0.0000 C   0  0  0  0  0  0  0  0  0  0  0  0
    1.9897    1.0688    0.0000 C   0  0  0  0  0  0  0  0  0  0  0  0
    2.9690    0.9605    0.0000 C   0  0  0  0  0  0  0  0  0  0  0  0
    3.3897    1.8814    0.0000 C   0  0  0  0  0  0  0  0  0  0  0  0
    2.6440    2.5440    0.0000 S   0  0  0  0  0  0  0  0  0  0  0  0
   -2.3188   -0.9272    0.0000 N   0  0  0  0  0  0  0  0  0  0  0  0
   -2.9230   -1.7189    0.0000 C   0  0  0  0  0  0  0  0  0  0  0  0
   -2.3607   -2.5440    0.0000 N   0  0  0  0  0  0  0  0  0  0  0  0
    0.8646    2.4688    0.0000 N   0  0  0  0  0  0  0  0  0  0  0  0
    1.3188    0.3105    0.0000 C   0  0  0  0  0  0  0  0  0  0  0  0
   -1.3814   -1.2438    0.0000 C   0  0  0  0  0  0  0  0  0  0  0  0
   -1.4104   -2.2564    0.0000 O   0  0  0  0  0  0  0  0  0  0  0  0
    0.6396   -0.4272    0.0000 N   0  0  0  0  0  0  0  0  0  0  0  0
    3.5440    0.1562    0.0000 C   0  0  0  0  0  0  0  0  0  0  0  0
    0.0562    1.8814    0.0000 C   0  0  0  0  0  0  0  0  0  0  0  0
    4.3815    1.9689    0.0000 C   0  0  0  0  0  0  0  0  0  0  0  0
   -3.9357   -1.6813    0.0000 C   0  0  0  0  0  0  0  0  0  0  0  0
   -0.8311    2.2689    0.0000 O   0  0  0  0  0  0  0  0  0  0  0  0
    4.5397    0.2357    0.0000 C   0  0  0  0  0  0  0  0  0  0  0  0
    4.9565    1.1563    0.0000 C   0  0  0  0  0  0  0  0  0  0  0  0
   -0.5562   -0.6688    0.0000 C   0  0  0  0  0  0  0  0  0  0  0  0
    0.1562    0.9186    0.0000 C   0  0  0  0  0  0  0  0  0  0  0  0
   -0.6563    0.3230    0.0000 C   0  0  0  0  0  0  0  0  0  0  0  0
   -4.4690   -2.5440    0.0000 C   0  0  0  0  0  0  0  0  0  0  0  0
   -4.4191   -0.8064    0.0000 C   0  0  0  0  0  0  0  0  0  0  0  0
    5.9566    1.2438    0.0000 C   0  0  0  0  0  0  0  0  0  0  0  0
   -5.4732   -2.5187    0.0000 C   0  0  0  0  0  0  0  0  0  0  0  0
   -5.4315   -0.7812    0.0000 C   0  0  0  0  0  0  0  0  0  0  0  0
   -5.9566   -1.6271    0.0000 C   0  0  0  0  0  0  0  0  0  0  0  0
  1  2  2  0
  2  3  1  0
  4  5  1  0
  3  4  2  0
  1  5  1  0
  6 11  2  0
  6  7  1  0
  8 12  1  0
  7  8  2  0
  1  9  1  0
  2 10  1  0
 11 21  1  0
 11 12  1  0
 10 13  3  0
  3 14  1  0
  9 15  1  0
  4 16  1  0
  7 17  1  0
 15 18  2  0
 14 19  1  0
 16 20  1  0
 19 20  1  0
 21 23  1  0
 15 22  1  0
 22 23  1  0
 17 24  2  0
 17 25  1  0
 20 26  1  0
 24 27  1  0
 27 29  2  0
 25 28  2  0
 28 29  1  0
M  END
>  <IDNUMBER>  (666) 
D321-0131

>  <available>  (666) 
150

>  <H_acceptor>  (666) 
6

>  <H_donor>  (666) 
1

>  <B_rotN>  (666) 
8

>  <N_O>  (666) 
6

>  <logP>  (666) 
4.7791

>  <logD>  (666) 
3.4659

>  <logSw>  (666) 
-4.7143

>  <PSA>  (666) 
71.23

>  <pKa_ma>  (666) 
6.1085

>  <pKa_mb>  (666) 
-3.8515

>  <N_Chirals>  (666) 
1

>  <Name>  (666) 
N-(3-cyano-6-methyl-4,5,6,7-tetrahydro-1-benzothiophen-2-yl)-4-(3-phenyl-1,2,4-oxadiazol-5-yl)butanamide

>  <Smile>  (666) 
CC(CC1)Cc2c1c(C#N)c(NC(CCCc1nc(-c3ccccc3)no1)=O)s2

>  <Color>  (666) 
ORANGE

>  <Collection>  (666) 
DC

>  <InChI>  (666) 
InChI=1S/C22H22N4O2S/c1-14-10-11-16-17(13-23)22(29-18(16)12-14)24-19(27)8-5-9-20-25-21(26-28-20)15-6-3-2-4-7-15/h2-4,6-7,14H,5,8-12H2,1H3,(H,24,27)/t14-/m1/s1

>  <InChI Key>  (666) 
NLKYBZFYKWKHNJ-CQSZACIVSA-N

>  <PERCENTSP3>  (666) 
36.4

>  <Link>  (666) 
https://www.chemdiv.com/catalog/screening-compounds/compound-D321-0131/

>  <MFCDNUMBER>  (666) 
MFCD14819072

>  <CLNUMBER>  (666) 
CL5000

>  <STEREO>  (666) 
RACEMIC MIXTURE

>  <State>  (666) 
Solid

>  <Similarity score>  (666) 
0.18

$$$$
N-[3-cyano-6-(2-methylbutan-2-yl)-4,5,6,7-tetrahydro-1-benzothiophen-2-yl]-2-(2,
     RDKit          2D

 30 32  0  0  0  0  0  0  0  0999 V2000
   -1.3187   -1.5208    0.0000 C   0  0  0  0  0  0  0  0  0  0  0  0
   -2.2729   -1.4750    0.0000 C   0  0  0  0  0  0  0  0  0  0  0  0
   -1.7312    0.0250    0.0000 C   0  0  0  0  0  0  0  0  0  0  0  0
   -2.4895   -0.4875    0.0000 C   0  0  0  0  0  0  0  0  0  0  0  0
   -0.9521   -0.5875    0.0000 S   0  0  0  0  0  0  0  0  0  0  0  0
   -0.7062   -2.4249    0.0000 N   0  0  0  0  0  0  0  0  0  0  0  0
    0.3021   -2.4249    0.0000 C   0  0  0  0  0  0  0  0  0  0  0  0
   -2.9395   -2.3041    0.0000 C   0  0  0  0  0  0  0  0  0  0  0  0
   -1.7937    0.9875    0.0000 C   0  0  0  0  0  0  0  0  0  0  0  0
   -3.6103   -3.1206    0.0000 N   0  0  0  0  0  0  0  0  0  0  0  0
    1.7228   -3.3374    0.0000 O   0  0  0  0  0  0  0  0  0  0  0  0
    2.2395   -2.5166    0.0000 C   0  0  0  0  0  0  0  0  0  0  0  0
   -3.4270   -0.0834    0.0000 C   0  0  0  0  0  0  0  0  0  0  0  0
    3.2227   -2.5166    0.0000 C   0  0  0  0  0  0  0  0  0  0  0  0
   -2.6561    1.4624    0.0000 C   0  0  0  0  0  0  0  0  0  0  0  0
    0.7563   -3.2999    0.0000 C   0  0  0  0  0  0  0  0  0  0  0  0
    3.7393   -1.7041    0.0000 C   0  0  0  0  0  0  0  0  0  0  0  0
   -2.6937    2.5332    0.0000 C   0  0  0  0  0  0  0  0  0  0  0  0
    0.8021   -1.5542    0.0000 O   0  0  0  0  0  0  0  0  0  0  0  0
   -3.5270    0.9125    0.0000 C   0  0  0  0  0  0  0  0  0  0  0  0
    1.7937   -1.6417    0.0000 C   0  0  0  0  0  0  0  0  0  0  0  0
    3.2728   -0.8208    0.0000 C   0  0  0  0  0  0  0  0  0  0  0  0
    3.7144   -3.3623    0.0000 Cl  0  0  0  0  0  0  0  0  0  0  0  0
    2.2853   -0.8208    0.0000 C   0  0  0  0  0  0  0  0  0  0  0  0
    3.7561    0.0083    0.0000 Cl  0  0  0  0  0  0  0  0  0  0  0  0
   -2.7561    3.5956    0.0000 C   0  0  0  0  0  0  0  0  0  0  0  0
   -3.7561    2.5083    0.0000 C   0  0  0  0  0  0  0  0  0  0  0  0
   -1.7062    2.5624    0.0000 C   0  0  0  0  0  0  0  0  0  0  0  0
    0.2396   -4.1290    0.0000 C   0  0  0  0  0  0  0  0  0  0  0  0
   -1.9062    4.1290    0.0000 C   0  0  0  0  0  0  0  0  0  0  0  0
  1  2  2  0
  3  5  1  0
  3  4  2  0
  2  4  1  0
  1  5  1  0
  1  6  1  0
  6  7  1  0
  2  8  1  0
  3  9  1  0
  8 10  3  0
 11 16  1  0
 11 12  1  0
  4 13  1  0
 12 14  2  0
  9 15  1  0
 15 20  1  0
  7 16  1  0
 14 17  1  0
 17 22  2  0
 15 18  1  0
  7 19  2  0
 13 20  1  0
 12 21  1  0
 22 24  1  0
 14 23  1  0
 21 24  2  0
 22 25  1  0
 18 26  1  0
 18 27  1  0
 18 28  1  0
 16 29  1  0
 26 30  1  0
M  END
>  <IDNUMBER>  (667) 
Y503-0272

>  <available>  (667) 
20

>  <H_acceptor>  (667) 
4

>  <H_donor>  (667) 
1

>  <B_rotN>  (667) 
8

>  <N_O>  (667) 
4

>  <logP>  (667) 
6.8184

>  <logD>  (667) 
5.4004

>  <logSw>  (667) 
-6.5962

>  <PSA>  (667) 
46.977

>  <pKa_ma>  (667) 
5.9989

>  <pKa_mb>  (667) 
-5.485

>  <N_Chirals>  (667) 
2

>  <Name>  (667) 
N-[3-cyano-6-(2-methylbutan-2-yl)-4,5,6,7-tetrahydro-1-benzothiophen-2-yl]-2-(2,4-dichlorophenoxy)propanamide

>  <Smile>  (667) 
CCC(C)(C)C(CC1)Cc2c1c(C#N)c(NC(C(C)Oc(ccc(Cl)c1)c1Cl)=O)s2

>  <Color>  (667) 
ORANGE

>  <Collection>  (667) 
DC

>  <InChI>  (667) 
InChI=1S/C23H26Cl2N2O2S/c1-5-23(3,4)14-6-8-16-17(12-26)22(30-20(16)10-14)27-21(28)13(2)29-19-9-7-15(24)11-18(19)25/h7,9,11,13-14H,5-6,8,10H2,1-4H3,(H,27,28)

>  <InChI Key>  (667) 
DPDWBJUKNIVGST-UHFFFAOYSA-N

>  <PERCENTSP3>  (667) 
47.83

>  <Link>  (667) 
https://www.chemdiv.com/catalog/screening-compounds/compound-Y503-0272/

>  <MFCDNUMBER>  (667) 
MFCD01338412

>  <STEREO>  (667) 
MIXTURE OF STEREOISOMERS

>  <State>  (667) 
Solid

>  <Similarity score>  (667) 
0.18

$$$$
2-amino-6-benzyl-4,5,6,7-tetrahydrothieno[2,3-c]pyridine-3-carbonitrile
     RDKit          2D

 19 21  0  0  0  0  0  0  0  0999 V2000
    2.4979   -0.1417    0.0000 C   0  0  0  0  0  0  0  0  0  0  0  0
    2.7980   -1.1050    0.0000 C   0  0  0  0  0  0  0  0  0  0  0  0
    1.1843   -1.1050    0.0000 C   0  0  0  0  0  0  0  0  0  0  0  0
    1.4969   -0.1417    0.0000 C   0  0  0  0  0  0  0  0  0  0  0  0
    1.9973   -1.6721    0.0000 S   0  0  0  0  0  0  0  0  0  0  0  0
    3.0857    0.6588    0.0000 C   0  0  0  0  0  0  0  0  0  0  0  0
   -0.4669   -0.5670    0.0000 N   0  0  0  0  0  0  0  0  0  0  0  0
    3.6735    1.4720    0.0000 N   0  0  0  0  0  0  0  0  0  0  0  0
    0.1960   -1.3176    0.0000 C   0  0  0  0  0  0  0  0  0  0  0  0
    0.8214    0.5920    0.0000 C   0  0  0  0  0  0  0  0  0  0  0  0
    3.7486   -1.4053    0.0000 N   0  0  0  0  0  0  0  0  0  0  0  0
   -0.1458    0.3918    0.0000 C   0  0  0  0  0  0  0  0  0  0  0  0
   -1.4426   -0.7839    0.0000 C   0  0  0  0  0  0  0  0  0  0  0  0
   -2.1181   -0.0333    0.0000 C   0  0  0  0  0  0  0  0  0  0  0  0
   -1.8055    0.9299    0.0000 C   0  0  0  0  0  0  0  0  0  0  0  0
   -3.0814   -0.2335    0.0000 C   0  0  0  0  0  0  0  0  0  0  0  0
   -3.7486    0.5171    0.0000 C   0  0  0  0  0  0  0  0  0  0  0  0
   -2.4685    1.6721    0.0000 C   0  0  0  0  0  0  0  0  0  0  0  0
   -3.4567    1.4595    0.0000 C   0  0  0  0  0  0  0  0  0  0  0  0
  1  2  2  0
  3  4  2  0
  3  5  1  0
  1  4  1  0
  2  5  1  0
  1  6  1  0
  7 12  1  0
  7  9  1  0
  6  8  3  0
  3  9  1  0
  4 10  1  0
  2 11  1  0
 10 12  1  0
  7 13  1  0
 13 14  1  0
 14 15  1  0
 14 16  2  0
 16 17  1  0
 15 18  2  0
 18 19  1  0
 17 19  2  0
M  END
>  <IDNUMBER>  (668) 
Y512-7452

>  <available>  (668) 
33

>  <H_acceptor>  (668) 
2

>  <H_donor>  (668) 
2

>  <B_rotN>  (668) 
3

>  <N_O>  (668) 
3

>  <logP>  (668) 
2.536

>  <logD>  (668) 
2.535

>  <logSw>  (668) 
-2.519

>  <PSA>  (668) 
41.97

>  <pKa_ma>  (668) 
15.47

>  <pKa_mb>  (668) 
4.753

>  <N_Chirals>  (668) 
0

>  <Name>  (668) 
2-amino-6-benzyl-4,5,6,7-tetrahydrothieno[2,3-c]pyridine-3-carbonitrile

>  <Smile>  (668) 
c1(c(sc2c1CCN(C2)Cc1ccccc1)N)C#N

>  <Color>  (668) 
BROWN

>  <Collection>  (668) 
DC

>  <InChI>  (668) 
InChI=1S/C15H15N3S/c16-8-13-12-6-7-18(10-14(12)19-15(13)17)9-11-4-2-1-3-5-11/h1-5H,6-7,9-10,17H2

>  <InChI Key>  (668) 
BWNBNBHFRHCKTK-UHFFFAOYSA-N

>  <PERCENTSP3>  (668) 
26.67

>  <Link>  (668) 
https://www.chemdiv.com/catalog/screening-compounds/compound-Y512-7452/

>  <MFCDNUMBER>  (668) 
MFCD00425859

>  <STEREO>  (668) 
ACHIRAL

>  <State>  (668) 
Solid

>  <Similarity score>  (668) 
0.18

$$$$
2-amino-6-methyl-4,5,6,7-tetrahydrothieno[2,3-c]pyridine-3-carbonitrile
     RDKit          2D

 13 14  0  0  0  0  0  0  0  0999 V2000
    0.9791   -0.0515    0.0000 C   0  0  0  0  0  0  0  0  0  0  0  0
    1.5684   -0.8581    0.0000 C   0  0  0  0  0  0  0  0  0  0  0  0
    0.0292   -0.3540    0.0000 C   0  0  0  0  0  0  0  0  0  0  0  0
    0.0292   -1.3555    0.0000 C   0  0  0  0  0  0  0  0  0  0  0  0
    0.9791   -1.6693    0.0000 S   0  0  0  0  0  0  0  0  0  0  0  0
    1.2861    0.9030    0.0000 C   0  0  0  0  0  0  0  0  0  0  0  0
    1.5415    1.8663    0.0000 N   0  0  0  0  0  0  0  0  0  0  0  0
   -1.6983   -1.3622    0.0000 N   0  0  0  0  0  0  0  0  0  0  0  0
   -0.8379   -1.8529    0.0000 C   0  0  0  0  0  0  0  0  0  0  0  0
   -0.8379    0.1434    0.0000 C   0  0  0  0  0  0  0  0  0  0  0  0
    2.5700   -0.8581    0.0000 N   0  0  0  0  0  0  0  0  0  0  0  0
   -1.6983   -0.3540    0.0000 C   0  0  0  0  0  0  0  0  0  0  0  0
   -2.5700   -1.8663    0.0000 C   0  0  0  0  0  0  0  0  0  0  0  0
  1  2  2  0
  1  3  1  0
  3  4  2  0
  4  5  1  0
  2  5  1  0
  1  6  1  0
  6  7  3  0
  8 12  1  0
  4  9  1  0
  8  9  1  0
  3 10  1  0
  2 11  1  0
 10 12  1  0
  8 13  1  0
M  END
>  <IDNUMBER>  (669) 
K815-1018

>  <available>  (669) 
11

>  <H_acceptor>  (669) 
2

>  <H_donor>  (669) 
2

>  <B_rotN>  (669) 
1

>  <N_O>  (669) 
3

>  <logP>  (669) 
0.7961

>  <logD>  (669) 
0.7867

>  <logSw>  (669) 
-0.8538

>  <PSA>  (669) 
41.902

>  <pKa_ma>  (669) 
15.4685

>  <pKa_mb>  (669) 
5.7408

>  <N_Chirals>  (669) 
0

>  <Name>  (669) 
2-amino-6-methyl-4,5,6,7-tetrahydrothieno[2,3-c]pyridine-3-carbonitrile

>  <Smile>  (669) 
CN(CC1)Cc2c1c(C#N)c(N)s2

>  <Color>  (669) 
YELLOW

>  <Collection>  (669) 
DC

>  <InChI>  (669) 
InChI=1S/C9H11N3S/c1-12-3-2-6-7(4-10)9(11)13-8(6)5-12/h2-3,5,11H2,1H3

>  <InChI Key>  (669) 
WVPOJZUKIIRHOQ-UHFFFAOYSA-N

>  <PERCENTSP3>  (669) 
44.4

>  <Link>  (669) 
https://www.chemdiv.com/catalog/screening-compounds/compound-K815-1018/

>  <MFCDNUMBER>  (669) 
MFCD00712387

>  <CLNUMBER>  (669) 
CL5675

>  <STEREO>  (669) 
ACHIRAL

>  <State>  (669) 
Solid

>  <Similarity score>  (669) 
0.18

$$$$
2-amino-4,5-dihydronaphtho[2,1-b]thiophene-1-carbonitrile
     RDKit          2D

 16 18  0  0  0  0  0  0  0  0999 V2000
    0.9270   -0.3728    0.0000 C   0  0  0  0  0  0  0  0  0  0  0  0
   -0.0562   -0.4354    0.0000 C   0  0  0  0  0  0  0  0  0  0  0  0
    1.3062   -1.3187    0.0000 C   0  0  0  0  0  0  0  0  0  0  0  0
   -0.3146   -1.3978    0.0000 C   0  0  0  0  0  0  0  0  0  0  0  0
    0.5270   -1.9519    0.0000 S   0  0  0  0  0  0  0  0  0  0  0  0
   -0.7604    0.2771    0.0000 C   0  0  0  0  0  0  0  0  0  0  0  0
    1.4561    0.4603    0.0000 C   0  0  0  0  0  0  0  0  0  0  0  0
    2.4435    0.4187    0.0000 N   0  0  0  0  0  0  0  0  0  0  0  0
   -1.2645   -1.6645    0.0000 C   0  0  0  0  0  0  0  0  0  0  0  0
   -1.7270    0.0062    0.0000 C   0  0  0  0  0  0  0  0  0  0  0  0
    2.2769   -1.5687    0.0000 N   0  0  0  0  0  0  0  0  0  0  0  0
   -1.9686   -0.9729    0.0000 C   0  0  0  0  0  0  0  0  0  0  0  0
   -0.5104    1.2520    0.0000 C   0  0  0  0  0  0  0  0  0  0  0  0
   -2.4435    0.7061    0.0000 C   0  0  0  0  0  0  0  0  0  0  0  0
   -1.2311    1.9519    0.0000 C   0  0  0  0  0  0  0  0  0  0  0  0
   -2.2061    1.6728    0.0000 C   0  0  0  0  0  0  0  0  0  0  0  0
  1  2  1  0
  1  3  2  0
  2  4  2  0
  4  5  1  0
  3  5  1  0
  2  6  1  0
  1  7  1  0
  7  8  3  0
  4  9  1  0
  9 12  1  0
  6 10  2  0
  3 11  1  0
 10 12  1  0
  6 13  1  0
 10 14  1  0
 13 15  2  0
 15 16  1  0
 14 16  2  0
M  END
>  <IDNUMBER>  (670) 
8019-5962

>  <available>  (670) 
15

>  <H_acceptor>  (670) 
1

>  <H_donor>  (670) 
2

>  <B_rotN>  (670) 
1

>  <N_O>  (670) 
2

>  <logP>  (670) 
3.0359

>  <logD>  (670) 
3.0359

>  <logSw>  (670) 
-3.4122

>  <PSA>  (670) 
38.22

>  <pKa_ma>  (670) 
19.2967

>  <pKa_mb>  (670) 
-4.5006

>  <N_Chirals>  (670) 
0

>  <Name>  (670) 
2-amino-4,5-dihydronaphtho[2,1-b]thiophene-1-carbonitrile

>  <Smile>  (670) 
Nc(sc(CC1)c2-c3c1cccc3)c2C#N

>  <Color>  (670) 
BROWN

>  <Collection>  (670) 
DC

>  <InChI>  (670) 
InChI=1S/C13H10N2S/c14-7-10-12-9-4-2-1-3-8(9)5-6-11(12)16-13(10)15/h1-4H,5-6,15H2

>  <InChI Key>  (670) 
KMUDCZOBMKTNNP-UHFFFAOYSA-N

>  <PERCENTSP3>  (670) 
15.38

>  <Link>  (670) 
https://www.chemdiv.com/catalog/screening-compounds/compound-8019-5962/

>  <MFCDNUMBER>  (670) 
MFCD00128275

>  <STEREO>  (670) 
ACHIRAL

>  <State>  (670) 
Solid

>  <Similarity score>  (670) 
0.18

$$$$
N-(3-cyano-6-methyl-4,5,6,7-tetrahydro-1-benzothiophen-2-yl)-5-methyl-4-[(4-nitr
     RDKit          2D

 32 35  0  0  0  0  0  0  0  0999 V2000
    2.2982    0.0604    0.0000 C   0  0  0  0  0  0  0  0  0  0  0  0
    0.2854    1.7899    0.0000 C   0  0  0  0  0  0  0  0  0  0  0  0
    1.8813   -0.8772    0.0000 C   0  0  0  0  0  0  0  0  0  0  0  0
   -0.6980    1.9063    0.0000 C   0  0  0  0  0  0  0  0  0  0  0  0
    2.6399   -1.5273    0.0000 C   0  0  0  0  0  0  0  0  0  0  0  0
    0.6980    2.6981    0.0000 N   0  0  0  0  0  0  0  0  0  0  0  0
    3.5024   -1.0315    0.0000 C   0  0  0  0  0  0  0  0  0  0  0  0
    3.2899   -0.0479    0.0000 S   0  0  0  0  0  0  0  0  0  0  0  0
    0.7939    0.9229    0.0000 C   0  0  0  0  0  0  0  0  0  0  0  0
    1.7981    0.9229    0.0000 N   0  0  0  0  0  0  0  0  0  0  0  0
   -4.2482   -2.3898    0.0000 N   0  0  0  0  0  0  0  0  0  0  0  0
   -0.0354    3.3732    0.0000 O   0  0  0  0  0  0  0  0  0  0  0  0
   -0.8979    2.8773    0.0000 C   0  0  0  0  0  0  0  0  0  0  0  0
    0.9354   -1.1022    0.0000 C   0  0  0  0  0  0  0  0  0  0  0  0
   -1.4563    1.2314    0.0000 C   0  0  0  0  0  0  0  0  0  0  0  0
   -0.0229   -1.3274    0.0000 N   0  0  0  0  0  0  0  0  0  0  0  0
    2.6149   -2.5106    0.0000 C   0  0  0  0  0  0  0  0  0  0  0  0
   -3.5024   -1.7272    0.0000 C   0  0  0  0  0  0  0  0  0  0  0  0
   -5.1983   -2.0730    0.0000 O   0  0  0  0  0  0  0  0  0  0  0  0
    4.3817   -1.5273    0.0000 C   0  0  0  0  0  0  0  0  0  0  0  0
   -4.0482   -3.3732    0.0000 O   0  0  0  0  0  0  0  0  0  0  0  0
    0.2979    0.0604    0.0000 O   0  0  0  0  0  0  0  0  0  0  0  0
   -1.2562    0.2602    0.0000 O   0  0  0  0  0  0  0  0  0  0  0  0
   -2.5564   -2.0481    0.0000 C   0  0  0  0  0  0  0  0  0  0  0  0
   -3.7064   -0.7439    0.0000 C   0  0  0  0  0  0  0  0  0  0  0  0
   -2.0023   -0.4022    0.0000 C   0  0  0  0  0  0  0  0  0  0  0  0
    3.4941   -3.0316    0.0000 C   0  0  0  0  0  0  0  0  0  0  0  0
   -1.7981   -1.3855    0.0000 C   0  0  0  0  0  0  0  0  0  0  0  0
   -2.9481   -0.0812    0.0000 C   0  0  0  0  0  0  0  0  0  0  0  0
    4.3692   -2.5439    0.0000 C   0  0  0  0  0  0  0  0  0  0  0  0
   -1.8106    3.3024    0.0000 C   0  0  0  0  0  0  0  0  0  0  0  0
    5.1983   -3.0649    0.0000 C   0  0  0  0  0  0  0  0  0  0  0  0
  2  9  1  0
  1  3  2  0
  2  4  1  0
  3  5  1  0
  5  7  2  0
  2  6  2  0
  7  8  1  0
  1  8  1  0
  9 10  1  0
  1 10  1  0
 11 18  1  0
  6 12  1  0
 12 13  1  0
  4 13  2  0
  3 14  1  0
  4 15  1  0
 14 16  3  0
  5 17  1  0
 18 25  2  0
 18 24  1  0
 11 19  1  0
  7 20  1  0
 11 21  2  0
  9 22  2  0
 15 23  1  0
 24 28  2  0
 25 29  1  0
 23 26  1  0
 17 27  1  0
 27 30  1  0
 26 28  1  0
 26 29  2  0
 20 30  1  0
 13 31  1  0
 30 32  1  0
M  CHG  2  11   1  19  -1
M  END
>  <IDNUMBER>  (671) 
Y501-2466

>  <available>  (671) 
21

>  <H_acceptor>  (671) 
10

>  <H_donor>  (671) 
1

>  <B_rotN>  (671) 
8

>  <N_O>  (671) 
9

>  <logP>  (671) 
4.6934

>  <logD>  (671) 
2.2263

>  <logSw>  (671) 
-4.5311

>  <PSA>  (671) 
102.942

>  <pKa_ma>  (671) 
4.9343

>  <pKa_mb>  (671) 
-5.9439

>  <N_Chirals>  (671) 
1

>  <Name>  (671) 
N-(3-cyano-6-methyl-4,5,6,7-tetrahydro-1-benzothiophen-2-yl)-5-methyl-4-[(4-nitrophenoxy)methyl]-1,2-oxazole-3-carboxamide

>  <Smile>  (671) 
CC(CC1)Cc2c1c(C#N)c(NC(c1noc(C)c1COc(cc1)ccc1[N+]([O-])=O)=O)s2

>  <Color>  (671) 
BROWN

>  <Collection>  (671) 
DC

>  <InChI>  (671) 
InChI=1S/C22H20N4O5S/c1-12-3-8-16-17(10-23)22(32-19(16)9-12)24-21(27)20-18(13(2)31-25-20)11-30-15-6-4-14(5-7-15)26(28)29/h4-7,12H,3,8-9,11H2,1-2H3,(H,24,27)/t12-/m1/s1

>  <InChI Key>  (671) 
XUAMYCKGCIQYFI-GFCCVEGCSA-N

>  <PERCENTSP3>  (671) 
31.82

>  <Link>  (671) 
https://www.chemdiv.com/catalog/screening-compounds/compound-Y501-2466/

>  <MFCDNUMBER>  (671) 
MFCD08557540

>  <STEREO>  (671) 
RACEMIC MIXTURE

>  <State>  (671) 
Solid

>  <Similarity score>  (671) 
0.18

$$$$
N-(6-tert-butyl-3-cyano-4,5,6,7-tetrahydro-1-benzothiophen-2-yl)-2-[5-(2-chlorop
     RDKit          2D

 31 34  0  0  0  0  0  0  0  0999 V2000
    1.1815    0.1688    0.0000 C   0  0  0  0  0  0  0  0  0  0  0  0
    1.0313   -0.8187    0.0000 C   0  0  0  0  0  0  0  0  0  0  0  0
   -3.0061    0.4062    0.0000 C   0  0  0  0  0  0  0  0  0  0  0  0
   -3.0061    1.3687    0.0000 N   0  0  0  0  0  0  0  0  0  0  0  0
   -2.1770   -0.0689    0.0000 N   0  0  0  0  0  0  0  0  0  0  0  0
   -1.3439    1.3687    0.0000 N   0  0  0  0  0  0  0  0  0  0  0  0
    2.6230   -0.5647    0.0000 C   0  0  0  0  0  0  0  0  0  0  0  0
    1.9232   -1.2690    0.0000 C   0  0  0  0  0  0  0  0  0  0  0  0
   -1.3439    0.4062    0.0000 N   0  0  0  0  0  0  0  0  0  0  0  0
    2.1730    0.3187    0.0000 S   0  0  0  0  0  0  0  0  0  0  0  0
   -3.8396   -0.0689    0.0000 C   0  0  0  0  0  0  0  0  0  0  0  0
    0.4730    0.8688    0.0000 N   0  0  0  0  0  0  0  0  0  0  0  0
    0.2605    1.7980    0.0000 C   0  0  0  0  0  0  0  0  0  0  0  0
   -0.6645    2.0480    0.0000 C   0  0  0  0  0  0  0  0  0  0  0  0
    0.1440   -1.2690    0.0000 C   0  0  0  0  0  0  0  0  0  0  0  0
    3.5815   -0.8063    0.0000 C   0  0  0  0  0  0  0  0  0  0  0  0
   -0.6936   -0.7313    0.0000 N   0  0  0  0  0  0  0  0  0  0  0  0
    2.1813   -2.2188    0.0000 C   0  0  0  0  0  0  0  0  0  0  0  0
    3.8356   -1.7689    0.0000 C   0  0  0  0  0  0  0  0  0  0  0  0
    4.7983   -1.5063    0.0000 C   0  0  0  0  0  0  0  0  0  0  0  0
   -4.6689    0.4062    0.0000 C   0  0  0  0  0  0  0  0  0  0  0  0
    3.1355   -2.4814    0.0000 C   0  0  0  0  0  0  0  0  0  0  0  0
    0.9480    2.4814    0.0000 O   0  0  0  0  0  0  0  0  0  0  0  0
   -4.6689    1.4064    0.0000 Cl  0  0  0  0  0  0  0  0  0  0  0  0
   -3.8396   -1.0313    0.0000 C   0  0  0  0  0  0  0  0  0  0  0  0
    5.5105   -2.2064    0.0000 C   0  0  0  0  0  0  0  0  0  0  0  0
    3.9314   -1.0146    0.0000 C   0  0  0  0  0  0  0  0  0  0  0  0
    5.0481   -0.5397    0.0000 C   0  0  0  0  0  0  0  0  0  0  0  0
   -5.5105   -0.0689    0.0000 C   0  0  0  0  0  0  0  0  0  0  0  0
   -4.6689   -1.5145    0.0000 C   0  0  0  0  0  0  0  0  0  0  0  0
   -5.5105   -1.0313    0.0000 C   0  0  0  0  0  0  0  0  0  0  0  0
  1  2  2  0
  3  4  2  0
  5  9  2  0
  3  5  1  0
  4  6  1  0
  6 14  1  0
  7 10  1  0
  2  8  1  0
  7  8  2  0
  6  9  1  0
  1 10  1  0
  3 11  1  0
  1 12  1  0
 12 13  1  0
 13 14  1  0
  2 15  1  0
  7 16  1  0
 15 17  3  0
  8 18  1  0
 16 19  1  0
 19 22  1  0
 19 20  1  0
 11 21  1  0
 18 22  1  0
 13 23  2  0
 21 24  1  0
 11 25  2  0
 20 26  1  0
 20 27  1  0
 20 28  1  0
 21 29  2  0
 25 30  1  0
 30 31  2  0
 29 31  1  0
M  END
>  <IDNUMBER>  (672) 
8017-0245

>  <available>  (672) 
15

>  <H_acceptor>  (672) 
6

>  <H_donor>  (672) 
1

>  <B_rotN>  (672) 
7

>  <N_O>  (672) 
7

>  <logP>  (672) 
5.2368

>  <logD>  (672) 
4.4257

>  <logSw>  (672) 
-5.4989

>  <PSA>  (672) 
78.262

>  <pKa_ma>  (672) 
6.6618

>  <pKa_mb>  (672) 
-4.2821

>  <N_Chirals>  (672) 
1

>  <Name>  (672) 
N-(6-tert-butyl-3-cyano-4,5,6,7-tetrahydro-1-benzothiophen-2-yl)-2-[5-(2-chlorophenyl)-2H-tetrazol-2-yl]acetamide

>  <Smile>  (672) 
CC(C)(C)C(CC1)Cc2c1c(C#N)c(NC(Cn1nnc(-c(cccc3)c3Cl)n1)=O)s2

>  <Color>  (672) 
ORANGE

>  <Collection>  (672) 
DC

>  <InChI>  (672) 
InChI=1S/C22H23ClN6OS/c1-22(2,3)13-8-9-14-16(11-24)21(31-18(14)10-13)25-19(30)12-29-27-20(26-28-29)15-6-4-5-7-17(15)23/h4-7,13H,8-10,12H2,1-3H3,(H,25,30)/t13-/m1/s1

>  <InChI Key>  (672) 
JSPVLXXIMFMLNW-CYBMUJFWSA-N

>  <PERCENTSP3>  (672) 
40.91

>  <Link>  (672) 
https://www.chemdiv.com/catalog/screening-compounds/compound-8017-0245/

>  <MFCDNUMBER>  (672) 
MFCD06013500

>  <STEREO>  (672) 
RACEMIC MIXTURE

>  <State>  (672) 
Solid

>  <Similarity score>  (672) 
0.18

$$$$
2-{[5-cyano-4-(3-methoxyphenyl)-6-oxo-1,6-dihydropyrimidin-2-yl]sulfanyl}-N-(3-c
     RDKit          2D

 35 38  0  0  0  0  0  0  0  0999 V2000
   -3.6390   -0.1438    0.0000 C   0  0  0  0  0  0  0  0  0  0  0  0
   -4.5310    0.3064    0.0000 C   0  0  0  0  0  0  0  0  0  0  0  0
    2.5554    0.7564    0.0000 C   0  0  0  0  0  0  0  0  0  0  0  0
    2.4678   -0.2064    0.0000 C   0  0  0  0  0  0  0  0  0  0  0  0
    0.7420   -0.0522    0.0000 C   0  0  0  0  0  0  0  0  0  0  0  0
    0.8421    0.9566    0.0000 N   0  0  0  0  0  0  0  0  0  0  0  0
    1.7507    1.3735    0.0000 C   0  0  0  0  0  0  0  0  0  0  0  0
    1.5424   -0.6399    0.0000 N   0  0  0  0  0  0  0  0  0  0  0  0
   -3.7473   -1.0943    0.0000 S   0  0  0  0  0  0  0  0  0  0  0  0
   -5.2105   -0.4064    0.0000 C   0  0  0  0  0  0  0  0  0  0  0  0
   -2.7094    0.2855    0.0000 N   0  0  0  0  0  0  0  0  0  0  0  0
   -4.7102   -1.2942    0.0000 C   0  0  0  0  0  0  0  0  0  0  0  0
   -1.8966   -0.2897    0.0000 C   0  0  0  0  0  0  0  0  0  0  0  0
   -4.6978    1.2817    0.0000 C   0  0  0  0  0  0  0  0  0  0  0  0
    3.5306    1.1358    0.0000 C   0  0  0  0  0  0  0  0  0  0  0  0
    3.2556   -0.8067    0.0000 C   0  0  0  0  0  0  0  0  0  0  0  0
   -0.1834   -0.4439    0.0000 S   0  0  0  0  0  0  0  0  0  0  0  0
    4.4685    1.5193    0.0000 N   0  0  0  0  0  0  0  0  0  0  0  0
   -4.8978    2.2946    0.0000 N   0  0  0  0  0  0  0  0  0  0  0  0
   -0.9836    0.1312    0.0000 C   0  0  0  0  0  0  0  0  0  0  0  0
    1.8425    2.3822    0.0000 O   0  0  0  0  0  0  0  0  0  0  0  0
   -1.9884   -1.2942    0.0000 O   0  0  0  0  0  0  0  0  0  0  0  0
    4.1684   -0.4064    0.0000 C   0  0  0  0  0  0  0  0  0  0  0  0
    4.9812   -0.9943    0.0000 C   0  0  0  0  0  0  0  0  0  0  0  0
   -6.2067   -0.3647    0.0000 C   0  0  0  0  0  0  0  0  0  0  0  0
   -5.2480   -2.1322    0.0000 C   0  0  0  0  0  0  0  0  0  0  0  0
    3.1638   -1.8195    0.0000 C   0  0  0  0  0  0  0  0  0  0  0  0
    5.9191   -0.6149    0.0000 O   0  0  0  0  0  0  0  0  0  0  0  0
    3.9684   -2.3822    0.0000 C   0  0  0  0  0  0  0  0  0  0  0  0
   -0.8962    1.1358    0.0000 C   0  0  0  0  0  0  0  0  0  0  0  0
    4.8437   -1.9572    0.0000 C   0  0  0  0  0  0  0  0  0  0  0  0
    6.7070   -1.2444    0.0000 C   0  0  0  0  0  0  0  0  0  0  0  0
   -6.7070   -1.2444    0.0000 C   0  0  0  0  0  0  0  0  0  0  0  0
   -6.2318   -2.0779    0.0000 C   0  0  0  0  0  0  0  0  0  0  0  0
   -1.7340    1.7111    0.0000 C   0  0  0  0  0  0  0  0  0  0  0  0
  1  2  2  0
  3  4  2  0
  4  8  1  0
  5 17  1  0
  5  6  1  0
  6  7  1  0
  3  7  1  0
  5  8  2  0
  1  9  1  0
  2 10  1  0
  1 11  1  0
  9 12  1  0
 10 12  2  0
 11 13  1  0
  2 14  1  0
  3 15  1  0
  4 16  1  0
 17 20  1  0
 15 18  3  0
 14 19  3  0
 13 20  1  0
  7 21  2  0
 13 22  2  0
 16 23  1  0
 23 24  2  0
 24 31  1  0
 10 25  1  0
 12 26  1  0
 16 27  2  0
 24 28  1  0
 27 29  1  0
 20 30  1  0
 29 31  2  0
 28 32  1  0
 25 33  1  0
 26 34  1  0
 33 34  1  0
 30 35  1  0
M  END
>  <IDNUMBER>  (673) 
Y505-4327

>  <available>  (673) 
20

>  <H_acceptor>  (673) 
9

>  <H_donor>  (673) 
2

>  <B_rotN>  (673) 
10

>  <N_O>  (673) 
8

>  <logP>  (673) 
4.6957

>  <logD>  (673) 
1.5896

>  <logSw>  (673) 
-4.5689

>  <PSA>  (673) 
99.116

>  <pKa_ma>  (673) 
4.2943

>  <pKa_mb>  (673) 
0.8219

>  <N_Chirals>  (673) 
1

>  <Name>  (673) 
2-{[5-cyano-4-(3-methoxyphenyl)-6-oxo-1,6-dihydropyrimidin-2-yl]sulfanyl}-N-(3-cyano-4,5,6,7-tetrahydro-1-benzothiophen-2-yl)butanamide

>  <Smile>  (673) 
CCC(C(Nc(sc1c2CCCC1)c2C#N)=O)SC(NC1=O)=NC(c2cc(OC)ccc2)=C1C#N

>  <Color>  (673) 
NOT COLORED

>  <Collection>  (673) 
DC

>  <InChI>  (673) 
InChI=1S/C25H23N5O3S2/c1-3-19(23(32)29-24-17(12-26)16-9-4-5-10-20(16)34-24)35-25-28-21(18(13-27)22(31)30-25)14-7-6-8-15(11-14)33-2/h6-8,11,19H,3-5,9-10H2,1-2H3,(H,29,32)(H,28,30,31)/t19-/m0/s1

>  <InChI Key>  (673) 
MPEKJXXABYNDGH-IBGZPJMESA-N

>  <PERCENTSP3>  (673) 
32

>  <Link>  (673) 
https://www.chemdiv.com/catalog/screening-compounds/compound-Y505-4327/

>  <MFCDNUMBER>  (673) 
MFCD02056457

>  <CLNUMBER>  (673) 
CL6863

>  <STEREO>  (673) 
RACEMIC MIXTURE

>  <State>  (673) 
Solid

>  <Similarity score>  (673) 
0.18

$$$$
N-(6-tert-butyl-3-cyano-4,5,6,7-tetrahydro-1-benzothiophen-2-yl)-5-(propan-2-yl)
     RDKit          2D

 26 28  0  0  0  0  0  0  0  0999 V2000
   -0.0290   -0.5880    0.0000 C   0  0  0  0  0  0  0  0  0  0  0  0
   -0.8367   -1.1473    0.0000 C   0  0  0  0  0  0  0  0  0  0  0  0
    0.4498   -2.1298    0.0000 C   0  0  0  0  0  0  0  0  0  0  0  0
   -0.5583   -2.1092    0.0000 C   0  0  0  0  0  0  0  0  0  0  0  0
    0.7882    2.5811    0.0000 C   0  0  0  0  0  0  0  0  0  0  0  0
    0.7721   -1.1908    0.0000 S   0  0  0  0  0  0  0  0  0  0  0  0
    0.0906    3.2164    0.0000 N   0  0  0  0  0  0  0  0  0  0  0  0
   -0.0290    0.4247    0.0000 N   0  0  0  0  0  0  0  0  0  0  0  0
    1.5592    3.1979    0.0000 C   0  0  0  0  0  0  0  0  0  0  0  0
    0.8341    0.9240    0.0000 C   0  0  0  0  0  0  0  0  0  0  0  0
    1.2807    4.0655    0.0000 C   0  0  0  0  0  0  0  0  0  0  0  0
    0.3738    4.0749    0.0000 O   0  0  0  0  0  0  0  0  0  0  0  0
   -1.7779   -0.8159    0.0000 C   0  0  0  0  0  0  0  0  0  0  0  0
    0.9240   -3.0067    0.0000 C   0  0  0  0  0  0  0  0  0  0  0  0
   -2.7307   -0.4822    0.0000 N   0  0  0  0  0  0  0  0  0  0  0  0
   -1.0715   -2.9562    0.0000 C   0  0  0  0  0  0  0  0  0  0  0  0
    0.3945   -3.8629    0.0000 C   0  0  0  0  0  0  0  0  0  0  0  0
    0.8733   -4.7562    0.0000 C   0  0  0  0  0  0  0  0  0  0  0  0
    1.6053    0.4408    0.0000 O   0  0  0  0  0  0  0  0  0  0  0  0
   -0.5928   -3.8332    0.0000 C   0  0  0  0  0  0  0  0  0  0  0  0
    1.8307    4.8044    0.0000 C   0  0  0  0  0  0  0  0  0  0  0  0
   -0.0290   -5.2256    0.0000 C   0  0  0  0  0  0  0  0  0  0  0  0
    1.7662   -4.2910    0.0000 C   0  0  0  0  0  0  0  0  0  0  0  0
    1.3314   -5.6537    0.0000 C   0  0  0  0  0  0  0  0  0  0  0  0
    1.4694    5.6537    0.0000 C   0  0  0  0  0  0  0  0  0  0  0  0
    2.7307    4.7146    0.0000 C   0  0  0  0  0  0  0  0  0  0  0  0
  1  2  2  0
  3  6  1  0
  3  4  2  0
  2  4  1  0
  5 10  1  0
  1  6  1  0
  5  7  2  0
  1  8  1  0
  5  9  1  0
  8 10  1  0
  9 11  2  0
 11 12  1  0
  7 12  1  0
  2 13  1  0
  3 14  1  0
 13 15  3  0
  4 16  1  0
 14 17  1  0
 17 18  1  0
 10 19  2  0
 16 20  1  0
 17 20  1  0
 11 21  1  0
 18 22  1  0
 18 23  1  0
 18 24  1  0
 21 25  1  0
 21 26  1  0
M  END
>  <IDNUMBER>  (674) 
C226-2949

>  <available>  (674) 
121

>  <H_acceptor>  (674) 
5

>  <H_donor>  (674) 
1

>  <B_rotN>  (674) 
6

>  <N_O>  (674) 
5

>  <logP>  (674) 
5.462

>  <logD>  (674) 
3.7916

>  <logSw>  (674) 
-5.395

>  <PSA>  (674) 
61.908

>  <pKa_ma>  (674) 
5.739

>  <pKa_mb>  (674) 
-5.3583

>  <N_Chirals>  (674) 
1

>  <Name>  (674) 
N-(6-tert-butyl-3-cyano-4,5,6,7-tetrahydro-1-benzothiophen-2-yl)-5-(propan-2-yl)-1,2-oxazole-3-carboxamide

>  <Smile>  (674) 
CC(C)c1cc(C(Nc(sc(C2)c3CCC2C(C)(C)C)c3C#N)=O)no1

>  <Color>  (674) 
ORANGE

>  <Collection>  (674) 
DC

>  <InChI>  (674) 
InChI=1S/C20H25N3O2S/c1-11(2)16-9-15(23-25-16)18(24)22-19-14(10-21)13-7-6-12(20(3,4)5)8-17(13)26-19/h9,11-12H,6-8H2,1-5H3,(H,22,24)/t12-/m1/s1

>  <InChI Key>  (674) 
VAPAOKBCGGZGCD-GFCCVEGCSA-N

>  <PERCENTSP3>  (674) 
55

>  <Link>  (674) 
https://www.chemdiv.com/catalog/screening-compounds/compound-C226-2949/

>  <MFCDNUMBER>  (674) 
MFCD09782917

>  <CLNUMBER>  (674) 
CL2030

>  <STEREO>  (674) 
RACEMIC MIXTURE

>  <State>  (674) 
Solid

>  <Similarity score>  (674) 
0.18

$$$$
N-(6-tert-butyl-3-cyano-4,5,6,7-tetrahydro-1-benzothiophen-2-yl)-5-(4-methoxyphe
     RDKit          2D

 31 34  0  0  0  0  0  0  0  0999 V2000
   -0.3774   -1.8485    0.0000 C   0  0  0  0  0  0  0  0  0  0  0  0
   -1.1816   -2.4076    0.0000 C   0  0  0  0  0  0  0  0  0  0  0  0
    0.1020   -3.3898    0.0000 C   0  0  0  0  0  0  0  0  0  0  0  0
   -0.9036   -3.3721    0.0000 C   0  0  0  0  0  0  0  0  0  0  0  0
    0.5457    1.4553    0.0000 C   0  0  0  0  0  0  0  0  0  0  0  0
    0.4245   -2.4551    0.0000 S   0  0  0  0  0  0  0  0  0  0  0  0
   -0.2383    1.9790    0.0000 N   0  0  0  0  0  0  0  0  0  0  0  0
   -0.3774   -0.8401    0.0000 N   0  0  0  0  0  0  0  0  0  0  0  0
    1.2942    2.0293    0.0000 C   0  0  0  0  0  0  0  0  0  0  0  0
    0.4867   -0.3400    0.0000 C   0  0  0  0  0  0  0  0  0  0  0  0
    0.9658    2.9196    0.0000 C   0  0  0  0  0  0  0  0  0  0  0  0
    0.0281    2.8902    0.0000 O   0  0  0  0  0  0  0  0  0  0  0  0
   -2.1255   -2.0764    0.0000 C   0  0  0  0  0  0  0  0  0  0  0  0
    0.5783   -4.2684    0.0000 C   0  0  0  0  0  0  0  0  0  0  0  0
   -3.0777   -1.7420    0.0000 N   0  0  0  0  0  0  0  0  0  0  0  0
   -1.4184   -4.2181    0.0000 C   0  0  0  0  0  0  0  0  0  0  0  0
    0.0486   -5.1262    0.0000 C   0  0  0  0  0  0  0  0  0  0  0  0
    1.4951    3.7065    0.0000 C   0  0  0  0  0  0  0  0  0  0  0  0
    0.5277   -6.0165    0.0000 C   0  0  0  0  0  0  0  0  0  0  0  0
    1.3236   -0.7926    0.0000 O   0  0  0  0  0  0  0  0  0  0  0  0
   -0.9393   -5.0936    0.0000 C   0  0  0  0  0  0  0  0  0  0  0  0
    1.0840    4.5523    0.0000 C   0  0  0  0  0  0  0  0  0  0  0  0
    2.4329    3.6411    0.0000 C   0  0  0  0  0  0  0  0  0  0  0  0
    2.5482    5.2621    0.0000 C   0  0  0  0  0  0  0  0  0  0  0  0
    2.9625    4.4164    0.0000 C   0  0  0  0  0  0  0  0  0  0  0  0
    1.6016    5.3392    0.0000 C   0  0  0  0  0  0  0  0  0  0  0  0
    3.0777    6.0607    0.0000 O   0  0  0  0  0  0  0  0  0  0  0  0
   -0.3774   -6.4867    0.0000 C   0  0  0  0  0  0  0  0  0  0  0  0
    1.4152   -5.5522    0.0000 C   0  0  0  0  0  0  0  0  0  0  0  0
    0.9836   -6.9127    0.0000 C   0  0  0  0  0  0  0  0  0  0  0  0
    2.6608    6.9127    0.0000 C   0  0  0  0  0  0  0  0  0  0  0  0
  1  2  2  0
  3  6  1  0
  3  4  2  0
  2  4  1  0
  5 10  1  0
  1  6  1  0
  5  7  2  0
  1  8  1  0
  5  9  1  0
  8 10  1  0
  9 11  2  0
 11 12  1  0
  7 12  1  0
  2 13  1  0
  3 14  1  0
 13 15  3  0
  4 16  1  0
 14 17  1  0
 11 18  1  0
 17 19  1  0
 10 20  2  0
 16 21  1  0
 17 21  1  0
 18 22  1  0
 18 23  2  0
 24 25  2  0
 23 25  1  0
 22 26  2  0
 24 26  1  0
 24 27  1  0
 19 28  1  0
 19 29  1  0
 19 30  1  0
 27 31  1  0
M  END
>  <IDNUMBER>  (675) 
C226-0783

>  <available>  (675) 
181

>  <H_acceptor>  (675) 
6

>  <H_donor>  (675) 
1

>  <B_rotN>  (675) 
7

>  <N_O>  (675) 
6

>  <logP>  (675) 
6.0277

>  <logD>  (675) 
4.7367

>  <logSw>  (675) 
-5.5117

>  <PSA>  (675) 
69.18

>  <pKa_ma>  (675) 
6.1318

>  <pKa_mb>  (675) 
-6.8683

>  <N_Chirals>  (675) 
1

>  <Name>  (675) 
N-(6-tert-butyl-3-cyano-4,5,6,7-tetrahydro-1-benzothiophen-2-yl)-5-(4-methoxyphenyl)-1,2-oxazole-3-carboxamide

>  <Smile>  (675) 
CC(C)(C)C(CC1)Cc2c1c(C#N)c(NC(c1noc(-c(cc3)ccc3OC)c1)=O)s2

>  <Color>  (675) 
NOT COLORED

>  <Collection>  (675) 
DC

>  <InChI>  (675) 
InChI=1S/C24H25N3O3S/c1-24(2,3)15-7-10-17-18(13-25)23(31-21(17)11-15)26-22(28)19-12-20(30-27-19)14-5-8-16(29-4)9-6-14/h5-6,8-9,12,15H,7,10-11H2,1-4H3,(H,26,28)/t15-/m1/s1

>  <InChI Key>  (675) 
HODYNPFGZYSSKD-OAHLLOKOSA-N

>  <PERCENTSP3>  (675) 
37.5

>  <Link>  (675) 
https://www.chemdiv.com/catalog/screening-compounds/compound-C226-0783/

>  <MFCDNUMBER>  (675) 
MFCD09781984

>  <CLNUMBER>  (675) 
CL2028

>  <STEREO>  (675) 
RACEMIC MIXTURE

>  <State>  (675) 
Solid

>  <Similarity score>  (675) 
0.18

$$$$
N-(3-cyano-4,5,6,7-tetrahydro-1-benzothiophen-2-yl)-2-phenoxybutanamide
     RDKit          2D

 24 26  0  0  0  0  0  0  0  0999 V2000
    1.3694   -0.8691    0.0000 C   0  0  0  0  0  0  0  0  0  0  0  0
    1.9403   -0.0647    0.0000 C   0  0  0  0  0  0  0  0  0  0  0  0
    1.9403   -1.6736    0.0000 S   0  0  0  0  0  0  0  0  0  0  0  0
    2.8950   -0.3607    0.0000 C   0  0  0  0  0  0  0  0  0  0  0  0
    0.3730   -0.8691    0.0000 N   0  0  0  0  0  0  0  0  0  0  0  0
    2.8950   -1.3569    0.0000 C   0  0  0  0  0  0  0  0  0  0  0  0
   -0.1147   -0.0022    0.0000 C   0  0  0  0  0  0  0  0  0  0  0  0
    1.6235    0.8900    0.0000 C   0  0  0  0  0  0  0  0  0  0  0  0
    1.2818    1.8653    0.0000 N   0  0  0  0  0  0  0  0  0  0  0  0
   -1.1358   -0.0022    0.0000 C   0  0  0  0  0  0  0  0  0  0  0  0
   -1.6236    0.8690    0.0000 O   0  0  0  0  0  0  0  0  0  0  0  0
    0.3730    0.8483    0.0000 O   0  0  0  0  0  0  0  0  0  0  0  0
   -2.6199    0.8690    0.0000 C   0  0  0  0  0  0  0  0  0  0  0  0
    3.7662    0.1271    0.0000 C   0  0  0  0  0  0  0  0  0  0  0  0
    3.7662   -1.8653    0.0000 C   0  0  0  0  0  0  0  0  0  0  0  0
   -1.6236   -0.8691    0.0000 C   0  0  0  0  0  0  0  0  0  0  0  0
   -3.1285    0.0230    0.0000 C   0  0  0  0  0  0  0  0  0  0  0  0
   -3.1285    1.7403    0.0000 C   0  0  0  0  0  0  0  0  0  0  0  0
    4.6332   -0.3607    0.0000 C   0  0  0  0  0  0  0  0  0  0  0  0
    4.6332   -1.3569    0.0000 C   0  0  0  0  0  0  0  0  0  0  0  0
   -1.1358   -1.7403    0.0000 C   0  0  0  0  0  0  0  0  0  0  0  0
   -4.1247    0.0230    0.0000 C   0  0  0  0  0  0  0  0  0  0  0  0
   -4.1247    1.7612    0.0000 C   0  0  0  0  0  0  0  0  0  0  0  0
   -4.6332    0.8690    0.0000 C   0  0  0  0  0  0  0  0  0  0  0  0
  1  2  2  0
  1  3  1  0
  2  4  1  0
  1  5  1  0
  3  6  1  0
  4  6  2  0
  5  7  1  0
  2  8  1  0
  8  9  3  0
  7 10  1  0
 10 11  1  0
  7 12  2  0
 11 13  1  0
  4 14  1  0
  6 15  1  0
 10 16  1  0
 13 17  2  0
 13 18  1  0
 14 19  1  0
 19 20  1  0
 15 20  1  0
 16 21  1  0
 17 22  1  0
 18 23  2  0
 23 24  1  0
 22 24  2  0
M  END
>  <IDNUMBER>  (676) 
Y203-6112

>  <available>  (676) 
12

>  <H_acceptor>  (676) 
4

>  <H_donor>  (676) 
1

>  <B_rotN>  (676) 
7

>  <N_O>  (676) 
4

>  <logP>  (676) 
4.5466

>  <logD>  (676) 
2.9389

>  <logSw>  (676) 
-4.4714

>  <PSA>  (676) 
46.773

>  <pKa_ma>  (676) 
5.8032

>  <pKa_mb>  (676) 
-4.8807

>  <N_Chirals>  (676) 
1

>  <Name>  (676) 
N-(3-cyano-4,5,6,7-tetrahydro-1-benzothiophen-2-yl)-2-phenoxybutanamide

>  <Smile>  (676) 
CCC(C(Nc(sc1c2CCCC1)c2C#N)=O)Oc1ccccc1

>  <Color>  (676) 
BROWN

>  <Collection>  (676) 
DC

>  <InChI>  (676) 
InChI=1S/C19H20N2O2S/c1-2-16(23-13-8-4-3-5-9-13)18(22)21-19-15(12-20)14-10-6-7-11-17(14)24-19/h3-5,8-9,16H,2,6-7,10-11H2,1H3,(H,21,22)/t16-/m0/s1

>  <InChI Key>  (676) 
FYMKJXIUOQGUHW-INIZCTEOSA-N

>  <PERCENTSP3>  (676) 
36.84

>  <Link>  (676) 
https://www.chemdiv.com/catalog/screening-compounds/compound-Y203-6112/

>  <MFCDNUMBER>  (676) 
MFCD00851728

>  <STEREO>  (676) 
RACEMIC MIXTURE

>  <State>  (676) 
Solid

>  <Similarity score>  (676) 
0.18

$$$$
N-(3-cyano-5,6,7,8-tetrahydro-4H-cyclohepta[b]thiophen-2-yl)-2-(4-propylphenoxy)
     RDKit          2D

 27 29  0  0  0  0  0  0  0  0999 V2000
   -2.3662    0.0462    0.0000 C   0  0  0  0  0  0  0  0  0  0  0  0
   -2.3662    0.9946    0.0000 C   0  0  0  0  0  0  0  0  0  0  0  0
   -3.1983   -0.4257    0.0000 S   0  0  0  0  0  0  0  0  0  0  0  0
   -4.0530    0.9946    0.0000 C   0  0  0  0  0  0  0  0  0  0  0  0
   -1.5612   -0.4257    0.0000 N   0  0  0  0  0  0  0  0  0  0  0  0
   -4.0530    0.0205    0.0000 C   0  0  0  0  0  0  0  0  0  0  0  0
   -0.6999    0.0462    0.0000 C   0  0  0  0  0  0  0  0  0  0  0  0
   -1.5100    1.4716    0.0000 C   0  0  0  0  0  0  0  0  0  0  0  0
   -0.6487    1.9380    0.0000 N   0  0  0  0  0  0  0  0  0  0  0  0
    0.1359   -0.4257    0.0000 C   0  0  0  0  0  0  0  0  0  0  0  0
    1.0075    0.0616    0.0000 O   0  0  0  0  0  0  0  0  0  0  0  0
   -0.6999    1.0204    0.0000 O   0  0  0  0  0  0  0  0  0  0  0  0
    1.9713   -0.4409    0.0000 C   0  0  0  0  0  0  0  0  0  0  0  0
   -4.8630    1.5858    0.0000 C   0  0  0  0  0  0  0  0  0  0  0  0
   -4.8630   -0.5641    0.0000 C   0  0  0  0  0  0  0  0  0  0  0  0
    3.6275   -1.3895    0.0000 C   0  0  0  0  0  0  0  0  0  0  0  0
    1.9713   -1.3638    0.0000 C   0  0  0  0  0  0  0  0  0  0  0  0
    2.7917    0.0462    0.0000 C   0  0  0  0  0  0  0  0  0  0  0  0
    2.8174   -1.8355    0.0000 C   0  0  0  0  0  0  0  0  0  0  0  0
    3.6275   -0.4409    0.0000 C   0  0  0  0  0  0  0  0  0  0  0  0
    0.1462   -1.4254    0.0000 C   0  0  0  0  0  0  0  0  0  0  0  0
    4.4853   -1.8612    0.0000 C   0  0  0  0  0  0  0  0  0  0  0  0
    5.3246   -1.3895    0.0000 C   0  0  0  0  0  0  0  0  0  0  0  0
   -5.7962    1.4047    0.0000 C   0  0  0  0  0  0  0  0  0  0  0  0
   -5.7962   -0.3641    0.0000 C   0  0  0  0  0  0  0  0  0  0  0  0
    6.2371   -1.9380    0.0000 C   0  0  0  0  0  0  0  0  0  0  0  0
   -6.2371    0.5229    0.0000 C   0  0  0  0  0  0  0  0  0  0  0  0
  1  2  2  0
  1  3  1  0
  2  4  1  0
  1  5  1  0
  3  6  1  0
  4  6  2  0
  5  7  1  0
  2  8  1  0
  8  9  3  0
  7 10  1  0
 10 11  1  0
  7 12  2  0
 11 13  1  0
  4 14  1  0
  6 15  1  0
 16 20  2  0
 13 17  1  0
 13 18  2  0
 17 19  2  0
 16 19  1  0
 18 20  1  0
 10 21  1  0
 16 22  1  0
 22 23  1  0
 14 24  1  0
 15 25  1  0
 23 26  1  0
 25 27  1  0
 24 27  1  0
M  END
>  <IDNUMBER>  (677) 
8010-3485

>  <available>  (677) 
23

>  <H_acceptor>  (677) 
4

>  <H_donor>  (677) 
1

>  <B_rotN>  (677) 
8

>  <N_O>  (677) 
4

>  <logP>  (677) 
5.9046

>  <logD>  (677) 
4.4866

>  <logSw>  (677) 
-5.3852

>  <PSA>  (677) 
47.221

>  <pKa_ma>  (677) 
5.9989

>  <pKa_mb>  (677) 
-4.7655

>  <N_Chirals>  (677) 
1

>  <Name>  (677) 
N-(3-cyano-5,6,7,8-tetrahydro-4H-cyclohepta[b]thiophen-2-yl)-2-(4-propylphenoxy)propanamide

>  <Smile>  (677) 
CCCc(cc1)ccc1OC(C)C(Nc(sc1c2CCCCC1)c2C#N)=O

>  <Color>  (677) 
NOT COLORED

>  <Collection>  (677) 
DC

>  <InChI>  (677) 
InChI=1S/C22H26N2O2S/c1-3-7-16-10-12-17(13-11-16)26-15(2)21(25)24-22-19(14-23)18-8-5-4-6-9-20(18)27-22/h10-13,15H,3-9H2,1-2H3,(H,24,25)/t15-/m0/s1

>  <InChI Key>  (677) 
XDQQVUDIOGXBDB-HNNXBMFYSA-N

>  <PERCENTSP3>  (677) 
45.46

>  <Link>  (677) 
https://www.chemdiv.com/catalog/screening-compounds/compound-8010-3485/

>  <MFCDNUMBER>  (677) 
MFCD01871928

>  <STEREO>  (677) 
RACEMIC MIXTURE

>  <State>  (677) 
Solid

>  <Similarity score>  (677) 
0.18

$$$$
N-(3-cyano-5,6,7,8-tetrahydro-4H-cyclohepta[b]thiophen-2-yl)-2-(2,4-difluorophen
     RDKit          2D

 26 28  0  0  0  0  0  0  0  0999 V2000
   -1.9189    0.6020    0.0000 C   0  0  0  0  0  0  0  0  0  0  0  0
   -2.0813   -0.3605    0.0000 C   0  0  0  0  0  0  0  0  0  0  0  0
   -2.8190    1.0771    0.0000 S   0  0  0  0  0  0  0  0  0  0  0  0
   -3.0649   -0.5230    0.0000 C   0  0  0  0  0  0  0  0  0  0  0  0
   -0.9770    0.9856    0.0000 N   0  0  0  0  0  0  0  0  0  0  0  0
   -3.5190    0.3397    0.0000 C   0  0  0  0  0  0  0  0  0  0  0  0
   -0.1854    0.3397    0.0000 C   0  0  0  0  0  0  0  0  0  0  0  0
   -1.3524   -1.0773    0.0000 C   0  0  0  0  0  0  0  0  0  0  0  0
   -0.6647   -1.7772    0.0000 N   0  0  0  0  0  0  0  0  0  0  0  0
    1.5440    0.0646    0.0000 O   0  0  0  0  0  0  0  0  0  0  0  0
    2.4981    0.4521    0.0000 C   0  0  0  0  0  0  0  0  0  0  0  0
    3.2566   -0.1771    0.0000 C   0  0  0  0  0  0  0  0  0  0  0  0
    0.7564    0.6938    0.0000 C   0  0  0  0  0  0  0  0  0  0  0  0
    4.1776    0.1771    0.0000 C   0  0  0  0  0  0  0  0  0  0  0  0
   -0.3397   -0.6315    0.0000 O   0  0  0  0  0  0  0  0  0  0  0  0
    2.6482    1.4439    0.0000 C   0  0  0  0  0  0  0  0  0  0  0  0
    4.3400    1.1480    0.0000 C   0  0  0  0  0  0  0  0  0  0  0  0
    3.1149   -1.1605    0.0000 F   0  0  0  0  0  0  0  0  0  0  0  0
    3.5691    1.7772    0.0000 C   0  0  0  0  0  0  0  0  0  0  0  0
   -3.4190   -1.4523    0.0000 C   0  0  0  0  0  0  0  0  0  0  0  0
    5.2608    1.4855    0.0000 F   0  0  0  0  0  0  0  0  0  0  0  0
   -4.5315    0.5312    0.0000 C   0  0  0  0  0  0  0  0  0  0  0  0
    0.9063    1.6772    0.0000 C   0  0  0  0  0  0  0  0  0  0  0  0
   -4.3691   -1.7481    0.0000 C   0  0  0  0  0  0  0  0  0  0  0  0
   -5.2608   -0.1563    0.0000 C   0  0  0  0  0  0  0  0  0  0  0  0
   -5.1983   -1.1605    0.0000 C   0  0  0  0  0  0  0  0  0  0  0  0
  1  2  2  0
  1  3  1  0
  2  4  1  0
  4  6  2  0
  1  5  1  0
  3  6  1  0
  5  7  1  0
  2  8  1  0
  8  9  3  0
 10 13  1  0
 10 11  1  0
 11 12  2  0
  7 13  1  0
 12 14  1  0
  7 15  2  0
 11 16  1  0
 17 19  1  0
 14 17  2  0
 12 18  1  0
 16 19  2  0
  4 20  1  0
 17 21  1  0
  6 22  1  0
 13 23  1  0
 20 24  1  0
 22 25  1  0
 25 26  1  0
 24 26  1  0
M  END
>  <IDNUMBER>  (678) 
Y205-6163

>  <available>  (678) 
2

>  <H_acceptor>  (678) 
4

>  <H_donor>  (678) 
1

>  <B_rotN>  (678) 
6

>  <N_O>  (678) 
4

>  <logP>  (678) 
4.7094

>  <logD>  (678) 
3.2914

>  <logSw>  (678) 
-4.5444

>  <PSA>  (678) 
47.307

>  <pKa_ma>  (678) 
5.9989

>  <pKa_mb>  (678) 
-5.1628

>  <N_Chirals>  (678) 
1

>  <Name>  (678) 
N-(3-cyano-5,6,7,8-tetrahydro-4H-cyclohepta[b]thiophen-2-yl)-2-(2,4-difluorophenoxy)propanamide

>  <Smile>  (678) 
CC(C(Nc(sc1c2CCCCC1)c2C#N)=O)Oc(ccc(F)c1)c1F

>  <Color>  (678) 
BROWN

>  <Collection>  (678) 
DC

>  <InChI>  (678) 
InChI=1S/C19H18F2N2O2S/c1-11(25-16-8-7-12(20)9-15(16)21)18(24)23-19-14(10-22)13-5-3-2-4-6-17(13)26-19/h7-9,11H,2-6H2,1H3,(H,23,24)/t11-/m0/s1

>  <InChI Key>  (678) 
DUTGSXOBDMKFML-NSHDSACASA-N

>  <PERCENTSP3>  (678) 
36.84

>  <Link>  (678) 
https://www.chemdiv.com/catalog/screening-compounds/compound-Y205-6163/

>  <MFCDNUMBER>  (678) 
MFCD07182342

>  <STEREO>  (678) 
RACEMIC MIXTURE

>  <State>  (678) 
Solid

>  <Similarity score>  (678) 
0.18

$$$$
N-(6-tert-butyl-3-cyano-4,5,6,7-tetrahydro-1-benzothiophen-2-yl)-5-(3-methoxyphe
     RDKit          2D

 31 34  0  0  0  0  0  0  0  0999 V2000
   -1.1277   -0.9895    0.0000 C   0  0  0  0  0  0  0  0  0  0  0  0
   -1.9338   -1.5470    0.0000 C   0  0  0  0  0  0  0  0  0  0  0  0
   -0.6480   -2.5316    0.0000 C   0  0  0  0  0  0  0  0  0  0  0  0
   -1.6578   -2.5114    0.0000 C   0  0  0  0  0  0  0  0  0  0  0  0
   -0.3091    2.2378    0.0000 C   0  0  0  0  0  0  0  0  0  0  0  0
   -0.3241   -1.5923    0.0000 S   0  0  0  0  0  0  0  0  0  0  0  0
   -1.0673    2.8179    0.0000 N   0  0  0  0  0  0  0  0  0  0  0  0
   -1.1277    0.0225    0.0000 N   0  0  0  0  0  0  0  0  0  0  0  0
    0.4773    2.7728    0.0000 C   0  0  0  0  0  0  0  0  0  0  0  0
   -0.2639    0.5223    0.0000 C   0  0  0  0  0  0  0  0  0  0  0  0
    0.2060    3.6821    0.0000 C   0  0  0  0  0  0  0  0  0  0  0  0
   -0.7485    3.7071    0.0000 O   0  0  0  0  0  0  0  0  0  0  0  0
   -2.8785   -1.2156    0.0000 C   0  0  0  0  0  0  0  0  0  0  0  0
   -0.1734   -3.4082    0.0000 C   0  0  0  0  0  0  0  0  0  0  0  0
   -3.8303   -0.8841    0.0000 N   0  0  0  0  0  0  0  0  0  0  0  0
   -2.1703   -3.3580    0.0000 C   0  0  0  0  0  0  0  0  0  0  0  0
    0.7961    4.4329    0.0000 C   0  0  0  0  0  0  0  0  0  0  0  0
   -0.7033   -4.2671    0.0000 C   0  0  0  0  0  0  0  0  0  0  0  0
   -0.2236   -5.1589    0.0000 C   0  0  0  0  0  0  0  0  0  0  0  0
    0.5475    0.0225    0.0000 O   0  0  0  0  0  0  0  0  0  0  0  0
   -1.6928   -4.2370    0.0000 C   0  0  0  0  0  0  0  0  0  0  0  0
    1.7305    4.3123    0.0000 C   0  0  0  0  0  0  0  0  0  0  0  0
    2.3054    5.0582    0.0000 C   0  0  0  0  0  0  0  0  0  0  0  0
    3.2450    4.9226    0.0000 O   0  0  0  0  0  0  0  0  0  0  0  0
    0.4269    5.2994    0.0000 C   0  0  0  0  0  0  0  0  0  0  0  0
    1.0047    6.0579    0.0000 C   0  0  0  0  0  0  0  0  0  0  0  0
   -1.1277   -5.6284    0.0000 C   0  0  0  0  0  0  0  0  0  0  0  0
    0.6681   -4.6941    0.0000 C   0  0  0  0  0  0  0  0  0  0  0  0
    0.2361   -6.0579    0.0000 C   0  0  0  0  0  0  0  0  0  0  0  0
    1.9414    5.9351    0.0000 C   0  0  0  0  0  0  0  0  0  0  0  0
    3.8303    5.6787    0.0000 C   0  0  0  0  0  0  0  0  0  0  0  0
  1  2  2  0
  3  6  1  0
  3  4  2  0
  2  4  1  0
  5 10  1  0
  1  6  1  0
  5  7  2  0
  1  8  1  0
  5  9  1  0
  8 10  1  0
  9 11  2  0
 11 12  1  0
  7 12  1  0
  2 13  1  0
  3 14  1  0
 13 15  3  0
  4 16  1  0
 11 17  1  0
 14 18  1  0
 18 19  1  0
 10 20  2  0
 16 21  1  0
 18 21  1  0
 17 22  2  0
 22 23  1  0
 23 30  2  0
 23 24  1  0
 17 25  1  0
 25 26  2  0
 19 27  1  0
 19 28  1  0
 19 29  1  0
 26 30  1  0
 24 31  1  0
M  END
>  <IDNUMBER>  (679) 
C226-0897

>  <available>  (679) 
235

>  <H_acceptor>  (679) 
6

>  <H_donor>  (679) 
1

>  <B_rotN>  (679) 
7

>  <N_O>  (679) 
6

>  <logP>  (679) 
6.0123

>  <logD>  (679) 
4.7213

>  <logSw>  (679) 
-5.5449

>  <PSA>  (679) 
69.18

>  <pKa_ma>  (679) 
6.1318

>  <pKa_mb>  (679) 
-6.8683

>  <N_Chirals>  (679) 
1

>  <Name>  (679) 
N-(6-tert-butyl-3-cyano-4,5,6,7-tetrahydro-1-benzothiophen-2-yl)-5-(3-methoxyphenyl)-1,2-oxazole-3-carboxamide

>  <Smile>  (679) 
CC(C)(C)C(CC1)Cc2c1c(C#N)c(NC(c1noc(-c3cc(OC)ccc3)c1)=O)s2

>  <Color>  (679) 
NOT COLORED

>  <Collection>  (679) 
DC

>  <InChI>  (679) 
InChI=1S/C24H25N3O3S/c1-24(2,3)15-8-9-17-18(13-25)23(31-21(17)11-15)26-22(28)19-12-20(30-27-19)14-6-5-7-16(10-14)29-4/h5-7,10,12,15H,8-9,11H2,1-4H3,(H,26,28)/t15-/m1/s1

>  <InChI Key>  (679) 
FUETUFSSHFXHMC-OAHLLOKOSA-N

>  <PERCENTSP3>  (679) 
37.5

>  <Link>  (679) 
https://www.chemdiv.com/catalog/screening-compounds/compound-C226-0897/

>  <MFCDNUMBER>  (679) 
MFCD09782069

>  <CLNUMBER>  (679) 
CL2028

>  <STEREO>  (679) 
RACEMIC MIXTURE

>  <State>  (679) 
Solid

>  <Similarity score>  (679) 
0.18

$$$$
N-(6-tert-butyl-3-cyano-4,5,6,7-tetrahydro-1-benzothiophen-2-yl)-5-methyl-1,2-ox
     RDKit          2D

 24 26  0  0  0  0  0  0  0  0999 V2000
    0.4446   -0.0891    0.0000 C   0  0  0  0  0  0  0  0  0  0  0  0
   -0.3630   -0.6455    0.0000 C   0  0  0  0  0  0  0  0  0  0  0  0
    0.9236   -1.6290    0.0000 C   0  0  0  0  0  0  0  0  0  0  0  0
   -0.0860   -1.6096    0.0000 C   0  0  0  0  0  0  0  0  0  0  0  0
    1.2243    3.0379    0.0000 C   0  0  0  0  0  0  0  0  0  0  0  0
    1.2457   -0.6906    0.0000 S   0  0  0  0  0  0  0  0  0  0  0  0
    0.4446    0.9246    0.0000 N   0  0  0  0  0  0  0  0  0  0  0  0
    0.5049    3.5964    0.0000 N   0  0  0  0  0  0  0  0  0  0  0  0
    1.3057    1.4228    0.0000 C   0  0  0  0  0  0  0  0  0  0  0  0
    1.9718    3.5362    0.0000 C   0  0  0  0  0  0  0  0  0  0  0  0
   -1.3057   -0.3147    0.0000 C   0  0  0  0  0  0  0  0  0  0  0  0
    0.8224    4.4425    0.0000 O   0  0  0  0  0  0  0  0  0  0  0  0
    1.3959   -2.5052    0.0000 C   0  0  0  0  0  0  0  0  0  0  0  0
   -2.2594    0.0182    0.0000 N   0  0  0  0  0  0  0  0  0  0  0  0
    1.7290    4.4232    0.0000 C   0  0  0  0  0  0  0  0  0  0  0  0
   -0.5991   -2.4561    0.0000 C   0  0  0  0  0  0  0  0  0  0  0  0
    0.8675   -3.3623    0.0000 C   0  0  0  0  0  0  0  0  0  0  0  0
    1.3468   -4.2557    0.0000 C   0  0  0  0  0  0  0  0  0  0  0  0
    2.0725    0.9246    0.0000 O   0  0  0  0  0  0  0  0  0  0  0  0
   -0.1201   -3.3323    0.0000 C   0  0  0  0  0  0  0  0  0  0  0  0
    2.2594    5.1534    0.0000 C   0  0  0  0  0  0  0  0  0  0  0  0
    0.4446   -4.7240    0.0000 C   0  0  0  0  0  0  0  0  0  0  0  0
    2.2380   -3.7918    0.0000 C   0  0  0  0  0  0  0  0  0  0  0  0
    1.8042   -5.1534    0.0000 C   0  0  0  0  0  0  0  0  0  0  0  0
  1  2  2  0
  3  6  1  0
  3  4  2  0
  2  4  1  0
  5  9  1  0
  1  6  1  0
  1  7  1  0
  5  8  2  0
  7  9  1  0
  5 10  1  0
  2 11  1  0
  8 12  1  0
  3 13  1  0
 11 14  3  0
 10 15  2  0
 12 15  1  0
  4 16  1  0
 13 17  1  0
 17 18  1  0
  9 19  2  0
 16 20  1  0
 17 20  1  0
 15 21  1  0
 18 22  1  0
 18 23  1  0
 18 24  1  0
M  END
>  <IDNUMBER>  (680) 
C226-2607

>  <available>  (680) 
41

>  <H_acceptor>  (680) 
5

>  <H_donor>  (680) 
1

>  <B_rotN>  (680) 
5

>  <N_O>  (680) 
5

>  <logP>  (680) 
4.6203

>  <logD>  (680) 
2.9499

>  <logSw>  (680) 
-4.4676

>  <PSA>  (680) 
61.329

>  <pKa_ma>  (680) 
5.739

>  <pKa_mb>  (680) 
-6.3814

>  <N_Chirals>  (680) 
1

>  <Name>  (680) 
N-(6-tert-butyl-3-cyano-4,5,6,7-tetrahydro-1-benzothiophen-2-yl)-5-methyl-1,2-oxazole-3-carboxamide

>  <Smile>  (680) 
CC(C)(C)C(CC1)Cc2c1c(C#N)c(NC(c1noc(C)c1)=O)s2

>  <Color>  (680) 
NOT COLORED

>  <Collection>  (680) 
DC

>  <InChI>  (680) 
InChI=1S/C18H21N3O2S/c1-10-7-14(21-23-10)16(22)20-17-13(9-19)12-6-5-11(18(2,3)4)8-15(12)24-17/h7,11H,5-6,8H2,1-4H3,(H,20,22)/t11-/m1/s1

>  <InChI Key>  (680) 
LKSJZZSXJLKEIT-LLVKDONJSA-N

>  <PERCENTSP3>  (680) 
50

>  <Link>  (680) 
https://www.chemdiv.com/catalog/screening-compounds/compound-C226-2607/

>  <MFCDNUMBER>  (680) 
MFCD05025638

>  <CLNUMBER>  (680) 
CL2030

>  <STEREO>  (680) 
RACEMIC MIXTURE

>  <State>  (680) 
Solid

>  <Similarity score>  (680) 
0.18

$$$$
N-(3-cyano-4,5,6,7-tetrahydro-1-benzothiophen-2-yl)-3-(3-{[(5,6-dimethyl-1H-benz
     RDKit          2D

 34 38  0  0  0  0  0  0  0  0999 V2000
    4.2796    1.2792    0.0000 C   0  0  0  0  0  0  0  0  0  0  0  0
    5.2503    0.9833    0.0000 C   0  0  0  0  0  0  0  0  0  0  0  0
    4.2670    2.2666    0.0000 S   0  0  0  0  0  0  0  0  0  0  0  0
    5.8046    1.7916    0.0000 C   0  0  0  0  0  0  0  0  0  0  0  0
   -3.0836   -2.6210    0.0000 C   0  0  0  0  0  0  0  0  0  0  0  0
   -3.6752   -1.7961    0.0000 N   0  0  0  0  0  0  0  0  0  0  0  0
    0.0626   -0.9084    0.0000 N   0  0  0  0  0  0  0  0  0  0  0  0
    5.2047    2.5920    0.0000 C   0  0  0  0  0  0  0  0  0  0  0  0
   -3.6586   -3.4338    0.0000 N   0  0  0  0  0  0  0  0  0  0  0  0
   -0.5376   -1.7416    0.0000 C   0  0  0  0  0  0  0  0  0  0  0  0
    3.4878    0.6791    0.0000 N   0  0  0  0  0  0  0  0  0  0  0  0
    0.0666   -2.5713    0.0000 N   0  0  0  0  0  0  0  0  0  0  0  0
   -4.6086   -2.1170    0.0000 C   0  0  0  0  0  0  0  0  0  0  0  0
   -4.6086   -3.1167    0.0000 C   0  0  0  0  0  0  0  0  0  0  0  0
    5.5795    0.0290    0.0000 C   0  0  0  0  0  0  0  0  0  0  0  0
    1.0418   -1.2169    0.0000 C   0  0  0  0  0  0  0  0  0  0  0  0
    1.0418   -2.2585    0.0000 O   0  0  0  0  0  0  0  0  0  0  0  0
    5.9047   -0.9084    0.0000 N   0  0  0  0  0  0  0  0  0  0  0  0
    2.5670    1.0666    0.0000 C   0  0  0  0  0  0  0  0  0  0  0  0
   -5.4754   -1.6208    0.0000 C   0  0  0  0  0  0  0  0  0  0  0  0
   -5.4713   -3.6169    0.0000 C   0  0  0  0  0  0  0  0  0  0  0  0
   -6.3298   -3.1210    0.0000 C   0  0  0  0  0  0  0  0  0  0  0  0
   -6.3381   -2.1170    0.0000 C   0  0  0  0  0  0  0  0  0  0  0  0
   -2.0834   -2.6210    0.0000 S   0  0  0  0  0  0  0  0  0  0  0  0
    2.4795    1.7792    0.0000 O   0  0  0  0  0  0  0  0  0  0  0  0
   -1.5835   -1.7459    0.0000 C   0  0  0  0  0  0  0  0  0  0  0  0
    1.8793   -0.5961    0.0000 C   0  0  0  0  0  0  0  0  0  0  0  0
    1.7419    0.4291    0.0000 C   0  0  0  0  0  0  0  0  0  0  0  0
    6.8005    1.8960    0.0000 C   0  0  0  0  0  0  0  0  0  0  0  0
    5.6047    3.5130    0.0000 C   0  0  0  0  0  0  0  0  0  0  0  0
   -7.2006   -1.6208    0.0000 C   0  0  0  0  0  0  0  0  0  0  0  0
   -7.1922   -3.6210    0.0000 C   0  0  0  0  0  0  0  0  0  0  0  0
    7.2006    2.8294    0.0000 C   0  0  0  0  0  0  0  0  0  0  0  0
    6.6004    3.6210    0.0000 C   0  0  0  0  0  0  0  0  0  0  0  0
  1  2  2  0
  1  3  1  0
  2  4  1  0
  4  8  2  0
  5 24  1  0
  5  6  2  0
  7 16  2  0
  3  8  1  0
  5  9  1  0
  7 10  1  0
 10 12  2  0
  1 11  1  0
 12 17  1  0
  6 13  1  0
 13 14  2  0
  9 14  1  0
  2 15  1  0
 16 27  1  0
 16 17  1  0
 15 18  3  0
 11 19  1  0
 13 20  1  0
 14 21  1  0
 21 22  2  0
 22 23  1  0
 20 23  2  0
 24 26  1  0
 19 25  2  0
 10 26  1  0
 27 28  1  0
 19 28  1  0
  4 29  1  0
  8 30  1  0
 23 31  1  0
 22 32  1  0
 29 33  1  0
 33 34  1  0
 30 34  1  0
M  END
>  <IDNUMBER>  (681) 
J021-3399

>  <available>  (681) 
39

>  <H_acceptor>  (681) 
8

>  <H_donor>  (681) 
2

>  <B_rotN>  (681) 
9

>  <N_O>  (681) 
8

>  <logP>  (681) 
4.9142

>  <logD>  (681) 
3.5953

>  <logSw>  (681) 
-4.702

>  <PSA>  (681) 
90.234

>  <pKa_ma>  (681) 
6.1024

>  <pKa_mb>  (681) 
7.027

>  <N_Chirals>  (681) 
0

>  <Name>  (681) 
N-(3-cyano-4,5,6,7-tetrahydro-1-benzothiophen-2-yl)-3-(3-{[(5,6-dimethyl-1H-benzimidazol-2-yl)sulfanyl]methyl}-1,2,4-oxadiazol-5-yl)propanamide

>  <Smile>  (681) 
Cc(c(C)c1)cc([nH]2)c1nc2SCc1noc(CCC(Nc(sc2c3CCCC2)c3C#N)=O)n1

>  <Color>  (681) 
ORANGE

>  <Collection>  (681) 
DC

>  <InChI>  (681) 
InChI=1S/C24H24N6O2S2/c1-13-9-17-18(10-14(13)2)27-24(26-17)33-12-20-28-22(32-30-20)8-7-21(31)29-23-16(11-25)15-5-3-4-6-19(15)34-23/h9-10H,3-8,12H2,1-2H3,(H,26,27)(H,29,31)

>  <InChI Key>  (681) 
ALRBLXLJFJILHD-UHFFFAOYSA-N

>  <PERCENTSP3>  (681) 
37.5

>  <Link>  (681) 
https://www.chemdiv.com/catalog/screening-compounds/compound-J021-3399/

>  <MFCDNUMBER>  (681) 
MFCD27218779

>  <CLNUMBER>  (681) 
CL8315

>  <STEREO>  (681) 
ACHIRAL

>  <State>  (681) 
Solid

>  <Similarity score>  (681) 
0.18

$$$$
2-(2-chlorophenyl)-N-[3-cyano-6-(2-methylbutan-2-yl)-4,5,6,7-tetrahydro-1-benzot
     RDKit          2D

 36 40  0  0  0  0  0  0  0  0999 V2000
   -1.3298    0.2250    0.0000 C   0  0  0  0  0  0  0  0  0  0  0  0
   -2.2678    0.2709    0.0000 C   0  0  0  0  0  0  0  0  0  0  0  0
   -1.7425    1.7593    0.0000 C   0  0  0  0  0  0  0  0  0  0  0  0
   -2.4928    1.2506    0.0000 C   0  0  0  0  0  0  0  0  0  0  0  0
   -0.9588    1.1506    0.0000 S   0  0  0  0  0  0  0  0  0  0  0  0
   -0.7169   -0.6795    0.0000 N   0  0  0  0  0  0  0  0  0  0  0  0
    0.2836   -0.6795    0.0000 C   0  0  0  0  0  0  0  0  0  0  0  0
    0.7963   -3.2684    0.0000 C   0  0  0  0  0  0  0  0  0  0  0  0
    0.7963   -1.5301    0.0000 C   0  0  0  0  0  0  0  0  0  0  0  0
    1.7677   -3.2392    0.0000 N   0  0  0  0  0  0  0  0  0  0  0  0
    0.2960   -2.3930    0.0000 C   0  0  0  0  0  0  0  0  0  0  0  0
   -2.9431   -0.5545    0.0000 C   0  0  0  0  0  0  0  0  0  0  0  0
    0.2836   -4.0939    0.0000 C   0  0  0  0  0  0  0  0  0  0  0  0
    1.7677   -1.5301    0.0000 C   0  0  0  0  0  0  0  0  0  0  0  0
    2.2596   -2.3930    0.0000 C   0  0  0  0  0  0  0  0  0  0  0  0
   -1.7967    2.7223    0.0000 C   0  0  0  0  0  0  0  0  0  0  0  0
   -3.6060   -1.3674    0.0000 N   0  0  0  0  0  0  0  0  0  0  0  0
   -3.4226    1.6509    0.0000 C   0  0  0  0  0  0  0  0  0  0  0  0
   -2.6555    3.1892    0.0000 C   0  0  0  0  0  0  0  0  0  0  0  0
   -2.6931    4.2439    0.0000 C   0  0  0  0  0  0  0  0  0  0  0  0
    0.7713    0.2000    0.0000 O   0  0  0  0  0  0  0  0  0  0  0  0
    0.7713   -4.9651    0.0000 C   0  0  0  0  0  0  0  0  0  0  0  0
   -3.5184    2.6473    0.0000 C   0  0  0  0  0  0  0  0  0  0  0  0
    1.7593   -4.9527    0.0000 Cl  0  0  0  0  0  0  0  0  0  0  0  0
   -0.7211   -4.0939    0.0000 C   0  0  0  0  0  0  0  0  0  0  0  0
    2.2596   -0.6795    0.0000 C   0  0  0  0  0  0  0  0  0  0  0  0
    3.2602   -2.3930    0.0000 C   0  0  0  0  0  0  0  0  0  0  0  0
   -2.7555    5.2987    0.0000 C   0  0  0  0  0  0  0  0  0  0  0  0
   -1.7093    4.2689    0.0000 C   0  0  0  0  0  0  0  0  0  0  0  0
   -3.7478    4.2189    0.0000 C   0  0  0  0  0  0  0  0  0  0  0  0
    0.2836   -5.8406    0.0000 C   0  0  0  0  0  0  0  0  0  0  0  0
   -1.9051    5.8406    0.0000 C   0  0  0  0  0  0  0  0  0  0  0  0
   -1.2090   -4.9527    0.0000 C   0  0  0  0  0  0  0  0  0  0  0  0
    3.2602   -0.6795    0.0000 C   0  0  0  0  0  0  0  0  0  0  0  0
    3.7478   -1.5301    0.0000 C   0  0  0  0  0  0  0  0  0  0  0  0
   -0.7211   -5.8072    0.0000 C   0  0  0  0  0  0  0  0  0  0  0  0
  1  2  2  0
  3  5  1  0
  2  4  1  0
  3  4  2  0
  1  5  1  0
  1  6  1  0
  6  7  1  0
  8 11  2  0
  8 10  1  0
  7  9  1  0
 10 15  2  0
  9 11  1  0
  2 12  1  0
  8 13  1  0
  9 14  2  0
 14 15  1  0
  3 16  1  0
 12 17  3  0
  4 18  1  0
 16 19  1  0
 19 20  1  0
  7 21  2  0
 13 22  2  0
 18 23  1  0
 19 23  1  0
 22 24  1  0
 13 25  1  0
 14 26  1  0
 15 27  1  0
 20 28  1  0
 20 29  1  0
 20 30  1  0
 22 31  1  0
 28 32  1  0
 25 33  2  0
 26 34  2  0
 34 35  1  0
 27 35  2  0
 33 36  1  0
 31 36  2  0
M  END
>  <IDNUMBER>  (682) 
Y509-8062

>  <available>  (682) 
16

>  <H_acceptor>  (682) 
4

>  <H_donor>  (682) 
1

>  <B_rotN>  (682) 
7

>  <N_O>  (682) 
4

>  <logP>  (682) 
7.8978

>  <logD>  (682) 
6.9426

>  <logSw>  (682) 
-6.5948

>  <PSA>  (682) 
48.16

>  <pKa_ma>  (682) 
6.4958

>  <pKa_mb>  (682) 
1.468

>  <N_Chirals>  (682) 
1

>  <Name>  (682) 
2-(2-chlorophenyl)-N-[3-cyano-6-(2-methylbutan-2-yl)-4,5,6,7-tetrahydro-1-benzothiophen-2-yl]quinoline-4-carboxamide

>  <Smile>  (682) 
c1(c(c2c(s1)CC(C(CC)(C)C)CC2)C#N)NC(c1cc(nc2c1cccc2)c1c(Cl)cccc1)=O

>  <Color>  (682) 
ORANGE

>  <Collection>  (682) 
DC

>  <InChI>  (682) 
InChI=1S/C30H28ClN3OS/c1-4-30(2,3)18-13-14-20-23(17-32)29(36-27(20)15-18)34-28(35)22-16-26(21-10-5-7-11-24(21)31)33-25-12-8-6-9-19(22)25/h5-12,16,18H,4,13-15H2,1-3H3,(H,34,35)/t18-/m1/s1

>  <InChI Key>  (682) 
XHBNNYRABUEIPS-GOSISDBHSA-N

>  <PERCENTSP3>  (682) 
30

>  <Link>  (682) 
https://www.chemdiv.com/catalog/screening-compounds/compound-Y509-8062/

>  <MFCDNUMBER>  (682) 
MFCD01342980

>  <STEREO>  (682) 
RACEMIC MIXTURE

>  <State>  (682) 
Solid

>  <Similarity score>  (682) 
0.18

$$$$
2-amino-6-(2-phenylethyl)-4,5,6,7-tetrahydrothieno[2,3-c]pyridine-3-carbonitrile
     RDKit          2D

 20 22  0  0  0  0  0  0  0  0999 V2000
    2.7431    0.6914    0.0000 C   0  0  0  0  0  0  0  0  0  0  0  0
    3.3055   -0.1084    0.0000 C   0  0  0  0  0  0  0  0  0  0  0  0
    1.7934    0.3791    0.0000 C   0  0  0  0  0  0  0  0  0  0  0  0
    1.7934   -0.6208    0.0000 C   0  0  0  0  0  0  0  0  0  0  0  0
    2.7431   -0.9289    0.0000 S   0  0  0  0  0  0  0  0  0  0  0  0
    3.0680    1.6331    0.0000 C   0  0  0  0  0  0  0  0  0  0  0  0
    0.0562   -0.6208    0.0000 N   0  0  0  0  0  0  0  0  0  0  0  0
    3.3931    2.5787    0.0000 N   0  0  0  0  0  0  0  0  0  0  0  0
    0.9267   -1.1206    0.0000 C   0  0  0  0  0  0  0  0  0  0  0  0
    0.9267    0.8915    0.0000 C   0  0  0  0  0  0  0  0  0  0  0  0
    4.3055   -0.1084    0.0000 N   0  0  0  0  0  0  0  0  0  0  0  0
    0.0562    0.3791    0.0000 C   0  0  0  0  0  0  0  0  0  0  0  0
   -0.8436   -1.1206    0.0000 C   0  0  0  0  0  0  0  0  0  0  0  0
   -1.6935   -0.6041    0.0000 C   0  0  0  0  0  0  0  0  0  0  0  0
   -2.5683   -1.0914    0.0000 C   0  0  0  0  0  0  0  0  0  0  0  0
   -3.4181   -0.5791    0.0000 C   0  0  0  0  0  0  0  0  0  0  0  0
   -2.5807   -2.0912    0.0000 C   0  0  0  0  0  0  0  0  0  0  0  0
   -3.4473   -2.5787    0.0000 C   0  0  0  0  0  0  0  0  0  0  0  0
   -4.2928   -1.0707    0.0000 C   0  0  0  0  0  0  0  0  0  0  0  0
   -4.3055   -2.0704    0.0000 C   0  0  0  0  0  0  0  0  0  0  0  0
  1  2  2  0
  1  3  1  0
  3  4  2  0
  4  5  1  0
  2  5  1  0
  1  6  1  0
  7 12  1  0
  6  8  3  0
  4  9  1  0
  7  9  1  0
  3 10  1  0
  2 11  1  0
 10 12  1  0
  7 13  1  0
 13 14  1  0
 14 15  1  0
 15 16  2  0
 15 17  1  0
 17 18  2  0
 16 19  1  0
 19 20  2  0
 18 20  1  0
M  END
>  <IDNUMBER>  (683) 
Y512-6622

>  <available>  (683) 
10

>  <H_acceptor>  (683) 
2

>  <H_donor>  (683) 
2

>  <B_rotN>  (683) 
4

>  <N_O>  (683) 
3

>  <logP>  (683) 
2.769

>  <logD>  (683) 
2.767

>  <logSw>  (683) 
-2.953

>  <PSA>  (683) 
41.94

>  <pKa_ma>  (683) 
15.47

>  <pKa_mb>  (683) 
5.053

>  <N_Chirals>  (683) 
0

>  <Name>  (683) 
2-amino-6-(2-phenylethyl)-4,5,6,7-tetrahydrothieno[2,3-c]pyridine-3-carbonitrile

>  <Smile>  (683) 
c1(c(sc2c1CCN(C2)CCc1ccccc1)N)C#N

>  <Color>  (683) 
BROWN

>  <Collection>  (683) 
DC

>  <InChI>  (683) 
InChI=1S/C16H17N3S/c17-10-14-13-7-9-19(11-15(13)20-16(14)18)8-6-12-4-2-1-3-5-12/h1-5H,6-9,11,18H2

>  <InChI Key>  (683) 
NEZXGGXPFJZLFK-UHFFFAOYSA-N

>  <PERCENTSP3>  (683) 
31.3

>  <Link>  (683) 
https://www.chemdiv.com/catalog/screening-compounds/compound-Y512-6622/

>  <MFCDNUMBER>  (683) 
MFCD01565102

>  <STEREO>  (683) 
ACHIRAL

>  <State>  (683) 
Solid

>  <Similarity score>  (683) 
0.18

$$$$
N-(6-tert-butyl-3-cyano-4,5,6,7-tetrahydro-1-benzothiophen-2-yl)-5-propyl-1,2-ox
     RDKit          2D

 26 28  0  0  0  0  0  0  0  0999 V2000
   -0.2542   -0.0043    0.0000 C   0  0  0  0  0  0  0  0  0  0  0  0
   -1.0613   -0.5602    0.0000 C   0  0  0  0  0  0  0  0  0  0  0  0
    0.2243   -1.5428    0.0000 C   0  0  0  0  0  0  0  0  0  0  0  0
   -0.7845   -1.5235    0.0000 C   0  0  0  0  0  0  0  0  0  0  0  0
    0.4862    2.8776    0.0000 C   0  0  0  0  0  0  0  0  0  0  0  0
    0.5461   -0.6053    0.0000 S   0  0  0  0  0  0  0  0  0  0  0  0
   -0.2542    1.0086    0.0000 N   0  0  0  0  0  0  0  0  0  0  0  0
   -0.2391    3.4826    0.0000 N   0  0  0  0  0  0  0  0  0  0  0  0
    0.6061    1.5063    0.0000 C   0  0  0  0  0  0  0  0  0  0  0  0
    1.3013    3.3903    0.0000 C   0  0  0  0  0  0  0  0  0  0  0  0
   -2.0031   -0.2296    0.0000 C   0  0  0  0  0  0  0  0  0  0  0  0
    0.1084    4.3688    0.0000 O   0  0  0  0  0  0  0  0  0  0  0  0
    0.6963   -2.4185    0.0000 C   0  0  0  0  0  0  0  0  0  0  0  0
   -2.9559    0.1029    0.0000 N   0  0  0  0  0  0  0  0  0  0  0  0
    1.0697    4.3131    0.0000 C   0  0  0  0  0  0  0  0  0  0  0  0
   -1.2971   -2.3693    0.0000 C   0  0  0  0  0  0  0  0  0  0  0  0
    0.1684   -3.2747    0.0000 C   0  0  0  0  0  0  0  0  0  0  0  0
    0.6471   -4.1674    0.0000 C   0  0  0  0  0  0  0  0  0  0  0  0
    1.3916    0.9525    0.0000 O   0  0  0  0  0  0  0  0  0  0  0  0
   -0.8187   -3.2447    0.0000 C   0  0  0  0  0  0  0  0  0  0  0  0
    1.6793    5.0642    0.0000 C   0  0  0  0  0  0  0  0  0  0  0  0
   -0.2542   -4.6352    0.0000 C   0  0  0  0  0  0  0  0  0  0  0  0
    1.5376   -3.7038    0.0000 C   0  0  0  0  0  0  0  0  0  0  0  0
    1.1042   -5.0642    0.0000 C   0  0  0  0  0  0  0  0  0  0  0  0
    2.6127    4.9118    0.0000 C   0  0  0  0  0  0  0  0  0  0  0  0
    2.9559    4.0105    0.0000 C   0  0  0  0  0  0  0  0  0  0  0  0
  1  2  2  0
  3  6  1  0
  3  4  2  0
  2  4  1  0
  5  9  1  0
  1  6  1  0
  1  7  1  0
  5  8  2  0
  7  9  1  0
  5 10  1  0
  2 11  1  0
  8 12  1  0
  3 13  1  0
 11 14  3  0
 10 15  2  0
 12 15  1  0
  4 16  1  0
 13 17  1  0
 17 18  1  0
  9 19  2  0
 16 20  1  0
 17 20  1  0
 15 21  1  0
 18 22  1  0
 18 23  1  0
 18 24  1  0
 21 25  1  0
 25 26  1  0
M  END
>  <IDNUMBER>  (684) 
C226-3063

>  <available>  (684) 
257

>  <H_acceptor>  (684) 
5

>  <H_donor>  (684) 
1

>  <B_rotN>  (684) 
7

>  <N_O>  (684) 
5

>  <logP>  (684) 
5.6329

>  <logD>  (684) 
3.9625

>  <logSw>  (684) 
-5.4509

>  <PSA>  (684) 
61.078

>  <pKa_ma>  (684) 
5.739

>  <pKa_mb>  (684) 
-6.3689

>  <N_Chirals>  (684) 
1

>  <Name>  (684) 
N-(6-tert-butyl-3-cyano-4,5,6,7-tetrahydro-1-benzothiophen-2-yl)-5-propyl-1,2-oxazole-3-carboxamide

>  <Smile>  (684) 
CCCc1cc(C(Nc(sc(C2)c3CCC2C(C)(C)C)c3C#N)=O)no1

>  <Color>  (684) 
YELLOW

>  <Collection>  (684) 
DC

>  <InChI>  (684) 
InChI=1S/C20H25N3O2S/c1-5-6-13-10-16(23-25-13)18(24)22-19-15(11-21)14-8-7-12(20(2,3)4)9-17(14)26-19/h10,12H,5-9H2,1-4H3,(H,22,24)/t12-/m1/s1

>  <InChI Key>  (684) 
ICVKMSKXKWSWAD-GFCCVEGCSA-N

>  <PERCENTSP3>  (684) 
55

>  <Link>  (684) 
https://www.chemdiv.com/catalog/screening-compounds/compound-C226-3063/

>  <MFCDNUMBER>  (684) 
MFCD09782951

>  <CLNUMBER>  (684) 
CL2030

>  <STEREO>  (684) 
RACEMIC MIXTURE

>  <State>  (684) 
Solid

>  <Similarity score>  (684) 
0.18

$$$$
N-(3-cyano-5,6-dihydro-4H-cyclopenta[b]thiophen-2-yl)-2-[(2-methyl-6-phenylpyrim
     RDKit          2D

 28 31  0  0  0  0  0  0  0  0999 V2000
   -1.8578   -0.6039    0.0000 C   0  0  0  0  0  0  0  0  0  0  0  0
   -2.6659   -0.0040    0.0000 C   0  0  0  0  0  0  0  0  0  0  0  0
   -2.1784   -1.5413    0.0000 S   0  0  0  0  0  0  0  0  0  0  0  0
   -3.4782   -0.5831    0.0000 C   0  0  0  0  0  0  0  0  0  0  0  0
   -3.1699   -1.5413    0.0000 C   0  0  0  0  0  0  0  0  0  0  0  0
   -0.8957   -0.3081    0.0000 N   0  0  0  0  0  0  0  0  0  0  0  0
    2.1950    1.5289    0.0000 N   0  0  0  0  0  0  0  0  0  0  0  0
    3.8904    1.1330    0.0000 N   0  0  0  0  0  0  0  0  0  0  0  0
    3.6572    0.1583    0.0000 C   0  0  0  0  0  0  0  0  0  0  0  0
    1.9827    0.5581    0.0000 C   0  0  0  0  0  0  0  0  0  0  0  0
    2.7074   -0.1291    0.0000 C   0  0  0  0  0  0  0  0  0  0  0  0
   -2.6659    0.9913    0.0000 C   0  0  0  0  0  0  0  0  0  0  0  0
    3.1656    1.8202    0.0000 C   0  0  0  0  0  0  0  0  0  0  0  0
   -2.6533    1.9911    0.0000 N   0  0  0  0  0  0  0  0  0  0  0  0
   -0.1668   -0.9955    0.0000 C   0  0  0  0  0  0  0  0  0  0  0  0
    1.0205    0.2708    0.0000 S   0  0  0  0  0  0  0  0  0  0  0  0
    3.9447   -0.7956    0.0000 C   0  0  0  0  0  0  0  0  0  0  0  0
   -0.3958   -1.9659    0.0000 O   0  0  0  0  0  0  0  0  0  0  0  0
    0.7956   -0.7038    0.0000 C   0  0  0  0  0  0  0  0  0  0  0  0
   -4.4779   -0.5831    0.0000 C   0  0  0  0  0  0  0  0  0  0  0  0
   -3.9821   -2.1200    0.0000 C   0  0  0  0  0  0  0  0  0  0  0  0
   -4.7819   -1.5327    0.0000 C   0  0  0  0  0  0  0  0  0  0  0  0
    3.3947    2.7950    0.0000 C   0  0  0  0  0  0  0  0  0  0  0  0
    4.7819   -1.3453    0.0000 C   0  0  0  0  0  0  0  0  0  0  0  0
    3.0531   -1.2455    0.0000 C   0  0  0  0  0  0  0  0  0  0  0  0
    2.9949   -2.2452    0.0000 C   0  0  0  0  0  0  0  0  0  0  0  0
    4.7276   -2.3576    0.0000 C   0  0  0  0  0  0  0  0  0  0  0  0
    3.8322   -2.7950    0.0000 C   0  0  0  0  0  0  0  0  0  0  0  0
  1  2  2  0
  1  3  1  0
  2  4  1  0
  3  5  1  0
  4  5  2  0
  1  6  1  0
  7 10  2  0
  8  9  1  0
  8 13  2  0
  9 11  2  0
 10 16  1  0
 10 11  1  0
  2 12  1  0
  7 13  1  0
 12 14  3  0
  6 15  1  0
 16 19  1  0
  9 17  1  0
 15 18  2  0
 15 19  1  0
  4 20  1  0
 20 22  1  0
  5 21  1  0
 21 22  1  0
 13 23  1  0
 17 24  1  0
 17 25  2  0
 25 26  1  0
 24 27  2  0
 27 28  1  0
 26 28  2  0
M  END
>  <IDNUMBER>  (685) 
D306-0402

>  <available>  (685) 
102

>  <H_acceptor>  (685) 
6

>  <H_donor>  (685) 
1

>  <B_rotN>  (685) 
7

>  <N_O>  (685) 
5

>  <logP>  (685) 
4.5928

>  <logD>  (685) 
3.4686

>  <logSw>  (685) 
-4.5537

>  <PSA>  (685) 
57.527

>  <pKa_ma>  (685) 
6.3097

>  <pKa_mb>  (685) 
4.7121

>  <N_Chirals>  (685) 
0

>  <Name>  (685) 
N-(3-cyano-5,6-dihydro-4H-cyclopenta[b]thiophen-2-yl)-2-[(2-methyl-6-phenylpyrimidin-4-yl)sulfanyl]acetamide

>  <Smile>  (685) 
Cc1nc(-c2ccccc2)cc(SCC(Nc(sc2c3CCC2)c3C#N)=O)n1

>  <Color>  (685) 
BROWN

>  <Collection>  (685) 
DC

>  <InChI>  (685) 
InChI=1S/C21H18N4OS2/c1-13-23-17(14-6-3-2-4-7-14)10-20(24-13)27-12-19(26)25-21-16(11-22)15-8-5-9-18(15)28-21/h2-4,6-7,10H,5,8-9,12H2,1H3,(H,25,26)

>  <InChI Key>  (685) 
FAWOPUVZFJZCKA-UHFFFAOYSA-N

>  <PERCENTSP3>  (685) 
23.8

>  <Link>  (685) 
https://www.chemdiv.com/catalog/screening-compounds/compound-D306-0402/

>  <MFCDNUMBER>  (685) 
MFCD09982500

>  <CLNUMBER>  (685) 
CL9472

>  <STEREO>  (685) 
ACHIRAL

>  <State>  (685) 
Solid

>  <Similarity score>  (685) 
0.18

$$$$
2-(2-bromophenoxy)-N-(3-cyano-5,6-dihydro-4H-cyclopenta[b]thiophen-2-yl)propanam
     RDKit          2D

 23 25  0  0  0  0  0  0  0  0999 V2000
   -0.5177    1.4451    0.0000 C   0  0  0  0  0  0  0  0  0  0  0  0
   -0.5177    2.3413    0.0000 C   0  0  0  0  0  0  0  0  0  0  0  0
   -1.2957    1.0004    0.0000 S   0  0  0  0  0  0  0  0  0  0  0  0
   -2.0877    2.3413    0.0000 C   0  0  0  0  0  0  0  0  0  0  0  0
    0.3231    0.9725    0.0000 N   0  0  0  0  0  0  0  0  0  0  0  0
   -2.0877    1.4590    0.0000 C   0  0  0  0  0  0  0  0  0  0  0  0
    0.3231   -0.0000    0.0000 C   0  0  0  0  0  0  0  0  0  0  0  0
    0.3856    2.8623    0.0000 C   0  0  0  0  0  0  0  0  0  0  0  0
    1.2957    3.3626    0.0000 N   0  0  0  0  0  0  0  0  0  0  0  0
    1.1637   -1.4451    0.0000 O   0  0  0  0  0  0  0  0  0  0  0  0
    1.9904   -1.9175    0.0000 C   0  0  0  0  0  0  0  0  0  0  0  0
    1.1567   -0.4794    0.0000 C   0  0  0  0  0  0  0  0  0  0  0  0
   -0.5106   -0.4724    0.0000 O   0  0  0  0  0  0  0  0  0  0  0  0
    2.8309   -1.4451    0.0000 C   0  0  0  0  0  0  0  0  0  0  0  0
   -2.8797    2.7998    0.0000 C   0  0  0  0  0  0  0  0  0  0  0  0
    2.8450   -0.4933    0.0000 Br  0  0  0  0  0  0  0  0  0  0  0  0
   -3.6648    1.4590    0.0000 C   0  0  0  0  0  0  0  0  0  0  0  0
   -3.6648    2.3552    0.0000 C   0  0  0  0  0  0  0  0  0  0  0  0
    1.9904   -2.8832    0.0000 C   0  0  0  0  0  0  0  0  0  0  0  0
    1.9904   -0.0000    0.0000 C   0  0  0  0  0  0  0  0  0  0  0  0
    3.6578   -1.9197    0.0000 C   0  0  0  0  0  0  0  0  0  0  0  0
    2.8172   -3.3626    0.0000 C   0  0  0  0  0  0  0  0  0  0  0  0
    3.6648   -2.8901    0.0000 C   0  0  0  0  0  0  0  0  0  0  0  0
  1  2  2  0
  1  3  1  0
  2  4  1  0
  4  6  2  0
  1  5  1  0
  3  6  1  0
  5  7  1  0
  2  8  1  0
  8  9  3  0
 10 11  1  0
 10 12  1  0
  7 12  1  0
  7 13  2  0
 11 14  2  0
  4 15  1  0
 15 18  1  0
 14 16  1  0
  6 17  1  0
 17 18  1  0
 11 19  1  0
 12 20  1  0
 14 21  1  0
 19 22  2  0
 22 23  1  0
 21 23  2  0
M  END
>  <IDNUMBER>  (686) 
8011-9345

>  <available>  (686) 
21

>  <H_acceptor>  (686) 
4

>  <H_donor>  (686) 
1

>  <B_rotN>  (686) 
6

>  <N_O>  (686) 
4

>  <logP>  (686) 
4.2925

>  <logD>  (686) 
2.8547

>  <logSw>  (686) 
-4.4401

>  <PSA>  (686) 
47.342

>  <pKa_ma>  (686) 
5.9783

>  <pKa_mb>  (686) 
-5.9657

>  <N_Chirals>  (686) 
1

>  <Name>  (686) 
2-(2-bromophenoxy)-N-(3-cyano-5,6-dihydro-4H-cyclopenta[b]thiophen-2-yl)propanamide

>  <Smile>  (686) 
CC(C(Nc(sc1c2CCC1)c2C#N)=O)Oc(cccc1)c1Br

>  <Color>  (686) 
BROWN

>  <Collection>  (686) 
DC

>  <InChI>  (686) 
InChI=1S/C17H15BrN2O2S/c1-10(22-14-7-3-2-6-13(14)18)16(21)20-17-12(9-19)11-5-4-8-15(11)23-17/h2-3,6-7,10H,4-5,8H2,1H3,(H,20,21)/t10-/m0/s1

>  <InChI Key>  (686) 
FCIOKRPXKFICSS-JTQLQIEISA-N

>  <PERCENTSP3>  (686) 
29.41

>  <Link>  (686) 
https://www.chemdiv.com/catalog/screening-compounds/compound-8011-9345/

>  <MFCDNUMBER>  (686) 
MFCD02928295

>  <STEREO>  (686) 
RACEMIC MIXTURE

>  <State>  (686) 
Solid

>  <Similarity score>  (686) 
0.18

$$$$
N-(6-tert-butyl-3-cyano-4,5,6,7-tetrahydro-1-benzothiophen-2-yl)-3,5-dimethoxybe
     RDKit          2D

 28 30  0  0  0  0  0  0  0  0999 V2000
   -1.3238   -0.4275    0.0000 C   0  0  0  0  0  0  0  0  0  0  0  0
   -2.3143   -0.3289    0.0000 C   0  0  0  0  0  0  0  0  0  0  0  0
   -1.6568    1.1757    0.0000 C   0  0  0  0  0  0  0  0  0  0  0  0
   -2.5220    0.6657    0.0000 C   0  0  0  0  0  0  0  0  0  0  0  0
   -0.8921    0.4869    0.0000 S   0  0  0  0  0  0  0  0  0  0  0  0
   -0.8120   -1.3175    0.0000 N   0  0  0  0  0  0  0  0  0  0  0  0
    0.2055   -1.3175    0.0000 C   0  0  0  0  0  0  0  0  0  0  0  0
   -2.9803   -1.0934    0.0000 C   0  0  0  0  0  0  0  0  0  0  0  0
    0.7110   -2.1972    0.0000 C   0  0  0  0  0  0  0  0  0  0  0  0
   -1.6568    2.1952    0.0000 C   0  0  0  0  0  0  0  0  0  0  0  0
   -3.6708   -1.8581    0.0000 N   0  0  0  0  0  0  0  0  0  0  0  0
   -3.4119    1.1757    0.0000 C   0  0  0  0  0  0  0  0  0  0  0  0
   -2.5220    2.7069    0.0000 C   0  0  0  0  0  0  0  0  0  0  0  0
   -2.4972    3.7305    0.0000 C   0  0  0  0  0  0  0  0  0  0  0  0
    1.6977   -2.1869    0.0000 C   0  0  0  0  0  0  0  0  0  0  0  0
    0.2300   -3.0009    0.0000 C   0  0  0  0  0  0  0  0  0  0  0  0
    0.7110   -0.4442    0.0000 O   0  0  0  0  0  0  0  0  0  0  0  0
    1.6484   -3.8498    0.0000 C   0  0  0  0  0  0  0  0  0  0  0  0
    0.7358   -3.8640    0.0000 C   0  0  0  0  0  0  0  0  0  0  0  0
    2.1582   -3.0174    0.0000 C   0  0  0  0  0  0  0  0  0  0  0  0
   -3.4367    2.1952    0.0000 C   0  0  0  0  0  0  0  0  0  0  0  0
    0.2651   -4.7274    0.0000 O   0  0  0  0  0  0  0  0  0  0  0  0
    3.1263   -2.9865    0.0000 O   0  0  0  0  0  0  0  0  0  0  0  0
   -2.4727    4.7521    0.0000 C   0  0  0  0  0  0  0  0  0  0  0  0
   -3.5167    3.7550    0.0000 C   0  0  0  0  0  0  0  0  0  0  0  0
   -1.4779    3.6997    0.0000 C   0  0  0  0  0  0  0  0  0  0  0  0
   -0.7133   -4.7521    0.0000 C   0  0  0  0  0  0  0  0  0  0  0  0
    3.6708   -3.7470    0.0000 C   0  0  0  0  0  0  0  0  0  0  0  0
  1  2  2  0
  3  5  1  0
  3  4  2  0
  2  4  1  0
  1  5  1  0
  1  6  1  0
  6  7  1  0
  2  8  1  0
  7  9  1  0
  3 10  1  0
  8 11  3  0
  4 12  1  0
 10 13  1  0
 13 14  1  0
  9 15  1  0
  9 16  2  0
  7 17  2  0
 18 19  2  0
 18 20  1  0
 16 19  1  0
 15 20  2  0
 12 21  1  0
 13 21  1  0
 19 22  1  0
 20 23  1  0
 14 24  1  0
 14 25  1  0
 14 26  1  0
 22 27  1  0
 23 28  1  0
M  END
>  <IDNUMBER>  (687) 
3365-7983

>  <available>  (687) 
1

>  <H_acceptor>  (687) 
5

>  <H_donor>  (687) 
1

>  <B_rotN>  (687) 
7

>  <N_O>  (687) 
5

>  <logP>  (687) 
5.4999

>  <logD>  (687) 
4.0934

>  <logSw>  (687) 
-5.4418

>  <PSA>  (687) 
55.188

>  <pKa_ma>  (687) 
6.0109

>  <pKa_mb>  (687) 
-6.786

>  <N_Chirals>  (687) 
1

>  <Name>  (687) 
N-(6-tert-butyl-3-cyano-4,5,6,7-tetrahydro-1-benzothiophen-2-yl)-3,5-dimethoxybenzamide

>  <Smile>  (687) 
CC(C)(C)C(CC1)Cc2c1c(C#N)c(NC(c1cc(OC)cc(OC)c1)=O)s2

>  <Color>  (687) 
NOT COLORED

>  <Collection>  (687) 
DC

>  <InChI>  (687) 
InChI=1S/C22H26N2O3S/c1-22(2,3)14-6-7-17-18(12-23)21(28-19(17)10-14)24-20(25)13-8-15(26-4)11-16(9-13)27-5/h8-9,11,14H,6-7,10H2,1-5H3,(H,24,25)/t14-/m1/s1

>  <InChI Key>  (687) 
BAFHAARFUDTCRG-CQSZACIVSA-N

>  <PERCENTSP3>  (687) 
45.5

>  <Link>  (687) 
https://www.chemdiv.com/catalog/screening-compounds/compound-3365-7983/

>  <MFCDNUMBER>  (687) 
MFCD01354310

>  <STEREO>  (687) 
RACEMIC MIXTURE

>  <State>  (687) 
Solid

>  <Similarity score>  (687) 
0.18

$$$$
N-(6-tert-butyl-3-cyano-4,5,6,7-tetrahydro-1-benzothiophen-2-yl)-2-[5-(4-methoxy
     RDKit          2D

 32 35  0  0  0  0  0  0  0  0999 V2000
    2.1837    1.9297    0.0000 C   0  0  0  0  0  0  0  0  0  0  0  0
    3.1715    2.0838    0.0000 C   0  0  0  0  0  0  0  0  0  0  0  0
   -1.0044    0.1417    0.0000 N   0  0  0  0  0  0  0  0  0  0  0  0
   -0.6917    1.0920    0.0000 N   0  0  0  0  0  0  0  0  0  0  0  0
    2.9171    0.4919    0.0000 C   0  0  0  0  0  0  0  0  0  0  0  0
   -2.3089    1.0920    0.0000 N   0  0  0  0  0  0  0  0  0  0  0  0
   -2.0044    0.1417    0.0000 C   0  0  0  0  0  0  0  0  0  0  0  0
    3.6299    1.1961    0.0000 C   0  0  0  0  0  0  0  0  0  0  0  0
   -1.5045    1.6795    0.0000 N   0  0  0  0  0  0  0  0  0  0  0  0
    2.0339    0.9419    0.0000 S   0  0  0  0  0  0  0  0  0  0  0  0
    1.4837    2.6381    0.0000 N   0  0  0  0  0  0  0  0  0  0  0  0
    0.5167    2.3712    0.0000 C   0  0  0  0  0  0  0  0  0  0  0  0
    0.2584    1.4045    0.0000 C   0  0  0  0  0  0  0  0  0  0  0  0
    3.6299    2.9796    0.0000 C   0  0  0  0  0  0  0  0  0  0  0  0
    3.1715   -0.4792    0.0000 C   0  0  0  0  0  0  0  0  0  0  0  0
    4.6217    3.0298    0.0000 N   0  0  0  0  0  0  0  0  0  0  0  0
    4.5966    0.9419    0.0000 C   0  0  0  0  0  0  0  0  0  0  0  0
   -2.5921   -0.6584    0.0000 C   0  0  0  0  0  0  0  0  0  0  0  0
    4.1424   -0.7418    0.0000 C   0  0  0  0  0  0  0  0  0  0  0  0
    4.3966   -1.7088    0.0000 C   0  0  0  0  0  0  0  0  0  0  0  0
    4.8550   -0.0333    0.0000 C   0  0  0  0  0  0  0  0  0  0  0  0
   -0.1916    3.0798    0.0000 O   0  0  0  0  0  0  0  0  0  0  0  0
   -3.5840   -0.5542    0.0000 C   0  0  0  0  0  0  0  0  0  0  0  0
   -2.1837   -1.5711    0.0000 C   0  0  0  0  0  0  0  0  0  0  0  0
   -3.7714   -2.2712    0.0000 C   0  0  0  0  0  0  0  0  0  0  0  0
   -4.1715   -1.3586    0.0000 C   0  0  0  0  0  0  0  0  0  0  0  0
   -2.7796   -2.3839    0.0000 C   0  0  0  0  0  0  0  0  0  0  0  0
   -4.3673   -3.0798    0.0000 O   0  0  0  0  0  0  0  0  0  0  0  0
    5.3593   -1.9712    0.0000 C   0  0  0  0  0  0  0  0  0  0  0  0
    3.3966   -1.7044    0.0000 C   0  0  0  0  0  0  0  0  0  0  0  0
    3.6840   -2.4088    0.0000 C   0  0  0  0  0  0  0  0  0  0  0  0
   -5.3593   -2.9712    0.0000 C   0  0  0  0  0  0  0  0  0  0  0  0
  1  2  2  0
  3  4  1  0
  4 13  1  0
  5 10  1  0
  5  8  2  0
  6  9  2  0
  3  7  2  0
  6  7  1  0
  2  8  1  0
  4  9  1  0
  1 10  1  0
  1 11  1  0
 11 12  1  0
 12 13  1  0
  2 14  1  0
  5 15  1  0
 14 16  3  0
  8 17  1  0
  7 18  1  0
 15 19  1  0
 19 20  1  0
 20 30  1  0
 17 21  1  0
 19 21  1  0
 12 22  2  0
 18 23  2  0
 18 24  1  0
 25 27  1  0
 25 26  2  0
 23 26  1  0
 24 27  2  0
 25 28  1  0
 20 29  1  0
 20 31  1  0
 28 32  1  0
M  END
>  <IDNUMBER>  (688) 
8016-7008

>  <available>  (688) 
31

>  <H_acceptor>  (688) 
7

>  <H_donor>  (688) 
1

>  <B_rotN>  (688) 
8

>  <N_O>  (688) 
8

>  <logP>  (688) 
4.968

>  <logD>  (688) 
4.1568

>  <logSw>  (688) 
-4.6633

>  <PSA>  (688) 
85.806

>  <pKa_ma>  (688) 
6.6618

>  <pKa_mb>  (688) 
-4.2821

>  <N_Chirals>  (688) 
1

>  <Name>  (688) 
N-(6-tert-butyl-3-cyano-4,5,6,7-tetrahydro-1-benzothiophen-2-yl)-2-[5-(4-methoxyphenyl)-2H-tetrazol-2-yl]acetamide

>  <Smile>  (688) 
CC(C)(C)C(CC1)Cc2c1c(C#N)c(NC(Cn1nnc(-c(cc3)ccc3OC)n1)=O)s2

>  <Color>  (688) 
YELLOW

>  <Collection>  (688) 
DC

>  <InChI>  (688) 
InChI=1S/C23H26N6O2S/c1-23(2,3)15-7-10-17-18(12-24)22(32-19(17)11-15)25-20(30)13-29-27-21(26-28-29)14-5-8-16(31-4)9-6-14/h5-6,8-9,15H,7,10-11,13H2,1-4H3,(H,25,30)/t15-/m1/s1

>  <InChI Key>  (688) 
KZBIOCFCOWDVSS-OAHLLOKOSA-N

>  <PERCENTSP3>  (688) 
43.5

>  <Link>  (688) 
https://www.chemdiv.com/catalog/screening-compounds/compound-8016-7008/

>  <MFCDNUMBER>  (688) 
MFCD05858444

>  <CLNUMBER>  (688) 
CL5633

>  <STEREO>  (688) 
RACEMIC MIXTURE

>  <State>  (688) 
Solid

>  <Similarity score>  (688) 
0.18

$$$$
N-(6-tert-butyl-3-cyano-4,5,6,7-tetrahydro-1-benzothiophen-2-yl)-7-(difluorometh
     RDKit          2D

 31 34  0  0  0  0  0  0  0  0999 V2000
    3.1104   -0.6189    0.0000 C   0  0  0  0  0  0  0  0  0  0  0  0
    2.8186    0.3562    0.0000 N   0  0  0  0  0  0  0  0  0  0  0  0
    2.2978   -1.2022    0.0000 N   0  0  0  0  0  0  0  0  0  0  0  0
    1.4852   -0.5855    0.0000 C   0  0  0  0  0  0  0  0  0  0  0  0
    1.8104    0.3562    0.0000 N   0  0  0  0  0  0  0  0  0  0  0  0
   -1.1437   -0.4230    0.0000 C   0  0  0  0  0  0  0  0  0  0  0  0
    3.5021    1.0727    0.0000 C   0  0  0  0  0  0  0  0  0  0  0  0
   -1.8270    0.2937    0.0000 C   0  0  0  0  0  0  0  0  0  0  0  0
   -2.5771   -1.1354    0.0000 C   0  0  0  0  0  0  0  0  0  0  0  0
   -2.7062   -0.1605    0.0000 C   0  0  0  0  0  0  0  0  0  0  0  0
   -1.5688   -1.2978    0.0000 S   0  0  0  0  0  0  0  0  0  0  0  0
    4.0854   -0.8146    0.0000 N   0  0  0  0  0  0  0  0  0  0  0  0
   -0.2022   -0.1605    0.0000 N   0  0  0  0  0  0  0  0  0  0  0  0
    0.5105   -0.8770    0.0000 C   0  0  0  0  0  0  0  0  0  0  0  0
    4.4438    0.8436    0.0000 C   0  0  0  0  0  0  0  0  0  0  0  0
   -1.6979    1.2978    0.0000 C   0  0  0  0  0  0  0  0  0  0  0  0
    4.7687   -0.0646    0.0000 C   0  0  0  0  0  0  0  0  0  0  0  0
    3.2395    2.0812    0.0000 C   0  0  0  0  0  0  0  0  0  0  0  0
   -3.3561   -1.7562    0.0000 C   0  0  0  0  0  0  0  0  0  0  0  0
   -1.5688    2.3061    0.0000 N   0  0  0  0  0  0  0  0  0  0  0  0
   -3.6146    0.2603    0.0000 C   0  0  0  0  0  0  0  0  0  0  0  0
   -4.2645   -1.3645    0.0000 C   0  0  0  0  0  0  0  0  0  0  0  0
   -5.0271   -1.9979    0.0000 C   0  0  0  0  0  0  0  0  0  0  0  0
    0.2520   -1.8187    0.0000 O   0  0  0  0  0  0  0  0  0  0  0  0
   -4.4272   -0.3562    0.0000 C   0  0  0  0  0  0  0  0  0  0  0  0
    2.2646    2.3731    0.0000 F   0  0  0  0  0  0  0  0  0  0  0  0
    3.9563    2.7603    0.0000 F   0  0  0  0  0  0  0  0  0  0  0  0
    5.7770   -0.2937    0.0000 C   0  0  0  0  0  0  0  0  0  0  0  0
   -5.7770   -2.6146    0.0000 C   0  0  0  0  0  0  0  0  0  0  0  0
   -4.3938   -2.7603    0.0000 C   0  0  0  0  0  0  0  0  0  0  0  0
   -5.6645   -1.2354    0.0000 C   0  0  0  0  0  0  0  0  0  0  0  0
  1  2  1  0
  1  3  2  0
  3  4  1  0
  4  5  2  0
  2  5  1  0
  6 13  1  0
  2  7  1  0
  6  8  2  0
  9 11  1  0
  9 10  2  0
  8 10  1  0
  6 11  1  0
  1 12  1  0
 13 14  1  0
  4 14  1  0
 15 17  1  0
  7 15  2  0
  8 16  1  0
 12 17  2  0
  7 18  1  0
  9 19  1  0
 16 20  3  0
 10 21  1  0
 19 22  1  0
 22 25  1  0
 22 23  1  0
 14 24  2  0
 21 25  1  0
 18 26  1  0
 18 27  1  0
 17 28  1  0
 23 29  1  0
 23 30  1  0
 23 31  1  0
M  END
>  <IDNUMBER>  (689) 
Y500-7656

>  <available>  (689) 
18

>  <H_acceptor>  (689) 
6

>  <H_donor>  (689) 
1

>  <B_rotN>  (689) 
6

>  <N_O>  (689) 
7

>  <logP>  (689) 
4.0715

>  <logD>  (689) 
2.2274

>  <logSw>  (689) 
-4.1515

>  <PSA>  (689) 
69.721

>  <pKa_ma>  (689) 
5.5622

>  <pKa_mb>  (689) 
-0.1968

>  <N_Chirals>  (689) 
1

>  <Name>  (689) 
N-(6-tert-butyl-3-cyano-4,5,6,7-tetrahydro-1-benzothiophen-2-yl)-7-(difluoromethyl)-5-methyl[1,2,4]triazolo[1,5-a]pyrimidine-2-carboxamide

>  <Smile>  (689) 
CC(C)(C)C(CC1)Cc2c1c(C#N)c(NC(c1nn3c(C(F)F)cc(C)nc3n1)=O)s2

>  <Color>  (689) 
ORANGE

>  <Collection>  (689) 
DC

>  <InChI>  (689) 
InChI=1S/C21H22F2N6OS/c1-10-7-14(16(22)23)29-20(25-10)26-17(28-29)18(30)27-19-13(9-24)12-6-5-11(21(2,3)4)8-15(12)31-19/h7,11,16H,5-6,8H2,1-4H3,(H,27,30)/t11-/m1/s1

>  <InChI Key>  (689) 
MVCMRWNDBQCTAZ-LLVKDONJSA-N

>  <PERCENTSP3>  (689) 
47.62

>  <Link>  (689) 
https://www.chemdiv.com/catalog/screening-compounds/compound-Y500-7656/

>  <MFCDNUMBER>  (689) 
MFCD02175594

>  <STEREO>  (689) 
RACEMIC MIXTURE

>  <State>  (689) 
Solid

>  <Similarity score>  (689) 
0.18

$$$$
N-(3-cyano-5,6-dihydro-4H-cyclopenta[b]thiophen-2-yl)-2-(2,4-dichlorophenoxy)pro
     RDKit          2D

 24 26  0  0  0  0  0  0  0  0999 V2000
   -0.9259    1.4450    0.0000 C   0  0  0  0  0  0  0  0  0  0  0  0
   -0.9259    2.3438    0.0000 C   0  0  0  0  0  0  0  0  0  0  0  0
   -1.7084    0.9956    0.0000 S   0  0  0  0  0  0  0  0  0  0  0  0
   -2.5065    2.3438    0.0000 C   0  0  0  0  0  0  0  0  0  0  0  0
   -0.0814    0.9569    0.0000 N   0  0  0  0  0  0  0  0  0  0  0  0
   -2.5065    1.4528    0.0000 C   0  0  0  0  0  0  0  0  0  0  0  0
   -0.0814   -0.0040    0.0000 C   0  0  0  0  0  0  0  0  0  0  0  0
   -0.0116    2.8629    0.0000 C   0  0  0  0  0  0  0  0  0  0  0  0
    0.8949    3.3743    0.0000 N   0  0  0  0  0  0  0  0  0  0  0  0
    0.7477   -1.4528    0.0000 O   0  0  0  0  0  0  0  0  0  0  0  0
    1.5767   -1.9254    0.0000 C   0  0  0  0  0  0  0  0  0  0  0  0
    2.4213   -1.4605    0.0000 C   0  0  0  0  0  0  0  0  0  0  0  0
    0.7553   -0.4996    0.0000 C   0  0  0  0  0  0  0  0  0  0  0  0
    3.2501   -1.9254    0.0000 C   0  0  0  0  0  0  0  0  0  0  0  0
   -0.9104   -0.4920    0.0000 O   0  0  0  0  0  0  0  0  0  0  0  0
    1.5845   -2.8861    0.0000 C   0  0  0  0  0  0  0  0  0  0  0  0
    3.2501   -2.8939    0.0000 C   0  0  0  0  0  0  0  0  0  0  0  0
    2.4443   -0.4996    0.0000 Cl  0  0  0  0  0  0  0  0  0  0  0  0
   -3.2967    2.8009    0.0000 C   0  0  0  0  0  0  0  0  0  0  0  0
   -4.0871    1.4528    0.0000 C   0  0  0  0  0  0  0  0  0  0  0  0
    2.4135   -3.3588    0.0000 C   0  0  0  0  0  0  0  0  0  0  0  0
    4.0871   -3.3743    0.0000 Cl  0  0  0  0  0  0  0  0  0  0  0  0
   -4.0871    2.3515    0.0000 C   0  0  0  0  0  0  0  0  0  0  0  0
    1.5845   -0.0271    0.0000 C   0  0  0  0  0  0  0  0  0  0  0  0
  1  2  2  0
  1  3  1  0
  2  4  1  0
  4  6  2  0
  1  5  1  0
  3  6  1  0
  5  7  1  0
  2  8  1  0
  8  9  3  0
 10 11  1  0
 11 12  2  0
 10 13  1  0
  7 13  1  0
 12 14  1  0
 14 17  2  0
  7 15  2  0
 11 16  1  0
 17 21  1  0
 12 18  1  0
  4 19  1  0
 19 23  1  0
  6 20  1  0
 16 21  2  0
 17 22  1  0
 20 23  1  0
 13 24  1  0
M  END
>  <IDNUMBER>  (690) 
8012-3703

>  <available>  (690) 
16

>  <H_acceptor>  (690) 
4

>  <H_donor>  (690) 
1

>  <B_rotN>  (690) 
6

>  <N_O>  (690) 
4

>  <logP>  (690) 
4.9424

>  <logD>  (690) 
3.5046

>  <logSw>  (690) 
-5.0599

>  <PSA>  (690) 
47.342

>  <pKa_ma>  (690) 
5.9783

>  <pKa_mb>  (690) 
-6.0563

>  <N_Chirals>  (690) 
1

>  <Name>  (690) 
N-(3-cyano-5,6-dihydro-4H-cyclopenta[b]thiophen-2-yl)-2-(2,4-dichlorophenoxy)propanamide

>  <Smile>  (690) 
CC(C(Nc(sc1c2CCC1)c2C#N)=O)Oc(ccc(Cl)c1)c1Cl

>  <Color>  (690) 
ORANGE

>  <Collection>  (690) 
DC

>  <InChI>  (690) 
InChI=1S/C17H14Cl2N2O2S/c1-9(23-14-6-5-10(18)7-13(14)19)16(22)21-17-12(8-20)11-3-2-4-15(11)24-17/h5-7,9H,2-4H2,1H3,(H,21,22)/t9-/m0/s1

>  <InChI Key>  (690) 
FLHOMHATGIKCCI-VIFPVBQESA-N

>  <PERCENTSP3>  (690) 
29.41

>  <Link>  (690) 
https://www.chemdiv.com/catalog/screening-compounds/compound-8012-3703/

>  <MFCDNUMBER>  (690) 
MFCD02928197

>  <STEREO>  (690) 
RACEMIC MIXTURE

>  <State>  (690) 
Solid

>  <Similarity score>  (690) 
0.18

$$$$
N-(6-tert-butyl-3-cyano-4,5,6,7-tetrahydro-1-benzothiophen-2-yl)-5-(4-methoxyphe
     RDKit          2D

 39 43  0  0  0  0  0  0  0  0999 V2000
    0.8591    0.4395    0.0000 N   0  0  0  0  0  0  0  0  0  0  0  0
    1.3176    1.2471    0.0000 C   0  0  0  0  0  0  0  0  0  0  0  0
    1.2757   -0.3765    0.0000 C   0  0  0  0  0  0  0  0  0  0  0  0
   -2.9938    0.4250    0.0000 C   0  0  0  0  0  0  0  0  0  0  0  0
   -0.1735    0.4395    0.0000 N   0  0  0  0  0  0  0  0  0  0  0  0
   -3.4419    1.1820    0.0000 C   0  0  0  0  0  0  0  0  0  0  0  0
   -0.6046   -0.3617    0.0000 C   0  0  0  0  0  0  0  0  0  0  0  0
   -0.0746   -1.1505    0.0000 C   0  0  0  0  0  0  0  0  0  0  0  0
    2.2978   -0.3765    0.0000 N   0  0  0  0  0  0  0  0  0  0  0  0
    2.3273    1.2471    0.0000 C   0  0  0  0  0  0  0  0  0  0  0  0
   -4.3819   -0.4016    0.0000 C   0  0  0  0  0  0  0  0  0  0  0  0
   -4.8174    0.3996    0.0000 C   0  0  0  0  0  0  0  0  0  0  0  0
   -3.4732   -0.4016    0.0000 S   0  0  0  0  0  0  0  0  0  0  0  0
    0.8697    2.0905    0.0000 C   0  0  0  0  0  0  0  0  0  0  0  0
    2.7879    0.4649    0.0000 C   0  0  0  0  0  0  0  0  0  0  0  0
   -2.0749    0.4250    0.0000 N   0  0  0  0  0  0  0  0  0  0  0  0
   -1.6016   -0.3617    0.0000 C   0  0  0  0  0  0  0  0  0  0  0  0
   -2.9432    2.0402    0.0000 C   0  0  0  0  0  0  0  0  0  0  0  0
   -4.8741   -1.3020    0.0000 C   0  0  0  0  0  0  0  0  0  0  0  0
   -2.4386    2.8897    0.0000 N   0  0  0  0  0  0  0  0  0  0  0  0
   -5.8773    0.3996    0.0000 C   0  0  0  0  0  0  0  0  0  0  0  0
   -5.8941   -1.2850    0.0000 C   0  0  0  0  0  0  0  0  0  0  0  0
    3.8227    0.4649    0.0000 C   0  0  0  0  0  0  0  0  0  0  0  0
   -6.4241   -2.1179    0.0000 C   0  0  0  0  0  0  0  0  0  0  0  0
   -2.1569   -1.2430    0.0000 O   0  0  0  0  0  0  0  0  0  0  0  0
   -6.3989   -0.4586    0.0000 C   0  0  0  0  0  0  0  0  0  0  0  0
    1.7109    2.5953    0.0000 F   0  0  0  0  0  0  0  0  0  0  0  0
    0.0200    1.6174    0.0000 F   0  0  0  0  0  0  0  0  0  0  0  0
    0.3985    2.9319    0.0000 F   0  0  0  0  0  0  0  0  0  0  0  0
    4.3672    1.3040    0.0000 C   0  0  0  0  0  0  0  0  0  0  0  0
    4.3105   -0.3617    0.0000 C   0  0  0  0  0  0  0  0  0  0  0  0
    5.8186    0.4817    0.0000 C   0  0  0  0  0  0  0  0  0  0  0  0
    5.3011   -0.3617    0.0000 C   0  0  0  0  0  0  0  0  0  0  0  0
    5.3390    1.3040    0.0000 C   0  0  0  0  0  0  0  0  0  0  0  0
    6.8659    0.4817    0.0000 O   0  0  0  0  0  0  0  0  0  0  0  0
   -6.9437   -2.9319    0.0000 C   0  0  0  0  0  0  0  0  0  0  0  0
   -5.5934   -2.6479    0.0000 C   0  0  0  0  0  0  0  0  0  0  0  0
   -7.2571   -1.5879    0.0000 C   0  0  0  0  0  0  0  0  0  0  0  0
    7.2571    1.2641    0.0000 C   0  0  0  0  0  0  0  0  0  0  0  0
  1  2  1  0
  1  3  1  0
  4 16  1  0
  1  5  1  0
  4  6  2  0
  5  7  2  0
  7  8  1  0
  3  8  2  0
  3  9  1  0
  2 10  2  0
 10 15  1  0
 11 13  1  0
 11 12  2  0
  6 12  1  0
  4 13  1  0
  2 14  1  0
  9 15  2  0
 16 17  1  0
  7 17  1  0
  6 18  1  0
 11 19  1  0
 18 20  3  0
 12 21  1  0
 19 22  1  0
 15 23  1  0
 22 24  1  0
 17 25  2  0
 21 26  1  0
 22 26  1  0
 14 27  1  0
 14 28  1  0
 14 29  1  0
 23 30  2  0
 23 31  1  0
 32 33  1  0
 31 33  2  0
 30 34  1  0
 32 34  2  0
 32 35  1  0
 24 36  1  0
 24 37  1  0
 24 38  1  0
 35 39  1  0
M  END
>  <IDNUMBER>  (691) 
2774-1302

>  <available>  (691) 
3

>  <H_acceptor>  (691) 
6

>  <H_donor>  (691) 
1

>  <B_rotN>  (691) 
8

>  <N_O>  (691) 
7

>  <logP>  (691) 
7.205

>  <logD>  (691) 
5.579

>  <logSw>  (691) 
-5.705

>  <PSA>  (691) 
65.8

>  <pKa_ma>  (691) 
5.784

>  <pKa_mb>  (691) 
1.312

>  <N_Chirals>  (691) 
1

>  <Name>  (691) 
N-(6-tert-butyl-3-cyano-4,5,6,7-tetrahydro-1-benzothiophen-2-yl)-5-(4-methoxyphenyl)-7-(trifluoromethyl)pyrazolo[1,5-a]pyrimidine-2-carboxamide

>  <Smile>  (691) 
CC(C)(C)C(CC1)Cc2c1c(C#N)c(NC(c1nn3c(C(F)(F)F)cc(-c(cc4)ccc4OC)nc3c1)=O)s2

>  <Color>  (691) 
YELLOW

>  <Collection>  (691) 
DC

>  <InChI>  (691) 
InChI=1S/C28H26F3N5O2S/c1-27(2,3)16-7-10-18-19(14-32)26(39-22(18)11-16)34-25(37)21-13-24-33-20(15-5-8-17(38-4)9-6-15)12-23(28(29,30)31)36(24)35-21/h5-6,8-9,12-13,16H,7,10-11H2,1-4H3,(H,34,37)/t16-/m1/
s1

>  <InChI Key>  (691) 
YRTVZWNVFLBIEQ-MRXNPFEDSA-N

>  <PERCENTSP3>  (691) 
35.714

>  <Link>  (691) 
https://www.chemdiv.com/catalog/screening-compounds/compound-2774-1302/

>  <MFCDNUMBER>  (691) 
MFCD01451926

>  <CLNUMBER>  (691) 
CL1652

>  <STEREO>  (691) 
RACEMIC MIXTURE

>  <State>  (691) 
Solid

>  <Similarity score>  (691) 
0.18

$$$$
N-(3-cyano-4,5,6,7-tetrahydro-1-benzothiophen-2-yl)-2-[(4,6-diphenylpyrimidin-2-
     RDKit          2D

 34 38  0  0  0  0  0  0  0  0999 V2000
   -2.6647   -0.5783    0.0000 C   0  0  0  0  0  0  0  0  0  0  0  0
   -3.4899   -0.0298    0.0000 C   0  0  0  0  0  0  0  0  0  0  0  0
   -2.9252   -1.5500    0.0000 S   0  0  0  0  0  0  0  0  0  0  0  0
   -4.2609   -0.6541    0.0000 C   0  0  0  0  0  0  0  0  0  0  0  0
   -3.9135   -1.5934    0.0000 C   0  0  0  0  0  0  0  0  0  0  0  0
    1.6893   -0.8333    0.0000 C   0  0  0  0  0  0  0  0  0  0  0  0
   -1.7147   -0.2452    0.0000 N   0  0  0  0  0  0  0  0  0  0  0  0
    1.8412    0.1348    0.0000 N   0  0  0  0  0  0  0  0  0  0  0  0
    2.4547   -1.4973    0.0000 N   0  0  0  0  0  0  0  0  0  0  0  0
    2.8348    0.4588    0.0000 C   0  0  0  0  0  0  0  0  0  0  0  0
    3.3995   -1.1536    0.0000 C   0  0  0  0  0  0  0  0  0  0  0  0
   -3.5171    0.9636    0.0000 C   0  0  0  0  0  0  0  0  0  0  0  0
    3.5839   -0.1493    0.0000 C   0  0  0  0  0  0  0  0  0  0  0  0
   -3.5495    1.9570    0.0000 N   0  0  0  0  0  0  0  0  0  0  0  0
   -0.9546   -0.8894    0.0000 C   0  0  0  0  0  0  0  0  0  0  0  0
    0.7392   -1.1808    0.0000 S   0  0  0  0  0  0  0  0  0  0  0  0
    3.0031    1.4413    0.0000 C   0  0  0  0  0  0  0  0  0  0  0  0
    4.1756   -1.7617    0.0000 C   0  0  0  0  0  0  0  0  0  0  0  0
   -1.1228   -1.8539    0.0000 O   0  0  0  0  0  0  0  0  0  0  0  0
   -0.0245   -0.5457    0.0000 C   0  0  0  0  0  0  0  0  0  0  0  0
   -5.2668   -0.4696    0.0000 C   0  0  0  0  0  0  0  0  0  0  0  0
   -4.5810   -2.3425    0.0000 C   0  0  0  0  0  0  0  0  0  0  0  0
    3.9477    1.7887    0.0000 C   0  0  0  0  0  0  0  0  0  0  0  0
    3.9965   -2.7715    0.0000 C   0  0  0  0  0  0  0  0  0  0  0  0
    5.1258   -1.4251    0.0000 C   0  0  0  0  0  0  0  0  0  0  0  0
    2.2376    2.0929    0.0000 C   0  0  0  0  0  0  0  0  0  0  0  0
   -5.8913   -1.2458    0.0000 C   0  0  0  0  0  0  0  0  0  0  0  0
   -5.5583   -2.1743    0.0000 C   0  0  0  0  0  0  0  0  0  0  0  0
    4.7729   -3.3958    0.0000 C   0  0  0  0  0  0  0  0  0  0  0  0
    5.8913   -2.0548    0.0000 C   0  0  0  0  0  0  0  0  0  0  0  0
    4.1486    2.7660    0.0000 C   0  0  0  0  0  0  0  0  0  0  0  0
    2.4059    3.0754    0.0000 C   0  0  0  0  0  0  0  0  0  0  0  0
    3.3558    3.3958    0.0000 C   0  0  0  0  0  0  0  0  0  0  0  0
    5.7230   -3.0158    0.0000 C   0  0  0  0  0  0  0  0  0  0  0  0
  1  2  2  0
  1  3  1  0
  2  4  1  0
  4  5  2  0
  3  5  1  0
  6 16  1  0
  1  7  1  0
  6  8  1  0
  6  9  2  0
  8 10  2  0
 10 13  1  0
  9 11  1  0
  2 12  1  0
 11 13  2  0
 12 14  3  0
  7 15  1  0
 16 20  1  0
 10 17  1  0
 11 18  1  0
 15 19  2  0
 15 20  1  0
  4 21  1  0
  5 22  1  0
 17 23  2  0
 18 24  2  0
 18 25  1  0
 17 26  1  0
 21 27  1  0
 27 28  1  0
 22 28  1  0
 24 29  1  0
 29 34  2  0
 25 30  2  0
 23 31  1  0
 31 33  2  0
 26 32  2  0
 32 33  1  0
 30 34  1  0
M  END
>  <IDNUMBER>  (692) 
8009-2567

>  <available>  (692) 
37

>  <H_acceptor>  (692) 
6

>  <H_donor>  (692) 
1

>  <B_rotN>  (692) 
8

>  <N_O>  (692) 
5

>  <logP>  (692) 
6.8474

>  <logD>  (692) 
5.8147

>  <logSw>  (692) 
-6.0391

>  <PSA>  (692) 
56.638

>  <pKa_ma>  (692) 
6.4095

>  <pKa_mb>  (692) 
0.1164

>  <N_Chirals>  (692) 
0

>  <Name>  (692) 
N-(3-cyano-4,5,6,7-tetrahydro-1-benzothiophen-2-yl)-2-[(4,6-diphenylpyrimidin-2-yl)sulfanyl]acetamide

>  <Smile>  (692) 
N#Cc1c(NC(CSc2nc(-c3ccccc3)cc(-c3ccccc3)n2)=O)sc2c1CCCC2

>  <Color>  (692) 
NOT COLORED

>  <Collection>  (692) 
DC

>  <InChI>  (692) 
InChI=1S/C27H22N4OS2/c28-16-21-20-13-7-8-14-24(20)34-26(21)31-25(32)17-33-27-29-22(18-9-3-1-4-10-18)15-23(30-27)19-11-5-2-6-12-19/h1-6,9-12,15H,7-8,13-14,17H2,(H,31,32)

>  <InChI Key>  (692) 
DJZBLGXOCROOSG-UHFFFAOYSA-N

>  <PERCENTSP3>  (692) 
18.5

>  <Link>  (692) 
https://www.chemdiv.com/catalog/screening-compounds/compound-8009-2567/

>  <MFCDNUMBER>  (692) 
MFCD01572635

>  <CLNUMBER>  (692) 
CL1325

>  <STEREO>  (692) 
ACHIRAL

>  <State>  (692) 
Solid

>  <Similarity score>  (692) 
0.18

$$$$
N-(6-tert-butyl-3-cyano-4,5,6,7-tetrahydro-1-benzothiophen-2-yl)-5-(2-methoxyphe
     RDKit          2D

 31 34  0  0  0  0  0  0  0  0999 V2000
   -0.7786   -0.8764    0.0000 C   0  0  0  0  0  0  0  0  0  0  0  0
   -1.5851   -1.4353    0.0000 C   0  0  0  0  0  0  0  0  0  0  0  0
   -0.3004   -2.4186    0.0000 C   0  0  0  0  0  0  0  0  0  0  0  0
   -1.3079   -2.3966    0.0000 C   0  0  0  0  0  0  0  0  0  0  0  0
    0.0696    1.9921    0.0000 C   0  0  0  0  0  0  0  0  0  0  0  0
    0.0232   -1.4795    0.0000 S   0  0  0  0  0  0  0  0  0  0  0  0
    0.5821    3.4852    0.0000 C   0  0  0  0  0  0  0  0  0  0  0  0
    0.8714    2.5510    0.0000 C   0  0  0  0  0  0  0  0  0  0  0  0
   -0.7026    2.5828    0.0000 N   0  0  0  0  0  0  0  0  0  0  0  0
   -0.7786    0.1363    0.0000 N   0  0  0  0  0  0  0  0  0  0  0  0
    0.0845    0.6363    0.0000 C   0  0  0  0  0  0  0  0  0  0  0  0
   -0.4011    3.4999    0.0000 O   0  0  0  0  0  0  0  0  0  0  0  0
    1.1683    4.2623    0.0000 C   0  0  0  0  0  0  0  0  0  0  0  0
   -2.5289   -1.1044    0.0000 C   0  0  0  0  0  0  0  0  0  0  0  0
    0.1753   -3.2962    0.0000 C   0  0  0  0  0  0  0  0  0  0  0  0
   -3.4802   -0.7711    0.0000 N   0  0  0  0  0  0  0  0  0  0  0  0
   -1.8228   -3.2447    0.0000 C   0  0  0  0  0  0  0  0  0  0  0  0
   -0.3543   -4.1518    0.0000 C   0  0  0  0  0  0  0  0  0  0  0  0
    0.1238   -5.0443    0.0000 C   0  0  0  0  0  0  0  0  0  0  0  0
    0.9256    0.1363    0.0000 O   0  0  0  0  0  0  0  0  0  0  0  0
    2.1342    4.1397    0.0000 C   0  0  0  0  0  0  0  0  0  0  0  0
   -1.3425   -4.1222    0.0000 C   0  0  0  0  0  0  0  0  0  0  0  0
    2.5165    3.2473    0.0000 O   0  0  0  0  0  0  0  0  0  0  0  0
    0.7904    5.1548    0.0000 C   0  0  0  0  0  0  0  0  0  0  0  0
   -0.7786   -5.5152    0.0000 C   0  0  0  0  0  0  0  0  0  0  0  0
    1.0162   -4.5811    0.0000 C   0  0  0  0  0  0  0  0  0  0  0  0
    0.5821   -5.9417    0.0000 C   0  0  0  0  0  0  0  0  0  0  0  0
    2.7129    4.9218    0.0000 C   0  0  0  0  0  0  0  0  0  0  0  0
    3.4802    3.1270    0.0000 C   0  0  0  0  0  0  0  0  0  0  0  0
    1.3670    5.9417    0.0000 C   0  0  0  0  0  0  0  0  0  0  0  0
    2.3351    5.8190    0.0000 C   0  0  0  0  0  0  0  0  0  0  0  0
  1  2  2  0
  3  6  1  0
  3  4  2  0
  2  4  1  0
  5 11  1  0
  1  6  1  0
  7  8  2  0
  7 12  1  0
  5  8  1  0
  5  9  2  0
  1 10  1  0
 10 11  1  0
  9 12  1  0
  7 13  1  0
  2 14  1  0
  3 15  1  0
 14 16  3  0
  4 17  1  0
 15 18  1  0
 18 19  1  0
 11 20  2  0
 13 21  2  0
 17 22  1  0
 18 22  1  0
 21 23  1  0
 13 24  1  0
 19 25  1  0
 19 26  1  0
 19 27  1  0
 21 28  1  0
 28 31  2  0
 23 29  1  0
 24 30  2  0
 30 31  1  0
M  END
>  <IDNUMBER>  (693) 
C226-1011

>  <available>  (693) 
187

>  <H_acceptor>  (693) 
6

>  <H_donor>  (693) 
1

>  <B_rotN>  (693) 
7

>  <N_O>  (693) 
6

>  <logP>  (693) 
5.7388

>  <logD>  (693) 
4.4478

>  <logSw>  (693) 
-5.5222

>  <PSA>  (693) 
69.267

>  <pKa_ma>  (693) 
6.1318

>  <pKa_mb>  (693) 
-5.6504

>  <N_Chirals>  (693) 
1

>  <Name>  (693) 
N-(6-tert-butyl-3-cyano-4,5,6,7-tetrahydro-1-benzothiophen-2-yl)-5-(2-methoxyphenyl)-1,2-oxazole-3-carboxamide

>  <Smile>  (693) 
CC(C)(C)C(CC1)Cc2c1c(C#N)c(NC(c1noc(-c(cccc3)c3OC)c1)=O)s2

>  <Color>  (693) 
NOT COLORED

>  <Collection>  (693) 
DC

>  <InChI>  (693) 
InChI=1S/C24H25N3O3S/c1-24(2,3)14-9-10-15-17(13-25)23(31-21(15)11-14)26-22(28)18-12-20(30-27-18)16-7-5-6-8-19(16)29-4/h5-8,12,14H,9-11H2,1-4H3,(H,26,28)/t14-/m1/s1

>  <InChI Key>  (693) 
UBSUMNIDYLNHGT-CQSZACIVSA-N

>  <PERCENTSP3>  (693) 
37.5

>  <Link>  (693) 
https://www.chemdiv.com/catalog/screening-compounds/compound-C226-1011/

>  <MFCDNUMBER>  (693) 
MFCD09782140

>  <CLNUMBER>  (693) 
CL2028

>  <STEREO>  (693) 
RACEMIC MIXTURE

>  <State>  (693) 
Solid

>  <Similarity score>  (693) 
0.18

$$$$
N-(6-tert-butyl-3-cyano-4,5,6,7-tetrahydro-1-benzothiophen-2-yl)-5-(4-fluorophen
     RDKit          2D

 30 33  0  0  0  0  0  0  0  0999 V2000
   -0.4250   -1.3303    0.0000 C   0  0  0  0  0  0  0  0  0  0  0  0
   -1.2321   -1.8895    0.0000 C   0  0  0  0  0  0  0  0  0  0  0  0
    0.0538   -2.8714    0.0000 C   0  0  0  0  0  0  0  0  0  0  0  0
   -0.9549   -2.8528    0.0000 C   0  0  0  0  0  0  0  0  0  0  0  0
    0.4492    1.8519    0.0000 C   0  0  0  0  0  0  0  0  0  0  0  0
    0.3766   -1.9355    0.0000 S   0  0  0  0  0  0  0  0  0  0  0  0
   -0.3202    2.4033    0.0000 N   0  0  0  0  0  0  0  0  0  0  0  0
   -0.4250   -0.3160    0.0000 N   0  0  0  0  0  0  0  0  0  0  0  0
    1.2211    2.4033    0.0000 C   0  0  0  0  0  0  0  0  0  0  0  0
    0.4382    0.1814    0.0000 C   0  0  0  0  0  0  0  0  0  0  0  0
    0.9225    3.3098    0.0000 C   0  0  0  0  0  0  0  0  0  0  0  0
   -0.0322    3.2962    0.0000 O   0  0  0  0  0  0  0  0  0  0  0  0
   -2.1761   -1.5561    0.0000 C   0  0  0  0  0  0  0  0  0  0  0  0
    0.5300   -3.7510    0.0000 C   0  0  0  0  0  0  0  0  0  0  0  0
   -3.1310   -1.2253    0.0000 N   0  0  0  0  0  0  0  0  0  0  0  0
   -1.4687   -3.7000    0.0000 C   0  0  0  0  0  0  0  0  0  0  0  0
    0.0000   -4.6089    0.0000 C   0  0  0  0  0  0  0  0  0  0  0  0
    1.4661    4.0844    0.0000 C   0  0  0  0  0  0  0  0  0  0  0  0
    0.4786   -5.5021    0.0000 C   0  0  0  0  0  0  0  0  0  0  0  0
    1.2669   -0.2972    0.0000 O   0  0  0  0  0  0  0  0  0  0  0  0
   -0.9901   -4.5797    0.0000 C   0  0  0  0  0  0  0  0  0  0  0  0
    1.0839    4.9453    0.0000 C   0  0  0  0  0  0  0  0  0  0  0  0
    2.4181    3.9932    0.0000 C   0  0  0  0  0  0  0  0  0  0  0  0
    2.5795    5.6257    0.0000 C   0  0  0  0  0  0  0  0  0  0  0  0
    2.9642    4.7597    0.0000 C   0  0  0  0  0  0  0  0  0  0  0  0
    1.6301    5.7171    0.0000 C   0  0  0  0  0  0  0  0  0  0  0  0
    3.1310    6.4004    0.0000 F   0  0  0  0  0  0  0  0  0  0  0  0
   -0.4250   -5.9701    0.0000 C   0  0  0  0  0  0  0  0  0  0  0  0
    1.3693   -5.0367    0.0000 C   0  0  0  0  0  0  0  0  0  0  0  0
    0.9387   -6.4004    0.0000 C   0  0  0  0  0  0  0  0  0  0  0  0
  1  2  2  0
  3  6  1  0
  3  4  2  0
  2  4  1  0
  5 10  1  0
  1  6  1  0
  5  7  2  0
  1  8  1  0
  5  9  1  0
  8 10  1  0
  9 11  2  0
 11 12  1  0
  7 12  1  0
  2 13  1  0
  3 14  1  0
 13 15  3  0
  4 16  1  0
 14 17  1  0
 11 18  1  0
 17 19  1  0
 10 20  2  0
 16 21  1  0
 17 21  1  0
 18 22  1  0
 18 23  2  0
 24 25  2  0
 23 25  1  0
 22 26  2  0
 24 26  1  0
 24 27  1  0
 19 28  1  0
 19 29  1  0
 19 30  1  0
M  END
>  <IDNUMBER>  (694) 
C226-0327

>  <available>  (694) 
129

>  <H_acceptor>  (694) 
5

>  <H_donor>  (694) 
1

>  <B_rotN>  (694) 
6

>  <N_O>  (694) 
5

>  <logP>  (694) 
6.0744

>  <logD>  (694) 
4.7834

>  <logSw>  (694) 
-5.5146

>  <PSA>  (694) 
61.636

>  <pKa_ma>  (694) 
6.1318

>  <pKa_mb>  (694) 
-6.8683

>  <N_Chirals>  (694) 
1

>  <Name>  (694) 
N-(6-tert-butyl-3-cyano-4,5,6,7-tetrahydro-1-benzothiophen-2-yl)-5-(4-fluorophenyl)-1,2-oxazole-3-carboxamide

>  <Smile>  (694) 
CC(C)(C)C(CC1)Cc2c1c(C#N)c(NC(c1noc(-c(cc3)ccc3F)c1)=O)s2

>  <Color>  (694) 
NOT COLORED

>  <Collection>  (694) 
DC

>  <InChI>  (694) 
InChI=1S/C23H22FN3O2S/c1-23(2,3)14-6-9-16-17(12-25)22(30-20(16)10-14)26-21(28)18-11-19(29-27-18)13-4-7-15(24)8-5-13/h4-5,7-8,11,14H,6,9-10H2,1-3H3,(H,26,28)/t14-/m1/s1

>  <InChI Key>  (694) 
SSARRILCVBOTDN-CQSZACIVSA-N

>  <PERCENTSP3>  (694) 
34.8

>  <Link>  (694) 
https://www.chemdiv.com/catalog/screening-compounds/compound-C226-0327/

>  <MFCDNUMBER>  (694) 
MFCD09781670

>  <CLNUMBER>  (694) 
CL2028

>  <STEREO>  (694) 
RACEMIC MIXTURE

>  <CAS>  (694) 
912790-46-6

>  <State>  (694) 
Solid

>  <Similarity score>  (694) 
0.18

$$$$
N-(3-cyano-5,6-dihydro-4H-cyclopenta[b]thiophen-2-yl)-2-[(5-methyl-1H-benzimidaz
     RDKit          2D

 25 28  0  0  0  0  0  0  0  0999 V2000
    2.8645   -0.8416    0.0000 C   0  0  0  0  0  0  0  0  0  0  0  0
    3.1312    0.1084    0.0000 C   0  0  0  0  0  0  0  0  0  0  0  0
    3.6813   -1.3959    0.0000 S   0  0  0  0  0  0  0  0  0  0  0  0
    4.1437    0.1291    0.0000 C   0  0  0  0  0  0  0  0  0  0  0  0
   -1.4686   -0.1291    0.0000 C   0  0  0  0  0  0  0  0  0  0  0  0
   -2.2312    0.4916    0.0000 N   0  0  0  0  0  0  0  0  0  0  0  0
    4.4894   -0.7835    0.0000 C   0  0  0  0  0  0  0  0  0  0  0  0
   -1.8229   -1.0665    0.0000 N   0  0  0  0  0  0  0  0  0  0  0  0
    1.8771   -1.0665    0.0000 N   0  0  0  0  0  0  0  0  0  0  0  0
   -3.0813   -0.0208    0.0000 C   0  0  0  0  0  0  0  0  0  0  0  0
    2.5188    0.9166    0.0000 C   0  0  0  0  0  0  0  0  0  0  0  0
   -2.8311   -0.9832    0.0000 C   0  0  0  0  0  0  0  0  0  0  0  0
    1.8771    1.7084    0.0000 N   0  0  0  0  0  0  0  0  0  0  0  0
    1.1771   -0.3665    0.0000 C   0  0  0  0  0  0  0  0  0  0  0  0
   -0.4938    0.1084    0.0000 S   0  0  0  0  0  0  0  0  0  0  0  0
   -4.0313    0.2542    0.0000 C   0  0  0  0  0  0  0  0  0  0  0  0
    1.4521    0.6165    0.0000 O   0  0  0  0  0  0  0  0  0  0  0  0
   -3.5313   -1.7084    0.0000 C   0  0  0  0  0  0  0  0  0  0  0  0
    0.1938   -0.5916    0.0000 C   0  0  0  0  0  0  0  0  0  0  0  0
   -4.7561   -0.4458    0.0000 C   0  0  0  0  0  0  0  0  0  0  0  0
    4.9393    0.7293    0.0000 C   0  0  0  0  0  0  0  0  0  0  0  0
    5.4938   -0.7707    0.0000 C   0  0  0  0  0  0  0  0  0  0  0  0
   -4.5061   -1.4083    0.0000 C   0  0  0  0  0  0  0  0  0  0  0  0
    5.7436    0.1542    0.0000 C   0  0  0  0  0  0  0  0  0  0  0  0
   -5.7436   -0.1791    0.0000 C   0  0  0  0  0  0  0  0  0  0  0  0
  1  2  2  0
  1  3  1  0
  2  4  1  0
  4  7  2  0
  5 15  1  0
  5  6  2  0
  3  7  1  0
  5  8  1  0
  1  9  1  0
  6 10  1  0
  2 11  1  0
  8 12  1  0
 10 12  2  0
 11 13  3  0
  9 14  1  0
 15 19  1  0
 10 16  1  0
 14 17  2  0
 12 18  1  0
 14 19  1  0
 16 20  2  0
  4 21  1  0
  7 22  1  0
 18 23  2  0
 20 23  1  0
 22 24  1  0
 21 24  1  0
 20 25  1  0
M  END
>  <IDNUMBER>  (695) 
Y505-4869

>  <available>  (695) 
31

>  <H_acceptor>  (695) 
5

>  <H_donor>  (695) 
2

>  <B_rotN>  (695) 
6

>  <N_O>  (695) 
5

>  <logP>  (695) 
3.5324

>  <logD>  (695) 
2.4809

>  <logSw>  (695) 
-4.0847

>  <PSA>  (695) 
58.266

>  <pKa_ma>  (695) 
6.3889

>  <pKa_mb>  (695) 
3.7876

>  <N_Chirals>  (695) 
0

>  <Name>  (695) 
N-(3-cyano-5,6-dihydro-4H-cyclopenta[b]thiophen-2-yl)-2-[(5-methyl-1H-benzimidazol-2-yl)sulfanyl]acetamide

>  <Smile>  (695) 
c1(c(c2c(s1)CCC2)C#N)NC(=O)CSc1nc2c([nH]1)ccc(c2)C

>  <Color>  (695) 
NOT COLORED

>  <Collection>  (695) 
DC

>  <InChI>  (695) 
InChI=1S/C18H16N4OS2/c1-10-5-6-13-14(7-10)21-18(20-13)24-9-16(23)22-17-12(8-19)11-3-2-4-15(11)25-17/h5-7H,2-4,9H2,1H3,(H,20,21)(H,22,23)

>  <InChI Key>  (695) 
JPZGTLSIVWQMBU-UHFFFAOYSA-N

>  <PERCENTSP3>  (695) 
6

>  <Link>  (695) 
https://www.chemdiv.com/catalog/screening-compounds/compound-Y505-4869/

>  <MFCDNUMBER>  (695) 
MFCD02157518

>  <STEREO>  (695) 
ACHIRAL

>  <State>  (695) 
Solid

>  <Similarity score>  (695) 
0.18

$$$$
N-(3-cyano-4,5,6,7-tetrahydro-1-benzothiophen-2-yl)-3,6-dimethyl[1,2]oxazolo[5,4
     RDKit          2D

 25 28  0  0  0  0  0  0  0  0999 V2000
    0.8980   -0.0104    0.0000 C   0  0  0  0  0  0  0  0  0  0  0  0
    1.1315   -0.9980    0.0000 C   0  0  0  0  0  0  0  0  0  0  0  0
   -2.5358   -0.4605    0.0000 C   0  0  0  0  0  0  0  0  0  0  0  0
   -3.4610   -0.0728    0.0000 C   0  0  0  0  0  0  0  0  0  0  0  0
   -1.7399    0.1480    0.0000 C   0  0  0  0  0  0  0  0  0  0  0  0
    1.7482    0.5106    0.0000 S   0  0  0  0  0  0  0  0  0  0  0  0
    2.1233   -1.0689    0.0000 C   0  0  0  0  0  0  0  0  0  0  0  0
   -0.0229    0.3730    0.0000 N   0  0  0  0  0  0  0  0  0  0  0  0
   -0.8148   -0.2354    0.0000 C   0  0  0  0  0  0  0  0  0  0  0  0
    2.5235   -0.1521    0.0000 C   0  0  0  0  0  0  0  0  0  0  0  0
   -3.5904   -1.6900    0.0000 N   0  0  0  0  0  0  0  0  0  0  0  0
   -4.1112   -0.8355    0.0000 O   0  0  0  0  0  0  0  0  0  0  0  0
   -3.5904    0.9189    0.0000 N   0  0  0  0  0  0  0  0  0  0  0  0
   -2.6192   -1.4565    0.0000 C   0  0  0  0  0  0  0  0  0  0  0  0
    0.5065   -1.7566    0.0000 C   0  0  0  0  0  0  0  0  0  0  0  0
   -0.1146   -2.5193    0.0000 N   0  0  0  0  0  0  0  0  0  0  0  0
   -1.8691    1.1439    0.0000 C   0  0  0  0  0  0  0  0  0  0  0  0
   -2.7943    1.5274    0.0000 C   0  0  0  0  0  0  0  0  0  0  0  0
   -0.6897   -1.2273    0.0000 O   0  0  0  0  0  0  0  0  0  0  0  0
    2.7068   -1.8608    0.0000 C   0  0  0  0  0  0  0  0  0  0  0  0
    3.5195   -0.0145    0.0000 C   0  0  0  0  0  0  0  0  0  0  0  0
   -1.9066   -2.1358    0.0000 C   0  0  0  0  0  0  0  0  0  0  0  0
   -2.9235    2.5193    0.0000 C   0  0  0  0  0  0  0  0  0  0  0  0
    3.7154   -1.7482    0.0000 C   0  0  0  0  0  0  0  0  0  0  0  0
    4.1112   -0.8355    0.0000 C   0  0  0  0  0  0  0  0  0  0  0  0
  1  2  2  0
  3  5  1  0
  3  4  2  0
  4 13  1  0
  5  9  1  0
  1  6  1  0
  2  7  1  0
  7 10  2  0
  1  8  1  0
  8  9  1  0
  6 10  1  0
 11 14  2  0
 11 12  1  0
  4 12  1  0
 13 18  2  0
  3 14  1  0
  2 15  1  0
 15 16  3  0
  5 17  2  0
 17 18  1  0
  9 19  2  0
  7 20  1  0
 10 21  1  0
 14 22  1  0
 18 23  1  0
 20 24  1  0
 24 25  1  0
 21 25  1  0
M  END
>  <IDNUMBER>  (696) 
Y501-3619

>  <available>  (696) 
10

>  <H_acceptor>  (696) 
6

>  <H_donor>  (696) 
1

>  <B_rotN>  (696) 
4

>  <N_O>  (696) 
6

>  <logP>  (696) 
3.28

>  <logD>  (696) 
0.4442

>  <logSw>  (696) 
-3.8539

>  <PSA>  (696) 
70.702

>  <pKa_ma>  (696) 
4.5648

>  <pKa_mb>  (696) 
-0.8466

>  <N_Chirals>  (696) 
0

>  <Name>  (696) 
N-(3-cyano-4,5,6,7-tetrahydro-1-benzothiophen-2-yl)-3,6-dimethyl[1,2]oxazolo[5,4-b]pyridine-4-carboxamide

>  <Smile>  (696) 
Cc1noc2nc(C)cc(C(Nc(sc3c4CCCC3)c4C#N)=O)c12

>  <Color>  (696) 
BROWN

>  <Collection>  (696) 
DC

>  <InChI>  (696) 
InChI=1S/C18H16N4O2S/c1-9-7-12(15-10(2)22-24-17(15)20-9)16(23)21-18-13(8-19)11-5-3-4-6-14(11)25-18/h7H,3-6H2,1-2H3,(H,21,23)

>  <InChI Key>  (696) 
SOSNZNYHDGCPDZ-UHFFFAOYSA-N

>  <PERCENTSP3>  (696) 
33.33

>  <Link>  (696) 
https://www.chemdiv.com/catalog/screening-compounds/compound-Y501-3619/

>  <MFCDNUMBER>  (696) 
MFCD08555592

>  <CLNUMBER>  (696) 
CL7490

>  <STEREO>  (696) 
ACHIRAL

>  <State>  (696) 
Solid

>  <Similarity score>  (696) 
0.18

$$$$
N-(3-cyano-4,5,6,7-tetrahydro-1-benzothiophen-2-yl)-5-(propan-2-yl)-1,2-oxazole-
     RDKit          2D

 22 24  0  0  0  0  0  0  0  0999 V2000
   -0.5790   -1.4913    0.0000 C   0  0  0  0  0  0  0  0  0  0  0  0
    0.0277   -2.2642    0.0000 C   0  0  0  0  0  0  0  0  0  0  0  0
    0.2397    1.6850    0.0000 C   0  0  0  0  0  0  0  0  0  0  0  0
   -1.5043   -1.8257    0.0000 S   0  0  0  0  0  0  0  0  0  0  0  0
   -0.5030   -3.0808    0.0000 C   0  0  0  0  0  0  0  0  0  0  0  0
   -0.4592    2.3218    0.0000 N   0  0  0  0  0  0  0  0  0  0  0  0
   -0.5790   -0.4763    0.0000 N   0  0  0  0  0  0  0  0  0  0  0  0
    1.0126    2.3032    0.0000 C   0  0  0  0  0  0  0  0  0  0  0  0
   -1.4627   -2.8200    0.0000 C   0  0  0  0  0  0  0  0  0  0  0  0
    0.2859    0.0243    0.0000 C   0  0  0  0  0  0  0  0  0  0  0  0
    0.7336    3.1729    0.0000 C   0  0  0  0  0  0  0  0  0  0  0  0
   -0.1755    3.1822    0.0000 O   0  0  0  0  0  0  0  0  0  0  0  0
    1.0426   -2.2018    0.0000 C   0  0  0  0  0  0  0  0  0  0  0  0
    2.0506   -2.1718    0.0000 N   0  0  0  0  0  0  0  0  0  0  0  0
    1.0588   -0.4602    0.0000 O   0  0  0  0  0  0  0  0  0  0  0  0
    1.2847    3.9134    0.0000 C   0  0  0  0  0  0  0  0  0  0  0  0
   -0.2469   -4.0518    0.0000 C   0  0  0  0  0  0  0  0  0  0  0  0
   -2.1868   -3.5212    0.0000 C   0  0  0  0  0  0  0  0  0  0  0  0
    0.9225    4.7646    0.0000 C   0  0  0  0  0  0  0  0  0  0  0  0
    2.1868    3.8234    0.0000 C   0  0  0  0  0  0  0  0  0  0  0  0
   -0.9575   -4.7646    0.0000 C   0  0  0  0  0  0  0  0  0  0  0  0
   -1.9285   -4.5016    0.0000 C   0  0  0  0  0  0  0  0  0  0  0  0
  1  2  2  0
  3 10  1  0
  1  4  1  0
  2  5  1  0
  3  6  2  0
  1  7  1  0
  3  8  1  0
  4  9  1  0
  5  9  2  0
  7 10  1  0
  8 11  2  0
 11 12  1  0
  6 12  1  0
  2 13  1  0
 13 14  3  0
 10 15  2  0
 11 16  1  0
  5 17  1  0
  9 18  1  0
 16 19  1  0
 16 20  1  0
 17 21  1  0
 21 22  1  0
 18 22  1  0
M  END
>  <IDNUMBER>  (697) 
C226-2941

>  <available>  (697) 
48

>  <H_acceptor>  (697) 
5

>  <H_donor>  (697) 
1

>  <B_rotN>  (697) 
5

>  <N_O>  (697) 
5

>  <logP>  (697) 
3.9048

>  <logD>  (697) 
2.2344

>  <logSw>  (697) 
-4.1434

>  <PSA>  (697) 
61.908

>  <pKa_ma>  (697) 
5.739

>  <pKa_mb>  (697) 
-5.3583

>  <N_Chirals>  (697) 
0

>  <Name>  (697) 
N-(3-cyano-4,5,6,7-tetrahydro-1-benzothiophen-2-yl)-5-(propan-2-yl)-1,2-oxazole-3-carboxamide

>  <Smile>  (697) 
CC(C)c1cc(C(Nc(sc2c3CCCC2)c3C#N)=O)no1

>  <Color>  (697) 
ORANGE

>  <Collection>  (697) 
DC

>  <InChI>  (697) 
InChI=1S/C16H17N3O2S/c1-9(2)13-7-12(19-21-13)15(20)18-16-11(8-17)10-5-3-4-6-14(10)22-16/h7,9H,3-6H2,1-2H3,(H,18,20)

>  <InChI Key>  (697) 
DFPPLONANWUOAM-UHFFFAOYSA-N

>  <PERCENTSP3>  (697) 
43.8

>  <Link>  (697) 
https://www.chemdiv.com/catalog/screening-compounds/compound-C226-2941/

>  <MFCDNUMBER>  (697) 
MFCD09782910

>  <CLNUMBER>  (697) 
CL2030

>  <STEREO>  (697) 
ACHIRAL

>  <State>  (697) 
Solid

>  <Similarity score>  (697) 
0.18

$$$$
2-(4-chloro-2-methylphenoxy)-N-(3-cyano-5,6-dihydro-4H-cyclopenta[b]thiophen-2-y
     RDKit          2D

 24 26  0  0  0  0  0  0  0  0999 V2000
   -2.0067   -0.2647    0.0000 C   0  0  0  0  0  0  0  0  0  0  0  0
   -2.6359   -1.0524    0.0000 C   0  0  0  0  0  0  0  0  0  0  0  0
   -2.5153    0.5523    0.0000 S   0  0  0  0  0  0  0  0  0  0  0  0
   -3.5988   -0.6731    0.0000 C   0  0  0  0  0  0  0  0  0  0  0  0
   -1.0105   -0.3522    0.0000 N   0  0  0  0  0  0  0  0  0  0  0  0
   -3.4988    0.3188    0.0000 C   0  0  0  0  0  0  0  0  0  0  0  0
   -0.4480    0.4647    0.0000 C   0  0  0  0  0  0  0  0  0  0  0  0
   -2.3693   -2.0024    0.0000 C   0  0  0  0  0  0  0  0  0  0  0  0
   -2.1066   -2.9528    0.0000 N   0  0  0  0  0  0  0  0  0  0  0  0
    1.0773    1.2482    0.0000 O   0  0  0  0  0  0  0  0  0  0  0  0
    2.0816    1.2149    0.0000 C   0  0  0  0  0  0  0  0  0  0  0  0
    0.5481    0.3980    0.0000 C   0  0  0  0  0  0  0  0  0  0  0  0
    2.6152    2.0775    0.0000 C   0  0  0  0  0  0  0  0  0  0  0  0
   -0.8440    1.3358    0.0000 O   0  0  0  0  0  0  0  0  0  0  0  0
    3.6321    2.0653    0.0000 C   0  0  0  0  0  0  0  0  0  0  0  0
    2.5608    0.3522    0.0000 C   0  0  0  0  0  0  0  0  0  0  0  0
    4.0947    1.1815    0.0000 C   0  0  0  0  0  0  0  0  0  0  0  0
   -4.5491   -0.9065    0.0000 C   0  0  0  0  0  0  0  0  0  0  0  0
   -4.4280    0.7189    0.0000 C   0  0  0  0  0  0  0  0  0  0  0  0
    3.5653    0.3105    0.0000 C   0  0  0  0  0  0  0  0  0  0  0  0
    5.0907    1.1733    0.0000 Cl  0  0  0  0  0  0  0  0  0  0  0  0
   -5.0907   -0.0229    0.0000 C   0  0  0  0  0  0  0  0  0  0  0  0
    2.1276    2.9528    0.0000 C   0  0  0  0  0  0  0  0  0  0  0  0
    0.9774   -0.5064    0.0000 C   0  0  0  0  0  0  0  0  0  0  0  0
  1  2  2  0
  1  3  1  0
  2  4  1  0
  4  6  2  0
  1  5  1  0
  3  6  1  0
  5  7  1  0
  2  8  1  0
  8  9  3  0
 10 12  1  0
 10 11  1  0
  7 12  1  0
 11 13  2  0
  7 14  2  0
 13 15  1  0
 11 16  1  0
 17 20  1  0
 15 17  2  0
  4 18  1  0
  6 19  1  0
 16 20  2  0
 17 21  1  0
 19 22  1  0
 18 22  1  0
 13 23  1  0
 12 24  1  0
M  END
>  <IDNUMBER>  (698) 
Y205-6122

>  <available>  (698) 
17

>  <H_acceptor>  (698) 
4

>  <H_donor>  (698) 
1

>  <B_rotN>  (698) 
6

>  <N_O>  (698) 
4

>  <logP>  (698) 
5.1134

>  <logD>  (698) 
3.6755

>  <logSw>  (698) 
-5.5602

>  <PSA>  (698) 
47.342

>  <pKa_ma>  (698) 
5.9783

>  <pKa_mb>  (698) 
-6.1288

>  <N_Chirals>  (698) 
1

>  <Name>  (698) 
2-(4-chloro-2-methylphenoxy)-N-(3-cyano-5,6-dihydro-4H-cyclopenta[b]thiophen-2-yl)propanamide

>  <Smile>  (698) 
CC(C(Nc(sc1c2CCC1)c2C#N)=O)Oc(cc1)c(C)cc1Cl

>  <Color>  (698) 
BROWN

>  <Collection>  (698) 
DC

>  <InChI>  (698) 
InChI=1S/C18H17ClN2O2S/c1-10-8-12(19)6-7-15(10)23-11(2)17(22)21-18-14(9-20)13-4-3-5-16(13)24-18/h6-8,11H,3-5H2,1-2H3,(H,21,22)/t11-/m0/s1

>  <InChI Key>  (698) 
PZOFNWUCEWCCMZ-NSHDSACASA-N

>  <PERCENTSP3>  (698) 
33.33

>  <Link>  (698) 
https://www.chemdiv.com/catalog/screening-compounds/compound-Y205-6122/

>  <MFCDNUMBER>  (698) 
MFCD07182410

>  <STEREO>  (698) 
RACEMIC MIXTURE

>  <State>  (698) 
Solid

>  <Similarity score>  (698) 
0.18

$$$$
3-[(3-cyano-5,6-dihydro-4H-cyclopenta[b]thiophen-2-yl)carbamoyl]-2,2-dimethylcyc
     RDKit          2D

 21 23  0  0  0  0  0  0  0  0999 V2000
    1.2437   -0.6478    0.0000 C   0  0  0  0  0  0  0  0  0  0  0  0
    1.7394   -1.5102    0.0000 C   0  0  0  0  0  0  0  0  0  0  0  0
   -1.3477   -0.1189    0.0000 C   0  0  0  0  0  0  0  0  0  0  0  0
    2.2518   -0.6478    0.0000 C   0  0  0  0  0  0  0  0  0  0  0  0
   -1.4434    0.8770    0.0000 C   0  0  0  0  0  0  0  0  0  0  0  0
    0.3771   -0.1397    0.0000 C   0  0  0  0  0  0  0  0  0  0  0  0
   -2.2601   -0.5188    0.0000 S   0  0  0  0  0  0  0  0  0  0  0  0
   -2.4225    1.0935    0.0000 C   0  0  0  0  0  0  0  0  0  0  0  0
   -0.4895   -0.6228    0.0000 N   0  0  0  0  0  0  0  0  0  0  0  0
   -2.9225    0.2311    0.0000 C   0  0  0  0  0  0  0  0  0  0  0  0
    3.1266   -0.1479    0.0000 C   0  0  0  0  0  0  0  0  0  0  0  0
   -0.6978    1.5434    0.0000 C   0  0  0  0  0  0  0  0  0  0  0  0
    0.0438    2.2142    0.0000 N   0  0  0  0  0  0  0  0  0  0  0  0
    0.3771    0.8603    0.0000 O   0  0  0  0  0  0  0  0  0  0  0  0
    3.1349    0.8520    0.0000 O   0  0  0  0  0  0  0  0  0  0  0  0
    1.0312   -2.2142    0.0000 C   0  0  0  0  0  0  0  0  0  0  0  0
    2.5143   -2.1518    0.0000 C   0  0  0  0  0  0  0  0  0  0  0  0
    3.9973   -0.6521    0.0000 O   0  0  0  0  0  0  0  0  0  0  0  0
   -3.0767    1.8351    0.0000 C   0  0  0  0  0  0  0  0  0  0  0  0
   -3.8972    0.4436    0.0000 C   0  0  0  0  0  0  0  0  0  0  0  0
   -3.9973    1.4351    0.0000 C   0  0  0  0  0  0  0  0  0  0  0  0
  1  2  1  0
  3  9  1  0
  1  4  1  0
  2  4  1  0
  3  5  2  0
  1  6  1  0
  3  7  1  0
  5  8  1  0
  6  9  1  0
  7 10  1  0
  8 10  2  0
  4 11  1  0
  5 12  1  0
 12 13  3  0
  6 14  2  0
 11 15  2  0
  2 16  1  0
  2 17  1  0
 11 18  1  0
  8 19  1  0
 10 20  1  0
 20 21  1  0
 19 21  1  0
M  END
>  <IDNUMBER>  (699) 
IB06-0239

>  <available>  (699) 
50

>  <H_acceptor>  (699) 
6

>  <H_donor>  (699) 
2

>  <B_rotN>  (699) 
5

>  <N_O>  (699) 
5

>  <logP>  (699) 
2.02

>  <logD>  (699) 
-0.4

>  <logSw>  (699) 
-2.77

>  <PSA>  (699) 
156.23

>  <pKa_ma>  (699) 
4.98

>  <pKa_mb>  (699) 
0

>  <N_Chirals>  (699) 
2

>  <Name>  (699) 
3-[(3-cyano-5,6-dihydro-4H-cyclopenta[b]thiophen-2-yl)carbamoyl]-2,2-dimethylcyclopropane-1-carboxylic acid

>  <Smile>  (699) 
CC(C)(C1C(Nc(sc2c3CCC2)c3C#N)=O)C1C(O)=O

>  <Color>  (699) 
NOT COLORED

>  <Collection>  (699) 
DC

>  <InChI>  (699) 
InChI=1S/C15H16N2O3S/c1-15(2)10(11(15)14(19)20)12(18)17-13-8(6-16)7-4-3-5-9(7)21-13/h10-11H,3-5H2,1-2H3,(H,17,18)(H,19,20)

>  <InChI Key>  (699) 
ZCSQDGAYQDGGTR-UHFFFAOYSA-N

>  <PERCENTSP3>  (699) 
53.3

>  <Link>  (699) 
https://www.chemdiv.com/catalog/screening-compounds/compound-IB06-0239/

>  <STEREO>  (699) 
MIXTURE OF STEREOISOMERS

>  <State>  (699) 
Solid

>  <Similarity score>  (699) 
0.18

$$$$
2-amino-6-(propan-2-yl)-4,5,6,7-tetrahydrothieno[2,3-c]pyridine-3-carbonitrile
     RDKit          2D

 15 16  0  0  0  0  0  0  0  0999 V2000
    1.6707   -0.0209    0.0000 C   0  0  0  0  0  0  0  0  0  0  0  0
    1.9541   -0.9833    0.0000 C   0  0  0  0  0  0  0  0  0  0  0  0
    0.3292   -0.9208    0.0000 C   0  0  0  0  0  0  0  0  0  0  0  0
    0.6708    0.0167    0.0000 C   0  0  0  0  0  0  0  0  0  0  0  0
    1.1166   -1.5459    0.0000 S   0  0  0  0  0  0  0  0  0  0  0  0
   -1.2959   -0.3209    0.0000 N   0  0  0  0  0  0  0  0  0  0  0  0
   -0.6458   -1.0917    0.0000 C   0  0  0  0  0  0  0  0  0  0  0  0
    2.2834    0.7584    0.0000 C   0  0  0  0  0  0  0  0  0  0  0  0
    2.9166    1.5459    0.0000 N   0  0  0  0  0  0  0  0  0  0  0  0
    0.0334    0.7709    0.0000 C   0  0  0  0  0  0  0  0  0  0  0  0
   -0.9541    0.6166    0.0000 C   0  0  0  0  0  0  0  0  0  0  0  0
    2.8833   -1.3167    0.0000 N   0  0  0  0  0  0  0  0  0  0  0  0
   -2.2834   -0.4916    0.0000 C   0  0  0  0  0  0  0  0  0  0  0  0
   -2.6333   -1.4416    0.0000 C   0  0  0  0  0  0  0  0  0  0  0  0
   -2.9166    0.2792    0.0000 C   0  0  0  0  0  0  0  0  0  0  0  0
  1  2  2  0
  3  4  2  0
  1  4  1  0
  2  5  1  0
  3  5  1  0
  6 11  1  0
  3  7  1  0
  6  7  1  0
  1  8  1  0
  8  9  3  0
  4 10  1  0
 10 11  1  0
  2 12  1  0
  6 13  1  0
 13 14  1  0
 13 15  1  0
M  END
>  <IDNUMBER>  (700) 
Y512-6850

>  <available>  (700) 
73

>  <H_acceptor>  (700) 
2

>  <H_donor>  (700) 
2

>  <B_rotN>  (700) 
2

>  <N_O>  (700) 
3

>  <logP>  (700) 
1.827

>  <logD>  (700) 
1.797

>  <logSw>  (700) 
-1.691

>  <PSA>  (700) 
42.29

>  <pKa_ma>  (700) 
15.47

>  <pKa_mb>  (700) 
6.257

>  <N_Chirals>  (700) 
0

>  <Name>  (700) 
2-amino-6-(propan-2-yl)-4,5,6,7-tetrahydrothieno[2,3-c]pyridine-3-carbonitrile

>  <Smile>  (700) 
c1(c(sc2c1CCN(C2)C(C)C)N)C#N

>  <Color>  (700) 
BROWN

>  <Collection>  (700) 
DC

>  <InChI>  (700) 
InChI=1S/C11H15N3S/c1-7(2)14-4-3-8-9(5-12)11(13)15-10(8)6-14/h7H,3-4,6,13H2,1-2H3

>  <InChI Key>  (700) 
GRVDEWDYQKUPSB-UHFFFAOYSA-N

>  <PERCENTSP3>  (700) 
54.5

>  <Link>  (700) 
https://www.chemdiv.com/catalog/screening-compounds/compound-Y512-6850/

>  <MFCDNUMBER>  (700) 
MFCD00742042

>  <STEREO>  (700) 
ACHIRAL

>  <State>  (700) 
Solid

>  <Similarity score>  (700) 
0.18

$$$$
N-(3-cyano-5,6-dihydro-4H-cyclopenta[b]thiophen-2-yl)-1-[4-(1-methyl-1H-pyrazol-
     RDKit          2D

 34 38  0  0  0  0  0  0  0  0999 V2000
    3.0957    0.2187    0.0000 C   0  0  0  0  0  0  0  0  0  0  0  0
    3.8874    0.8147    0.0000 C   0  0  0  0  0  0  0  0  0  0  0  0
   -2.1292   -0.0855    0.0000 C   0  0  0  0  0  0  0  0  0  0  0  0
   -0.4292   -0.4396    0.0000 N   0  0  0  0  0  0  0  0  0  0  0  0
   -1.1667    0.2063    0.0000 N   0  0  0  0  0  0  0  0  0  0  0  0
    0.4375    0.0979    0.0000 C   0  0  0  0  0  0  0  0  0  0  0  0
    3.4250   -0.7313    0.0000 S   0  0  0  0  0  0  0  0  0  0  0  0
   -4.5582    0.9729    0.0000 C   0  0  0  0  0  0  0  0  0  0  0  0
    4.7125    0.2562    0.0000 C   0  0  0  0  0  0  0  0  0  0  0  0
    2.1375    0.4855    0.0000 N   0  0  0  0  0  0  0  0  0  0  0  0
   -2.8707    0.5812    0.0000 N   0  0  0  0  0  0  0  0  0  0  0  0
   -2.3459   -1.0688    0.0000 N   0  0  0  0  0  0  0  0  0  0  0  0
    4.4333   -0.7063    0.0000 C   0  0  0  0  0  0  0  0  0  0  0  0
    1.4083   -0.1938    0.0000 C   0  0  0  0  0  0  0  0  0  0  0  0
   -3.8167    0.2938    0.0000 C   0  0  0  0  0  0  0  0  0  0  0  0
   -3.2957   -1.3603    0.0000 C   0  0  0  0  0  0  0  0  0  0  0  0
   -3.5042   -2.3438    0.0000 C   0  0  0  0  0  0  0  0  0  0  0  0
    0.2042    1.0563    0.0000 C   0  0  0  0  0  0  0  0  0  0  0  0
   -6.0499    1.5938    0.0000 N   0  0  0  0  0  0  0  0  0  0  0  0
   -4.4875    1.9687    0.0000 C   0  0  0  0  0  0  0  0  0  0  0  0
   -5.4207    2.3355    0.0000 N   0  0  0  0  0  0  0  0  0  0  0  0
   -0.7918    1.1311    0.0000 C   0  0  0  0  0  0  0  0  0  0  0  0
    3.8625    1.8229    0.0000 C   0  0  0  0  0  0  0  0  0  0  0  0
   -4.0374   -0.6812    0.0000 C   0  0  0  0  0  0  0  0  0  0  0  0
   -5.5207    0.7313    0.0000 C   0  0  0  0  0  0  0  0  0  0  0  0
    3.8249    2.8187    0.0000 N   0  0  0  0  0  0  0  0  0  0  0  0
    1.6499   -1.1563    0.0000 O   0  0  0  0  0  0  0  0  0  0  0  0
   -4.4875   -2.1271    0.0000 F   0  0  0  0  0  0  0  0  0  0  0  0
   -2.5417   -2.5521    0.0000 F   0  0  0  0  0  0  0  0  0  0  0  0
   -3.7207   -3.3312    0.0000 F   0  0  0  0  0  0  0  0  0  0  0  0
    5.7083    0.2938    0.0000 C   0  0  0  0  0  0  0  0  0  0  0  0
    5.2625   -1.2646    0.0000 C   0  0  0  0  0  0  0  0  0  0  0  0
   -5.6667    3.3312    0.0000 C   0  0  0  0  0  0  0  0  0  0  0  0
    6.0499   -0.6437    0.0000 C   0  0  0  0  0  0  0  0  0  0  0  0
  1  2  2  0
  3  5  1  0
  4  6  2  0
  4  5  1  0
  6 14  1  0
  1  7  1  0
  8 15  1  0
  2  9  1  0
  1 10  1  0
  3 11  2  0
  3 12  1  0
  7 13  1  0
  9 13  2  0
 10 14  1  0
 11 15  1  0
 15 24  2  0
 12 16  2  0
 16 17  1  0
  6 18  1  0
 19 25  2  0
  8 20  2  0
 20 21  1  0
 19 21  1  0
 18 22  2  0
  5 22  1  0
  2 23  1  0
 16 24  1  0
  8 25  1  0
 23 26  3  0
 14 27  2  0
 17 28  1  0
 17 29  1  0
 17 30  1  0
  9 31  1  0
 31 34  1  0
 13 32  1  0
 21 33  1  0
 32 34  1  0
M  END
>  <IDNUMBER>  (701) 
Y503-1755

>  <available>  (701) 
5

>  <H_acceptor>  (701) 
7

>  <H_donor>  (701) 
1

>  <B_rotN>  (701) 
7

>  <N_O>  (701) 
9

>  <logP>  (701) 
3.4559

>  <logD>  (701) 
1.8473

>  <logSw>  (701) 
-4.1443

>  <PSA>  (701) 
86.743

>  <pKa_ma>  (701) 
5.8023

>  <pKa_mb>  (701) 
3.3904

>  <N_Chirals>  (701) 
0

>  <Name>  (701) 
N-(3-cyano-5,6-dihydro-4H-cyclopenta[b]thiophen-2-yl)-1-[4-(1-methyl-1H-pyrazol-4-yl)-6-(trifluoromethyl)pyrimidin-2-yl]-1H-pyrazole-3-carboxamide

>  <Smile>  (701) 
Cn1ncc(-c2cc(C(F)(F)F)nc(-n(cc3)nc3C(Nc(sc3c4CCC3)c4C#N)=O)n2)c1

>  <Color>  (701) 
BROWN

>  <Collection>  (701) 
DC

>  <InChI>  (701) 
InChI=1S/C21H15F3N8OS/c1-31-10-11(9-26-31)15-7-17(21(22,23)24)28-20(27-15)32-6-5-14(30-32)18(33)29-19-13(8-25)12-3-2-4-16(12)34-19/h5-7,9-10H,2-4H2,1H3,(H,29,33)

>  <InChI Key>  (701) 
XSYPRIFHVYFDTQ-UHFFFAOYSA-N

>  <PERCENTSP3>  (701) 
23.81

>  <Link>  (701) 
https://www.chemdiv.com/catalog/screening-compounds/compound-Y503-1755/

>  <MFCDNUMBER>  (701) 
MFCD04140301

>  <STEREO>  (701) 
ACHIRAL

>  <State>  (701) 
Solid

>  <Similarity score>  (701) 
0.27

$$$$
N-(3-cyano-6-ethyl-4,5,6,7-tetrahydro-1-benzothiophen-2-yl)-1-[4-(1-methyl-1H-py
     RDKit          2D

 37 41  0  0  0  0  0  0  0  0999 V2000
    2.1882    0.6688    0.0000 C   0  0  0  0  0  0  0  0  0  0  0  0
    2.9051    1.3483    0.0000 C   0  0  0  0  0  0  0  0  0  0  0  0
   -2.9927   -0.0227    0.0000 C   0  0  0  0  0  0  0  0  0  0  0  0
   -1.2462   -0.2688    0.0000 N   0  0  0  0  0  0  0  0  0  0  0  0
   -2.0590    0.3145    0.0000 N   0  0  0  0  0  0  0  0  0  0  0  0
    3.7929    0.8609    0.0000 C   0  0  0  0  0  0  0  0  0  0  0  0
    3.5968   -0.1228    0.0000 C   0  0  0  0  0  0  0  0  0  0  0  0
   -0.4459    0.3145    0.0000 C   0  0  0  0  0  0  0  0  0  0  0  0
    2.6008   -0.2437    0.0000 S   0  0  0  0  0  0  0  0  0  0  0  0
   -5.4683    0.9105    0.0000 C   0  0  0  0  0  0  0  0  0  0  0  0
    1.2045    0.8609    0.0000 N   0  0  0  0  0  0  0  0  0  0  0  0
   -3.7594    0.6065    0.0000 N   0  0  0  0  0  0  0  0  0  0  0  0
   -3.1510   -1.0067    0.0000 N   0  0  0  0  0  0  0  0  0  0  0  0
    0.5377    0.1106    0.0000 C   0  0  0  0  0  0  0  0  0  0  0  0
   -4.7056    0.2564    0.0000 C   0  0  0  0  0  0  0  0  0  0  0  0
   -4.0971   -1.3610    0.0000 C   0  0  0  0  0  0  0  0  0  0  0  0
   -4.2805   -2.3447    0.0000 C   0  0  0  0  0  0  0  0  0  0  0  0
   -0.7503    1.2609    0.0000 C   0  0  0  0  0  0  0  0  0  0  0  0
   -6.9939    1.4440    0.0000 N   0  0  0  0  0  0  0  0  0  0  0  0
   -5.4476    1.9067    0.0000 C   0  0  0  0  0  0  0  0  0  0  0  0
   -6.3895    2.2317    0.0000 N   0  0  0  0  0  0  0  0  0  0  0  0
   -1.7423    1.2609    0.0000 C   0  0  0  0  0  0  0  0  0  0  0  0
    2.7842    2.3405    0.0000 C   0  0  0  0  0  0  0  0  0  0  0  0
   -4.8640   -0.7149    0.0000 C   0  0  0  0  0  0  0  0  0  0  0  0
   -6.4228    0.6190    0.0000 C   0  0  0  0  0  0  0  0  0  0  0  0
    2.6382    3.3363    0.0000 N   0  0  0  0  0  0  0  0  0  0  0  0
    4.7265    1.1900    0.0000 C   0  0  0  0  0  0  0  0  0  0  0  0
    4.3471   -0.7650    0.0000 C   0  0  0  0  0  0  0  0  0  0  0  0
    0.8546   -0.8358    0.0000 O   0  0  0  0  0  0  0  0  0  0  0  0
   -4.4638   -3.3363    0.0000 F   0  0  0  0  0  0  0  0  0  0  0  0
   -5.2642   -2.1609    0.0000 F   0  0  0  0  0  0  0  0  0  0  0  0
   -3.2843   -2.5237    0.0000 F   0  0  0  0  0  0  0  0  0  0  0  0
    5.4891    0.5357    0.0000 C   0  0  0  0  0  0  0  0  0  0  0  0
    5.2850   -0.4478    0.0000 C   0  0  0  0  0  0  0  0  0  0  0  0
   -6.6813    3.2032    0.0000 C   0  0  0  0  0  0  0  0  0  0  0  0
    6.0477   -1.1068    0.0000 C   0  0  0  0  0  0  0  0  0  0  0  0
    6.9939   -0.7772    0.0000 C   0  0  0  0  0  0  0  0  0  0  0  0
  1  2  2  0
  3  5  1  0
  4  8  2  0
  4  5  1  0
  5 22  1  0
  2  6  1  0
  6  7  2  0
  7  9  1  0
  8 14  1  0
  1  9  1  0
 10 15  1  0
  1 11  1  0
  3 12  2  0
  3 13  1  0
 11 14  1  0
 12 15  1  0
 13 16  2  0
 16 17  1  0
  8 18  1  0
 19 25  2  0
 19 21  1  0
 10 20  2  0
 20 21  1  0
 18 22  2  0
  2 23  1  0
 16 24  1  0
 15 24  2  0
 10 25  1  0
 23 26  3  0
  6 27  1  0
  7 28  1  0
 14 29  2  0
 17 30  1  0
 17 31  1  0
 17 32  1  0
 27 33  1  0
 28 34  1  0
 33 34  1  0
 21 35  1  0
 34 36  1  0
 36 37  1  0
M  END
>  <IDNUMBER>  (702) 
Y501-0441

>  <available>  (702) 
13

>  <H_acceptor>  (702) 
7

>  <H_donor>  (702) 
1

>  <B_rotN>  (702) 
8

>  <N_O>  (702) 
9

>  <logP>  (702) 
4.8455

>  <logD>  (702) 
3.2571

>  <logSw>  (702) 
-4.6909

>  <PSA>  (702) 
86.377

>  <pKa_ma>  (702) 
5.8229

>  <pKa_mb>  (702) 
3.3904

>  <N_Chirals>  (702) 
1

>  <Name>  (702) 
N-(3-cyano-6-ethyl-4,5,6,7-tetrahydro-1-benzothiophen-2-yl)-1-[4-(1-methyl-1H-pyrazol-4-yl)-6-(trifluoromethyl)pyrimidin-2-yl]-1H-pyrazole-3-carboxamide

>  <Smile>  (702) 
CCC(CC1)Cc2c1c(C#N)c(NC(c(cc1)nn1-c1nc(-c3cn(C)nc3)cc(C(F)(F)F)n1)=O)s2

>  <Color>  (702) 
ORANGE

>  <Collection>  (702) 
DC

>  <InChI>  (702) 
InChI=1S/C24H21F3N8OS/c1-3-13-4-5-15-16(10-28)22(37-19(15)8-13)32-21(36)17-6-7-35(33-17)23-30-18(14-11-29-34(2)12-14)9-20(31-23)24(25,26)27/h6-7,9,11-13H,3-5,8H2,1-2H3,(H,32,36)/t13-/m1/s1

>  <InChI Key>  (702) 
ZXVFBWYTJCCXSR-CYBMUJFWSA-N

>  <PERCENTSP3>  (702) 
33.33

>  <Link>  (702) 
https://www.chemdiv.com/catalog/screening-compounds/compound-Y501-0441/

>  <MFCDNUMBER>  (702) 
MFCD08553965

>  <STEREO>  (702) 
RACEMIC MIXTURE

>  <State>  (702) 
Solid

>  <Similarity score>  (702) 
0.25

$$$$
4-[(3-cyano-5,6-dihydro-4H-cyclopenta[b]thiophen-2-yl)carbamoyl]phenyl 1-methyl-
     RDKit          2D

 28 31  0  0  0  0  0  0  0  0999 V2000
   -3.1618   -0.4457    0.0000 C   0  0  0  0  0  0  0  0  0  0  0  0
   -4.0198    0.0791    0.0000 C   0  0  0  0  0  0  0  0  0  0  0  0
    4.0407    0.4582    0.0000 C   0  0  0  0  0  0  0  0  0  0  0  0
   -3.3951   -1.4163    0.0000 S   0  0  0  0  0  0  0  0  0  0  0  0
   -4.7698   -0.5540    0.0000 C   0  0  0  0  0  0  0  0  0  0  0  0
    4.3906    1.4039    0.0000 N   0  0  0  0  0  0  0  0  0  0  0  0
   -2.2203   -0.0791    0.0000 N   0  0  0  0  0  0  0  0  0  0  0  0
   -4.4033   -1.4829    0.0000 C   0  0  0  0  0  0  0  0  0  0  0  0
    3.1244    0.1084    0.0000 C   0  0  0  0  0  0  0  0  0  0  0  0
   -1.4204   -0.7208    0.0000 C   0  0  0  0  0  0  0  0  0  0  0  0
    4.8281   -0.1208    0.0000 C   0  0  0  0  0  0  0  0  0  0  0  0
    5.3904    1.3581    0.0000 N   0  0  0  0  0  0  0  0  0  0  0  0
   -4.0490    1.0790    0.0000 C   0  0  0  0  0  0  0  0  0  0  0  0
   -4.1073    2.0787    0.0000 N   0  0  0  0  0  0  0  0  0  0  0  0
    5.6737    0.4041    0.0000 C   0  0  0  0  0  0  0  0  0  0  0  0
    2.3119    0.7539    0.0000 O   0  0  0  0  0  0  0  0  0  0  0  0
   -0.4873   -0.3332    0.0000 C   0  0  0  0  0  0  0  0  0  0  0  0
    2.9661   -0.8789    0.0000 O   0  0  0  0  0  0  0  0  0  0  0  0
   -1.5705   -1.7329    0.0000 O   0  0  0  0  0  0  0  0  0  0  0  0
   -0.3375    0.6291    0.0000 C   0  0  0  0  0  0  0  0  0  0  0  0
    0.2792   -0.9581    0.0000 C   0  0  0  0  0  0  0  0  0  0  0  0
    1.3538    0.3915    0.0000 C   0  0  0  0  0  0  0  0  0  0  0  0
   -5.7362   -0.5707    0.0000 C   0  0  0  0  0  0  0  0  0  0  0  0
   -5.1822   -2.1162    0.0000 C   0  0  0  0  0  0  0  0  0  0  0  0
    0.5666    0.9914    0.0000 C   0  0  0  0  0  0  0  0  0  0  0  0
    1.1996   -0.5958    0.0000 C   0  0  0  0  0  0  0  0  0  0  0  0
    6.0236    2.1162    0.0000 C   0  0  0  0  0  0  0  0  0  0  0  0
   -6.0236   -1.5663    0.0000 C   0  0  0  0  0  0  0  0  0  0  0  0
  1  2  2  0
  3  9  1  0
  1  4  1  0
  2  5  1  0
  5  8  2  0
  3  6  2  0
  1  7  1  0
  4  8  1  0
  9 16  1  0
  7 10  1  0
  3 11  1  0
  6 12  1  0
  2 13  1  0
 13 14  3  0
 11 15  2  0
 12 15  1  0
 16 22  1  0
 10 17  1  0
  9 18  2  0
 10 19  2  0
 17 20  1  0
 17 21  2  0
 22 26  2  0
 22 25  1  0
  5 23  1  0
 23 28  1  0
  8 24  1  0
 20 25  2  0
 21 26  1  0
 12 27  1  0
 24 28  1  0
M  END
>  <IDNUMBER>  (703) 
8016-8143

>  <available>  (703) 
6

>  <H_acceptor>  (703) 
7

>  <H_donor>  (703) 
1

>  <B_rotN>  (703) 
7

>  <N_O>  (703) 
7

>  <logP>  (703) 
2.6222

>  <logD>  (703) 
0.2987

>  <logSw>  (703) 
-3.1782

>  <PSA>  (703) 
75.537

>  <pKa_ma>  (703) 
5.0786

>  <pKa_mb>  (703) 
-2.8007

>  <N_Chirals>  (703) 
0

>  <Name>  (703) 
4-[(3-cyano-5,6-dihydro-4H-cyclopenta[b]thiophen-2-yl)carbamoyl]phenyl 1-methyl-1H-pyrazole-3-carboxylate

>  <Smile>  (703) 
Cn(cc1)nc1C(Oc(cc1)ccc1C(Nc(sc1c2CCC1)c2C#N)=O)=O

>  <Color>  (703) 
NOT COLORED

>  <Collection>  (703) 
DC

>  <InChI>  (703) 
InChI=1S/C20H16N4O3S/c1-24-10-9-16(23-24)20(26)27-13-7-5-12(6-8-13)18(25)22-19-15(11-21)14-3-2-4-17(14)28-19/h5-10H,2-4H2,1H3,(H,22,25)

>  <InChI Key>  (703) 
FSJFRVRGFYEHKX-UHFFFAOYSA-N

>  <PERCENTSP3>  (703) 
20

>  <Link>  (703) 
https://www.chemdiv.com/catalog/screening-compounds/compound-8016-8143/

>  <MFCDNUMBER>  (703) 
MFCD05859418

>  <STEREO>  (703) 
ACHIRAL

>  <State>  (703) 
Solid

>  <Similarity score>  (703) 
0.23

$$$$
4-[(3-cyano-4,5,6,7-tetrahydro-1-benzothiophen-2-yl)carbamoyl]phenyl 1-methyl-1H
     RDKit          2D

 29 32  0  0  0  0  0  0  0  0999 V2000
   -2.9839   -0.3688    0.0000 C   0  0  0  0  0  0  0  0  0  0  0  0
   -3.8384    0.1561    0.0000 C   0  0  0  0  0  0  0  0  0  0  0  0
    4.2260    0.5440    0.0000 C   0  0  0  0  0  0  0  0  0  0  0  0
   -3.2215   -1.3400    0.0000 S   0  0  0  0  0  0  0  0  0  0  0  0
   -4.5968   -0.4687    0.0000 C   0  0  0  0  0  0  0  0  0  0  0  0
    4.5761    1.4859    0.0000 N   0  0  0  0  0  0  0  0  0  0  0  0
   -2.0380   -0.0019    0.0000 N   0  0  0  0  0  0  0  0  0  0  0  0
   -4.2218   -1.4067    0.0000 C   0  0  0  0  0  0  0  0  0  0  0  0
    3.3049    0.1937    0.0000 C   0  0  0  0  0  0  0  0  0  0  0  0
   -1.2378   -0.6398    0.0000 C   0  0  0  0  0  0  0  0  0  0  0  0
    5.0136   -0.0436    0.0000 C   0  0  0  0  0  0  0  0  0  0  0  0
    5.5764    1.4442    0.0000 N   0  0  0  0  0  0  0  0  0  0  0  0
   -3.8717    1.1608    0.0000 C   0  0  0  0  0  0  0  0  0  0  0  0
   -3.9258    2.1609    0.0000 N   0  0  0  0  0  0  0  0  0  0  0  0
    5.8556    0.4856    0.0000 C   0  0  0  0  0  0  0  0  0  0  0  0
    2.4923    0.8316    0.0000 O   0  0  0  0  0  0  0  0  0  0  0  0
   -0.3083   -0.2564    0.0000 C   0  0  0  0  0  0  0  0  0  0  0  0
    3.1424   -0.7937    0.0000 O   0  0  0  0  0  0  0  0  0  0  0  0
   -1.3877   -1.6524    0.0000 O   0  0  0  0  0  0  0  0  0  0  0  0
   -0.1582    0.7107    0.0000 C   0  0  0  0  0  0  0  0  0  0  0  0
    0.4544   -0.8771    0.0000 C   0  0  0  0  0  0  0  0  0  0  0  0
    1.5378    0.4732    0.0000 C   0  0  0  0  0  0  0  0  0  0  0  0
   -5.5971   -0.3312    0.0000 C   0  0  0  0  0  0  0  0  0  0  0  0
    0.7501    1.0689    0.0000 C   0  0  0  0  0  0  0  0  0  0  0  0
    1.3796   -0.5189    0.0000 C   0  0  0  0  0  0  0  0  0  0  0  0
   -4.8511   -2.1943    0.0000 C   0  0  0  0  0  0  0  0  0  0  0  0
    6.2056    2.1943    0.0000 C   0  0  0  0  0  0  0  0  0  0  0  0
   -6.2056   -1.1149    0.0000 C   0  0  0  0  0  0  0  0  0  0  0  0
   -5.8347   -2.0444    0.0000 C   0  0  0  0  0  0  0  0  0  0  0  0
  1  2  2  0
  3  9  1  0
  1  4  1  0
  2  5  1  0
  3  6  2  0
  1  7  1  0
  4  8  1  0
  5  8  2  0
  9 16  1  0
  7 10  1  0
  3 11  1  0
  6 12  1  0
 12 15  1  0
  2 13  1  0
 13 14  3  0
 11 15  2  0
 16 22  1  0
 10 17  1  0
  9 18  2  0
 10 19  2  0
 17 20  1  0
 17 21  2  0
 22 25  2  0
  5 23  1  0
 20 24  2  0
 22 24  1  0
 21 25  1  0
  8 26  1  0
 12 27  1  0
 23 28  1  0
 26 29  1  0
 28 29  1  0
M  END
>  <IDNUMBER>  (704) 
8016-8142

>  <available>  (704) 
14

>  <H_acceptor>  (704) 
7

>  <H_donor>  (704) 
1

>  <B_rotN>  (704) 
7

>  <N_O>  (704) 
7

>  <logP>  (704) 
3.0324

>  <logD>  (704) 
0.7295

>  <logSw>  (704) 
-3.6419

>  <PSA>  (704) 
75.171

>  <pKa_ma>  (704) 
5.0993

>  <pKa_mb>  (704) 
-2.8007

>  <N_Chirals>  (704) 
0

>  <Name>  (704) 
4-[(3-cyano-4,5,6,7-tetrahydro-1-benzothiophen-2-yl)carbamoyl]phenyl 1-methyl-1H-pyrazole-3-carboxylate

>  <Smile>  (704) 
Cn(cc1)nc1C(Oc(cc1)ccc1C(Nc(sc1c2CCCC1)c2C#N)=O)=O

>  <Color>  (704) 
NOT COLORED

>  <Collection>  (704) 
DC

>  <InChI>  (704) 
InChI=1S/C21H18N4O3S/c1-25-11-10-17(24-25)21(27)28-14-8-6-13(7-9-14)19(26)23-20-16(12-22)15-4-2-3-5-18(15)29-20/h6-11H,2-5H2,1H3,(H,23,26)

>  <InChI Key>  (704) 
HEGRFGTYGNEFSG-UHFFFAOYSA-N

>  <PERCENTSP3>  (704) 
23.81

>  <Link>  (704) 
https://www.chemdiv.com/catalog/screening-compounds/compound-8016-8142/

>  <MFCDNUMBER>  (704) 
MFCD05859417

>  <STEREO>  (704) 
ACHIRAL

>  <State>  (704) 
Solid

>  <Similarity score>  (704) 
0.23

$$$$
N-(3-cyano-4,5,6,7-tetrahydro-1-benzothiophen-2-yl)-1-methyl-1H-pyrazole-3-carbo
     RDKit          2D

 20 22  0  0  0  0  0  0  0  0999 V2000
   -0.6229   -0.8313    0.0000 C   0  0  0  0  0  0  0  0  0  0  0  0
   -1.2270   -0.0312    0.0000 C   0  0  0  0  0  0  0  0  0  0  0  0
    1.8562    0.0729    0.0000 C   0  0  0  0  0  0  0  0  0  0  0  0
   -1.1978   -1.6437    0.0000 S   0  0  0  0  0  0  0  0  0  0  0  0
   -2.1686   -0.3646    0.0000 C   0  0  0  0  0  0  0  0  0  0  0  0
    2.8519    0.2021    0.0000 N   0  0  0  0  0  0  0  0  0  0  0  0
    0.3729   -0.8187    0.0000 N   0  0  0  0  0  0  0  0  0  0  0  0
   -2.1563   -1.3520    0.0000 C   0  0  0  0  0  0  0  0  0  0  0  0
    1.3728   -0.8187    0.0000 C   0  0  0  0  0  0  0  0  0  0  0  0
    1.4269    0.9770    0.0000 C   0  0  0  0  0  0  0  0  0  0  0  0
    3.0019    1.1812    0.0000 N   0  0  0  0  0  0  0  0  0  0  0  0
   -0.9312    0.9271    0.0000 C   0  0  0  0  0  0  0  0  0  0  0  0
   -0.6355    1.8728    0.0000 N   0  0  0  0  0  0  0  0  0  0  0  0
    2.1563    1.6645    0.0000 C   0  0  0  0  0  0  0  0  0  0  0  0
    1.9103   -1.6938    0.0000 O   0  0  0  0  0  0  0  0  0  0  0  0
   -3.0521    0.1271    0.0000 C   0  0  0  0  0  0  0  0  0  0  0  0
   -3.0102   -1.8728    0.0000 C   0  0  0  0  0  0  0  0  0  0  0  0
    3.9060    1.6104    0.0000 C   0  0  0  0  0  0  0  0  0  0  0  0
   -3.9060   -0.3896    0.0000 C   0  0  0  0  0  0  0  0  0  0  0  0
   -3.8770   -1.4062    0.0000 C   0  0  0  0  0  0  0  0  0  0  0  0
  1  2  2  0
  3  9  1  0
  1  4  1  0
  2  5  1  0
  5  8  2  0
  3  6  2  0
  1  7  1  0
  4  8  1  0
  7  9  1  0
  3 10  1  0
  6 11  1  0
 11 14  1  0
  2 12  1  0
 12 13  3  0
 10 14  2  0
  9 15  2  0
  5 16  1  0
  8 17  1  0
 11 18  1  0
 16 19  1  0
 19 20  1  0
 17 20  1  0
M  END
>  <IDNUMBER>  (705) 
Y502-0856

>  <available>  (705) 
27

>  <H_acceptor>  (705) 
4

>  <H_donor>  (705) 
1

>  <B_rotN>  (705) 
4

>  <N_O>  (705) 
5

>  <logP>  (705) 
2.0079

>  <logD>  (705) 
0.2065

>  <logSw>  (705) 
-2.6345

>  <PSA>  (705) 
54.793

>  <pKa_ma>  (705) 
5.6055

>  <pKa_mb>  (705) 
-2.0161

>  <N_Chirals>  (705) 
0

>  <Name>  (705) 
N-(3-cyano-4,5,6,7-tetrahydro-1-benzothiophen-2-yl)-1-methyl-1H-pyrazole-3-carboxamide

>  <Smile>  (705) 
Cn(cc1)nc1C(Nc(sc1c2CCCC1)c2C#N)=O

>  <Color>  (705) 
YELLOW

>  <Collection>  (705) 
DC

>  <InChI>  (705) 
InChI=1S/C14H14N4OS/c1-18-7-6-11(17-18)13(19)16-14-10(8-15)9-4-2-3-5-12(9)20-14/h6-7H,2-5H2,1H3,(H,16,19)

>  <InChI Key>  (705) 
ZZKVQWPMKSKGBQ-UHFFFAOYSA-N

>  <PERCENTSP3>  (705) 
35.71

>  <Link>  (705) 
https://www.chemdiv.com/catalog/screening-compounds/compound-Y502-0856/

>  <MFCDNUMBER>  (705) 
MFCD03757142

>  <STEREO>  (705) 
ACHIRAL

>  <State>  (705) 
Solid

>  <Similarity score>  (705) 
0.23

$$$$
N-(3-cyano-4,5,6,7-tetrahydro-1-benzothiophen-2-yl)-1-(4-ethoxyphenyl)-4-oxo-1,4
     RDKit          2D

 31 34  0  0  0  0  0  0  0  0999 V2000
   -2.0839   -0.8663    0.0000 C   0  0  0  0  0  0  0  0  0  0  0  0
   -2.6752   -0.0579    0.0000 C   0  0  0  0  0  0  0  0  0  0  0  0
    0.9018   -0.8819    0.0000 N   0  0  0  0  0  0  0  0  0  0  0  0
    0.4117   -1.7457    0.0000 C   0  0  0  0  0  0  0  0  0  0  0  0
   -2.6803   -1.6801    0.0000 S   0  0  0  0  0  0  0  0  0  0  0  0
    1.9024   -0.8765    0.0000 N   0  0  0  0  0  0  0  0  0  0  0  0
   -3.6198   -0.3665    0.0000 C   0  0  0  0  0  0  0  0  0  0  0  0
   -0.5835   -1.7457    0.0000 C   0  0  0  0  0  0  0  0  0  0  0  0
   -1.0838   -0.8765    0.0000 N   0  0  0  0  0  0  0  0  0  0  0  0
   -3.6301   -1.3666    0.0000 C   0  0  0  0  0  0  0  0  0  0  0  0
    0.9120   -2.5944    0.0000 C   0  0  0  0  0  0  0  0  0  0  0  0
    1.9024   -2.5944    0.0000 C   0  0  0  0  0  0  0  0  0  0  0  0
    2.4022   -1.7306    0.0000 C   0  0  0  0  0  0  0  0  0  0  0  0
   -2.3620    0.8918    0.0000 C   0  0  0  0  0  0  0  0  0  0  0  0
   -2.1044    1.8617    0.0000 N   0  0  0  0  0  0  0  0  0  0  0  0
    2.3872   -0.0177    0.0000 C   0  0  0  0  0  0  0  0  0  0  0  0
   -1.1290   -2.6551    0.0000 O   0  0  0  0  0  0  0  0  0  0  0  0
    0.4169   -3.4685    0.0000 O   0  0  0  0  0  0  0  0  0  0  0  0
    3.3826   -0.0177    0.0000 C   0  0  0  0  0  0  0  0  0  0  0  0
    1.8822    0.8461    0.0000 C   0  0  0  0  0  0  0  0  0  0  0  0
    3.3724    1.7254    0.0000 C   0  0  0  0  0  0  0  0  0  0  0  0
   -4.4788    0.1390    0.0000 C   0  0  0  0  0  0  0  0  0  0  0  0
    2.3723    1.7152    0.0000 C   0  0  0  0  0  0  0  0  0  0  0  0
    3.8829    0.8514    0.0000 C   0  0  0  0  0  0  0  0  0  0  0  0
   -4.4939   -1.8519    0.0000 C   0  0  0  0  0  0  0  0  0  0  0  0
    3.8675    2.5944    0.0000 O   0  0  0  0  0  0  0  0  0  0  0  0
    4.8679    2.6042    0.0000 C   0  0  0  0  0  0  0  0  0  0  0  0
   -5.3478   -0.3463    0.0000 C   0  0  0  0  0  0  0  0  0  0  0  0
   -5.3580   -1.3464    0.0000 C   0  0  0  0  0  0  0  0  0  0  0  0
    5.3580    3.4685    0.0000 C   0  0  0  0  0  0  0  0  0  0  0  0
   -0.5835   -0.0127    0.0000 H   0  0  0  0  0  0  0  0  0  0  0  0
  1  2  2  0
  3  4  2  0
  4  8  1  0
  1  5  1  0
  3  6  1  0
  6 13  1  0
  2  7  1  0
  8  9  1  0
  1  9  1  0
  5 10  1  0
  7 10  2  0
  4 11  1  0
 11 12  1  0
 12 13  2  0
  2 14  1  0
 14 15  3  0
  6 16  1  0
  8 17  2  0
 11 18  2  0
 16 19  1  0
 16 20  2  0
 21 23  2  0
 21 24  1  0
  7 22  1  0
 20 23  1  0
 19 24  2  0
 10 25  1  0
 21 26  1  0
 26 27  1  0
 22 28  1  0
 28 29  1  0
 25 29  1  0
 27 30  1  0
  9 31  1  0
M  END
>  <IDNUMBER>  (706) 
D223-0763

>  <available>  (706) 
86

>  <H_acceptor>  (706) 
7

>  <H_donor>  (706) 
1

>  <B_rotN>  (706) 
7

>  <N_O>  (706) 
7

>  <logP>  (706) 
3.8857

>  <logD>  (706) 
-0.5972

>  <logSw>  (706) 
-4.2107

>  <PSA>  (706) 
73.635

>  <pKa_ma>  (706) 
2.9171

>  <pKa_mb>  (706) 
-0.7117

>  <N_Chirals>  (706) 
0

>  <Name>  (706) 
N-(3-cyano-4,5,6,7-tetrahydro-1-benzothiophen-2-yl)-1-(4-ethoxyphenyl)-4-oxo-1,4-dihydropyridazine-3-carboxamide

>  <Smile>  (706) 
CCOc(cc1)ccc1N(C=C1)N=C(C(Nc(sc2c3CCCC2)c3C#N)=O)C1=O

>  <Color>  (706) 
ORANGE

>  <Collection>  (706) 
DC

>  <InChI>  (706) 
InChI=1S/C22H20N4O3S/c1-2-29-15-9-7-14(8-10-15)26-12-11-18(27)20(25-26)21(28)24-22-17(13-23)16-5-3-4-6-19(16)30-22/h7-12H,2-6H2,1H3,(H,24,28)

>  <InChI Key>  (706) 
XUUOGMZGTAKKRX-UHFFFAOYSA-N

>  <PERCENTSP3>  (706) 
27.3

>  <Link>  (706) 
https://www.chemdiv.com/catalog/screening-compounds/compound-D223-0763/

>  <MFCDNUMBER>  (706) 
MFCD07642031

>  <CLNUMBER>  (706) 
CL6185

>  <STEREO>  (706) 
ACHIRAL

>  <State>  (706) 
Solid

>  <Similarity score>  (706) 
0.23

$$$$
N-(3-cyano-5,6-dihydro-4H-cyclopenta[b]thiophen-2-yl)-1-(difluoromethyl)-1H-pyra
     RDKit          2D

 21 23  0  0  0  0  0  0  0  0999 V2000
   -1.3107    0.7688    0.0000 C   0  0  0  0  0  0  0  0  0  0  0  0
   -2.3066    0.8773    0.0000 C   0  0  0  0  0  0  0  0  0  0  0  0
    1.7024   -1.0648    0.0000 N   0  0  0  0  0  0  0  0  0  0  0  0
    0.7231   -0.9773    0.0000 C   0  0  0  0  0  0  0  0  0  0  0  0
   -0.9022    1.6441    0.0000 S   0  0  0  0  0  0  0  0  0  0  0  0
    1.9150   -2.0276    0.0000 N   0  0  0  0  0  0  0  0  0  0  0  0
   -2.4901    1.8191    0.0000 C   0  0  0  0  0  0  0  0  0  0  0  0
   -0.7939   -0.1105    0.0000 N   0  0  0  0  0  0  0  0  0  0  0  0
   -1.6525    2.3192    0.0000 C   0  0  0  0  0  0  0  0  0  0  0  0
    0.2062   -0.1105    0.0000 C   0  0  0  0  0  0  0  0  0  0  0  0
    0.3105   -1.8608    0.0000 C   0  0  0  0  0  0  0  0  0  0  0  0
    1.0731   -2.5444    0.0000 C   0  0  0  0  0  0  0  0  0  0  0  0
   -2.9694    0.1063    0.0000 C   0  0  0  0  0  0  0  0  0  0  0  0
    2.8445   -2.4319    0.0000 C   0  0  0  0  0  0  0  0  0  0  0  0
   -3.6403   -0.6730    0.0000 N   0  0  0  0  0  0  0  0  0  0  0  0
    0.7065    0.7688    0.0000 O   0  0  0  0  0  0  0  0  0  0  0  0
    2.9653   -3.4278    0.0000 F   0  0  0  0  0  0  0  0  0  0  0  0
    3.6403   -1.8275    0.0000 F   0  0  0  0  0  0  0  0  0  0  0  0
   -3.2402    2.5152    0.0000 C   0  0  0  0  0  0  0  0  0  0  0  0
   -1.8275    3.3027    0.0000 C   0  0  0  0  0  0  0  0  0  0  0  0
   -2.8235    3.4278    0.0000 C   0  0  0  0  0  0  0  0  0  0  0  0
  1  2  2  0
  3  4  2  0
  4 10  1  0
  1  5  1  0
  3  6  1  0
  6 12  1  0
  2  7  1  0
  7  9  2  0
  1  8  1  0
  5  9  1  0
  8 10  1  0
  4 11  1  0
 11 12  2  0
  2 13  1  0
  6 14  1  0
 13 15  3  0
 10 16  2  0
 14 17  1  0
 14 18  1  0
  7 19  1  0
 19 21  1  0
  9 20  1  0
 20 21  1  0
M  END
>  <IDNUMBER>  (707) 
Y500-1756

>  <available>  (707) 
9

>  <H_acceptor>  (707) 
4

>  <H_donor>  (707) 
1

>  <B_rotN>  (707) 
5

>  <N_O>  (707) 
5

>  <logP>  (707) 
1.9217

>  <logD>  (707) 
0.0999

>  <logSw>  (707) 
-2.5756

>  <PSA>  (707) 
54.229

>  <pKa_ma>  (707) 
5.5848

>  <pKa_mb>  (707) 
-2.7735

>  <N_Chirals>  (707) 
0

>  <Name>  (707) 
N-(3-cyano-5,6-dihydro-4H-cyclopenta[b]thiophen-2-yl)-1-(difluoromethyl)-1H-pyrazole-3-carboxamide

>  <Smile>  (707) 
N#Cc1c(NC(c2nn(C(F)F)cc2)=O)sc2c1CCC2

>  <Color>  (707) 
BROWN

>  <Collection>  (707) 
DC

>  <InChI>  (707) 
InChI=1S/C13H10F2N4OS/c14-13(15)19-5-4-9(18-19)11(20)17-12-8(6-16)7-2-1-3-10(7)21-12/h4-5,13H,1-3H2,(H,17,20)

>  <InChI Key>  (707) 
QDHPITATACBGTK-UHFFFAOYSA-N

>  <PERCENTSP3>  (707) 
30.77

>  <Link>  (707) 
https://www.chemdiv.com/catalog/screening-compounds/compound-Y500-1756/

>  <MFCDNUMBER>  (707) 
MFCD04043156

>  <STEREO>  (707) 
ACHIRAL

>  <State>  (707) 
Solid

>  <Similarity score>  (707) 
0.23

$$$$
N-(3-cyano-5,6-dihydro-4H-cyclopenta[b]thiophen-2-yl)-1-ethyl-1H-pyrazole-3-carb
     RDKit          2D

 20 22  0  0  0  0  0  0  0  0999 V2000
   -1.4480    0.5541    0.0000 C   0  0  0  0  0  0  0  0  0  0  0  0
   -2.1687   -0.1584    0.0000 C   0  0  0  0  0  0  0  0  0  0  0  0
    1.1561    1.0415    0.0000 C   0  0  0  0  0  0  0  0  0  0  0  0
   -1.8855    1.4291    0.0000 S   0  0  0  0  0  0  0  0  0  0  0  0
   -3.0435    0.3166    0.0000 C   0  0  0  0  0  0  0  0  0  0  0  0
    1.7770    1.8290    0.0000 N   0  0  0  0  0  0  0  0  0  0  0  0
   -0.4688    0.4082    0.0000 N   0  0  0  0  0  0  0  0  0  0  0  0
   -2.8687    1.2957    0.0000 C   0  0  0  0  0  0  0  0  0  0  0  0
    0.1645    1.1916    0.0000 C   0  0  0  0  0  0  0  0  0  0  0  0
    1.7186    0.2042    0.0000 C   0  0  0  0  0  0  0  0  0  0  0  0
    2.7061    1.4915    0.0000 N   0  0  0  0  0  0  0  0  0  0  0  0
   -2.0187   -1.1292    0.0000 C   0  0  0  0  0  0  0  0  0  0  0  0
   -1.8728   -2.1208    0.0000 N   0  0  0  0  0  0  0  0  0  0  0  0
    2.6768    0.4832    0.0000 C   0  0  0  0  0  0  0  0  0  0  0  0
   -0.2104    2.1208    0.0000 O   0  0  0  0  0  0  0  0  0  0  0  0
   -4.0354    0.1667    0.0000 C   0  0  0  0  0  0  0  0  0  0  0  0
   -3.7561    1.7582    0.0000 C   0  0  0  0  0  0  0  0  0  0  0  0
    3.5560    2.0540    0.0000 C   0  0  0  0  0  0  0  0  0  0  0  0
   -4.4686    1.0665    0.0000 C   0  0  0  0  0  0  0  0  0  0  0  0
    4.4686    1.6039    0.0000 C   0  0  0  0  0  0  0  0  0  0  0  0
  1  2  2  0
  3  9  1  0
  1  4  1  0
  2  5  1  0
  5  8  2  0
  3  6  2  0
  1  7  1  0
  4  8  1  0
  7  9  1  0
  3 10  1  0
  6 11  1  0
  2 12  1  0
 12 13  3  0
 10 14  2  0
 11 14  1  0
  9 15  2  0
  5 16  1  0
  8 17  1  0
 11 18  1  0
 17 19  1  0
 16 19  1  0
 18 20  1  0
M  END
>  <IDNUMBER>  (708) 
Y509-2067

>  <available>  (708) 
16

>  <H_acceptor>  (708) 
4

>  <H_donor>  (708) 
1

>  <B_rotN>  (708) 
5

>  <N_O>  (708) 
5

>  <logP>  (708) 
2.023

>  <logD>  (708) 
0.2012

>  <logSw>  (708) 
-2.628

>  <PSA>  (708) 
54.85

>  <pKa_ma>  (708) 
5.585

>  <pKa_mb>  (708) 
-1.774

>  <N_Chirals>  (708) 
0

>  <Name>  (708) 
N-(3-cyano-5,6-dihydro-4H-cyclopenta[b]thiophen-2-yl)-1-ethyl-1H-pyrazole-3-carboxamide

>  <Smile>  (708) 
c1(c(c2c(s1)CCC2)C#N)NC(c1nn(cc1)CC)=O

>  <Color>  (708) 
ORANGE

>  <Collection>  (708) 
DC

>  <InChI>  (708) 
InChI=1S/C14H14N4OS/c1-2-18-7-6-11(17-18)13(19)16-14-10(8-15)9-4-3-5-12(9)20-14/h6-7H,2-5H2,1H3,(H,16,19)

>  <InChI Key>  (708) 
KFSGNLUEAPEJDP-UHFFFAOYSA-N

>  <PERCENTSP3>  (708) 
35.71

>  <Link>  (708) 
https://www.chemdiv.com/catalog/screening-compounds/compound-Y509-2067/

>  <MFCDNUMBER>  (708) 
MFCD02604544

>  <STEREO>  (708) 
ACHIRAL

>  <State>  (708) 
Solid

>  <Similarity score>  (708) 
0.23

$$$$
N-(3-cyano-4,5,6,7-tetrahydro-1-benzothiophen-2-yl)-1-(3-methylphenyl)-4-oxo-1,4
     RDKit          2D

 29 32  0  0  0  0  0  0  0  0999 V2000
   -1.9179   -0.0381    0.0000 C   0  0  0  0  0  0  0  0  0  0  0  0
   -2.5092    0.7705    0.0000 C   0  0  0  0  0  0  0  0  0  0  0  0
    1.1145   -0.1238    0.0000 N   0  0  0  0  0  0  0  0  0  0  0  0
    0.5838   -0.9629    0.0000 C   0  0  0  0  0  0  0  0  0  0  0  0
    2.1150   -0.1692    0.0000 N   0  0  0  0  0  0  0  0  0  0  0  0
   -2.5144   -0.8514    0.0000 S   0  0  0  0  0  0  0  0  0  0  0  0
   -3.4541    0.4625    0.0000 C   0  0  0  0  0  0  0  0  0  0  0  0
   -0.4169   -0.9175    0.0000 C   0  0  0  0  0  0  0  0  0  0  0  0
   -0.9171   -0.0480    0.0000 N   0  0  0  0  0  0  0  0  0  0  0  0
   -3.4644   -0.5382    0.0000 C   0  0  0  0  0  0  0  0  0  0  0  0
    1.0385   -1.8422    0.0000 C   0  0  0  0  0  0  0  0  0  0  0  0
    2.0391   -1.8877    0.0000 C   0  0  0  0  0  0  0  0  0  0  0  0
    2.5799   -1.0538    0.0000 C   0  0  0  0  0  0  0  0  0  0  0  0
   -2.1958    1.7205    0.0000 C   0  0  0  0  0  0  0  0  0  0  0  0
   -1.9380    2.6911    0.0000 N   0  0  0  0  0  0  0  0  0  0  0  0
    2.6455    0.6746    0.0000 C   0  0  0  0  0  0  0  0  0  0  0  0
   -0.8868   -1.7968    0.0000 O   0  0  0  0  0  0  0  0  0  0  0  0
    3.6462    0.6291    0.0000 C   0  0  0  0  0  0  0  0  0  0  0  0
    0.5081   -2.6911    0.0000 O   0  0  0  0  0  0  0  0  0  0  0  0
   -4.3133    0.9676    0.0000 C   0  0  0  0  0  0  0  0  0  0  0  0
    4.1921    1.4681    0.0000 C   0  0  0  0  0  0  0  0  0  0  0  0
   -4.3284   -1.0233    0.0000 C   0  0  0  0  0  0  0  0  0  0  0  0
    2.1759    1.5691    0.0000 C   0  0  0  0  0  0  0  0  0  0  0  0
    2.7213    2.4079    0.0000 C   0  0  0  0  0  0  0  0  0  0  0  0
    3.7220    2.3625    0.0000 C   0  0  0  0  0  0  0  0  0  0  0  0
    5.1926    1.4176    0.0000 C   0  0  0  0  0  0  0  0  0  0  0  0
   -5.1824    0.4824    0.0000 C   0  0  0  0  0  0  0  0  0  0  0  0
   -5.1926   -0.5181    0.0000 C   0  0  0  0  0  0  0  0  0  0  0  0
   -0.4169    0.8164    0.0000 H   0  0  0  0  0  0  0  0  0  0  0  0
  1  2  2  0
  3  4  2  0
  4  8  1  0
  3  5  1  0
  5 13  1  0
  1  6  1  0
  2  7  1  0
  8  9  1  0
  1  9  1  0
  6 10  1  0
  7 10  2  0
  4 11  1  0
 11 12  1  0
 12 13  2  0
  2 14  1  0
 14 15  3  0
  5 16  1  0
  8 17  2  0
 16 18  1  0
 11 19  2  0
  7 20  1  0
 18 21  2  0
 10 22  1  0
 16 23  2  0
 23 24  1  0
 24 25  2  0
 21 25  1  0
 21 26  1  0
 20 27  1  0
 27 28  1  0
 22 28  1  0
  9 29  1  0
M  END
>  <IDNUMBER>  (709) 
D223-0594

>  <available>  (709) 
99

>  <H_acceptor>  (709) 
6

>  <H_donor>  (709) 
1

>  <B_rotN>  (709) 
5

>  <N_O>  (709) 
6

>  <logP>  (709) 
3.9845

>  <logD>  (709) 
-0.4985

>  <logSw>  (709) 
-4.2804

>  <PSA>  (709) 
66.511

>  <pKa_ma>  (709) 
2.9171

>  <pKa_mb>  (709) 
-0.4149

>  <N_Chirals>  (709) 
0

>  <Name>  (709) 
N-(3-cyano-4,5,6,7-tetrahydro-1-benzothiophen-2-yl)-1-(3-methylphenyl)-4-oxo-1,4-dihydropyridazine-3-carboxamide

>  <Smile>  (709) 
Cc1cccc(N(C=C2)N=C(C(Nc(sc3c4CCCC3)c4C#N)=O)C2=O)c1

>  <Color>  (709) 
ORANGE

>  <Collection>  (709) 
DC

>  <InChI>  (709) 
InChI=1S/C21H18N4O2S/c1-13-5-4-6-14(11-13)25-10-9-17(26)19(24-25)20(27)23-21-16(12-22)15-7-2-3-8-18(15)28-21/h4-6,9-11H,2-3,7-8H2,1H3,(H,23,27)

>  <InChI Key>  (709) 
QJALJEXLCZGOBW-UHFFFAOYSA-N

>  <PERCENTSP3>  (709) 
23.8

>  <Link>  (709) 
https://www.chemdiv.com/catalog/screening-compounds/compound-D223-0594/

>  <MFCDNUMBER>  (709) 
MFCD07428305

>  <CLNUMBER>  (709) 
CL6185

>  <STEREO>  (709) 
ACHIRAL

>  <State>  (709) 
Solid

>  <Similarity score>  (709) 
0.23

$$$$
N-(3-cyano-4,5,6,7-tetrahydro-1-benzothiophen-2-yl)-1-(difluoromethyl)-1H-pyrazo
     RDKit          2D

 22 24  0  0  0  0  0  0  0  0999 V2000
   -1.3018    0.5645    0.0000 C   0  0  0  0  0  0  0  0  0  0  0  0
   -2.2932    0.6687    0.0000 C   0  0  0  0  0  0  0  0  0  0  0  0
    1.7142   -1.2809    0.0000 N   0  0  0  0  0  0  0  0  0  0  0  0
    0.7311   -1.1935    0.0000 C   0  0  0  0  0  0  0  0  0  0  0  0
   -0.8894    1.4226    0.0000 S   0  0  0  0  0  0  0  0  0  0  0  0
    1.9226   -2.2433    0.0000 N   0  0  0  0  0  0  0  0  0  0  0  0
   -2.4681    1.6477    0.0000 C   0  0  0  0  0  0  0  0  0  0  0  0
   -0.7853   -0.3226    0.0000 N   0  0  0  0  0  0  0  0  0  0  0  0
   -1.6017    2.1141    0.0000 C   0  0  0  0  0  0  0  0  0  0  0  0
    0.2146   -0.3226    0.0000 C   0  0  0  0  0  0  0  0  0  0  0  0
    0.3188   -2.0766    0.0000 C   0  0  0  0  0  0  0  0  0  0  0  0
    1.0810   -2.7597    0.0000 C   0  0  0  0  0  0  0  0  0  0  0  0
   -2.9556   -0.0978    0.0000 C   0  0  0  0  0  0  0  0  0  0  0  0
    2.8514   -2.6431    0.0000 C   0  0  0  0  0  0  0  0  0  0  0  0
   -3.6470   -0.8393    0.0000 N   0  0  0  0  0  0  0  0  0  0  0  0
    0.7145    0.5520    0.0000 O   0  0  0  0  0  0  0  0  0  0  0  0
    2.9721   -3.6428    0.0000 F   0  0  0  0  0  0  0  0  0  0  0  0
    3.6470   -2.0392    0.0000 F   0  0  0  0  0  0  0  0  0  0  0  0
   -3.3389    2.1642    0.0000 C   0  0  0  0  0  0  0  0  0  0  0  0
   -1.5683    3.1179    0.0000 C   0  0  0  0  0  0  0  0  0  0  0  0
   -3.3179    3.1597    0.0000 C   0  0  0  0  0  0  0  0  0  0  0  0
   -2.4265    3.6428    0.0000 C   0  0  0  0  0  0  0  0  0  0  0  0
  1  2  2  0
  3  4  2  0
  4 10  1  0
  1  5  1  0
  3  6  1  0
  6 12  1  0
  2  7  1  0
  7  9  2  0
  1  8  1  0
  5  9  1  0
  8 10  1  0
  4 11  1  0
 11 12  2  0
  2 13  1  0
  6 14  1  0
 13 15  3  0
 10 16  2  0
 14 17  1  0
 14 18  1  0
  7 19  1  0
  9 20  1  0
 19 21  1  0
 21 22  1  0
 20 22  1  0
M  END
>  <IDNUMBER>  (710) 
Y500-4786

>  <available>  (710) 
12

>  <H_acceptor>  (710) 
4

>  <H_donor>  (710) 
1

>  <B_rotN>  (710) 
5

>  <N_O>  (710) 
5

>  <logP>  (710) 
2.332

>  <logD>  (710) 
0.5305

>  <logSw>  (710) 
-2.8954

>  <PSA>  (710) 
53.863

>  <pKa_ma>  (710) 
5.6055

>  <pKa_mb>  (710) 
-2.7735

>  <N_Chirals>  (710) 
0

>  <Name>  (710) 
N-(3-cyano-4,5,6,7-tetrahydro-1-benzothiophen-2-yl)-1-(difluoromethyl)-1H-pyrazole-3-carboxamide

>  <Smile>  (710) 
N#Cc1c(NC(c2nn(C(F)F)cc2)=O)sc2c1CCCC2

>  <Color>  (710) 
BROWN

>  <Collection>  (710) 
DC

>  <InChI>  (710) 
InChI=1S/C14H12F2N4OS/c15-14(16)20-6-5-10(19-20)12(21)18-13-9(7-17)8-3-1-2-4-11(8)22-13/h5-6,14H,1-4H2,(H,18,21)

>  <InChI Key>  (710) 
MQDQFAUBXBTKOY-UHFFFAOYSA-N

>  <PERCENTSP3>  (710) 
35.71

>  <Link>  (710) 
https://www.chemdiv.com/catalog/screening-compounds/compound-Y500-4786/

>  <MFCDNUMBER>  (710) 
MFCD04047324

>  <STEREO>  (710) 
ACHIRAL

>  <State>  (710) 
Solid

>  <Similarity score>  (710) 
0.23

$$$$
1-(3-chlorophenyl)-N-(3-cyano-4,5,6,7-tetrahydro-1-benzothiophen-2-yl)-4-oxo-1,4
     RDKit          2D

 29 32  0  0  0  0  0  0  0  0999 V2000
   -1.8495   -0.0632    0.0000 C   0  0  0  0  0  0  0  0  0  0  0  0
   -2.4403    0.7453    0.0000 C   0  0  0  0  0  0  0  0  0  0  0  0
    1.1370   -0.0733    0.0000 N   0  0  0  0  0  0  0  0  0  0  0  0
    0.6517   -0.9371    0.0000 C   0  0  0  0  0  0  0  0  0  0  0  0
    2.1373   -0.0632    0.0000 N   0  0  0  0  0  0  0  0  0  0  0  0
   -2.4454   -0.8768    0.0000 S   0  0  0  0  0  0  0  0  0  0  0  0
   -3.3853    0.4373    0.0000 C   0  0  0  0  0  0  0  0  0  0  0  0
   -0.3487   -0.9423    0.0000 C   0  0  0  0  0  0  0  0  0  0  0  0
   -0.8488   -0.0733    0.0000 N   0  0  0  0  0  0  0  0  0  0  0  0
   -3.3955   -0.5633    0.0000 C   0  0  0  0  0  0  0  0  0  0  0  0
    1.1522   -1.7913    0.0000 C   0  0  0  0  0  0  0  0  0  0  0  0
    2.1526   -1.7913    0.0000 C   0  0  0  0  0  0  0  0  0  0  0  0
    2.6478   -0.9219    0.0000 C   0  0  0  0  0  0  0  0  0  0  0  0
   -2.1273    1.6954    0.0000 C   0  0  0  0  0  0  0  0  0  0  0  0
    2.6225    0.8010    0.0000 C   0  0  0  0  0  0  0  0  0  0  0  0
   -1.8695    2.6654    0.0000 N   0  0  0  0  0  0  0  0  0  0  0  0
    3.6229    0.8062    0.0000 C   0  0  0  0  0  0  0  0  0  0  0  0
   -0.8689   -1.8062    0.0000 O   0  0  0  0  0  0  0  0  0  0  0  0
    0.6619   -2.6654    0.0000 O   0  0  0  0  0  0  0  0  0  0  0  0
    4.1232    1.6802    0.0000 C   0  0  0  0  0  0  0  0  0  0  0  0
   -4.2443    0.9423    0.0000 C   0  0  0  0  0  0  0  0  0  0  0  0
    5.1236    1.6802    0.0000 Cl  0  0  0  0  0  0  0  0  0  0  0  0
   -4.2595   -1.0484    0.0000 C   0  0  0  0  0  0  0  0  0  0  0  0
    2.1170    1.6650    0.0000 C   0  0  0  0  0  0  0  0  0  0  0  0
    2.6073    2.5440    0.0000 C   0  0  0  0  0  0  0  0  0  0  0  0
    3.6077    2.5440    0.0000 C   0  0  0  0  0  0  0  0  0  0  0  0
   -5.1135    0.4574    0.0000 C   0  0  0  0  0  0  0  0  0  0  0  0
   -5.1236   -0.5429    0.0000 C   0  0  0  0  0  0  0  0  0  0  0  0
   -0.3487    0.7910    0.0000 H   0  0  0  0  0  0  0  0  0  0  0  0
  1  2  2  0
  3  4  2  0
  4  8  1  0
  3  5  1  0
  5 13  1  0
  1  6  1  0
  2  7  1  0
  8  9  1  0
  1  9  1  0
  6 10  1  0
  7 10  2  0
  4 11  1  0
 11 12  1  0
 12 13  2  0
  2 14  1  0
  5 15  1  0
 14 16  3  0
 15 17  1  0
  8 18  2  0
 11 19  2  0
 17 20  2  0
  7 21  1  0
 20 22  1  0
 10 23  1  0
 15 24  2  0
 24 25  1  0
 25 26  2  0
 20 26  1  0
 21 27  1  0
 27 28  1  0
 23 28  1  0
  9 29  1  0
M  END
>  <IDNUMBER>  (711) 
D223-0824

>  <available>  (711) 
101

>  <H_acceptor>  (711) 
6

>  <H_donor>  (711) 
1

>  <B_rotN>  (711) 
5

>  <N_O>  (711) 
6

>  <logP>  (711) 
4.1255

>  <logD>  (711) 
-0.3574

>  <logSw>  (711) 
-4.7169

>  <PSA>  (711) 
66.511

>  <pKa_ma>  (711) 
2.9171

>  <pKa_mb>  (711) 
-0.7695

>  <N_Chirals>  (711) 
0

>  <Name>  (711) 
1-(3-chlorophenyl)-N-(3-cyano-4,5,6,7-tetrahydro-1-benzothiophen-2-yl)-4-oxo-1,4-dihydropyridazine-3-carboxamide

>  <Smile>  (711) 
N#Cc1c(NC(C(C(C=C2)=O)=NN2c2cccc(Cl)c2)=O)sc2c1CCCC2

>  <Color>  (711) 
ORANGE

>  <Collection>  (711) 
DC

>  <InChI>  (711) 
InChI=1S/C20H15ClN4O2S/c21-12-4-3-5-13(10-12)25-9-8-16(26)18(24-25)19(27)23-20-15(11-22)14-6-1-2-7-17(14)28-20/h3-5,8-10H,1-2,6-7H2,(H,23,27)

>  <InChI Key>  (711) 
DDFTYXNLOPFCSA-UHFFFAOYSA-N

>  <PERCENTSP3>  (711) 
20

>  <Link>  (711) 
https://www.chemdiv.com/catalog/screening-compounds/compound-D223-0824/

>  <MFCDNUMBER>  (711) 
MFCD07642323

>  <CLNUMBER>  (711) 
CL6185

>  <STEREO>  (711) 
ACHIRAL

>  <State>  (711) 
Solid

>  <Similarity score>  (711) 
0.23

$$$$
1-(chloromethyl)-N-(3-cyano-5,6-dihydro-4H-cyclopenta[b]thiophen-2-yl)-1H-pyrazo
     RDKit          2D

 20 22  0  0  0  0  0  0  0  0999 V2000
   -1.4396    0.3813    0.0000 C   0  0  0  0  0  0  0  0  0  0  0  0
   -2.3147   -0.1271    0.0000 C   0  0  0  0  0  0  0  0  0  0  0  0
    1.1605   -0.1395    0.0000 C   0  0  0  0  0  0  0  0  0  0  0  0
   -1.6606    1.3564    0.0000 S   0  0  0  0  0  0  0  0  0  0  0  0
   -3.0564    0.5398    0.0000 C   0  0  0  0  0  0  0  0  0  0  0  0
    2.0606    0.2731    0.0000 N   0  0  0  0  0  0  0  0  0  0  0  0
   -0.5771   -0.1271    0.0000 N   0  0  0  0  0  0  0  0  0  0  0  0
   -2.6439    1.4523    0.0000 C   0  0  0  0  0  0  0  0  0  0  0  0
    0.2854    0.3689    0.0000 C   0  0  0  0  0  0  0  0  0  0  0  0
    1.2564   -1.1354    0.0000 C   0  0  0  0  0  0  0  0  0  0  0  0
    2.7399   -0.4813    0.0000 N   0  0  0  0  0  0  0  0  0  0  0  0
   -2.4107   -1.1229    0.0000 C   0  0  0  0  0  0  0  0  0  0  0  0
   -2.4231   -2.1188    0.0000 N   0  0  0  0  0  0  0  0  0  0  0  0
    2.2442   -1.3438    0.0000 C   0  0  0  0  0  0  0  0  0  0  0  0
    0.2854    1.3689    0.0000 O   0  0  0  0  0  0  0  0  0  0  0  0
    3.7483   -0.4813    0.0000 C   0  0  0  0  0  0  0  0  0  0  0  0
   -4.0400    0.6522    0.0000 C   0  0  0  0  0  0  0  0  0  0  0  0
   -3.3858    2.1188    0.0000 C   0  0  0  0  0  0  0  0  0  0  0  0
    4.2483    0.3813    0.0000 Cl  0  0  0  0  0  0  0  0  0  0  0  0
   -4.2483    1.6356    0.0000 C   0  0  0  0  0  0  0  0  0  0  0  0
  1  2  2  0
  3  9  1  0
  1  4  1  0
  2  5  1  0
  3  6  2  0
  1  7  1  0
  4  8  1  0
  5  8  2  0
  7  9  1  0
  3 10  1  0
  6 11  1  0
  2 12  1  0
 12 13  3  0
 10 14  2  0
 11 14  1  0
  9 15  2  0
 11 16  1  0
  5 17  1  0
  8 18  1  0
 16 19  1  0
 18 20  1  0
 17 20  1  0
M  END
>  <IDNUMBER>  (712) 
Y502-0752

>  <available>  (712) 
25

>  <H_acceptor>  (712) 
4

>  <H_donor>  (712) 
1

>  <B_rotN>  (712) 
5

>  <N_O>  (712) 
5

>  <logP>  (712) 
2.2936

>  <logD>  (712) 
0.4718

>  <logSw>  (712) 
-2.9328

>  <PSA>  (712) 
55.166

>  <pKa_ma>  (712) 
5.5848

>  <pKa_mb>  (712) 
-2.7735

>  <N_Chirals>  (712) 
0

>  <Name>  (712) 
1-(chloromethyl)-N-(3-cyano-5,6-dihydro-4H-cyclopenta[b]thiophen-2-yl)-1H-pyrazole-3-carboxamide

>  <Smile>  (712) 
N#Cc1c(NC(c2nn(CCl)cc2)=O)sc2c1CCC2

>  <Color>  (712) 
ORANGE

>  <Collection>  (712) 
DC

>  <InChI>  (712) 
InChI=1S/C13H11ClN4OS/c14-7-18-5-4-10(17-18)12(19)16-13-9(6-15)8-2-1-3-11(8)20-13/h4-5H,1-3,7H2,(H,16,19)

>  <InChI Key>  (712) 
AXNLQLAGDVGEPM-UHFFFAOYSA-N

>  <PERCENTSP3>  (712) 
30.77

>  <Link>  (712) 
https://www.chemdiv.com/catalog/screening-compounds/compound-Y502-0752/

>  <MFCDNUMBER>  (712) 
MFCD04050623

>  <STEREO>  (712) 
ACHIRAL

>  <State>  (712) 
Solid

>  <Similarity score>  (712) 
0.22

$$$$
N-(3-cyano-4,5,6,7-tetrahydro-1-benzothiophen-2-yl)-1-(4-methylphenyl)-4-oxo-1,4
     RDKit          2D

 29 32  0  0  0  0  0  0  0  0999 V2000
   -1.4854   -0.2500    0.0000 C   0  0  0  0  0  0  0  0  0  0  0  0
   -2.0764    0.5581    0.0000 C   0  0  0  0  0  0  0  0  0  0  0  0
    1.5610   -0.3562    0.0000 N   0  0  0  0  0  0  0  0  0  0  0  0
    1.0104   -1.1898    0.0000 C   0  0  0  0  0  0  0  0  0  0  0  0
   -2.0815   -1.0633    0.0000 S   0  0  0  0  0  0  0  0  0  0  0  0
    2.5563   -0.4170    0.0000 N   0  0  0  0  0  0  0  0  0  0  0  0
   -3.0214    0.2500    0.0000 C   0  0  0  0  0  0  0  0  0  0  0  0
    0.0103   -1.1291    0.0000 C   0  0  0  0  0  0  0  0  0  0  0  0
   -0.4848   -0.2603    0.0000 N   0  0  0  0  0  0  0  0  0  0  0  0
   -3.0310   -0.7501    0.0000 C   0  0  0  0  0  0  0  0  0  0  0  0
    1.4552   -2.0838    0.0000 C   0  0  0  0  0  0  0  0  0  0  0  0
    2.4553   -2.1447    0.0000 C   0  0  0  0  0  0  0  0  0  0  0  0
    3.0008   -1.3110    0.0000 C   0  0  0  0  0  0  0  0  0  0  0  0
   -1.7632    1.5082    0.0000 C   0  0  0  0  0  0  0  0  0  0  0  0
   -1.5053    2.4781    0.0000 N   0  0  0  0  0  0  0  0  0  0  0  0
    3.1020    0.4067    0.0000 C   0  0  0  0  0  0  0  0  0  0  0  0
   -0.4445   -2.0235    0.0000 O   0  0  0  0  0  0  0  0  0  0  0  0
    0.9042   -2.9174    0.0000 O   0  0  0  0  0  0  0  0  0  0  0  0
    4.0920    0.3410    0.0000 C   0  0  0  0  0  0  0  0  0  0  0  0
    2.6525    1.3110    0.0000 C   0  0  0  0  0  0  0  0  0  0  0  0
   -3.8801    0.7552    0.0000 C   0  0  0  0  0  0  0  0  0  0  0  0
    3.1980    2.1447    0.0000 C   0  0  0  0  0  0  0  0  0  0  0  0
    4.6528    1.1746    0.0000 C   0  0  0  0  0  0  0  0  0  0  0  0
    4.2084    2.0838    0.0000 C   0  0  0  0  0  0  0  0  0  0  0  0
   -3.8952   -1.2353    0.0000 C   0  0  0  0  0  0  0  0  0  0  0  0
    4.7590    2.9174    0.0000 C   0  0  0  0  0  0  0  0  0  0  0  0
   -4.7487    0.2704    0.0000 C   0  0  0  0  0  0  0  0  0  0  0  0
   -4.7590   -0.7301    0.0000 C   0  0  0  0  0  0  0  0  0  0  0  0
    0.0153    0.6036    0.0000 H   0  0  0  0  0  0  0  0  0  0  0  0
  1  2  2  0
  3  4  2  0
  4  8  1  0
  1  5  1  0
  3  6  1  0
  6 13  1  0
  2  7  1  0
  8  9  1  0
  1  9  1  0
  5 10  1  0
  7 10  2  0
  4 11  1  0
 11 12  1  0
 12 13  2  0
  2 14  1  0
 14 15  3  0
  6 16  1  0
  8 17  2  0
 11 18  2  0
 16 19  1  0
 16 20  2  0
  7 21  1  0
 20 22  1  0
 19 23  2  0
 22 24  2  0
 23 24  1  0
 10 25  1  0
 24 26  1  0
 21 27  1  0
 27 28  1  0
 25 28  1  0
  9 29  1  0
M  END
>  <IDNUMBER>  (713) 
D223-0502

>  <available>  (713) 
196

>  <H_acceptor>  (713) 
6

>  <H_donor>  (713) 
1

>  <B_rotN>  (713) 
5

>  <N_O>  (713) 
6

>  <logP>  (713) 
3.9401

>  <logD>  (713) 
-0.5428

>  <logSw>  (713) 
-4.2475

>  <PSA>  (713) 
66.511

>  <pKa_ma>  (713) 
2.9171

>  <pKa_mb>  (713) 
-1.8472

>  <N_Chirals>  (713) 
0

>  <Name>  (713) 
N-(3-cyano-4,5,6,7-tetrahydro-1-benzothiophen-2-yl)-1-(4-methylphenyl)-4-oxo-1,4-dihydropyridazine-3-carboxamide

>  <Smile>  (713) 
Cc(cc1)ccc1N(C=C1)N=C(C(Nc(sc2c3CCCC2)c3C#N)=O)C1=O

>  <Color>  (713) 
ORANGE

>  <Collection>  (713) 
DC

>  <InChI>  (713) 
InChI=1S/C21H18N4O2S/c1-13-6-8-14(9-7-13)25-11-10-17(26)19(24-25)20(27)23-21-16(12-22)15-4-2-3-5-18(15)28-21/h6-11H,2-5H2,1H3,(H,23,27)

>  <InChI Key>  (713) 
YJBLHJYIROHWMQ-UHFFFAOYSA-N

>  <PERCENTSP3>  (713) 
23.8

>  <Link>  (713) 
https://www.chemdiv.com/catalog/screening-compounds/compound-D223-0502/

>  <MFCDNUMBER>  (713) 
MFCD07641603

>  <CLNUMBER>  (713) 
CL6185

>  <STEREO>  (713) 
ACHIRAL

>  <State>  (713) 
Solid

>  <Similarity score>  (713) 
0.22

$$$$
N-(3-cyano-4,5,6,7-tetrahydro-1-benzothiophen-2-yl)-1-(4-fluorophenyl)-4-oxo-1,4
     RDKit          2D

 29 32  0  0  0  0  0  0  0  0999 V2000
   -1.3492   -0.4243    0.0000 C   0  0  0  0  0  0  0  0  0  0  0  0
   -1.9402    0.3840    0.0000 C   0  0  0  0  0  0  0  0  0  0  0  0
    1.6373   -0.4397    0.0000 N   0  0  0  0  0  0  0  0  0  0  0  0
    1.1469   -1.3037    0.0000 C   0  0  0  0  0  0  0  0  0  0  0  0
   -1.9454   -1.2379    0.0000 S   0  0  0  0  0  0  0  0  0  0  0  0
    2.6377   -0.4397    0.0000 N   0  0  0  0  0  0  0  0  0  0  0  0
   -2.8854    0.0759    0.0000 C   0  0  0  0  0  0  0  0  0  0  0  0
    0.1516   -1.3037    0.0000 C   0  0  0  0  0  0  0  0  0  0  0  0
   -0.3486   -0.4345    0.0000 N   0  0  0  0  0  0  0  0  0  0  0  0
   -2.8953   -0.9245    0.0000 C   0  0  0  0  0  0  0  0  0  0  0  0
    1.6471   -2.1625    0.0000 C   0  0  0  0  0  0  0  0  0  0  0  0
    2.6377   -2.1526    0.0000 C   0  0  0  0  0  0  0  0  0  0  0  0
    3.1378   -1.2985    0.0000 C   0  0  0  0  0  0  0  0  0  0  0  0
   -1.6273    1.3339    0.0000 C   0  0  0  0  0  0  0  0  0  0  0  0
   -1.3695    2.3040    0.0000 N   0  0  0  0  0  0  0  0  0  0  0  0
    3.1230    0.4145    0.0000 C   0  0  0  0  0  0  0  0  0  0  0  0
   -0.3993   -2.2283    0.0000 O   0  0  0  0  0  0  0  0  0  0  0  0
    1.1520   -3.0168    0.0000 O   0  0  0  0  0  0  0  0  0  0  0  0
    4.1234    0.4145    0.0000 C   0  0  0  0  0  0  0  0  0  0  0  0
    2.6223    1.2787    0.0000 C   0  0  0  0  0  0  0  0  0  0  0  0
    4.1234    2.1526    0.0000 C   0  0  0  0  0  0  0  0  0  0  0  0
   -3.7441    0.5812    0.0000 C   0  0  0  0  0  0  0  0  0  0  0  0
    3.1230    2.1424    0.0000 C   0  0  0  0  0  0  0  0  0  0  0  0
    4.6234    1.2733    0.0000 C   0  0  0  0  0  0  0  0  0  0  0  0
   -3.7594   -1.4098    0.0000 C   0  0  0  0  0  0  0  0  0  0  0  0
    4.6234    3.0168    0.0000 F   0  0  0  0  0  0  0  0  0  0  0  0
   -4.6134    0.0959    0.0000 C   0  0  0  0  0  0  0  0  0  0  0  0
   -4.6234   -0.9045    0.0000 C   0  0  0  0  0  0  0  0  0  0  0  0
    0.1516    0.4294    0.0000 H   0  0  0  0  0  0  0  0  0  0  0  0
  1  2  2  0
  3  4  2  0
  4  8  1  0
  1  5  1  0
  3  6  1  0
  6 13  1  0
  2  7  1  0
  8  9  1  0
  1  9  1  0
  5 10  1  0
  7 10  2  0
  4 11  1  0
 11 12  1  0
 12 13  2  0
  2 14  1  0
 14 15  3  0
  6 16  1  0
  8 17  2  0
 11 18  2  0
 16 19  1  0
 16 20  2  0
 21 23  2  0
 21 24  1  0
  7 22  1  0
 20 23  1  0
 19 24  2  0
 10 25  1  0
 21 26  1  0
 22 27  1  0
 27 28  1  0
 25 28  1  0
  9 29  1  0
M  END
>  <IDNUMBER>  (714) 
D223-0959

>  <available>  (714) 
95

>  <H_acceptor>  (714) 
6

>  <H_donor>  (714) 
1

>  <B_rotN>  (714) 
5

>  <N_O>  (714) 
6

>  <logP>  (714) 
3.5458

>  <logD>  (714) 
-0.9371

>  <logSw>  (714) 
-4.0944

>  <PSA>  (714) 
66.511

>  <pKa_ma>  (714) 
2.9171

>  <pKa_mb>  (714) 
-0.7653

>  <N_Chirals>  (714) 
0

>  <Name>  (714) 
N-(3-cyano-4,5,6,7-tetrahydro-1-benzothiophen-2-yl)-1-(4-fluorophenyl)-4-oxo-1,4-dihydropyridazine-3-carboxamide

>  <Smile>  (714) 
N#Cc1c(NC(C(C(C=C2)=O)=NN2c(cc2)ccc2F)=O)sc2c1CCCC2

>  <Color>  (714) 
ORANGE

>  <Collection>  (714) 
DC

>  <InChI>  (714) 
InChI=1S/C20H15FN4O2S/c21-12-5-7-13(8-6-12)25-10-9-16(26)18(24-25)19(27)23-20-15(11-22)14-3-1-2-4-17(14)28-20/h5-10H,1-4H2,(H,23,27)

>  <InChI Key>  (714) 
UJFVGTULZIDTAR-UHFFFAOYSA-N

>  <PERCENTSP3>  (714) 
20

>  <Link>  (714) 
https://www.chemdiv.com/catalog/screening-compounds/compound-D223-0959/

>  <MFCDNUMBER>  (714) 
MFCD08285699

>  <CLNUMBER>  (714) 
CL6185

>  <STEREO>  (714) 
ACHIRAL

>  <State>  (714) 
Solid

>  <Similarity score>  (714) 
0.22

$$$$
N-(3-cyano-5,6-dihydro-4H-cyclopenta[b]thiophen-2-yl)-7-methoxy-4,5-dihydronapht
     RDKit          2D

 28 32  0  0  0  0  0  0  0  0999 V2000
   -1.2330   -2.7196    0.0000 C   0  0  0  0  0  0  0  0  0  0  0  0
   -0.4167    0.4024    0.0000 C   0  0  0  0  0  0  0  0  0  0  0  0
   -0.6289   -3.4984    0.0000 C   0  0  0  0  0  0  0  0  0  0  0  0
    0.3680    0.9781    0.0000 C   0  0  0  0  0  0  0  0  0  0  0  0
    0.0844    1.9001    0.0000 C   0  0  0  0  0  0  0  0  0  0  0  0
   -1.1872    0.9868    0.0000 N   0  0  0  0  0  0  0  0  0  0  0  0
   -2.1722   -3.0574    0.0000 S   0  0  0  0  0  0  0  0  0  0  0  0
   -0.3710   -1.2128    0.0000 C   0  0  0  0  0  0  0  0  0  0  0  0
   -1.1729   -4.3262    0.0000 C   0  0  0  0  0  0  0  0  0  0  0  0
   -0.8834    1.9001    0.0000 O   0  0  0  0  0  0  0  0  0  0  0  0
   -1.2330   -1.7142    0.0000 N   0  0  0  0  0  0  0  0  0  0  0  0
   -2.1265   -4.0426    0.0000 C   0  0  0  0  0  0  0  0  0  0  0  0
    0.7319    2.6134    0.0000 C   0  0  0  0  0  0  0  0  0  0  0  0
    0.3797   -3.4612    0.0000 C   0  0  0  0  0  0  0  0  0  0  0  0
    1.6711    2.4012    0.0000 C   0  0  0  0  0  0  0  0  0  0  0  0
    1.3188    0.7661    0.0000 C   0  0  0  0  0  0  0  0  0  0  0  0
    1.3790   -3.4210    0.0000 N   0  0  0  0  0  0  0  0  0  0  0  0
    0.4453    3.5355    0.0000 C   0  0  0  0  0  0  0  0  0  0  0  0
    0.4538   -1.7284    0.0000 O   0  0  0  0  0  0  0  0  0  0  0  0
    1.9691    1.4878    0.0000 C   0  0  0  0  0  0  0  0  0  0  0  0
    2.3213    3.1117    0.0000 C   0  0  0  0  0  0  0  0  0  0  0  0
    2.0347    4.0369    0.0000 C   0  0  0  0  0  0  0  0  0  0  0  0
    1.0956    4.2485    0.0000 C   0  0  0  0  0  0  0  0  0  0  0  0
   -1.1271   -5.3284    0.0000 C   0  0  0  0  0  0  0  0  0  0  0  0
   -2.6850   -4.8847    0.0000 C   0  0  0  0  0  0  0  0  0  0  0  0
    2.6850    4.7468    0.0000 O   0  0  0  0  0  0  0  0  0  0  0  0
   -2.0808   -5.6720    0.0000 C   0  0  0  0  0  0  0  0  0  0  0  0
    2.3987    5.6720    0.0000 C   0  0  0  0  0  0  0  0  0  0  0  0
  2  8  1  0
  1  3  2  0
  2  4  1  0
  4  5  2  0
  5 10  1  0
  2  6  2  0
  1  7  1  0
  8 11  1  0
  3  9  1  0
  9 12  2  0
  6 10  1  0
  1 11  1  0
  7 12  1  0
  5 13  1  0
 13 15  2  0
  3 14  1  0
 15 20  1  0
  4 16  1  0
 14 17  3  0
 13 18  1  0
  8 19  2  0
 16 20  1  0
 15 21  1  0
 21 22  2  0
 22 23  1  0
 18 23  2  0
  9 24  1  0
 12 25  1  0
 22 26  1  0
 25 27  1  0
 24 27  1  0
 26 28  1  0
M  END
>  <IDNUMBER>  (715) 
C226-4085

>  <available>  (715) 
136

>  <H_acceptor>  (715) 
6

>  <H_donor>  (715) 
1

>  <B_rotN>  (715) 
5

>  <N_O>  (715) 
6

>  <logP>  (715) 
4.5266

>  <logD>  (715) 
2.7336

>  <logSw>  (715) 
-4.498

>  <PSA>  (715) 
70.091

>  <pKa_ma>  (715) 
5.614

>  <pKa_mb>  (715) 
-6.2231

>  <N_Chirals>  (715) 
0

>  <Name>  (715) 
N-(3-cyano-5,6-dihydro-4H-cyclopenta[b]thiophen-2-yl)-7-methoxy-4,5-dihydronaphtho[2,1-d][1,2]oxazole-3-carboxamide

>  <Smile>  (715) 
COc(cc1)cc(CC2)c1-c1c2c(C(Nc(sc2c3CCC2)c3C#N)=O)no1

>  <Color>  (715) 
PINK

>  <Collection>  (715) 
DC

>  <InChI>  (715) 
InChI=1S/C21H17N3O3S/c1-26-12-6-8-13-11(9-12)5-7-15-18(24-27-19(13)15)20(25)23-21-16(10-22)14-3-2-4-17(14)28-21/h6,8-9H,2-5,7H2,1H3,(H,23,25)

>  <InChI Key>  (715) 
QQVXHZSFJVNFGU-UHFFFAOYSA-N

>  <PERCENTSP3>  (715) 
28.6

>  <Link>  (715) 
https://www.chemdiv.com/catalog/screening-compounds/compound-C226-4085/

>  <MFCDNUMBER>  (715) 
MFCD09783254

>  <CLNUMBER>  (715) 
CL6931

>  <STEREO>  (715) 
ACHIRAL

>  <State>  (715) 
Solid

>  <Similarity score>  (715) 
0.22

$$$$
N-(6-tert-butyl-3-cyano-4,5,6,7-tetrahydro-1-benzothiophen-2-yl)-1-(difluorometh
     RDKit          2D

 26 28  0  0  0  0  0  0  0  0999 V2000
   -1.2811   -0.4041    0.0000 C   0  0  0  0  0  0  0  0  0  0  0  0
   -2.2437   -0.3624    0.0000 C   0  0  0  0  0  0  0  0  0  0  0  0
   -1.6521    1.1375    0.0000 C   0  0  0  0  0  0  0  0  0  0  0  0
    1.7269   -2.2416    0.0000 N   0  0  0  0  0  0  0  0  0  0  0  0
   -2.4936    0.6083    0.0000 C   0  0  0  0  0  0  0  0  0  0  0  0
    0.7479   -2.1541    0.0000 C   0  0  0  0  0  0  0  0  0  0  0  0
   -0.8853    0.5041    0.0000 S   0  0  0  0  0  0  0  0  0  0  0  0
    1.9394   -3.2041    0.0000 N   0  0  0  0  0  0  0  0  0  0  0  0
   -0.7687   -1.2874    0.0000 N   0  0  0  0  0  0  0  0  0  0  0  0
    0.2314   -1.2874    0.0000 C   0  0  0  0  0  0  0  0  0  0  0  0
    0.3352   -3.0373    0.0000 C   0  0  0  0  0  0  0  0  0  0  0  0
    1.0978   -3.7206    0.0000 C   0  0  0  0  0  0  0  0  0  0  0  0
   -2.8771   -1.1500    0.0000 C   0  0  0  0  0  0  0  0  0  0  0  0
    2.8645   -3.6081    0.0000 C   0  0  0  0  0  0  0  0  0  0  0  0
   -1.7062    2.1457    0.0000 C   0  0  0  0  0  0  0  0  0  0  0  0
   -3.4977   -1.9416    0.0000 N   0  0  0  0  0  0  0  0  0  0  0  0
   -3.3812    1.0625    0.0000 C   0  0  0  0  0  0  0  0  0  0  0  0
   -2.5811    2.6123    0.0000 C   0  0  0  0  0  0  0  0  0  0  0  0
   -2.6520    3.6166    0.0000 C   0  0  0  0  0  0  0  0  0  0  0  0
    0.7271   -0.4083    0.0000 O   0  0  0  0  0  0  0  0  0  0  0  0
   -3.4271    2.0624    0.0000 C   0  0  0  0  0  0  0  0  0  0  0  0
    2.9894   -4.6040    0.0000 F   0  0  0  0  0  0  0  0  0  0  0  0
    3.6645   -3.0041    0.0000 F   0  0  0  0  0  0  0  0  0  0  0  0
   -2.7061    4.6040    0.0000 C   0  0  0  0  0  0  0  0  0  0  0  0
   -1.6438    3.6707    0.0000 C   0  0  0  0  0  0  0  0  0  0  0  0
   -3.6645    3.5500    0.0000 C   0  0  0  0  0  0  0  0  0  0  0  0
  1  2  2  0
  3  7  1  0
  4  6  2  0
  2  5  1  0
  3  5  2  0
  6 10  1  0
  1  7  1  0
  4  8  1  0
  8 12  1  0
  1  9  1  0
  9 10  1  0
  6 11  1  0
 11 12  2  0
  2 13  1  0
  8 14  1  0
  3 15  1  0
 13 16  3  0
  5 17  1  0
 15 18  1  0
 18 19  1  0
 10 20  2  0
 17 21  1  0
 18 21  1  0
 14 22  1  0
 14 23  1  0
 19 24  1  0
 19 25  1  0
 19 26  1  0
M  END
>  <IDNUMBER>  (716) 
Y500-1811

>  <available>  (716) 
9

>  <H_acceptor>  (716) 
4

>  <H_donor>  (716) 
1

>  <B_rotN>  (716) 
6

>  <N_O>  (716) 
5

>  <logP>  (716) 
3.8892

>  <logD>  (716) 
2.0878

>  <logSw>  (716) 
-4.2452

>  <PSA>  (716) 
53.863

>  <pKa_ma>  (716) 
5.6055

>  <pKa_mb>  (716) 
-2.7735

>  <N_Chirals>  (716) 
1

>  <Name>  (716) 
N-(6-tert-butyl-3-cyano-4,5,6,7-tetrahydro-1-benzothiophen-2-yl)-1-(difluoromethyl)-1H-pyrazole-3-carboxamide

>  <Smile>  (716) 
CC(C)(C)C(CC1)Cc2c1c(C#N)c(NC(c1nn(C(F)F)cc1)=O)s2

>  <Color>  (716) 
ORANGE

>  <Collection>  (716) 
DC

>  <InChI>  (716) 
InChI=1S/C18H20F2N4OS/c1-18(2,3)10-4-5-11-12(9-21)16(26-14(11)8-10)22-15(25)13-6-7-24(23-13)17(19)20/h6-7,10,17H,4-5,8H2,1-3H3,(H,22,25)/t10-/m1/s1

>  <InChI Key>  (716) 
POHVJROAWKQOKR-SNVBAGLBSA-N

>  <PERCENTSP3>  (716) 
50

>  <Link>  (716) 
https://www.chemdiv.com/catalog/screening-compounds/compound-Y500-1811/

>  <MFCDNUMBER>  (716) 
MFCD04043212

>  <STEREO>  (716) 
RACEMIC MIXTURE

>  <State>  (716) 
Solid

>  <Similarity score>  (716) 
0.22

$$$$
methyl 2-({1-[4-(1-methyl-1H-pyrazol-4-yl)-6-(trifluoromethyl)pyrimidin-2-yl]-1H
     RDKit          2D

 38 42  0  0  0  0  0  0  0  0999 V2000
    2.9007    0.1646    0.0000 C   0  0  0  0  0  0  0  0  0  0  0  0
    3.6927    0.7771    0.0000 C   0  0  0  0  0  0  0  0  0  0  0  0
   -2.3298    0.0436    0.0000 C   0  0  0  0  0  0  0  0  0  0  0  0
   -0.6127   -0.2647    0.0000 N   0  0  0  0  0  0  0  0  0  0  0  0
   -1.3837    0.3728    0.0000 N   0  0  0  0  0  0  0  0  0  0  0  0
    0.2417    0.2647    0.0000 C   0  0  0  0  0  0  0  0  0  0  0  0
    3.2549   -0.7898    0.0000 S   0  0  0  0  0  0  0  0  0  0  0  0
   -4.8137    0.9730    0.0000 C   0  0  0  0  0  0  0  0  0  0  0  0
    4.5261    0.2145    0.0000 C   0  0  0  0  0  0  0  0  0  0  0  0
    1.9671    0.5313    0.0000 N   0  0  0  0  0  0  0  0  0  0  0  0
   -3.1008    0.6898    0.0000 N   0  0  0  0  0  0  0  0  0  0  0  0
   -2.5006   -0.9483    0.0000 N   0  0  0  0  0  0  0  0  0  0  0  0
    4.2553   -0.7399    0.0000 C   0  0  0  0  0  0  0  0  0  0  0  0
    1.1836   -0.1022    0.0000 C   0  0  0  0  0  0  0  0  0  0  0  0
   -4.0427    0.3354    0.0000 C   0  0  0  0  0  0  0  0  0  0  0  0
   -3.4425   -1.3025    0.0000 C   0  0  0  0  0  0  0  0  0  0  0  0
   -3.6259   -2.2945    0.0000 C   0  0  0  0  0  0  0  0  0  0  0  0
    0.0083    1.2438    0.0000 C   0  0  0  0  0  0  0  0  0  0  0  0
   -6.3391    1.5232    0.0000 N   0  0  0  0  0  0  0  0  0  0  0  0
   -4.7888    1.9901    0.0000 C   0  0  0  0  0  0  0  0  0  0  0  0
    3.6717    1.8066    0.0000 C   0  0  0  0  0  0  0  0  0  0  0  0
   -5.7432    2.3191    0.0000 N   0  0  0  0  0  0  0  0  0  0  0  0
   -0.9919    1.3148    0.0000 C   0  0  0  0  0  0  0  0  0  0  0  0
   -4.2135   -0.6565    0.0000 C   0  0  0  0  0  0  0  0  0  0  0  0
   -5.7806    0.6898    0.0000 C   0  0  0  0  0  0  0  0  0  0  0  0
    1.3336   -1.0941    0.0000 O   0  0  0  0  0  0  0  0  0  0  0  0
    4.5261    2.3443    0.0000 O   0  0  0  0  0  0  0  0  0  0  0  0
   -4.6178   -2.1236    0.0000 F   0  0  0  0  0  0  0  0  0  0  0  0
   -2.6214   -2.4653    0.0000 F   0  0  0  0  0  0  0  0  0  0  0  0
   -3.7967   -3.2862    0.0000 F   0  0  0  0  0  0  0  0  0  0  0  0
    2.7757    2.2941    0.0000 O   0  0  0  0  0  0  0  0  0  0  0  0
    5.2971    0.6189    0.0000 C   0  0  0  0  0  0  0  0  0  0  0  0
    4.6719   -1.4734    0.0000 C   0  0  0  0  0  0  0  0  0  0  0  0
   -6.0306    3.2862    0.0000 C   0  0  0  0  0  0  0  0  0  0  0  0
    1.9089    1.7690    0.0000 C   0  0  0  0  0  0  0  0  0  0  0  0
    6.1808    0.1771    0.0000 C   0  0  0  0  0  0  0  0  0  0  0  0
    5.6388   -1.5860    0.0000 C   0  0  0  0  0  0  0  0  0  0  0  0
    6.3391   -0.8399    0.0000 C   0  0  0  0  0  0  0  0  0  0  0  0
  1  2  2  0
  3  5  1  0
  4  6  2  0
  4  5  1  0
  5 23  1  0
  6 14  1  0
  1  7  1  0
  8 15  1  0
  2  9  1  0
  1 10  1  0
  3 11  2  0
  3 12  1  0
  7 13  1  0
  9 13  2  0
 10 14  1  0
 11 15  1  0
 12 16  2  0
 16 17  1  0
  6 18  1  0
 19 25  2  0
 19 22  1  0
  8 20  2  0
  2 21  1  0
 20 22  1  0
 18 23  2  0
 16 24  1  0
 15 24  2  0
  8 25  1  0
 14 26  2  0
 21 27  2  0
 17 28  1  0
 17 29  1  0
 17 30  1  0
 21 31  1  0
  9 32  1  0
 13 33  1  0
 22 34  1  0
 31 35  1  0
 32 36  1  0
 36 38  1  0
 33 37  1  0
 37 38  1  0
M  END
>  <IDNUMBER>  (717) 
Y501-0442

>  <available>  (717) 
23

>  <H_acceptor>  (717) 
9

>  <H_donor>  (717) 
1

>  <B_rotN>  (717) 
8

>  <N_O>  (717) 
10

>  <logP>  (717) 
4.4421

>  <logD>  (717) 
1.8338

>  <logSw>  (717) 
-4.4681

>  <PSA>  (717) 
90.826

>  <pKa_ma>  (717) 
4.7928

>  <pKa_mb>  (717) 
3.3904

>  <N_Chirals>  (717) 
0

>  <Name>  (717) 
methyl 2-({1-[4-(1-methyl-1H-pyrazol-4-yl)-6-(trifluoromethyl)pyrimidin-2-yl]-1H-pyrazole-3-carbonyl}amino)-5,6,7,8-tetrahydro-4H-cyclohepta[b]thiophene-3-carboxylate

>  <Smile>  (717) 
Cn1ncc(-c2cc(C(F)(F)F)nc(-n(cc3)nc3C(Nc3c(C(OC)=O)c(CCCCC4)c4s3)=O)n2)c1

>  <Color>  (717) 
YELLOW

>  <Collection>  (717) 
DC

>  <InChI>  (717) 
InChI=1S/C24H22F3N7O3S/c1-33-12-13(11-28-33)16-10-18(24(25,26)27)30-23(29-16)34-9-8-15(32-34)20(35)31-21-19(22(36)37-2)14-6-4-3-5-7-17(14)38-21/h8-12H,3-7H2,1-2H3,(H,31,35)

>  <InChI Key>  (717) 
QOLHELYNCZZRES-UHFFFAOYSA-N

>  <PERCENTSP3>  (717) 
33.33

>  <Link>  (717) 
https://www.chemdiv.com/catalog/screening-compounds/compound-Y501-0442/

>  <MFCDNUMBER>  (717) 
MFCD08554543

>  <STEREO>  (717) 
ACHIRAL

>  <State>  (717) 
Solid

>  <Similarity score>  (717) 
0.22

$$$$
ethyl 2-({1-[4-(1-methyl-1H-pyrazol-4-yl)-6-(trifluoromethyl)pyrimidin-2-yl]-1H-
     RDKit          2D

 38 42  0  0  0  0  0  0  0  0999 V2000
    2.9336    0.5897    0.0000 C   0  0  0  0  0  0  0  0  0  0  0  0
    3.7089    1.2815    0.0000 C   0  0  0  0  0  0  0  0  0  0  0  0
   -2.2212    0.0228    0.0000 C   0  0  0  0  0  0  0  0  0  0  0  0
   -0.5125   -0.2105    0.0000 N   0  0  0  0  0  0  0  0  0  0  0  0
   -1.2752    0.3939    0.0000 N   0  0  0  0  0  0  0  0  0  0  0  0
    0.2875    0.3190    0.0000 C   0  0  0  0  0  0  0  0  0  0  0  0
    3.3380   -0.2938    0.0000 S   0  0  0  0  0  0  0  0  0  0  0  0
   -4.7091    0.9608    0.0000 C   0  0  0  0  0  0  0  0  0  0  0  0
    4.5674    0.7397    0.0000 C   0  0  0  0  0  0  0  0  0  0  0  0
    1.9461    0.8230    0.0000 N   0  0  0  0  0  0  0  0  0  0  0  0
   -3.0087    0.6646    0.0000 N   0  0  0  0  0  0  0  0  0  0  0  0
   -2.4087   -0.9606    0.0000 N   0  0  0  0  0  0  0  0  0  0  0  0
    4.3339   -0.2355    0.0000 C   0  0  0  0  0  0  0  0  0  0  0  0
    1.2710    0.0979    0.0000 C   0  0  0  0  0  0  0  0  0  0  0  0
   -3.9463    0.3312    0.0000 C   0  0  0  0  0  0  0  0  0  0  0  0
   -3.3421   -1.2940    0.0000 C   0  0  0  0  0  0  0  0  0  0  0  0
   -3.5505   -2.2899    0.0000 C   0  0  0  0  0  0  0  0  0  0  0  0
    0.0168    1.3022    0.0000 C   0  0  0  0  0  0  0  0  0  0  0  0
   -6.2426    1.5275    0.0000 N   0  0  0  0  0  0  0  0  0  0  0  0
   -4.7091    1.9690    0.0000 C   0  0  0  0  0  0  0  0  0  0  0  0
    3.6338    2.2774    0.0000 C   0  0  0  0  0  0  0  0  0  0  0  0
   -5.6425    2.2899    0.0000 N   0  0  0  0  0  0  0  0  0  0  0  0
   -0.9793    1.3022    0.0000 C   0  0  0  0  0  0  0  0  0  0  0  0
   -4.1047   -0.6646    0.0000 C   0  0  0  0  0  0  0  0  0  0  0  0
   -5.6925    0.6898    0.0000 C   0  0  0  0  0  0  0  0  0  0  0  0
    1.5544   -0.8730    0.0000 O   0  0  0  0  0  0  0  0  0  0  0  0
    4.4964    2.8193    0.0000 O   0  0  0  0  0  0  0  0  0  0  0  0
   -4.5339   -2.0774    0.0000 F   0  0  0  0  0  0  0  0  0  0  0  0
   -2.5546   -2.4857    0.0000 F   0  0  0  0  0  0  0  0  0  0  0  0
   -3.7463   -3.2733    0.0000 F   0  0  0  0  0  0  0  0  0  0  0  0
    2.7462    2.7066    0.0000 O   0  0  0  0  0  0  0  0  0  0  0  0
    5.5300    1.0564    0.0000 C   0  0  0  0  0  0  0  0  0  0  0  0
    5.0590   -0.8980    0.0000 C   0  0  0  0  0  0  0  0  0  0  0  0
   -5.9383    3.2733    0.0000 C   0  0  0  0  0  0  0  0  0  0  0  0
    1.9377    2.1650    0.0000 C   0  0  0  0  0  0  0  0  0  0  0  0
    6.2426    0.3562    0.0000 C   0  0  0  0  0  0  0  0  0  0  0  0
    6.0216   -0.6147    0.0000 C   0  0  0  0  0  0  0  0  0  0  0  0
    1.0376    2.6314    0.0000 C   0  0  0  0  0  0  0  0  0  0  0  0
  1  2  2  0
  3  5  1  0
  4  6  2  0
  4  5  1  0
  5 23  1  0
  6 14  1  0
  1  7  1  0
  8 15  1  0
  2  9  1  0
  9 13  2  0
  1 10  1  0
  3 11  2  0
  3 12  1  0
  7 13  1  0
 10 14  1  0
 11 15  1  0
 12 16  2  0
 16 17  1  0
  6 18  1  0
 19 25  2  0
 19 22  1  0
  8 20  2  0
  2 21  1  0
 20 22  1  0
 18 23  2  0
 16 24  1  0
 15 24  2  0
  8 25  1  0
 14 26  2  0
 21 27  2  0
 17 28  1  0
 17 29  1  0
 17 30  1  0
 21 31  1  0
  9 32  1  0
 13 33  1  0
 22 34  1  0
 31 35  1  0
 32 36  1  0
 33 37  1  0
 36 37  1  0
 35 38  1  0
M  END
>  <IDNUMBER>  (718) 
Y503-1753

>  <available>  (718) 
26

>  <H_acceptor>  (718) 
9

>  <H_donor>  (718) 
1

>  <B_rotN>  (718) 
9

>  <N_O>  (718) 
10

>  <logP>  (718) 
4.3285

>  <logD>  (718) 
1.7202

>  <logSw>  (718) 
-4.3838

>  <PSA>  (718) 
90.075

>  <pKa_ma>  (718) 
4.7928

>  <pKa_mb>  (718) 
3.3904

>  <N_Chirals>  (718) 
0

>  <Name>  (718) 
ethyl 2-({1-[4-(1-methyl-1H-pyrazol-4-yl)-6-(trifluoromethyl)pyrimidin-2-yl]-1H-pyrazole-3-carbonyl}amino)-4,5,6,7-tetrahydro-1-benzothiophene-3-carboxylate

>  <Smile>  (718) 
CCOC(c1c(NC(c(cc2)nn2-c2nc(-c3cn(C)nc3)cc(C(F)(F)F)n2)=O)sc2c1CCCC2)=O

>  <Color>  (718) 
YELLOW

>  <Collection>  (718) 
DC

>  <InChI>  (718) 
InChI=1S/C24H22F3N7O3S/c1-3-37-22(36)19-14-6-4-5-7-17(14)38-21(19)31-20(35)15-8-9-34(32-15)23-29-16(13-11-28-33(2)12-13)10-18(30-23)24(25,26)27/h8-12H,3-7H2,1-2H3,(H,31,35)

>  <InChI Key>  (718) 
AUADPSFYYONKOJ-UHFFFAOYSA-N

>  <PERCENTSP3>  (718) 
33.33

>  <Link>  (718) 
https://www.chemdiv.com/catalog/screening-compounds/compound-Y503-1753/

>  <MFCDNUMBER>  (718) 
MFCD04140180

>  <STEREO>  (718) 
ACHIRAL

>  <State>  (718) 
Solid

>  <Similarity score>  (718) 
0.22

$$$$
1-(4-chlorophenyl)-N-(3-cyano-4,5,6,7-tetrahydro-1-benzothiophen-2-yl)-4-oxo-1,4
     RDKit          2D

 29 32  0  0  0  0  0  0  0  0999 V2000
   -1.3565   -0.4398    0.0000 C   0  0  0  0  0  0  0  0  0  0  0  0
   -1.9477    0.3689    0.0000 C   0  0  0  0  0  0  0  0  0  0  0  0
    1.6394   -0.4497    0.0000 N   0  0  0  0  0  0  0  0  0  0  0  0
    1.1445   -1.3136    0.0000 C   0  0  0  0  0  0  0  0  0  0  0  0
   -1.9527   -1.2530    0.0000 S   0  0  0  0  0  0  0  0  0  0  0  0
    2.6451   -0.4398    0.0000 N   0  0  0  0  0  0  0  0  0  0  0  0
   -2.8925    0.0605    0.0000 C   0  0  0  0  0  0  0  0  0  0  0  0
    0.1441   -1.3188    0.0000 C   0  0  0  0  0  0  0  0  0  0  0  0
   -0.3561   -0.4497    0.0000 N   0  0  0  0  0  0  0  0  0  0  0  0
   -2.9028   -0.9399    0.0000 C   0  0  0  0  0  0  0  0  0  0  0  0
    1.6447   -2.1775    0.0000 C   0  0  0  0  0  0  0  0  0  0  0  0
    2.6551   -2.1675    0.0000 C   0  0  0  0  0  0  0  0  0  0  0  0
    3.1453   -1.3037    0.0000 C   0  0  0  0  0  0  0  0  0  0  0  0
   -1.6344    1.3186    0.0000 C   0  0  0  0  0  0  0  0  0  0  0  0
   -1.3767    2.2888    0.0000 N   0  0  0  0  0  0  0  0  0  0  0  0
    3.1300    0.4246    0.0000 C   0  0  0  0  0  0  0  0  0  0  0  0
   -0.3561   -2.1474    0.0000 O   0  0  0  0  0  0  0  0  0  0  0  0
    1.1545   -3.0466    0.0000 O   0  0  0  0  0  0  0  0  0  0  0  0
    4.1303    0.4246    0.0000 C   0  0  0  0  0  0  0  0  0  0  0  0
    2.6145    1.2885    0.0000 C   0  0  0  0  0  0  0  0  0  0  0  0
    4.1254    2.1725    0.0000 C   0  0  0  0  0  0  0  0  0  0  0  0
   -3.7513    0.5659    0.0000 C   0  0  0  0  0  0  0  0  0  0  0  0
    3.1148    2.1675    0.0000 C   0  0  0  0  0  0  0  0  0  0  0  0
    4.6306    1.2934    0.0000 C   0  0  0  0  0  0  0  0  0  0  0  0
   -3.7667   -1.4249    0.0000 C   0  0  0  0  0  0  0  0  0  0  0  0
    4.6154    3.0466    0.0000 Cl  0  0  0  0  0  0  0  0  0  0  0  0
   -4.6207    0.0807    0.0000 C   0  0  0  0  0  0  0  0  0  0  0  0
   -4.6306   -0.9197    0.0000 C   0  0  0  0  0  0  0  0  0  0  0  0
    0.1441    0.4141    0.0000 H   0  0  0  0  0  0  0  0  0  0  0  0
  1  2  2  0
  3  4  2  0
  4  8  1  0
  1  5  1  0
  3  6  1  0
  6 13  1  0
  2  7  1  0
  8  9  1  0
  1  9  1  0
  5 10  1  0
  7 10  2  0
  4 11  1  0
 11 12  1  0
 12 13  2  0
  2 14  1  0
 14 15  3  0
  6 16  1  0
  8 17  2  0
 11 18  2  0
 16 19  1  0
 16 20  2  0
 21 23  2  0
 21 24  1  0
  7 22  1  0
 20 23  1  0
 19 24  2  0
 10 25  1  0
 21 26  1  0
 22 27  1  0
 27 28  1  0
 25 28  1  0
  9 29  1  0
M  END
>  <IDNUMBER>  (719) 
D223-0889

>  <available>  (719) 
145

>  <H_acceptor>  (719) 
6

>  <H_donor>  (719) 
1

>  <B_rotN>  (719) 
5

>  <N_O>  (719) 
6

>  <logP>  (719) 
4.1115

>  <logD>  (719) 
-0.3714

>  <logSw>  (719) 
-4.9196

>  <PSA>  (719) 
66.511

>  <pKa_ma>  (719) 
2.9171

>  <pKa_mb>  (719) 
-0.7653

>  <N_Chirals>  (719) 
0

>  <Name>  (719) 
1-(4-chlorophenyl)-N-(3-cyano-4,5,6,7-tetrahydro-1-benzothiophen-2-yl)-4-oxo-1,4-dihydropyridazine-3-carboxamide

>  <Smile>  (719) 
N#Cc1c(NC(C(C(C=C2)=O)=NN2c(cc2)ccc2Cl)=O)sc2c1CCCC2

>  <Color>  (719) 
ORANGE

>  <Collection>  (719) 
DC

>  <InChI>  (719) 
InChI=1S/C20H15ClN4O2S/c21-12-5-7-13(8-6-12)25-10-9-16(26)18(24-25)19(27)23-20-15(11-22)14-3-1-2-4-17(14)28-20/h5-10H,1-4H2,(H,23,27)

>  <InChI Key>  (719) 
XCVOWLQISGMFTO-UHFFFAOYSA-N

>  <PERCENTSP3>  (719) 
20

>  <Link>  (719) 
https://www.chemdiv.com/catalog/screening-compounds/compound-D223-0889/

>  <MFCDNUMBER>  (719) 
MFCD08544874

>  <CLNUMBER>  (719) 
CL6185

>  <STEREO>  (719) 
ACHIRAL

>  <State>  (719) 
Solid

>  <Similarity score>  (719) 
0.22

$$$$
N-(3-cyano-4,5,6,7-tetrahydro-1-benzothiophen-2-yl)-6-cyclopropyl-3-(4-methoxyph
     RDKit          2D

 34 39  0  0  0  0  0  0  0  0999 V2000
    0.1208    1.0978    0.0000 C   0  0  0  0  0  0  0  0  0  0  0  0
    0.3457    2.0935    0.0000 C   0  0  0  0  0  0  0  0  0  0  0  0
    0.7833   -2.2935    0.0000 C   0  0  0  0  0  0  0  0  0  0  0  0
    1.4415   -3.0433    0.0000 C   0  0  0  0  0  0  0  0  0  0  0  0
    1.1081   -1.3435    0.0000 C   0  0  0  0  0  0  0  0  0  0  0  0
   -0.0458   -3.6808    0.0000 N   0  0  0  0  0  0  0  0  0  0  0  0
   -0.8707    1.0102    0.0000 S   0  0  0  0  0  0  0  0  0  0  0  0
   -0.5083    2.5934    0.0000 C   0  0  0  0  0  0  0  0  0  0  0  0
   -0.1332   -2.6809    0.0000 C   0  0  0  0  0  0  0  0  0  0  0  0
    0.7790    0.3562    0.0000 N   0  0  0  0  0  0  0  0  0  0  0  0
    0.4542   -0.5935    0.0000 C   0  0  0  0  0  0  0  0  0  0  0  0
    2.4206   -2.8559    0.0000 N   0  0  0  0  0  0  0  0  0  0  0  0
   -1.2706    1.9518    0.0000 C   0  0  0  0  0  0  0  0  0  0  0  0
    0.9291   -3.9057    0.0000 O   0  0  0  0  0  0  0  0  0  0  0  0
    2.7454   -1.9058    0.0000 C   0  0  0  0  0  0  0  0  0  0  0  0
    2.0913   -1.1560    0.0000 C   0  0  0  0  0  0  0  0  0  0  0  0
    1.2456    2.4975    0.0000 C   0  0  0  0  0  0  0  0  0  0  0  0
    3.7286   -1.7184    0.0000 C   0  0  0  0  0  0  0  0  0  0  0  0
    2.1371    2.9058    0.0000 N   0  0  0  0  0  0  0  0  0  0  0  0
    4.6701   -2.0435    0.0000 C   0  0  0  0  0  0  0  0  0  0  0  0
    4.4827   -1.0562    0.0000 C   0  0  0  0  0  0  0  0  0  0  0  0
   -1.0789   -2.3642    0.0000 C   0  0  0  0  0  0  0  0  0  0  0  0
   -0.5290   -0.7812    0.0000 O   0  0  0  0  0  0  0  0  0  0  0  0
   -1.8372   -3.0183    0.0000 C   0  0  0  0  0  0  0  0  0  0  0  0
   -1.2706   -1.3810    0.0000 C   0  0  0  0  0  0  0  0  0  0  0  0
   -2.9705   -1.7144    0.0000 C   0  0  0  0  0  0  0  0  0  0  0  0
   -0.6833    3.5599    0.0000 C   0  0  0  0  0  0  0  0  0  0  0  0
   -2.2205   -1.0562    0.0000 C   0  0  0  0  0  0  0  0  0  0  0  0
   -2.7787   -2.6933    0.0000 C   0  0  0  0  0  0  0  0  0  0  0  0
   -2.2288    2.2683    0.0000 C   0  0  0  0  0  0  0  0  0  0  0  0
   -3.9162   -1.3810    0.0000 O   0  0  0  0  0  0  0  0  0  0  0  0
   -4.6701   -2.0435    0.0000 C   0  0  0  0  0  0  0  0  0  0  0  0
   -1.6332    3.9057    0.0000 C   0  0  0  0  0  0  0  0  0  0  0  0
   -2.3955    3.2641    0.0000 C   0  0  0  0  0  0  0  0  0  0  0  0
  1  2  2  0
  3  5  1  0
  3  4  2  0
  5 11  1  0
  6  9  2  0
  6 14  1  0
  1  7  1  0
  2  8  1  0
  3  9  1  0
  1 10  1  0
 10 11  1  0
 12 15  2  0
  4 12  1  0
  7 13  1  0
  8 13  2  0
  4 14  1  0
 15 16  1  0
  5 16  2  0
  2 17  1  0
 15 18  1  0
 17 19  3  0
 18 20  1  0
 18 21  1  0
 20 21  1  0
  9 22  1  0
 11 23  2  0
 22 24  2  0
 22 25  1  0
 26 28  1  0
 26 29  2  0
  8 27  1  0
 25 28  2  0
 24 29  1  0
 13 30  1  0
 26 31  1  0
 31 32  1  0
 27 33  1  0
 30 34  1  0
 33 34  1  0
M  END
>  <IDNUMBER>  (720) 
Y505-2298

>  <available>  (720) 
17

>  <H_acceptor>  (720) 
7

>  <H_donor>  (720) 
1

>  <B_rotN>  (720) 
7

>  <N_O>  (720) 
7

>  <logP>  (720) 
5.6464

>  <logD>  (720) 
4.141

>  <logSw>  (720) 
-5.6909

>  <PSA>  (720) 
78.613

>  <pKa_ma>  (720) 
5.9084

>  <pKa_mb>  (720) 
-0.3426

>  <N_Chirals>  (720) 
0

>  <Name>  (720) 
N-(3-cyano-4,5,6,7-tetrahydro-1-benzothiophen-2-yl)-6-cyclopropyl-3-(4-methoxyphenyl)[1,2]oxazolo[5,4-b]pyridine-4-carboxamide

>  <Smile>  (720) 
COc(cc1)ccc1-c1noc2nc(C3CC3)cc(C(Nc(sc3c4CCCC3)c4C#N)=O)c12

>  <Color>  (720) 
BROWN

>  <Collection>  (720) 
DC

>  <InChI>  (720) 
InChI=1S/C26H22N4O3S/c1-32-16-10-8-15(9-11-16)23-22-18(12-20(14-6-7-14)28-25(22)33-30-23)24(31)29-26-19(13-27)17-4-2-3-5-21(17)34-26/h8-12,14H,2-7H2,1H3,(H,29,31)

>  <InChI Key>  (720) 
FSQSTPJPFLTSGF-UHFFFAOYSA-N

>  <PERCENTSP3>  (720) 
30.8

>  <Link>  (720) 
https://www.chemdiv.com/catalog/screening-compounds/compound-Y505-2298/

>  <MFCDNUMBER>  (720) 
MFCD10701920

>  <CLNUMBER>  (720) 
CL7490

>  <STEREO>  (720) 
ACHIRAL

>  <State>  (720) 
Solid

>  <Similarity score>  (720) 
0.22

$$$$
N-(6-tert-butyl-3-cyano-4,5,6,7-tetrahydro-1-benzothiophen-2-yl)-7-methoxy-4,5-d
     RDKit          2D

 33 37  0  0  0  0  0  0  0  0999 V2000
   -0.6047   -1.6597    0.0000 C   0  0  0  0  0  0  0  0  0  0  0  0
    0.2101    1.4626    0.0000 C   0  0  0  0  0  0  0  0  0  0  0  0
   -1.4111   -2.2203    0.0000 C   0  0  0  0  0  0  0  0  0  0  0  0
    0.9934    2.0375    0.0000 C   0  0  0  0  0  0  0  0  0  0  0  0
    0.7104    2.9580    0.0000 C   0  0  0  0  0  0  0  0  0  0  0  0
   -0.5591    2.0459    0.0000 N   0  0  0  0  0  0  0  0  0  0  0  0
   -0.1271   -3.2009    0.0000 C   0  0  0  0  0  0  0  0  0  0  0  0
   -1.1338   -3.1810    0.0000 C   0  0  0  0  0  0  0  0  0  0  0  0
    0.1956   -2.2632    0.0000 S   0  0  0  0  0  0  0  0  0  0  0  0
    0.2557   -0.1498    0.0000 C   0  0  0  0  0  0  0  0  0  0  0  0
   -0.2557    2.9580    0.0000 O   0  0  0  0  0  0  0  0  0  0  0  0
   -0.6047   -0.6505    0.0000 N   0  0  0  0  0  0  0  0  0  0  0  0
    1.3569    3.6701    0.0000 C   0  0  0  0  0  0  0  0  0  0  0  0
   -2.3546   -1.8858    0.0000 C   0  0  0  0  0  0  0  0  0  0  0  0
    2.2947    3.4583    0.0000 C   0  0  0  0  0  0  0  0  0  0  0  0
    1.9430    1.8257    0.0000 C   0  0  0  0  0  0  0  0  0  0  0  0
    0.3473   -4.0786    0.0000 C   0  0  0  0  0  0  0  0  0  0  0  0
   -3.3068   -1.5540    0.0000 N   0  0  0  0  0  0  0  0  0  0  0  0
   -1.6486   -4.0273    0.0000 C   0  0  0  0  0  0  0  0  0  0  0  0
   -0.1818   -4.9338    0.0000 C   0  0  0  0  0  0  0  0  0  0  0  0
    1.0708    4.5906    0.0000 C   0  0  0  0  0  0  0  0  0  0  0  0
    0.2958   -5.8259    0.0000 C   0  0  0  0  0  0  0  0  0  0  0  0
    1.0794   -0.6646    0.0000 O   0  0  0  0  0  0  0  0  0  0  0  0
    2.5922    2.5464    0.0000 C   0  0  0  0  0  0  0  0  0  0  0  0
    2.9437    4.1675    0.0000 C   0  0  0  0  0  0  0  0  0  0  0  0
   -1.1680   -4.9052    0.0000 C   0  0  0  0  0  0  0  0  0  0  0  0
    2.6576    5.0911    0.0000 C   0  0  0  0  0  0  0  0  0  0  0  0
    1.7198    5.3025    0.0000 C   0  0  0  0  0  0  0  0  0  0  0  0
    3.3068    5.8001    0.0000 O   0  0  0  0  0  0  0  0  0  0  0  0
   -0.6047   -6.2949    0.0000 C   0  0  0  0  0  0  0  0  0  0  0  0
    1.1853   -5.3626    0.0000 C   0  0  0  0  0  0  0  0  0  0  0  0
    0.7564   -6.7238    0.0000 C   0  0  0  0  0  0  0  0  0  0  0  0
    3.0211    6.7238    0.0000 C   0  0  0  0  0  0  0  0  0  0  0  0
  2 10  1  0
  1  3  2  0
  2  4  1  0
  4  5  2  0
  5 11  1  0
  2  6  2  0
  7  9  1  0
  7  8  2  0
  3  8  1  0
  1  9  1  0
 10 12  1  0
  6 11  1  0
  1 12  1  0
  5 13  1  0
 13 15  2  0
  3 14  1  0
 15 24  1  0
  4 16  1  0
  7 17  1  0
 14 18  3  0
  8 19  1  0
 17 20  1  0
 13 21  1  0
 20 22  1  0
 10 23  2  0
 16 24  1  0
 15 25  1  0
 19 26  1  0
 20 26  1  0
 25 27  2  0
 21 28  2  0
 27 28  1  0
 27 29  1  0
 22 30  1  0
 22 31  1  0
 22 32  1  0
 29 33  1  0
M  END
>  <IDNUMBER>  (721) 
C226-4089

>  <available>  (721) 
179

>  <H_acceptor>  (721) 
6

>  <H_donor>  (721) 
1

>  <B_rotN>  (721) 
6

>  <N_O>  (721) 
6

>  <logP>  (721) 
6.4941

>  <logD>  (721) 
4.7214

>  <logSw>  (721) 
-5.7453

>  <PSA>  (721) 
69.726

>  <pKa_ma>  (721) 
5.6347

>  <pKa_mb>  (721) 
-6.2231

>  <N_Chirals>  (721) 
1

>  <Name>  (721) 
N-(6-tert-butyl-3-cyano-4,5,6,7-tetrahydro-1-benzothiophen-2-yl)-7-methoxy-4,5-dihydronaphtho[2,1-d][1,2]oxazole-3-carboxamide

>  <Smile>  (721) 
CC(C)(C)C(CC1)Cc2c1c(C#N)c(NC(c1noc-3c1CCc1c3ccc(OC)c1)=O)s2

>  <Color>  (721) 
PINK

>  <Collection>  (721) 
DC

>  <InChI>  (721) 
InChI=1S/C26H27N3O3S/c1-26(2,3)15-6-9-18-20(13-27)25(33-21(18)12-15)28-24(30)22-19-8-5-14-11-16(31-4)7-10-17(14)23(19)32-29-22/h7,10-11,15H,5-6,8-9,12H2,1-4H3,(H,28,30)/t15-/m1/s1

>  <InChI Key>  (721) 
WFZSOGLSFMECFP-OAHLLOKOSA-N

>  <PERCENTSP3>  (721) 
42.3

>  <Link>  (721) 
https://www.chemdiv.com/catalog/screening-compounds/compound-C226-4089/

>  <MFCDNUMBER>  (721) 
MFCD09783258

>  <CLNUMBER>  (721) 
CL6931

>  <STEREO>  (721) 
RACEMIC MIXTURE

>  <State>  (721) 
Solid

>  <Similarity score>  (721) 
0.22

$$$$
N-(3-cyano-5,6,7,8-tetrahydro-4H-cyclohepta[b]thiophen-2-yl)-6-cyclopropyl-3-(4-
     RDKit          2D

 35 40  0  0  0  0  0  0  0  0999 V2000
    1.6182    0.6311    0.0000 C   0  0  0  0  0  0  0  0  0  0  0  0
    2.3057    1.3808    0.0000 C   0  0  0  0  0  0  0  0  0  0  0  0
   -0.2062   -1.7683    0.0000 C   0  0  0  0  0  0  0  0  0  0  0  0
    0.1813   -2.6888    0.0000 C   0  0  0  0  0  0  0  0  0  0  0  0
    0.3936   -0.9686    0.0000 C   0  0  0  0  0  0  0  0  0  0  0  0
   -1.4308   -2.8304    0.0000 N   0  0  0  0  0  0  0  0  0  0  0  0
    2.1181   -0.2145    0.0000 S   0  0  0  0  0  0  0  0  0  0  0  0
    3.2136    0.9559    0.0000 C   0  0  0  0  0  0  0  0  0  0  0  0
   -1.2058   -1.8557    0.0000 C   0  0  0  0  0  0  0  0  0  0  0  0
    0.6018    0.7560    0.0000 N   0  0  0  0  0  0  0  0  0  0  0  0
    0.0022   -0.0439    0.0000 C   0  0  0  0  0  0  0  0  0  0  0  0
    1.1768   -2.8055    0.0000 N   0  0  0  0  0  0  0  0  0  0  0  0
    3.0888   -0.0312    0.0000 C   0  0  0  0  0  0  0  0  0  0  0  0
   -0.5686   -3.3427    0.0000 O   0  0  0  0  0  0  0  0  0  0  0  0
    1.7766   -2.0059    0.0000 C   0  0  0  0  0  0  0  0  0  0  0  0
    1.3810   -1.0892    0.0000 C   0  0  0  0  0  0  0  0  0  0  0  0
    2.1348    2.3680    0.0000 C   0  0  0  0  0  0  0  0  0  0  0  0
    2.7679   -2.1307    0.0000 C   0  0  0  0  0  0  0  0  0  0  0  0
    1.9682    3.3427    0.0000 N   0  0  0  0  0  0  0  0  0  0  0  0
    3.5678   -2.7305    0.0000 C   0  0  0  0  0  0  0  0  0  0  0  0
    3.6926   -1.7309    0.0000 C   0  0  0  0  0  0  0  0  0  0  0  0
   -2.0056   -1.2558    0.0000 C   0  0  0  0  0  0  0  0  0  0  0  0
   -0.9935    0.0729    0.0000 O   0  0  0  0  0  0  0  0  0  0  0  0
   -2.9221   -1.6432    0.0000 C   0  0  0  0  0  0  0  0  0  0  0  0
   -1.8806   -0.2645    0.0000 C   0  0  0  0  0  0  0  0  0  0  0  0
   -3.6052   -0.0563    0.0000 C   0  0  0  0  0  0  0  0  0  0  0  0
    4.0801    1.4808    0.0000 C   0  0  0  0  0  0  0  0  0  0  0  0
   -2.6805    0.3355    0.0000 C   0  0  0  0  0  0  0  0  0  0  0  0
   -3.7177   -1.0435    0.0000 C   0  0  0  0  0  0  0  0  0  0  0  0
    3.7760   -0.7519    0.0000 C   0  0  0  0  0  0  0  0  0  0  0  0
   -4.4008    0.5478    0.0000 O   0  0  0  0  0  0  0  0  0  0  0  0
   -5.3172    0.1562    0.0000 C   0  0  0  0  0  0  0  0  0  0  0  0
    5.0048    1.1058    0.0000 C   0  0  0  0  0  0  0  0  0  0  0  0
    4.7675   -0.6811    0.0000 C   0  0  0  0  0  0  0  0  0  0  0  0
    5.3172    0.1562    0.0000 C   0  0  0  0  0  0  0  0  0  0  0  0
  1  2  2  0
  3  5  1  0
  3  4  2  0
  5 11  1  0
  6  9  2  0
  6 14  1  0
  1  7  1  0
  2  8  1  0
  3  9  1  0
  1 10  1  0
 10 11  1  0
 12 15  2  0
  4 12  1  0
  7 13  1  0
  8 13  2  0
  4 14  1  0
 15 16  1  0
  5 16  2  0
  2 17  1  0
 15 18  1  0
 17 19  3  0
 18 20  1  0
 18 21  1  0
 20 21  1  0
  9 22  1  0
 11 23  2  0
 22 24  2  0
 22 25  1  0
 26 28  1  0
 26 29  2  0
  8 27  1  0
 25 28  2  0
 24 29  1  0
 13 30  1  0
 26 31  1  0
 31 32  1  0
 27 33  1  0
 33 35  1  0
 30 34  1  0
 34 35  1  0
M  END
>  <IDNUMBER>  (722) 
Y505-2299

>  <available>  (722) 
17

>  <H_acceptor>  (722) 
7

>  <H_donor>  (722) 
1

>  <B_rotN>  (722) 
7

>  <N_O>  (722) 
7

>  <logP>  (722) 
6.1423

>  <logD>  (722) 
4.6369

>  <logSw>  (722) 
-5.6765

>  <PSA>  (722) 
78.944

>  <pKa_ma>  (722) 
5.9084

>  <pKa_mb>  (722) 
-0.3426

>  <N_Chirals>  (722) 
0

>  <Name>  (722) 
N-(3-cyano-5,6,7,8-tetrahydro-4H-cyclohepta[b]thiophen-2-yl)-6-cyclopropyl-3-(4-methoxyphenyl)[1,2]oxazolo[5,4-b]pyridine-4-carboxamide

>  <Smile>  (722) 
COc(cc1)ccc1-c1noc2nc(C3CC3)cc(C(Nc(sc3c4CCCCC3)c4C#N)=O)c12

>  <Color>  (722) 
BROWN

>  <Collection>  (722) 
DC

>  <InChI>  (722) 
InChI=1S/C27H24N4O3S/c1-33-17-11-9-16(10-12-17)24-23-19(13-21(15-7-8-15)29-26(23)34-31-24)25(32)30-27-20(14-28)18-5-3-2-4-6-22(18)35-27/h9-13,15H,2-8H2,1H3,(H,30,32)

>  <InChI Key>  (722) 
WVKCYYZLRAXGGS-UHFFFAOYSA-N

>  <PERCENTSP3>  (722) 
33.3

>  <Link>  (722) 
https://www.chemdiv.com/catalog/screening-compounds/compound-Y505-2299/

>  <MFCDNUMBER>  (722) 
MFCD10701637

>  <CLNUMBER>  (722) 
CL7490

>  <STEREO>  (722) 
ACHIRAL

>  <State>  (722) 
Solid

>  <Similarity score>  (722) 
0.22

$$$$
N-(3-cyano-4,5,6,7-tetrahydro-1-benzothiophen-2-yl)-6-(4H-1,2,4-triazol-4-yl)pyr
     RDKit          2D

 25 28  0  0  0  0  0  0  0  0999 V2000
    1.9308   -0.0896    0.0000 C   0  0  0  0  0  0  0  0  0  0  0  0
    2.9013   -0.3063    0.0000 C   0  0  0  0  0  0  0  0  0  0  0  0
    1.8433    0.9102    0.0000 S   0  0  0  0  0  0  0  0  0  0  0  0
   -3.1471   -1.2435    0.0000 N   0  0  0  0  0  0  0  0  0  0  0  0
    3.4136    0.5476    0.0000 C   0  0  0  0  0  0  0  0  0  0  0  0
    1.1684   -0.7435    0.0000 N   0  0  0  0  0  0  0  0  0  0  0  0
    2.7637    1.2976    0.0000 C   0  0  0  0  0  0  0  0  0  0  0  0
   -1.4227   -1.2435    0.0000 N   0  0  0  0  0  0  0  0  0  0  0  0
   -2.2807   -0.7435    0.0000 C   0  0  0  0  0  0  0  0  0  0  0  0
    0.3063   -1.2435    0.0000 C   0  0  0  0  0  0  0  0  0  0  0  0
   -4.2301   -2.4430    0.0000 N   0  0  0  0  0  0  0  0  0  0  0  0
   -4.7299   -1.5765    0.0000 N   0  0  0  0  0  0  0  0  0  0  0  0
    3.2929   -1.2310    0.0000 C   0  0  0  0  0  0  0  0  0  0  0  0
   -0.5561   -0.7435    0.0000 C   0  0  0  0  0  0  0  0  0  0  0  0
   -4.0593   -0.8393    0.0000 C   0  0  0  0  0  0  0  0  0  0  0  0
   -3.2553   -2.2390    0.0000 C   0  0  0  0  0  0  0  0  0  0  0  0
    2.6888   -2.0390    0.0000 N   0  0  0  0  0  0  0  0  0  0  0  0
    0.3063   -2.2431    0.0000 O   0  0  0  0  0  0  0  0  0  0  0  0
    4.4009    0.7311    0.0000 C   0  0  0  0  0  0  0  0  0  0  0  0
    3.0803    2.2473    0.0000 C   0  0  0  0  0  0  0  0  0  0  0  0
   -2.2807    0.2562    0.0000 C   0  0  0  0  0  0  0  0  0  0  0  0
   -0.5561    0.2562    0.0000 C   0  0  0  0  0  0  0  0  0  0  0  0
   -1.4227    0.7560    0.0000 C   0  0  0  0  0  0  0  0  0  0  0  0
    4.7299    1.6850    0.0000 C   0  0  0  0  0  0  0  0  0  0  0  0
    4.0634    2.4430    0.0000 C   0  0  0  0  0  0  0  0  0  0  0  0
  1  2  2  0
  1  3  1  0
  4  9  1  0
  2  5  1  0
  1  6  1  0
  3  7  1  0
  5  7  2  0
  8 14  2  0
  8  9  1  0
  9 21  2  0
  6 10  1  0
 11 16  2  0
 11 12  1  0
 12 15  2  0
  2 13  1  0
 10 14  1  0
  4 15  1  0
  4 16  1  0
 13 17  3  0
 10 18  2  0
  5 19  1  0
  7 20  1  0
 21 23  1  0
 14 22  1  0
 22 23  2  0
 19 24  1  0
 20 25  1  0
 24 25  1  0
M  END
>  <IDNUMBER>  (723) 
J015-0046

>  <available>  (723) 
24

>  <H_acceptor>  (723) 
6

>  <H_donor>  (723) 
1

>  <B_rotN>  (723) 
5

>  <N_O>  (723) 
7

>  <logP>  (723) 
2.7543

>  <logD>  (723) 
0.136

>  <logSw>  (723) 
-3.2333

>  <PSA>  (723) 
74.212

>  <pKa_ma>  (723) 
4.7827

>  <pKa_mb>  (723) 
3.1122

>  <N_Chirals>  (723) 
0

>  <Name>  (723) 
N-(3-cyano-4,5,6,7-tetrahydro-1-benzothiophen-2-yl)-6-(4H-1,2,4-triazol-4-yl)pyridine-2-carboxamide

>  <Smile>  (723) 
N#Cc1c(NC(c2nc(-n3cnnc3)ccc2)=O)sc2c1CCCC2

>  <Color>  (723) 
YELLOW

>  <Collection>  (723) 
DC

>  <InChI>  (723) 
InChI=1S/C17H14N6OS/c18-8-12-11-4-1-2-6-14(11)25-17(12)22-16(24)13-5-3-7-15(21-13)23-9-19-20-10-23/h3,5,7,9-10H,1-2,4,6H2,(H,22,24)

>  <InChI Key>  (723) 
NMKUQPFUBPTIQL-UHFFFAOYSA-N

>  <PERCENTSP3>  (723) 
23.5

>  <Link>  (723) 
https://www.chemdiv.com/catalog/screening-compounds/compound-J015-0046/

>  <MFCDNUMBER>  (723) 
MFCD27217774

>  <CLNUMBER>  (723) 
CL8311

>  <STEREO>  (723) 
ACHIRAL

>  <State>  (723) 
Solid

>  <Similarity score>  (723) 
0.22

$$$$
N-(3-cyano-6-methyl-4,5,6,7-tetrahydro-1-benzothiophen-2-yl)-1-methyl-1H-pyrazol
     RDKit          2D

 21 23  0  0  0  0  0  0  0  0999 V2000
    0.1729   -1.0356    0.0000 C   0  0  0  0  0  0  0  0  0  0  0  0
   -0.2562   -0.1396    0.0000 C   0  0  0  0  0  0  0  0  0  0  0  0
   -1.2438   -0.2814    0.0000 C   0  0  0  0  0  0  0  0  0  0  0  0
   -1.4147   -1.2647    0.0000 C   0  0  0  0  0  0  0  0  0  0  0  0
    2.7524   -0.4105    0.0000 C   0  0  0  0  0  0  0  0  0  0  0  0
   -0.5313   -1.7274    0.0000 S   0  0  0  0  0  0  0  0  0  0  0  0
    2.4440    0.5436    0.0000 N   0  0  0  0  0  0  0  0  0  0  0  0
    1.1647   -1.2189    0.0000 N   0  0  0  0  0  0  0  0  0  0  0  0
    2.1690   -1.2189    0.0000 C   0  0  0  0  0  0  0  0  0  0  0  0
    3.7526   -0.4105    0.0000 C   0  0  0  0  0  0  0  0  0  0  0  0
    3.2566    1.1314    0.0000 N   0  0  0  0  0  0  0  0  0  0  0  0
    0.2145    0.7523    0.0000 C   0  0  0  0  0  0  0  0  0  0  0  0
    0.6896    1.6481    0.0000 N   0  0  0  0  0  0  0  0  0  0  0  0
    4.0693    0.5436    0.0000 C   0  0  0  0  0  0  0  0  0  0  0  0
   -2.0066    0.3521    0.0000 C   0  0  0  0  0  0  0  0  0  0  0  0
   -2.3483   -1.6107    0.0000 C   0  0  0  0  0  0  0  0  0  0  0  0
    2.5732   -2.1274    0.0000 O   0  0  0  0  0  0  0  0  0  0  0  0
   -2.9401    0.0104    0.0000 C   0  0  0  0  0  0  0  0  0  0  0  0
   -3.1191   -0.9647    0.0000 C   0  0  0  0  0  0  0  0  0  0  0  0
    3.2482    2.1274    0.0000 C   0  0  0  0  0  0  0  0  0  0  0  0
   -4.0693   -1.3105    0.0000 C   0  0  0  0  0  0  0  0  0  0  0  0
  1  2  2  0
  2  3  1  0
  3  4  2  0
  4  6  1  0
  5  9  1  0
  1  6  1  0
  5  7  2  0
  1  8  1  0
  8  9  1  0
  5 10  1  0
  7 11  1  0
  2 12  1  0
 12 13  3  0
 10 14  2  0
 11 14  1  0
  3 15  1  0
  4 16  1  0
  9 17  2  0
 15 18  1  0
 18 19  1  0
 16 19  1  0
 11 20  1  0
 19 21  1  0
M  END
>  <IDNUMBER>  (724) 
Y501-3970

>  <available>  (724) 
16

>  <H_acceptor>  (724) 
4

>  <H_donor>  (724) 
1

>  <B_rotN>  (724) 
4

>  <N_O>  (724) 
5

>  <logP>  (724) 
2.4419

>  <logD>  (724) 
0.6404

>  <logSw>  (724) 
-2.8647

>  <PSA>  (724) 
54.793

>  <pKa_ma>  (724) 
5.6055

>  <pKa_mb>  (724) 
-2.0161

>  <N_Chirals>  (724) 
1

>  <Name>  (724) 
N-(3-cyano-6-methyl-4,5,6,7-tetrahydro-1-benzothiophen-2-yl)-1-methyl-1H-pyrazole-3-carboxamide

>  <Smile>  (724) 
CC(CC1)Cc2c1c(C#N)c(NC(c1nn(C)cc1)=O)s2

>  <Color>  (724) 
ORANGE

>  <Collection>  (724) 
DC

>  <InChI>  (724) 
InChI=1S/C15H16N4OS/c1-9-3-4-10-11(8-16)15(21-13(10)7-9)17-14(20)12-5-6-19(2)18-12/h5-6,9H,3-4,7H2,1-2H3,(H,17,20)/t9-/m1/s1

>  <InChI Key>  (724) 
JYULXJBSFJJZOZ-SECBINFHSA-N

>  <PERCENTSP3>  (724) 
40

>  <Link>  (724) 
https://www.chemdiv.com/catalog/screening-compounds/compound-Y501-3970/

>  <MFCDNUMBER>  (724) 
MFCD03075424

>  <STEREO>  (724) 
RACEMIC MIXTURE

>  <State>  (724) 
Solid

>  <Similarity score>  (724) 
0.22

$$$$
N-(3-cyano-5,6-dihydro-4H-cyclopenta[b]thiophen-2-yl)-1-[(2-fluorophenoxy)methyl
     RDKit          2D

 27 30  0  0  0  0  0  0  0  0999 V2000
   -2.7151   -0.4355    0.0000 C   0  0  0  0  0  0  0  0  0  0  0  0
   -3.6985   -0.3772    0.0000 C   0  0  0  0  0  0  0  0  0  0  0  0
   -0.7106   -0.4605    0.0000 C   0  0  0  0  0  0  0  0  0  0  0  0
   -2.3026    0.5104    0.0000 S   0  0  0  0  0  0  0  0  0  0  0  0
   -3.8903    0.5813    0.0000 C   0  0  0  0  0  0  0  0  0  0  0  0
    0.2854   -0.3646    0.0000 N   0  0  0  0  0  0  0  0  0  0  0  0
   -2.2149   -1.3232    0.0000 N   0  0  0  0  0  0  0  0  0  0  0  0
   -3.0653    1.1399    0.0000 C   0  0  0  0  0  0  0  0  0  0  0  0
   -1.2189   -1.3232    0.0000 C   0  0  0  0  0  0  0  0  0  0  0  0
    0.5022    0.6188    0.0000 N   0  0  0  0  0  0  0  0  0  0  0  0
   -1.1232    0.4605    0.0000 C   0  0  0  0  0  0  0  0  0  0  0  0
   -4.3404   -1.1191    0.0000 C   0  0  0  0  0  0  0  0  0  0  0  0
   -4.9738   -1.8692    0.0000 N   0  0  0  0  0  0  0  0  0  0  0  0
   -0.3688    1.1190    0.0000 C   0  0  0  0  0  0  0  0  0  0  0  0
    1.4023    1.0189    0.0000 C   0  0  0  0  0  0  0  0  0  0  0  0
    2.2149    0.4271    0.0000 O   0  0  0  0  0  0  0  0  0  0  0  0
   -0.7229   -2.1984    0.0000 O   0  0  0  0  0  0  0  0  0  0  0  0
    3.1278    0.8398    0.0000 C   0  0  0  0  0  0  0  0  0  0  0  0
    3.9528    0.2313    0.0000 C   0  0  0  0  0  0  0  0  0  0  0  0
   -4.6571    1.2523    0.0000 C   0  0  0  0  0  0  0  0  0  0  0  0
    3.8196   -0.7647    0.0000 F   0  0  0  0  0  0  0  0  0  0  0  0
   -3.2860    2.1232    0.0000 C   0  0  0  0  0  0  0  0  0  0  0  0
   -4.3028    2.1858    0.0000 C   0  0  0  0  0  0  0  0  0  0  0  0
    3.2485    1.8106    0.0000 C   0  0  0  0  0  0  0  0  0  0  0  0
    4.8531    0.6312    0.0000 C   0  0  0  0  0  0  0  0  0  0  0  0
    4.9738    1.6149    0.0000 C   0  0  0  0  0  0  0  0  0  0  0  0
    4.1611    2.1984    0.0000 C   0  0  0  0  0  0  0  0  0  0  0  0
  1  2  2  0
  3  9  1  0
  1  4  1  0
  2  5  1  0
  5  8  2  0
  3  6  2  0
  1  7  1  0
  4  8  1  0
  7  9  1  0
  6 10  1  0
 10 14  1  0
  3 11  1  0
  2 12  1  0
 12 13  3  0
 11 14  2  0
 10 15  1  0
 15 16  1  0
  9 17  2  0
 16 18  1  0
 18 19  2  0
  5 20  1  0
 20 23  1  0
 19 21  1  0
  8 22  1  0
 22 23  1  0
 18 24  1  0
 19 25  1  0
 25 26  2  0
 26 27  1  0
 24 27  2  0
M  END
>  <IDNUMBER>  (725) 
Y502-2880

>  <available>  (725) 
24

>  <H_acceptor>  (725) 
5

>  <H_donor>  (725) 
1

>  <B_rotN>  (725) 
7

>  <N_O>  (725) 
6

>  <logP>  (725) 
3.5506

>  <logD>  (725) 
1.7288

>  <logSw>  (725) 
-4.1361

>  <PSA>  (725) 
62.917

>  <pKa_ma>  (725) 
5.5848

>  <pKa_mb>  (725) 
-4.2107

>  <N_Chirals>  (725) 
0

>  <Name>  (725) 
N-(3-cyano-5,6-dihydro-4H-cyclopenta[b]thiophen-2-yl)-1-[(2-fluorophenoxy)methyl]-1H-pyrazole-3-carboxamide

>  <Smile>  (725) 
N#Cc1c(NC(c2nn(COc(cccc3)c3F)cc2)=O)sc2c1CCC2

>  <Color>  (725) 
ORANGE

>  <Collection>  (725) 
DC

>  <InChI>  (725) 
InChI=1S/C19H15FN4O2S/c20-14-5-1-2-6-16(14)26-11-24-9-8-15(23-24)18(25)22-19-13(10-21)12-4-3-7-17(12)27-19/h1-2,5-6,8-9H,3-4,7,11H2,(H,22,25)

>  <InChI Key>  (725) 
WBCDVCYYUWFBAD-UHFFFAOYSA-N

>  <PERCENTSP3>  (725) 
21.05

>  <Link>  (725) 
https://www.chemdiv.com/catalog/screening-compounds/compound-Y502-2880/

>  <MFCDNUMBER>  (725) 
MFCD04132503

>  <STEREO>  (725) 
ACHIRAL

>  <State>  (725) 
Solid

>  <Similarity score>  (725) 
0.22

$$$$
N-(3-cyano-4,5,6,7-tetrahydro-1-benzothiophen-2-yl)-1-[(2-fluorophenoxy)methyl]-
     RDKit          2D

 28 31  0  0  0  0  0  0  0  0999 V2000
   -2.6400   -0.6855    0.0000 C   0  0  0  0  0  0  0  0  0  0  0  0
   -3.6609   -0.5395    0.0000 C   0  0  0  0  0  0  0  0  0  0  0  0
   -0.6479   -0.6980    0.0000 C   0  0  0  0  0  0  0  0  0  0  0  0
   -2.1940    0.2228    0.0000 S   0  0  0  0  0  0  0  0  0  0  0  0
   -3.7942    0.4312    0.0000 C   0  0  0  0  0  0  0  0  0  0  0  0
    0.3480   -0.5895    0.0000 N   0  0  0  0  0  0  0  0  0  0  0  0
   -2.1564   -1.5605    0.0000 N   0  0  0  0  0  0  0  0  0  0  0  0
   -2.9442    0.9313    0.0000 C   0  0  0  0  0  0  0  0  0  0  0  0
   -1.1606   -1.5605    0.0000 C   0  0  0  0  0  0  0  0  0  0  0  0
    0.5647    0.3813    0.0000 N   0  0  0  0  0  0  0  0  0  0  0  0
   -1.0646    0.2228    0.0000 C   0  0  0  0  0  0  0  0  0  0  0  0
   -4.3318   -1.2313    0.0000 C   0  0  0  0  0  0  0  0  0  0  0  0
   -5.0360   -1.9606    0.0000 N   0  0  0  0  0  0  0  0  0  0  0  0
   -0.3103    0.8937    0.0000 C   0  0  0  0  0  0  0  0  0  0  0  0
    1.4647    0.7855    0.0000 C   0  0  0  0  0  0  0  0  0  0  0  0
    2.2775    0.2022    0.0000 O   0  0  0  0  0  0  0  0  0  0  0  0
   -0.6603   -2.4233    0.0000 O   0  0  0  0  0  0  0  0  0  0  0  0
    3.1900    0.5898    0.0000 C   0  0  0  0  0  0  0  0  0  0  0  0
    4.0025   -0.0063    0.0000 C   0  0  0  0  0  0  0  0  0  0  0  0
    3.8818   -1.0022    0.0000 F   0  0  0  0  0  0  0  0  0  0  0  0
   -4.6317    0.9313    0.0000 C   0  0  0  0  0  0  0  0  0  0  0  0
   -2.8982    1.9231    0.0000 C   0  0  0  0  0  0  0  0  0  0  0  0
    3.2983    1.5731    0.0000 C   0  0  0  0  0  0  0  0  0  0  0  0
    4.9152    0.3938    0.0000 C   0  0  0  0  0  0  0  0  0  0  0  0
   -4.6317    1.9482    0.0000 C   0  0  0  0  0  0  0  0  0  0  0  0
   -3.7860    2.4233    0.0000 C   0  0  0  0  0  0  0  0  0  0  0  0
    5.0360    1.3774    0.0000 C   0  0  0  0  0  0  0  0  0  0  0  0
    4.2111    1.9732    0.0000 C   0  0  0  0  0  0  0  0  0  0  0  0
  1  2  2  0
  3  9  1  0
  1  4  1  0
  2  5  1  0
  5  8  2  0
  3  6  2  0
  1  7  1  0
  4  8  1  0
  7  9  1  0
  6 10  1  0
 10 14  1  0
  3 11  1  0
  2 12  1  0
 12 13  3  0
 11 14  2  0
 10 15  1  0
 15 16  1  0
  9 17  2  0
 16 18  1  0
 18 19  2  0
 19 20  1  0
  5 21  1  0
  8 22  1  0
 18 23  1  0
 19 24  1  0
 24 27  2  0
 21 25  1  0
 25 26  1  0
 22 26  1  0
 27 28  1  0
 23 28  2  0
M  END
>  <IDNUMBER>  (726) 
Y502-2001

>  <available>  (726) 
13

>  <H_acceptor>  (726) 
5

>  <H_donor>  (726) 
1

>  <B_rotN>  (726) 
7

>  <N_O>  (726) 
6

>  <logP>  (726) 
3.9609

>  <logD>  (726) 
2.1594

>  <logSw>  (726) 
-4.4431

>  <PSA>  (726) 
62.551

>  <pKa_ma>  (726) 
5.6055

>  <pKa_mb>  (726) 
-4.2107

>  <N_Chirals>  (726) 
0

>  <Name>  (726) 
N-(3-cyano-4,5,6,7-tetrahydro-1-benzothiophen-2-yl)-1-[(2-fluorophenoxy)methyl]-1H-pyrazole-3-carboxamide

>  <Smile>  (726) 
N#Cc1c(NC(c2nn(COc(cccc3)c3F)cc2)=O)sc2c1CCCC2

>  <Color>  (726) 
NOT COLORED

>  <Collection>  (726) 
DC

>  <InChI>  (726) 
InChI=1S/C20H17FN4O2S/c21-15-6-2-3-7-17(15)27-12-25-10-9-16(24-25)19(26)23-20-14(11-22)13-5-1-4-8-18(13)28-20/h2-3,6-7,9-10H,1,4-5,8,12H2,(H,23,26)

>  <InChI Key>  (726) 
PZAFWIZMPOUBNK-UHFFFAOYSA-N

>  <PERCENTSP3>  (726) 
25

>  <Link>  (726) 
https://www.chemdiv.com/catalog/screening-compounds/compound-Y502-2001/

>  <MFCDNUMBER>  (726) 
MFCD04132766

>  <STEREO>  (726) 
ACHIRAL

>  <State>  (726) 
Solid

>  <Similarity score>  (726) 
0.22

$$$$
N-(3-cyano-5,6,7,8-tetrahydro-4H-cyclohepta[b]thiophen-2-yl)-1-[(2-fluorophenoxy
     RDKit          2D

 29 32  0  0  0  0  0  0  0  0999 V2000
   -2.6568   -0.7689    0.0000 C   0  0  0  0  0  0  0  0  0  0  0  0
   -3.6738   -0.6606    0.0000 C   0  0  0  0  0  0  0  0  0  0  0  0
   -0.6314   -0.8065    0.0000 C   0  0  0  0  0  0  0  0  0  0  0  0
   -2.2693    0.1396    0.0000 S   0  0  0  0  0  0  0  0  0  0  0  0
   -3.8697    0.3106    0.0000 C   0  0  0  0  0  0  0  0  0  0  0  0
    0.3771   -0.6981    0.0000 N   0  0  0  0  0  0  0  0  0  0  0  0
   -2.1359   -1.6691    0.0000 N   0  0  0  0  0  0  0  0  0  0  0  0
   -3.0069    0.7938    0.0000 C   0  0  0  0  0  0  0  0  0  0  0  0
   -1.1400   -1.6691    0.0000 C   0  0  0  0  0  0  0  0  0  0  0  0
    0.5814    0.2854    0.0000 N   0  0  0  0  0  0  0  0  0  0  0  0
   -1.0315    0.1271    0.0000 C   0  0  0  0  0  0  0  0  0  0  0  0
   -4.3449   -1.3900    0.0000 C   0  0  0  0  0  0  0  0  0  0  0  0
   -5.0365   -2.1276    0.0000 N   0  0  0  0  0  0  0  0  0  0  0  0
   -0.2772    0.7938    0.0000 C   0  0  0  0  0  0  0  0  0  0  0  0
    1.4941    0.6854    0.0000 C   0  0  0  0  0  0  0  0  0  0  0  0
    2.2943    0.0896    0.0000 O   0  0  0  0  0  0  0  0  0  0  0  0
   -0.6439   -2.5276    0.0000 O   0  0  0  0  0  0  0  0  0  0  0  0
    3.2154    0.4898    0.0000 C   0  0  0  0  0  0  0  0  0  0  0  0
    4.0279   -0.1021    0.0000 C   0  0  0  0  0  0  0  0  0  0  0  0
    3.9071   -1.1106    0.0000 F   0  0  0  0  0  0  0  0  0  0  0  0
   -4.7906    0.6981    0.0000 C   0  0  0  0  0  0  0  0  0  0  0  0
   -2.8402    1.7777    0.0000 C   0  0  0  0  0  0  0  0  0  0  0  0
    3.3236    1.4608    0.0000 C   0  0  0  0  0  0  0  0  0  0  0  0
    4.9364    0.2854    0.0000 C   0  0  0  0  0  0  0  0  0  0  0  0
   -5.0573    1.6566    0.0000 C   0  0  0  0  0  0  0  0  0  0  0  0
   -3.4945    2.5276    0.0000 C   0  0  0  0  0  0  0  0  0  0  0  0
    5.0573    1.2691    0.0000 C   0  0  0  0  0  0  0  0  0  0  0  0
    4.2322    1.8609    0.0000 C   0  0  0  0  0  0  0  0  0  0  0  0
   -4.4780    2.4693    0.0000 C   0  0  0  0  0  0  0  0  0  0  0  0
  1  2  2  0
  3  9  1  0
  1  4  1  0
  2  5  1  0
  5  8  2  0
  3  6  2  0
  1  7  1  0
  4  8  1  0
  7  9  1  0
  6 10  1  0
 10 14  1  0
  3 11  1  0
  2 12  1  0
 12 13  3  0
 11 14  2  0
 10 15  1  0
 15 16  1  0
  9 17  2  0
 16 18  1  0
 18 19  2  0
 19 20  1  0
  5 21  1  0
  8 22  1  0
 18 23  1  0
 19 24  1  0
 24 27  2  0
 21 25  1  0
 25 29  1  0
 22 26  1  0
 27 28  1  0
 23 28  2  0
 26 29  1  0
M  END
>  <IDNUMBER>  (727) 
Y502-2008

>  <available>  (727) 
23

>  <H_acceptor>  (727) 
5

>  <H_donor>  (727) 
1

>  <B_rotN>  (727) 
7

>  <N_O>  (727) 
6

>  <logP>  (727) 
4.4568

>  <logD>  (727) 
2.6554

>  <logSw>  (727) 
-4.5284

>  <PSA>  (727) 
62.882

>  <pKa_ma>  (727) 
5.6055

>  <pKa_mb>  (727) 
-4.2107

>  <N_Chirals>  (727) 
0

>  <Name>  (727) 
N-(3-cyano-5,6,7,8-tetrahydro-4H-cyclohepta[b]thiophen-2-yl)-1-[(2-fluorophenoxy)methyl]-1H-pyrazole-3-carboxamide

>  <Smile>  (727) 
N#Cc1c(NC(c2nn(COc(cccc3)c3F)cc2)=O)sc2c1CCCCC2

>  <Color>  (727) 
ORANGE

>  <Collection>  (727) 
DC

>  <InChI>  (727) 
InChI=1S/C21H19FN4O2S/c22-16-7-4-5-8-18(16)28-13-26-11-10-17(25-26)20(27)24-21-15(12-23)14-6-2-1-3-9-19(14)29-21/h4-5,7-8,10-11H,1-3,6,9,13H2,(H,24,27)

>  <InChI Key>  (727) 
SVYXNDQZLSWROV-UHFFFAOYSA-N

>  <PERCENTSP3>  (727) 
28.57

>  <Link>  (727) 
https://www.chemdiv.com/catalog/screening-compounds/compound-Y502-2008/

>  <MFCDNUMBER>  (727) 
MFCD04051158

>  <STEREO>  (727) 
ACHIRAL

>  <State>  (727) 
Solid

>  <Similarity score>  (727) 
0.22

$$$$
N-(3-cyano-6-methyl-4,5,6,7-tetrahydro-1-benzothiophen-2-yl)-1-[(2-fluorophenoxy
     RDKit          2D

 29 32  0  0  0  0  0  0  0  0999 V2000
   -2.5903   -1.1692    0.0000 C   0  0  0  0  0  0  0  0  0  0  0  0
   -3.5822   -1.0607    0.0000 C   0  0  0  0  0  0  0  0  0  0  0  0
   -3.7908   -0.0771    0.0000 C   0  0  0  0  0  0  0  0  0  0  0  0
   -2.9156    0.4188    0.0000 C   0  0  0  0  0  0  0  0  0  0  0  0
   -0.5772   -1.1818    0.0000 C   0  0  0  0  0  0  0  0  0  0  0  0
   -2.1777   -0.2605    0.0000 S   0  0  0  0  0  0  0  0  0  0  0  0
    0.4062   -0.9775    0.0000 N   0  0  0  0  0  0  0  0  0  0  0  0
   -2.0902   -2.0443    0.0000 N   0  0  0  0  0  0  0  0  0  0  0  0
   -1.0858   -2.0571    0.0000 C   0  0  0  0  0  0  0  0  0  0  0  0
    0.5023    0.0061    0.0000 N   0  0  0  0  0  0  0  0  0  0  0  0
   -1.0733   -0.3106    0.0000 C   0  0  0  0  0  0  0  0  0  0  0  0
   -4.2367   -1.8027    0.0000 C   0  0  0  0  0  0  0  0  0  0  0  0
   -4.9036   -2.5404    0.0000 N   0  0  0  0  0  0  0  0  0  0  0  0
   -0.3940    0.4312    0.0000 C   0  0  0  0  0  0  0  0  0  0  0  0
   -4.6370    0.4312    0.0000 C   0  0  0  0  0  0  0  0  0  0  0  0
   -2.9156    1.4109    0.0000 C   0  0  0  0  0  0  0  0  0  0  0  0
    1.4024    0.5022    0.0000 C   0  0  0  0  0  0  0  0  0  0  0  0
    2.2610   -0.0188    0.0000 O   0  0  0  0  0  0  0  0  0  0  0  0
   -0.5981   -2.9155    0.0000 O   0  0  0  0  0  0  0  0  0  0  0  0
    3.1363    0.4688    0.0000 C   0  0  0  0  0  0  0  0  0  0  0  0
    3.9951   -0.0564    0.0000 C   0  0  0  0  0  0  0  0  0  0  0  0
   -4.6242    1.4233    0.0000 C   0  0  0  0  0  0  0  0  0  0  0  0
    3.9823   -1.0607    0.0000 F   0  0  0  0  0  0  0  0  0  0  0  0
   -3.7658    1.9234    0.0000 C   0  0  0  0  0  0  0  0  0  0  0  0
    3.1572    1.4608    0.0000 C   0  0  0  0  0  0  0  0  0  0  0  0
    4.8828    0.4312    0.0000 C   0  0  0  0  0  0  0  0  0  0  0  0
   -3.7658    2.9155    0.0000 C   0  0  0  0  0  0  0  0  0  0  0  0
    4.9036    1.4109    0.0000 C   0  0  0  0  0  0  0  0  0  0  0  0
    4.0324    1.9441    0.0000 C   0  0  0  0  0  0  0  0  0  0  0  0
  1  2  2  0
  2  3  1  0
  3  4  2  0
  4  6  1  0
  5  9  1  0
  1  6  1  0
  5  7  2  0
  1  8  1  0
  8  9  1  0
  7 10  1  0
 10 14  1  0
  5 11  1  0
  2 12  1  0
 12 13  3  0
 11 14  2  0
  3 15  1  0
  4 16  1  0
 10 17  1  0
 17 18  1  0
  9 19  2  0
 18 20  1  0
 20 21  2  0
 15 22  1  0
 22 24  1  0
 21 23  1  0
 16 24  1  0
 20 25  1  0
 21 26  1  0
 26 28  2  0
 24 27  1  0
 28 29  1  0
 25 29  2  0
M  END
>  <IDNUMBER>  (728) 
Y502-2000

>  <available>  (728) 
15

>  <H_acceptor>  (728) 
5

>  <H_donor>  (728) 
1

>  <B_rotN>  (728) 
7

>  <N_O>  (728) 
6

>  <logP>  (728) 
4.3948

>  <logD>  (728) 
2.5934

>  <logSw>  (728) 
-4.4567

>  <PSA>  (728) 
62.551

>  <pKa_ma>  (728) 
5.6055

>  <pKa_mb>  (728) 
-4.2107

>  <N_Chirals>  (728) 
1

>  <Name>  (728) 
N-(3-cyano-6-methyl-4,5,6,7-tetrahydro-1-benzothiophen-2-yl)-1-[(2-fluorophenoxy)methyl]-1H-pyrazole-3-carboxamide

>  <Smile>  (728) 
CC(CC1)Cc2c1c(C#N)c(NC(c1nn(COc(cccc3)c3F)cc1)=O)s2

>  <Color>  (728) 
NOT COLORED

>  <Collection>  (728) 
DC

>  <InChI>  (728) 
InChI=1S/C21H19FN4O2S/c1-13-6-7-14-15(11-23)21(29-19(14)10-13)24-20(27)17-8-9-26(25-17)12-28-18-5-3-2-4-16(18)22/h2-5,8-9,13H,6-7,10,12H2,1H3,(H,24,27)/t13-/m1/s1

>  <InChI Key>  (728) 
KLRNUHNBQTXOKB-CYBMUJFWSA-N

>  <PERCENTSP3>  (728) 
28.57

>  <Link>  (728) 
https://www.chemdiv.com/catalog/screening-compounds/compound-Y502-2000/

>  <MFCDNUMBER>  (728) 
MFCD04132429

>  <STEREO>  (728) 
RACEMIC MIXTURE

>  <State>  (728) 
Solid

>  <Similarity score>  (728) 
0.21

$$$$
N-(3-cyano-4,5,6,7-tetrahydro-1-benzothiophen-2-yl)-5-(4-ethoxyphenyl)-7-methylp
     RDKit          2D

 33 37  0  0  0  0  0  0  0  0999 V2000
   -0.4836    0.0541    0.0000 C   0  0  0  0  0  0  0  0  0  0  0  0
   -0.4836    0.9840    0.0000 N   0  0  0  0  0  0  0  0  0  0  0  0
    3.6934   -0.4583    0.0000 C   0  0  0  0  0  0  0  0  0  0  0  0
    1.1130    0.9840    0.0000 N   0  0  0  0  0  0  0  0  0  0  0  0
    3.6934   -1.4423    0.0000 C   0  0  0  0  0  0  0  0  0  0  0  0
    1.1130    0.0541    0.0000 C   0  0  0  0  0  0  0  0  0  0  0  0
    0.3044   -0.3920    0.0000 C   0  0  0  0  0  0  0  0  0  0  0  0
   -1.2882   -0.3920    0.0000 N   0  0  0  0  0  0  0  0  0  0  0  0
    4.5439    0.0419    0.0000 S   0  0  0  0  0  0  0  0  0  0  0  0
    5.3691   -1.4423    0.0000 C   0  0  0  0  0  0  0  0  0  0  0  0
    2.8012    0.0541    0.0000 N   0  0  0  0  0  0  0  0  0  0  0  0
   -1.2882    1.4547    0.0000 C   0  0  0  0  0  0  0  0  0  0  0  0
    5.3691   -0.4583    0.0000 C   0  0  0  0  0  0  0  0  0  0  0  0
   -2.0717    0.0541    0.0000 C   0  0  0  0  0  0  0  0  0  0  0  0
   -2.0717    0.9840    0.0000 C   0  0  0  0  0  0  0  0  0  0  0  0
    1.9176   -0.4166    0.0000 C   0  0  0  0  0  0  0  0  0  0  0  0
    2.8431   -1.9343    0.0000 C   0  0  0  0  0  0  0  0  0  0  0  0
    1.9926   -2.4218    0.0000 N   0  0  0  0  0  0  0  0  0  0  0  0
   -2.8972   -0.4166    0.0000 C   0  0  0  0  0  0  0  0  0  0  0  0
    1.9176   -1.4088    0.0000 O   0  0  0  0  0  0  0  0  0  0  0  0
   -2.8972   -1.3713    0.0000 C   0  0  0  0  0  0  0  0  0  0  0  0
   -3.7475    0.0541    0.0000 C   0  0  0  0  0  0  0  0  0  0  0  0
   -4.5980   -1.3713    0.0000 C   0  0  0  0  0  0  0  0  0  0  0  0
    6.2321   -1.9090    0.0000 C   0  0  0  0  0  0  0  0  0  0  0  0
   -3.7475   -1.8802    0.0000 C   0  0  0  0  0  0  0  0  0  0  0  0
   -4.5980   -0.4166    0.0000 C   0  0  0  0  0  0  0  0  0  0  0  0
   -1.2882    2.4218    0.0000 C   0  0  0  0  0  0  0  0  0  0  0  0
    6.2321    0.0665    0.0000 C   0  0  0  0  0  0  0  0  0  0  0  0
   -5.4359   -1.8467    0.0000 O   0  0  0  0  0  0  0  0  0  0  0  0
   -6.2447   -1.3465    0.0000 C   0  0  0  0  0  0  0  0  0  0  0  0
    7.0950   -1.4088    0.0000 C   0  0  0  0  0  0  0  0  0  0  0  0
    7.0950   -0.4295    0.0000 C   0  0  0  0  0  0  0  0  0  0  0  0
   -7.0950   -1.8219    0.0000 C   0  0  0  0  0  0  0  0  0  0  0  0
  1  2  1  0
  3 11  1  0
  2  4  1  0
  4  6  2  0
  3  5  2  0
  6  7  1  0
  1  7  2  0
  1  8  1  0
  3  9  1  0
  5 10  1  0
 11 16  1  0
  2 12  1  0
 12 15  2  0
  9 13  1  0
 10 13  2  0
  8 14  2  0
 14 15  1  0
  6 16  1  0
  5 17  1  0
 17 18  3  0
 14 19  1  0
 16 20  2  0
 19 21  2  0
 19 22  1  0
 23 26  1  0
 10 24  1  0
 21 25  1  0
 23 25  2  0
 22 26  2  0
 12 27  1  0
 13 28  1  0
 23 29  1  0
 29 30  1  0
 24 31  1  0
 28 32  1  0
 31 32  1  0
 30 33  1  0
M  END
>  <IDNUMBER>  (729) 
Y508-2564

>  <available>  (729) 
6

>  <H_acceptor>  (729) 
6

>  <H_donor>  (729) 
1

>  <B_rotN>  (729) 
7

>  <N_O>  (729) 
7

>  <logP>  (729) 
5.2499

>  <logD>  (729) 
3.6239

>  <logSw>  (729) 
-5.0727

>  <PSA>  (729) 
66.354

>  <pKa_ma>  (729) 
5.7844

>  <pKa_mb>  (729) 
2.3568

>  <N_Chirals>  (729) 
0

>  <Name>  (729) 
N-(3-cyano-4,5,6,7-tetrahydro-1-benzothiophen-2-yl)-5-(4-ethoxyphenyl)-7-methylpyrazolo[1,5-a]pyrimidine-2-carboxamide

>  <Smile>  (729) 
CCOc(cc1)ccc1-c1nc2cc(C(Nc(sc3c4CCCC3)c4C#N)=O)nn2c(C)c1

>  <Color>  (729) 
BROWN

>  <Collection>  (729) 
DC

>  <InChI>  (729) 
InChI=1S/C25H23N5O2S/c1-3-32-17-10-8-16(9-11-17)20-12-15(2)30-23(27-20)13-21(29-30)24(31)28-25-19(14-26)18-6-4-5-7-22(18)33-25/h8-13H,3-7H2,1-2H3,(H,28,31)

>  <InChI Key>  (729) 
QTBXLRKAEKLXOO-UHFFFAOYSA-N

>  <PERCENTSP3>  (729) 
28

>  <Link>  (729) 
https://www.chemdiv.com/catalog/screening-compounds/compound-Y508-2564/

>  <MFCDNUMBER>  (729) 
MFCD01194507

>  <STEREO>  (729) 
ACHIRAL

>  <State>  (729) 
Solid

>  <Similarity score>  (729) 
0.21

$$$$
3-(2H-1,3-benzodioxol-5-yl)-N-(3-cyano-5,6-dihydro-4H-cyclopenta[b]thiophen-2-yl
     RDKit          2D

 32 37  0  0  0  0  0  0  0  0999 V2000
    1.5853    0.6562    0.0000 C   0  0  0  0  0  0  0  0  0  0  0  0
    2.5562    0.7187    0.0000 C   0  0  0  0  0  0  0  0  0  0  0  0
   -1.4105   -1.0770    0.0000 C   0  0  0  0  0  0  0  0  0  0  0  0
   -1.9062   -1.9438    0.0000 C   0  0  0  0  0  0  0  0  0  0  0  0
   -0.4147   -1.0770    0.0000 C   0  0  0  0  0  0  0  0  0  0  0  0
   -2.9896   -0.7438    0.0000 N   0  0  0  0  0  0  0  0  0  0  0  0
   -2.0854   -0.3396    0.0000 C   0  0  0  0  0  0  0  0  0  0  0  0
    1.2312    1.6270    0.0000 S   0  0  0  0  0  0  0  0  0  0  0  0
    2.8353    1.6646    0.0000 C   0  0  0  0  0  0  0  0  0  0  0  0
    1.0896   -0.2104    0.0000 N   0  0  0  0  0  0  0  0  0  0  0  0
    0.0811   -0.2104    0.0000 C   0  0  0  0  0  0  0  0  0  0  0  0
    2.0312    2.2478    0.0000 C   0  0  0  0  0  0  0  0  0  0  0  0
   -2.8853   -1.7271    0.0000 O   0  0  0  0  0  0  0  0  0  0  0  0
   -1.4105   -2.8104    0.0000 N   0  0  0  0  0  0  0  0  0  0  0  0
   -2.1105    0.6562    0.0000 C   0  0  0  0  0  0  0  0  0  0  0  0
    3.2062   -0.0689    0.0000 C   0  0  0  0  0  0  0  0  0  0  0  0
    3.8188   -0.8354    0.0000 N   0  0  0  0  0  0  0  0  0  0  0  0
   -3.0396    2.1229    0.0000 C   0  0  0  0  0  0  0  0  0  0  0  0
   -3.0022    1.1271    0.0000 C   0  0  0  0  0  0  0  0  0  0  0  0
    0.0811   -1.9438    0.0000 C   0  0  0  0  0  0  0  0  0  0  0  0
   -2.1980    2.6562    0.0000 C   0  0  0  0  0  0  0  0  0  0  0  0
   -3.8188    2.7605    0.0000 O   0  0  0  0  0  0  0  0  0  0  0  0
   -0.4147   -2.8104    0.0000 C   0  0  0  0  0  0  0  0  0  0  0  0
   -2.4521    3.6271    0.0000 O   0  0  0  0  0  0  0  0  0  0  0  0
   -0.4147    0.6562    0.0000 O   0  0  0  0  0  0  0  0  0  0  0  0
   -3.4479    3.6896    0.0000 C   0  0  0  0  0  0  0  0  0  0  0  0
   -1.2687    1.1937    0.0000 C   0  0  0  0  0  0  0  0  0  0  0  0
   -1.3062    2.1978    0.0000 C   0  0  0  0  0  0  0  0  0  0  0  0
    3.6396    2.2895    0.0000 C   0  0  0  0  0  0  0  0  0  0  0  0
    2.3146    3.2187    0.0000 C   0  0  0  0  0  0  0  0  0  0  0  0
    3.2938    3.2187    0.0000 C   0  0  0  0  0  0  0  0  0  0  0  0
    0.0937   -3.6896    0.0000 C   0  0  0  0  0  0  0  0  0  0  0  0
  1  2  2  0
  3  5  1  0
  3  4  2  0
  4 14  1  0
  5 11  1  0
  6  7  2  0
  3  7  1  0
  1  8  1  0
  2  9  1  0
  9 12  2  0
  1 10  1  0
 10 11  1  0
  8 12  1  0
  4 13  1  0
  6 13  1  0
 14 23  2  0
  7 15  1  0
  2 16  1  0
 16 17  3  0
 18 19  1  0
 18 21  2  0
 15 19  2  0
  5 20  2  0
 21 28  1  0
 18 22  1  0
 20 23  1  0
 21 24  1  0
 11 25  2  0
 22 26  1  0
 24 26  1  0
 15 27  1  0
 27 28  2  0
  9 29  1  0
 29 31  1  0
 12 30  1  0
 30 31  1  0
 23 32  1  0
M  END
>  <IDNUMBER>  (730) 
Y501-2683

>  <available>  (730) 
13

>  <H_acceptor>  (730) 
8

>  <H_donor>  (730) 
1

>  <B_rotN>  (730) 
5

>  <N_O>  (730) 
8

>  <logP>  (730) 
4.2591

>  <logD>  (730) 
2.7337

>  <logSw>  (730) 
-4.5644

>  <PSA>  (730) 
88.105

>  <pKa_ma>  (730) 
5.8877

>  <pKa_mb>  (730) 
-1.9333

>  <N_Chirals>  (730) 
0

>  <Name>  (730) 
3-(2H-1,3-benzodioxol-5-yl)-N-(3-cyano-5,6-dihydro-4H-cyclopenta[b]thiophen-2-yl)-6-methyl[1,2]oxazolo[5,4-b]pyridine-4-carboxamide

>  <Smile>  (730) 
Cc1cc(C(Nc(sc2c3CCC2)c3C#N)=O)c(c(-c(cc2)cc3c2OCO3)no2)c2n1

>  <Color>  (730) 
BROWN

>  <Collection>  (730) 
DC

>  <InChI>  (730) 
InChI=1S/C23H16N4O4S/c1-11-7-14(21(28)26-23-15(9-24)13-3-2-4-18(13)32-23)19-20(27-31-22(19)25-11)12-5-6-16-17(8-12)30-10-29-16/h5-8H,2-4,10H2,1H3,(H,26,28)

>  <InChI Key>  (730) 
GSFFRALGTHMSLX-UHFFFAOYSA-N

>  <PERCENTSP3>  (730) 
21.74

>  <Link>  (730) 
https://www.chemdiv.com/catalog/screening-compounds/compound-Y501-2683/

>  <MFCDNUMBER>  (730) 
MFCD08557785

>  <CLNUMBER>  (730) 
CL7490

>  <STEREO>  (730) 
ACHIRAL

>  <State>  (730) 
Solid

>  <Similarity score>  (730) 
0.21

$$$$
N-(3-cyano-5,6-dihydro-4H-cyclopenta[b]thiophen-2-yl)-6-methyl-3-phenyl[1,2]oxaz
     RDKit          2D

 29 33  0  0  0  0  0  0  0  0999 V2000
    1.0187   -0.7271    0.0000 C   0  0  0  0  0  0  0  0  0  0  0  0
    1.8186   -1.2853    0.0000 C   0  0  0  0  0  0  0  0  0  0  0  0
   -2.4021   -0.2022    0.0000 C   0  0  0  0  0  0  0  0  0  0  0  0
   -3.3354   -0.5645    0.0000 C   0  0  0  0  0  0  0  0  0  0  0  0
   -1.6187   -0.8271    0.0000 C   0  0  0  0  0  0  0  0  0  0  0  0
   -3.4311    1.0480    0.0000 N   0  0  0  0  0  0  0  0  0  0  0  0
    1.3521    0.2523    0.0000 S   0  0  0  0  0  0  0  0  0  0  0  0
    2.6352   -0.7188    0.0000 C   0  0  0  0  0  0  0  0  0  0  0  0
   -2.4562    0.7937    0.0000 C   0  0  0  0  0  0  0  0  0  0  0  0
    0.0895   -1.0895    0.0000 N   0  0  0  0  0  0  0  0  0  0  0  0
   -0.6855   -0.4645    0.0000 C   0  0  0  0  0  0  0  0  0  0  0  0
    2.3603    0.2354    0.0000 C   0  0  0  0  0  0  0  0  0  0  0  0
   -3.9686    0.2022    0.0000 O   0  0  0  0  0  0  0  0  0  0  0  0
   -3.4811   -1.5520    0.0000 N   0  0  0  0  0  0  0  0  0  0  0  0
    1.8354   -2.3019    0.0000 C   0  0  0  0  0  0  0  0  0  0  0  0
    1.8395   -3.2853    0.0000 N   0  0  0  0  0  0  0  0  0  0  0  0
   -1.7729   -1.8186    0.0000 C   0  0  0  0  0  0  0  0  0  0  0  0
   -2.7021   -2.1813    0.0000 C   0  0  0  0  0  0  0  0  0  0  0  0
   -0.5355    0.5186    0.0000 O   0  0  0  0  0  0  0  0  0  0  0  0
   -1.8313    1.5772    0.0000 C   0  0  0  0  0  0  0  0  0  0  0  0
    3.6477   -0.7312    0.0000 C   0  0  0  0  0  0  0  0  0  0  0  0
    3.1936    0.8147    0.0000 C   0  0  0  0  0  0  0  0  0  0  0  0
    3.9686    0.2022    0.0000 C   0  0  0  0  0  0  0  0  0  0  0  0
   -2.8521   -3.1687    0.0000 C   0  0  0  0  0  0  0  0  0  0  0  0
   -2.1979    2.5104    0.0000 C   0  0  0  0  0  0  0  0  0  0  0  0
   -0.8437    1.4229    0.0000 C   0  0  0  0  0  0  0  0  0  0  0  0
   -1.5729    3.2853    0.0000 C   0  0  0  0  0  0  0  0  0  0  0  0
   -0.2186    2.2061    0.0000 C   0  0  0  0  0  0  0  0  0  0  0  0
   -0.5855    3.1355    0.0000 C   0  0  0  0  0  0  0  0  0  0  0  0
  1  2  2  0
  3  5  1  0
  3  4  2  0
  5 11  1  0
  6  9  2  0
  6 13  1  0
  1  7  1  0
  2  8  1  0
  3  9  1  0
  1 10  1  0
 10 11  1  0
  7 12  1  0
  8 12  2  0
  4 13  1  0
 14 18  2  0
  4 14  1  0
  2 15  1  0
 15 16  3  0
  5 17  2  0
 17 18  1  0
 11 19  2  0
  9 20  1  0
  8 21  1  0
 12 22  1  0
 22 23  1  0
 21 23  1  0
 18 24  1  0
 20 25  1  0
 20 26  2  0
 25 27  2  0
 27 29  1  0
 26 28  1  0
 28 29  2  0
M  END
>  <IDNUMBER>  (731) 
Y501-2729

>  <available>  (731) 
10

>  <H_acceptor>  (731) 
6

>  <H_donor>  (731) 
1

>  <B_rotN>  (731) 
5

>  <N_O>  (731) 
6

>  <logP>  (731) 
4.1451

>  <logD>  (731) 
2.6197

>  <logSw>  (731) 
-4.59

>  <PSA>  (731) 
70.99

>  <pKa_ma>  (731) 
5.8877

>  <pKa_mb>  (731) 
-1.9333

>  <N_Chirals>  (731) 
0

>  <Name>  (731) 
N-(3-cyano-5,6-dihydro-4H-cyclopenta[b]thiophen-2-yl)-6-methyl-3-phenyl[1,2]oxazolo[5,4-b]pyridine-4-carboxamide

>  <Smile>  (731) 
Cc1cc(C(Nc(sc2c3CCC2)c3C#N)=O)c(c(-c2ccccc2)no2)c2n1

>  <Color>  (731) 
BROWN

>  <Collection>  (731) 
DC

>  <InChI>  (731) 
InChI=1S/C22H16N4O2S/c1-12-10-15(18-19(26-28-21(18)24-12)13-6-3-2-4-7-13)20(27)25-22-16(11-23)14-8-5-9-17(14)29-22/h2-4,6-7,10H,5,8-9H2,1H3,(H,25,27)

>  <InChI Key>  (731) 
GJEICPIYJGGZKP-UHFFFAOYSA-N

>  <PERCENTSP3>  (731) 
18.18

>  <Link>  (731) 
https://www.chemdiv.com/catalog/screening-compounds/compound-Y501-2729/

>  <MFCDNUMBER>  (731) 
MFCD08557909

>  <CLNUMBER>  (731) 
CL7490

>  <STEREO>  (731) 
ACHIRAL

>  <State>  (731) 
Solid

>  <Similarity score>  (731) 
0.21

$$$$
3-(2H-1,3-benzodioxol-5-yl)-N-(3-cyano-4,5,6,7-tetrahydro-1-benzothiophen-2-yl)-
     RDKit          2D

 33 38  0  0  0  0  0  0  0  0999 V2000
    1.6521   -0.6228    0.0000 C   0  0  0  0  0  0  0  0  0  0  0  0
    1.2438   -1.5478    0.0000 C   0  0  0  0  0  0  0  0  0  0  0  0
   -1.3437    1.0979    0.0000 C   0  0  0  0  0  0  0  0  0  0  0  0
   -1.8396    1.9730    0.0000 C   0  0  0  0  0  0  0  0  0  0  0  0
   -0.3436    1.0979    0.0000 C   0  0  0  0  0  0  0  0  0  0  0  0
   -2.9144    0.7729    0.0000 N   0  0  0  0  0  0  0  0  0  0  0  0
   -2.0021    0.3604    0.0000 C   0  0  0  0  0  0  0  0  0  0  0  0
    2.6519   -0.7228    0.0000 S   0  0  0  0  0  0  0  0  0  0  0  0
    1.9897   -2.2103    0.0000 C   0  0  0  0  0  0  0  0  0  0  0  0
    1.1563    0.2354    0.0000 N   0  0  0  0  0  0  0  0  0  0  0  0
    0.1564    0.2354    0.0000 C   0  0  0  0  0  0  0  0  0  0  0  0
    2.8645   -1.7229    0.0000 C   0  0  0  0  0  0  0  0  0  0  0  0
   -2.8146    1.7603    0.0000 O   0  0  0  0  0  0  0  0  0  0  0  0
   -1.3437    2.8353    0.0000 N   0  0  0  0  0  0  0  0  0  0  0  0
   -2.0396   -0.6353    0.0000 C   0  0  0  0  0  0  0  0  0  0  0  0
    0.2813   -1.7728    0.0000 C   0  0  0  0  0  0  0  0  0  0  0  0
   -0.6687   -2.0104    0.0000 N   0  0  0  0  0  0  0  0  0  0  0  0
   -2.9645   -2.0978    0.0000 C   0  0  0  0  0  0  0  0  0  0  0  0
   -2.9270   -1.0979    0.0000 C   0  0  0  0  0  0  0  0  0  0  0  0
    0.1564    1.9730    0.0000 C   0  0  0  0  0  0  0  0  0  0  0  0
   -2.1146   -2.6353    0.0000 C   0  0  0  0  0  0  0  0  0  0  0  0
   -3.7396   -2.7354    0.0000 O   0  0  0  0  0  0  0  0  0  0  0  0
   -0.3436    2.8353    0.0000 C   0  0  0  0  0  0  0  0  0  0  0  0
   -2.3772   -3.5936    0.0000 O   0  0  0  0  0  0  0  0  0  0  0  0
   -0.3436   -0.6228    0.0000 O   0  0  0  0  0  0  0  0  0  0  0  0
   -3.3771   -3.6561    0.0000 C   0  0  0  0  0  0  0  0  0  0  0  0
   -1.1937   -1.1603    0.0000 C   0  0  0  0  0  0  0  0  0  0  0  0
   -1.2313   -2.1602    0.0000 C   0  0  0  0  0  0  0  0  0  0  0  0
    1.9647   -3.1937    0.0000 C   0  0  0  0  0  0  0  0  0  0  0  0
    3.7396   -2.2228    0.0000 C   0  0  0  0  0  0  0  0  0  0  0  0
    0.1564    3.7187    0.0000 C   0  0  0  0  0  0  0  0  0  0  0  0
    2.8395   -3.7187    0.0000 C   0  0  0  0  0  0  0  0  0  0  0  0
    3.7144   -3.2311    0.0000 C   0  0  0  0  0  0  0  0  0  0  0  0
  1  2  2  0
  3  5  1  0
  3  4  2  0
  5 11  1  0
  6  7  2  0
  6 13  1  0
  3  7  1  0
  1  8  1  0
  2  9  1  0
  1 10  1  0
 10 11  1  0
  8 12  1  0
  9 12  2  0
  4 13  1  0
 14 23  2  0
  4 14  1  0
  7 15  1  0
  2 16  1  0
 16 17  3  0
 18 19  1  0
 15 19  2  0
  5 20  2  0
 21 28  1  0
 18 21  2  0
 18 22  1  0
 20 23  1  0
 21 24  1  0
 24 26  1  0
 11 25  2  0
 22 26  1  0
 15 27  1  0
 27 28  2  0
  9 29  1  0
 12 30  1  0
 23 31  1  0
 29 32  1  0
 30 33  1  0
 32 33  1  0
M  END
>  <IDNUMBER>  (732) 
Y501-6644

>  <available>  (732) 
8

>  <H_acceptor>  (732) 
8

>  <H_donor>  (732) 
1

>  <B_rotN>  (732) 
5

>  <N_O>  (732) 
8

>  <logP>  (732) 
4.6694

>  <logD>  (732) 
3.164

>  <logSw>  (732) 
-4.7313

>  <PSA>  (732) 
87.739

>  <pKa_ma>  (732) 
5.9084

>  <pKa_mb>  (732) 
-1.9333

>  <N_Chirals>  (732) 
0

>  <Name>  (732) 
3-(2H-1,3-benzodioxol-5-yl)-N-(3-cyano-4,5,6,7-tetrahydro-1-benzothiophen-2-yl)-6-methyl[1,2]oxazolo[5,4-b]pyridine-4-carboxamide

>  <Smile>  (732) 
Cc1cc(C(Nc(sc2c3CCCC2)c3C#N)=O)c(c(-c(cc2)cc3c2OCO3)no2)c2n1

>  <Color>  (732) 
BROWN

>  <Collection>  (732) 
DC

>  <InChI>  (732) 
InChI=1S/C24H18N4O4S/c1-12-8-15(22(29)27-24-16(10-25)14-4-2-3-5-19(14)33-24)20-21(28-32-23(20)26-12)13-6-7-17-18(9-13)31-11-30-17/h6-9H,2-5,11H2,1H3,(H,27,29)

>  <InChI Key>  (732) 
RNLJRMSRWMDHRK-UHFFFAOYSA-N

>  <PERCENTSP3>  (732) 
25

>  <Link>  (732) 
https://www.chemdiv.com/catalog/screening-compounds/compound-Y501-6644/

>  <MFCDNUMBER>  (732) 
MFCD08557730

>  <CLNUMBER>  (732) 
CL7490

>  <STEREO>  (732) 
ACHIRAL

>  <State>  (732) 
Solid

>  <Similarity score>  (732) 
0.21

$$$$
3-(2H-1,3-benzodioxol-5-yl)-N-(3-cyano-5,6,7,8-tetrahydro-4H-cyclohepta[b]thioph
     RDKit          2D

 34 39  0  0  0  0  0  0  0  0999 V2000
    1.6314    0.5605    0.0000 C   0  0  0  0  0  0  0  0  0  0  0  0
    2.3688    1.2728    0.0000 C   0  0  0  0  0  0  0  0  0  0  0  0
   -0.3521   -1.7019    0.0000 C   0  0  0  0  0  0  0  0  0  0  0  0
   -0.0188   -2.6478    0.0000 C   0  0  0  0  0  0  0  0  0  0  0  0
    0.2979   -0.9478    0.0000 C   0  0  0  0  0  0  0  0  0  0  0  0
   -1.6314   -2.6896    0.0000 N   0  0  0  0  0  0  0  0  0  0  0  0
   -1.3480   -1.7269    0.0000 C   0  0  0  0  0  0  0  0  0  0  0  0
    2.0730   -0.3063    0.0000 S   0  0  0  0  0  0  0  0  0  0  0  0
    3.2437    0.7853    0.0000 C   0  0  0  0  0  0  0  0  0  0  0  0
    0.6187    0.7521    0.0000 N   0  0  0  0  0  0  0  0  0  0  0  0
   -0.0312   -0.0063    0.0000 C   0  0  0  0  0  0  0  0  0  0  0  0
    3.0521   -0.1896    0.0000 C   0  0  0  0  0  0  0  0  0  0  0  0
   -0.8148   -3.2563    0.0000 O   0  0  0  0  0  0  0  0  0  0  0  0
    0.9604   -2.8354    0.0000 N   0  0  0  0  0  0  0  0  0  0  0  0
   -2.1271   -1.1062    0.0000 C   0  0  0  0  0  0  0  0  0  0  0  0
    2.2603    2.2605    0.0000 C   0  0  0  0  0  0  0  0  0  0  0  0
    2.1564    3.2563    0.0000 N   0  0  0  0  0  0  0  0  0  0  0  0
   -3.8353   -0.8521    0.0000 C   0  0  0  0  0  0  0  0  0  0  0  0
   -3.0521   -1.4771    0.0000 C   0  0  0  0  0  0  0  0  0  0  0  0
    1.2852   -1.1313    0.0000 C   0  0  0  0  0  0  0  0  0  0  0  0
   -3.6937    0.1312    0.0000 C   0  0  0  0  0  0  0  0  0  0  0  0
   -4.8230   -1.0270    0.0000 O   0  0  0  0  0  0  0  0  0  0  0  0
    1.6147   -2.0770    0.0000 C   0  0  0  0  0  0  0  0  0  0  0  0
   -4.5978    0.5647    0.0000 O   0  0  0  0  0  0  0  0  0  0  0  0
   -1.0146    0.1772    0.0000 O   0  0  0  0  0  0  0  0  0  0  0  0
   -5.2896   -0.1479    0.0000 C   0  0  0  0  0  0  0  0  0  0  0  0
   -1.9729   -0.1228    0.0000 C   0  0  0  0  0  0  0  0  0  0  0  0
   -2.7604    0.5063    0.0000 C   0  0  0  0  0  0  0  0  0  0  0  0
    4.1395    1.2522    0.0000 C   0  0  0  0  0  0  0  0  0  0  0  0
    3.6895   -0.9521    0.0000 C   0  0  0  0  0  0  0  0  0  0  0  0
    2.6063   -2.2686    0.0000 C   0  0  0  0  0  0  0  0  0  0  0  0
    5.0437    0.8148    0.0000 C   0  0  0  0  0  0  0  0  0  0  0  0
    4.6894   -0.9439    0.0000 C   0  0  0  0  0  0  0  0  0  0  0  0
    5.2896   -0.1479    0.0000 C   0  0  0  0  0  0  0  0  0  0  0  0
  1  2  2  0
  3  5  1  0
  3  4  2  0
  4 14  1  0
  5 11  1  0
  6  7  2  0
  3  7  1  0
  1  8  1  0
  2  9  1  0
  9 12  2  0
  1 10  1  0
 10 11  1  0
  8 12  1  0
  4 13  1  0
  6 13  1  0
 14 23  2  0
  7 15  1  0
  2 16  1  0
 16 17  3  0
 18 19  1  0
 18 21  2  0
 15 19  2  0
  5 20  2  0
 21 28  1  0
 18 22  1  0
 20 23  1  0
 21 24  1  0
 11 25  2  0
 22 26  1  0
 24 26  1  0
 15 27  1  0
 27 28  2  0
  9 29  1  0
 12 30  1  0
 23 31  1  0
 29 32  1  0
 32 34  1  0
 30 33  1  0
 33 34  1  0
M  END
>  <IDNUMBER>  (733) 
Y501-6656

>  <available>  (733) 
20

>  <H_acceptor>  (733) 
8

>  <H_donor>  (733) 
1

>  <B_rotN>  (733) 
5

>  <N_O>  (733) 
8

>  <logP>  (733) 
5.1653

>  <logD>  (733) 
3.6599

>  <logSw>  (733) 
-5.0627

>  <PSA>  (733) 
88.07

>  <pKa_ma>  (733) 
5.9084

>  <pKa_mb>  (733) 
-1.9333

>  <N_Chirals>  (733) 
0

>  <Name>  (733) 
3-(2H-1,3-benzodioxol-5-yl)-N-(3-cyano-5,6,7,8-tetrahydro-4H-cyclohepta[b]thiophen-2-yl)-6-methyl[1,2]oxazolo[5,4-b]pyridine-4-carboxamide

>  <Smile>  (733) 
Cc1cc(C(Nc(sc2c3CCCCC2)c3C#N)=O)c(c(-c(cc2)cc3c2OCO3)no2)c2n1

>  <Color>  (733) 
BROWN

>  <Collection>  (733) 
DC

>  <InChI>  (733) 
InChI=1S/C25H20N4O4S/c1-13-9-16(23(30)28-25-17(11-26)15-5-3-2-4-6-20(15)34-25)21-22(29-33-24(21)27-13)14-7-8-18-19(10-14)32-12-31-18/h7-10H,2-6,12H2,1H3,(H,28,30)

>  <InChI Key>  (733) 
LWINYZMOSDMBEP-UHFFFAOYSA-N

>  <PERCENTSP3>  (733) 
28

>  <Link>  (733) 
https://www.chemdiv.com/catalog/screening-compounds/compound-Y501-6656/

>  <MFCDNUMBER>  (733) 
MFCD08557486

>  <CLNUMBER>  (733) 
CL7490

>  <STEREO>  (733) 
ACHIRAL

>  <State>  (733) 
Solid

>  <Similarity score>  (733) 
0.21

$$$$
N-(6-tert-butyl-3-cyano-4,5,6,7-tetrahydro-1-benzothiophen-2-yl)-4,5-dihydronaph
     RDKit          2D

 31 35  0  0  0  0  0  0  0  0999 V2000
   -0.4173   -0.9279    0.0000 C   0  0  0  0  0  0  0  0  0  0  0  0
    0.4151    2.1390    0.0000 C   0  0  0  0  0  0  0  0  0  0  0  0
   -1.2250   -1.4828    0.0000 C   0  0  0  0  0  0  0  0  0  0  0  0
    1.2005    2.7138    0.0000 C   0  0  0  0  0  0  0  0  0  0  0  0
    0.8979    3.6353    0.0000 C   0  0  0  0  0  0  0  0  0  0  0  0
   -0.3555    2.7138    0.0000 N   0  0  0  0  0  0  0  0  0  0  0  0
    0.0607   -2.4661    0.0000 C   0  0  0  0  0  0  0  0  0  0  0  0
   -0.9473   -2.4463    0.0000 C   0  0  0  0  0  0  0  0  0  0  0  0
    0.3853   -1.5298    0.0000 S   0  0  0  0  0  0  0  0  0  0  0  0
    0.4447    0.5858    0.0000 C   0  0  0  0  0  0  0  0  0  0  0  0
   -0.0706    3.6203    0.0000 O   0  0  0  0  0  0  0  0  0  0  0  0
   -0.4173    0.0880    0.0000 N   0  0  0  0  0  0  0  0  0  0  0  0
    1.5446    4.3563    0.0000 C   0  0  0  0  0  0  0  0  0  0  0  0
   -2.1662   -1.1507    0.0000 C   0  0  0  0  0  0  0  0  0  0  0  0
    2.1368    2.5155    0.0000 C   0  0  0  0  0  0  0  0  0  0  0  0
    0.5364   -3.3430    0.0000 C   0  0  0  0  0  0  0  0  0  0  0  0
   -3.1201   -0.8213    0.0000 N   0  0  0  0  0  0  0  0  0  0  0  0
   -1.4601   -3.2934    0.0000 C   0  0  0  0  0  0  0  0  0  0  0  0
    0.0062   -4.2002    0.0000 C   0  0  0  0  0  0  0  0  0  0  0  0
    0.4842   -5.0919    0.0000 C   0  0  0  0  0  0  0  0  0  0  0  0
    2.4786    4.1504    0.0000 C   0  0  0  0  0  0  0  0  0  0  0  0
    1.2720    0.0880    0.0000 O   0  0  0  0  0  0  0  0  0  0  0  0
   -0.9822   -4.1704    0.0000 C   0  0  0  0  0  0  0  0  0  0  0  0
    2.7806    3.2414    0.0000 C   0  0  0  0  0  0  0  0  0  0  0  0
    1.2422    5.2703    0.0000 C   0  0  0  0  0  0  0  0  0  0  0  0
   -0.4173   -5.5628    0.0000 C   0  0  0  0  0  0  0  0  0  0  0  0
    1.3761   -4.6287    0.0000 C   0  0  0  0  0  0  0  0  0  0  0  0
    0.9449   -5.9911    0.0000 C   0  0  0  0  0  0  0  0  0  0  0  0
    3.1201    4.8764    0.0000 C   0  0  0  0  0  0  0  0  0  0  0  0
    1.8790    5.9911    0.0000 C   0  0  0  0  0  0  0  0  0  0  0  0
    2.8155    5.7929    0.0000 C   0  0  0  0  0  0  0  0  0  0  0  0
  2 10  1  0
  1  3  2  0
  2  4  1  0
  4  5  2  0
  5 11  1  0
  2  6  2  0
  7  9  1  0
  7  8  2  0
  3  8  1  0
  1  9  1  0
 10 12  1  0
  6 11  1  0
  1 12  1  0
  5 13  1  0
 13 21  2  0
  3 14  1  0
  4 15  1  0
  7 16  1  0
 14 17  3  0
  8 18  1  0
 16 19  1  0
 19 20  1  0
 21 24  1  0
 10 22  2  0
 18 23  1  0
 19 23  1  0
 15 24  1  0
 13 25  1  0
 20 26  1  0
 20 27  1  0
 20 28  1  0
 21 29  1  0
 25 30  2  0
 29 31  2  0
 30 31  1  0
M  END
>  <IDNUMBER>  (734) 
C226-3975

>  <available>  (734) 
196

>  <H_acceptor>  (734) 
5

>  <H_donor>  (734) 
1

>  <B_rotN>  (734) 
5

>  <N_O>  (734) 
5

>  <logP>  (734) 
6.3912

>  <logD>  (734) 
4.6185

>  <logSw>  (734) 
-5.717

>  <PSA>  (734) 
62.182

>  <pKa_ma>  (734) 
5.6347

>  <pKa_mb>  (734) 
-6.2231

>  <N_Chirals>  (734) 
1

>  <Name>  (734) 
N-(6-tert-butyl-3-cyano-4,5,6,7-tetrahydro-1-benzothiophen-2-yl)-4,5-dihydronaphtho[2,1-d][1,2]oxazole-3-carboxamide

>  <Smile>  (734) 
CC(C)(C)C(CC1)Cc2c1c(C#N)c(NC(c1noc-3c1CCc1c3cccc1)=O)s2

>  <Color>  (734) 
NOT COLORED

>  <Collection>  (734) 
DC

>  <InChI>  (734) 
InChI=1S/C25H25N3O2S/c1-25(2,3)15-9-11-17-19(13-26)24(31-20(17)12-15)27-23(29)21-18-10-8-14-6-4-5-7-16(14)22(18)30-28-21/h4-7,15H,8-12H2,1-3H3,(H,27,29)/t15-/m1/s1

>  <InChI Key>  (734) 
JDWZNYXLRZPBNZ-OAHLLOKOSA-N

>  <PERCENTSP3>  (734) 
40

>  <Link>  (734) 
https://www.chemdiv.com/catalog/screening-compounds/compound-C226-3975/

>  <MFCDNUMBER>  (734) 
MFCD09783182

>  <CLNUMBER>  (734) 
CL6931

>  <STEREO>  (734) 
RACEMIC MIXTURE

>  <State>  (734) 
Solid

>  <Similarity score>  (734) 
0.21

$$$$
N-(6-tert-butyl-3-cyano-4,5,6,7-tetrahydro-1-benzothiophen-2-yl)-6-methyl-3-phen
     RDKit          2D

 34 38  0  0  0  0  0  0  0  0999 V2000
   -0.2772   -1.0770    0.0000 C   0  0  0  0  0  0  0  0  0  0  0  0
    0.0270   -2.0227    0.0000 C   0  0  0  0  0  0  0  0  0  0  0  0
   -2.7520    1.4020    0.0000 C   0  0  0  0  0  0  0  0  0  0  0  0
   -3.7185    1.6687    0.0000 C   0  0  0  0  0  0  0  0  0  0  0  0
    1.3227   -0.9687    0.0000 C   0  0  0  0  0  0  0  0  0  0  0  0
    1.1188   -1.9102    0.0000 C   0  0  0  0  0  0  0  0  0  0  0  0
    0.4688   -0.4394    0.0000 S   0  0  0  0  0  0  0  0  0  0  0  0
   -2.5021    0.4355    0.0000 C   0  0  0  0  0  0  0  0  0  0  0  0
   -2.8270    3.0229    0.0000 N   0  0  0  0  0  0  0  0  0  0  0  0
   -2.2021    2.2354    0.0000 C   0  0  0  0  0  0  0  0  0  0  0  0
   -1.2853   -0.7977    0.0000 N   0  0  0  0  0  0  0  0  0  0  0  0
   -1.5354    0.1687    0.0000 C   0  0  0  0  0  0  0  0  0  0  0  0
   -3.7645    2.6687    0.0000 O   0  0  0  0  0  0  0  0  0  0  0  0
   -4.4310    0.9646    0.0000 N   0  0  0  0  0  0  0  0  0  0  0  0
   -0.4355   -2.8562    0.0000 C   0  0  0  0  0  0  0  0  0  0  0  0
    2.3061   -0.6478    0.0000 C   0  0  0  0  0  0  0  0  0  0  0  0
   -0.9187   -3.7062    0.0000 N   0  0  0  0  0  0  0  0  0  0  0  0
    1.8603   -2.6019    0.0000 C   0  0  0  0  0  0  0  0  0  0  0  0
    3.0102   -1.3186    0.0000 C   0  0  0  0  0  0  0  0  0  0  0  0
   -3.2145   -0.2645    0.0000 C   0  0  0  0  0  0  0  0  0  0  0  0
   -4.1769   -0.0021    0.0000 C   0  0  0  0  0  0  0  0  0  0  0  0
    3.9560   -1.0103    0.0000 C   0  0  0  0  0  0  0  0  0  0  0  0
   -0.8271    0.8688    0.0000 O   0  0  0  0  0  0  0  0  0  0  0  0
   -1.2312    2.4895    0.0000 C   0  0  0  0  0  0  0  0  0  0  0  0
    2.8352   -2.2853    0.0000 C   0  0  0  0  0  0  0  0  0  0  0  0
    3.6437   -0.0646    0.0000 C   0  0  0  0  0  0  0  0  0  0  0  0
    4.2600   -1.9437    0.0000 C   0  0  0  0  0  0  0  0  0  0  0  0
    4.8894   -0.7064    0.0000 C   0  0  0  0  0  0  0  0  0  0  0  0
   -4.8894   -0.7064    0.0000 C   0  0  0  0  0  0  0  0  0  0  0  0
   -0.5313    1.7771    0.0000 C   0  0  0  0  0  0  0  0  0  0  0  0
   -0.9728    3.4560    0.0000 C   0  0  0  0  0  0  0  0  0  0  0  0
    0.4355    2.0311    0.0000 C   0  0  0  0  0  0  0  0  0  0  0  0
   -0.0105    3.7062    0.0000 C   0  0  0  0  0  0  0  0  0  0  0  0
    0.6937    2.9978    0.0000 C   0  0  0  0  0  0  0  0  0  0  0  0
  1  2  2  0
  3  8  1  0
  3  4  2  0
  5  7  1  0
  5  6  2  0
  2  6  1  0
  1  7  1  0
  8 12  1  0
  9 10  2  0
  9 13  1  0
  3 10  1  0
  1 11  1  0
 11 12  1  0
  4 13  1  0
 14 21  2  0
  4 14  1  0
  2 15  1  0
  5 16  1  0
 15 17  3  0
  6 18  1  0
 16 19  1  0
 19 25  1  0
  8 20  2  0
 20 21  1  0
 19 22  1  0
 12 23  2  0
 10 24  1  0
 18 25  1  0
 22 26  1  0
 22 27  1  0
 22 28  1  0
 21 29  1  0
 24 30  2  0
 24 31  1  0
 30 32  1  0
 31 33  2  0
 33 34  1  0
 32 34  2  0
M  END
>  <IDNUMBER>  (735) 
Y501-3243

>  <available>  (735) 
22

>  <H_acceptor>  (735) 
6

>  <H_donor>  (735) 
1

>  <B_rotN>  (735) 
6

>  <N_O>  (735) 
6

>  <logP>  (735) 
6.1127

>  <logD>  (735) 
4.6073

>  <logSw>  (735) 
-5.8344

>  <PSA>  (735) 
70.624

>  <pKa_ma>  (735) 
5.9084

>  <pKa_mb>  (735) 
-1.9333

>  <N_Chirals>  (735) 
1

>  <Name>  (735) 
N-(6-tert-butyl-3-cyano-4,5,6,7-tetrahydro-1-benzothiophen-2-yl)-6-methyl-3-phenyl[1,2]oxazolo[5,4-b]pyridine-4-carboxamide

>  <Smile>  (735) 
CC(C)(C)C(CC1)Cc2c1c(C#N)c(NC(c1c(c(-c3ccccc3)no3)c3nc(C)c1)=O)s2

>  <Color>  (735) 
BROWN

>  <Collection>  (735) 
DC

>  <InChI>  (735) 
InChI=1S/C27H26N4O2S/c1-15-12-19(22-23(31-33-25(22)29-15)16-8-6-5-7-9-16)24(32)30-26-20(14-28)18-11-10-17(27(2,3)4)13-21(18)34-26/h5-9,12,17H,10-11,13H2,1-4H3,(H,30,32)/t17-/m1/s1

>  <InChI Key>  (735) 
UNLHKJVPYHSOBN-QGZVFWFLSA-N

>  <PERCENTSP3>  (735) 
33.33

>  <Link>  (735) 
https://www.chemdiv.com/catalog/screening-compounds/compound-Y501-3243/

>  <MFCDNUMBER>  (735) 
MFCD08558513

>  <CLNUMBER>  (735) 
CL7490

>  <STEREO>  (735) 
RACEMIC MIXTURE

>  <State>  (735) 
Solid

>  <Similarity score>  (735) 
0.21

$$$$
N-(3-cyano-5,6,7,8-tetrahydro-4H-cyclohepta[b]thiophen-2-yl)-5-(4-methoxyphenyl)
     RDKit          2D

 36 40  0  0  0  0  0  0  0  0999 V2000
    0.5365   -0.2635    0.0000 N   0  0  0  0  0  0  0  0  0  0  0  0
    0.9916    0.5443    0.0000 C   0  0  0  0  0  0  0  0  0  0  0  0
    0.9633   -1.0809    0.0000 C   0  0  0  0  0  0  0  0  0  0  0  0
   -3.2843   -0.2845    0.0000 C   0  0  0  0  0  0  0  0  0  0  0  0
   -0.4648   -0.2635    0.0000 N   0  0  0  0  0  0  0  0  0  0  0  0
   -3.7318    0.4760    0.0000 C   0  0  0  0  0  0  0  0  0  0  0  0
   -0.9084   -1.0655    0.0000 C   0  0  0  0  0  0  0  0  0  0  0  0
   -0.3699   -1.8546    0.0000 C   0  0  0  0  0  0  0  0  0  0  0  0
    1.9797   -1.0809    0.0000 N   0  0  0  0  0  0  0  0  0  0  0  0
    2.0044    0.5443    0.0000 C   0  0  0  0  0  0  0  0  0  0  0  0
   -3.7545   -1.1055    0.0000 S   0  0  0  0  0  0  0  0  0  0  0  0
   -5.0972   -0.3072    0.0000 C   0  0  0  0  0  0  0  0  0  0  0  0
    0.5480    1.3863    0.0000 C   0  0  0  0  0  0  0  0  0  0  0  0
    2.4594   -0.2389    0.0000 C   0  0  0  0  0  0  0  0  0  0  0  0
   -2.3647   -0.2845    0.0000 N   0  0  0  0  0  0  0  0  0  0  0  0
   -4.6668   -1.1055    0.0000 C   0  0  0  0  0  0  0  0  0  0  0  0
   -1.8926   -1.0655    0.0000 C   0  0  0  0  0  0  0  0  0  0  0  0
   -3.2102    1.3351    0.0000 C   0  0  0  0  0  0  0  0  0  0  0  0
   -2.7078    2.1864    0.0000 N   0  0  0  0  0  0  0  0  0  0  0  0
    3.4834   -0.2389    0.0000 C   0  0  0  0  0  0  0  0  0  0  0  0
   -2.4365   -1.9456    0.0000 O   0  0  0  0  0  0  0  0  0  0  0  0
    0.1042    2.2186    0.0000 F   0  0  0  0  0  0  0  0  0  0  0  0
    1.3956    1.8870    0.0000 F   0  0  0  0  0  0  0  0  0  0  0  0
   -0.2825    0.9045    0.0000 F   0  0  0  0  0  0  0  0  0  0  0  0
    4.0409    0.6012    0.0000 C   0  0  0  0  0  0  0  0  0  0  0  0
    3.9821   -1.0655    0.0000 C   0  0  0  0  0  0  0  0  0  0  0  0
    5.4839   -0.2237    0.0000 C   0  0  0  0  0  0  0  0  0  0  0  0
   -6.1058   -0.0415    0.0000 C   0  0  0  0  0  0  0  0  0  0  0  0
    4.9625   -1.0655    0.0000 C   0  0  0  0  0  0  0  0  0  0  0  0
    5.0079    0.6012    0.0000 C   0  0  0  0  0  0  0  0  0  0  0  0
   -5.0535   -2.0214    0.0000 C   0  0  0  0  0  0  0  0  0  0  0  0
    6.5308   -0.2237    0.0000 O   0  0  0  0  0  0  0  0  0  0  0  0
    6.9176    0.5575    0.0000 C   0  0  0  0  0  0  0  0  0  0  0  0
   -6.9176   -0.6503    0.0000 C   0  0  0  0  0  0  0  0  0  0  0  0
   -6.1458   -2.2186    0.0000 C   0  0  0  0  0  0  0  0  0  0  0  0
   -6.9176   -1.6498    0.0000 C   0  0  0  0  0  0  0  0  0  0  0  0
  1  2  1  0
  1  3  1  0
  4 15  1  0
  1  5  1  0
  4  6  2  0
  5  7  2  0
  3  8  2  0
  7  8  1  0
  3  9  1  0
  2 10  2  0
  4 11  1  0
  6 12  1  0
 12 16  2  0
  2 13  1  0
  9 14  2  0
 10 14  1  0
 15 17  1  0
 11 16  1  0
  7 17  1  0
  6 18  1  0
 18 19  3  0
 14 20  1  0
 17 21  2  0
 13 22  1  0
 13 23  1  0
 13 24  1  0
 20 25  2  0
 20 26  1  0
 27 29  1  0
 27 30  2  0
 12 28  1  0
 26 29  2  0
 25 30  1  0
 16 31  1  0
 27 32  1  0
 32 33  1  0
 28 34  1  0
 34 36  1  0
 31 35  1  0
 35 36  1  0
M  END
>  <IDNUMBER>  (736) 
K061-0672

>  <available>  (736) 
30

>  <H_acceptor>  (736) 
6

>  <H_donor>  (736) 
1

>  <B_rotN>  (736) 
7

>  <N_O>  (736) 
7

>  <logP>  (736) 
6.1437

>  <logD>  (736) 
4.5177

>  <logSw>  (736) 
-5.4014

>  <PSA>  (736) 
66.135

>  <pKa_ma>  (736) 
5.7844

>  <pKa_mb>  (736) 
1.3116

>  <N_Chirals>  (736) 
0

>  <Name>  (736) 
N-(3-cyano-5,6,7,8-tetrahydro-4H-cyclohepta[b]thiophen-2-yl)-5-(4-methoxyphenyl)-7-(trifluoromethyl)pyrazolo[1,5-a]pyrimidine-2-carboxamide

>  <Smile>  (736) 
COc(cc1)ccc1-c1nc2cc(C(Nc(sc3c4CCCCC3)c4C#N)=O)nn2c(C(F)(F)F)c1

>  <Color>  (736) 
YELLOW

>  <Collection>  (736) 
DC

>  <InChI>  (736) 
InChI=1S/C25H20F3N5O2S/c1-35-15-9-7-14(8-10-15)18-11-21(25(26,27)28)33-22(30-18)12-19(32-33)23(34)31-24-17(13-29)16-5-3-2-4-6-20(16)36-24/h7-12H,2-6H2,1H3,(H,31,34)

>  <InChI Key>  (736) 
UQKRFLNWZQVQAC-UHFFFAOYSA-N

>  <PERCENTSP3>  (736) 
28

>  <Link>  (736) 
https://www.chemdiv.com/catalog/screening-compounds/compound-K061-0672/

>  <MFCDNUMBER>  (736) 
MFCD01450817

>  <CLNUMBER>  (736) 
CL1652

>  <STEREO>  (736) 
ACHIRAL

>  <State>  (736) 
Solid

>  <Similarity score>  (736) 
0.20

$$$$
3-(2H-1,3-benzodioxol-5-yl)-N-(3-cyano-6-methyl-4,5,6,7-tetrahydro-1-benzothioph
     RDKit          2D

 34 39  0  0  0  0  0  0  0  0999 V2000
    1.2437   -0.6103    0.0000 C   0  0  0  0  0  0  0  0  0  0  0  0
    0.8437   -1.5476    0.0000 C   0  0  0  0  0  0  0  0  0  0  0  0
   -1.7560    1.1103    0.0000 C   0  0  0  0  0  0  0  0  0  0  0  0
   -2.2519    1.9852    0.0000 C   0  0  0  0  0  0  0  0  0  0  0  0
    1.5936   -2.1976    0.0000 C   0  0  0  0  0  0  0  0  0  0  0  0
    2.4517   -1.7102    0.0000 C   0  0  0  0  0  0  0  0  0  0  0  0
    2.2394   -0.7103    0.0000 S   0  0  0  0  0  0  0  0  0  0  0  0
   -0.7561    1.1103    0.0000 C   0  0  0  0  0  0  0  0  0  0  0  0
   -3.3267    0.7853    0.0000 N   0  0  0  0  0  0  0  0  0  0  0  0
   -2.4143    0.3729    0.0000 C   0  0  0  0  0  0  0  0  0  0  0  0
    0.7437    0.2479    0.0000 N   0  0  0  0  0  0  0  0  0  0  0  0
   -0.2562    0.2479    0.0000 C   0  0  0  0  0  0  0  0  0  0  0  0
   -3.2268    1.7727    0.0000 O   0  0  0  0  0  0  0  0  0  0  0  0
   -1.7560    2.8476    0.0000 N   0  0  0  0  0  0  0  0  0  0  0  0
   -2.4518   -0.6227    0.0000 C   0  0  0  0  0  0  0  0  0  0  0  0
   -0.1188   -1.7727    0.0000 C   0  0  0  0  0  0  0  0  0  0  0  0
   -1.0811   -2.0102    0.0000 N   0  0  0  0  0  0  0  0  0  0  0  0
   -3.3767   -2.0851    0.0000 C   0  0  0  0  0  0  0  0  0  0  0  0
    1.5811   -3.1851    0.0000 C   0  0  0  0  0  0  0  0  0  0  0  0
   -3.3392   -1.0853    0.0000 C   0  0  0  0  0  0  0  0  0  0  0  0
   -0.2562    1.9852    0.0000 C   0  0  0  0  0  0  0  0  0  0  0  0
    3.3392   -2.1976    0.0000 C   0  0  0  0  0  0  0  0  0  0  0  0
   -2.5269   -2.6225    0.0000 C   0  0  0  0  0  0  0  0  0  0  0  0
   -4.1516   -2.7225    0.0000 O   0  0  0  0  0  0  0  0  0  0  0  0
   -0.7561    2.8476    0.0000 C   0  0  0  0  0  0  0  0  0  0  0  0
   -2.7894   -3.5849    0.0000 O   0  0  0  0  0  0  0  0  0  0  0  0
   -0.7561   -0.6103    0.0000 O   0  0  0  0  0  0  0  0  0  0  0  0
   -3.7893   -3.6474    0.0000 C   0  0  0  0  0  0  0  0  0  0  0  0
   -1.6062   -1.1477    0.0000 C   0  0  0  0  0  0  0  0  0  0  0  0
   -1.6436   -2.1475    0.0000 C   0  0  0  0  0  0  0  0  0  0  0  0
    2.4393   -3.7099    0.0000 C   0  0  0  0  0  0  0  0  0  0  0  0
    3.3142   -3.2100    0.0000 C   0  0  0  0  0  0  0  0  0  0  0  0
   -0.2562    3.7350    0.0000 C   0  0  0  0  0  0  0  0  0  0  0  0
    4.1516   -3.7350    0.0000 C   0  0  0  0  0  0  0  0  0  0  0  0
  1  2  2  0
  3  8  1  0
  3  4  2  0
  2  5  1  0
  6  7  1  0
  5  6  2  0
  1  7  1  0
  8 12  1  0
  9 10  2  0
  9 13  1  0
  3 10  1  0
  1 11  1  0
 11 12  1  0
  4 13  1  0
 14 25  2  0
  4 14  1  0
 10 15  1  0
  2 16  1  0
 16 17  3  0
 18 20  1  0
  5 19  1  0
 15 20  2  0
  8 21  2  0
  6 22  1  0
 23 30  1  0
 18 23  2  0
 18 24  1  0
 21 25  1  0
 23 26  1  0
 26 28  1  0
 12 27  2  0
 24 28  1  0
 15 29  1  0
 29 30  2  0
 19 31  1  0
 22 32  1  0
 31 32  1  0
 25 33  1  0
 32 34  1  0
M  END
>  <IDNUMBER>  (737) 
Y501-6662

>  <available>  (737) 
18

>  <H_acceptor>  (737) 
8

>  <H_donor>  (737) 
1

>  <B_rotN>  (737) 
5

>  <N_O>  (737) 
8

>  <logP>  (737) 
5.1033

>  <logD>  (737) 
3.5979

>  <logSw>  (737) 
-5.1086

>  <PSA>  (737) 
87.739

>  <pKa_ma>  (737) 
5.9084

>  <pKa_mb>  (737) 
-1.9333

>  <N_Chirals>  (737) 
1

>  <Name>  (737) 
3-(2H-1,3-benzodioxol-5-yl)-N-(3-cyano-6-methyl-4,5,6,7-tetrahydro-1-benzothiophen-2-yl)-6-methyl[1,2]oxazolo[5,4-b]pyridine-4-carboxamide

>  <Smile>  (737) 
CC(CC1)Cc2c1c(C#N)c(NC(c1c(c(-c(cc3)cc4c3OCO4)no3)c3nc(C)c1)=O)s2

>  <Color>  (737) 
BROWN

>  <Collection>  (737) 
DC

>  <InChI>  (737) 
InChI=1S/C25H20N4O4S/c1-12-3-5-15-17(10-26)25(34-20(15)7-12)28-23(30)16-8-13(2)27-24-21(16)22(29-33-24)14-4-6-18-19(9-14)32-11-31-18/h4,6,8-9,12H,3,5,7,11H2,1-2H3,(H,28,30)/t12-/m1/s1

>  <InChI Key>  (737) 
BWJFNRGMLBOHQH-GFCCVEGCSA-N

>  <PERCENTSP3>  (737) 
28

>  <Link>  (737) 
https://www.chemdiv.com/catalog/screening-compounds/compound-Y501-6662/

>  <MFCDNUMBER>  (737) 
MFCD08557385

>  <CLNUMBER>  (737) 
CL7490

>  <STEREO>  (737) 
RACEMIC MIXTURE

>  <State>  (737) 
Solid

>  <Similarity score>  (737) 
0.20

$$$$
N-(3-cyano-5,6-dihydro-4H-cyclopenta[b]thiophen-2-yl)-3-phenyl-6-(thiophen-2-yl)
     RDKit          2D

 33 38  0  0  0  0  0  0  0  0999 V2000
    1.4084   -1.0333    0.0000 C   0  0  0  0  0  0  0  0  0  0  0  0
    1.7542   -1.9415    0.0000 C   0  0  0  0  0  0  0  0  0  0  0  0
   -1.1085    1.3211    0.0000 C   0  0  0  0  0  0  0  0  0  0  0  0
   -2.0833    1.5459    0.0000 C   0  0  0  0  0  0  0  0  0  0  0  0
   -0.8293    0.3667    0.0000 C   0  0  0  0  0  0  0  0  0  0  0  0
   -1.2541    2.9210    0.0000 N   0  0  0  0  0  0  0  0  0  0  0  0
    2.2334   -0.4083    0.0000 S   0  0  0  0  0  0  0  0  0  0  0  0
    2.7458   -1.9334    0.0000 C   0  0  0  0  0  0  0  0  0  0  0  0
   -0.6042    2.1709    0.0000 C   0  0  0  0  0  0  0  0  0  0  0  0
    0.4333   -0.8082    0.0000 N   0  0  0  0  0  0  0  0  0  0  0  0
    0.1457    0.1459    0.0000 C   0  0  0  0  0  0  0  0  0  0  0  0
    3.0585   -0.9916    0.0000 C   0  0  0  0  0  0  0  0  0  0  0  0
   -2.7667    0.8167    0.0000 N   0  0  0  0  0  0  0  0  0  0  0  0
   -2.1709    2.5335    0.0000 O   0  0  0  0  0  0  0  0  0  0  0  0
   -2.4666   -0.1333    0.0000 C   0  0  0  0  0  0  0  0  0  0  0  0
   -1.4959   -0.3583    0.0000 C   0  0  0  0  0  0  0  0  0  0  0  0
    1.1959   -2.7915    0.0000 C   0  0  0  0  0  0  0  0  0  0  0  0
   -3.1459   -0.8583    0.0000 C   0  0  0  0  0  0  0  0  0  0  0  0
    0.6416   -3.6042    0.0000 N   0  0  0  0  0  0  0  0  0  0  0  0
   -2.7542   -1.7708    0.0000 S   0  0  0  0  0  0  0  0  0  0  0  0
    0.8293    0.8792    0.0000 O   0  0  0  0  0  0  0  0  0  0  0  0
    0.3959    2.3167    0.0000 C   0  0  0  0  0  0  0  0  0  0  0  0
   -4.1417   -0.9457    0.0000 C   0  0  0  0  0  0  0  0  0  0  0  0
   -3.5084   -2.4333    0.0000 C   0  0  0  0  0  0  0  0  0  0  0  0
   -4.3667   -1.9166    0.0000 C   0  0  0  0  0  0  0  0  0  0  0  0
    3.5793   -2.5167    0.0000 C   0  0  0  0  0  0  0  0  0  0  0  0
    4.0710   -0.9791    0.0000 C   0  0  0  0  0  0  0  0  0  0  0  0
    4.3667   -1.9166    0.0000 C   0  0  0  0  0  0  0  0  0  0  0  0
    0.6209    3.3085    0.0000 C   0  0  0  0  0  0  0  0  0  0  0  0
    1.1418    1.6336    0.0000 C   0  0  0  0  0  0  0  0  0  0  0  0
    1.5917    3.6042    0.0000 C   0  0  0  0  0  0  0  0  0  0  0  0
    2.0959    1.9293    0.0000 C   0  0  0  0  0  0  0  0  0  0  0  0
    2.3209    2.9167    0.0000 C   0  0  0  0  0  0  0  0  0  0  0  0
  1  2  2  0
  3  5  1  0
  3  4  2  0
  4 13  1  0
  5 11  1  0
  6  9  2  0
  6 14  1  0
  1  7  1  0
  2  8  1  0
  8 12  2  0
  3  9  1  0
  1 10  1  0
 10 11  1  0
  7 12  1  0
 13 15  2  0
  4 14  1  0
 15 16  1  0
  5 16  2  0
  2 17  1  0
 15 18  1  0
 17 19  3  0
 18 20  1  0
 11 21  2  0
  9 22  1  0
 18 23  2  0
 20 24  1  0
 24 25  2  0
 23 25  1  0
  8 26  1  0
 26 28  1  0
 12 27  1  0
 27 28  1  0
 22 29  2  0
 22 30  1  0
 29 31  1  0
 30 32  2  0
 32 33  1  0
 31 33  2  0
M  END
>  <IDNUMBER>  (738) 
F018-3060

>  <available>  (738) 
1

>  <H_acceptor>  (738) 
6

>  <H_donor>  (738) 
1

>  <B_rotN>  (738) 
6

>  <N_O>  (738) 
6

>  <logP>  (738) 
5.8098

>  <logD>  (738) 
5.1874

>  <logSw>  (738) 
-6.1333

>  <PSA>  (738) 
71.93

>  <pKa_ma>  (738) 
6.896

>  <pKa_mb>  (738) 
-3.6716

>  <N_Chirals>  (738) 
0

>  <Name>  (738) 
N-(3-cyano-5,6-dihydro-4H-cyclopenta[b]thiophen-2-yl)-3-phenyl-6-(thiophen-2-yl)[1,2]oxazolo[5,4-b]pyridine-4-carboxamide

>  <Smile>  (738) 
N#Cc1c(NC(c2c(c(-c3ccccc3)no3)c3nc(-c3cccs3)c2)=O)sc2c1CCC2

>  <Color>  (738) 
BLACK

>  <Collection>  (738) 
DC

>  <InChI>  (738) 
InChI=1S/C25H16N4O2S2/c26-13-17-15-8-4-9-19(15)33-25(17)28-23(30)16-12-18(20-10-5-11-32-20)27-24-21(16)22(29-31-24)14-6-2-1-3-7-14/h1-3,5-7,10-12H,4,8-9H2,(H,28,30)

>  <InChI Key>  (738) 
GQMPWATWISUSFY-UHFFFAOYSA-N

>  <PERCENTSP3>  (738) 
12

>  <Link>  (738) 
https://www.chemdiv.com/catalog/screening-compounds/compound-F018-3060/

>  <MFCDNUMBER>  (738) 
MFCD08557424

>  <CLNUMBER>  (738) 
CL7490

>  <STEREO>  (738) 
ACHIRAL

>  <State>  (738) 
Solid

>  <Similarity score>  (738) 
0.20

$$$$
1-[4-(5-ethyl-1,2,4-oxadiazol-3-yl)phenyl]-N-(3-methoxyphenyl)-1H-pyrazole-3-car
     RDKit          2D

 29 32  0  0  0  0  0  0  0  0999 V2000
    0.4918   -0.3313    0.0000 N   0  0  0  0  0  0  0  0  0  0  0  0
    1.4376   -0.6563    0.0000 C   0  0  0  0  0  0  0  0  0  0  0  0
   -4.7337   -1.7896    0.0000 N   0  0  0  0  0  0  0  0  0  0  0  0
   -0.1207   -1.1106    0.0000 N   0  0  0  0  0  0  0  0  0  0  0  0
   -4.1255   -0.9937    0.0000 C   0  0  0  0  0  0  0  0  0  0  0  0
   -4.6797   -0.1771    0.0000 N   0  0  0  0  0  0  0  0  0  0  0  0
    2.2585   -0.1023    0.0000 C   0  0  0  0  0  0  0  0  0  0  0  0
    1.4001   -1.6563    0.0000 C   0  0  0  0  0  0  0  0  0  0  0  0
    0.4376   -1.9438    0.0000 C   0  0  0  0  0  0  0  0  0  0  0  0
   -5.6672   -1.4522    0.0000 C   0  0  0  0  0  0  0  0  0  0  0  0
   -5.6422   -0.4482    0.0000 O   0  0  0  0  0  0  0  0  0  0  0  0
    2.1920    0.8896    0.0000 N   0  0  0  0  0  0  0  0  0  0  0  0
   -1.1209   -1.0854    0.0000 C   0  0  0  0  0  0  0  0  0  0  0  0
   -3.1212   -1.0229    0.0000 C   0  0  0  0  0  0  0  0  0  0  0  0
    3.0252    1.4520    0.0000 C   0  0  0  0  0  0  0  0  0  0  0  0
    3.1670   -0.5437    0.0000 O   0  0  0  0  0  0  0  0  0  0  0  0
    3.9212    1.0189    0.0000 C   0  0  0  0  0  0  0  0  0  0  0  0
   -1.6543   -1.9315    0.0000 C   0  0  0  0  0  0  0  0  0  0  0  0
   -1.5876   -0.2023    0.0000 C   0  0  0  0  0  0  0  0  0  0  0  0
   -2.6545   -1.9065    0.0000 C   0  0  0  0  0  0  0  0  0  0  0  0
   -2.5878   -0.1771    0.0000 C   0  0  0  0  0  0  0  0  0  0  0  0
    4.7463    1.5646    0.0000 C   0  0  0  0  0  0  0  0  0  0  0  0
    5.6589    1.1353    0.0000 O   0  0  0  0  0  0  0  0  0  0  0  0
   -6.4923   -2.0063    0.0000 C   0  0  0  0  0  0  0  0  0  0  0  0
    3.7753    3.0025    0.0000 C   0  0  0  0  0  0  0  0  0  0  0  0
    2.9420    2.4480    0.0000 C   0  0  0  0  0  0  0  0  0  0  0  0
    4.6879    2.5772    0.0000 C   0  0  0  0  0  0  0  0  0  0  0  0
    6.4923    1.6939    0.0000 C   0  0  0  0  0  0  0  0  0  0  0  0
   -6.4172   -3.0025    0.0000 C   0  0  0  0  0  0  0  0  0  0  0  0
  1  2  2  0
  3  5  1  0
  1  4  1  0
  5 14  1  0
  5  6  2  0
  2  7  1  0
  2  8  1  0
  4  9  1  0
  8  9  2  0
  3 10  2  0
  6 11  1  0
 10 11  1  0
  7 12  1  0
  4 13  1  0
 14 21  2  0
 12 15  1  0
  7 16  2  0
 15 17  1  0
 13 18  1  0
 13 19  2  0
 18 20  2  0
 14 20  1  0
 19 21  1  0
 17 22  2  0
 22 23  1  0
 10 24  1  0
 25 26  1  0
 15 26  2  0
 25 27  2  0
 22 27  1  0
 23 28  1  0
 24 29  1  0
M  END
>  <IDNUMBER>  (739) 
P152-0693

>  <available>  (739) 
9

>  <H_acceptor>  (739) 
7

>  <H_donor>  (739) 
1

>  <B_rotN>  (739) 
7

>  <N_O>  (739) 
8

>  <logP>  (739) 
4.2806

>  <logD>  (739) 
4.2805

>  <logSw>  (739) 
-4.3978

>  <PSA>  (739) 
76.457

>  <pKa_ma>  (739) 
11.4346

>  <pKa_mb>  (739) 
-3.1488

>  <N_Chirals>  (739) 
0

>  <Name>  (739) 
1-[4-(5-ethyl-1,2,4-oxadiazol-3-yl)phenyl]-N-(3-methoxyphenyl)-1H-pyrazole-3-carboxamide

>  <Smile>  (739) 
CCc1nc(-c(cc2)ccc2-n(cc2)nc2C(Nc2cc(OC)ccc2)=O)no1

>  <Color>  (739) 
NOT COLORED

>  <Collection>  (739) 
NC

>  <InChI>  (739) 
InChI=1S/C21H19N5O3/c1-3-19-23-20(25-29-19)14-7-9-16(10-8-14)26-12-11-18(24-26)21(27)22-15-5-4-6-17(13-15)28-2/h4-13H,3H2,1-2H3,(H,22,27)

>  <InChI Key>  (739) 
APKMOOYGFLZZTG-UHFFFAOYSA-N

>  <PERCENTSP3>  (739) 
14.3

>  <Link>  (739) 
https://www.chemdiv.com/catalog/screening-compounds/compound-P152-0693/

>  <MFCDNUMBER>  (739) 
MFCD27566694

>  <CLNUMBER>  (739) 
CM0204

>  <STEREO>  (739) 
ACHIRAL

>  <State>  (739) 
Solid

>  <Similarity score>  (739) 
0.20

$$$$
N-(3-cyano-5,6,7,8-tetrahydro-4H-cyclohepta[b]thiophen-2-yl)-6-(furan-2-yl)-3-ph
     RDKit          2D

 35 40  0  0  0  0  0  0  0  0999 V2000
    1.1021    1.0562    0.0000 C   0  0  0  0  0  0  0  0  0  0  0  0
    1.4853    2.0061    0.0000 C   0  0  0  0  0  0  0  0  0  0  0  0
   -1.4353   -1.3314    0.0000 C   0  0  0  0  0  0  0  0  0  0  0  0
   -2.4103   -1.5645    0.0000 C   0  0  0  0  0  0  0  0  0  0  0  0
   -1.1562   -0.3687    0.0000 C   0  0  0  0  0  0  0  0  0  0  0  0
   -1.5729   -2.9395    0.0000 N   0  0  0  0  0  0  0  0  0  0  0  0
    1.8604    0.4437    0.0000 S   0  0  0  0  0  0  0  0  0  0  0  0
    2.4812    1.9186    0.0000 C   0  0  0  0  0  0  0  0  0  0  0  0
   -0.9187   -2.1813    0.0000 C   0  0  0  0  0  0  0  0  0  0  0  0
    0.1022    0.8186    0.0000 N   0  0  0  0  0  0  0  0  0  0  0  0
   -0.1813   -0.1397    0.0000 C   0  0  0  0  0  0  0  0  0  0  0  0
   -3.1020   -0.8355    0.0000 N   0  0  0  0  0  0  0  0  0  0  0  0
    2.7062    0.9478    0.0000 C   0  0  0  0  0  0  0  0  0  0  0  0
   -2.4937   -2.5563    0.0000 O   0  0  0  0  0  0  0  0  0  0  0  0
   -2.8103    0.1229    0.0000 C   0  0  0  0  0  0  0  0  0  0  0  0
   -1.8397    0.3562    0.0000 C   0  0  0  0  0  0  0  0  0  0  0  0
    0.9813    2.8645    0.0000 C   0  0  0  0  0  0  0  0  0  0  0  0
   -3.5021    0.8436    0.0000 C   0  0  0  0  0  0  0  0  0  0  0  0
    0.4812    3.7271    0.0000 N   0  0  0  0  0  0  0  0  0  0  0  0
   -3.1145    1.7687    0.0000 O   0  0  0  0  0  0  0  0  0  0  0  0
    0.5062   -0.8687    0.0000 O   0  0  0  0  0  0  0  0  0  0  0  0
    0.0396   -2.4729    0.0000 C   0  0  0  0  0  0  0  0  0  0  0  0
   -4.5019    0.9311    0.0000 C   0  0  0  0  0  0  0  0  0  0  0  0
   -3.8771    2.4271    0.0000 C   0  0  0  0  0  0  0  0  0  0  0  0
   -4.7311    1.9021    0.0000 C   0  0  0  0  0  0  0  0  0  0  0  0
    3.1144    2.7103    0.0000 C   0  0  0  0  0  0  0  0  0  0  0  0
    3.5979    0.5104    0.0000 C   0  0  0  0  0  0  0  0  0  0  0  0
    0.7604   -1.7813    0.0000 C   0  0  0  0  0  0  0  0  0  0  0  0
    0.2729   -3.4397    0.0000 C   0  0  0  0  0  0  0  0  0  0  0  0
    4.1144    2.6811    0.0000 C   0  0  0  0  0  0  0  0  0  0  0  0
    4.5061    0.9270    0.0000 C   0  0  0  0  0  0  0  0  0  0  0  0
    1.7187   -2.0730    0.0000 C   0  0  0  0  0  0  0  0  0  0  0  0
    1.2271   -3.7271    0.0000 C   0  0  0  0  0  0  0  0  0  0  0  0
    1.9520   -3.0439    0.0000 C   0  0  0  0  0  0  0  0  0  0  0  0
    4.7311    1.9021    0.0000 C   0  0  0  0  0  0  0  0  0  0  0  0
  1  2  2  0
  3  5  1  0
  3  4  2  0
  4 12  1  0
  5 11  1  0
  6  9  2  0
  6 14  1  0
  1  7  1  0
  2  8  1  0
  8 13  2  0
  3  9  1  0
  1 10  1  0
 10 11  1  0
 12 15  2  0
  7 13  1  0
  4 14  1  0
 15 16  1  0
  5 16  2  0
  2 17  1  0
 15 18  1  0
 17 19  3  0
 18 20  1  0
 11 21  2  0
  9 22  1  0
 18 23  2  0
 20 24  1  0
 24 25  2  0
 23 25  1  0
  8 26  1  0
 13 27  1  0
 22 28  2  0
 22 29  1  0
 26 30  1  0
 30 35  1  0
 27 31  1  0
 28 32  1  0
 32 34  2  0
 29 33  2  0
 33 34  1  0
 31 35  1  0
M  END
>  <IDNUMBER>  (740) 
Y501-2733

>  <available>  (740) 
22

>  <H_acceptor>  (740) 
7

>  <H_donor>  (740) 
1

>  <B_rotN>  (740) 
6

>  <N_O>  (740) 
7

>  <logP>  (740) 
5.9781

>  <logD>  (740) 
5.3714

>  <logSw>  (740) 
-6.1136

>  <PSA>  (740) 
79.455

>  <pKa_ma>  (740) 
6.9166

>  <pKa_mb>  (740) 
-4.0324

>  <N_Chirals>  (740) 
0

>  <Name>  (740) 
N-(3-cyano-5,6,7,8-tetrahydro-4H-cyclohepta[b]thiophen-2-yl)-6-(furan-2-yl)-3-phenyl[1,2]oxazolo[5,4-b]pyridine-4-carboxamide

>  <Smile>  (740) 
N#Cc1c(NC(c2c(c(-c3ccccc3)no3)c3nc(-c3ccco3)c2)=O)sc2c1CCCCC2

>  <Color>  (740) 
ORANGE

>  <Collection>  (740) 
DC

>  <InChI>  (740) 
InChI=1S/C27H20N4O3S/c28-15-19-17-10-5-2-6-12-22(17)35-27(19)30-25(32)18-14-20(21-11-7-13-33-21)29-26-23(18)24(31-34-26)16-8-3-1-4-9-16/h1,3-4,7-9,11,13-14H,2,5-6,10,12H2,(H,30,32)

>  <InChI Key>  (740) 
YOZXUXIUTROHGN-UHFFFAOYSA-N

>  <PERCENTSP3>  (740) 
18.52

>  <Link>  (740) 
https://www.chemdiv.com/catalog/screening-compounds/compound-Y501-2733/

>  <MFCDNUMBER>  (740) 
MFCD08557563

>  <CLNUMBER>  (740) 
CL7490

>  <STEREO>  (740) 
ACHIRAL

>  <State>  (740) 
Solid

>  <Similarity score>  (740) 
0.20

$$$$
N-(3-cyano-4,5,6,7,8,9-hexahydrocycloocta[b]thiophen-2-yl)-5-methyl-3-phenyl-1,2
     RDKit          2D

 28 31  0  0  0  0  0  0  0  0999 V2000
   -1.2730   -0.6438    0.0000 C   0  0  0  0  0  0  0  0  0  0  0  0
   -2.2437   -0.5562    0.0000 C   0  0  0  0  0  0  0  0  0  0  0  0
    0.7771   -0.6352    0.0000 C   0  0  0  0  0  0  0  0  0  0  0  0
    0.2395   -1.5228    0.0000 C   0  0  0  0  0  0  0  0  0  0  0  0
    1.9729    0.3897    0.0000 N   0  0  0  0  0  0  0  0  0  0  0  0
   -0.8855    0.2813    0.0000 S   0  0  0  0  0  0  0  0  0  0  0  0
    1.7813   -0.5978    0.0000 C   0  0  0  0  0  0  0  0  0  0  0  0
   -0.7604   -1.5228    0.0000 N   0  0  0  0  0  0  0  0  0  0  0  0
   -2.4772    0.3937    0.0000 C   0  0  0  0  0  0  0  0  0  0  0  0
   -1.6563    0.9438    0.0000 C   0  0  0  0  0  0  0  0  0  0  0  0
    1.1188    0.8855    0.0000 O   0  0  0  0  0  0  0  0  0  0  0  0
    0.4062    0.2229    0.0000 C   0  0  0  0  0  0  0  0  0  0  0  0
   -2.9272   -1.3563    0.0000 C   0  0  0  0  0  0  0  0  0  0  0  0
   -3.5647   -2.1522    0.0000 N   0  0  0  0  0  0  0  0  0  0  0  0
    0.7147   -2.4062    0.0000 O   0  0  0  0  0  0  0  0  0  0  0  0
    2.4188   -1.3313    0.0000 C   0  0  0  0  0  0  0  0  0  0  0  0
   -3.4855    0.6522    0.0000 C   0  0  0  0  0  0  0  0  0  0  0  0
   -1.4104    1.9064    0.0000 C   0  0  0  0  0  0  0  0  0  0  0  0
   -0.5646    0.4605    0.0000 C   0  0  0  0  0  0  0  0  0  0  0  0
    2.1272   -2.2895    0.0000 C   0  0  0  0  0  0  0  0  0  0  0  0
    3.3896   -1.1687    0.0000 C   0  0  0  0  0  0  0  0  0  0  0  0
   -4.0397    1.5105    0.0000 C   0  0  0  0  0  0  0  0  0  0  0  0
   -1.9646    2.7772    0.0000 C   0  0  0  0  0  0  0  0  0  0  0  0
    2.7646   -3.0188    0.0000 C   0  0  0  0  0  0  0  0  0  0  0  0
    4.0397   -1.8812    0.0000 C   0  0  0  0  0  0  0  0  0  0  0  0
    3.7480   -2.8272    0.0000 C   0  0  0  0  0  0  0  0  0  0  0  0
   -3.8230    2.4813    0.0000 C   0  0  0  0  0  0  0  0  0  0  0  0
   -2.9355    3.0188    0.0000 C   0  0  0  0  0  0  0  0  0  0  0  0
  1  2  2  0
  3  4  1  0
  4  8  1  0
  5  7  2  0
  5 11  1  0
  1  6  1  0
  3  7  1  0
  1  8  1  0
  2  9  1  0
  9 10  2  0
  6 10  1  0
 11 12  1  0
  3 12  2  0
  2 13  1  0
 13 14  3  0
  4 15  2  0
  7 16  1  0
  9 17  1  0
 10 18  1  0
 12 19  1  0
 16 20  2  0
 16 21  1  0
 17 22  1  0
 18 23  1  0
 20 24  1  0
 24 26  2  0
 21 25  2  0
 25 26  1  0
 22 27  1  0
 23 28  1  0
 27 28  1  0
M  END
>  <IDNUMBER>  (741) 
Y503-0304

>  <available>  (741) 
21

>  <H_acceptor>  (741) 
5

>  <H_donor>  (741) 
1

>  <B_rotN>  (741) 
5

>  <N_O>  (741) 
5

>  <logP>  (741) 
4.9538

>  <logD>  (741) 
3.1345

>  <logSw>  (741) 
-4.7084

>  <PSA>  (741) 
62.392

>  <pKa_ma>  (741) 
5.5873

>  <pKa_mb>  (741) 
-6.2591

>  <N_Chirals>  (741) 
0

>  <Name>  (741) 
N-(3-cyano-4,5,6,7,8,9-hexahydrocycloocta[b]thiophen-2-yl)-5-methyl-3-phenyl-1,2-oxazole-4-carboxamide

>  <Smile>  (741) 
Cc1c(C(Nc(sc2c3CCCCCC2)c3C#N)=O)c(-c2ccccc2)no1

>  <Color>  (741) 
ORANGE

>  <Collection>  (741) 
DC

>  <InChI>  (741) 
InChI=1S/C22H21N3O2S/c1-14-19(20(25-27-14)15-9-5-4-6-10-15)21(26)24-22-17(13-23)16-11-7-2-3-8-12-18(16)28-22/h4-6,9-10H,2-3,7-8,11-12H2,1H3,(H,24,26)

>  <InChI Key>  (741) 
NXKOYVAULDCALT-UHFFFAOYSA-N

>  <PERCENTSP3>  (741) 
31.82

>  <Link>  (741) 
https://www.chemdiv.com/catalog/screening-compounds/compound-Y503-0304/

>  <MFCDNUMBER>  (741) 
MFCD01338205

>  <CLNUMBER>  (741) 
CL2451

>  <STEREO>  (741) 
ACHIRAL

>  <State>  (741) 
Solid

>  <Similarity score>  (741) 
0.20

$$$$
3-(2-chlorophenyl)-N-(3-cyano-5,6-dihydro-4H-cyclopenta[b]thiophen-2-yl)-5-methy
     RDKit          2D

 26 29  0  0  0  0  0  0  0  0999 V2000
    0.9916   -1.1651    0.0000 C   0  0  0  0  0  0  0  0  0  0  0  0
   -1.6308   -0.9219    0.0000 C   0  0  0  0  0  0  0  0  0  0  0  0
    1.2895   -0.2375    0.0000 C   0  0  0  0  0  0  0  0  0  0  0  0
   -2.3301   -0.1981    0.0000 C   0  0  0  0  0  0  0  0  0  0  0  0
   -0.6674   -0.6844    0.0000 C   0  0  0  0  0  0  0  0  0  0  0  0
   -3.2143   -0.6391    0.0000 N   0  0  0  0  0  0  0  0  0  0  0  0
    1.7986   -1.7703    0.0000 S   0  0  0  0  0  0  0  0  0  0  0  0
    0.0339   -1.4083    0.0000 N   0  0  0  0  0  0  0  0  0  0  0  0
    2.2849   -0.2375    0.0000 C   0  0  0  0  0  0  0  0  0  0  0  0
    2.6073   -1.2048    0.0000 C   0  0  0  0  0  0  0  0  0  0  0  0
   -2.1680    0.7730    0.0000 C   0  0  0  0  0  0  0  0  0  0  0  0
   -3.1107   -1.6063    0.0000 O   0  0  0  0  0  0  0  0  0  0  0  0
   -2.1114   -1.8099    0.0000 C   0  0  0  0  0  0  0  0  0  0  0  0
    0.6730    0.5656    0.0000 C   0  0  0  0  0  0  0  0  0  0  0  0
    0.0566    1.3648    0.0000 N   0  0  0  0  0  0  0  0  0  0  0  0
   -0.3959    0.2828    0.0000 O   0  0  0  0  0  0  0  0  0  0  0  0
   -2.9750    1.3648    0.0000 C   0  0  0  0  0  0  0  0  0  0  0  0
    3.0881    0.3280    0.0000 C   0  0  0  0  0  0  0  0  0  0  0  0
   -3.9195    1.0162    0.0000 Cl  0  0  0  0  0  0  0  0  0  0  0  0
    3.5971   -1.2048    0.0000 C   0  0  0  0  0  0  0  0  0  0  0  0
   -1.2556    1.1311    0.0000 C   0  0  0  0  0  0  0  0  0  0  0  0
   -1.7137   -2.7374    0.0000 C   0  0  0  0  0  0  0  0  0  0  0  0
    3.9195   -0.2375    0.0000 C   0  0  0  0  0  0  0  0  0  0  0  0
   -2.8449    2.3755    0.0000 C   0  0  0  0  0  0  0  0  0  0  0  0
   -1.1217    2.1284    0.0000 C   0  0  0  0  0  0  0  0  0  0  0  0
   -1.9003    2.7374    0.0000 C   0  0  0  0  0  0  0  0  0  0  0  0
  2  5  1  0
  1  3  2  0
  2  4  1  0
  5  8  1  0
  4  6  2  0
  1  7  1  0
  1  8  1  0
  3  9  1  0
  7 10  1  0
  9 10  2  0
  4 11  1  0
 12 13  1  0
  6 12  1  0
  2 13  2  0
  3 14  1  0
 14 15  3  0
  5 16  2  0
 11 17  1  0
  9 18  1  0
 18 23  1  0
 17 19  1  0
 10 20  1  0
 11 21  2  0
 13 22  1  0
 20 23  1  0
 17 24  2  0
 24 26  1  0
 21 25  1  0
 25 26  2  0
M  END
>  <IDNUMBER>  (742) 
8008-9661

>  <available>  (742) 
15

>  <H_acceptor>  (742) 
5

>  <H_donor>  (742) 
1

>  <B_rotN>  (742) 
5

>  <N_O>  (742) 
5

>  <logP>  (742) 
4.0983

>  <logD>  (742) 
1.3248

>  <logSw>  (742) 
-4.6576

>  <PSA>  (742) 
62.427

>  <pKa_ma>  (742) 
4.6272

>  <pKa_mb>  (742) 
-6.8683

>  <N_Chirals>  (742) 
0

>  <Name>  (742) 
3-(2-chlorophenyl)-N-(3-cyano-5,6-dihydro-4H-cyclopenta[b]thiophen-2-yl)-5-methyl-1,2-oxazole-4-carboxamide

>  <Smile>  (742) 
Cc1c(C(Nc(sc2c3CCC2)c3C#N)=O)c(-c(cccc2)c2Cl)no1

>  <Color>  (742) 
BROWN

>  <Collection>  (742) 
DC

>  <InChI>  (742) 
InChI=1S/C19H14ClN3O2S/c1-10-16(17(23-25-10)12-5-2-3-7-14(12)20)18(24)22-19-13(9-21)11-6-4-8-15(11)26-19/h2-3,5,7H,4,6,8H2,1H3,(H,22,24)

>  <InChI Key>  (742) 
PPPHOQFSIXVYRL-UHFFFAOYSA-N

>  <PERCENTSP3>  (742) 
21.1

>  <Link>  (742) 
https://www.chemdiv.com/catalog/screening-compounds/compound-8008-9661/

>  <MFCDNUMBER>  (742) 
MFCD01460598

>  <CLNUMBER>  (742) 
CL2451

>  <STEREO>  (742) 
ACHIRAL

>  <State>  (742) 
Solid

>  <Similarity score>  (742) 
0.20

$$$$
N-(3-cyano-5,6,7,8-tetrahydro-4H-cyclohepta[b]thiophen-2-yl)-5-(furan-2-yl)-7-(t
     RDKit          2D

 33 37  0  0  0  0  0  0  0  0999 V2000
    1.6525   -0.1793    0.0000 N   0  0  0  0  0  0  0  0  0  0  0  0
    2.4384    0.4265    0.0000 C   0  0  0  0  0  0  0  0  0  0  0  0
    1.8097   -1.1635    0.0000 C   0  0  0  0  0  0  0  0  0  0  0  0
   -2.3518   -0.3252    0.0000 C   0  0  0  0  0  0  0  0  0  0  0  0
    0.6501   -0.0418    0.0000 N   0  0  0  0  0  0  0  0  0  0  0  0
   -2.9478    0.4757    0.0000 C   0  0  0  0  0  0  0  0  0  0  0  0
    0.2423   -0.9393    0.0000 C   0  0  0  0  0  0  0  0  0  0  0  0
    0.9352   -1.6352    0.0000 C   0  0  0  0  0  0  0  0  0  0  0  0
    2.7530   -1.5418    0.0000 N   0  0  0  0  0  0  0  0  0  0  0  0
    3.3802    0.0974    0.0000 C   0  0  0  0  0  0  0  0  0  0  0  0
   -2.9478   -1.1143    0.0000 S   0  0  0  0  0  0  0  0  0  0  0  0
   -3.8830    0.1941    0.0000 C   0  0  0  0  0  0  0  0  0  0  0  0
    3.5374   -0.9393    0.0000 C   0  0  0  0  0  0  0  0  0  0  0  0
    2.2812    1.4631    0.0000 C   0  0  0  0  0  0  0  0  0  0  0  0
   -1.3494   -0.2317    0.0000 N   0  0  0  0  0  0  0  0  0  0  0  0
   -3.8830   -0.7967    0.0000 C   0  0  0  0  0  0  0  0  0  0  0  0
   -0.7844   -1.0326    0.0000 C   0  0  0  0  0  0  0  0  0  0  0  0
   -2.6285    1.4631    0.0000 C   0  0  0  0  0  0  0  0  0  0  0  0
    4.4480   -1.3354    0.0000 C   0  0  0  0  0  0  0  0  0  0  0  0
   -2.3518    2.4541    0.0000 N   0  0  0  0  0  0  0  0  0  0  0  0
    4.6379   -2.3279    0.0000 O   0  0  0  0  0  0  0  0  0  0  0  0
   -1.1922   -1.9201    0.0000 O   0  0  0  0  0  0  0  0  0  0  0  0
    5.3569   -0.8607    0.0000 C   0  0  0  0  0  0  0  0  0  0  0  0
    5.6599   -2.4541    0.0000 C   0  0  0  0  0  0  0  0  0  0  0  0
    6.0530   -1.5108    0.0000 C   0  0  0  0  0  0  0  0  0  0  0  0
    2.1240    2.4541    0.0000 F   0  0  0  0  0  0  0  0  0  0  0  0
    3.2836    1.6091    0.0000 F   0  0  0  0  0  0  0  0  0  0  0  0
    1.2791    1.2749    0.0000 F   0  0  0  0  0  0  0  0  0  0  0  0
   -4.6691    0.8033    0.0000 C   0  0  0  0  0  0  0  0  0  0  0  0
   -4.6691   -1.3994    0.0000 C   0  0  0  0  0  0  0  0  0  0  0  0
   -5.6075    0.5641    0.0000 C   0  0  0  0  0  0  0  0  0  0  0  0
   -5.6075   -1.1635    0.0000 C   0  0  0  0  0  0  0  0  0  0  0  0
   -6.0530   -0.3252    0.0000 C   0  0  0  0  0  0  0  0  0  0  0  0
  1  2  1  0
  1  3  1  0
  4 15  1  0
  1  5  1  0
  4  6  2  0
  5  7  2  0
  3  8  2  0
  7  8  1  0
  3  9  1  0
  2 10  2  0
  4 11  1  0
  6 12  1  0
 12 16  2  0
  9 13  2  0
 10 13  1  0
  2 14  1  0
 15 17  1  0
 11 16  1  0
  7 17  1  0
  6 18  1  0
 13 19  1  0
 18 20  3  0
 19 21  1  0
 17 22  2  0
 19 23  2  0
 21 24  1  0
 24 25  2  0
 23 25  1  0
 14 26  1  0
 14 27  1  0
 14 28  1  0
 12 29  1  0
 16 30  1  0
 29 31  1  0
 31 33  1  0
 30 32  1  0
 32 33  1  0
M  END
>  <IDNUMBER>  (743) 
K061-0527

>  <available>  (743) 
1

>  <H_acceptor>  (743) 
6

>  <H_donor>  (743) 
1

>  <B_rotN>  (743) 
6

>  <N_O>  (743) 
7

>  <logP>  (743) 
5.0676

>  <logD>  (743) 
3.4416

>  <logSw>  (743) 
-4.9616

>  <PSA>  (743) 
67.169

>  <pKa_ma>  (743) 
5.7844

>  <pKa_mb>  (743) 
0.7525

>  <N_Chirals>  (743) 
0

>  <Name>  (743) 
N-(3-cyano-5,6,7,8-tetrahydro-4H-cyclohepta[b]thiophen-2-yl)-5-(furan-2-yl)-7-(trifluoromethyl)pyrazolo[1,5-a]pyrimidine-2-carboxamide

>  <Smile>  (743) 
N#Cc1c(NC(c2nn3c(C(F)(F)F)cc(-c4ccco4)nc3c2)=O)sc2c1CCCCC2

>  <Color>  (743) 
YELLOW

>  <Collection>  (743) 
DC

>  <InChI>  (743) 
InChI=1S/C22H16F3N5O2S/c23-22(24,25)18-9-14(16-6-4-8-32-16)27-19-10-15(29-30(18)19)20(31)28-21-13(11-26)12-5-2-1-3-7-17(12)33-21/h4,6,8-10H,1-3,5,7H2,(H,28,31)

>  <InChI Key>  (743) 
ITKVWIQULDNLQG-UHFFFAOYSA-N

>  <PERCENTSP3>  (743) 
27.3

>  <Link>  (743) 
https://www.chemdiv.com/catalog/screening-compounds/compound-K061-0527/

>  <MFCDNUMBER>  (743) 
MFCD01243929

>  <CLNUMBER>  (743) 
CL1646

>  <STEREO>  (743) 
ACHIRAL

>  <State>  (743) 
Solid

>  <Similarity score>  (743) 
0.20

$$$$
N-(3-cyano-6-methyl-4,5,6,7-tetrahydro-1-benzothiophen-2-yl)-3-phenyl-6-(thiophe
     RDKit          2D

 35 40  0  0  0  0  0  0  0  0999 V2000
    0.7833   -1.0063    0.0000 C   0  0  0  0  0  0  0  0  0  0  0  0
    1.1084   -1.9688    0.0000 C   0  0  0  0  0  0  0  0  0  0  0  0
   -1.5166    1.5604    0.0000 C   0  0  0  0  0  0  0  0  0  0  0  0
   -2.4668    1.8687    0.0000 C   0  0  0  0  0  0  0  0  0  0  0  0
   -1.3167    0.5855    0.0000 C   0  0  0  0  0  0  0  0  0  0  0  0
    2.1083   -1.9521    0.0000 C   0  0  0  0  0  0  0  0  0  0  0  0
    2.4208   -1.0063    0.0000 C   0  0  0  0  0  0  0  0  0  0  0  0
    1.6042   -0.4062    0.0000 S   0  0  0  0  0  0  0  0  0  0  0  0
   -1.5207    3.1687    0.0000 N   0  0  0  0  0  0  0  0  0  0  0  0
   -0.9333    2.3606    0.0000 C   0  0  0  0  0  0  0  0  0  0  0  0
   -0.1583   -0.6939    0.0000 N   0  0  0  0  0  0  0  0  0  0  0  0
   -0.3668    0.2812    0.0000 C   0  0  0  0  0  0  0  0  0  0  0  0
   -3.2041    1.1979    0.0000 N   0  0  0  0  0  0  0  0  0  0  0  0
   -2.4668    2.8605    0.0000 O   0  0  0  0  0  0  0  0  0  0  0  0
   -2.9958    0.2229    0.0000 C   0  0  0  0  0  0  0  0  0  0  0  0
   -2.0458   -0.0770    0.0000 C   0  0  0  0  0  0  0  0  0  0  0  0
    0.5543   -2.7813    0.0000 C   0  0  0  0  0  0  0  0  0  0  0  0
   -3.7333   -0.4314    0.0000 C   0  0  0  0  0  0  0  0  0  0  0  0
   -0.0043   -3.5937    0.0000 N   0  0  0  0  0  0  0  0  0  0  0  0
    2.7542   -2.6938    0.0000 C   0  0  0  0  0  0  0  0  0  0  0  0
   -3.4291   -1.3813    0.0000 S   0  0  0  0  0  0  0  0  0  0  0  0
    3.4083   -0.7813    0.0000 C   0  0  0  0  0  0  0  0  0  0  0  0
    0.3791    0.9480    0.0000 O   0  0  0  0  0  0  0  0  0  0  0  0
    0.0709    2.4230    0.0000 C   0  0  0  0  0  0  0  0  0  0  0  0
   -4.7333   -0.4396    0.0000 C   0  0  0  0  0  0  0  0  0  0  0  0
   -4.2334   -1.9688    0.0000 C   0  0  0  0  0  0  0  0  0  0  0  0
   -5.0416   -1.3813    0.0000 C   0  0  0  0  0  0  0  0  0  0  0  0
    3.7541   -2.4937    0.0000 C   0  0  0  0  0  0  0  0  0  0  0  0
    4.0710   -1.5437    0.0000 C   0  0  0  0  0  0  0  0  0  0  0  0
    0.7585    1.6730    0.0000 C   0  0  0  0  0  0  0  0  0  0  0  0
    0.3835    3.3896    0.0000 C   0  0  0  0  0  0  0  0  0  0  0  0
    5.0416   -1.3813    0.0000 C   0  0  0  0  0  0  0  0  0  0  0  0
    1.3790    3.5937    0.0000 C   0  0  0  0  0  0  0  0  0  0  0  0
    1.7417    1.8813    0.0000 C   0  0  0  0  0  0  0  0  0  0  0  0
    2.0458    2.8479    0.0000 C   0  0  0  0  0  0  0  0  0  0  0  0
  1  2  2  0
  3  5  1  0
  3  4  2  0
  5 12  1  0
  2  6  1  0
  7  8  1  0
  6  7  2  0
  1  8  1  0
  9 10  2  0
  3 10  1  0
  1 11  1  0
 11 12  1  0
 13 15  2  0
  4 13  1  0
  4 14  1  0
  9 14  1  0
 15 16  1  0
  5 16  2  0
  2 17  1  0
 15 18  1  0
 17 19  3  0
  6 20  1  0
 18 21  1  0
  7 22  1  0
 12 23  2  0
 10 24  1  0
 18 25  2  0
 21 26  1  0
 25 27  1  0
 26 27  2  0
 20 28  1  0
 22 29  1  0
 28 29  1  0
 24 30  1  0
 24 31  2  0
 29 32  1  0
 31 33  1  0
 30 34  2  0
 33 35  2  0
 34 35  1  0
M  END
>  <IDNUMBER>  (744) 
Y509-2638

>  <available>  (744) 
11

>  <H_acceptor>  (744) 
6

>  <H_donor>  (744) 
1

>  <B_rotN>  (744) 
6

>  <N_O>  (744) 
6

>  <logP>  (744) 
6.654

>  <logD>  (744) 
6.0473

>  <logSw>  (744) 
-5.9755

>  <PSA>  (744) 
71.564

>  <pKa_ma>  (744) 
6.9166

>  <pKa_mb>  (744) 
-3.6716

>  <N_Chirals>  (744) 
1

>  <Name>  (744) 
N-(3-cyano-6-methyl-4,5,6,7-tetrahydro-1-benzothiophen-2-yl)-3-phenyl-6-(thiophen-2-yl)[1,2]oxazolo[5,4-b]pyridine-4-carboxamide

>  <Smile>  (744) 
c1(c(c2c(s1)CC(CC2)C)C#N)NC(c1c2c(nc(c1)c1sccc1)onc2c1ccccc1)=O

>  <Color>  (744) 
BROWN

>  <Collection>  (744) 
DC

>  <InChI>  (744) 
InChI=1S/C27H20N4O2S2/c1-15-9-10-17-19(14-28)27(35-22(17)12-15)30-25(32)18-13-20(21-8-5-11-34-21)29-26-23(18)24(31-33-26)16-6-3-2-4-7-16/h2-8,11,13,15H,9-10,12H2,1H3,(H,30,32)/t15-/m1/s1

>  <InChI Key>  (744) 
VIEYFJYZLGSPQI-OAHLLOKOSA-N

>  <PERCENTSP3>  (744) 
18.5

>  <Link>  (744) 
https://www.chemdiv.com/catalog/screening-compounds/compound-Y509-2638/

>  <MFCDNUMBER>  (744) 
MFCD08557610

>  <CLNUMBER>  (744) 
CL7490

>  <STEREO>  (744) 
RACEMIC MIXTURE

>  <State>  (744) 
Solid

>  <Similarity score>  (744) 
0.20

$$$$
7-[chloro(difluoro)methyl]-N-(3-cyano-5,6,7,8-tetrahydro-4H-cyclohepta[b]thiophe
     RDKit          2D

 33 37  0  0  0  0  0  0  0  0999 V2000
   -2.6457    0.5842    0.0000 N   0  0  0  0  0  0  0  0  0  0  0  0
   -3.6374    0.5983    0.0000 C   0  0  0  0  0  0  0  0  0  0  0  0
   -2.1380   -0.3066    0.0000 C   0  0  0  0  0  0  0  0  0  0  0  0
    1.6791    0.9059    0.0000 C   0  0  0  0  0  0  0  0  0  0  0  0
   -1.9645    1.3079    0.0000 N   0  0  0  0  0  0  0  0  0  0  0  0
    2.2610    1.6800    0.0000 C   0  0  0  0  0  0  0  0  0  0  0  0
   -1.0738    0.9059    0.0000 C   0  0  0  0  0  0  0  0  0  0  0  0
   -1.1573   -0.0876    0.0000 C   0  0  0  0  0  0  0  0  0  0  0  0
   -2.6173   -1.1612    0.0000 N   0  0  0  0  0  0  0  0  0  0  0  0
   -4.1388   -0.2766    0.0000 C   0  0  0  0  0  0  0  0  0  0  0  0
    2.2294    0.0876    0.0000 S   0  0  0  0  0  0  0  0  0  0  0  0
    3.2070    1.3694    0.0000 C   0  0  0  0  0  0  0  0  0  0  0  0
   -3.6233   -1.1612    0.0000 C   0  0  0  0  0  0  0  0  0  0  0  0
   -4.1262    1.4497    0.0000 C   0  0  0  0  0  0  0  0  0  0  0  0
    0.6765    0.9059    0.0000 N   0  0  0  0  0  0  0  0  0  0  0  0
    3.1880    0.3760    0.0000 C   0  0  0  0  0  0  0  0  0  0  0  0
   -0.1892    1.4072    0.0000 C   0  0  0  0  0  0  0  0  0  0  0  0
    1.9393    2.6322    0.0000 C   0  0  0  0  0  0  0  0  0  0  0  0
   -4.1388   -2.0284    0.0000 C   0  0  0  0  0  0  0  0  0  0  0  0
    1.6082    3.5971    0.0000 N   0  0  0  0  0  0  0  0  0  0  0  0
   -3.7556   -2.9398    0.0000 O   0  0  0  0  0  0  0  0  0  0  0  0
   -0.1892    2.4148    0.0000 O   0  0  0  0  0  0  0  0  0  0  0  0
   -5.1226   -2.0978    0.0000 C   0  0  0  0  0  0  0  0  0  0  0  0
   -4.5409   -3.5971    0.0000 C   0  0  0  0  0  0  0  0  0  0  0  0
   -5.3781   -3.0722    0.0000 C   0  0  0  0  0  0  0  0  0  0  0  0
   -4.6307    2.3233    0.0000 Cl  0  0  0  0  0  0  0  0  0  0  0  0
   -3.2606    1.9543    0.0000 F   0  0  0  0  0  0  0  0  0  0  0  0
   -5.0011    0.9437    0.0000 F   0  0  0  0  0  0  0  0  0  0  0  0
    4.0016    1.9638    0.0000 C   0  0  0  0  0  0  0  0  0  0  0  0
    3.9510   -0.2766    0.0000 C   0  0  0  0  0  0  0  0  0  0  0  0
    4.9759    1.7193    0.0000 C   0  0  0  0  0  0  0  0  0  0  0  0
    4.9287   -0.0780    0.0000 C   0  0  0  0  0  0  0  0  0  0  0  0
    5.3781    0.8097    0.0000 C   0  0  0  0  0  0  0  0  0  0  0  0
  1  3  1  0
  1  2  1  0
  4 15  1  0
  1  5  1  0
  4  6  2  0
  5  7  2  0
  3  8  2  0
  7  8  1  0
  3  9  1  0
  2 10  2  0
  4 11  1  0
  6 12  1  0
  9 13  2  0
 10 13  1  0
  2 14  1  0
 14 26  1  0
 15 17  1  0
 11 16  1  0
 12 16  2  0
  7 17  1  0
  6 18  1  0
 13 19  1  0
 18 20  3  0
 19 21  1  0
 17 22  2  0
 19 23  2  0
 21 24  1  0
 23 25  1  0
 24 25  2  0
 14 27  1  0
 14 28  1  0
 12 29  1  0
 16 30  1  0
 29 31  1  0
 30 32  1  0
 32 33  1  0
 31 33  1  0
M  END
>  <IDNUMBER>  (745) 
8012-9521

>  <available>  (745) 
25

>  <H_acceptor>  (745) 
6

>  <H_donor>  (745) 
1

>  <B_rotN>  (745) 
6

>  <N_O>  (745) 
7

>  <logP>  (745) 
5.5277

>  <logD>  (745) 
3.9017

>  <logSw>  (745) 
-6.1887

>  <PSA>  (745) 
67.169

>  <pKa_ma>  (745) 
5.7844

>  <pKa_mb>  (745) 
0.7525

>  <N_Chirals>  (745) 
0

>  <Name>  (745) 
7-[chloro(difluoro)methyl]-N-(3-cyano-5,6,7,8-tetrahydro-4H-cyclohepta[b]thiophen-2-yl)-5-(furan-2-yl)pyrazolo[1,5-a]pyrimidine-2-carboxamide

>  <Smile>  (745) 
N#Cc1c(NC(c2nn3c(C(F)(F)Cl)cc(-c4ccco4)nc3c2)=O)sc2c1CCCCC2

>  <Color>  (745) 
YELLOW

>  <Collection>  (745) 
DC

>  <InChI>  (745) 
InChI=1S/C22H16ClF2N5O2S/c23-22(24,25)18-9-14(16-6-4-8-32-16)27-19-10-15(29-30(18)19)20(31)28-21-13(11-26)12-5-2-1-3-7-17(12)33-21/h4,6,8-10H,1-3,5,7H2,(H,28,31)

>  <InChI Key>  (745) 
BAMXBFLPNULUET-UHFFFAOYSA-N

>  <PERCENTSP3>  (745) 
27.3

>  <Link>  (745) 
https://www.chemdiv.com/catalog/screening-compounds/compound-8012-9521/

>  <MFCDNUMBER>  (745) 
MFCD03308283

>  <CLNUMBER>  (745) 
CL1640

>  <STEREO>  (745) 
ACHIRAL

>  <State>  (745) 
Solid

>  <Similarity score>  (745) 
0.20

$$$$
N-(3-cyano-6-methyl-4,5,6,7-tetrahydro-1-benzothiophen-2-yl)-6-(furan-2-yl)-3-ph
     RDKit          2D

 35 40  0  0  0  0  0  0  0  0999 V2000
    0.7980   -1.0812    0.0000 C   0  0  0  0  0  0  0  0  0  0  0  0
    1.1228   -2.0438    0.0000 C   0  0  0  0  0  0  0  0  0  0  0  0
   -1.5062    1.4936    0.0000 C   0  0  0  0  0  0  0  0  0  0  0  0
   -2.4602    1.8021    0.0000 C   0  0  0  0  0  0  0  0  0  0  0  0
   -1.3060    0.5147    0.0000 C   0  0  0  0  0  0  0  0  0  0  0  0
    2.1145   -2.0311    0.0000 C   0  0  0  0  0  0  0  0  0  0  0  0
    2.4353   -1.0853    0.0000 C   0  0  0  0  0  0  0  0  0  0  0  0
    1.6145   -0.4896    0.0000 S   0  0  0  0  0  0  0  0  0  0  0  0
   -1.5144    3.1061    0.0000 N   0  0  0  0  0  0  0  0  0  0  0  0
   -0.9229    2.3020    0.0000 C   0  0  0  0  0  0  0  0  0  0  0  0
   -0.1479   -0.7728    0.0000 N   0  0  0  0  0  0  0  0  0  0  0  0
   -0.3520    0.2022    0.0000 C   0  0  0  0  0  0  0  0  0  0  0  0
   -3.2103    1.1311    0.0000 N   0  0  0  0  0  0  0  0  0  0  0  0
   -2.4602    2.7978    0.0000 O   0  0  0  0  0  0  0  0  0  0  0  0
   -2.9978    0.1520    0.0000 C   0  0  0  0  0  0  0  0  0  0  0  0
   -2.0395   -0.1561    0.0000 C   0  0  0  0  0  0  0  0  0  0  0  0
    0.5645   -2.8603    0.0000 C   0  0  0  0  0  0  0  0  0  0  0  0
   -3.7394   -0.5061    0.0000 C   0  0  0  0  0  0  0  0  0  0  0  0
    0.0021   -3.6686    0.0000 N   0  0  0  0  0  0  0  0  0  0  0  0
    2.7603   -2.7685    0.0000 C   0  0  0  0  0  0  0  0  0  0  0  0
    3.4187   -0.8645    0.0000 C   0  0  0  0  0  0  0  0  0  0  0  0
   -3.4310   -1.4603    0.0000 O   0  0  0  0  0  0  0  0  0  0  0  0
    0.3937    0.8773    0.0000 O   0  0  0  0  0  0  0  0  0  0  0  0
    0.0564    2.5104    0.0000 C   0  0  0  0  0  0  0  0  0  0  0  0
   -4.7433   -0.5147    0.0000 C   0  0  0  0  0  0  0  0  0  0  0  0
   -4.2435   -2.0562    0.0000 C   0  0  0  0  0  0  0  0  0  0  0  0
   -5.0518   -1.4646    0.0000 C   0  0  0  0  0  0  0  0  0  0  0  0
    3.7603   -2.5769    0.0000 C   0  0  0  0  0  0  0  0  0  0  0  0
    4.0811   -1.6268    0.0000 C   0  0  0  0  0  0  0  0  0  0  0  0
    0.7188    1.7647    0.0000 C   0  0  0  0  0  0  0  0  0  0  0  0
    0.3647    3.4602    0.0000 C   0  0  0  0  0  0  0  0  0  0  0  0
    5.0518   -1.4646    0.0000 C   0  0  0  0  0  0  0  0  0  0  0  0
    1.3354    3.6686    0.0000 C   0  0  0  0  0  0  0  0  0  0  0  0
    1.6979    1.9770    0.0000 C   0  0  0  0  0  0  0  0  0  0  0  0
    2.0062    2.9270    0.0000 C   0  0  0  0  0  0  0  0  0  0  0  0
  1  2  2  0
  3  5  1  0
  3  4  2  0
  4 13  1  0
  5 12  1  0
  2  6  1  0
  6  7  2  0
  7  8  1  0
  1  8  1  0
  9 10  2  0
  9 14  1  0
  3 10  1  0
  1 11  1  0
 11 12  1  0
 13 15  2  0
  4 14  1  0
 15 16  1  0
  5 16  2  0
  2 17  1  0
 15 18  1  0
 17 19  3  0
  6 20  1  0
  7 21  1  0
 18 22  1  0
 12 23  2  0
 10 24  1  0
 18 25  2  0
 22 26  1  0
 26 27  2  0
 25 27  1  0
 20 28  1  0
 28 29  1  0
 21 29  1  0
 24 30  2  0
 24 31  1  0
 29 32  1  0
 31 33  2  0
 30 34  1  0
 34 35  2  0
 33 35  1  0
M  END
>  <IDNUMBER>  (746) 
Y501-6664

>  <available>  (746) 
29

>  <H_acceptor>  (746) 
7

>  <H_donor>  (746) 
1

>  <B_rotN>  (746) 
6

>  <N_O>  (746) 
7

>  <logP>  (746) 
5.9162

>  <logD>  (746) 
5.3094

>  <logSw>  (746) 
-5.8785

>  <PSA>  (746) 
79.124

>  <pKa_ma>  (746) 
6.9166

>  <pKa_mb>  (746) 
-4.0324

>  <N_Chirals>  (746) 
1

>  <Name>  (746) 
N-(3-cyano-6-methyl-4,5,6,7-tetrahydro-1-benzothiophen-2-yl)-6-(furan-2-yl)-3-phenyl[1,2]oxazolo[5,4-b]pyridine-4-carboxamide

>  <Smile>  (746) 
CC(CC1)Cc2c1c(C#N)c(NC(c1c(c(-c3ccccc3)no3)c3nc(-c3ccco3)c1)=O)s2

>  <Color>  (746) 
ORANGE

>  <Collection>  (746) 
DC

>  <InChI>  (746) 
InChI=1S/C27H20N4O3S/c1-15-9-10-17-19(14-28)27(35-22(17)12-15)30-25(32)18-13-20(21-8-5-11-33-21)29-26-23(18)24(31-34-26)16-6-3-2-4-7-16/h2-8,11,13,15H,9-10,12H2,1H3,(H,30,32)/t15-/m1/s1

>  <InChI Key>  (746) 
IIPXLUKWQQTBEF-OAHLLOKOSA-N

>  <PERCENTSP3>  (746) 
18.5

>  <Link>  (746) 
https://www.chemdiv.com/catalog/screening-compounds/compound-Y501-6664/

>  <MFCDNUMBER>  (746) 
MFCD08557383

>  <CLNUMBER>  (746) 
CL7490

>  <STEREO>  (746) 
RACEMIC MIXTURE

>  <State>  (746) 
Solid

>  <Similarity score>  (746) 
0.20

$$$$
N-(6-tert-butyl-3-cyano-4,5,6,7-tetrahydro-1-benzothiophen-2-yl)-5-(4-methoxyphe
     RDKit          2D

 39 43  0  0  0  0  0  0  0  0999 V2000
    0.8591    0.4395    0.0000 N   0  0  0  0  0  0  0  0  0  0  0  0
    1.3176    1.2471    0.0000 C   0  0  0  0  0  0  0  0  0  0  0  0
    1.2757   -0.3765    0.0000 C   0  0  0  0  0  0  0  0  0  0  0  0
   -2.9938    0.4250    0.0000 C   0  0  0  0  0  0  0  0  0  0  0  0
   -0.1735    0.4395    0.0000 N   0  0  0  0  0  0  0  0  0  0  0  0
   -3.4419    1.1820    0.0000 C   0  0  0  0  0  0  0  0  0  0  0  0
   -0.6046   -0.3617    0.0000 C   0  0  0  0  0  0  0  0  0  0  0  0
   -0.0746   -1.1505    0.0000 C   0  0  0  0  0  0  0  0  0  0  0  0
    2.2978   -0.3765    0.0000 N   0  0  0  0  0  0  0  0  0  0  0  0
    2.3273    1.2471    0.0000 C   0  0  0  0  0  0  0  0  0  0  0  0
   -4.3819   -0.4016    0.0000 C   0  0  0  0  0  0  0  0  0  0  0  0
   -4.8174    0.3996    0.0000 C   0  0  0  0  0  0  0  0  0  0  0  0
   -3.4732   -0.4016    0.0000 S   0  0  0  0  0  0  0  0  0  0  0  0
    0.8697    2.0905    0.0000 C   0  0  0  0  0  0  0  0  0  0  0  0
    2.7879    0.4649    0.0000 C   0  0  0  0  0  0  0  0  0  0  0  0
   -2.0749    0.4250    0.0000 N   0  0  0  0  0  0  0  0  0  0  0  0
   -1.6016   -0.3617    0.0000 C   0  0  0  0  0  0  0  0  0  0  0  0
   -2.9432    2.0402    0.0000 C   0  0  0  0  0  0  0  0  0  0  0  0
   -4.8741   -1.3020    0.0000 C   0  0  0  0  0  0  0  0  0  0  0  0
   -2.4386    2.8897    0.0000 N   0  0  0  0  0  0  0  0  0  0  0  0
   -5.8773    0.3996    0.0000 C   0  0  0  0  0  0  0  0  0  0  0  0
   -5.8941   -1.2850    0.0000 C   0  0  0  0  0  0  0  0  0  0  0  0
    3.8227    0.4649    0.0000 C   0  0  0  0  0  0  0  0  0  0  0  0
   -6.4241   -2.1179    0.0000 C   0  0  0  0  0  0  0  0  0  0  0  0
   -2.1569   -1.2430    0.0000 O   0  0  0  0  0  0  0  0  0  0  0  0
   -6.3989   -0.4586    0.0000 C   0  0  0  0  0  0  0  0  0  0  0  0
    1.7109    2.5953    0.0000 F   0  0  0  0  0  0  0  0  0  0  0  0
    0.0200    1.6174    0.0000 F   0  0  0  0  0  0  0  0  0  0  0  0
    0.3985    2.9319    0.0000 F   0  0  0  0  0  0  0  0  0  0  0  0
    4.3672    1.3040    0.0000 C   0  0  0  0  0  0  0  0  0  0  0  0
    4.3105   -0.3617    0.0000 C   0  0  0  0  0  0  0  0  0  0  0  0
    5.8186    0.4817    0.0000 C   0  0  0  0  0  0  0  0  0  0  0  0
    5.3011   -0.3617    0.0000 C   0  0  0  0  0  0  0  0  0  0  0  0
    5.3390    1.3040    0.0000 C   0  0  0  0  0  0  0  0  0  0  0  0
    6.8659    0.4817    0.0000 O   0  0  0  0  0  0  0  0  0  0  0  0
   -6.9437   -2.9319    0.0000 C   0  0  0  0  0  0  0  0  0  0  0  0
   -5.5934   -2.6479    0.0000 C   0  0  0  0  0  0  0  0  0  0  0  0
   -7.2571   -1.5879    0.0000 C   0  0  0  0  0  0  0  0  0  0  0  0
    7.2571    1.2641    0.0000 C   0  0  0  0  0  0  0  0  0  0  0  0
  1  2  1  0
  1  3  1  0
  4 16  1  0
  1  5  1  0
  4  6  2  0
  5  7  2  0
  7  8  1  0
  3  8  2  0
  3  9  1  0
  2 10  2  0
 10 15  1  0
 11 13  1  0
 11 12  2  0
  6 12  1  0
  4 13  1  0
  2 14  1  0
  9 15  2  0
 16 17  1  0
  7 17  1  0
  6 18  1  0
 11 19  1  0
 18 20  3  0
 12 21  1  0
 19 22  1  0
 15 23  1  0
 22 24  1  0
 17 25  2  0
 21 26  1  0
 22 26  1  0
 14 27  1  0
 14 28  1  0
 14 29  1  0
 23 30  2  0
 23 31  1  0
 32 33  1  0
 31 33  2  0
 30 34  1  0
 32 34  2  0
 32 35  1  0
 24 36  1  0
 24 37  1  0
 24 38  1  0
 35 39  1  0
M  END
>  <IDNUMBER>  (747) 
2774-1302

>  <available>  (747) 
3

>  <H_acceptor>  (747) 
6

>  <H_donor>  (747) 
1

>  <B_rotN>  (747) 
8

>  <N_O>  (747) 
7

>  <logP>  (747) 
7.205

>  <logD>  (747) 
5.579

>  <logSw>  (747) 
-5.705

>  <PSA>  (747) 
65.8

>  <pKa_ma>  (747) 
5.784

>  <pKa_mb>  (747) 
1.312

>  <N_Chirals>  (747) 
1

>  <Name>  (747) 
N-(6-tert-butyl-3-cyano-4,5,6,7-tetrahydro-1-benzothiophen-2-yl)-5-(4-methoxyphenyl)-7-(trifluoromethyl)pyrazolo[1,5-a]pyrimidine-2-carboxamide

>  <Smile>  (747) 
CC(C)(C)C(CC1)Cc2c1c(C#N)c(NC(c1nn3c(C(F)(F)F)cc(-c(cc4)ccc4OC)nc3c1)=O)s2

>  <Color>  (747) 
YELLOW

>  <Collection>  (747) 
DC

>  <InChI>  (747) 
InChI=1S/C28H26F3N5O2S/c1-27(2,3)16-7-10-18-19(14-32)26(39-22(18)11-16)34-25(37)21-13-24-33-20(15-5-8-17(38-4)9-6-15)12-23(28(29,30)31)36(24)35-21/h5-6,8-9,12-13,16H,7,10-11H2,1-4H3,(H,34,37)/t16-/m1/
s1

>  <InChI Key>  (747) 
YRTVZWNVFLBIEQ-MRXNPFEDSA-N

>  <PERCENTSP3>  (747) 
35.714

>  <Link>  (747) 
https://www.chemdiv.com/catalog/screening-compounds/compound-2774-1302/

>  <MFCDNUMBER>  (747) 
MFCD01451926

>  <CLNUMBER>  (747) 
CL1652

>  <STEREO>  (747) 
RACEMIC MIXTURE

>  <State>  (747) 
Solid

>  <Similarity score>  (747) 
0.20

$$$$
N-(3-cyano-4,5,6,7-tetrahydro-1-benzothiophen-2-yl)-7-(3,5-dichlorophenyl)pyrazo
     RDKit          2D

 31 35  0  0  0  0  0  0  0  0999 V2000
   -1.6858    0.8773    0.0000 N   0  0  0  0  0  0  0  0  0  0  0  0
    2.5110    0.1687    0.0000 C   0  0  0  0  0  0  0  0  0  0  0  0
   -0.9938    0.1522    0.0000 N   0  0  0  0  0  0  0  0  0  0  0  0
    2.6484   -0.8315    0.0000 C   0  0  0  0  0  0  0  0  0  0  0  0
   -0.0937    0.5897    0.0000 C   0  0  0  0  0  0  0  0  0  0  0  0
   -1.2106    1.7566    0.0000 C   0  0  0  0  0  0  0  0  0  0  0  0
   -0.2313    1.5814    0.0000 C   0  0  0  0  0  0  0  0  0  0  0  0
   -2.6859    0.8523    0.0000 C   0  0  0  0  0  0  0  0  0  0  0  0
    3.4151    0.6063    0.0000 S   0  0  0  0  0  0  0  0  0  0  0  0
    3.6277   -1.0022    0.0000 C   0  0  0  0  0  0  0  0  0  0  0  0
    1.6358    0.6396    0.0000 N   0  0  0  0  0  0  0  0  0  0  0  0
    4.1154   -0.1312    0.0000 C   0  0  0  0  0  0  0  0  0  0  0  0
    0.7856    0.1145    0.0000 C   0  0  0  0  0  0  0  0  0  0  0  0
   -3.1567   -0.0271    0.0000 C   0  0  0  0  0  0  0  0  0  0  0  0
   -1.7399    2.6109    0.0000 N   0  0  0  0  0  0  0  0  0  0  0  0
    1.9525   -1.5315    0.0000 C   0  0  0  0  0  0  0  0  0  0  0  0
    1.2566   -2.2276    0.0000 N   0  0  0  0  0  0  0  0  0  0  0  0
   -3.2110    1.7025    0.0000 C   0  0  0  0  0  0  0  0  0  0  0  0
   -2.7359    2.5818    0.0000 C   0  0  0  0  0  0  0  0  0  0  0  0
   -2.6359   -0.8816    0.0000 C   0  0  0  0  0  0  0  0  0  0  0  0
   -4.1611   -0.0604    0.0000 C   0  0  0  0  0  0  0  0  0  0  0  0
    0.8148   -0.8816    0.0000 O   0  0  0  0  0  0  0  0  0  0  0  0
   -3.1069   -1.7608    0.0000 C   0  0  0  0  0  0  0  0  0  0  0  0
   -4.6363   -0.9356    0.0000 C   0  0  0  0  0  0  0  0  0  0  0  0
   -4.1112   -1.7899    0.0000 C   0  0  0  0  0  0  0  0  0  0  0  0
   -2.5859   -2.6109    0.0000 Cl  0  0  0  0  0  0  0  0  0  0  0  0
   -5.6364   -0.9689    0.0000 Cl  0  0  0  0  0  0  0  0  0  0  0  0
    4.1320   -1.8482    0.0000 C   0  0  0  0  0  0  0  0  0  0  0  0
    5.1198   -0.0979    0.0000 C   0  0  0  0  0  0  0  0  0  0  0  0
    5.1448   -1.8399    0.0000 C   0  0  0  0  0  0  0  0  0  0  0  0
    5.6364   -0.9689    0.0000 C   0  0  0  0  0  0  0  0  0  0  0  0
  2 11  1  0
  1  3  1  0
  2  4  2  0
  3  5  2  0
  5  7  1  0
  1  6  1  0
  6  7  2  0
  1  8  1  0
  2  9  1  0
  4 10  1  0
 11 13  1  0
  9 12  1  0
 10 12  2  0
  5 13  1  0
  8 14  1  0
  6 15  1  0
  4 16  1  0
 16 17  3  0
  8 18  2  0
 18 19  1  0
 15 19  2  0
 14 20  1  0
 14 21  2  0
 13 22  2  0
 20 23  2  0
 23 25  1  0
 21 24  1  0
 24 25  2  0
 23 26  1  0
 24 27  1  0
 10 28  1  0
 12 29  1  0
 28 30  1  0
 29 31  1  0
 30 31  1  0
M  END
>  <IDNUMBER>  (748) 
Y501-3531

>  <available>  (748) 
22

>  <H_acceptor>  (748) 
5

>  <H_donor>  (748) 
1

>  <B_rotN>  (748) 
5

>  <N_O>  (748) 
6

>  <logP>  (748) 
5.5826

>  <logD>  (748) 
3.326

>  <logSw>  (748) 
-6.1895

>  <PSA>  (748) 
58.692

>  <pKa_ma>  (748) 
5.1458

>  <pKa_mb>  (748) 
-1.755

>  <N_Chirals>  (748) 
0

>  <Name>  (748) 
N-(3-cyano-4,5,6,7-tetrahydro-1-benzothiophen-2-yl)-7-(3,5-dichlorophenyl)pyrazolo[1,5-a]pyrimidine-2-carboxamide

>  <Smile>  (748) 
N#Cc1c(NC(c2nn3c(-c4cc(Cl)cc(Cl)c4)ccnc3c2)=O)sc2c1CCCC2

>  <Color>  (748) 
ORANGE

>  <Collection>  (748) 
DC

>  <InChI>  (748) 
InChI=1S/C22H15Cl2N5OS/c23-13-7-12(8-14(24)9-13)18-5-6-26-20-10-17(28-29(18)20)21(30)27-22-16(11-25)15-3-1-2-4-19(15)31-22/h5-10H,1-4H2,(H,27,30)

>  <InChI Key>  (748) 
PKKHSXSFTJGJJV-UHFFFAOYSA-N

>  <PERCENTSP3>  (748) 
18.18

>  <Link>  (748) 
https://www.chemdiv.com/catalog/screening-compounds/compound-Y501-3531/

>  <MFCDNUMBER>  (748) 
MFCD08555780

>  <STEREO>  (748) 
ACHIRAL

>  <State>  (748) 
Solid

>  <Similarity score>  (748) 
0.20

$$$$
3-(2-chlorophenyl)-N-(3-cyano-4,5,6,7-tetrahydro-1-benzothiophen-2-yl)-5-methyl-
     RDKit          2D

 27 30  0  0  0  0  0  0  0  0999 V2000
    1.1989   -0.2311    0.0000 C   0  0  0  0  0  0  0  0  0  0  0  0
   -1.3869   -0.7378    0.0000 C   0  0  0  0  0  0  0  0  0  0  0  0
    1.2939    0.7948    0.0000 C   0  0  0  0  0  0  0  0  0  0  0  0
   -2.3495   -0.4592    0.0000 C   0  0  0  0  0  0  0  0  0  0  0  0
   -0.5466   -0.2311    0.0000 C   0  0  0  0  0  0  0  0  0  0  0  0
   -2.9384   -1.2508    0.0000 N   0  0  0  0  0  0  0  0  0  0  0  0
    2.1026   -0.5985    0.0000 S   0  0  0  0  0  0  0  0  0  0  0  0
    0.3420   -0.7378    0.0000 N   0  0  0  0  0  0  0  0  0  0  0  0
    2.2861    0.9827    0.0000 C   0  0  0  0  0  0  0  0  0  0  0  0
    2.7801    0.1424    0.0000 C   0  0  0  0  0  0  0  0  0  0  0  0
   -2.6851    0.4655    0.0000 C   0  0  0  0  0  0  0  0  0  0  0  0
   -2.3178   -2.0867    0.0000 O   0  0  0  0  0  0  0  0  0  0  0  0
   -1.3869   -1.7637    0.0000 C   0  0  0  0  0  0  0  0  0  0  0  0
    0.5636    1.4406    0.0000 C   0  0  0  0  0  0  0  0  0  0  0  0
   -0.2153    2.0867    0.0000 N   0  0  0  0  0  0  0  0  0  0  0  0
   -0.5466    0.7440    0.0000 O   0  0  0  0  0  0  0  0  0  0  0  0
   -3.6794    0.6492    0.0000 C   0  0  0  0  0  0  0  0  0  0  0  0
   -4.3000   -0.1363    0.0000 Cl  0  0  0  0  0  0  0  0  0  0  0  0
    2.8075    1.8480    0.0000 C   0  0  0  0  0  0  0  0  0  0  0  0
    3.8060    0.1424    0.0000 C   0  0  0  0  0  0  0  0  0  0  0  0
   -2.0708    1.2571    0.0000 C   0  0  0  0  0  0  0  0  0  0  0  0
   -0.5466   -2.3653    0.0000 C   0  0  0  0  0  0  0  0  0  0  0  0
   -4.0213    1.5843    0.0000 C   0  0  0  0  0  0  0  0  0  0  0  0
    3.8060    1.8480    0.0000 C   0  0  0  0  0  0  0  0  0  0  0  0
    4.3000    0.9827    0.0000 C   0  0  0  0  0  0  0  0  0  0  0  0
   -2.4338    2.1753    0.0000 C   0  0  0  0  0  0  0  0  0  0  0  0
   -3.4007    2.3653    0.0000 C   0  0  0  0  0  0  0  0  0  0  0  0
  2  5  1  0
  1  3  2  0
  2  4  1  0
  5  8  1  0
  4  6  2  0
  1  7  1  0
  1  8  1  0
  3  9  1  0
  7 10  1  0
  9 10  2  0
  4 11  1  0
 12 13  1  0
  6 12  1  0
  2 13  2  0
  3 14  1  0
 14 15  3  0
  5 16  2  0
 11 17  1  0
 17 18  1  0
  9 19  1  0
 10 20  1  0
 11 21  2  0
 13 22  1  0
 17 23  2  0
 23 27  1  0
 19 24  1  0
 20 25  1  0
 24 25  1  0
 21 26  1  0
 26 27  2  0
M  END
>  <IDNUMBER>  (749) 
8009-5648

>  <available>  (749) 
9

>  <H_acceptor>  (749) 
5

>  <H_donor>  (749) 
1

>  <B_rotN>  (749) 
5

>  <N_O>  (749) 
5

>  <logP>  (749) 
4.5086

>  <logD>  (749) 
1.7557

>  <logSw>  (749) 
-4.8238

>  <PSA>  (749) 
62.061

>  <pKa_ma>  (749) 
4.6479

>  <pKa_mb>  (749) 
-6.8125

>  <N_Chirals>  (749) 
0

>  <Name>  (749) 
3-(2-chlorophenyl)-N-(3-cyano-4,5,6,7-tetrahydro-1-benzothiophen-2-yl)-5-methyl-1,2-oxazole-4-carboxamide

>  <Smile>  (749) 
Cc1c(C(Nc(sc2c3CCCC2)c3C#N)=O)c(-c(cccc2)c2Cl)no1

>  <Color>  (749) 
NOT COLORED

>  <Collection>  (749) 
DC

>  <InChI>  (749) 
InChI=1S/C20H16ClN3O2S/c1-11-17(18(24-26-11)13-7-2-4-8-15(13)21)19(25)23-20-14(10-22)12-6-3-5-9-16(12)27-20/h2,4,7-8H,3,5-6,9H2,1H3,(H,23,25)

>  <InChI Key>  (749) 
IEYTVLZRFYNCEB-UHFFFAOYSA-N

>  <PERCENTSP3>  (749) 
25

>  <Link>  (749) 
https://www.chemdiv.com/catalog/screening-compounds/compound-8009-5648/

>  <MFCDNUMBER>  (749) 
MFCD01197445

>  <CLNUMBER>  (749) 
CL2451

>  <STEREO>  (749) 
ACHIRAL

>  <State>  (749) 
Solid

>  <Similarity score>  (749) 
0.20

$$$$
5-(4-bromophenyl)-N-(3-cyano-4,5,6,7-tetrahydro-1-benzothiophen-2-yl)-7-(trifluo
     RDKit          2D

 34 38  0  0  0  0  0  0  0  0999 V2000
   -1.0964    0.5196    0.0000 N   0  0  0  0  0  0  0  0  0  0  0  0
   -1.9043    0.9768    0.0000 C   0  0  0  0  0  0  0  0  0  0  0  0
   -1.0964   -0.4122    0.0000 C   0  0  0  0  0  0  0  0  0  0  0  0
    3.1344   -0.8950    0.0000 C   0  0  0  0  0  0  0  0  0  0  0  0
    0.5404    0.5196    0.0000 N   0  0  0  0  0  0  0  0  0  0  0  0
    4.0430   -0.4816    0.0000 C   0  0  0  0  0  0  0  0  0  0  0  0
    0.5404   -0.4122    0.0000 C   0  0  0  0  0  0  0  0  0  0  0  0
   -0.2761   -0.8782    0.0000 C   0  0  0  0  0  0  0  0  0  0  0  0
   -1.9043   -0.8782    0.0000 N   0  0  0  0  0  0  0  0  0  0  0  0
   -2.7334    0.5196    0.0000 C   0  0  0  0  0  0  0  0  0  0  0  0
    3.2435   -1.9107    0.0000 S   0  0  0  0  0  0  0  0  0  0  0  0
    4.7104   -1.2306    0.0000 C   0  0  0  0  0  0  0  0  0  0  0  0
   -1.9043    1.9780    0.0000 C   0  0  0  0  0  0  0  0  0  0  0  0
   -2.7334   -0.4122    0.0000 C   0  0  0  0  0  0  0  0  0  0  0  0
    2.2676   -0.3998    0.0000 N   0  0  0  0  0  0  0  0  0  0  0  0
    4.2320   -2.0682    0.0000 C   0  0  0  0  0  0  0  0  0  0  0  0
    1.4155   -0.9034    0.0000 C   0  0  0  0  0  0  0  0  0  0  0  0
    4.2571    0.4902    0.0000 C   0  0  0  0  0  0  0  0  0  0  0  0
    4.4692    1.4555    0.0000 N   0  0  0  0  0  0  0  0  0  0  0  0
   -3.5897   -0.9034    0.0000 C   0  0  0  0  0  0  0  0  0  0  0  0
    1.3988   -1.7847    0.0000 O   0  0  0  0  0  0  0  0  0  0  0  0
   -0.9119    1.9780    0.0000 F   0  0  0  0  0  0  0  0  0  0  0  0
   -2.9098    1.9780    0.0000 F   0  0  0  0  0  0  0  0  0  0  0  0
   -1.9043    2.9664    0.0000 F   0  0  0  0  0  0  0  0  0  0  0  0
   -4.4418   -0.3871    0.0000 C   0  0  0  0  0  0  0  0  0  0  0  0
   -3.5897   -1.9107    0.0000 C   0  0  0  0  0  0  0  0  0  0  0  0
   -5.3525   -1.8729    0.0000 C   0  0  0  0  0  0  0  0  0  0  0  0
    5.7114   -1.2036    0.0000 C   0  0  0  0  0  0  0  0  0  0  0  0
   -5.3358   -0.8782    0.0000 C   0  0  0  0  0  0  0  0  0  0  0  0
   -4.4963   -2.3892    0.0000 C   0  0  0  0  0  0  0  0  0  0  0  0
    4.7229   -2.9664    0.0000 C   0  0  0  0  0  0  0  0  0  0  0  0
   -6.2341   -2.3514    0.0000 Br  0  0  0  0  0  0  0  0  0  0  0  0
    6.2341   -2.0682    0.0000 C   0  0  0  0  0  0  0  0  0  0  0  0
    5.7429   -2.9433    0.0000 C   0  0  0  0  0  0  0  0  0  0  0  0
  1  2  1  0
  1  3  1  0
  4 15  1  0
  1  5  1  0
  4  6  2  0
  5  7  2  0
  3  8  2  0
  7  8  1  0
  3  9  1  0
  2 10  2  0
  4 11  1  0
  6 12  1  0
 12 16  2  0
  2 13  1  0
  9 14  2  0
 10 14  1  0
 15 17  1  0
 11 16  1  0
  7 17  1  0
  6 18  1  0
 18 19  3  0
 14 20  1  0
 17 21  2  0
 13 22  1  0
 13 23  1  0
 13 24  1  0
 20 25  2  0
 20 26  1  0
 27 30  1  0
 27 29  2  0
 12 28  1  0
 25 29  1  0
 26 30  2  0
 16 31  1  0
 27 32  1  0
 28 33  1  0
 33 34  1  0
 31 34  1  0
M  END
>  <IDNUMBER>  (750) 
K061-0771

>  <available>  (750) 
33

>  <H_acceptor>  (750) 
5

>  <H_donor>  (750) 
1

>  <B_rotN>  (750) 
6

>  <N_O>  (750) 
6

>  <logP>  (750) 
6.4993

>  <logD>  (750) 
4.8733

>  <logSw>  (750) 
-6.1631

>  <PSA>  (750) 
58.26

>  <pKa_ma>  (750) 
5.7844

>  <pKa_mb>  (750) 
1.5188

>  <N_Chirals>  (750) 
0

>  <Name>  (750) 
5-(4-bromophenyl)-N-(3-cyano-4,5,6,7-tetrahydro-1-benzothiophen-2-yl)-7-(trifluoromethyl)pyrazolo[1,5-a]pyrimidine-2-carboxamide

>  <Smile>  (750) 
N#Cc1c(NC(c2nn3c(C(F)(F)F)cc(-c(cc4)ccc4Br)nc3c2)=O)sc2c1CCCC2

>  <Color>  (750) 
YELLOW

>  <Collection>  (750) 
DC

>  <InChI>  (750) 
InChI=1S/C23H15BrF3N5OS/c24-13-7-5-12(6-8-13)16-9-19(23(25,26)27)32-20(29-16)10-17(31-32)21(33)30-22-15(11-28)14-3-1-2-4-18(14)34-22/h5-10H,1-4H2,(H,30,33)

>  <InChI Key>  (750) 
PKPXKBGUFNWZPE-UHFFFAOYSA-N

>  <PERCENTSP3>  (750) 
21.7

>  <Link>  (750) 
https://www.chemdiv.com/catalog/screening-compounds/compound-K061-0771/

>  <MFCDNUMBER>  (750) 
MFCD01417408

>  <CLNUMBER>  (750) 
CL1652

>  <STEREO>  (750) 
ACHIRAL

>  <State>  (750) 
Solid

>  <Similarity score>  (750) 
0.20

$$$$
3-(2-chlorophenyl)-N-(3-cyano-4,5,6,7,8,9-hexahydrocycloocta[b]thiophen-2-yl)-5-
     RDKit          2D

 29 32  0  0  0  0  0  0  0  0999 V2000
   -1.2731   -0.6458    0.0000 C   0  0  0  0  0  0  0  0  0  0  0  0
    0.7771   -0.6335    0.0000 C   0  0  0  0  0  0  0  0  0  0  0  0
   -2.2481   -0.5585    0.0000 C   0  0  0  0  0  0  0  0  0  0  0  0
    1.7813   -0.5959    0.0000 C   0  0  0  0  0  0  0  0  0  0  0  0
    0.2395   -1.5293    0.0000 C   0  0  0  0  0  0  0  0  0  0  0  0
    1.9771    0.3918    0.0000 N   0  0  0  0  0  0  0  0  0  0  0  0
   -0.8856    0.2792    0.0000 S   0  0  0  0  0  0  0  0  0  0  0  0
   -0.7605   -1.5293    0.0000 N   0  0  0  0  0  0  0  0  0  0  0  0
   -2.4815    0.3918    0.0000 C   0  0  0  0  0  0  0  0  0  0  0  0
   -1.6563    0.9417    0.0000 C   0  0  0  0  0  0  0  0  0  0  0  0
    2.4190   -1.3334    0.0000 C   0  0  0  0  0  0  0  0  0  0  0  0
    1.1187    0.8834    0.0000 O   0  0  0  0  0  0  0  0  0  0  0  0
    0.4062    0.2209    0.0000 C   0  0  0  0  0  0  0  0  0  0  0  0
   -2.9315   -1.3585    0.0000 C   0  0  0  0  0  0  0  0  0  0  0  0
   -3.5690   -2.1543    0.0000 N   0  0  0  0  0  0  0  0  0  0  0  0
    0.7145   -2.4085    0.0000 O   0  0  0  0  0  0  0  0  0  0  0  0
    3.3898   -1.1709    0.0000 C   0  0  0  0  0  0  0  0  0  0  0  0
    3.7188   -0.2541    0.0000 Cl  0  0  0  0  0  0  0  0  0  0  0  0
   -3.4940    0.6542    0.0000 C   0  0  0  0  0  0  0  0  0  0  0  0
   -1.4189    1.9044    0.0000 C   0  0  0  0  0  0  0  0  0  0  0  0
    2.1271   -2.2960    0.0000 C   0  0  0  0  0  0  0  0  0  0  0  0
   -0.5688    0.4584    0.0000 C   0  0  0  0  0  0  0  0  0  0  0  0
    4.0440   -1.8834    0.0000 C   0  0  0  0  0  0  0  0  0  0  0  0
   -4.0440    1.5084    0.0000 C   0  0  0  0  0  0  0  0  0  0  0  0
   -1.9689    2.7792    0.0000 C   0  0  0  0  0  0  0  0  0  0  0  0
    2.7689   -3.0210    0.0000 C   0  0  0  0  0  0  0  0  0  0  0  0
    3.7440   -2.8335    0.0000 C   0  0  0  0  0  0  0  0  0  0  0  0
   -3.8232    2.4835    0.0000 C   0  0  0  0  0  0  0  0  0  0  0  0
   -2.9440    3.0210    0.0000 C   0  0  0  0  0  0  0  0  0  0  0  0
  2  5  1  0
  1  3  2  0
  2  4  1  0
  5  8  1  0
  4  6  2  0
  6 12  1  0
  1  7  1  0
  1  8  1  0
  3  9  1  0
  9 10  2  0
  7 10  1  0
  4 11  1  0
 12 13  1  0
  2 13  2  0
  3 14  1  0
 14 15  3  0
  5 16  2  0
 11 17  1  0
 17 18  1  0
  9 19  1  0
 10 20  1  0
 11 21  2  0
 13 22  1  0
 17 23  2  0
 19 24  1  0
 20 25  1  0
 21 26  1  0
 26 27  2  0
 23 27  1  0
 24 28  1  0
 25 29  1  0
 28 29  1  0
M  END
>  <IDNUMBER>  (751) 
Y509-7636

>  <available>  (751) 
21

>  <H_acceptor>  (751) 
5

>  <H_donor>  (751) 
1

>  <B_rotN>  (751) 
5

>  <N_O>  (751) 
5

>  <logP>  (751) 
5.5

>  <logD>  (751) 
2.748

>  <logSw>  (751) 
-5.831

>  <PSA>  (751) 
62.39

>  <pKa_ma>  (751) 
4.648

>  <pKa_mb>  (751) 
-6.812

>  <N_Chirals>  (751) 
0

>  <Name>  (751) 
3-(2-chlorophenyl)-N-(3-cyano-4,5,6,7,8,9-hexahydrocycloocta[b]thiophen-2-yl)-5-methyl-1,2-oxazole-4-carboxamide

>  <Smile>  (751) 
c1(c(c2c(s1)CCCCCC2)C#N)NC(c1c(noc1C)c1c(Cl)cccc1)=O

>  <Color>  (751) 
BROWN

>  <Collection>  (751) 
DC

>  <InChI>  (751) 
InChI=1S/C22H20ClN3O2S/c1-13-19(20(26-28-13)15-9-6-7-10-17(15)23)21(27)25-22-16(12-24)14-8-4-2-3-5-11-18(14)29-22/h6-7,9-10H,2-5,8,11H2,1H3,(H,25,27)

>  <InChI Key>  (751) 
ZYOACJCWPUYMAG-UHFFFAOYSA-N

>  <PERCENTSP3>  (751) 
31.82

>  <Link>  (751) 
https://www.chemdiv.com/catalog/screening-compounds/compound-Y509-7636/

>  <MFCDNUMBER>  (751) 
MFCD01349375

>  <CLNUMBER>  (751) 
CL2451

>  <STEREO>  (751) 
ACHIRAL

>  <State>  (751) 
Solid

>  <Similarity score>  (751) 
0.20

$$$$
3-(2-chlorophenyl)-N-(3-cyano-5,6,7,8-tetrahydro-4H-cyclohepta[b]thiophen-2-yl)-
     RDKit          2D

 28 31  0  0  0  0  0  0  0  0999 V2000
   -1.4936    0.0312    0.0000 C   0  0  0  0  0  0  0  0  0  0  0  0
    0.5394   -1.7352    0.0000 C   0  0  0  0  0  0  0  0  0  0  0  0
   -2.4643    0.1521    0.0000 C   0  0  0  0  0  0  0  0  0  0  0  0
    1.5518   -1.8061    0.0000 C   0  0  0  0  0  0  0  0  0  0  0  0
    0.0146   -0.8604    0.0000 C   0  0  0  0  0  0  0  0  0  0  0  0
    1.7935   -2.8185    0.0000 N   0  0  0  0  0  0  0  0  0  0  0  0
   -1.0644    0.9227    0.0000 S   0  0  0  0  0  0  0  0  0  0  0  0
   -0.9895   -0.8604    0.0000 N   0  0  0  0  0  0  0  0  0  0  0  0
   -2.6518    1.1309    0.0000 C   0  0  0  0  0  0  0  0  0  0  0  0
   -1.7978    1.6310    0.0000 C   0  0  0  0  0  0  0  0  0  0  0  0
    2.1976   -1.0144    0.0000 C   0  0  0  0  0  0  0  0  0  0  0  0
    0.9477   -3.3516    0.0000 O   0  0  0  0  0  0  0  0  0  0  0  0
    0.1562   -2.7018    0.0000 C   0  0  0  0  0  0  0  0  0  0  0  0
   -3.1601   -0.5896    0.0000 C   0  0  0  0  0  0  0  0  0  0  0  0
   -3.8475   -1.3602    0.0000 N   0  0  0  0  0  0  0  0  0  0  0  0
    0.5145    0.0187    0.0000 O   0  0  0  0  0  0  0  0  0  0  0  0
    3.2099   -1.1644    0.0000 C   0  0  0  0  0  0  0  0  0  0  0  0
    3.5684   -2.0934    0.0000 Cl  0  0  0  0  0  0  0  0  0  0  0  0
   -3.5725    1.5269    0.0000 C   0  0  0  0  0  0  0  0  0  0  0  0
   -1.6269    2.5976    0.0000 C   0  0  0  0  0  0  0  0  0  0  0  0
    1.8393   -0.0564    0.0000 C   0  0  0  0  0  0  0  0  0  0  0  0
   -0.4729   -2.9100    0.0000 C   0  0  0  0  0  0  0  0  0  0  0  0
    3.8558   -0.3812    0.0000 C   0  0  0  0  0  0  0  0  0  0  0  0
   -3.8558    2.4851    0.0000 C   0  0  0  0  0  0  0  0  0  0  0  0
   -2.2935    3.3516    0.0000 C   0  0  0  0  0  0  0  0  0  0  0  0
    2.4767    0.7437    0.0000 C   0  0  0  0  0  0  0  0  0  0  0  0
    3.4974    0.5854    0.0000 C   0  0  0  0  0  0  0  0  0  0  0  0
   -3.2934    3.2850    0.0000 C   0  0  0  0  0  0  0  0  0  0  0  0
  2  5  1  0
  1  3  2  0
  2  4  1  0
  5  8  1  0
  4  6  2  0
  6 12  1  0
  1  7  1  0
  1  8  1  0
  3  9  1  0
  9 10  2  0
  7 10  1  0
  4 11  1  0
 12 13  1  0
  2 13  2  0
  3 14  1  0
 14 15  3  0
  5 16  2  0
 11 17  2  0
 17 18  1  0
  9 19  1  0
 10 20  1  0
 11 21  1  0
 13 22  1  0
 17 23  1  0
 23 27  2  0
 19 24  1  0
 24 28  1  0
 20 25  1  0
 21 26  2  0
 26 27  1  0
 25 28  1  0
M  END
>  <IDNUMBER>  (752) 
Y205-1523

>  <available>  (752) 
21

>  <H_acceptor>  (752) 
5

>  <H_donor>  (752) 
1

>  <B_rotN>  (752) 
5

>  <N_O>  (752) 
5

>  <logP>  (752) 
5.0045

>  <logD>  (752) 
2.2516

>  <logSw>  (752) 
-5.0998

>  <PSA>  (752) 
62.392

>  <pKa_ma>  (752) 
4.6479

>  <pKa_mb>  (752) 
-6.7294

>  <N_Chirals>  (752) 
0

>  <Name>  (752) 
3-(2-chlorophenyl)-N-(3-cyano-5,6,7,8-tetrahydro-4H-cyclohepta[b]thiophen-2-yl)-5-methyl-1,2-oxazole-4-carboxamide

>  <Smile>  (752) 
Cc1c(C(Nc(sc2c3CCCCC2)c3C#N)=O)c(-c(cccc2)c2Cl)no1

>  <Color>  (752) 
BROWN

>  <Collection>  (752) 
DC

>  <InChI>  (752) 
InChI=1S/C21H18ClN3O2S/c1-12-18(19(25-27-12)14-8-5-6-9-16(14)22)20(26)24-21-15(11-23)13-7-3-2-4-10-17(13)28-21/h5-6,8-9H,2-4,7,10H2,1H3,(H,24,26)

>  <InChI Key>  (752) 
PYRADUXWQSGPRH-UHFFFAOYSA-N

>  <PERCENTSP3>  (752) 
28.57

>  <Link>  (752) 
https://www.chemdiv.com/catalog/screening-compounds/compound-Y205-1523/

>  <MFCDNUMBER>  (752) 
MFCD03386073

>  <CLNUMBER>  (752) 
CL2451

>  <STEREO>  (752) 
ACHIRAL

>  <State>  (752) 
Solid

>  <Similarity score>  (752) 
0.20

$$$$
N-(3-cyano-5,6-dihydro-4H-cyclopenta[b]thiophen-2-yl)-5-methyl-4-[(4-nitrophenox
     RDKit          2D

 30 33  0  0  0  0  0  0  0  0999 V2000
    2.8232    0.0604    0.0000 C   0  0  0  0  0  0  0  0  0  0  0  0
    0.8104    1.7898    0.0000 C   0  0  0  0  0  0  0  0  0  0  0  0
    2.3858   -0.8187    0.0000 C   0  0  0  0  0  0  0  0  0  0  0  0
   -0.1731    1.9064    0.0000 C   0  0  0  0  0  0  0  0  0  0  0  0
    1.2273    2.6983    0.0000 N   0  0  0  0  0  0  0  0  0  0  0  0
    3.8401   -0.1188    0.0000 S   0  0  0  0  0  0  0  0  0  0  0  0
    1.3190    0.9231    0.0000 C   0  0  0  0  0  0  0  0  0  0  0  0
    3.0732   -1.5397    0.0000 C   0  0  0  0  0  0  0  0  0  0  0  0
    2.3274    0.9231    0.0000 N   0  0  0  0  0  0  0  0  0  0  0  0
    3.9734   -1.1230    0.0000 C   0  0  0  0  0  0  0  0  0  0  0  0
   -3.7235   -2.3898    0.0000 N   0  0  0  0  0  0  0  0  0  0  0  0
    0.4896    3.3733    0.0000 O   0  0  0  0  0  0  0  0  0  0  0  0
   -0.3730    2.8777    0.0000 C   0  0  0  0  0  0  0  0  0  0  0  0
    1.3897   -0.9814    0.0000 C   0  0  0  0  0  0  0  0  0  0  0  0
   -0.9314    1.2314    0.0000 C   0  0  0  0  0  0  0  0  0  0  0  0
    0.4188   -1.1355    0.0000 N   0  0  0  0  0  0  0  0  0  0  0  0
   -2.9776   -1.7272    0.0000 C   0  0  0  0  0  0  0  0  0  0  0  0
   -4.6694   -2.0731    0.0000 O   0  0  0  0  0  0  0  0  0  0  0  0
   -3.5235   -3.3733    0.0000 O   0  0  0  0  0  0  0  0  0  0  0  0
    0.8228    0.0604    0.0000 O   0  0  0  0  0  0  0  0  0  0  0  0
   -0.7273    0.2605    0.0000 O   0  0  0  0  0  0  0  0  0  0  0  0
   -2.0315   -2.0481    0.0000 C   0  0  0  0  0  0  0  0  0  0  0  0
   -3.1777   -0.7437    0.0000 C   0  0  0  0  0  0  0  0  0  0  0  0
   -1.4730   -0.4020    0.0000 C   0  0  0  0  0  0  0  0  0  0  0  0
    3.2150   -2.5315    0.0000 C   0  0  0  0  0  0  0  0  0  0  0  0
    4.6694   -1.8606    0.0000 C   0  0  0  0  0  0  0  0  0  0  0  0
   -2.4233   -0.0813    0.0000 C   0  0  0  0  0  0  0  0  0  0  0  0
   -1.2731   -1.3855    0.0000 C   0  0  0  0  0  0  0  0  0  0  0  0
   -1.2857    3.3026    0.0000 C   0  0  0  0  0  0  0  0  0  0  0  0
    4.1860   -2.7107    0.0000 C   0  0  0  0  0  0  0  0  0  0  0  0
  2  7  1  0
  1  3  2  0
  2  4  1  0
  2  5  2  0
  1  6  1  0
  7  9  1  0
  3  8  1  0
  8 10  2  0
  1  9  1  0
  6 10  1  0
 11 17  1  0
  5 12  1  0
 12 13  1  0
  4 13  2  0
  3 14  1  0
  4 15  1  0
 14 16  3  0
 17 22  1  0
 11 18  1  0
 11 19  2  0
  7 20  2  0
 15 21  1  0
 22 28  2  0
 23 27  1  0
 17 23  2  0
 21 24  1  0
  8 25  1  0
 25 30  1  0
 10 26  1  0
 24 27  2  0
 24 28  1  0
 13 29  1  0
 26 30  1  0
M  CHG  2  11   1  18  -1
M  END
>  <IDNUMBER>  (753) 
Y501-2467

>  <available>  (753) 
17

>  <H_acceptor>  (753) 
10

>  <H_donor>  (753) 
1

>  <B_rotN>  (753) 
8

>  <N_O>  (753) 
9

>  <logP>  (753) 
3.8492

>  <logD>  (753) 
1.3615

>  <logSw>  (753) 
-4.2784

>  <PSA>  (753) 
103.308

>  <pKa_ma>  (753) 
4.9137

>  <pKa_mb>  (753) 
-6.5152

>  <N_Chirals>  (753) 
0

>  <Name>  (753) 
N-(3-cyano-5,6-dihydro-4H-cyclopenta[b]thiophen-2-yl)-5-methyl-4-[(4-nitrophenoxy)methyl]-1,2-oxazole-3-carboxamide

>  <Smile>  (753) 
Cc1c(COc(cc2)ccc2[N+]([O-])=O)c(C(Nc(sc2c3CCC2)c3C#N)=O)no1

>  <Color>  (753) 
BROWN

>  <Collection>  (753) 
DC

>  <InChI>  (753) 
InChI=1S/C20H16N4O5S/c1-11-16(10-28-13-7-5-12(6-8-13)24(26)27)18(23-29-11)19(25)22-20-15(9-21)14-3-2-4-17(14)30-20/h5-8H,2-4,10H2,1H3,(H,22,25)

>  <InChI Key>  (753) 
BZKKAAWEHXQYMU-UHFFFAOYSA-N

>  <PERCENTSP3>  (753) 
25

>  <Link>  (753) 
https://www.chemdiv.com/catalog/screening-compounds/compound-Y501-2467/

>  <MFCDNUMBER>  (753) 
MFCD08557403

>  <STEREO>  (753) 
ACHIRAL

>  <State>  (753) 
Solid

>  <Similarity score>  (753) 
0.20

$$$$
N-(3-cyano-4,5,6,7-tetrahydro-1-benzothiophen-2-yl)-5-(2-methyl-2,3-dihydro-1-be
     RDKit          2D

 30 34  0  0  0  0  0  0  0  0999 V2000
   -1.9170    1.4959    0.0000 C   0  0  0  0  0  0  0  0  0  0  0  0
   -2.5045    2.3002    0.0000 C   0  0  0  0  0  0  0  0  0  0  0  0
    0.5708    0.6083    0.0000 C   0  0  0  0  0  0  0  0  0  0  0  0
   -2.5087    0.6833    0.0000 S   0  0  0  0  0  0  0  0  0  0  0  0
   -3.4547    1.9961    0.0000 C   0  0  0  0  0  0  0  0  0  0  0  0
    1.1585    1.4084    0.0000 N   0  0  0  0  0  0  0  0  0  0  0  0
   -0.9168    1.4834    0.0000 N   0  0  0  0  0  0  0  0  0  0  0  0
    1.1585   -0.2043    0.0000 C   0  0  0  0  0  0  0  0  0  0  0  0
   -3.4588    0.9960    0.0000 C   0  0  0  0  0  0  0  0  0  0  0  0
   -0.4168    0.6125    0.0000 C   0  0  0  0  0  0  0  0  0  0  0  0
    2.1086    0.0875    0.0000 C   0  0  0  0  0  0  0  0  0  0  0  0
    2.1086    1.0876    0.0000 O   0  0  0  0  0  0  0  0  0  0  0  0
   -2.1920    3.2504    0.0000 C   0  0  0  0  0  0  0  0  0  0  0  0
    3.5964   -2.0794    0.0000 C   0  0  0  0  0  0  0  0  0  0  0  0
    5.1924   -2.4295    0.0000 O   0  0  0  0  0  0  0  0  0  0  0  0
    4.5216   -1.6877    0.0000 C   0  0  0  0  0  0  0  0  0  0  0  0
    2.9171   -0.5041    0.0000 C   0  0  0  0  0  0  0  0  0  0  0  0
   -1.9337    4.2172    0.0000 N   0  0  0  0  0  0  0  0  0  0  0  0
    2.7964   -1.4920    0.0000 C   0  0  0  0  0  0  0  0  0  0  0  0
    3.6965   -3.0878    0.0000 C   0  0  0  0  0  0  0  0  0  0  0  0
   -0.9293   -0.2500    0.0000 O   0  0  0  0  0  0  0  0  0  0  0  0
    4.6840   -3.3046    0.0000 C   0  0  0  0  0  0  0  0  0  0  0  0
    4.6298   -0.6794    0.0000 C   0  0  0  0  0  0  0  0  0  0  0  0
    3.8172   -0.0957    0.0000 C   0  0  0  0  0  0  0  0  0  0  0  0
   -4.3090    2.5003    0.0000 C   0  0  0  0  0  0  0  0  0  0  0  0
   -4.3298    0.5084    0.0000 C   0  0  0  0  0  0  0  0  0  0  0  0
    5.0716   -4.2172    0.0000 C   0  0  0  0  0  0  0  0  0  0  0  0
   -5.1799    2.0169    0.0000 C   0  0  0  0  0  0  0  0  0  0  0  0
   -5.1924    1.0127    0.0000 C   0  0  0  0  0  0  0  0  0  0  0  0
   -0.4168    2.3460    0.0000 H   0  0  0  0  0  0  0  0  0  0  0  0
  1  2  2  0
  3 10  1  0
  1  4  1  0
  2  5  1  0
  3  6  2  0
  1  7  1  0
  3  8  1  0
  4  9  1  0
  5  9  2  0
  7 10  1  0
  8 11  2  0
 11 12  1  0
  6 12  1  0
  2 13  1  0
 14 19  1  0
 15 16  1  0
 16 23  1  0
 14 16  2  0
 11 17  1  0
 13 18  3  0
 17 19  2  0
 14 20  1  0
 10 21  2  0
 20 22  1  0
 15 22  1  0
 23 24  2  0
 17 24  1  0
  5 25  1  0
  9 26  1  0
 22 27  1  0
 25 28  1  0
 26 29  1  0
 28 29  1  0
  7 30  1  0
M  END
>  <IDNUMBER>  (754) 
D337-1093

>  <available>  (754) 
64

>  <H_acceptor>  (754) 
6

>  <H_donor>  (754) 
1

>  <B_rotN>  (754) 
5

>  <N_O>  (754) 
6

>  <logP>  (754) 
4.8655

>  <logD>  (754) 
3.5744

>  <logSw>  (754) 
-4.7257

>  <PSA>  (754) 
69.038

>  <pKa_ma>  (754) 
6.1318

>  <pKa_mb>  (754) 
-6.3269

>  <N_Chirals>  (754) 
1

>  <Name>  (754) 
N-(3-cyano-4,5,6,7-tetrahydro-1-benzothiophen-2-yl)-5-(2-methyl-2,3-dihydro-1-benzofuran-5-yl)-1,2-oxazole-3-carboxamide

>  <Smile>  (754) 
CC(C1)Oc(cc2)c1cc2-c1cc(C(Nc(sc2c3CCCC2)c3C#N)=O)no1

>  <Color>  (754) 
ORANGE

>  <Collection>  (754) 
DC

>  <InChI>  (754) 
InChI=1S/C22H19N3O3S/c1-12-8-14-9-13(6-7-18(14)27-12)19-10-17(25-28-19)21(26)24-22-16(11-23)15-4-2-3-5-20(15)29-22/h6-7,9-10,12H,2-5,8H2,1H3,(H,24,26)/t12-/m1/s1

>  <InChI Key>  (754) 
ZRFPTQSWEYXVAA-GFCCVEGCSA-N

>  <PERCENTSP3>  (754) 
31.8

>  <Link>  (754) 
https://www.chemdiv.com/catalog/screening-compounds/compound-D337-1093/

>  <MFCDNUMBER>  (754) 
MFCD08545738

>  <CLNUMBER>  (754) 
CL2028

>  <STEREO>  (754) 
RACEMIC MIXTURE

>  <State>  (754) 
Solid

>  <Similarity score>  (754) 
0.20

$$$$
N-(3-cyano-4,5,6,7-tetrahydro-1-benzothiophen-2-yl)-5-(3-methoxyphenyl)-1,2-oxaz
     RDKit          2D

 27 30  0  0  0  0  0  0  0  0999 V2000
   -1.6810   -1.8937    0.0000 C   0  0  0  0  0  0  0  0  0  0  0  0
   -1.0746   -2.6665    0.0000 C   0  0  0  0  0  0  0  0  0  0  0  0
   -0.8608    1.3401    0.0000 C   0  0  0  0  0  0  0  0  0  0  0  0
   -2.6048   -2.2259    0.0000 S   0  0  0  0  0  0  0  0  0  0  0  0
   -1.6056   -3.4844    0.0000 C   0  0  0  0  0  0  0  0  0  0  0  0
   -1.6206    1.9215    0.0000 N   0  0  0  0  0  0  0  0  0  0  0  0
   -1.6810   -0.8795    0.0000 N   0  0  0  0  0  0  0  0  0  0  0  0
   -0.0728    1.8761    0.0000 C   0  0  0  0  0  0  0  0  0  0  0  0
   -2.5645   -3.2201    0.0000 C   0  0  0  0  0  0  0  0  0  0  0  0
   -0.8156   -0.3789    0.0000 C   0  0  0  0  0  0  0  0  0  0  0  0
   -0.3446    2.7873    0.0000 C   0  0  0  0  0  0  0  0  0  0  0  0
   -1.3012    2.8124    0.0000 O   0  0  0  0  0  0  0  0  0  0  0  0
   -0.0578   -2.6034    0.0000 C   0  0  0  0  0  0  0  0  0  0  0  0
    0.9511   -2.5732    0.0000 N   0  0  0  0  0  0  0  0  0  0  0  0
    0.2466    3.5396    0.0000 C   0  0  0  0  0  0  0  0  0  0  0  0
   -0.0026   -0.8795    0.0000 O   0  0  0  0  0  0  0  0  0  0  0  0
    1.1828    3.4188    0.0000 C   0  0  0  0  0  0  0  0  0  0  0  0
    1.7591    4.1662    0.0000 C   0  0  0  0  0  0  0  0  0  0  0  0
   -1.3464   -4.4530    0.0000 C   0  0  0  0  0  0  0  0  0  0  0  0
   -3.2868   -3.9246    0.0000 C   0  0  0  0  0  0  0  0  0  0  0  0
    2.7003    4.0302    0.0000 O   0  0  0  0  0  0  0  0  0  0  0  0
   -0.1234    4.4078    0.0000 C   0  0  0  0  0  0  0  0  0  0  0  0
    0.4556    5.1680    0.0000 C   0  0  0  0  0  0  0  0  0  0  0  0
    1.3942    5.0448    0.0000 C   0  0  0  0  0  0  0  0  0  0  0  0
    3.2868    4.7880    0.0000 C   0  0  0  0  0  0  0  0  0  0  0  0
   -2.0586   -5.1680    0.0000 C   0  0  0  0  0  0  0  0  0  0  0  0
   -3.0301   -4.9036    0.0000 C   0  0  0  0  0  0  0  0  0  0  0  0
  1  2  2  0
  3 10  1  0
  1  4  1  0
  2  5  1  0
  3  6  2  0
  1  7  1  0
  3  8  1  0
  4  9  1  0
  5  9  2  0
  7 10  1  0
  8 11  2  0
 11 12  1  0
  6 12  1  0
  2 13  1  0
 13 14  3  0
 11 15  1  0
 10 16  2  0
 15 17  2  0
 17 18  1  0
 18 24  2  0
  5 19  1  0
  9 20  1  0
 18 21  1  0
 15 22  1  0
 22 23  2  0
 23 24  1  0
 21 25  1  0
 19 26  1  0
 26 27  1  0
 20 27  1  0
M  END
>  <IDNUMBER>  (755) 
C226-0889

>  <available>  (755) 
118

>  <H_acceptor>  (755) 
6

>  <H_donor>  (755) 
1

>  <B_rotN>  (755) 
6

>  <N_O>  (755) 
6

>  <logP>  (755) 
4.4551

>  <logD>  (755) 
3.1641

>  <logSw>  (755) 
-4.4893

>  <PSA>  (755) 
69.18

>  <pKa_ma>  (755) 
6.1318

>  <pKa_mb>  (755) 
-6.8683

>  <N_Chirals>  (755) 
0

>  <Name>  (755) 
N-(3-cyano-4,5,6,7-tetrahydro-1-benzothiophen-2-yl)-5-(3-methoxyphenyl)-1,2-oxazole-3-carboxamide

>  <Smile>  (755) 
COc1cccc(-c2cc(C(Nc(sc3c4CCCC3)c4C#N)=O)no2)c1

>  <Color>  (755) 
NOT COLORED

>  <Collection>  (755) 
DC

>  <InChI>  (755) 
InChI=1S/C20H17N3O3S/c1-25-13-6-4-5-12(9-13)17-10-16(23-26-17)19(24)22-20-15(11-21)14-7-2-3-8-18(14)27-20/h4-6,9-10H,2-3,7-8H2,1H3,(H,22,24)

>  <InChI Key>  (755) 
SGBTUQGUXSHNJF-UHFFFAOYSA-N

>  <PERCENTSP3>  (755) 
25

>  <Link>  (755) 
https://www.chemdiv.com/catalog/screening-compounds/compound-C226-0889/

>  <MFCDNUMBER>  (755) 
MFCD09782061

>  <CLNUMBER>  (755) 
CL2028

>  <STEREO>  (755) 
ACHIRAL

>  <State>  (755) 
Solid

>  <Similarity score>  (755) 
0.20

$$$$
N-(6-tert-butyl-3-cyano-4,5,6,7-tetrahydro-1-benzothiophen-2-yl)-4,5,6,7-tetrahy
     RDKit          2D

 27 30  0  0  0  0  0  0  0  0999 V2000
   -0.2489   -0.1276    0.0000 C   0  0  0  0  0  0  0  0  0  0  0  0
   -1.0559   -0.6835    0.0000 C   0  0  0  0  0  0  0  0  0  0  0  0
    0.5816    2.9347    0.0000 C   0  0  0  0  0  0  0  0  0  0  0  0
    0.2296   -1.6664    0.0000 C   0  0  0  0  0  0  0  0  0  0  0  0
   -0.7792   -1.6471    0.0000 C   0  0  0  0  0  0  0  0  0  0  0  0
   -0.0987    3.5850    0.0000 N   0  0  0  0  0  0  0  0  0  0  0  0
    0.5516   -0.7288    0.0000 S   0  0  0  0  0  0  0  0  0  0  0  0
    1.4227    3.6001    0.0000 C   0  0  0  0  0  0  0  0  0  0  0  0
    0.6116    1.3831    0.0000 C   0  0  0  0  0  0  0  0  0  0  0  0
   -0.2489    0.8852    0.0000 N   0  0  0  0  0  0  0  0  0  0  0  0
    0.1826    4.4779    0.0000 O   0  0  0  0  0  0  0  0  0  0  0  0
    1.1245    4.4928    0.0000 C   0  0  0  0  0  0  0  0  0  0  0  0
   -1.9981   -0.3530    0.0000 C   0  0  0  0  0  0  0  0  0  0  0  0
    0.7015   -2.5419    0.0000 C   0  0  0  0  0  0  0  0  0  0  0  0
   -2.9509   -0.0204    0.0000 N   0  0  0  0  0  0  0  0  0  0  0  0
   -1.2918   -2.4927    0.0000 C   0  0  0  0  0  0  0  0  0  0  0  0
    0.1736   -3.3982    0.0000 C   0  0  0  0  0  0  0  0  0  0  0  0
    0.6526   -4.2911    0.0000 C   0  0  0  0  0  0  0  0  0  0  0  0
    1.4227    0.8896    0.0000 O   0  0  0  0  0  0  0  0  0  0  0  0
   -0.8134   -3.3684    0.0000 C   0  0  0  0  0  0  0  0  0  0  0  0
    2.3264    3.4200    0.0000 C   0  0  0  0  0  0  0  0  0  0  0  0
    1.7447    5.1881    0.0000 C   0  0  0  0  0  0  0  0  0  0  0  0
   -0.2489   -4.7590    0.0000 C   0  0  0  0  0  0  0  0  0  0  0  0
    1.5430   -3.8276    0.0000 C   0  0  0  0  0  0  0  0  0  0  0  0
    1.1096   -5.1881    0.0000 C   0  0  0  0  0  0  0  0  0  0  0  0
    2.9509    4.1088    0.0000 C   0  0  0  0  0  0  0  0  0  0  0  0
    2.6505    5.0057    0.0000 C   0  0  0  0  0  0  0  0  0  0  0  0
  1  2  2  0
  3  9  1  0
  4  7  1  0
  4  5  2  0
  2  5  1  0
  3  6  2  0
  1  7  1  0
  3  8  1  0
  9 10  1  0
  1 10  1  0
  6 11  1  0
  8 12  2  0
 11 12  1  0
  2 13  1  0
  4 14  1  0
 13 15  3  0
  5 16  1  0
 14 17  1  0
 17 18  1  0
  9 19  2  0
 16 20  1  0
 17 20  1  0
  8 21  1  0
 12 22  1  0
 18 23  1  0
 18 24  1  0
 18 25  1  0
 21 26  1  0
 26 27  1  0
 22 27  1  0
M  END
>  <IDNUMBER>  (756) 
C226-3405

>  <available>  (756) 
220

>  <H_acceptor>  (756) 
5

>  <H_donor>  (756) 
1

>  <B_rotN>  (756) 
5

>  <N_O>  (756) 
5

>  <logP>  (756) 
5.0495

>  <logD>  (756) 
2.8678

>  <logSw>  (756) 
-4.6096

>  <PSA>  (756) 
62.501

>  <pKa_ma>  (756) 
5.2212

>  <pKa_mb>  (756) 
-5.5427

>  <N_Chirals>  (756) 
1

>  <Name>  (756) 
N-(6-tert-butyl-3-cyano-4,5,6,7-tetrahydro-1-benzothiophen-2-yl)-4,5,6,7-tetrahydro-1,2-benzoxazole-3-carboxamide

>  <Smile>  (756) 
CC(C)(C)C(CC1)Cc2c1c(C#N)c(NC(c1noc3c1CCCC3)=O)s2

>  <Color>  (756) 
NOT COLORED

>  <Collection>  (756) 
DC

>  <InChI>  (756) 
InChI=1S/C21H25N3O2S/c1-21(2,3)12-8-9-13-15(11-22)20(27-17(13)10-12)23-19(25)18-14-6-4-5-7-16(14)26-24-18/h12H,4-10H2,1-3H3,(H,23,25)/t12-/m1/s1

>  <InChI Key>  (756) 
YSLLOKYIJDDBBV-GFCCVEGCSA-N

>  <PERCENTSP3>  (756) 
57.1

>  <Link>  (756) 
https://www.chemdiv.com/catalog/screening-compounds/compound-C226-3405/

>  <MFCDNUMBER>  (756) 
MFCD09783055

>  <CLNUMBER>  (756) 
CL2031

>  <STEREO>  (756) 
RACEMIC MIXTURE

>  <CAS>  (756) 
912800-47-6

>  <State>  (756) 
Solid

>  <Similarity score>  (756) 
0.20

$$$$
N-(6-tert-butyl-3-cyano-4,5,6,7-tetrahydro-1-benzothiophen-2-yl)-5,6,7,8-tetrahy
     RDKit          2D

 28 31  0  0  0  0  0  0  0  0999 V2000
   -0.2948   -0.2327    0.0000 C   0  0  0  0  0  0  0  0  0  0  0  0
   -1.1018   -0.7886    0.0000 C   0  0  0  0  0  0  0  0  0  0  0  0
    0.4602    3.0260    0.0000 C   0  0  0  0  0  0  0  0  0  0  0  0
    0.1834   -1.7709    0.0000 C   0  0  0  0  0  0  0  0  0  0  0  0
   -0.8250   -1.7516    0.0000 C   0  0  0  0  0  0  0  0  0  0  0  0
   -0.2948    3.6309    0.0000 N   0  0  0  0  0  0  0  0  0  0  0  0
    0.5052   -0.8336    0.0000 S   0  0  0  0  0  0  0  0  0  0  0  0
    1.2603    3.5687    0.0000 C   0  0  0  0  0  0  0  0  0  0  0  0
    0.5652    1.2774    0.0000 C   0  0  0  0  0  0  0  0  0  0  0  0
   -0.2948    0.7798    0.0000 N   0  0  0  0  0  0  0  0  0  0  0  0
    0.0461    4.5319    0.0000 O   0  0  0  0  0  0  0  0  0  0  0  0
    1.0029    4.4912    0.0000 C   0  0  0  0  0  0  0  0  0  0  0  0
   -2.0434   -0.4580    0.0000 C   0  0  0  0  0  0  0  0  0  0  0  0
    0.6553   -2.6462    0.0000 C   0  0  0  0  0  0  0  0  0  0  0  0
   -2.9959   -0.1257    0.0000 N   0  0  0  0  0  0  0  0  0  0  0  0
   -1.3376   -2.5971    0.0000 C   0  0  0  0  0  0  0  0  0  0  0  0
    0.1277   -3.5022    0.0000 C   0  0  0  0  0  0  0  0  0  0  0  0
    0.6060   -4.3948    0.0000 C   0  0  0  0  0  0  0  0  0  0  0  0
    1.3657    0.7496    0.0000 O   0  0  0  0  0  0  0  0  0  0  0  0
   -0.8592   -3.4723    0.0000 C   0  0  0  0  0  0  0  0  0  0  0  0
    1.9705    3.1760    0.0000 C   0  0  0  0  0  0  0  0  0  0  0  0
    1.4364    5.2012    0.0000 C   0  0  0  0  0  0  0  0  0  0  0  0
   -0.2948   -4.8624    0.0000 C   0  0  0  0  0  0  0  0  0  0  0  0
    1.4963   -3.9313    0.0000 C   0  0  0  0  0  0  0  0  0  0  0  0
    1.0631   -5.2913    0.0000 C   0  0  0  0  0  0  0  0  0  0  0  0
    2.8094    3.5687    0.0000 C   0  0  0  0  0  0  0  0  0  0  0  0
    2.3608    5.2913    0.0000 C   0  0  0  0  0  0  0  0  0  0  0  0
    2.9959    4.5363    0.0000 C   0  0  0  0  0  0  0  0  0  0  0  0
  1  2  2  0
  3  9  1  0
  4  7  1  0
  4  5  2  0
  2  5  1  0
  3  6  2  0
  1  7  1  0
  3  8  1  0
  9 10  1  0
  1 10  1  0
  6 11  1  0
  8 12  2  0
 11 12  1  0
  2 13  1  0
  4 14  1  0
 13 15  3  0
  5 16  1  0
 14 17  1  0
 17 18  1  0
  9 19  2  0
 16 20  1  0
 17 20  1  0
  8 21  1  0
 12 22  1  0
 18 23  1  0
 18 24  1  0
 18 25  1  0
 21 26  1  0
 22 27  1  0
 26 28  1  0
 27 28  1  0
M  END
>  <IDNUMBER>  (757) 
C226-3519

>  <available>  (757) 
242

>  <H_acceptor>  (757) 
5

>  <H_donor>  (757) 
1

>  <B_rotN>  (757) 
5

>  <N_O>  (757) 
5

>  <logP>  (757) 
5.5454

>  <logD>  (757) 
3.3637

>  <logSw>  (757) 
-5.1755

>  <PSA>  (757) 
62.832

>  <pKa_ma>  (757) 
5.2212

>  <pKa_mb>  (757) 
-5.3039

>  <N_Chirals>  (757) 
1

>  <Name>  (757) 
N-(6-tert-butyl-3-cyano-4,5,6,7-tetrahydro-1-benzothiophen-2-yl)-5,6,7,8-tetrahydro-4H-cyclohepta[d][1,2]oxazole-3-carboxamide

>  <Smile>  (757) 
CC(C)(C)C(CC1)Cc2c1c(C#N)c(NC(c1noc3c1CCCCC3)=O)s2

>  <Color>  (757) 
NOT COLORED

>  <Collection>  (757) 
DC

>  <InChI>  (757) 
InChI=1S/C22H27N3O2S/c1-22(2,3)13-9-10-14-16(12-23)21(28-18(14)11-13)24-20(26)19-15-7-5-4-6-8-17(15)27-25-19/h13H,4-11H2,1-3H3,(H,24,26)/t13-/m1/s1

>  <InChI Key>  (757) 
LFJDGOOGHKSHIG-CYBMUJFWSA-N

>  <PERCENTSP3>  (757) 
59.1

>  <Link>  (757) 
https://www.chemdiv.com/catalog/screening-compounds/compound-C226-3519/

>  <MFCDNUMBER>  (757) 
MFCD09783109

>  <CLNUMBER>  (757) 
CL2031

>  <STEREO>  (757) 
RACEMIC MIXTURE

>  <State>  (757) 
Solid

>  <Similarity score>  (757) 
0.20

$$$$
3-bromo-N-(3-cyano-4,5,6,7-tetrahydro-1-benzothiophen-2-yl)-6-(4H-1,2,4-triazol-
     RDKit          2D

 26 29  0  0  0  0  0  0  0  0999 V2000
    1.9354   -0.0896    0.0000 C   0  0  0  0  0  0  0  0  0  0  0  0
    2.9022   -0.3103    0.0000 C   0  0  0  0  0  0  0  0  0  0  0  0
   -0.5562   -0.7480    0.0000 C   0  0  0  0  0  0  0  0  0  0  0  0
   -1.4229   -1.2479    0.0000 N   0  0  0  0  0  0  0  0  0  0  0  0
    1.8438    0.9105    0.0000 S   0  0  0  0  0  0  0  0  0  0  0  0
   -3.1479   -1.2479    0.0000 N   0  0  0  0  0  0  0  0  0  0  0  0
    3.4146    0.5479    0.0000 C   0  0  0  0  0  0  0  0  0  0  0  0
    0.3103   -1.2479    0.0000 C   0  0  0  0  0  0  0  0  0  0  0  0
    1.1688   -0.7437    0.0000 N   0  0  0  0  0  0  0  0  0  0  0  0
    2.7645    1.2980    0.0000 C   0  0  0  0  0  0  0  0  0  0  0  0
   -2.2813   -0.7480    0.0000 C   0  0  0  0  0  0  0  0  0  0  0  0
   -4.2312   -2.4437    0.0000 N   0  0  0  0  0  0  0  0  0  0  0  0
   -4.7312   -1.5771    0.0000 N   0  0  0  0  0  0  0  0  0  0  0  0
    3.2938   -1.2354    0.0000 C   0  0  0  0  0  0  0  0  0  0  0  0
   -4.0604   -0.8396    0.0000 C   0  0  0  0  0  0  0  0  0  0  0  0
   -3.2563   -2.2396    0.0000 C   0  0  0  0  0  0  0  0  0  0  0  0
    2.6895   -2.0396    0.0000 N   0  0  0  0  0  0  0  0  0  0  0  0
   -0.5562    0.2522    0.0000 C   0  0  0  0  0  0  0  0  0  0  0  0
    0.3103   -2.2438    0.0000 O   0  0  0  0  0  0  0  0  0  0  0  0
   -2.2813    0.2522    0.0000 C   0  0  0  0  0  0  0  0  0  0  0  0
   -1.4229    0.7521    0.0000 C   0  0  0  0  0  0  0  0  0  0  0  0
    0.3063    0.7563    0.0000 Br  0  0  0  0  0  0  0  0  0  0  0  0
    4.4021    0.7313    0.0000 C   0  0  0  0  0  0  0  0  0  0  0  0
    3.0853    2.2479    0.0000 C   0  0  0  0  0  0  0  0  0  0  0  0
    4.7312    1.6855    0.0000 C   0  0  0  0  0  0  0  0  0  0  0  0
    4.0646    2.4437    0.0000 C   0  0  0  0  0  0  0  0  0  0  0  0
  1  2  2  0
  3  8  1  0
  3  4  2  0
  1  5  1  0
  6 11  1  0
  2  7  1  0
  7 10  2  0
  8  9  1  0
  1  9  1  0
  5 10  1  0
  4 11  1  0
 12 16  2  0
 13 15  2  0
 12 13  1  0
  2 14  1  0
  6 15  1  0
  6 16  1  0
 14 17  3  0
  3 18  1  0
  8 19  2  0
 20 21  1  0
 11 20  2  0
 18 21  2  0
 18 22  1  0
  7 23  1  0
 10 24  1  0
 23 25  1  0
 25 26  1  0
 24 26  1  0
M  END
>  <IDNUMBER>  (758) 
J015-0222

>  <available>  (758) 
51

>  <H_acceptor>  (758) 
6

>  <H_donor>  (758) 
1

>  <B_rotN>  (758) 
5

>  <N_O>  (758) 
7

>  <logP>  (758) 
3.4552

>  <logD>  (758) 
-0.1017

>  <logSw>  (758) 
-4.0674

>  <PSA>  (758) 
74.982

>  <pKa_ma>  (758) 
3.8432

>  <pKa_mb>  (758) 
1.2706

>  <N_Chirals>  (758) 
0

>  <Name>  (758) 
3-bromo-N-(3-cyano-4,5,6,7-tetrahydro-1-benzothiophen-2-yl)-6-(4H-1,2,4-triazol-4-yl)pyridine-2-carboxamide

>  <Smile>  (758) 
N#Cc1c(NC(c(nc(cc2)-n3cnnc3)c2Br)=O)sc2c1CCCC2

>  <Color>  (758) 
ORANGE

>  <Collection>  (758) 
NC

>  <InChI>  (758) 
InChI=1S/C17H13BrN6OS/c18-12-5-6-14(24-8-20-21-9-24)22-15(12)16(25)23-17-11(7-19)10-3-1-2-4-13(10)26-17/h5-6,8-9H,1-4H2,(H,23,25)

>  <InChI Key>  (758) 
DYXRUGKERAFRSC-UHFFFAOYSA-N

>  <PERCENTSP3>  (758) 
23.5

>  <Link>  (758) 
https://www.chemdiv.com/catalog/screening-compounds/compound-J015-0222/

>  <MFCDNUMBER>  (758) 
MFCD27217836

>  <CLNUMBER>  (758) 
CL8311

>  <STEREO>  (758) 
ACHIRAL

>  <State>  (758) 
Solid

>  <Similarity score>  (758) 
0.20

$$$$
N-(6-tert-butyl-3-cyano-4,5,6,7-tetrahydro-1-benzothiophen-2-yl)-5-(furan-2-yl)-
     RDKit          2D

 36 40  0  0  0  0  0  0  0  0999 V2000
    2.3152   -0.2654    0.0000 N   0  0  0  0  0  0  0  0  0  0  0  0
    3.0990    0.3631    0.0000 C   0  0  0  0  0  0  0  0  0  0  0  0
    2.4926   -1.2657    0.0000 C   0  0  0  0  0  0  0  0  0  0  0  0
   -1.6883   -0.4079    0.0000 C   0  0  0  0  0  0  0  0  0  0  0  0
    1.3387   -0.1322    0.0000 N   0  0  0  0  0  0  0  0  0  0  0  0
   -2.2560    0.4131    0.0000 C   0  0  0  0  0  0  0  0  0  0  0  0
    0.8857   -0.9884    0.0000 C   0  0  0  0  0  0  0  0  0  0  0  0
    1.5829   -1.7243    0.0000 C   0  0  0  0  0  0  0  0  0  0  0  0
    3.4320   -1.6318    0.0000 N   0  0  0  0  0  0  0  0  0  0  0  0
    4.0457    0.0008    0.0000 C   0  0  0  0  0  0  0  0  0  0  0  0
   -3.1952   -0.9032    0.0000 C   0  0  0  0  0  0  0  0  0  0  0  0
   -3.2266    0.0914    0.0000 C   0  0  0  0  0  0  0  0  0  0  0  0
   -2.2560   -1.2214    0.0000 S   0  0  0  0  0  0  0  0  0  0  0  0
    4.1919   -0.9884    0.0000 C   0  0  0  0  0  0  0  0  0  0  0  0
    2.9492    1.3674    0.0000 C   0  0  0  0  0  0  0  0  0  0  0  0
   -0.7175   -0.3190    0.0000 N   0  0  0  0  0  0  0  0  0  0  0  0
   -0.1092   -1.1271    0.0000 C   0  0  0  0  0  0  0  0  0  0  0  0
   -1.9435    1.3339    0.0000 C   0  0  0  0  0  0  0  0  0  0  0  0
    5.1017   -1.3544    0.0000 C   0  0  0  0  0  0  0  0  0  0  0  0
   -4.0717   -1.4042    0.0000 C   0  0  0  0  0  0  0  0  0  0  0  0
   -1.6272    2.2439    0.0000 N   0  0  0  0  0  0  0  0  0  0  0  0
   -4.0717    0.5945    0.0000 C   0  0  0  0  0  0  0  0  0  0  0  0
   -4.9259   -0.9032    0.0000 C   0  0  0  0  0  0  0  0  0  0  0  0
    5.3458   -2.3290    0.0000 O   0  0  0  0  0  0  0  0  0  0  0  0
   -5.8062   -1.4042    0.0000 C   0  0  0  0  0  0  0  0  0  0  0  0
   -0.5307   -2.0405    0.0000 O   0  0  0  0  0  0  0  0  0  0  0  0
    5.9541   -0.8350    0.0000 C   0  0  0  0  0  0  0  0  0  0  0  0
   -4.9259    0.0914    0.0000 C   0  0  0  0  0  0  0  0  0  0  0  0
    6.3609   -2.3750    0.0000 C   0  0  0  0  0  0  0  0  0  0  0  0
    6.6937   -1.4488    0.0000 C   0  0  0  0  0  0  0  0  0  0  0  0
    3.9570    1.5096    0.0000 F   0  0  0  0  0  0  0  0  0  0  0  0
    1.9452    1.2285    0.0000 F   0  0  0  0  0  0  0  0  0  0  0  0
    2.8032    2.3750    0.0000 F   0  0  0  0  0  0  0  0  0  0  0  0
   -6.6937   -1.9075    0.0000 C   0  0  0  0  0  0  0  0  0  0  0  0
   -6.3182   -0.5466    0.0000 C   0  0  0  0  0  0  0  0  0  0  0  0
   -5.3196   -2.3141    0.0000 C   0  0  0  0  0  0  0  0  0  0  0  0
  1  2  1  0
  1  3  1  0
  4 16  1  0
  1  5  1  0
  4  6  2  0
  5  7  2  0
  3  8  2  0
  7  8  1  0
  3  9  1  0
  2 10  2  0
 11 13  1  0
 11 12  2  0
  6 12  1  0
  4 13  1  0
  9 14  2  0
 10 14  1  0
  2 15  1  0
 16 17  1  0
  7 17  1  0
  6 18  1  0
 14 19  1  0
 11 20  1  0
 18 21  3  0
 12 22  1  0
 20 23  1  0
 23 28  1  0
 19 24  1  0
 23 25  1  0
 17 26  2  0
 19 27  2  0
 22 28  1  0
 24 29  1  0
 29 30  2  0
 27 30  1  0
 15 31  1  0
 15 32  1  0
 15 33  1  0
 25 34  1  0
 25 35  1  0
 25 36  1  0
M  END
>  <IDNUMBER>  (759) 
K061-0526

>  <available>  (759) 
27

>  <H_acceptor>  (759) 
6

>  <H_donor>  (759) 
1

>  <B_rotN>  (759) 
7

>  <N_O>  (759) 
7

>  <logP>  (759) 
6.1289

>  <logD>  (759) 
4.5029

>  <logSw>  (759) 
-5.462

>  <PSA>  (759) 
66.838

>  <pKa_ma>  (759) 
5.7844

>  <pKa_mb>  (759) 
0.7525

>  <N_Chirals>  (759) 
1

>  <Name>  (759) 
N-(6-tert-butyl-3-cyano-4,5,6,7-tetrahydro-1-benzothiophen-2-yl)-5-(furan-2-yl)-7-(trifluoromethyl)pyrazolo[1,5-a]pyrimidine-2-carboxamide

>  <Smile>  (759) 
CC(C)(C)C(CC1)Cc2c1c(C#N)c(NC(c1nn3c(C(F)(F)F)cc(-c4ccco4)nc3c1)=O)s2

>  <Color>  (759) 
YELLOW

>  <Collection>  (759) 
DC

>  <InChI>  (759) 
InChI=1S/C25H22F3N5O2S/c1-24(2,3)13-6-7-14-15(12-29)23(36-19(14)9-13)31-22(34)17-11-21-30-16(18-5-4-8-35-18)10-20(25(26,27)28)33(21)32-17/h4-5,8,10-11,13H,6-7,9H2,1-3H3,(H,31,34)/t13-/m1/s1

>  <InChI Key>  (759) 
RDDLGKKHOCSNCD-CYBMUJFWSA-N

>  <PERCENTSP3>  (759) 
36

>  <Link>  (759) 
https://www.chemdiv.com/catalog/screening-compounds/compound-K061-0526/

>  <MFCDNUMBER>  (759) 
MFCD01244390

>  <CLNUMBER>  (759) 
CL1646

>  <STEREO>  (759) 
RACEMIC MIXTURE

>  <State>  (759) 
Solid

>  <Similarity score>  (759) 
0.20

$$$$
N-(3-cyano-6-methyl-4,5,6,7-tetrahydro-1-benzothiophen-2-yl)-5-(4-methoxyphenyl)
     RDKit          2D

 36 40  0  0  0  0  0  0  0  0999 V2000
    0.4327    0.0306    0.0000 N   0  0  0  0  0  0  0  0  0  0  0  0
    0.8888    0.8421    0.0000 C   0  0  0  0  0  0  0  0  0  0  0  0
    0.8654   -0.7859    0.0000 C   0  0  0  0  0  0  0  0  0  0  0  0
   -3.4093    0.0199    0.0000 C   0  0  0  0  0  0  0  0  0  0  0  0
   -0.5823    0.0306    0.0000 N   0  0  0  0  0  0  0  0  0  0  0  0
   -3.8527    0.7662    0.0000 C   0  0  0  0  0  0  0  0  0  0  0  0
   -1.0386   -0.7789    0.0000 C   0  0  0  0  0  0  0  0  0  0  0  0
   -0.4760   -1.5594    0.0000 C   0  0  0  0  0  0  0  0  0  0  0  0
    1.8822   -0.7859    0.0000 N   0  0  0  0  0  0  0  0  0  0  0  0
    1.8948    0.8421    0.0000 C   0  0  0  0  0  0  0  0  0  0  0  0
   -5.2482   -0.0124    0.0000 C   0  0  0  0  0  0  0  0  0  0  0  0
   -4.8157   -0.8221    0.0000 C   0  0  0  0  0  0  0  0  0  0  0  0
   -3.8853   -0.8221    0.0000 S   0  0  0  0  0  0  0  0  0  0  0  0
    0.4452    1.6859    0.0000 C   0  0  0  0  0  0  0  0  0  0  0  0
    2.3582    0.0579    0.0000 C   0  0  0  0  0  0  0  0  0  0  0  0
   -2.4718    0.0199    0.0000 N   0  0  0  0  0  0  0  0  0  0  0  0
   -1.9994   -0.7789    0.0000 C   0  0  0  0  0  0  0  0  0  0  0  0
   -3.3390    1.6156    0.0000 C   0  0  0  0  0  0  0  0  0  0  0  0
   -2.8252    2.4519    0.0000 N   0  0  0  0  0  0  0  0  0  0  0  0
   -6.2958   -0.0124    0.0000 C   0  0  0  0  0  0  0  0  0  0  0  0
    3.3968    0.0579    0.0000 C   0  0  0  0  0  0  0  0  0  0  0  0
   -5.2861   -1.6730    0.0000 C   0  0  0  0  0  0  0  0  0  0  0  0
   -2.5492   -1.6460    0.0000 O   0  0  0  0  0  0  0  0  0  0  0  0
   -0.0054    2.5095    0.0000 F   0  0  0  0  0  0  0  0  0  0  0  0
    1.3052    2.1653    0.0000 F   0  0  0  0  0  0  0  0  0  0  0  0
   -0.3948    1.1989    0.0000 F   0  0  0  0  0  0  0  0  0  0  0  0
    3.9592    0.8961    0.0000 C   0  0  0  0  0  0  0  0  0  0  0  0
    3.8960   -0.7789    0.0000 C   0  0  0  0  0  0  0  0  0  0  0  0
   -6.7934   -0.8654    0.0000 C   0  0  0  0  0  0  0  0  0  0  0  0
    5.4087    0.0739    0.0000 C   0  0  0  0  0  0  0  0  0  0  0  0
    4.9329    0.8961    0.0000 C   0  0  0  0  0  0  0  0  0  0  0  0
    4.8896   -0.7789    0.0000 C   0  0  0  0  0  0  0  0  0  0  0  0
   -6.3084   -1.6730    0.0000 C   0  0  0  0  0  0  0  0  0  0  0  0
    6.4490    0.0739    0.0000 O   0  0  0  0  0  0  0  0  0  0  0  0
    6.8584    0.8528    0.0000 C   0  0  0  0  0  0  0  0  0  0  0  0
   -6.8584   -2.5095    0.0000 C   0  0  0  0  0  0  0  0  0  0  0  0
  1  2  1  0
  1  3  1  0
  4 16  1  0
  1  5  1  0
  4  6  2  0
  5  7  2  0
  3  8  2  0
  7  8  1  0
  3  9  1  0
  2 10  2  0
  6 11  1  0
 12 13  1  0
 11 12  2  0
  4 13  1  0
  2 14  1  0
  9 15  2  0
 10 15  1  0
 16 17  1  0
  7 17  1  0
  6 18  1  0
 18 19  3  0
 11 20  1  0
 15 21  1  0
 12 22  1  0
 17 23  2  0
 14 24  1  0
 14 25  1  0
 14 26  1  0
 21 27  2  0
 21 28  1  0
 20 29  1  0
 29 33  1  0
 30 32  1  0
 30 31  2  0
 27 31  1  0
 28 32  2  0
 22 33  1  0
 30 34  1  0
 34 35  1  0
 33 36  1  0
M  END
>  <IDNUMBER>  (760) 
K061-0674

>  <available>  (760) 
60

>  <H_acceptor>  (760) 
6

>  <H_donor>  (760) 
1

>  <B_rotN>  (760) 
7

>  <N_O>  (760) 
7

>  <logP>  (760) 
6.0818

>  <logD>  (760) 
4.4558

>  <logSw>  (760) 
-5.552

>  <PSA>  (760) 
65.804

>  <pKa_ma>  (760) 
5.7844

>  <pKa_mb>  (760) 
1.3116

>  <N_Chirals>  (760) 
1

>  <Name>  (760) 
N-(3-cyano-6-methyl-4,5,6,7-tetrahydro-1-benzothiophen-2-yl)-5-(4-methoxyphenyl)-7-(trifluoromethyl)pyrazolo[1,5-a]pyrimidine-2-carboxamide

>  <Smile>  (760) 
CC(CC1)Cc2c1c(C#N)c(NC(c1nn3c(C(F)(F)F)cc(-c(cc4)ccc4OC)nc3c1)=O)s2

>  <Color>  (760) 
YELLOW

>  <Collection>  (760) 
DC

>  <InChI>  (760) 
InChI=1S/C25H20F3N5O2S/c1-13-3-8-16-17(12-29)24(36-20(16)9-13)31-23(34)19-11-22-30-18(14-4-6-15(35-2)7-5-14)10-21(25(26,27)28)33(22)32-19/h4-7,10-11,13H,3,8-9H2,1-2H3,(H,31,34)/t13-/m1/s1

>  <InChI Key>  (760) 
QISVFMGVLMVQID-CYBMUJFWSA-N

>  <PERCENTSP3>  (760) 
28

>  <Link>  (760) 
https://www.chemdiv.com/catalog/screening-compounds/compound-K061-0674/

>  <MFCDNUMBER>  (760) 
MFCD01451836

>  <CLNUMBER>  (760) 
CL1652

>  <STEREO>  (760) 
RACEMIC MIXTURE

>  <State>  (760) 
Solid

>  <Similarity score>  (760) 
0.20

$$$$
5-(4-chlorophenyl)-N-(3-cyano-4,5,6,7-tetrahydro-1-benzothiophen-2-yl)-7-(triflu
     RDKit          2D

 34 38  0  0  0  0  0  0  0  0999 V2000
    1.0665    0.7962    0.0000 N   0  0  0  0  0  0  0  0  0  0  0  0
    1.9265    1.2827    0.0000 C   0  0  0  0  0  0  0  0  0  0  0  0
    1.0665   -0.2112    0.0000 C   0  0  0  0  0  0  0  0  0  0  0  0
   -2.9585   -0.5653    0.0000 C   0  0  0  0  0  0  0  0  0  0  0  0
    0.0983    1.0960    0.0000 N   0  0  0  0  0  0  0  0  0  0  0  0
   -3.5878   -1.3712    0.0000 C   0  0  0  0  0  0  0  0  0  0  0  0
   -0.4572    0.2850    0.0000 C   0  0  0  0  0  0  0  0  0  0  0  0
    0.0983   -0.5356    0.0000 C   0  0  0  0  0  0  0  0  0  0  0  0
    1.9265   -0.7225    0.0000 N   0  0  0  0  0  0  0  0  0  0  0  0
    2.7916    0.7962    0.0000 C   0  0  0  0  0  0  0  0  0  0  0  0
   -3.5335    0.2309    0.0000 S   0  0  0  0  0  0  0  0  0  0  0  0
   -4.5066   -1.0468    0.0000 C   0  0  0  0  0  0  0  0  0  0  0  0
    1.9265    2.3000    0.0000 C   0  0  0  0  0  0  0  0  0  0  0  0
    2.7916   -0.2112    0.0000 C   0  0  0  0  0  0  0  0  0  0  0  0
   -1.9659   -0.5653    0.0000 N   0  0  0  0  0  0  0  0  0  0  0  0
   -4.5166   -0.0934    0.0000 C   0  0  0  0  0  0  0  0  0  0  0  0
   -1.4547    0.2850    0.0000 C   0  0  0  0  0  0  0  0  0  0  0  0
   -3.3436   -2.3394    0.0000 C   0  0  0  0  0  0  0  0  0  0  0  0
   -3.1124   -3.2977    0.0000 N   0  0  0  0  0  0  0  0  0  0  0  0
    3.6515   -0.7225    0.0000 C   0  0  0  0  0  0  0  0  0  0  0  0
   -1.9659    1.1500    0.0000 O   0  0  0  0  0  0  0  0  0  0  0  0
    0.9043    2.3000    0.0000 F   0  0  0  0  0  0  0  0  0  0  0  0
    2.9536    2.3000    0.0000 F   0  0  0  0  0  0  0  0  0  0  0  0
    1.9265    3.2977    0.0000 F   0  0  0  0  0  0  0  0  0  0  0  0
    3.6515   -1.7201    0.0000 C   0  0  0  0  0  0  0  0  0  0  0  0
    4.5166   -0.2112    0.0000 C   0  0  0  0  0  0  0  0  0  0  0  0
    5.3766   -1.7201    0.0000 C   0  0  0  0  0  0  0  0  0  0  0  0
   -5.3520   -1.5579    0.0000 C   0  0  0  0  0  0  0  0  0  0  0  0
    5.3766   -0.7225    0.0000 C   0  0  0  0  0  0  0  0  0  0  0  0
    4.5166   -2.2312    0.0000 C   0  0  0  0  0  0  0  0  0  0  0  0
   -5.3814    0.4324    0.0000 C   0  0  0  0  0  0  0  0  0  0  0  0
    6.2416   -2.2068    0.0000 Cl  0  0  0  0  0  0  0  0  0  0  0  0
   -6.2170   -1.0763    0.0000 C   0  0  0  0  0  0  0  0  0  0  0  0
   -6.2416   -0.0786    0.0000 C   0  0  0  0  0  0  0  0  0  0  0  0
  1  3  1  0
  1  2  1  0
  4 15  1  0
  1  5  1  0
  4  6  2  0
  5  7  2  0
  3  8  2  0
  7  8  1  0
  3  9  1  0
  2 10  2  0
 10 14  1  0
  4 11  1  0
  6 12  1  0
 12 16  2  0
  2 13  1  0
  9 14  2  0
 15 17  1  0
 11 16  1  0
  7 17  1  0
  6 18  1  0
 18 19  3  0
 14 20  1  0
 17 21  2  0
 13 22  1  0
 13 23  1  0
 13 24  1  0
 20 25  1  0
 20 26  2  0
 27 29  2  0
 12 28  1  0
 26 29  1  0
 25 30  2  0
 27 30  1  0
 16 31  1  0
 27 32  1  0
 28 33  1  0
 33 34  1  0
 31 34  1  0
M  END
>  <IDNUMBER>  (761) 
8010-2561

>  <available>  (761) 
3

>  <H_acceptor>  (761) 
5

>  <H_donor>  (761) 
1

>  <B_rotN>  (761) 
6

>  <N_O>  (761) 
6

>  <logP>  (761) 
6.2602

>  <logD>  (761) 
4.6341

>  <logSw>  (761) 
-6.5494

>  <PSA>  (761) 
58.26

>  <pKa_ma>  (761) 
5.7844

>  <pKa_mb>  (761) 
1.5188

>  <N_Chirals>  (761) 
0

>  <Name>  (761) 
5-(4-chlorophenyl)-N-(3-cyano-4,5,6,7-tetrahydro-1-benzothiophen-2-yl)-7-(trifluoromethyl)pyrazolo[1,5-a]pyrimidine-2-carboxamide

>  <Smile>  (761) 
N#Cc1c(NC(c2nn3c(C(F)(F)F)cc(-c(cc4)ccc4Cl)nc3c2)=O)sc2c1CCCC2

>  <Color>  (761) 
YELLOW

>  <Collection>  (761) 
DC

>  <InChI>  (761) 
InChI=1S/C23H15ClF3N5OS/c24-13-7-5-12(6-8-13)16-9-19(23(25,26)27)32-20(29-16)10-17(31-32)21(33)30-22-15(11-28)14-3-1-2-4-18(14)34-22/h5-10H,1-4H2,(H,30,33)

>  <InChI Key>  (761) 
PFZQILRSEOHRGJ-UHFFFAOYSA-N

>  <PERCENTSP3>  (761) 
21.7

>  <Link>  (761) 
https://www.chemdiv.com/catalog/screening-compounds/compound-8010-2561/

>  <MFCDNUMBER>  (761) 
MFCD01529576

>  <CLNUMBER>  (761) 
CL1652

>  <STEREO>  (761) 
ACHIRAL

>  <State>  (761) 
Solid

>  <Similarity score>  (761) 
0.20

$$$$
1-(4-ethylphenyl)-4-oxo-N-(3-{[(oxolan-2-yl)methyl]carbamoyl}-5,6-dihydro-4H-cyc
     RDKit          2D

 36 40  0  0  0  0  0  0  0  0999 V2000
   -2.5510   -1.1960    0.0000 C   0  0  0  0  0  0  0  0  0  0  0  0
   -2.6469   -0.1970    0.0000 C   0  0  0  0  0  0  0  0  0  0  0  0
    0.0379   -2.7101    0.0000 N   0  0  0  0  0  0  0  0  0  0  0  0
   -0.8250   -3.2046    0.0000 C   0  0  0  0  0  0  0  0  0  0  0  0
   -3.4491   -1.6047    0.0000 S   0  0  0  0  0  0  0  0  0  0  0  0
    0.8856   -3.2197    0.0000 N   0  0  0  0  0  0  0  0  0  0  0  0
   -3.6256    0.0050    0.0000 C   0  0  0  0  0  0  0  0  0  0  0  0
   -1.6779   -2.6946    0.0000 C   0  0  0  0  0  0  0  0  0  0  0  0
   -1.6727   -1.6957    0.0000 N   0  0  0  0  0  0  0  0  0  0  0  0
   -4.1252   -0.8579    0.0000 C   0  0  0  0  0  0  0  0  0  0  0  0
   -1.9000    0.4540    0.0000 C   0  0  0  0  0  0  0  0  0  0  0  0
   -0.8302   -4.1936    0.0000 C   0  0  0  0  0  0  0  0  0  0  0  0
    0.0228   -4.6931    0.0000 C   0  0  0  0  0  0  0  0  0  0  0  0
    0.8806   -4.2087    0.0000 C   0  0  0  0  0  0  0  0  0  0  0  0
   -2.1017    1.4281    0.0000 N   0  0  0  0  0  0  0  0  0  0  0  0
    1.7485   -2.7351    0.0000 C   0  0  0  0  0  0  0  0  0  0  0  0
   -2.6568   -3.2701    0.0000 O   0  0  0  0  0  0  0  0  0  0  0  0
   -0.9614    0.1363    0.0000 O   0  0  0  0  0  0  0  0  0  0  0  0
   -1.6931   -4.6780    0.0000 O   0  0  0  0  0  0  0  0  0  0  0  0
   -0.5982    3.7391    0.0000 O   0  0  0  0  0  0  0  0  0  0  0  0
    1.7485   -1.7411    0.0000 C   0  0  0  0  0  0  0  0  0  0  0  0
    2.5962   -3.2398    0.0000 C   0  0  0  0  0  0  0  0  0  0  0  0
   -1.4005    2.1397    0.0000 C   0  0  0  0  0  0  0  0  0  0  0  0
   -4.3070    0.7568    0.0000 C   0  0  0  0  0  0  0  0  0  0  0  0
   -5.1094   -0.6458    0.0000 C   0  0  0  0  0  0  0  0  0  0  0  0
   -1.4005    3.1388    0.0000 C   0  0  0  0  0  0  0  0  0  0  0  0
    3.4695   -2.7501    0.0000 C   0  0  0  0  0  0  0  0  0  0  0  0
    2.6116   -1.2516    0.0000 C   0  0  0  0  0  0  0  0  0  0  0  0
    3.4745   -1.7560    0.0000 C   0  0  0  0  0  0  0  0  0  0  0  0
   -5.2001    0.3482    0.0000 C   0  0  0  0  0  0  0  0  0  0  0  0
   -0.9159    4.6931    0.0000 C   0  0  0  0  0  0  0  0  0  0  0  0
    4.3372   -1.2566    0.0000 C   0  0  0  0  0  0  0  0  0  0  0  0
   -2.2179    3.7239    0.0000 C   0  0  0  0  0  0  0  0  0  0  0  0
    5.2001   -1.7663    0.0000 C   0  0  0  0  0  0  0  0  0  0  0  0
   -1.9151    4.6777    0.0000 C   0  0  0  0  0  0  0  0  0  0  0  0
   -0.8101   -1.1960    0.0000 H   0  0  0  0  0  0  0  0  0  0  0  0
  1  2  2  0
  3  4  2  0
  4  8  1  0
  1  5  1  0
  3  6  1  0
  6 14  1  0
  2  7  1  0
  7 10  2  0
  8  9  1  0
  1  9  1  0
  5 10  1  0
  2 11  1  0
  4 12  1  0
 12 13  1  0
 13 14  2  0
 11 15  1  0
  6 16  1  0
  8 17  2  0
 11 18  2  0
 12 19  2  0
 20 26  1  0
 16 21  1  0
 16 22  2  0
 15 23  1  0
  7 24  1  0
 24 30  1  0
 10 25  1  0
 23 26  1  0
 22 27  1  0
 21 28  2  0
 27 29  2  0
 28 29  1  0
 25 30  1  0
 20 31  1  0
 31 35  1  0
 29 32  1  0
 26 33  1  0
 32 34  1  0
 33 35  1  0
  9 36  1  0
M  END
>  <IDNUMBER>  (762) 
D223-1069

>  <available>  (762) 
110

>  <H_acceptor>  (762) 
8

>  <H_donor>  (762) 
2

>  <B_rotN>  (762) 
9

>  <N_O>  (762) 
8

>  <logP>  (762) 
3.4915

>  <logD>  (762) 
-0.5094

>  <logSw>  (762) 
-3.9502

>  <PSA>  (762) 
82.889

>  <pKa_ma>  (762) 
3.3991

>  <pKa_mb>  (762) 
-0.3256

>  <N_Chirals>  (762) 
1

>  <Name>  (762) 
1-(4-ethylphenyl)-4-oxo-N-(3-{[(oxolan-2-yl)methyl]carbamoyl}-5,6-dihydro-4H-cyclopenta[b]thiophen-2-yl)-1,4-dihydropyridazine-3-carboxamide

>  <Smile>  (762) 
CCc(cc1)ccc1N(C=C1)N=C(C(Nc2c(C(NCC3OCCC3)=O)c(CCC3)c3s2)=O)C1=O

>  <Color>  (762) 
BROWN

>  <Collection>  (762) 
DC

>  <InChI>  (762) 
InChI=1S/C26H28N4O4S/c1-2-16-8-10-17(11-9-16)30-13-12-20(31)23(29-30)25(33)28-26-22(19-6-3-7-21(19)35-26)24(32)27-15-18-5-4-14-34-18/h8-13,18H,2-7,14-15H2,1H3,(H,27,32)(H,28,33)/t18-/m1/s1

>  <InChI Key>  (762) 
OBJBMXCOLNYNMM-GOSISDBHSA-N

>  <PERCENTSP3>  (762) 
38.5

>  <Link>  (762) 
https://www.chemdiv.com/catalog/screening-compounds/compound-D223-1069/

>  <MFCDNUMBER>  (762) 
MFCD08546806

>  <CLNUMBER>  (762) 
CL6185

>  <STEREO>  (762) 
RACEMIC MIXTURE

>  <State>  (762) 
Solid

>  <Similarity score>  (762) 
0.20

$$$$
5-(4-bromophenyl)-N-(6-tert-butyl-3-cyano-4,5,6,7-tetrahydro-1-benzothiophen-2-y
     RDKit          2D

 38 42  0  0  0  0  0  0  0  0999 V2000
   -1.5644    1.4069    0.0000 N   0  0  0  0  0  0  0  0  0  0  0  0
   -2.3734    1.8648    0.0000 C   0  0  0  0  0  0  0  0  0  0  0  0
   -1.5644    0.4740    0.0000 C   0  0  0  0  0  0  0  0  0  0  0  0
    2.6720   -0.0094    0.0000 C   0  0  0  0  0  0  0  0  0  0  0  0
    0.0746    1.4069    0.0000 N   0  0  0  0  0  0  0  0  0  0  0  0
    3.5818    0.4046    0.0000 C   0  0  0  0  0  0  0  0  0  0  0  0
    0.0746    0.4740    0.0000 C   0  0  0  0  0  0  0  0  0  0  0  0
   -0.7430    0.0073    0.0000 C   0  0  0  0  0  0  0  0  0  0  0  0
   -2.3734    0.0073    0.0000 N   0  0  0  0  0  0  0  0  0  0  0  0
   -3.2036    1.4069    0.0000 C   0  0  0  0  0  0  0  0  0  0  0  0
    3.7709   -1.1841    0.0000 C   0  0  0  0  0  0  0  0  0  0  0  0
    4.2500   -0.3455    0.0000 C   0  0  0  0  0  0  0  0  0  0  0  0
    2.7812   -1.0264    0.0000 S   0  0  0  0  0  0  0  0  0  0  0  0
   -2.3734    2.8673    0.0000 C   0  0  0  0  0  0  0  0  0  0  0  0
   -3.2036    0.4740    0.0000 C   0  0  0  0  0  0  0  0  0  0  0  0
    1.8040    0.4866    0.0000 N   0  0  0  0  0  0  0  0  0  0  0  0
    0.9510   -0.0178    0.0000 C   0  0  0  0  0  0  0  0  0  0  0  0
    3.7961    1.3774    0.0000 C   0  0  0  0  0  0  0  0  0  0  0  0
    4.2626   -2.0835    0.0000 C   0  0  0  0  0  0  0  0  0  0  0  0
    4.0085    2.3441    0.0000 N   0  0  0  0  0  0  0  0  0  0  0  0
    5.2525   -0.3185    0.0000 C   0  0  0  0  0  0  0  0  0  0  0  0
    5.2840   -2.0604    0.0000 C   0  0  0  0  0  0  0  0  0  0  0  0
   -4.0609   -0.0178    0.0000 C   0  0  0  0  0  0  0  0  0  0  0  0
    5.7884   -2.9158    0.0000 C   0  0  0  0  0  0  0  0  0  0  0  0
    0.9342   -0.9004    0.0000 O   0  0  0  0  0  0  0  0  0  0  0  0
    5.7758   -1.1841    0.0000 C   0  0  0  0  0  0  0  0  0  0  0  0
   -2.3734    3.8571    0.0000 F   0  0  0  0  0  0  0  0  0  0  0  0
   -3.3801    2.8673    0.0000 F   0  0  0  0  0  0  0  0  0  0  0  0
   -1.3795    2.8673    0.0000 F   0  0  0  0  0  0  0  0  0  0  0  0
   -4.9141    0.4992    0.0000 C   0  0  0  0  0  0  0  0  0  0  0  0
   -4.0609   -1.0264    0.0000 C   0  0  0  0  0  0  0  0  0  0  0  0
   -5.8261   -0.9885    0.0000 C   0  0  0  0  0  0  0  0  0  0  0  0
   -4.9686   -1.5055    0.0000 C   0  0  0  0  0  0  0  0  0  0  0  0
   -5.8093    0.0073    0.0000 C   0  0  0  0  0  0  0  0  0  0  0  0
   -6.7087   -1.4677    0.0000 Br  0  0  0  0  0  0  0  0  0  0  0  0
    6.2276   -3.8571    0.0000 C   0  0  0  0  0  0  0  0  0  0  0  0
    4.9686   -3.2940    0.0000 C   0  0  0  0  0  0  0  0  0  0  0  0
    6.7087   -2.4870    0.0000 C   0  0  0  0  0  0  0  0  0  0  0  0
  1  2  1  0
  1  3  1  0
  4 16  1  0
  1  5  1  0
  4  6  2  0
  5  7  2  0
  7  8  1  0
  3  8  2  0
  3  9  1  0
  2 10  2  0
 10 15  1  0
 11 13  1  0
 11 12  2  0
  6 12  1  0
  4 13  1  0
  2 14  1  0
  9 15  2  0
 16 17  1  0
  7 17  1  0
  6 18  1  0
 11 19  1  0
 18 20  3  0
 12 21  1  0
 19 22  1  0
 22 26  1  0
 15 23  1  0
 22 24  1  0
 17 25  2  0
 21 26  1  0
 14 27  1  0
 14 28  1  0
 14 29  1  0
 23 30  2  0
 23 31  1  0
 32 33  1  0
 32 34  2  0
 31 33  2  0
 30 34  1  0
 32 35  1  0
 24 36  1  0
 24 37  1  0
 24 38  1  0
M  END
>  <IDNUMBER>  (763) 
K061-0797

>  <available>  (763) 
51

>  <H_acceptor>  (763) 
5

>  <H_donor>  (763) 
1

>  <B_rotN>  (763) 
7

>  <N_O>  (763) 
6

>  <logP>  (763) 
8.0566

>  <logD>  (763) 
6.4306

>  <logSw>  (763) 
-5.7154

>  <PSA>  (763) 
58.26

>  <pKa_ma>  (763) 
5.7844

>  <pKa_mb>  (763) 
1.5188

>  <N_Chirals>  (763) 
1

>  <Name>  (763) 
5-(4-bromophenyl)-N-(6-tert-butyl-3-cyano-4,5,6,7-tetrahydro-1-benzothiophen-2-yl)-7-(trifluoromethyl)pyrazolo[1,5-a]pyrimidine-2-carboxamide

>  <Smile>  (763) 
CC(C)(C)C(CC1)Cc2c1c(C#N)c(NC(c1nn3c(C(F)(F)F)cc(-c(cc4)ccc4Br)nc3c1)=O)s2

>  <Color>  (763) 
NOT COLORED

>  <Collection>  (763) 
DC

>  <InChI>  (763) 
InChI=1S/C27H23BrF3N5OS/c1-26(2,3)15-6-9-17-18(13-32)25(38-21(17)10-15)34-24(37)20-12-23-33-19(14-4-7-16(28)8-5-14)11-22(27(29,30)31)36(23)35-20/h4-5,7-8,11-12,15H,6,9-10H2,1-3H3,(H,34,37)/t15-/m1/s1

>  <InChI Key>  (763) 
CQDWCEUNSPCRRV-OAHLLOKOSA-N

>  <PERCENTSP3>  (763) 
33.3

>  <Link>  (763) 
https://www.chemdiv.com/catalog/screening-compounds/compound-K061-0797/

>  <MFCDNUMBER>  (763) 
MFCD01447901

>  <CLNUMBER>  (763) 
CL1652

>  <STEREO>  (763) 
RACEMIC MIXTURE

>  <State>  (763) 
Solid

>  <Similarity score>  (763) 
0.20

$$$$
N-(3-cyano-4,5,6,7-tetrahydro-1-benzothiophen-2-yl)-5-phenyl-7-(trifluoromethyl)
     RDKit          2D

 33 37  0  0  0  0  0  0  0  0999 V2000
    1.4839    0.0262    0.0000 N   0  0  0  0  0  0  0  0  0  0  0  0
    2.3533    0.5269    0.0000 C   0  0  0  0  0  0  0  0  0  0  0  0
    1.4839   -1.0067    0.0000 C   0  0  0  0  0  0  0  0  0  0  0  0
   -2.5482    0.3965    0.0000 C   0  0  0  0  0  0  0  0  0  0  0  0
    0.5278    0.3131    0.0000 N   0  0  0  0  0  0  0  0  0  0  0  0
   -3.1063    1.1894    0.0000 C   0  0  0  0  0  0  0  0  0  0  0  0
   -0.0236   -0.5005    0.0000 C   0  0  0  0  0  0  0  0  0  0  0  0
    0.5278   -1.2934    0.0000 C   0  0  0  0  0  0  0  0  0  0  0  0
    2.3533   -1.5074    0.0000 N   0  0  0  0  0  0  0  0  0  0  0  0
    3.2296    0.0262    0.0000 C   0  0  0  0  0  0  0  0  0  0  0  0
   -3.1428   -0.4121    0.0000 S   0  0  0  0  0  0  0  0  0  0  0  0
   -4.0783    0.9077    0.0000 C   0  0  0  0  0  0  0  0  0  0  0  0
    2.3533    1.5284    0.0000 C   0  0  0  0  0  0  0  0  0  0  0  0
   -1.5535    0.3965    0.0000 N   0  0  0  0  0  0  0  0  0  0  0  0
    3.2296   -1.0067    0.0000 C   0  0  0  0  0  0  0  0  0  0  0  0
   -4.0955   -0.0886    0.0000 C   0  0  0  0  0  0  0  0  0  0  0  0
   -1.0581   -0.5005    0.0000 C   0  0  0  0  0  0  0  0  0  0  0  0
   -2.7427    2.0934    0.0000 C   0  0  0  0  0  0  0  0  0  0  0  0
   -2.3866    3.0131    0.0000 N   0  0  0  0  0  0  0  0  0  0  0  0
   -1.5535   -1.3439    0.0000 O   0  0  0  0  0  0  0  0  0  0  0  0
    4.0710   -1.5074    0.0000 C   0  0  0  0  0  0  0  0  0  0  0  0
    3.3616    1.5284    0.0000 F   0  0  0  0  0  0  0  0  0  0  0  0
    2.3533    2.5333    0.0000 F   0  0  0  0  0  0  0  0  0  0  0  0
    1.3517    1.5284    0.0000 F   0  0  0  0  0  0  0  0  0  0  0  0
   -4.9353    1.4137    0.0000 C   0  0  0  0  0  0  0  0  0  0  0  0
   -4.9596   -0.5684    0.0000 C   0  0  0  0  0  0  0  0  0  0  0  0
    4.9456   -1.0067    0.0000 C   0  0  0  0  0  0  0  0  0  0  0  0
    4.0710   -2.5124    0.0000 C   0  0  0  0  0  0  0  0  0  0  0  0
   -5.8116    0.9233    0.0000 C   0  0  0  0  0  0  0  0  0  0  0  0
   -5.8116   -0.0574    0.0000 C   0  0  0  0  0  0  0  0  0  0  0  0
    5.8116   -1.5074    0.0000 C   0  0  0  0  0  0  0  0  0  0  0  0
    4.9456   -3.0131    0.0000 C   0  0  0  0  0  0  0  0  0  0  0  0
    5.8116   -2.5124    0.0000 C   0  0  0  0  0  0  0  0  0  0  0  0
  1  2  1  0
  1  3  1  0
  4 14  1  0
  1  5  1  0
  4  6  2  0
  5  7  2  0
  3  8  2  0
  7  8  1  0
  3  9  1  0
  2 10  2  0
 10 15  1  0
  4 11  1  0
  6 12  1  0
  2 13  1  0
 14 17  1  0
  9 15  2  0
 11 16  1  0
 12 16  2  0
  7 17  1  0
  6 18  1  0
 18 19  3  0
 17 20  2  0
 15 21  1  0
 13 22  1  0
 13 23  1  0
 13 24  1  0
 12 25  1  0
 16 26  1  0
 21 27  1  0
 21 28  2  0
 25 29  1  0
 26 30  1  0
 29 30  1  0
 27 31  2  0
 31 33  1  0
 28 32  1  0
 32 33  2  0
M  END
>  <IDNUMBER>  (764) 
8004-8806

>  <available>  (764) 
29

>  <H_acceptor>  (764) 
5

>  <H_donor>  (764) 
1

>  <B_rotN>  (764) 
6

>  <N_O>  (764) 
6

>  <logP>  (764) 
5.5604

>  <logD>  (764) 
3.9344

>  <logSw>  (764) 
-5.7868

>  <PSA>  (764) 
58.26

>  <pKa_ma>  (764) 
5.7844

>  <pKa_mb>  (764) 
1.5188

>  <N_Chirals>  (764) 
0

>  <Name>  (764) 
N-(3-cyano-4,5,6,7-tetrahydro-1-benzothiophen-2-yl)-5-phenyl-7-(trifluoromethyl)pyrazolo[1,5-a]pyrimidine-2-carboxamide

>  <Smile>  (764) 
N#Cc1c(NC(c2nn3c(C(F)(F)F)cc(-c4ccccc4)nc3c2)=O)sc2c1CCCC2

>  <Color>  (764) 
NOT COLORED

>  <Collection>  (764) 
DC

>  <InChI>  (764) 
InChI=1S/C23H16F3N5OS/c24-23(25,26)19-10-16(13-6-2-1-3-7-13)28-20-11-17(30-31(19)20)21(32)29-22-15(12-27)14-8-4-5-9-18(14)33-22/h1-3,6-7,10-11H,4-5,8-9H2,(H,29,32)

>  <InChI Key>  (764) 
MPBXWWLORQAGOR-UHFFFAOYSA-N

>  <PERCENTSP3>  (764) 
21.7

>  <Link>  (764) 
https://www.chemdiv.com/catalog/screening-compounds/compound-8004-8806/

>  <MFCDNUMBER>  (764) 
MFCD00289728

>  <STEREO>  (764) 
ACHIRAL

>  <State>  (764) 
Solid

>  <Similarity score>  (764) 
0.20

$$$$
N-(3-cyano-4,5,6,7-tetrahydro-1-benzothiophen-2-yl)-5-(propan-2-yl)-1,2-oxazole-
     RDKit          2D

 22 24  0  0  0  0  0  0  0  0999 V2000
   -0.5790   -1.4913    0.0000 C   0  0  0  0  0  0  0  0  0  0  0  0
    0.0277   -2.2642    0.0000 C   0  0  0  0  0  0  0  0  0  0  0  0
    0.2397    1.6850    0.0000 C   0  0  0  0  0  0  0  0  0  0  0  0
   -1.5043   -1.8257    0.0000 S   0  0  0  0  0  0  0  0  0  0  0  0
   -0.5030   -3.0808    0.0000 C   0  0  0  0  0  0  0  0  0  0  0  0
   -0.4592    2.3218    0.0000 N   0  0  0  0  0  0  0  0  0  0  0  0
   -0.5790   -0.4763    0.0000 N   0  0  0  0  0  0  0  0  0  0  0  0
    1.0126    2.3032    0.0000 C   0  0  0  0  0  0  0  0  0  0  0  0
   -1.4627   -2.8200    0.0000 C   0  0  0  0  0  0  0  0  0  0  0  0
    0.2859    0.0243    0.0000 C   0  0  0  0  0  0  0  0  0  0  0  0
    0.7336    3.1729    0.0000 C   0  0  0  0  0  0  0  0  0  0  0  0
   -0.1755    3.1822    0.0000 O   0  0  0  0  0  0  0  0  0  0  0  0
    1.0426   -2.2018    0.0000 C   0  0  0  0  0  0  0  0  0  0  0  0
    2.0506   -2.1718    0.0000 N   0  0  0  0  0  0  0  0  0  0  0  0
    1.0588   -0.4602    0.0000 O   0  0  0  0  0  0  0  0  0  0  0  0
    1.2847    3.9134    0.0000 C   0  0  0  0  0  0  0  0  0  0  0  0
   -0.2469   -4.0518    0.0000 C   0  0  0  0  0  0  0  0  0  0  0  0
   -2.1868   -3.5212    0.0000 C   0  0  0  0  0  0  0  0  0  0  0  0
    0.9225    4.7646    0.0000 C   0  0  0  0  0  0  0  0  0  0  0  0
    2.1868    3.8234    0.0000 C   0  0  0  0  0  0  0  0  0  0  0  0
   -0.9575   -4.7646    0.0000 C   0  0  0  0  0  0  0  0  0  0  0  0
   -1.9285   -4.5016    0.0000 C   0  0  0  0  0  0  0  0  0  0  0  0
  1  2  2  0
  3 10  1  0
  1  4  1  0
  2  5  1  0
  3  6  2  0
  1  7  1  0
  3  8  1  0
  4  9  1  0
  5  9  2  0
  7 10  1  0
  8 11  2  0
 11 12  1  0
  6 12  1  0
  2 13  1  0
 13 14  3  0
 10 15  2  0
 11 16  1  0
  5 17  1  0
  9 18  1  0
 16 19  1  0
 16 20  1  0
 17 21  1  0
 21 22  1  0
 18 22  1  0
M  END
>  <IDNUMBER>  (765) 
C226-2941

>  <available>  (765) 
48

>  <H_acceptor>  (765) 
5

>  <H_donor>  (765) 
1

>  <B_rotN>  (765) 
5

>  <N_O>  (765) 
5

>  <logP>  (765) 
3.9048

>  <logD>  (765) 
2.2344

>  <logSw>  (765) 
-4.1434

>  <PSA>  (765) 
61.908

>  <pKa_ma>  (765) 
5.739

>  <pKa_mb>  (765) 
-5.3583

>  <N_Chirals>  (765) 
0

>  <Name>  (765) 
N-(3-cyano-4,5,6,7-tetrahydro-1-benzothiophen-2-yl)-5-(propan-2-yl)-1,2-oxazole-3-carboxamide

>  <Smile>  (765) 
CC(C)c1cc(C(Nc(sc2c3CCCC2)c3C#N)=O)no1

>  <Color>  (765) 
ORANGE

>  <Collection>  (765) 
DC

>  <InChI>  (765) 
InChI=1S/C16H17N3O2S/c1-9(2)13-7-12(19-21-13)15(20)18-16-11(8-17)10-5-3-4-6-14(10)22-16/h7,9H,3-6H2,1-2H3,(H,18,20)

>  <InChI Key>  (765) 
DFPPLONANWUOAM-UHFFFAOYSA-N

>  <PERCENTSP3>  (765) 
43.8

>  <Link>  (765) 
https://www.chemdiv.com/catalog/screening-compounds/compound-C226-2941/

>  <MFCDNUMBER>  (765) 
MFCD09782910

>  <CLNUMBER>  (765) 
CL2030

>  <STEREO>  (765) 
ACHIRAL

>  <State>  (765) 
Solid

>  <Similarity score>  (765) 
0.20

$$$$
N-(3-cyano-5,6-dihydro-4H-cyclopenta[b]thiophen-2-yl)-4,5,6,7-tetrahydro-1,2-ben
     RDKit          2D

 22 25  0  0  0  0  0  0  0  0999 V2000
   -0.8782   -1.1844    0.0000 C   0  0  0  0  0  0  0  0  0  0  0  0
   -0.2715   -1.9604    0.0000 C   0  0  0  0  0  0  0  0  0  0  0  0
   -0.0445    1.8777    0.0000 C   0  0  0  0  0  0  0  0  0  0  0  0
   -0.7274    2.5300    0.0000 N   0  0  0  0  0  0  0  0  0  0  0  0
    0.7975    2.5443    0.0000 C   0  0  0  0  0  0  0  0  0  0  0  0
   -1.8170   -1.5230    0.0000 S   0  0  0  0  0  0  0  0  0  0  0  0
   -0.8183   -2.7879    0.0000 C   0  0  0  0  0  0  0  0  0  0  0  0
   -0.0155    0.3238    0.0000 C   0  0  0  0  0  0  0  0  0  0  0  0
   -0.8782   -0.1754    0.0000 N   0  0  0  0  0  0  0  0  0  0  0  0
   -1.7716   -2.5052    0.0000 C   0  0  0  0  0  0  0  0  0  0  0  0
   -0.4449    3.4234    0.0000 O   0  0  0  0  0  0  0  0  0  0  0  0
    0.5002    3.4379    0.0000 C   0  0  0  0  0  0  0  0  0  0  0  0
    0.7376   -1.9253    0.0000 C   0  0  0  0  0  0  0  0  0  0  0  0
    1.7343   -1.8839    0.0000 N   0  0  0  0  0  0  0  0  0  0  0  0
    0.7975   -0.1714    0.0000 O   0  0  0  0  0  0  0  0  0  0  0  0
    1.7034    2.3628    0.0000 C   0  0  0  0  0  0  0  0  0  0  0  0
   -0.7730   -3.7929    0.0000 C   0  0  0  0  0  0  0  0  0  0  0  0
   -2.3308   -3.3491    0.0000 C   0  0  0  0  0  0  0  0  0  0  0  0
    1.1214    4.1353    0.0000 C   0  0  0  0  0  0  0  0  0  0  0  0
   -1.7264   -4.1353    0.0000 C   0  0  0  0  0  0  0  0  0  0  0  0
    2.3308    3.0541    0.0000 C   0  0  0  0  0  0  0  0  0  0  0  0
    2.0275    3.9516    0.0000 C   0  0  0  0  0  0  0  0  0  0  0  0
  1  2  2  0
  3  8  1  0
  3  4  2  0
  3  5  1  0
  1  6  1  0
  2  7  1  0
  7 10  2  0
  8  9  1  0
  1  9  1  0
  6 10  1  0
  4 11  1  0
  5 12  2  0
 11 12  1  0
  2 13  1  0
 13 14  3  0
  8 15  2  0
  5 16  1  0
  7 17  1  0
 10 18  1  0
 12 19  1  0
 18 20  1  0
 17 20  1  0
 16 21  1  0
 21 22  1  0
 19 22  1  0
M  END
>  <IDNUMBER>  (766) 
C226-3401

>  <available>  (766) 
1

>  <H_acceptor>  (766) 
5

>  <H_donor>  (766) 
1

>  <B_rotN>  (766) 
4

>  <N_O>  (766) 
5

>  <logP>  (766) 
3.0819

>  <logD>  (766) 
0.8798

>  <logSw>  (766) 
-3.3368

>  <PSA>  (766) 
62.867

>  <pKa_ma>  (766) 
5.2006

>  <pKa_mb>  (766) 
-5.5427

>  <N_Chirals>  (766) 
0

>  <Name>  (766) 
N-(3-cyano-5,6-dihydro-4H-cyclopenta[b]thiophen-2-yl)-4,5,6,7-tetrahydro-1,2-benzoxazole-3-carboxamide

>  <Smile>  (766) 
N#Cc1c(NC(c2noc3c2CCCC3)=O)sc2c1CCC2

>  <Color>  (766) 
BROWN

>  <Collection>  (766) 
NC

>  <InChI>  (766) 
InChI=1S/C16H15N3O2S/c17-8-11-9-5-3-7-13(9)22-16(11)18-15(20)14-10-4-1-2-6-12(10)21-19-14/h1-7H2,(H,18,20)

>  <InChI Key>  (766) 
GQOOVLDOQVJXGH-UHFFFAOYSA-N

>  <PERCENTSP3>  (766) 
43.8

>  <Link>  (766) 
https://www.chemdiv.com/catalog/screening-compounds/compound-C226-3401/

>  <MFCDNUMBER>  (766) 
MFCD09783053

>  <CLNUMBER>  (766) 
CL2031

>  <STEREO>  (766) 
ACHIRAL

>  <State>  (766) 
Solid

>  <Similarity score>  (766) 
0.20

$$$$
N-[(3-cyano-4,5,6,7-tetrahydro-1-benzothiophen-2-yl)carbamothioyl]-3-(2,6-dichlo
     RDKit          2D

 31 34  0  0  0  0  0  0  0  0999 V2000
    1.9882    0.2101    0.0000 C   0  0  0  0  0  0  0  0  0  0  0  0
   -3.2629    0.2652    0.0000 C   0  0  0  0  0  0  0  0  0  0  0  0
   -2.3326    0.6581    0.0000 C   0  0  0  0  0  0  0  0  0  0  0  0
    2.8495    0.6786    0.0000 C   0  0  0  0  0  0  0  0  0  0  0  0
   -1.4715    0.1827    0.0000 C   0  0  0  0  0  0  0  0  0  0  0  0
   -3.9038    0.9546    0.0000 N   0  0  0  0  0  0  0  0  0  0  0  0
    2.1329   -0.7823    0.0000 S   0  0  0  0  0  0  0  0  0  0  0  0
    3.5592    0.0378    0.0000 C   0  0  0  0  0  0  0  0  0  0  0  0
    1.1199    0.6994    0.0000 N   0  0  0  0  0  0  0  0  0  0  0  0
   -3.4905   -0.6994    0.0000 C   0  0  0  0  0  0  0  0  0  0  0  0
   -0.6236    0.6994    0.0000 N   0  0  0  0  0  0  0  0  0  0  0  0
    0.2515    0.2033    0.0000 C   0  0  0  0  0  0  0  0  0  0  0  0
    3.1251   -0.8925    0.0000 C   0  0  0  0  0  0  0  0  0  0  0  0
   -3.4352    1.8157    0.0000 O   0  0  0  0  0  0  0  0  0  0  0  0
   -2.4430    1.6160    0.0000 C   0  0  0  0  0  0  0  0  0  0  0  0
    2.9321    1.6366    0.0000 C   0  0  0  0  0  0  0  0  0  0  0  0
    3.0218    2.6014    0.0000 N   0  0  0  0  0  0  0  0  0  0  0  0
    0.2515   -0.8097    0.0000 S   0  0  0  0  0  0  0  0  0  0  0  0
   -2.7944   -1.3680    0.0000 C   0  0  0  0  0  0  0  0  0  0  0  0
   -4.4277   -0.9476    0.0000 C   0  0  0  0  0  0  0  0  0  0  0  0
   -1.4715   -0.8097    0.0000 O   0  0  0  0  0  0  0  0  0  0  0  0
   -1.5333   -2.1121    0.0000 Cl  0  0  0  0  0  0  0  0  0  0  0  0
   -5.1098   -0.2311    0.0000 Cl  0  0  0  0  0  0  0  0  0  0  0  0
    4.5102    0.0998    0.0000 C   0  0  0  0  0  0  0  0  0  0  0  0
    3.6834   -1.6917    0.0000 C   0  0  0  0  0  0  0  0  0  0  0  0
   -1.7193    2.2707    0.0000 C   0  0  0  0  0  0  0  0  0  0  0  0
   -3.9659   -2.6014    0.0000 C   0  0  0  0  0  0  0  0  0  0  0  0
   -3.0424   -2.3187    0.0000 C   0  0  0  0  0  0  0  0  0  0  0  0
   -4.6757   -1.8849    0.0000 C   0  0  0  0  0  0  0  0  0  0  0  0
    5.1098   -0.6994    0.0000 C   0  0  0  0  0  0  0  0  0  0  0  0
    4.6757   -1.6091    0.0000 C   0  0  0  0  0  0  0  0  0  0  0  0
  2  3  1  0
  3  5  1  0
  1  4  2  0
  5 11  1  0
  2  6  2  0
  1  7  1  0
  4  8  1  0
  1  9  1  0
  2 10  1  0
 11 12  1  0
  9 12  1  0
  7 13  1  0
  8 13  2  0
 14 15  1  0
  6 14  1  0
  3 15  2  0
  4 16  1  0
 16 17  3  0
 12 18  2  0
 10 19  2  0
 10 20  1  0
  5 21  2  0
 19 22  1  0
 20 23  1  0
  8 24  1  0
 13 25  1  0
 15 26  1  0
 27 29  1  0
 19 28  1  0
 27 28  2  0
 20 29  2  0
 24 30  1  0
 25 31  1  0
 30 31  1  0
M  END
>  <IDNUMBER>  (767) 
5182-2771

>  <available>  (767) 
48

>  <H_acceptor>  (767) 
7

>  <H_donor>  (767) 
2

>  <B_rotN>  (767) 
7

>  <N_O>  (767) 
6

>  <logP>  (767) 
5.2664

>  <logD>  (767) 
4.9199

>  <logSw>  (767) 
-5.8804

>  <PSA>  (767) 
71.971

>  <pKa_ma>  (767) 
7.3133

>  <pKa_mb>  (767) 
-6.8683

>  <N_Chirals>  (767) 
0

>  <Name>  (767) 
N-[(3-cyano-4,5,6,7-tetrahydro-1-benzothiophen-2-yl)carbamothioyl]-3-(2,6-dichlorophenyl)-5-methyl-1,2-oxazole-4-carboxamide

>  <Smile>  (767) 
Cc1c(C(NC(Nc(sc2c3CCCC2)c3C#N)=S)=O)c(-c(c(Cl)ccc2)c2Cl)no1

>  <Color>  (767) 
YELLOW

>  <Collection>  (767) 
DC

>  <InChI>  (767) 
InChI=1S/C21H16Cl2N4O2S2/c1-10-16(18(27-29-10)17-13(22)6-4-7-14(17)23)19(28)25-21(30)26-20-12(9-24)11-5-2-3-8-15(11)31-20/h4,6-7H,2-3,5,8H2,1H3,(H2,25,26,28,30)

>  <InChI Key>  (767) 
ZJUSXZVMLXZJDW-UHFFFAOYSA-N

>  <PERCENTSP3>  (767) 
23.8

>  <Link>  (767) 
https://www.chemdiv.com/catalog/screening-compounds/compound-5182-2771/

>  <MFCDNUMBER>  (767) 
MFCD01963048

>  <CLNUMBER>  (767) 
CL2451

>  <STEREO>  (767) 
ACHIRAL

>  <State>  (767) 
Solid

>  <Similarity score>  (767) 
0.20

$$$$
N-(3-cyano-5,6,7,8-tetrahydro-4H-cyclohepta[b]thiophen-2-yl)-5-phenyl-7-(trifluo
     RDKit          2D

 34 38  0  0  0  0  0  0  0  0999 V2000
    1.4002   -0.1689    0.0000 N   0  0  0  0  0  0  0  0  0  0  0  0
    2.1210    0.5230    0.0000 C   0  0  0  0  0  0  0  0  0  0  0  0
    1.6544   -1.1148    0.0000 C   0  0  0  0  0  0  0  0  0  0  0  0
   -2.6002   -1.0105    0.0000 C   0  0  0  0  0  0  0  0  0  0  0  0
    0.3834   -0.1521    0.0000 N   0  0  0  0  0  0  0  0  0  0  0  0
   -3.3378   -0.3314    0.0000 C   0  0  0  0  0  0  0  0  0  0  0  0
    0.0542   -1.0647    0.0000 C   0  0  0  0  0  0  0  0  0  0  0  0
    0.8167   -1.6773    0.0000 C   0  0  0  0  0  0  0  0  0  0  0  0
    2.6628   -1.3980    0.0000 N   0  0  0  0  0  0  0  0  0  0  0  0
    3.0795    0.2687    0.0000 C   0  0  0  0  0  0  0  0  0  0  0  0
   -3.0378   -1.9191    0.0000 S   0  0  0  0  0  0  0  0  0  0  0  0
   -4.2254   -0.8148    0.0000 C   0  0  0  0  0  0  0  0  0  0  0  0
    1.8793    1.5272    0.0000 C   0  0  0  0  0  0  0  0  0  0  0  0
   -1.6294   -0.7230    0.0000 N   0  0  0  0  0  0  0  0  0  0  0  0
    3.3335   -0.6480    0.0000 C   0  0  0  0  0  0  0  0  0  0  0  0
   -4.0295   -1.7523    0.0000 C   0  0  0  0  0  0  0  0  0  0  0  0
   -0.9209   -1.3980    0.0000 C   0  0  0  0  0  0  0  0  0  0  0  0
   -3.2171    0.6437    0.0000 C   0  0  0  0  0  0  0  0  0  0  0  0
   -3.0961    1.6063    0.0000 N   0  0  0  0  0  0  0  0  0  0  0  0
   -1.1460   -2.3857    0.0000 O   0  0  0  0  0  0  0  0  0  0  0  0
    4.3421   -0.9314    0.0000 C   0  0  0  0  0  0  0  0  0  0  0  0
    1.6544    2.5023    0.0000 F   0  0  0  0  0  0  0  0  0  0  0  0
    0.9042    1.3062    0.0000 F   0  0  0  0  0  0  0  0  0  0  0  0
    2.8877    1.7687    0.0000 F   0  0  0  0  0  0  0  0  0  0  0  0
   -5.0921   -0.3314    0.0000 C   0  0  0  0  0  0  0  0  0  0  0  0
   -4.7046   -2.5023    0.0000 C   0  0  0  0  0  0  0  0  0  0  0  0
    4.5963   -1.9024    0.0000 C   0  0  0  0  0  0  0  0  0  0  0  0
    5.0463   -0.2272    0.0000 C   0  0  0  0  0  0  0  0  0  0  0  0
   -6.0047   -0.7355    0.0000 C   0  0  0  0  0  0  0  0  0  0  0  0
   -5.7088   -2.4606    0.0000 C   0  0  0  0  0  0  0  0  0  0  0  0
    6.0047   -0.4856    0.0000 C   0  0  0  0  0  0  0  0  0  0  0  0
    5.5589   -2.1899    0.0000 C   0  0  0  0  0  0  0  0  0  0  0  0
   -6.2631   -1.7106    0.0000 C   0  0  0  0  0  0  0  0  0  0  0  0
    6.2631   -1.4397    0.0000 C   0  0  0  0  0  0  0  0  0  0  0  0
  1  2  1  0
  1  3  1  0
  4 14  1  0
  1  5  1  0
  4  6  2  0
  5  7  2  0
  3  8  2  0
  7  8  1  0
  3  9  1  0
  2 10  2  0
 10 15  1  0
  4 11  1  0
  6 12  1  0
  2 13  1  0
 14 17  1  0
  9 15  2  0
 11 16  1  0
 12 16  2  0
  7 17  1  0
  6 18  1  0
 18 19  3  0
 17 20  2  0
 15 21  1  0
 13 22  1  0
 13 23  1  0
 13 24  1  0
 12 25  1  0
 16 26  1  0
 21 27  1  0
 21 28  2  0
 25 29  1  0
 29 33  1  0
 26 30  1  0
 28 31  1  0
 27 32  2  0
 30 33  1  0
 32 34  1  0
 31 34  2  0
M  END
>  <IDNUMBER>  (768) 
Y500-0391

>  <available>  (768) 
17

>  <H_acceptor>  (768) 
5

>  <H_donor>  (768) 
1

>  <B_rotN>  (768) 
6

>  <N_O>  (768) 
6

>  <logP>  (768) 
6.0563

>  <logD>  (768) 
4.4303

>  <logSw>  (768) 
-5.8883

>  <PSA>  (768) 
58.591

>  <pKa_ma>  (768) 
5.7844

>  <pKa_mb>  (768) 
1.5188

>  <N_Chirals>  (768) 
0

>  <Name>  (768) 
N-(3-cyano-5,6,7,8-tetrahydro-4H-cyclohepta[b]thiophen-2-yl)-5-phenyl-7-(trifluoromethyl)pyrazolo[1,5-a]pyrimidine-2-carboxamide

>  <Smile>  (768) 
N#Cc1c(NC(c2nn3c(C(F)(F)F)cc(-c4ccccc4)nc3c2)=O)sc2c1CCCCC2

>  <Color>  (768) 
YELLOW

>  <Collection>  (768) 
DC

>  <InChI>  (768) 
InChI=1S/C24H18F3N5OS/c25-24(26,27)20-11-17(14-7-3-1-4-8-14)29-21-12-18(31-32(20)21)22(33)30-23-16(13-28)15-9-5-2-6-10-19(15)34-23/h1,3-4,7-8,11-12H,2,5-6,9-10H2,(H,30,33)

>  <InChI Key>  (768) 
ZDOFQHDLYXNTEB-UHFFFAOYSA-N

>  <PERCENTSP3>  (768) 
25

>  <Link>  (768) 
https://www.chemdiv.com/catalog/screening-compounds/compound-Y500-0391/

>  <MFCDNUMBER>  (768) 
MFCD01451763

>  <STEREO>  (768) 
ACHIRAL

>  <State>  (768) 
Solid

>  <Similarity score>  (768) 
0.20

$$$$
N-(3-cyano-5,6-dihydro-4H-cyclopenta[b]thiophen-2-yl)-5-(2,5-dimethoxyphenyl)-1,
     RDKit          2D

 28 31  0  0  0  0  0  0  0  0999 V2000
   -1.7000   -2.0773    0.0000 C   0  0  0  0  0  0  0  0  0  0  0  0
   -1.0938   -2.8501    0.0000 C   0  0  0  0  0  0  0  0  0  0  0  0
   -0.8689    1.0748    0.0000 C   0  0  0  0  0  0  0  0  0  0  0  0
   -2.6369   -2.4107    0.0000 S   0  0  0  0  0  0  0  0  0  0  0  0
   -1.6393   -3.6760    0.0000 C   0  0  0  0  0  0  0  0  0  0  0  0
   -0.3688    2.5574    0.0000 C   0  0  0  0  0  0  0  0  0  0  0  0
   -0.0709    1.6330    0.0000 C   0  0  0  0  0  0  0  0  0  0  0  0
   -1.6393    1.6481    0.0000 N   0  0  0  0  0  0  0  0  0  0  0  0
   -1.7000   -1.0696    0.0000 N   0  0  0  0  0  0  0  0  0  0  0  0
   -2.5913   -3.3957    0.0000 C   0  0  0  0  0  0  0  0  0  0  0  0
   -0.8386   -0.5696    0.0000 C   0  0  0  0  0  0  0  0  0  0  0  0
    0.1615    3.3579    0.0000 C   0  0  0  0  0  0  0  0  0  0  0  0
   -1.3362    2.5574    0.0000 O   0  0  0  0  0  0  0  0  0  0  0  0
   -0.0862   -2.8147    0.0000 C   0  0  0  0  0  0  0  0  0  0  0  0
    0.9092   -2.7743    0.0000 N   0  0  0  0  0  0  0  0  0  0  0  0
   -0.2627    4.2342    0.0000 C   0  0  0  0  0  0  0  0  0  0  0  0
    1.1262    3.2923    0.0000 C   0  0  0  0  0  0  0  0  0  0  0  0
   -0.0104   -1.0696    0.0000 O   0  0  0  0  0  0  0  0  0  0  0  0
    0.2776    5.0223    0.0000 C   0  0  0  0  0  0  0  0  0  0  0  0
    1.6542    4.0927    0.0000 C   0  0  0  0  0  0  0  0  0  0  0  0
   -1.5939   -4.6812    0.0000 C   0  0  0  0  0  0  0  0  0  0  0  0
   -3.1519   -4.2366    0.0000 C   0  0  0  0  0  0  0  0  0  0  0  0
    1.2425    4.9565    0.0000 C   0  0  0  0  0  0  0  0  0  0  0  0
   -1.2149    4.2190    0.0000 O   0  0  0  0  0  0  0  0  0  0  0  0
    2.6089    4.0221    0.0000 O   0  0  0  0  0  0  0  0  0  0  0  0
   -2.5458   -5.0223    0.0000 C   0  0  0  0  0  0  0  0  0  0  0  0
   -1.9121    4.8859    0.0000 C   0  0  0  0  0  0  0  0  0  0  0  0
    3.1519    4.8253    0.0000 C   0  0  0  0  0  0  0  0  0  0  0  0
  1  2  2  0
  3 11  1  0
  1  4  1  0
  2  5  1  0
  5 10  2  0
  6  7  2  0
  6 13  1  0
  3  7  1  0
  3  8  2  0
  1  9  1  0
  4 10  1  0
  9 11  1  0
  6 12  1  0
  8 13  1  0
  2 14  1  0
 14 15  3  0
 12 16  1  0
 12 17  2  0
 11 18  2  0
 16 19  2  0
 19 23  1  0
 17 20  1  0
  5 21  1  0
 10 22  1  0
 20 23  2  0
 16 24  1  0
 20 25  1  0
 22 26  1  0
 21 26  1  0
 24 27  1  0
 25 28  1  0
M  END
>  <IDNUMBER>  (769) 
C226-1691

>  <available>  (769) 
115

>  <H_acceptor>  (769) 
7

>  <H_donor>  (769) 
1

>  <B_rotN>  (769) 
7

>  <N_O>  (769) 
7

>  <logP>  (769) 
3.9051

>  <logD>  (769) 
2.5944

>  <logSw>  (769) 
-4.4028

>  <PSA>  (769) 
77.176

>  <pKa_ma>  (769) 
6.1111

>  <pKa_mb>  (769) 
-5.7541

>  <N_Chirals>  (769) 
0

>  <Name>  (769) 
N-(3-cyano-5,6-dihydro-4H-cyclopenta[b]thiophen-2-yl)-5-(2,5-dimethoxyphenyl)-1,2-oxazole-3-carboxamide

>  <Smile>  (769) 
COc(cc1)cc(-c2cc(C(Nc(sc3c4CCC3)c4C#N)=O)no2)c1OC

>  <Color>  (769) 
NOT COLORED

>  <Collection>  (769) 
DC

>  <InChI>  (769) 
InChI=1S/C20H17N3O4S/c1-25-11-6-7-16(26-2)13(8-11)17-9-15(23-27-17)19(24)22-20-14(10-21)12-4-3-5-18(12)28-20/h6-9H,3-5H2,1-2H3,(H,22,24)

>  <InChI Key>  (769) 
HEIQHOGETAVXGS-UHFFFAOYSA-N

>  <PERCENTSP3>  (769) 
25

>  <Link>  (769) 
https://www.chemdiv.com/catalog/screening-compounds/compound-C226-1691/

>  <MFCDNUMBER>  (769) 
MFCD14733077

>  <CLNUMBER>  (769) 
CL2028

>  <STEREO>  (769) 
ACHIRAL

>  <State>  (769) 
Solid

>  <Similarity score>  (769) 
0.20

$$$$
5-(2H-1,3-benzodioxol-5-yl)-N-(3-cyano-4,5,6,7-tetrahydro-1-benzothiophen-2-yl)-
     RDKit          2D

 36 41  0  0  0  0  0  0  0  0999 V2000
   -0.7567   -0.0272    0.0000 N   0  0  0  0  0  0  0  0  0  0  0  0
   -1.6013    0.4648    0.0000 C   0  0  0  0  0  0  0  0  0  0  0  0
   -0.7567   -1.0483    0.0000 C   0  0  0  0  0  0  0  0  0  0  0  0
    3.2724    0.2945    0.0000 C   0  0  0  0  0  0  0  0  0  0  0  0
    0.2097    0.2644    0.0000 N   0  0  0  0  0  0  0  0  0  0  0  0
    3.7647    1.1395    0.0000 C   0  0  0  0  0  0  0  0  0  0  0  0
    0.7929   -0.5561    0.0000 C   0  0  0  0  0  0  0  0  0  0  0  0
    0.2097   -1.3399    0.0000 C   0  0  0  0  0  0  0  0  0  0  0  0
   -1.6013   -1.5465    0.0000 N   0  0  0  0  0  0  0  0  0  0  0  0
   -2.4764   -0.0272    0.0000 C   0  0  0  0  0  0  0  0  0  0  0  0
    3.9653   -0.4648    0.0000 S   0  0  0  0  0  0  0  0  0  0  0  0
    4.7615    0.9328    0.0000 C   0  0  0  0  0  0  0  0  0  0  0  0
   -2.4764   -1.0483    0.0000 C   0  0  0  0  0  0  0  0  0  0  0  0
   -1.6013    1.4615    0.0000 C   0  0  0  0  0  0  0  0  0  0  0  0
    2.2818    0.2945    0.0000 N   0  0  0  0  0  0  0  0  0  0  0  0
    4.8770   -0.0272    0.0000 C   0  0  0  0  0  0  0  0  0  0  0  0
    1.7776   -0.5561    0.0000 C   0  0  0  0  0  0  0  0  0  0  0  0
    3.3575    2.0995    0.0000 C   0  0  0  0  0  0  0  0  0  0  0  0
   -3.3517   -1.5465    0.0000 C   0  0  0  0  0  0  0  0  0  0  0  0
    2.9808    3.0354    0.0000 N   0  0  0  0  0  0  0  0  0  0  0  0
   -5.0774   -1.5465    0.0000 C   0  0  0  0  0  0  0  0  0  0  0  0
   -4.2025   -1.0483    0.0000 C   0  0  0  0  0  0  0  0  0  0  0  0
   -5.0774   -2.5312    0.0000 C   0  0  0  0  0  0  0  0  0  0  0  0
   -6.0316   -1.2184    0.0000 O   0  0  0  0  0  0  0  0  0  0  0  0
   -6.0316   -2.8593    0.0000 O   0  0  0  0  0  0  0  0  0  0  0  0
   -6.5906   -2.0692    0.0000 C   0  0  0  0  0  0  0  0  0  0  0  0
    2.2818   -1.4312    0.0000 O   0  0  0  0  0  0  0  0  0  0  0  0
   -3.3517   -2.5312    0.0000 C   0  0  0  0  0  0  0  0  0  0  0  0
   -1.6013    2.4824    0.0000 F   0  0  0  0  0  0  0  0  0  0  0  0
   -0.6107    1.4615    0.0000 F   0  0  0  0  0  0  0  0  0  0  0  0
   -2.6224    1.4615    0.0000 F   0  0  0  0  0  0  0  0  0  0  0  0
   -4.2025   -3.0354    0.0000 C   0  0  0  0  0  0  0  0  0  0  0  0
    5.5453    1.5162    0.0000 C   0  0  0  0  0  0  0  0  0  0  0  0
    5.7822   -0.4346    0.0000 C   0  0  0  0  0  0  0  0  0  0  0  0
    6.4812    1.1150    0.0000 C   0  0  0  0  0  0  0  0  0  0  0  0
    6.5906    0.1489    0.0000 C   0  0  0  0  0  0  0  0  0  0  0  0
  1  2  1  0
  1  3  1  0
  4 15  1  0
  1  5  1  0
  4  6  2  0
  5  7  2  0
  7  8  1  0
  3  8  2  0
  3  9  1  0
  2 10  2  0
 10 13  1  0
  4 11  1  0
  6 12  1  0
  9 13  2  0
  2 14  1  0
 15 17  1  0
 11 16  1  0
 12 16  2  0
  7 17  1  0
  6 18  1  0
 13 19  1  0
 18 20  3  0
 21 22  2  0
 21 23  1  0
 19 22  1  0
 23 32  2  0
 21 24  1  0
 23 25  1  0
 25 26  1  0
 24 26  1  0
 17 27  2  0
 19 28  2  0
 14 29  1  0
 14 30  1  0
 14 31  1  0
 28 32  1  0
 12 33  1  0
 16 34  1  0
 33 35  1  0
 35 36  1  0
 34 36  1  0
M  END
>  <IDNUMBER>  (770) 
2774-1439

>  <available>  (770) 
1

>  <H_acceptor>  (770) 
7

>  <H_donor>  (770) 
1

>  <B_rotN>  (770) 
6

>  <N_O>  (770) 
8

>  <logP>  (770) 
5.4642

>  <logD>  (770) 
3.8382

>  <logSw>  (770) 
-5.914

>  <PSA>  (770) 
75.375

>  <pKa_ma>  (770) 
5.7844

>  <pKa_mb>  (770) 
2.841

>  <N_Chirals>  (770) 
0

>  <Name>  (770) 
5-(2H-1,3-benzodioxol-5-yl)-N-(3-cyano-4,5,6,7-tetrahydro-1-benzothiophen-2-yl)-7-(trifluoromethyl)pyrazolo[1,5-a]pyrimidine-2-carboxamide

>  <Smile>  (770) 
N#Cc1c(NC(c2nn3c(C(F)(F)F)cc(-c(cc4)cc5c4OCO5)nc3c2)=O)sc2c1CCCC2

>  <Color>  (770) 
YELLOW

>  <Collection>  (770) 
DC

>  <InChI>  (770) 
InChI=1S/C24H16F3N5O3S/c25-24(26,27)20-8-15(12-5-6-17-18(7-12)35-11-34-17)29-21-9-16(31-32(20)21)22(33)30-23-14(10-28)13-3-1-2-4-19(13)36-23/h5-9H,1-4,11H2,(H,30,33)

>  <InChI Key>  (770) 
VUSXCWIZFFHDDH-UHFFFAOYSA-N

>  <PERCENTSP3>  (770) 
25

>  <Link>  (770) 
https://www.chemdiv.com/catalog/screening-compounds/compound-2774-1439/

>  <MFCDNUMBER>  (770) 
MFCD01597131

>  <CLNUMBER>  (770) 
CL1652

>  <STEREO>  (770) 
ACHIRAL

>  <State>  (770) 
Solid

>  <Similarity score>  (770) 
0.20

$$$$
N-(3-cyano-4,5,6,7-tetrahydro-1-benzothiophen-2-yl)-5-(thiophen-2-yl)-7-(trifluo
     RDKit          2D

 32 36  0  0  0  0  0  0  0  0999 V2000
    0.3729   -1.8586    0.0000 N   0  0  0  0  0  0  0  0  0  0  0  0
    0.6315   -2.8296    0.0000 C   0  0  0  0  0  0  0  0  0  0  0  0
    1.0897   -1.1460    0.0000 C   0  0  0  0  0  0  0  0  0  0  0  0
   -2.6193    1.2002    0.0000 C   0  0  0  0  0  0  0  0  0  0  0  0
   -0.5481   -1.3711    0.0000 N   0  0  0  0  0  0  0  0  0  0  0  0
   -3.6110    1.3044    0.0000 C   0  0  0  0  0  0  0  0  0  0  0  0
   -0.3856   -0.4001    0.0000 C   0  0  0  0  0  0  0  0  0  0  0  0
    0.6147   -0.2250    0.0000 C   0  0  0  0  0  0  0  0  0  0  0  0
    2.0691   -1.3962    0.0000 N   0  0  0  0  0  0  0  0  0  0  0  0
    1.5940   -3.0964    0.0000 C   0  0  0  0  0  0  0  0  0  0  0  0
   -2.2067    2.0587    0.0000 S   0  0  0  0  0  0  0  0  0  0  0  0
   -3.7903    2.2837    0.0000 C   0  0  0  0  0  0  0  0  0  0  0  0
    2.3315   -2.3671    0.0000 C   0  0  0  0  0  0  0  0  0  0  0  0
   -0.1062   -3.5673    0.0000 C   0  0  0  0  0  0  0  0  0  0  0  0
   -2.1025    0.3126    0.0000 N   0  0  0  0  0  0  0  0  0  0  0  0
   -2.9193    2.7504    0.0000 C   0  0  0  0  0  0  0  0  0  0  0  0
   -1.1023    0.3126    0.0000 C   0  0  0  0  0  0  0  0  0  0  0  0
    3.2942   -2.6463    0.0000 C   0  0  0  0  0  0  0  0  0  0  0  0
   -4.2737    0.5377    0.0000 C   0  0  0  0  0  0  0  0  0  0  0  0
   -4.9696   -0.2044    0.0000 N   0  0  0  0  0  0  0  0  0  0  0  0
    3.6569   -3.6005    0.0000 S   0  0  0  0  0  0  0  0  0  0  0  0
   -0.6189    1.2044    0.0000 O   0  0  0  0  0  0  0  0  0  0  0  0
    4.1069   -2.0045    0.0000 C   0  0  0  0  0  0  0  0  0  0  0  0
    4.6986   -3.5673    0.0000 C   0  0  0  0  0  0  0  0  0  0  0  0
    4.9696   -2.5753    0.0000 C   0  0  0  0  0  0  0  0  0  0  0  0
   -0.6773   -3.0214    0.0000 F   0  0  0  0  0  0  0  0  0  0  0  0
    0.6147   -4.2757    0.0000 F   0  0  0  0  0  0  0  0  0  0  0  0
   -0.6439   -4.1799    0.0000 F   0  0  0  0  0  0  0  0  0  0  0  0
   -4.6570    2.8046    0.0000 C   0  0  0  0  0  0  0  0  0  0  0  0
   -2.8901    3.7549    0.0000 C   0  0  0  0  0  0  0  0  0  0  0  0
   -4.6362    3.7965    0.0000 C   0  0  0  0  0  0  0  0  0  0  0  0
   -3.7486    4.2757    0.0000 C   0  0  0  0  0  0  0  0  0  0  0  0
  1  2  1  0
  1  3  1  0
  4 15  1  0
  1  5  1  0
  4  6  2  0
  5  7  2  0
  3  8  2  0
  7  8  1  0
  3  9  1  0
  2 10  2  0
  4 11  1  0
  6 12  1  0
 12 16  2  0
  9 13  2  0
 10 13  1  0
  2 14  1  0
 15 17  1  0
 11 16  1  0
  7 17  1  0
 13 18  1  0
  6 19  1  0
 19 20  3  0
 18 21  1  0
 17 22  2  0
 18 23  2  0
 21 24  1  0
 23 25  1  0
 24 25  2  0
 14 26  1  0
 14 27  1  0
 14 28  1  0
 12 29  1  0
 16 30  1  0
 29 31  1  0
 31 32  1  0
 30 32  1  0
M  END
>  <IDNUMBER>  (771) 
Y500-2081

>  <available>  (771) 
26

>  <H_acceptor>  (771) 
5

>  <H_donor>  (771) 
1

>  <B_rotN>  (771) 
6

>  <N_O>  (771) 
6

>  <logP>  (771) 
5.3095

>  <logD>  (771) 
3.6835

>  <logSw>  (771) 
-5.6327

>  <PSA>  (771) 
59.278

>  <pKa_ma>  (771) 
5.7844

>  <pKa_mb>  (771) 
0.7525

>  <N_Chirals>  (771) 
0

>  <Name>  (771) 
N-(3-cyano-4,5,6,7-tetrahydro-1-benzothiophen-2-yl)-5-(thiophen-2-yl)-7-(trifluoromethyl)pyrazolo[1,5-a]pyrimidine-2-carboxamide

>  <Smile>  (771) 
N#Cc1c(NC(c2nn3c(C(F)(F)F)cc(-c4cccs4)nc3c2)=O)sc2c1CCCC2

>  <Color>  (771) 
ORANGE

>  <Collection>  (771) 
DC

>  <InChI>  (771) 
InChI=1S/C21H14F3N5OS2/c22-21(23,24)17-8-13(16-6-3-7-31-16)26-18-9-14(28-29(17)18)19(30)27-20-12(10-25)11-4-1-2-5-15(11)32-20/h3,6-9H,1-2,4-5H2,(H,27,30)

>  <InChI Key>  (771) 
SXUQHHNFGVPKLT-UHFFFAOYSA-N

>  <PERCENTSP3>  (771) 
23.81

>  <Link>  (771) 
https://www.chemdiv.com/catalog/screening-compounds/compound-Y500-2081/

>  <MFCDNUMBER>  (771) 
MFCD04043526

>  <STEREO>  (771) 
ACHIRAL

>  <State>  (771) 
Solid

>  <Similarity score>  (771) 
0.20

$$$$
N-(3-cyano-6-methyl-4,5,6,7-tetrahydro-1-benzothiophen-2-yl)-5-(furan-2-yl)-7-(t
     RDKit          2D

 33 37  0  0  0  0  0  0  0  0999 V2000
    1.7037   -0.2127    0.0000 N   0  0  0  0  0  0  0  0  0  0  0  0
    2.4106    0.5372    0.0000 C   0  0  0  0  0  0  0  0  0  0  0  0
    2.0331   -1.1593    0.0000 C   0  0  0  0  0  0  0  0  0  0  0  0
   -2.2393   -0.9646    0.0000 C   0  0  0  0  0  0  0  0  0  0  0  0
    0.6959   -0.2413    0.0000 N   0  0  0  0  0  0  0  0  0  0  0  0
   -2.9393   -0.2127    0.0000 C   0  0  0  0  0  0  0  0  0  0  0  0
    0.4149   -1.1292    0.0000 C   0  0  0  0  0  0  0  0  0  0  0  0
    1.2131   -1.7411    0.0000 C   0  0  0  0  0  0  0  0  0  0  0  0
    3.0092   -1.3703    0.0000 N   0  0  0  0  0  0  0  0  0  0  0  0
    3.3885    0.3276    0.0000 C   0  0  0  0  0  0  0  0  0  0  0  0
   -3.8425   -0.6654    0.0000 C   0  0  0  0  0  0  0  0  0  0  0  0
   -3.6928   -1.6313    0.0000 C   0  0  0  0  0  0  0  0  0  0  0  0
   -2.7184   -1.8159    0.0000 S   0  0  0  0  0  0  0  0  0  0  0  0
    3.6879   -0.6119    0.0000 C   0  0  0  0  0  0  0  0  0  0  0  0
    2.1229    1.4984    0.0000 C   0  0  0  0  0  0  0  0  0  0  0  0
   -1.2798   -0.6802    0.0000 N   0  0  0  0  0  0  0  0  0  0  0  0
   -0.5615   -1.3838    0.0000 C   0  0  0  0  0  0  0  0  0  0  0  0
   -2.7981    0.7650    0.0000 C   0  0  0  0  0  0  0  0  0  0  0  0
    4.6656   -0.8115    0.0000 C   0  0  0  0  0  0  0  0  0  0  0  0
   -2.6401    1.7245    0.0000 N   0  0  0  0  0  0  0  0  0  0  0  0
   -4.7889   -0.3010    0.0000 C   0  0  0  0  0  0  0  0  0  0  0  0
   -4.4746   -2.2685    0.0000 C   0  0  0  0  0  0  0  0  0  0  0  0
    5.0664   -1.7096    0.0000 O   0  0  0  0  0  0  0  0  0  0  0  0
   -0.8425   -2.3397    0.0000 O   0  0  0  0  0  0  0  0  0  0  0  0
    5.4257   -0.1530    0.0000 C   0  0  0  0  0  0  0  0  0  0  0  0
    6.0626   -1.6014    0.0000 C   0  0  0  0  0  0  0  0  0  0  0  0
    6.2623   -0.6503    0.0000 C   0  0  0  0  0  0  0  0  0  0  0  0
    1.8519    2.5078    0.0000 F   0  0  0  0  0  0  0  0  0  0  0  0
    3.0891    1.7844    0.0000 F   0  0  0  0  0  0  0  0  0  0  0  0
    1.1333    1.2440    0.0000 F   0  0  0  0  0  0  0  0  0  0  0  0
   -5.5722   -0.9797    0.0000 C   0  0  0  0  0  0  0  0  0  0  0  0
   -5.4190   -1.9208    0.0000 C   0  0  0  0  0  0  0  0  0  0  0  0
   -6.2623   -2.5078    0.0000 C   0  0  0  0  0  0  0  0  0  0  0  0
  1  2  1  0
  1  3  1  0
  4 16  1  0
  1  5  1  0
  4  6  2  0
  5  7  2  0
  3  8  2  0
  7  8  1  0
  3  9  1  0
  2 10  2  0
  6 11  1  0
 12 13  1  0
 11 12  2  0
  4 13  1  0
  9 14  2  0
 10 14  1  0
  2 15  1  0
 16 17  1  0
  7 17  1  0
  6 18  1  0
 14 19  1  0
 18 20  3  0
 11 21  1  0
 12 22  1  0
 19 23  1  0
 17 24  2  0
 19 25  2  0
 23 26  1  0
 26 27  2  0
 25 27  1  0
 15 28  1  0
 15 29  1  0
 15 30  1  0
 21 31  1  0
 22 32  1  0
 31 32  1  0
 32 33  1  0
M  END
>  <IDNUMBER>  (772) 
K061-0529

>  <available>  (772) 
1

>  <H_acceptor>  (772) 
6

>  <H_donor>  (772) 
1

>  <B_rotN>  (772) 
6

>  <N_O>  (772) 
7

>  <logP>  (772) 
5.0056

>  <logD>  (772) 
3.3796

>  <logSw>  (772) 
-4.7795

>  <PSA>  (772) 
66.838

>  <pKa_ma>  (772) 
5.7844

>  <pKa_mb>  (772) 
0.7525

>  <N_Chirals>  (772) 
1

>  <Name>  (772) 
N-(3-cyano-6-methyl-4,5,6,7-tetrahydro-1-benzothiophen-2-yl)-5-(furan-2-yl)-7-(trifluoromethyl)pyrazolo[1,5-a]pyrimidine-2-carboxamide

>  <Smile>  (772) 
CC(CC1)Cc2c1c(C#N)c(NC(c1nn3c(C(F)(F)F)cc(-c4ccco4)nc3c1)=O)s2

>  <Color>  (772) 
YELLOW

>  <Collection>  (772) 
DC

>  <InChI>  (772) 
InChI=1S/C22H16F3N5O2S/c1-11-4-5-12-13(10-26)21(33-17(12)7-11)28-20(31)15-9-19-27-14(16-3-2-6-32-16)8-18(22(23,24)25)30(19)29-15/h2-3,6,8-9,11H,4-5,7H2,1H3,(H,28,31)/t11-/m1/s1

>  <InChI Key>  (772) 
BLXFUKQLPOACMX-LLVKDONJSA-N

>  <PERCENTSP3>  (772) 
27.3

>  <Link>  (772) 
https://www.chemdiv.com/catalog/screening-compounds/compound-K061-0529/

>  <MFCDNUMBER>  (772) 
MFCD01450526

>  <CLNUMBER>  (772) 
CL1646

>  <STEREO>  (772) 
RACEMIC MIXTURE

>  <State>  (772) 
Solid

>  <Similarity score>  (772) 
0.20

$$$$
N-(3-cyano-4,5,6,7-tetrahydro-1-benzothiophen-2-yl)-5,7-bis(difluoromethyl)pyraz
     RDKit          2D

 29 32  0  0  0  0  0  0  0  0999 V2000
   -1.4067   -1.1672    0.0000 N   0  0  0  0  0  0  0  0  0  0  0  0
   -0.5397   -1.6673    0.0000 C   0  0  0  0  0  0  0  0  0  0  0  0
   -2.2778   -1.6798    0.0000 C   0  0  0  0  0  0  0  0  0  0  0  0
    1.7486    1.6464    0.0000 C   0  0  0  0  0  0  0  0  0  0  0  0
   -1.2150   -0.1918    0.0000 N   0  0  0  0  0  0  0  0  0  0  0  0
    2.7448    1.7590    0.0000 C   0  0  0  0  0  0  0  0  0  0  0  0
   -0.2188   -0.0917    0.0000 C   0  0  0  0  0  0  0  0  0  0  0  0
    0.2064   -1.0004    0.0000 C   0  0  0  0  0  0  0  0  0  0  0  0
   -0.5314   -2.6676    0.0000 N   0  0  0  0  0  0  0  0  0  0  0  0
   -2.2695   -2.6884    0.0000 C   0  0  0  0  0  0  0  0  0  0  0  0
    1.3360    2.5468    0.0000 S   0  0  0  0  0  0  0  0  0  0  0  0
    2.9323    2.7217    0.0000 C   0  0  0  0  0  0  0  0  0  0  0  0
   -1.4024   -3.1804    0.0000 C   0  0  0  0  0  0  0  0  0  0  0  0
    1.2609    0.7878    0.0000 N   0  0  0  0  0  0  0  0  0  0  0  0
    2.0862    3.2220    0.0000 C   0  0  0  0  0  0  0  0  0  0  0  0
    0.2731    0.7878    0.0000 C   0  0  0  0  0  0  0  0  0  0  0  0
    3.4200    1.0462    0.0000 C   0  0  0  0  0  0  0  0  0  0  0  0
   -3.1906   -1.1546    0.0000 C   0  0  0  0  0  0  0  0  0  0  0  0
    4.0869    0.3460    0.0000 N   0  0  0  0  0  0  0  0  0  0  0  0
   -1.3942   -4.1806    0.0000 C   0  0  0  0  0  0  0  0  0  0  0  0
   -0.2313    1.6590    0.0000 O   0  0  0  0  0  0  0  0  0  0  0  0
   -3.1949   -0.1251    0.0000 F   0  0  0  0  0  0  0  0  0  0  0  0
   -4.0869   -1.6798    0.0000 F   0  0  0  0  0  0  0  0  0  0  0  0
   -0.5314   -4.6683    0.0000 F   0  0  0  0  0  0  0  0  0  0  0  0
   -2.2653   -4.6934    0.0000 F   0  0  0  0  0  0  0  0  0  0  0  0
    3.7868    3.1969    0.0000 C   0  0  0  0  0  0  0  0  0  0  0  0
    2.0737    4.2057    0.0000 C   0  0  0  0  0  0  0  0  0  0  0  0
    3.7993    4.1890    0.0000 C   0  0  0  0  0  0  0  0  0  0  0  0
    2.9491    4.6934    0.0000 C   0  0  0  0  0  0  0  0  0  0  0  0
  1  2  1  0
  1  3  1  0
  4 14  1  0
  1  5  1  0
  4  6  2  0
  5  7  2  0
  2  8  2  0
  7  8  1  0
  2  9  1  0
  9 13  2  0
  3 10  2  0
  4 11  1  0
  6 12  1  0
 10 13  1  0
 14 16  1  0
 11 15  1  0
 12 15  2  0
  7 16  1  0
  6 17  1  0
  3 18  1  0
 17 19  3  0
 13 20  1  0
 16 21  2  0
 18 22  1  0
 18 23  1  0
 20 24  1  0
 20 25  1  0
 12 26  1  0
 15 27  1  0
 26 28  1  0
 27 29  1  0
 28 29  1  0
M  END
>  <IDNUMBER>  (773) 
Y509-6148

>  <available>  (773) 
76

>  <H_acceptor>  (773) 
5

>  <H_donor>  (773) 
1

>  <B_rotN>  (773) 
6

>  <N_O>  (773) 
6

>  <logP>  (773) 
3.313

>  <logD>  (773) 
1.687

>  <logSw>  (773) 
-3.773

>  <PSA>  (773) 
58.53

>  <pKa_ma>  (773) 
5.784

>  <pKa_mb>  (773) 
-2.385

>  <N_Chirals>  (773) 
0

>  <Name>  (773) 
N-(3-cyano-4,5,6,7-tetrahydro-1-benzothiophen-2-yl)-5,7-bis(difluoromethyl)pyrazolo[1,5-a]pyrimidine-2-carboxamide

>  <Smile>  (773) 
n12c(cc(n1)C(Nc1c(c3c(s1)CCCC3)C#N)=O)nc(cc2C(F)F)C(F)F

>  <Color>  (773) 
BROWN

>  <Collection>  (773) 
DC

>  <InChI>  (773) 
InChI=1S/C18H13F4N5OS/c19-15(20)10-5-12(16(21)22)27-14(24-10)6-11(26-27)17(28)25-18-9(7-23)8-3-1-2-4-13(8)29-18/h5-6,15-16H,1-4H2,(H,25,28)

>  <InChI Key>  (773) 
MNYMLAZEETVFSA-UHFFFAOYSA-N

>  <PERCENTSP3>  (773) 
33.33

>  <Link>  (773) 
https://www.chemdiv.com/catalog/screening-compounds/compound-Y509-6148/

>  <MFCDNUMBER>  (773) 
MFCD04053781

>  <STEREO>  (773) 
ACHIRAL

>  <State>  (773) 
Solid

>  <Similarity score>  (773) 
0.20

$$$$
N-(3-cyano-5,6,7,8-tetrahydro-4H-cyclohepta[b]thiophen-2-yl)-5-(thiophen-2-yl)-7
     RDKit          2D

 33 37  0  0  0  0  0  0  0  0999 V2000
    1.9371   -0.0320    0.0000 N   0  0  0  0  0  0  0  0  0  0  0  0
    2.8684    0.3945    0.0000 C   0  0  0  0  0  0  0  0  0  0  0  0
    1.8660   -1.0344    0.0000 C   0  0  0  0  0  0  0  0  0  0  0  0
   -2.1949    0.4853    0.0000 C   0  0  0  0  0  0  0  0  0  0  0  0
    1.0414    0.3823    0.0000 N   0  0  0  0  0  0  0  0  0  0  0  0
   -2.7671    1.2831    0.0000 C   0  0  0  0  0  0  0  0  0  0  0  0
    0.3643   -0.3945    0.0000 C   0  0  0  0  0  0  0  0  0  0  0  0
    0.8637   -1.2385    0.0000 C   0  0  0  0  0  0  0  0  0  0  0  0
    2.6676   -1.6119    0.0000 N   0  0  0  0  0  0  0  0  0  0  0  0
    3.6805   -0.1812    0.0000 C   0  0  0  0  0  0  0  0  0  0  0  0
   -2.7671   -0.3375    0.0000 S   0  0  0  0  0  0  0  0  0  0  0  0
   -3.7232    0.9687    0.0000 C   0  0  0  0  0  0  0  0  0  0  0  0
    3.5791   -1.2051    0.0000 C   0  0  0  0  0  0  0  0  0  0  0  0
    2.9537    1.4113    0.0000 C   0  0  0  0  0  0  0  0  0  0  0  0
   -1.1820    0.4853    0.0000 N   0  0  0  0  0  0  0  0  0  0  0  0
   -3.7232   -0.0320    0.0000 C   0  0  0  0  0  0  0  0  0  0  0  0
   -0.6808   -0.3945    0.0000 C   0  0  0  0  0  0  0  0  0  0  0  0
    4.4110   -1.7717    0.0000 C   0  0  0  0  0  0  0  0  0  0  0  0
   -2.4419    2.1984    0.0000 C   0  0  0  0  0  0  0  0  0  0  0  0
   -2.1150    3.1101    0.0000 N   0  0  0  0  0  0  0  0  0  0  0  0
    4.3736   -2.7617    0.0000 S   0  0  0  0  0  0  0  0  0  0  0  0
   -1.1820   -1.2385    0.0000 O   0  0  0  0  0  0  0  0  0  0  0  0
    5.3636   -1.5106    0.0000 C   0  0  0  0  0  0  0  0  0  0  0  0
    5.3120   -3.1101    0.0000 C   0  0  0  0  0  0  0  0  0  0  0  0
    5.9181   -2.3423    0.0000 C   0  0  0  0  0  0  0  0  0  0  0  0
    3.0461    2.4170    0.0000 F   0  0  0  0  0  0  0  0  0  0  0  0
    1.9371    1.5071    0.0000 F   0  0  0  0  0  0  0  0  0  0  0  0
    3.9773    1.3205    0.0000 F   0  0  0  0  0  0  0  0  0  0  0  0
   -4.4643    1.5818    0.0000 C   0  0  0  0  0  0  0  0  0  0  0  0
   -4.5320   -0.5864    0.0000 C   0  0  0  0  0  0  0  0  0  0  0  0
   -5.4489    1.4006    0.0000 C   0  0  0  0  0  0  0  0  0  0  0  0
   -5.4933   -0.3643    0.0000 C   0  0  0  0  0  0  0  0  0  0  0  0
   -5.9181    0.5421    0.0000 C   0  0  0  0  0  0  0  0  0  0  0  0
  1  2  1  0
  1  3  1  0
  4 15  1  0
  1  5  1  0
  4  6  2  0
  5  7  2  0
  7  8  1  0
  3  8  2  0
  3  9  1  0
  2 10  2  0
  4 11  1  0
  6 12  1  0
  9 13  2  0
 10 13  1  0
  2 14  1  0
 15 17  1  0
 11 16  1  0
 12 16  2  0
  7 17  1  0
 13 18  1  0
  6 19  1  0
 19 20  3  0
 18 21  1  0
 17 22  2  0
 18 23  2  0
 21 24  1  0
 24 25  2  0
 23 25  1  0
 14 26  1  0
 14 27  1  0
 14 28  1  0
 12 29  1  0
 16 30  1  0
 29 31  1  0
 30 32  1  0
 32 33  1  0
 31 33  1  0
M  END
>  <IDNUMBER>  (774) 
K061-0568

>  <available>  (774) 
32

>  <H_acceptor>  (774) 
5

>  <H_donor>  (774) 
1

>  <B_rotN>  (774) 
6

>  <N_O>  (774) 
6

>  <logP>  (774) 
5.8055

>  <logD>  (774) 
4.1795

>  <logSw>  (774) 
-5.786

>  <PSA>  (774) 
59.609

>  <pKa_ma>  (774) 
5.7844

>  <pKa_mb>  (774) 
0.7525

>  <N_Chirals>  (774) 
0

>  <Name>  (774) 
N-(3-cyano-5,6,7,8-tetrahydro-4H-cyclohepta[b]thiophen-2-yl)-5-(thiophen-2-yl)-7-(trifluoromethyl)pyrazolo[1,5-a]pyrimidine-2-carboxamide

>  <Smile>  (774) 
N#Cc1c(NC(c2nn3c(C(F)(F)F)cc(-c4cccs4)nc3c2)=O)sc2c1CCCCC2

>  <Color>  (774) 
YELLOW

>  <Collection>  (774) 
DC

>  <InChI>  (774) 
InChI=1S/C22H16F3N5OS2/c23-22(24,25)18-9-14(17-7-4-8-32-17)27-19-10-15(29-30(18)19)20(31)28-21-13(11-26)12-5-2-1-3-6-16(12)33-21/h4,7-10H,1-3,5-6H2,(H,28,31)

>  <InChI Key>  (774) 
DYUDAZWVAHRVEF-UHFFFAOYSA-N

>  <PERCENTSP3>  (774) 
27.3

>  <Link>  (774) 
https://www.chemdiv.com/catalog/screening-compounds/compound-K061-0568/

>  <MFCDNUMBER>  (774) 
MFCD01451879

>  <CLNUMBER>  (774) 
CL1647

>  <STEREO>  (774) 
ACHIRAL

>  <State>  (774) 
Solid

>  <Similarity score>  (774) 
0.20

$$$$
2-[2-(4-amino-1,2,5-oxadiazol-3-yl)-1H-benzimidazol-1-yl]-N-(6-tert-butyl-3-cyan
     RDKit          2D

 34 38  0  0  0  0  0  0  0  0999 V2000
    3.4465   -0.1069    0.0000 C   0  0  0  0  0  0  0  0  0  0  0  0
    2.4766   -0.1674    0.0000 N   0  0  0  0  0  0  0  0  0  0  0  0
   -0.9532    0.5361    0.0000 C   0  0  0  0  0  0  0  0  0  0  0  0
   -1.7373    1.1344    0.0000 C   0  0  0  0  0  0  0  0  0  0  0  0
    4.0231    0.7066    0.0000 C   0  0  0  0  0  0  0  0  0  0  0  0
    3.8045   -1.0337    0.0000 N   0  0  0  0  0  0  0  0  0  0  0  0
   -2.2362   -0.4091    0.0000 C   0  0  0  0  0  0  0  0  0  0  0  0
   -2.5338    0.5471    0.0000 C   0  0  0  0  0  0  0  0  0  0  0  0
   -1.2538   -0.4091    0.0000 S   0  0  0  0  0  0  0  0  0  0  0  0
    3.7487    1.6769    0.0000 C   0  0  0  0  0  0  0  0  0  0  0  0
    4.5888    2.2191    0.0000 N   0  0  0  0  0  0  0  0  0  0  0  0
    0.0139    0.8708    0.0000 N   0  0  0  0  0  0  0  0  0  0  0  0
    5.0164    0.6959    0.0000 N   0  0  0  0  0  0  0  0  0  0  0  0
    2.2083   -1.1158    0.0000 C   0  0  0  0  0  0  0  0  0  0  0  0
    5.3558    1.6551    0.0000 O   0  0  0  0  0  0  0  0  0  0  0  0
    3.0530   -1.6581    0.0000 C   0  0  0  0  0  0  0  0  0  0  0  0
   -1.6923    2.1418    0.0000 C   0  0  0  0  0  0  0  0  0  0  0  0
    0.7764    0.1906    0.0000 C   0  0  0  0  0  0  0  0  0  0  0  0
    1.7482    0.5147    0.0000 C   0  0  0  0  0  0  0  0  0  0  0  0
   -2.9258   -1.1374    0.0000 C   0  0  0  0  0  0  0  0  0  0  0  0
   -1.6675    3.1460    0.0000 N   0  0  0  0  0  0  0  0  0  0  0  0
   -3.5286    0.7779    0.0000 C   0  0  0  0  0  0  0  0  0  0  0  0
   -3.8851   -0.9173    0.0000 C   0  0  0  0  0  0  0  0  0  0  0  0
   -4.5561   -1.6581    0.0000 C   0  0  0  0  0  0  0  0  0  0  0  0
   -4.1874    0.0311    0.0000 C   0  0  0  0  0  0  0  0  0  0  0  0
    0.5798   -0.7764    0.0000 O   0  0  0  0  0  0  0  0  0  0  0  0
    2.8220    2.0006    0.0000 N   0  0  0  0  0  0  0  0  0  0  0  0
    1.3078   -1.5994    0.0000 C   0  0  0  0  0  0  0  0  0  0  0  0
    3.0419   -2.6625    0.0000 C   0  0  0  0  0  0  0  0  0  0  0  0
   -5.3558   -2.3494    0.0000 C   0  0  0  0  0  0  0  0  0  0  0  0
   -5.1575   -0.9624    0.0000 C   0  0  0  0  0  0  0  0  0  0  0  0
   -3.8743   -2.4422    0.0000 C   0  0  0  0  0  0  0  0  0  0  0  0
    1.2646   -2.6034    0.0000 C   0  0  0  0  0  0  0  0  0  0  0  0
    2.1525   -3.1460    0.0000 C   0  0  0  0  0  0  0  0  0  0  0  0
  1  2  1  0
  3 12  1  0
  3  4  2  0
  1  5  1  0
  1  6  2  0
  7  9  1  0
  7  8  2  0
  4  8  1  0
  3  9  1  0
  5 10  1  0
 10 11  2  0
 12 18  1  0
  5 13  2  0
  2 14  1  0
 14 16  1  0
 13 15  1  0
 11 15  1  0
  6 16  1  0
  4 17  1  0
 18 19  1  0
  2 19  1  0
  7 20  1  0
 17 21  3  0
  8 22  1  0
 20 23  1  0
 23 24  1  0
 22 25  1  0
 23 25  1  0
 18 26  2  0
 10 27  1  0
 14 28  2  0
 16 29  2  0
 24 30  1  0
 24 31  1  0
 24 32  1  0
 28 33  1  0
 33 34  2  0
 29 34  1  0
M  END
>  <IDNUMBER>  (775) 
8014-1167

>  <available>  (775) 
25

>  <H_acceptor>  (775) 
7

>  <H_donor>  (775) 
3

>  <B_rotN>  (775) 
7

>  <N_O>  (775) 
9

>  <logP>  (775) 
5.3736

>  <logD>  (775) 
3.971

>  <logSw>  (775) 
-5.3873

>  <PSA>  (775) 
106.901

>  <pKa_ma>  (775) 
6.0149

>  <pKa_mb>  (775) 
3.9643

>  <N_Chirals>  (775) 
1

>  <Name>  (775) 
2-[2-(4-amino-1,2,5-oxadiazol-3-yl)-1H-benzimidazol-1-yl]-N-(6-tert-butyl-3-cyano-4,5,6,7-tetrahydro-1-benzothiophen-2-yl)acetamide

>  <Smile>  (775) 
CC(C)(C)C(CC1)Cc2c1c(C#N)c(NC(Cn1c(-c3nonc3N)nc3c1cccc3)=O)s2

>  <Color>  (775) 
BROWN

>  <Collection>  (775) 
DC

>  <InChI>  (775) 
InChI=1S/C24H25N7O2S/c1-24(2,3)13-8-9-14-15(11-25)23(34-18(14)10-13)28-19(32)12-31-17-7-5-4-6-16(17)27-22(31)20-21(26)30-33-29-20/h4-7,13H,8-10,12H2,1-3H3,(H2,26,30)(H,28,32)/t13-/m1/s1

>  <InChI Key>  (775) 
IDKGSEMMYVDLEV-CYBMUJFWSA-N

>  <PERCENTSP3>  (775) 
37.5

>  <Link>  (775) 
https://www.chemdiv.com/catalog/screening-compounds/compound-8014-1167/

>  <MFCDNUMBER>  (775) 
MFCD03767504

>  <CLNUMBER>  (775) 
CL2888

>  <STEREO>  (775) 
RACEMIC MIXTURE

>  <State>  (775) 
Solid

>  <Similarity score>  (775) 
0.20

$$$$
N-(6-tert-butyl-3-cyano-4,5,6,7-tetrahydro-1-benzothiophen-2-yl)-5-(4-methylphen
     RDKit          2D

 38 42  0  0  0  0  0  0  0  0999 V2000
   -0.0100    1.9400    0.0000 N   0  0  0  0  0  0  0  0  0  0  0  0
   -0.4939    2.8016    0.0000 C   0  0  0  0  0  0  0  0  0  0  0  0
    1.0029    1.9249    0.0000 C   0  0  0  0  0  0  0  0  0  0  0  0
   -0.3728   -2.1011    0.0000 C   0  0  0  0  0  0  0  0  0  0  0  0
   -0.3173    0.9873    0.0000 N   0  0  0  0  0  0  0  0  0  0  0  0
   -1.1739   -2.6807    0.0000 C   0  0  0  0  0  0  0  0  0  0  0  0
    0.4885    0.3981    0.0000 C   0  0  0  0  0  0  0  0  0  0  0  0
    1.2897    0.9573    0.0000 C   0  0  0  0  0  0  0  0  0  0  0  0
    1.5112    2.7711    0.0000 N   0  0  0  0  0  0  0  0  0  0  0  0
    0.0051    3.6731    0.0000 C   0  0  0  0  0  0  0  0  0  0  0  0
    0.1109   -3.6431    0.0000 C   0  0  0  0  0  0  0  0  0  0  0  0
   -0.8867   -3.6178    0.0000 C   0  0  0  0  0  0  0  0  0  0  0  0
    0.4281   -2.6807    0.0000 S   0  0  0  0  0  0  0  0  0  0  0  0
   -1.4912    2.8164    0.0000 C   0  0  0  0  0  0  0  0  0  0  0  0
    1.0178    3.6578    0.0000 C   0  0  0  0  0  0  0  0  0  0  0  0
   -0.3728   -1.0935    0.0000 N   0  0  0  0  0  0  0  0  0  0  0  0
    0.4885   -0.6047    0.0000 C   0  0  0  0  0  0  0  0  0  0  0  0
   -2.1215   -2.3634    0.0000 C   0  0  0  0  0  0  0  0  0  0  0  0
    0.6047   -4.5045    0.0000 C   0  0  0  0  0  0  0  0  0  0  0  0
   -3.0735   -2.0455    0.0000 N   0  0  0  0  0  0  0  0  0  0  0  0
   -1.3906   -4.4794    0.0000 C   0  0  0  0  0  0  0  0  0  0  0  0
    0.0958   -5.3661    0.0000 C   0  0  0  0  0  0  0  0  0  0  0  0
    1.5316    4.5094    0.0000 C   0  0  0  0  0  0  0  0  0  0  0  0
    0.5792   -6.2327    0.0000 C   0  0  0  0  0  0  0  0  0  0  0  0
    1.3501   -1.1086    0.0000 O   0  0  0  0  0  0  0  0  0  0  0  0
   -0.9169   -5.3412    0.0000 C   0  0  0  0  0  0  0  0  0  0  0  0
   -1.5068    1.8187    0.0000 F   0  0  0  0  0  0  0  0  0  0  0  0
   -2.4843    2.8315    0.0000 F   0  0  0  0  0  0  0  0  0  0  0  0
   -1.4763    3.8242    0.0000 F   0  0  0  0  0  0  0  0  0  0  0  0
    1.0477    5.3860    0.0000 C   0  0  0  0  0  0  0  0  0  0  0  0
    2.5396    4.4945    0.0000 C   0  0  0  0  0  0  0  0  0  0  0  0
    1.5567    6.2476    0.0000 C   0  0  0  0  0  0  0  0  0  0  0  0
    3.0535    5.3561    0.0000 C   0  0  0  0  0  0  0  0  0  0  0  0
    2.5596    6.2327    0.0000 C   0  0  0  0  0  0  0  0  0  0  0  0
    1.0733   -7.1094    0.0000 C   0  0  0  0  0  0  0  0  0  0  0  0
    1.4561   -5.7493    0.0000 C   0  0  0  0  0  0  0  0  0  0  0  0
   -0.2973   -6.7266    0.0000 C   0  0  0  0  0  0  0  0  0  0  0  0
    3.0735    7.1094    0.0000 C   0  0  0  0  0  0  0  0  0  0  0  0
  1  2  1  0
  1  3  1  0
  4 16  1  0
  1  5  1  0
  4  6  2  0
  5  7  2  0
  7  8  1  0
  3  8  2  0
  3  9  1  0
  2 10  2  0
 10 15  1  0
 11 13  1  0
 11 12  2  0
  6 12  1  0
  4 13  1  0
  2 14  1  0
  9 15  2  0
 16 17  1  0
  7 17  1  0
  6 18  1  0
 11 19  1  0
 18 20  3  0
 12 21  1  0
 19 22  1  0
 15 23  1  0
 22 24  1  0
 17 25  2  0
 21 26  1  0
 22 26  1  0
 14 27  1  0
 14 28  1  0
 14 29  1  0
 23 30  2  0
 23 31  1  0
 30 32  1  0
 32 34  2  0
 31 33  2  0
 33 34  1  0
 24 35  1  0
 24 36  1  0
 24 37  1  0
 34 38  1  0
M  END
>  <IDNUMBER>  (776) 
A0005597

>  <available>  (776) 
11

>  <H_acceptor>  (776) 
5

>  <H_donor>  (776) 
1

>  <B_rotN>  (776) 
7

>  <N_O>  (776) 
6

>  <logP>  (776) 
7.6461

>  <logD>  (776) 
6.0201

>  <logSw>  (776) 
-5.7032

>  <PSA>  (776) 
58.26

>  <pKa_ma>  (776) 
5.7844

>  <pKa_mb>  (776) 
2.2681

>  <N_Chirals>  (776) 
1

>  <Name>  (776) 
N-(6-tert-butyl-3-cyano-4,5,6,7-tetrahydro-1-benzothiophen-2-yl)-5-(4-methylphenyl)-7-(trifluoromethyl)pyrazolo[1,5-a]pyrimidine-2-carboxamide

>  <Smile>  (776) 
CC(C)(C)C(CC1)Cc2c1c(C#N)c(NC(c1nn3c(C(F)(F)F)cc(-c4ccc(C)cc4)nc3c1)=O)s2

>  <Color>  (776) 
YELLOW

>  <Collection>  (776) 
DC

>  <InChI>  (776) 
InChI=1S/C28H26F3N5OS/c1-15-5-7-16(8-6-15)20-12-23(28(29,30)31)36-24(33-20)13-21(35-36)25(37)34-26-19(14-32)18-10-9-17(27(2,3)4)11-22(18)38-26/h5-8,12-13,17H,9-11H2,1-4H3,(H,34,37)/t17-/m1/s1

>  <InChI Key>  (776) 
XIPSFBQKNBHORV-QGZVFWFLSA-N

>  <PERCENTSP3>  (776) 
35.7

>  <Link>  (776) 
https://www.chemdiv.com/catalog/screening-compounds/compound-A0005597/

>  <MFCDNUMBER>  (776) 
MFCD02087746

>  <CLNUMBER>  (776) 
CL1652

>  <STEREO>  (776) 
RACEMIC MIXTURE

>  <State>  (776) 
Solid

>  <Similarity score>  (776) 
0.20

$$$$
1-[4-(1-methyl-1H-pyrazol-4-yl)-6-(trifluoromethyl)pyrimidin-2-yl]-1H-pyrazole-3
     RDKit          2D

 24 26  0  0  0  0  0  0  0  0999 V2000
    0.0563    0.4793    0.0000 C   0  0  0  0  0  0  0  0  0  0  0  0
    1.8318    0.5293    0.0000 N   0  0  0  0  0  0  0  0  0  0  0  0
    0.9191    0.9710    0.0000 N   0  0  0  0  0  0  0  0  0  0  0  0
    2.5278    1.2419    0.0000 C   0  0  0  0  0  0  0  0  0  0  0  0
   -2.5319    0.9460    0.0000 C   0  0  0  0  0  0  0  0  0  0  0  0
   -0.8064    0.9710    0.0000 N   0  0  0  0  0  0  0  0  0  0  0  0
    0.0563   -0.5335    0.0000 N   0  0  0  0  0  0  0  0  0  0  0  0
   -1.6691    0.4542    0.0000 C   0  0  0  0  0  0  0  0  0  0  0  0
   -0.8064   -1.0211    0.0000 C   0  0  0  0  0  0  0  0  0  0  0  0
   -0.8064   -2.0339    0.0000 C   0  0  0  0  0  0  0  0  0  0  0  0
    2.0569    2.1297    0.0000 C   0  0  0  0  0  0  0  0  0  0  0  0
   -4.1323    1.2419    0.0000 N   0  0  0  0  0  0  0  0  0  0  0  0
   -2.6819    1.9338    0.0000 C   0  0  0  0  0  0  0  0  0  0  0  0
   -3.6614    2.1089    0.0000 N   0  0  0  0  0  0  0  0  0  0  0  0
    1.0690    1.9588    0.0000 C   0  0  0  0  0  0  0  0  0  0  0  0
    3.5405    1.1211    0.0000 C   0  0  0  0  0  0  0  0  0  0  0  0
   -1.6691   -0.5335    0.0000 C   0  0  0  0  0  0  0  0  0  0  0  0
   -3.4447    0.5041    0.0000 C   0  0  0  0  0  0  0  0  0  0  0  0
    3.9323    0.2333    0.0000 O   0  0  0  0  0  0  0  0  0  0  0  0
   -0.8064   -3.0218    0.0000 F   0  0  0  0  0  0  0  0  0  0  0  0
   -1.7942   -2.0339    0.0000 F   0  0  0  0  0  0  0  0  0  0  0  0
    0.2064   -2.0339    0.0000 F   0  0  0  0  0  0  0  0  0  0  0  0
    4.1323    1.9338    0.0000 N   0  0  0  0  0  0  0  0  0  0  0  0
   -4.1073    3.0218    0.0000 C   0  0  0  0  0  0  0  0  0  0  0  0
  2  3  1  0
  1  3  1  0
  2  4  2  0
  4 11  1  0
  5  8  1  0
  1  6  2  0
  1  7  1  0
  6  8  1  0
  8 17  2  0
  7  9  2  0
  9 10  1  0
 11 15  2  0
 12 18  2  0
  5 13  2  0
 13 14  1  0
 12 14  1  0
  3 15  1  0
  4 16  1  0
  9 17  1  0
  5 18  1  0
 16 19  2  0
 10 20  1  0
 10 21  1  0
 10 22  1  0
 16 23  1  0
 14 24  1  0
M  END
>  <IDNUMBER>  (777) 
Y509-8880

>  <available>  (777) 
1

>  <H_acceptor>  (777) 
6

>  <H_donor>  (777) 
2

>  <B_rotN>  (777) 
4

>  <N_O>  (777) 
8

>  <logP>  (777) 
1.1279

>  <logD>  (777) 
1.1279

>  <logSw>  (777) 
-1.8373

>  <PSA>  (777) 
80.574

>  <pKa_ma>  (777) 
15.0784

>  <pKa_mb>  (777) 
3.3904

>  <N_Chirals>  (777) 
0

>  <Name>  (777) 
1-[4-(1-methyl-1H-pyrazol-4-yl)-6-(trifluoromethyl)pyrimidin-2-yl]-1H-pyrazole-3-carboxamide

>  <Smile>  (777) 
c1(n2nc(cc2)C(=O)N)nc(c2cn(nc2)C)cc(n1)C(F)(F)F

>  <Color>  (777) 
NOT COLORED

>  <Collection>  (777) 
DC

>  <InChI>  (777) 
InChI=1S/C13H10F3N7O/c1-22-6-7(5-18-22)9-4-10(13(14,15)16)20-12(19-9)23-3-2-8(21-23)11(17)24/h2-6H,1H3,(H2,17,24)

>  <InChI Key>  (777) 
CCXICUAIZMHRCC-UHFFFAOYSA-N

>  <PERCENTSP3>  (777) 
15.4

>  <Link>  (777) 
https://www.chemdiv.com/catalog/screening-compounds/compound-Y509-8880/

>  <MFCDNUMBER>  (777) 
MFCD04139951

>  <STEREO>  (777) 
ACHIRAL

>  <State>  (777) 
Solid

>  <Similarity score>  (777) 
0.20

$$$$
N-(6-tert-butyl-3-cyano-4,5,6,7-tetrahydro-1-benzothiophen-2-yl)-5-(4-chlorophen
     RDKit          2D

 38 42  0  0  0  0  0  0  0  0999 V2000
   -0.0100    1.9400    0.0000 N   0  0  0  0  0  0  0  0  0  0  0  0
   -0.4939    2.8016    0.0000 C   0  0  0  0  0  0  0  0  0  0  0  0
    1.0029    1.9249    0.0000 C   0  0  0  0  0  0  0  0  0  0  0  0
   -0.3728   -2.1011    0.0000 C   0  0  0  0  0  0  0  0  0  0  0  0
   -0.3173    0.9873    0.0000 N   0  0  0  0  0  0  0  0  0  0  0  0
   -1.1739   -2.6807    0.0000 C   0  0  0  0  0  0  0  0  0  0  0  0
    0.4885    0.3981    0.0000 C   0  0  0  0  0  0  0  0  0  0  0  0
    1.2897    0.9573    0.0000 C   0  0  0  0  0  0  0  0  0  0  0  0
    1.5112    2.7711    0.0000 N   0  0  0  0  0  0  0  0  0  0  0  0
    0.0051    3.6731    0.0000 C   0  0  0  0  0  0  0  0  0  0  0  0
    0.1109   -3.6431    0.0000 C   0  0  0  0  0  0  0  0  0  0  0  0
   -0.8867   -3.6178    0.0000 C   0  0  0  0  0  0  0  0  0  0  0  0
    0.4281   -2.6807    0.0000 S   0  0  0  0  0  0  0  0  0  0  0  0
   -1.4912    2.8164    0.0000 C   0  0  0  0  0  0  0  0  0  0  0  0
    1.0178    3.6578    0.0000 C   0  0  0  0  0  0  0  0  0  0  0  0
   -0.3728   -1.0935    0.0000 N   0  0  0  0  0  0  0  0  0  0  0  0
    0.4885   -0.6047    0.0000 C   0  0  0  0  0  0  0  0  0  0  0  0
   -2.1215   -2.3634    0.0000 C   0  0  0  0  0  0  0  0  0  0  0  0
    0.6047   -4.5045    0.0000 C   0  0  0  0  0  0  0  0  0  0  0  0
   -3.0735   -2.0455    0.0000 N   0  0  0  0  0  0  0  0  0  0  0  0
   -1.3906   -4.4794    0.0000 C   0  0  0  0  0  0  0  0  0  0  0  0
    0.0958   -5.3661    0.0000 C   0  0  0  0  0  0  0  0  0  0  0  0
    1.5316    4.5094    0.0000 C   0  0  0  0  0  0  0  0  0  0  0  0
    0.5792   -6.2327    0.0000 C   0  0  0  0  0  0  0  0  0  0  0  0
    1.3501   -1.1086    0.0000 O   0  0  0  0  0  0  0  0  0  0  0  0
   -0.9169   -5.3412    0.0000 C   0  0  0  0  0  0  0  0  0  0  0  0
   -1.5068    1.8187    0.0000 F   0  0  0  0  0  0  0  0  0  0  0  0
   -2.4843    2.8315    0.0000 F   0  0  0  0  0  0  0  0  0  0  0  0
   -1.4763    3.8242    0.0000 F   0  0  0  0  0  0  0  0  0  0  0  0
    1.0477    5.3860    0.0000 C   0  0  0  0  0  0  0  0  0  0  0  0
    2.5396    4.4945    0.0000 C   0  0  0  0  0  0  0  0  0  0  0  0
    2.5596    6.2327    0.0000 C   0  0  0  0  0  0  0  0  0  0  0  0
    1.5567    6.2476    0.0000 C   0  0  0  0  0  0  0  0  0  0  0  0
    3.0535    5.3561    0.0000 C   0  0  0  0  0  0  0  0  0  0  0  0
    3.0735    7.1094    0.0000 Cl  0  0  0  0  0  0  0  0  0  0  0  0
    1.0733   -7.1094    0.0000 C   0  0  0  0  0  0  0  0  0  0  0  0
    1.4561   -5.7493    0.0000 C   0  0  0  0  0  0  0  0  0  0  0  0
   -0.2973   -6.7266    0.0000 C   0  0  0  0  0  0  0  0  0  0  0  0
  1  2  1  0
  1  3  1  0
  4 16  1  0
  1  5  1  0
  4  6  2  0
  5  7  2  0
  7  8  1  0
  3  8  2  0
  3  9  1  0
  2 10  2  0
 10 15  1  0
 11 13  1  0
 11 12  2  0
  6 12  1  0
  4 13  1  0
  2 14  1  0
  9 15  2  0
 16 17  1  0
  7 17  1  0
  6 18  1  0
 11 19  1  0
 18 20  3  0
 12 21  1  0
 19 22  1  0
 15 23  1  0
 22 24  1  0
 17 25  2  0
 21 26  1  0
 22 26  1  0
 14 27  1  0
 14 28  1  0
 14 29  1  0
 23 30  2  0
 23 31  1  0
 32 34  1  0
 30 33  1  0
 32 33  2  0
 31 34  2  0
 32 35  1  0
 24 36  1  0
 24 37  1  0
 24 38  1  0
M  END
>  <IDNUMBER>  (778) 
A0005729

>  <available>  (778) 
12

>  <H_acceptor>  (778) 
5

>  <H_donor>  (778) 
1

>  <B_rotN>  (778) 
7

>  <N_O>  (778) 
6

>  <logP>  (778) 
7.8174

>  <logD>  (778) 
6.1914

>  <logSw>  (778) 
-6.6576

>  <PSA>  (778) 
58.26

>  <pKa_ma>  (778) 
5.7844

>  <pKa_mb>  (778) 
1.5188

>  <N_Chirals>  (778) 
1

>  <Name>  (778) 
N-(6-tert-butyl-3-cyano-4,5,6,7-tetrahydro-1-benzothiophen-2-yl)-5-(4-chlorophenyl)-7-(trifluoromethyl)pyrazolo[1,5-a]pyrimidine-2-carboxamide

>  <Smile>  (778) 
CC(C)(C)C(CC1)Cc2c1c(C#N)c(NC(c1nn3c(C(F)(F)F)cc(-c(cc4)ccc4Cl)nc3c1)=O)s2

>  <Color>  (778) 
YELLOW

>  <Collection>  (778) 
DC

>  <InChI>  (778) 
InChI=1S/C27H23ClF3N5OS/c1-26(2,3)15-6-9-17-18(13-32)25(38-21(17)10-15)34-24(37)20-12-23-33-19(14-4-7-16(28)8-5-14)11-22(27(29,30)31)36(23)35-20/h4-5,7-8,11-12,15H,6,9-10H2,1-3H3,(H,34,37)/t15-/m1/s1

>  <InChI Key>  (778) 
LEMQIJMAVHQUMR-OAHLLOKOSA-N

>  <PERCENTSP3>  (778) 
33.3

>  <Link>  (778) 
https://www.chemdiv.com/catalog/screening-compounds/compound-A0005729/

>  <MFCDNUMBER>  (778) 
MFCD02087756

>  <CLNUMBER>  (778) 
CL1652

>  <STEREO>  (778) 
RACEMIC MIXTURE

>  <State>  (778) 
Solid

>  <Similarity score>  (778) 
0.19

$$$$
N-(6-tert-butyl-3-cyano-4,5,6,7-tetrahydro-1-benzothiophen-2-yl)-5-(3,4-dimethox
     RDKit          2D

 41 45  0  0  0  0  0  0  0  0999 V2000
    1.0250    1.5008    0.0000 N   0  0  0  0  0  0  0  0  0  0  0  0
    1.5083    2.3619    0.0000 C   0  0  0  0  0  0  0  0  0  0  0  0
    0.0229    1.4854    0.0000 C   0  0  0  0  0  0  0  0  0  0  0  0
   -0.3345   -2.5383    0.0000 C   0  0  0  0  0  0  0  0  0  0  0  0
    1.3421    0.5490    0.0000 N   0  0  0  0  0  0  0  0  0  0  0  0
   -1.1358   -3.1173    0.0000 C   0  0  0  0  0  0  0  0  0  0  0  0
    0.5363   -0.0403    0.0000 C   0  0  0  0  0  0  0  0  0  0  0  0
   -0.2744    0.5184    0.0000 C   0  0  0  0  0  0  0  0  0  0  0  0
   -0.5010    2.3315    0.0000 N   0  0  0  0  0  0  0  0  0  0  0  0
    1.0047    3.2330    0.0000 C   0  0  0  0  0  0  0  0  0  0  0  0
    0.1485   -4.0793    0.0000 C   0  0  0  0  0  0  0  0  0  0  0  0
   -0.8487   -4.0541    0.0000 C   0  0  0  0  0  0  0  0  0  0  0  0
    0.4661   -3.1173    0.0000 S   0  0  0  0  0  0  0  0  0  0  0  0
   -0.0024    3.2179    0.0000 C   0  0  0  0  0  0  0  0  0  0  0  0
    2.5055    2.3768    0.0000 C   0  0  0  0  0  0  0  0  0  0  0  0
   -0.3345   -1.5314    0.0000 N   0  0  0  0  0  0  0  0  0  0  0  0
    0.5264   -1.0425    0.0000 C   0  0  0  0  0  0  0  0  0  0  0  0
   -2.0826   -2.8002    0.0000 C   0  0  0  0  0  0  0  0  0  0  0  0
    0.6424   -4.9405    0.0000 C   0  0  0  0  0  0  0  0  0  0  0  0
   -0.5163    4.0692    0.0000 C   0  0  0  0  0  0  0  0  0  0  0  0
   -3.0343   -2.4831    0.0000 N   0  0  0  0  0  0  0  0  0  0  0  0
   -1.3520   -4.9155    0.0000 C   0  0  0  0  0  0  0  0  0  0  0  0
    0.1337   -5.8017    0.0000 C   0  0  0  0  0  0  0  0  0  0  0  0
   -1.5182    4.0539    0.0000 C   0  0  0  0  0  0  0  0  0  0  0  0
   -2.0319    4.9150    0.0000 C   0  0  0  0  0  0  0  0  0  0  0  0
    0.6172   -6.6678    0.0000 C   0  0  0  0  0  0  0  0  0  0  0  0
    1.4027   -1.5314    0.0000 O   0  0  0  0  0  0  0  0  0  0  0  0
   -1.5434    5.7915    0.0000 C   0  0  0  0  0  0  0  0  0  0  0  0
   -0.8786   -5.7762    0.0000 C   0  0  0  0  0  0  0  0  0  0  0  0
   -0.0328    4.9455    0.0000 C   0  0  0  0  0  0  0  0  0  0  0  0
    2.4902    3.3841    0.0000 F   0  0  0  0  0  0  0  0  0  0  0  0
    3.5126    2.3921    0.0000 F   0  0  0  0  0  0  0  0  0  0  0  0
    2.5208    1.3798    0.0000 F   0  0  0  0  0  0  0  0  0  0  0  0
   -0.5462    5.8062    0.0000 C   0  0  0  0  0  0  0  0  0  0  0  0
   -3.0289    4.8849    0.0000 O   0  0  0  0  0  0  0  0  0  0  0  0
   -2.0519    6.6673    0.0000 O   0  0  0  0  0  0  0  0  0  0  0  0
    1.1106   -7.5438    0.0000 C   0  0  0  0  0  0  0  0  0  0  0  0
    1.4932   -6.1843    0.0000 C   0  0  0  0  0  0  0  0  0  0  0  0
   -0.2593   -7.1612    0.0000 C   0  0  0  0  0  0  0  0  0  0  0  0
   -3.5126    4.0086    0.0000 C   0  0  0  0  0  0  0  0  0  0  0  0
   -1.5637    7.5438    0.0000 C   0  0  0  0  0  0  0  0  0  0  0  0
  1  2  1  0
  1  3  1  0
  4 16  1  0
  1  5  1  0
  4  6  2  0
  5  7  2  0
  3  8  2  0
  7  8  1  0
  3  9  1  0
  2 10  2  0
 10 14  1  0
 11 13  1  0
 11 12  2  0
  6 12  1  0
  4 13  1  0
  9 14  2  0
  2 15  1  0
 16 17  1  0
  7 17  1  0
  6 18  1  0
 11 19  1  0
 14 20  1  0
 18 21  3  0
 12 22  1  0
 19 23  1  0
 20 24  2  0
 24 25  1  0
 25 28  2  0
 23 26  1  0
 17 27  2  0
 28 34  1  0
 22 29  1  0
 23 29  1  0
 20 30  1  0
 15 31  1  0
 15 32  1  0
 15 33  1  0
 30 34  2  0
 25 35  1  0
 28 36  1  0
 26 37  1  0
 26 38  1  0
 26 39  1  0
 35 40  1  0
 36 41  1  0
M  END
>  <IDNUMBER>  (779) 
A0005392

>  <available>  (779) 
17

>  <H_acceptor>  (779) 
7

>  <H_donor>  (779) 
1

>  <B_rotN>  (779) 
9

>  <N_O>  (779) 
8

>  <logP>  (779) 
6.7233

>  <logD>  (779) 
5.0973

>  <logSw>  (779) 
-5.7265

>  <PSA>  (779) 
73.521

>  <pKa_ma>  (779) 
5.7844

>  <pKa_mb>  (779) 
2.841

>  <N_Chirals>  (779) 
1

>  <Name>  (779) 
N-(6-tert-butyl-3-cyano-4,5,6,7-tetrahydro-1-benzothiophen-2-yl)-5-(3,4-dimethoxyphenyl)-7-(trifluoromethyl)pyrazolo[1,5-a]pyrimidine-2-carboxamide

>  <Smile>  (779) 
CC(C)(C)C(CC1)Cc2c1c(C#N)c(NC(c1nn3c(C(F)(F)F)cc(-c(cc4)cc(OC)c4OC)nc3c1)=O)s2

>  <Color>  (779) 
YELLOW

>  <Collection>  (779) 
DC

>  <InChI>  (779) 
InChI=1S/C29H28F3N5O3S/c1-28(2,3)16-7-8-17-18(14-33)27(41-23(17)11-16)35-26(38)20-13-25-34-19(12-24(29(30,31)32)37(25)36-20)15-6-9-21(39-4)22(10-15)40-5/h6,9-10,12-13,16H,7-8,11H2,1-5H3,(H,35,38)/t16-
/m1/s1

>  <InChI Key>  (779) 
FFOYFNVKIILCBM-MRXNPFEDSA-N

>  <PERCENTSP3>  (779) 
37.9

>  <Link>  (779) 
https://www.chemdiv.com/catalog/screening-compounds/compound-A0005392/

>  <MFCDNUMBER>  (779) 
MFCD02087733

>  <CLNUMBER>  (779) 
CL1652

>  <STEREO>  (779) 
RACEMIC MIXTURE

>  <State>  (779) 
Solid

>  <Similarity score>  (779) 
0.19

$$$$
N-(3-cyano-4,5,6,7-tetrahydro-1-benzothiophen-2-yl)-2-[(5-methoxy-1H-benzimidazo
     RDKit          2D

 27 30  0  0  0  0  0  0  0  0999 V2000
    2.3969   -1.2795    0.0000 C   0  0  0  0  0  0  0  0  0  0  0  0
    3.0304   -0.4710    0.0000 C   0  0  0  0  0  0  0  0  0  0  0  0
    2.9220   -2.0843    0.0000 S   0  0  0  0  0  0  0  0  0  0  0  0
    3.9476   -0.8337    0.0000 C   0  0  0  0  0  0  0  0  0  0  0  0
   -1.6172    0.4544    0.0000 C   0  0  0  0  0  0  0  0  0  0  0  0
   -2.1798    1.2672    0.0000 N   0  0  0  0  0  0  0  0  0  0  0  0
    3.8723   -1.8465    0.0000 C   0  0  0  0  0  0  0  0  0  0  0  0
   -2.1798   -0.3459    0.0000 N   0  0  0  0  0  0  0  0  0  0  0  0
    1.3965   -1.2795    0.0000 N   0  0  0  0  0  0  0  0  0  0  0  0
   -3.1219    0.9421    0.0000 C   0  0  0  0  0  0  0  0  0  0  0  0
    2.7970    0.4961    0.0000 C   0  0  0  0  0  0  0  0  0  0  0  0
   -3.1219   -0.0708    0.0000 C   0  0  0  0  0  0  0  0  0  0  0  0
    2.5720    1.4673    0.0000 N   0  0  0  0  0  0  0  0  0  0  0  0
    0.9169   -0.4335    0.0000 C   0  0  0  0  0  0  0  0  0  0  0  0
   -3.9807    1.4673    0.0000 C   0  0  0  0  0  0  0  0  0  0  0  0
   -0.5919    0.4544    0.0000 S   0  0  0  0  0  0  0  0  0  0  0  0
    1.3965    0.4544    0.0000 O   0  0  0  0  0  0  0  0  0  0  0  0
   -3.9807   -0.5542    0.0000 C   0  0  0  0  0  0  0  0  0  0  0  0
   -0.1041   -0.4335    0.0000 C   0  0  0  0  0  0  0  0  0  0  0  0
   -4.8435    0.9421    0.0000 C   0  0  0  0  0  0  0  0  0  0  0  0
   -4.8435   -0.0708    0.0000 C   0  0  0  0  0  0  0  0  0  0  0  0
    4.8602   -0.4335    0.0000 C   0  0  0  0  0  0  0  0  0  0  0  0
    4.7103   -2.4218    0.0000 C   0  0  0  0  0  0  0  0  0  0  0  0
   -5.7064    1.4298    0.0000 O   0  0  0  0  0  0  0  0  0  0  0  0
   -5.7064    2.4218    0.0000 C   0  0  0  0  0  0  0  0  0  0  0  0
    5.7064   -0.9712    0.0000 C   0  0  0  0  0  0  0  0  0  0  0  0
    5.6358   -1.9799    0.0000 C   0  0  0  0  0  0  0  0  0  0  0  0
  1  2  2  0
  1  3  1  0
  2  4  1  0
  4  7  2  0
  5 16  1  0
  5  6  2  0
  3  7  1  0
  5  8  1  0
  1  9  1  0
  6 10  1  0
 10 12  2  0
  2 11  1  0
  8 12  1  0
 11 13  3  0
  9 14  1  0
 10 15  1  0
 16 19  1  0
 14 17  2  0
 12 18  1  0
 14 19  1  0
 15 20  2  0
 20 21  1  0
 18 21  2  0
  4 22  1  0
  7 23  1  0
 20 24  1  0
 24 25  1  0
 22 26  1  0
 26 27  1  0
 23 27  1  0
M  END
>  <IDNUMBER>  (780) 
Y505-4845

>  <available>  (780) 
26

>  <H_acceptor>  (780) 
6

>  <H_donor>  (780) 
2

>  <B_rotN>  (780) 
7

>  <N_O>  (780) 
6

>  <logP>  (780) 
3.5256

>  <logD>  (780) 
2.4929

>  <logSw>  (780) 
-4.2098

>  <PSA>  (780) 
65.444

>  <pKa_ma>  (780) 
6.4095

>  <pKa_mb>  (780) 
4.2873

>  <N_Chirals>  (780) 
0

>  <Name>  (780) 
N-(3-cyano-4,5,6,7-tetrahydro-1-benzothiophen-2-yl)-2-[(5-methoxy-1H-benzimidazol-2-yl)sulfanyl]acetamide

>  <Smile>  (780) 
c1(c(c2c(s1)CCCC2)C#N)NC(=O)CSc1nc2c([nH]1)ccc(c2)OC

>  <Color>  (780) 
ORANGE

>  <Collection>  (780) 
DC

>  <InChI>  (780) 
InChI=1S/C19H18N4O2S2/c1-25-11-6-7-14-15(8-11)22-19(21-14)26-10-17(24)23-18-13(9-20)12-4-2-3-5-16(12)27-18/h6-8H,2-5,10H2,1H3,(H,21,22)(H,23,24)

>  <InChI Key>  (780) 
JPLSNKJYBYFQJI-UHFFFAOYSA-N

>  <PERCENTSP3>  (780) 
8

>  <Link>  (780) 
https://www.chemdiv.com/catalog/screening-compounds/compound-Y505-4845/

>  <MFCDNUMBER>  (780) 
MFCD02008494

>  <STEREO>  (780) 
ACHIRAL

>  <State>  (780) 
Solid

>  <Similarity score>  (780) 
0.19

$$$$
N-(3-cyano-5,6-dihydro-4H-cyclopenta[b]thiophen-2-yl)-5-(4-methoxyphenyl)-1,2-ox
     RDKit          2D

 26 29  0  0  0  0  0  0  0  0999 V2000
   -1.0049   -2.9090    0.0000 C   0  0  0  0  0  0  0  0  0  0  0  0
   -0.3971   -3.6881    0.0000 C   0  0  0  0  0  0  0  0  0  0  0  0
   -0.0803    0.3956    0.0000 C   0  0  0  0  0  0  0  0  0  0  0  0
   -1.9412   -3.2496    0.0000 S   0  0  0  0  0  0  0  0  0  0  0  0
   -0.9426   -4.5149    0.0000 C   0  0  0  0  0  0  0  0  0  0  0  0
   -0.8654    0.9202    0.0000 N   0  0  0  0  0  0  0  0  0  0  0  0
   -1.0049   -1.9042    0.0000 N   0  0  0  0  0  0  0  0  0  0  0  0
    0.6697    0.9708    0.0000 C   0  0  0  0  0  0  0  0  0  0  0  0
   -1.8967   -4.2336    0.0000 C   0  0  0  0  0  0  0  0  0  0  0  0
   -0.1393   -1.4032    0.0000 C   0  0  0  0  0  0  0  0  0  0  0  0
    0.3408    1.8626    0.0000 C   0  0  0  0  0  0  0  0  0  0  0  0
   -0.5986    1.8331    0.0000 O   0  0  0  0  0  0  0  0  0  0  0  0
    0.6104   -3.6526    0.0000 C   0  0  0  0  0  0  0  0  0  0  0  0
    1.6090   -3.6112    0.0000 N   0  0  0  0  0  0  0  0  0  0  0  0
    0.8711    2.6510    0.0000 C   0  0  0  0  0  0  0  0  0  0  0  0
    0.6992   -1.8567    0.0000 O   0  0  0  0  0  0  0  0  0  0  0  0
    1.8107    2.5856    0.0000 C   0  0  0  0  0  0  0  0  0  0  0  0
    0.4594    3.4985    0.0000 C   0  0  0  0  0  0  0  0  0  0  0  0
   -0.8980   -5.5195    0.0000 C   0  0  0  0  0  0  0  0  0  0  0  0
    1.9263    4.2098    0.0000 C   0  0  0  0  0  0  0  0  0  0  0  0
   -2.4570   -5.0750    0.0000 C   0  0  0  0  0  0  0  0  0  0  0  0
    0.9777    4.2869    0.0000 C   0  0  0  0  0  0  0  0  0  0  0  0
    2.3414    3.3623    0.0000 C   0  0  0  0  0  0  0  0  0  0  0  0
    2.4570    5.0100    0.0000 O   0  0  0  0  0  0  0  0  0  0  0  0
   -1.8523   -5.8635    0.0000 C   0  0  0  0  0  0  0  0  0  0  0  0
    2.0390    5.8635    0.0000 C   0  0  0  0  0  0  0  0  0  0  0  0
  1  2  2  0
  3 10  1  0
  1  4  1  0
  2  5  1  0
  5  9  2  0
  3  6  2  0
  1  7  1  0
  3  8  1  0
  4  9  1  0
  7 10  1  0
  8 11  2  0
 11 12  1  0
  6 12  1  0
  2 13  1  0
 13 14  3  0
 11 15  1  0
 10 16  2  0
 15 17  2  0
 15 18  1  0
  5 19  1  0
 20 22  1  0
  9 21  1  0
 18 22  2  0
 17 23  1  0
 20 23  2  0
 20 24  1  0
 21 25  1  0
 19 25  1  0
 24 26  1  0
M  END
>  <IDNUMBER>  (781) 
C226-0779

>  <available>  (781) 
49

>  <H_acceptor>  (781) 
6

>  <H_donor>  (781) 
1

>  <B_rotN>  (781) 
6

>  <N_O>  (781) 
6

>  <logP>  (781) 
4.0602

>  <logD>  (781) 
2.7496

>  <logSw>  (781) 
-4.3837

>  <PSA>  (781) 
69.546

>  <pKa_ma>  (781) 
6.1111

>  <pKa_mb>  (781) 
-6.8683

>  <N_Chirals>  (781) 
0

>  <Name>  (781) 
N-(3-cyano-5,6-dihydro-4H-cyclopenta[b]thiophen-2-yl)-5-(4-methoxyphenyl)-1,2-oxazole-3-carboxamide

>  <Smile>  (781) 
COc(cc1)ccc1-c1cc(C(Nc(sc2c3CCC2)c3C#N)=O)no1

>  <Color>  (781) 
NOT COLORED

>  <Collection>  (781) 
DC

>  <InChI>  (781) 
InChI=1S/C19H15N3O3S/c1-24-12-7-5-11(6-8-12)16-9-15(22-25-16)18(23)21-19-14(10-20)13-3-2-4-17(13)26-19/h5-9H,2-4H2,1H3,(H,21,23)

>  <InChI Key>  (781) 
JKWBKXHLKIHMPX-UHFFFAOYSA-N

>  <PERCENTSP3>  (781) 
21.1

>  <Link>  (781) 
https://www.chemdiv.com/catalog/screening-compounds/compound-C226-0779/

>  <MFCDNUMBER>  (781) 
MFCD09781980

>  <CLNUMBER>  (781) 
CL2028

>  <STEREO>  (781) 
ACHIRAL

>  <State>  (781) 
Solid

>  <Similarity score>  (781) 
0.19

$$$$
N-(6-tert-butyl-3-cyano-4,5,6,7-tetrahydro-1-benzothiophen-2-yl)-5-phenyl-7-(tri
     RDKit          2D

 37 41  0  0  0  0  0  0  0  0999 V2000
    2.1497   -0.0602    0.0000 N   0  0  0  0  0  0  0  0  0  0  0  0
    2.9330    0.5686    0.0000 C   0  0  0  0  0  0  0  0  0  0  0  0
    2.2997   -1.0518    0.0000 C   0  0  0  0  0  0  0  0  0  0  0  0
   -1.8831   -0.4229    0.0000 C   0  0  0  0  0  0  0  0  0  0  0  0
    1.1542    0.0895    0.0000 N   0  0  0  0  0  0  0  0  0  0  0  0
   -2.5415    0.3603    0.0000 C   0  0  0  0  0  0  0  0  0  0  0  0
    0.7124   -0.8185    0.0000 C   0  0  0  0  0  0  0  0  0  0  0  0
    1.4291   -1.5060    0.0000 C   0  0  0  0  0  0  0  0  0  0  0  0
    3.2331   -1.4142    0.0000 N   0  0  0  0  0  0  0  0  0  0  0  0
    3.8664    0.2106    0.0000 C   0  0  0  0  0  0  0  0  0  0  0  0
   -3.3830   -0.9979    0.0000 C   0  0  0  0  0  0  0  0  0  0  0  0
   -3.4454   -0.0314    0.0000 C   0  0  0  0  0  0  0  0  0  0  0  0
   -2.4248   -1.2600    0.0000 S   0  0  0  0  0  0  0  0  0  0  0  0
    2.7790    1.5646    0.0000 C   0  0  0  0  0  0  0  0  0  0  0  0
   -0.9167   -0.2397    0.0000 N   0  0  0  0  0  0  0  0  0  0  0  0
    4.0163   -0.7811    0.0000 C   0  0  0  0  0  0  0  0  0  0  0  0
   -0.2834   -0.9979    0.0000 C   0  0  0  0  0  0  0  0  0  0  0  0
   -2.3455    1.3396    0.0000 C   0  0  0  0  0  0  0  0  0  0  0  0
   -4.1996   -1.5642    0.0000 C   0  0  0  0  0  0  0  0  0  0  0  0
   -2.1540    2.3061    0.0000 N   0  0  0  0  0  0  0  0  0  0  0  0
   -4.3495    0.4189    0.0000 C   0  0  0  0  0  0  0  0  0  0  0  0
   -5.1037   -1.1103    0.0000 C   0  0  0  0  0  0  0  0  0  0  0  0
   -5.9495   -1.6851    0.0000 C   0  0  0  0  0  0  0  0  0  0  0  0
   -0.6165   -1.9561    0.0000 O   0  0  0  0  0  0  0  0  0  0  0  0
    4.9495   -1.1686    0.0000 C   0  0  0  0  0  0  0  0  0  0  0  0
   -5.1621   -0.1521    0.0000 C   0  0  0  0  0  0  0  0  0  0  0  0
    2.6289    2.5561    0.0000 F   0  0  0  0  0  0  0  0  0  0  0  0
    1.7873    1.4144    0.0000 F   0  0  0  0  0  0  0  0  0  0  0  0
    3.7746    1.7143    0.0000 F   0  0  0  0  0  0  0  0  0  0  0  0
   -6.4827   -0.8185    0.0000 C   0  0  0  0  0  0  0  0  0  0  0  0
   -6.7869   -2.2267    0.0000 C   0  0  0  0  0  0  0  0  0  0  0  0
   -5.4036   -2.5266    0.0000 C   0  0  0  0  0  0  0  0  0  0  0  0
    5.0704   -2.1642    0.0000 C   0  0  0  0  0  0  0  0  0  0  0  0
    5.7288   -0.5438    0.0000 C   0  0  0  0  0  0  0  0  0  0  0  0
    6.0036   -2.5561    0.0000 C   0  0  0  0  0  0  0  0  0  0  0  0
    6.6369   -0.9313    0.0000 C   0  0  0  0  0  0  0  0  0  0  0  0
    6.7869   -1.8935    0.0000 C   0  0  0  0  0  0  0  0  0  0  0  0
  1  2  1  0
  1  3  1  0
  4 15  1  0
  1  5  1  0
  4  6  2  0
  5  7  2  0
  3  8  2  0
  7  8  1  0
  3  9  1  0
  2 10  2  0
 10 16  1  0
 11 13  1  0
 11 12  2  0
  6 12  1  0
  4 13  1  0
  2 14  1  0
 15 17  1  0
  9 16  2  0
  7 17  1  0
  6 18  1  0
 11 19  1  0
 18 20  3  0
 12 21  1  0
 19 22  1  0
 22 26  1  0
 22 23  1  0
 17 24  2  0
 16 25  1  0
 21 26  1  0
 14 27  1  0
 14 28  1  0
 14 29  1  0
 23 30  1  0
 23 31  1  0
 23 32  1  0
 25 33  1  0
 25 34  2  0
 33 35  2  0
 34 36  1  0
 35 37  1  0
 36 37  2  0
M  END
>  <IDNUMBER>  (782) 
Y501-6583

>  <available>  (782) 
29

>  <H_acceptor>  (782) 
5

>  <H_donor>  (782) 
1

>  <B_rotN>  (782) 
7

>  <N_O>  (782) 
6

>  <logP>  (782) 
7.1176

>  <logD>  (782) 
5.4916

>  <logSw>  (782) 
-5.6704

>  <PSA>  (782) 
58.26

>  <pKa_ma>  (782) 
5.7844

>  <pKa_mb>  (782) 
1.5188

>  <N_Chirals>  (782) 
1

>  <Name>  (782) 
N-(6-tert-butyl-3-cyano-4,5,6,7-tetrahydro-1-benzothiophen-2-yl)-5-phenyl-7-(trifluoromethyl)pyrazolo[1,5-a]pyrimidine-2-carboxamide

>  <Smile>  (782) 
CC(C)(C)C(CC1)Cc2c1c(C#N)c(NC(c1nn3c(C(F)(F)F)cc(-c4ccccc4)nc3c1)=O)s2

>  <Color>  (782) 
YELLOW

>  <Collection>  (782) 
DC

>  <InChI>  (782) 
InChI=1S/C27H24F3N5OS/c1-26(2,3)16-9-10-17-18(14-31)25(37-21(17)11-16)33-24(36)20-13-23-32-19(15-7-5-4-6-8-15)12-22(27(28,29)30)35(23)34-20/h4-8,12-13,16H,9-11H2,1-3H3,(H,33,36)/t16-/m1/s1

>  <InChI Key>  (782) 
WXUQVCRGXLUUMF-MRXNPFEDSA-N

>  <PERCENTSP3>  (782) 
33.3

>  <Link>  (782) 
https://www.chemdiv.com/catalog/screening-compounds/compound-Y501-6583/

>  <MFCDNUMBER>  (782) 
MFCD01451770

>  <STEREO>  (782) 
RACEMIC MIXTURE

>  <State>  (782) 
Solid

>  <Similarity score>  (782) 
0.19

$$$$
N-(6-tert-butyl-3-cyano-4,5,6,7-tetrahydro-1-benzothiophen-2-yl)-5-(3-methoxyphe
     RDKit          2D

 31 34  0  0  0  0  0  0  0  0999 V2000
   -1.1277   -0.9895    0.0000 C   0  0  0  0  0  0  0  0  0  0  0  0
   -1.9338   -1.5470    0.0000 C   0  0  0  0  0  0  0  0  0  0  0  0
   -0.6480   -2.5316    0.0000 C   0  0  0  0  0  0  0  0  0  0  0  0
   -1.6578   -2.5114    0.0000 C   0  0  0  0  0  0  0  0  0  0  0  0
   -0.3091    2.2378    0.0000 C   0  0  0  0  0  0  0  0  0  0  0  0
   -0.3241   -1.5923    0.0000 S   0  0  0  0  0  0  0  0  0  0  0  0
   -1.0673    2.8179    0.0000 N   0  0  0  0  0  0  0  0  0  0  0  0
   -1.1277    0.0225    0.0000 N   0  0  0  0  0  0  0  0  0  0  0  0
    0.4773    2.7728    0.0000 C   0  0  0  0  0  0  0  0  0  0  0  0
   -0.2639    0.5223    0.0000 C   0  0  0  0  0  0  0  0  0  0  0  0
    0.2060    3.6821    0.0000 C   0  0  0  0  0  0  0  0  0  0  0  0
   -0.7485    3.7071    0.0000 O   0  0  0  0  0  0  0  0  0  0  0  0
   -2.8785   -1.2156    0.0000 C   0  0  0  0  0  0  0  0  0  0  0  0
   -0.1734   -3.4082    0.0000 C   0  0  0  0  0  0  0  0  0  0  0  0
   -3.8303   -0.8841    0.0000 N   0  0  0  0  0  0  0  0  0  0  0  0
   -2.1703   -3.3580    0.0000 C   0  0  0  0  0  0  0  0  0  0  0  0
    0.7961    4.4329    0.0000 C   0  0  0  0  0  0  0  0  0  0  0  0
   -0.7033   -4.2671    0.0000 C   0  0  0  0  0  0  0  0  0  0  0  0
   -0.2236   -5.1589    0.0000 C   0  0  0  0  0  0  0  0  0  0  0  0
    0.5475    0.0225    0.0000 O   0  0  0  0  0  0  0  0  0  0  0  0
   -1.6928   -4.2370    0.0000 C   0  0  0  0  0  0  0  0  0  0  0  0
    1.7305    4.3123    0.0000 C   0  0  0  0  0  0  0  0  0  0  0  0
    2.3054    5.0582    0.0000 C   0  0  0  0  0  0  0  0  0  0  0  0
    3.2450    4.9226    0.0000 O   0  0  0  0  0  0  0  0  0  0  0  0
    0.4269    5.2994    0.0000 C   0  0  0  0  0  0  0  0  0  0  0  0
    1.0047    6.0579    0.0000 C   0  0  0  0  0  0  0  0  0  0  0  0
   -1.1277   -5.6284    0.0000 C   0  0  0  0  0  0  0  0  0  0  0  0
    0.6681   -4.6941    0.0000 C   0  0  0  0  0  0  0  0  0  0  0  0
    0.2361   -6.0579    0.0000 C   0  0  0  0  0  0  0  0  0  0  0  0
    1.9414    5.9351    0.0000 C   0  0  0  0  0  0  0  0  0  0  0  0
    3.8303    5.6787    0.0000 C   0  0  0  0  0  0  0  0  0  0  0  0
  1  2  2  0
  3  6  1  0
  3  4  2  0
  2  4  1  0
  5 10  1  0
  1  6  1  0
  5  7  2  0
  1  8  1  0
  5  9  1  0
  8 10  1  0
  9 11  2  0
 11 12  1  0
  7 12  1  0
  2 13  1  0
  3 14  1  0
 13 15  3  0
  4 16  1  0
 11 17  1  0
 14 18  1  0
 18 19  1  0
 10 20  2  0
 16 21  1  0
 18 21  1  0
 17 22  2  0
 22 23  1  0
 23 30  2  0
 23 24  1  0
 17 25  1  0
 25 26  2  0
 19 27  1  0
 19 28  1  0
 19 29  1  0
 26 30  1  0
 24 31  1  0
M  END
>  <IDNUMBER>  (783) 
C226-0897

>  <available>  (783) 
235

>  <H_acceptor>  (783) 
6

>  <H_donor>  (783) 
1

>  <B_rotN>  (783) 
7

>  <N_O>  (783) 
6

>  <logP>  (783) 
6.0123

>  <logD>  (783) 
4.7213

>  <logSw>  (783) 
-5.5449

>  <PSA>  (783) 
69.18

>  <pKa_ma>  (783) 
6.1318

>  <pKa_mb>  (783) 
-6.8683

>  <N_Chirals>  (783) 
1

>  <Name>  (783) 
N-(6-tert-butyl-3-cyano-4,5,6,7-tetrahydro-1-benzothiophen-2-yl)-5-(3-methoxyphenyl)-1,2-oxazole-3-carboxamide

>  <Smile>  (783) 
CC(C)(C)C(CC1)Cc2c1c(C#N)c(NC(c1noc(-c3cc(OC)ccc3)c1)=O)s2

>  <Color>  (783) 
NOT COLORED

>  <Collection>  (783) 
DC

>  <InChI>  (783) 
InChI=1S/C24H25N3O3S/c1-24(2,3)15-8-9-17-18(13-25)23(31-21(17)11-15)26-22(28)19-12-20(30-27-19)14-6-5-7-16(10-14)29-4/h5-7,10,12,15H,8-9,11H2,1-4H3,(H,26,28)/t15-/m1/s1

>  <InChI Key>  (783) 
FUETUFSSHFXHMC-OAHLLOKOSA-N

>  <PERCENTSP3>  (783) 
37.5

>  <Link>  (783) 
https://www.chemdiv.com/catalog/screening-compounds/compound-C226-0897/

>  <MFCDNUMBER>  (783) 
MFCD09782069

>  <CLNUMBER>  (783) 
CL2028

>  <STEREO>  (783) 
RACEMIC MIXTURE

>  <State>  (783) 
Solid

>  <Similarity score>  (783) 
0.19

$$$$
3-(2-chlorophenyl)-N-[3-cyano-6-(2-methylbutan-2-yl)-4,5,6,7-tetrahydro-1-benzot
     RDKit          2D

 32 35  0  0  0  0  0  0  0  0999 V2000
   -1.4988   -1.6134    0.0000 C   0  0  0  0  0  0  0  0  0  0  0  0
    0.6441   -1.6134    0.0000 C   0  0  0  0  0  0  0  0  0  0  0  0
   -2.4451   -1.5634    0.0000 C   0  0  0  0  0  0  0  0  0  0  0  0
    1.6529   -1.5759    0.0000 C   0  0  0  0  0  0  0  0  0  0  0  0
    0.1063   -2.5014    0.0000 C   0  0  0  0  0  0  0  0  0  0  0  0
   -1.9116   -0.0668    0.0000 C   0  0  0  0  0  0  0  0  0  0  0  0
   -2.6620   -0.5796    0.0000 C   0  0  0  0  0  0  0  0  0  0  0  0
    1.8448   -0.5921    0.0000 N   0  0  0  0  0  0  0  0  0  0  0  0
   -1.1319   -0.6796    0.0000 S   0  0  0  0  0  0  0  0  0  0  0  0
   -0.8942   -2.5014    0.0000 N   0  0  0  0  0  0  0  0  0  0  0  0
    2.2950   -2.3138    0.0000 C   0  0  0  0  0  0  0  0  0  0  0  0
    0.9900   -0.0918    0.0000 O   0  0  0  0  0  0  0  0  0  0  0  0
    0.2772   -0.7629    0.0000 C   0  0  0  0  0  0  0  0  0  0  0  0
   -3.1122   -2.3806    0.0000 C   0  0  0  0  0  0  0  0  0  0  0  0
   -1.9698    0.8837    0.0000 C   0  0  0  0  0  0  0  0  0  0  0  0
   -3.7751   -3.1935    0.0000 N   0  0  0  0  0  0  0  0  0  0  0  0
   -3.5957   -0.1793    0.0000 C   0  0  0  0  0  0  0  0  0  0  0  0
   -2.8328    1.3590    0.0000 C   0  0  0  0  0  0  0  0  0  0  0  0
    0.5816   -3.3894    0.0000 O   0  0  0  0  0  0  0  0  0  0  0  0
   -2.8703    2.4221    0.0000 C   0  0  0  0  0  0  0  0  0  0  0  0
    3.2706   -2.1429    0.0000 C   0  0  0  0  0  0  0  0  0  0  0  0
   -3.6958    0.8087    0.0000 C   0  0  0  0  0  0  0  0  0  0  0  0
    3.5957   -1.2299    0.0000 Cl  0  0  0  0  0  0  0  0  0  0  0  0
    1.9949   -3.2686    0.0000 C   0  0  0  0  0  0  0  0  0  0  0  0
   -0.6984   -0.5128    0.0000 C   0  0  0  0  0  0  0  0  0  0  0  0
   -2.9329    3.4812    0.0000 C   0  0  0  0  0  0  0  0  0  0  0  0
   -3.9209    2.3971    0.0000 C   0  0  0  0  0  0  0  0  0  0  0  0
   -1.8865    2.4471    0.0000 C   0  0  0  0  0  0  0  0  0  0  0  0
    3.9209   -2.8641    0.0000 C   0  0  0  0  0  0  0  0  0  0  0  0
   -2.0824    4.0022    0.0000 C   0  0  0  0  0  0  0  0  0  0  0  0
    2.6410   -4.0022    0.0000 C   0  0  0  0  0  0  0  0  0  0  0  0
    3.6208   -3.8064    0.0000 C   0  0  0  0  0  0  0  0  0  0  0  0
  2  5  1  0
  1  3  2  0
  2  4  1  0
  5 10  1  0
  6  9  1  0
  6  7  2  0
  3  7  1  0
  4  8  2  0
  8 12  1  0
  1  9  1  0
  1 10  1  0
  4 11  1  0
 12 13  1  0
  2 13  2  0
  3 14  1  0
  6 15  1  0
 14 16  3  0
  7 17  1  0
 15 18  1  0
 18 22  1  0
  5 19  2  0
 18 20  1  0
 11 21  1  0
 17 22  1  0
 21 23  1  0
 11 24  2  0
 13 25  1  0
 20 26  1  0
 20 27  1  0
 20 28  1  0
 21 29  2  0
 26 30  1  0
 24 31  1  0
 31 32  2  0
 29 32  1  0
M  END
>  <IDNUMBER>  (784) 
Y509-7610

>  <available>  (784) 
27

>  <H_acceptor>  (784) 
5

>  <H_donor>  (784) 
1

>  <B_rotN>  (784) 
7

>  <N_O>  (784) 
5

>  <logP>  (784) 
5.9743

>  <logD>  (784) 
3.2214

>  <logSw>  (784) 
-5.9648

>  <PSA>  (784) 
62.061

>  <pKa_ma>  (784) 
4.6479

>  <pKa_mb>  (784) 
-6.8683

>  <N_Chirals>  (784) 
1

>  <Name>  (784) 
3-(2-chlorophenyl)-N-[3-cyano-6-(2-methylbutan-2-yl)-4,5,6,7-tetrahydro-1-benzothiophen-2-yl]-5-methyl-1,2-oxazole-4-carboxamide

>  <Smile>  (784) 
c1(c(c2c(s1)CC(C(CC)(C)C)CC2)C#N)NC(c1c(noc1C)c1c(Cl)cccc1)=O

>  <Color>  (784) 
ORANGE

>  <Collection>  (784) 
DC

>  <InChI>  (784) 
InChI=1S/C25H26ClN3O2S/c1-5-25(3,4)15-10-11-16-18(13-27)24(32-20(16)12-15)28-23(30)21-14(2)31-29-22(21)17-8-6-7-9-19(17)26/h6-9,15H,5,10-12H2,1-4H3,(H,28,30)/t15-/m1/s1

>  <InChI Key>  (784) 
WKMHDJPWBULJDL-OAHLLOKOSA-N

>  <PERCENTSP3>  (784) 
40

>  <Link>  (784) 
https://www.chemdiv.com/catalog/screening-compounds/compound-Y509-7610/

>  <MFCDNUMBER>  (784) 
MFCD01350468

>  <CLNUMBER>  (784) 
CL2451

>  <STEREO>  (784) 
RACEMIC MIXTURE

>  <State>  (784) 
Solid

>  <Similarity score>  (784) 
0.19

$$$$
N-(3-cyano-6-methyl-4,5,6,7-tetrahydro-1-benzothiophen-2-yl)-5-methyl-3-phenyl-1
     RDKit          2D

 27 30  0  0  0  0  0  0  0  0999 V2000
    0.9064   -0.3084    0.0000 C   0  0  0  0  0  0  0  0  0  0  0  0
    1.8065   -0.7084    0.0000 C   0  0  0  0  0  0  0  0  0  0  0  0
   -1.6605   -0.8334    0.0000 C   0  0  0  0  0  0  0  0  0  0  0  0
   -0.8106   -0.3333    0.0000 C   0  0  0  0  0  0  0  0  0  0  0  0
    2.5065    0.0333    0.0000 C   0  0  0  0  0  0  0  0  0  0  0  0
    2.0064    0.9085    0.0000 C   0  0  0  0  0  0  0  0  0  0  0  0
    1.0064    0.6835    0.0000 S   0  0  0  0  0  0  0  0  0  0  0  0
   -3.1857   -1.3334    0.0000 N   0  0  0  0  0  0  0  0  0  0  0  0
   -2.6107   -0.5334    0.0000 C   0  0  0  0  0  0  0  0  0  0  0  0
    0.0563   -0.8084    0.0000 N   0  0  0  0  0  0  0  0  0  0  0  0
   -2.6107   -2.1335    0.0000 O   0  0  0  0  0  0  0  0  0  0  0  0
   -1.6605   -1.8335    0.0000 C   0  0  0  0  0  0  0  0  0  0  0  0
    2.0064   -1.7084    0.0000 C   0  0  0  0  0  0  0  0  0  0  0  0
    2.1814   -2.6835    0.0000 N   0  0  0  0  0  0  0  0  0  0  0  0
    3.5066    0.0333    0.0000 C   0  0  0  0  0  0  0  0  0  0  0  0
    2.5065    1.7834    0.0000 C   0  0  0  0  0  0  0  0  0  0  0  0
   -0.8106    0.6585    0.0000 O   0  0  0  0  0  0  0  0  0  0  0  0
   -2.8356    0.4333    0.0000 C   0  0  0  0  0  0  0  0  0  0  0  0
    4.0066    0.9085    0.0000 C   0  0  0  0  0  0  0  0  0  0  0  0
    3.5066    1.7834    0.0000 C   0  0  0  0  0  0  0  0  0  0  0  0
   -0.8355   -2.4335    0.0000 C   0  0  0  0  0  0  0  0  0  0  0  0
   -2.1106    1.1084    0.0000 C   0  0  0  0  0  0  0  0  0  0  0  0
   -3.7816    0.7335    0.0000 C   0  0  0  0  0  0  0  0  0  0  0  0
    4.0066    2.6835    0.0000 C   0  0  0  0  0  0  0  0  0  0  0  0
   -4.0066    1.7085    0.0000 C   0  0  0  0  0  0  0  0  0  0  0  0
   -2.3356    2.0835    0.0000 C   0  0  0  0  0  0  0  0  0  0  0  0
   -3.2858    2.3878    0.0000 C   0  0  0  0  0  0  0  0  0  0  0  0
  1  2  2  0
  3  4  1  0
  4 10  1  0
  2  5  1  0
  5  6  2  0
  6  7  1  0
  1  7  1  0
  8  9  2  0
  3  9  1  0
  1 10  1  0
 11 12  1  0
  8 11  1  0
  3 12  2  0
  2 13  1  0
 13 14  3  0
  5 15  1  0
  6 16  1  0
  4 17  2  0
  9 18  1  0
 15 19  1  0
 19 20  1  0
 16 20  1  0
 12 21  1  0
 18 22  1  0
 18 23  2  0
 20 24  1  0
 23 25  1  0
 22 26  2  0
 26 27  1  0
 25 27  2  0
M  END
>  <IDNUMBER>  (785) 
Y509-7405

>  <available>  (785) 
25

>  <H_acceptor>  (785) 
5

>  <H_donor>  (785) 
1

>  <B_rotN>  (785) 
5

>  <N_O>  (785) 
5

>  <logP>  (785) 
4.396

>  <logD>  (785) 
2.577

>  <logSw>  (785) 
-4.454

>  <PSA>  (785) 
62.06

>  <pKa_ma>  (785) 
5.587

>  <pKa_mb>  (785) 
-6.342

>  <N_Chirals>  (785) 
1

>  <Name>  (785) 
N-(3-cyano-6-methyl-4,5,6,7-tetrahydro-1-benzothiophen-2-yl)-5-methyl-3-phenyl-1,2-oxazole-4-carboxamide

>  <Smile>  (785) 
c1(c(c2c(s1)CC(CC2)C)C#N)NC(c1c(noc1C)c1ccccc1)=O

>  <Color>  (785) 
ORANGE

>  <Collection>  (785) 
DC

>  <InChI>  (785) 
InChI=1S/C21H19N3O2S/c1-12-8-9-15-16(11-22)21(27-17(15)10-12)23-20(25)18-13(2)26-24-19(18)14-6-4-3-5-7-14/h3-7,12H,8-10H2,1-2H3,(H,23,25)/t12-/m1/s1

>  <InChI Key>  (785) 
WBMFCSWUYHUKII-GFCCVEGCSA-N

>  <PERCENTSP3>  (785) 
28.57

>  <Link>  (785) 
https://www.chemdiv.com/catalog/screening-compounds/compound-Y509-7405/

>  <MFCDNUMBER>  (785) 
MFCD01106773

>  <CLNUMBER>  (785) 
CL2451

>  <STEREO>  (785) 
RACEMIC MIXTURE

>  <State>  (785) 
Solid

>  <Similarity score>  (785) 
0.19

$$$$
N-[(3-cyano-5,6-dihydro-4H-cyclopenta[b]thiophen-2-yl)carbamothioyl]-5-methyl-3-
     RDKit          2D

 28 31  0  0  0  0  0  0  0  0999 V2000
   -1.2568    1.3505    0.0000 C   0  0  0  0  0  0  0  0  0  0  0  0
   -1.8403    2.1715    0.0000 C   0  0  0  0  0  0  0  0  0  0  0  0
    2.7572   -0.3751    0.0000 C   0  0  0  0  0  0  0  0  0  0  0  0
    1.7485   -0.3751    0.0000 C   0  0  0  0  0  0  0  0  0  0  0  0
    4.3243   -0.7253    0.0000 N   0  0  0  0  0  0  0  0  0  0  0  0
   -1.8403    0.5459    0.0000 S   0  0  0  0  0  0  0  0  0  0  0  0
    3.4322   -1.1296    0.0000 C   0  0  0  0  0  0  0  0  0  0  0  0
   -2.7905    1.8631    0.0000 C   0  0  0  0  0  0  0  0  0  0  0  0
   -0.2564    1.3505    0.0000 N   0  0  0  0  0  0  0  0  0  0  0  0
    1.2482    0.4876    0.0000 N   0  0  0  0  0  0  0  0  0  0  0  0
    0.2355    0.4876    0.0000 C   0  0  0  0  0  0  0  0  0  0  0  0
   -2.7905    0.8585    0.0000 C   0  0  0  0  0  0  0  0  0  0  0  0
    4.2326    0.2751    0.0000 O   0  0  0  0  0  0  0  0  0  0  0  0
    3.2491    0.4876    0.0000 C   0  0  0  0  0  0  0  0  0  0  0  0
   -1.5318    3.1218    0.0000 C   0  0  0  0  0  0  0  0  0  0  0  0
   -1.2274    4.0680    0.0000 N   0  0  0  0  0  0  0  0  0  0  0  0
   -0.2564   -0.3876    0.0000 S   0  0  0  0  0  0  0  0  0  0  0  0
    1.2482   -1.2505    0.0000 O   0  0  0  0  0  0  0  0  0  0  0  0
    3.2491   -2.0923    0.0000 C   0  0  0  0  0  0  0  0  0  0  0  0
   -3.7408    2.1715    0.0000 C   0  0  0  0  0  0  0  0  0  0  0  0
   -3.7408    0.5459    0.0000 C   0  0  0  0  0  0  0  0  0  0  0  0
    2.8446    1.4088    0.0000 C   0  0  0  0  0  0  0  0  0  0  0  0
   -4.3243    1.3505    0.0000 C   0  0  0  0  0  0  0  0  0  0  0  0
    2.3237   -2.4508    0.0000 C   0  0  0  0  0  0  0  0  0  0  0  0
    4.0242   -2.7384    0.0000 C   0  0  0  0  0  0  0  0  0  0  0  0
    3.8616   -3.7180    0.0000 C   0  0  0  0  0  0  0  0  0  0  0  0
    2.1487   -3.4303    0.0000 C   0  0  0  0  0  0  0  0  0  0  0  0
    2.9196   -4.0680    0.0000 C   0  0  0  0  0  0  0  0  0  0  0  0
  1  2  2  0
  3  4  1  0
  4 10  1  0
  5  7  2  0
  1  6  1  0
  3  7  1  0
  2  8  1  0
  8 12  2  0
  1  9  1  0
 10 11  1  0
  9 11  1  0
  6 12  1  0
 13 14  1  0
  5 13  1  0
  3 14  2  0
  2 15  1  0
 15 16  3  0
 11 17  2  0
  4 18  2  0
  7 19  1  0
  8 20  1  0
 12 21  1  0
 14 22  1  0
 21 23  1  0
 20 23  1  0
 19 24  2  0
 19 25  1  0
 25 26  2  0
 24 27  1  0
 26 28  1  0
 27 28  2  0
M  END
>  <IDNUMBER>  (786) 
8015-9527

>  <available>  (786) 
6

>  <H_acceptor>  (786) 
7

>  <H_donor>  (786) 
2

>  <B_rotN>  (786) 
7

>  <N_O>  (786) 
6

>  <logP>  (786) 
3.9988

>  <logD>  (786) 
3.6408

>  <logSw>  (786) 
-4.3864

>  <PSA>  (786) 
72.337

>  <pKa_ma>  (786) 
7.2927

>  <pKa_mb>  (786) 
-6.8683

>  <N_Chirals>  (786) 
0

>  <Name>  (786) 
N-[(3-cyano-5,6-dihydro-4H-cyclopenta[b]thiophen-2-yl)carbamothioyl]-5-methyl-3-phenyl-1,2-oxazole-4-carboxamide

>  <Smile>  (786) 
Cc1c(C(NC(Nc(sc2c3CCC2)c3C#N)=S)=O)c(-c2ccccc2)no1

>  <Color>  (786) 
ORANGE

>  <Collection>  (786) 
DC

>  <InChI>  (786) 
InChI=1S/C20H16N4O2S2/c1-11-16(17(24-26-11)12-6-3-2-4-7-12)18(25)22-20(27)23-19-14(10-21)13-8-5-9-15(13)28-19/h2-4,6-7H,5,8-9H2,1H3,(H2,22,23,25,27)

>  <InChI Key>  (786) 
OETZIRPFQXQKQY-UHFFFAOYSA-N

>  <PERCENTSP3>  (786) 
20

>  <Link>  (786) 
https://www.chemdiv.com/catalog/screening-compounds/compound-8015-9527/

>  <MFCDNUMBER>  (786) 
MFCD03682695

>  <STEREO>  (786) 
ACHIRAL

>  <State>  (786) 
Solid

>  <Similarity score>  (786) 
0.19

$$$$
5-(2H-1,3-benzodioxol-5-yl)-N-(6-tert-butyl-3-cyano-4,5,6,7-tetrahydro-1-benzoth
     RDKit          2D

 40 45  0  0  0  0  0  0  0  0999 V2000
    0.7864    1.6075    0.0000 N   0  0  0  0  0  0  0  0  0  0  0  0
    1.2702    2.4692    0.0000 C   0  0  0  0  0  0  0  0  0  0  0  0
   -0.2168    1.5923    0.0000 C   0  0  0  0  0  0  0  0  0  0  0  0
   -0.5745   -2.4339    0.0000 C   0  0  0  0  0  0  0  0  0  0  0  0
    1.1037    0.6552    0.0000 N   0  0  0  0  0  0  0  0  0  0  0  0
   -1.3758   -3.0137    0.0000 C   0  0  0  0  0  0  0  0  0  0  0  0
    0.2975    0.0656    0.0000 C   0  0  0  0  0  0  0  0  0  0  0  0
   -0.5140    0.6250    0.0000 C   0  0  0  0  0  0  0  0  0  0  0  0
   -0.7408    2.4392    0.0000 N   0  0  0  0  0  0  0  0  0  0  0  0
    0.7662    3.3410    0.0000 C   0  0  0  0  0  0  0  0  0  0  0  0
   -0.0907   -3.9760    0.0000 C   0  0  0  0  0  0  0  0  0  0  0  0
   -1.0883   -3.9508    0.0000 C   0  0  0  0  0  0  0  0  0  0  0  0
    0.2270   -3.0137    0.0000 S   0  0  0  0  0  0  0  0  0  0  0  0
   -0.2419    3.3261    0.0000 C   0  0  0  0  0  0  0  0  0  0  0  0
    2.2678    2.4846    0.0000 C   0  0  0  0  0  0  0  0  0  0  0  0
   -0.5745   -1.4263    0.0000 N   0  0  0  0  0  0  0  0  0  0  0  0
    0.2873   -0.9371    0.0000 C   0  0  0  0  0  0  0  0  0  0  0  0
   -2.3229   -2.6962    0.0000 C   0  0  0  0  0  0  0  0  0  0  0  0
    0.4033   -4.8377    0.0000 C   0  0  0  0  0  0  0  0  0  0  0  0
   -0.7557    4.1774    0.0000 C   0  0  0  0  0  0  0  0  0  0  0  0
   -3.2754   -2.3787    0.0000 N   0  0  0  0  0  0  0  0  0  0  0  0
   -1.5921   -4.8126    0.0000 C   0  0  0  0  0  0  0  0  0  0  0  0
   -0.7862    5.9112    0.0000 C   0  0  0  0  0  0  0  0  0  0  0  0
   -0.1056   -5.6995    0.0000 C   0  0  0  0  0  0  0  0  0  0  0  0
   -0.2719    5.0545    0.0000 C   0  0  0  0  0  0  0  0  0  0  0  0
   -1.7835    5.8858    0.0000 C   0  0  0  0  0  0  0  0  0  0  0  0
   -0.4987    6.8685    0.0000 O   0  0  0  0  0  0  0  0  0  0  0  0
    0.3782   -6.5664    0.0000 C   0  0  0  0  0  0  0  0  0  0  0  0
   -2.1064    6.8534    0.0000 O   0  0  0  0  0  0  0  0  0  0  0  0
   -1.3302    7.4430    0.0000 C   0  0  0  0  0  0  0  0  0  0  0  0
    1.1644   -1.4263    0.0000 O   0  0  0  0  0  0  0  0  0  0  0  0
   -1.1185   -5.6741    0.0000 C   0  0  0  0  0  0  0  0  0  0  0  0
   -1.7584    4.1625    0.0000 C   0  0  0  0  0  0  0  0  0  0  0  0
    3.2754    2.4995    0.0000 F   0  0  0  0  0  0  0  0  0  0  0  0
    2.2829    1.4865    0.0000 F   0  0  0  0  0  0  0  0  0  0  0  0
    2.2529    3.4922    0.0000 F   0  0  0  0  0  0  0  0  0  0  0  0
   -2.2727    5.0243    0.0000 C   0  0  0  0  0  0  0  0  0  0  0  0
    0.8720   -7.4430    0.0000 C   0  0  0  0  0  0  0  0  0  0  0  0
    1.2548   -6.0826    0.0000 C   0  0  0  0  0  0  0  0  0  0  0  0
   -0.4987   -7.0597    0.0000 C   0  0  0  0  0  0  0  0  0  0  0  0
  1  2  1  0
  1  3  1  0
  4 16  1  0
  1  5  1  0
  4  6  2  0
  5  7  2  0
  7  8  1  0
  3  8  2  0
  3  9  1  0
  2 10  2  0
 10 14  1  0
 11 13  1  0
 11 12  2  0
  6 12  1  0
  4 13  1  0
  9 14  2  0
  2 15  1  0
 16 17  1  0
  7 17  1  0
  6 18  1  0
 11 19  1  0
 14 20  1  0
 18 21  3  0
 12 22  1  0
 23 25  2  0
 23 26  1  0
 19 24  1  0
 20 25  1  0
 26 37  2  0
 23 27  1  0
 24 28  1  0
 26 29  1  0
 29 30  1  0
 27 30  1  0
 17 31  2  0
 22 32  1  0
 24 32  1  0
 20 33  2  0
 15 34  1  0
 15 35  1  0
 15 36  1  0
 33 37  1  0
 28 38  1  0
 28 39  1  0
 28 40  1  0
M  END
>  <IDNUMBER>  (787) 
A0005409

>  <available>  (787) 
13

>  <H_acceptor>  (787) 
7

>  <H_donor>  (787) 
1

>  <B_rotN>  (787) 
7

>  <N_O>  (787) 
8

>  <logP>  (787) 
7.0215

>  <logD>  (787) 
5.3955

>  <logSw>  (787) 
-5.7534

>  <PSA>  (787) 
75.375

>  <pKa_ma>  (787) 
5.7844

>  <pKa_mb>  (787) 
2.841

>  <N_Chirals>  (787) 
1

>  <Name>  (787) 
5-(2H-1,3-benzodioxol-5-yl)-N-(6-tert-butyl-3-cyano-4,5,6,7-tetrahydro-1-benzothiophen-2-yl)-7-(trifluoromethyl)pyrazolo[1,5-a]pyrimidine-2-carboxamide

>  <Smile>  (787) 
CC(C)(C)C(CC1)Cc2c1c(C#N)c(NC(c1nn3c(C(F)(F)F)cc(-c(cc4)cc5c4OCO5)nc3c1)=O)s2

>  <Color>  (787) 
YELLOW

>  <Collection>  (787) 
DC

>  <InChI>  (787) 
InChI=1S/C28H24F3N5O3S/c1-27(2,3)15-5-6-16-17(12-32)26(40-22(16)9-15)34-25(37)19-11-24-33-18(10-23(28(29,30)31)36(24)35-19)14-4-7-20-21(8-14)39-13-38-20/h4,7-8,10-11,15H,5-6,9,13H2,1-3H3,(H,34,37)/t15
-/m1/s1

>  <InChI Key>  (787) 
AKYOYLCLJFKLBW-OAHLLOKOSA-N

>  <PERCENTSP3>  (787) 
35.7

>  <Link>  (787) 
https://www.chemdiv.com/catalog/screening-compounds/compound-A0005409/

>  <MFCDNUMBER>  (787) 
MFCD02087736

>  <CLNUMBER>  (787) 
CL1652

>  <STEREO>  (787) 
RACEMIC MIXTURE

>  <State>  (787) 
Solid

>  <Similarity score>  (787) 
0.19

$$$$
N-(3-cyano-4,5,6,7-tetrahydro-1-benzothiophen-2-yl)-5-(4-methoxyphenyl)-1,2-oxaz
     RDKit          2D

 27 30  0  0  0  0  0  0  0  0999 V2000
   -0.9292   -2.7527    0.0000 C   0  0  0  0  0  0  0  0  0  0  0  0
   -0.3215   -3.5263    0.0000 C   0  0  0  0  0  0  0  0  0  0  0  0
   -0.0045    0.5571    0.0000 C   0  0  0  0  0  0  0  0  0  0  0  0
   -1.8506   -3.0878    0.0000 S   0  0  0  0  0  0  0  0  0  0  0  0
   -0.8521   -4.3441    0.0000 C   0  0  0  0  0  0  0  0  0  0  0  0
   -0.7897    1.0815    0.0000 N   0  0  0  0  0  0  0  0  0  0  0  0
   -0.9292   -1.7425    0.0000 N   0  0  0  0  0  0  0  0  0  0  0  0
    0.7453    1.1320    0.0000 C   0  0  0  0  0  0  0  0  0  0  0  0
   -1.8122   -4.0805    0.0000 C   0  0  0  0  0  0  0  0  0  0  0  0
   -0.0636   -1.2416    0.0000 C   0  0  0  0  0  0  0  0  0  0  0  0
    0.4164    2.0240    0.0000 C   0  0  0  0  0  0  0  0  0  0  0  0
   -0.5232    1.9942    0.0000 O   0  0  0  0  0  0  0  0  0  0  0  0
    0.6888   -3.4639    0.0000 C   0  0  0  0  0  0  0  0  0  0  0  0
    1.6994   -3.4344    0.0000 N   0  0  0  0  0  0  0  0  0  0  0  0
    0.9466    2.8122    0.0000 C   0  0  0  0  0  0  0  0  0  0  0  0
    0.7749   -1.6949    0.0000 O   0  0  0  0  0  0  0  0  0  0  0  0
    1.8862    2.7469    0.0000 C   0  0  0  0  0  0  0  0  0  0  0  0
    0.5348    3.6595    0.0000 C   0  0  0  0  0  0  0  0  0  0  0  0
    2.0016    4.3708    0.0000 C   0  0  0  0  0  0  0  0  0  0  0  0
   -0.5941   -5.3130    0.0000 C   0  0  0  0  0  0  0  0  0  0  0  0
    2.4167    3.5234    0.0000 C   0  0  0  0  0  0  0  0  0  0  0  0
    1.0533    4.4478    0.0000 C   0  0  0  0  0  0  0  0  0  0  0  0
   -2.5323   -4.7829    0.0000 C   0  0  0  0  0  0  0  0  0  0  0  0
    2.5323    5.1709    0.0000 O   0  0  0  0  0  0  0  0  0  0  0  0
    2.1143    6.0243    0.0000 C   0  0  0  0  0  0  0  0  0  0  0  0
   -1.3054   -6.0243    0.0000 C   0  0  0  0  0  0  0  0  0  0  0  0
   -2.2743   -5.7635    0.0000 C   0  0  0  0  0  0  0  0  0  0  0  0
  1  2  2  0
  3 10  1  0
  1  4  1  0
  2  5  1  0
  3  6  2  0
  1  7  1  0
  3  8  1  0
  4  9  1  0
  5  9  2  0
  7 10  1  0
  8 11  2  0
 11 12  1  0
  6 12  1  0
  2 13  1  0
 13 14  3  0
 11 15  1  0
 10 16  2  0
 15 17  2  0
 15 18  1  0
 19 22  1  0
  5 20  1  0
 17 21  1  0
 19 21  2  0
 18 22  2  0
  9 23  1  0
 19 24  1  0
 24 25  1  0
 20 26  1  0
 26 27  1  0
 23 27  1  0
M  END
>  <IDNUMBER>  (788) 
C226-0775

>  <available>  (788) 
64

>  <H_acceptor>  (788) 
6

>  <H_donor>  (788) 
1

>  <B_rotN>  (788) 
6

>  <N_O>  (788) 
6

>  <logP>  (788) 
4.4705

>  <logD>  (788) 
3.1794

>  <logSw>  (788) 
-4.4701

>  <PSA>  (788) 
69.18

>  <pKa_ma>  (788) 
6.1318

>  <pKa_mb>  (788) 
-6.8683

>  <N_Chirals>  (788) 
0

>  <Name>  (788) 
N-(3-cyano-4,5,6,7-tetrahydro-1-benzothiophen-2-yl)-5-(4-methoxyphenyl)-1,2-oxazole-3-carboxamide

>  <Smile>  (788) 
COc(cc1)ccc1-c1cc(C(Nc(sc2c3CCCC2)c3C#N)=O)no1

>  <Color>  (788) 
NOT COLORED

>  <Collection>  (788) 
DC

>  <InChI>  (788) 
InChI=1S/C20H17N3O3S/c1-25-13-8-6-12(7-9-13)17-10-16(23-26-17)19(24)22-20-15(11-21)14-4-2-3-5-18(14)27-20/h6-10H,2-5H2,1H3,(H,22,24)

>  <InChI Key>  (788) 
GEOFPCNFWRTZNM-UHFFFAOYSA-N

>  <PERCENTSP3>  (788) 
25

>  <Link>  (788) 
https://www.chemdiv.com/catalog/screening-compounds/compound-C226-0775/

>  <MFCDNUMBER>  (788) 
MFCD08546569

>  <CLNUMBER>  (788) 
CL2028

>  <STEREO>  (788) 
ACHIRAL

>  <State>  (788) 
Solid

>  <Similarity score>  (788) 
0.19

$$$$
N-(3-cyano-4,5,6,7-tetrahydro-1-benzothiophen-2-yl)-2-(1-ethyl-3-methyl-1H-pyraz
     RDKit          2D

 32 36  0  0  0  0  0  0  0  0999 V2000
   -1.7858    1.5941    0.0000 C   0  0  0  0  0  0  0  0  0  0  0  0
   -2.7068    1.9150    0.0000 C   0  0  0  0  0  0  0  0  0  0  0  0
    1.6025   -2.1069    0.0000 C   0  0  0  0  0  0  0  0  0  0  0  0
   -1.8066    0.6315    0.0000 S   0  0  0  0  0  0  0  0  0  0  0  0
    0.7606   -1.6025    0.0000 C   0  0  0  0  0  0  0  0  0  0  0  0
   -3.3029    1.1440    0.0000 C   0  0  0  0  0  0  0  0  0  0  0  0
   -0.9399    2.0734    0.0000 N   0  0  0  0  0  0  0  0  0  0  0  0
    2.7152   -3.2279    0.0000 N   0  0  0  0  0  0  0  0  0  0  0  0
   -0.0855    1.5941    0.0000 C   0  0  0  0  0  0  0  0  0  0  0  0
   -2.7485    0.3437    0.0000 C   0  0  0  0  0  0  0  0  0  0  0  0
    1.7525   -3.0696    0.0000 C   0  0  0  0  0  0  0  0  0  0  0  0
   -0.0855   -0.1397    0.0000 C   0  0  0  0  0  0  0  0  0  0  0  0
   -0.0855   -2.1069    0.0000 N   0  0  0  0  0  0  0  0  0  0  0  0
    3.1777   -2.3859    0.0000 N   0  0  0  0  0  0  0  0  0  0  0  0
    2.4901   -1.6694    0.0000 C   0  0  0  0  0  0  0  0  0  0  0  0
    0.7606   -0.6315    0.0000 C   0  0  0  0  0  0  0  0  0  0  0  0
   -3.0070    2.8361    0.0000 C   0  0  0  0  0  0  0  0  0  0  0  0
   -0.9315   -0.6315    0.0000 C   0  0  0  0  0  0  0  0  0  0  0  0
   -0.9315   -1.6025    0.0000 C   0  0  0  0  0  0  0  0  0  0  0  0
   -3.3029    3.7654    0.0000 N   0  0  0  0  0  0  0  0  0  0  0  0
    0.7606    2.0734    0.0000 O   0  0  0  0  0  0  0  0  0  0  0  0
   -4.2864    1.0688    0.0000 C   0  0  0  0  0  0  0  0  0  0  0  0
   -3.1569   -0.5439    0.0000 C   0  0  0  0  0  0  0  0  0  0  0  0
    4.1488   -2.2901    0.0000 C   0  0  0  0  0  0  0  0  0  0  0  0
    1.0815   -3.7654    0.0000 C   0  0  0  0  0  0  0  0  0  0  0  0
   -1.7858   -0.1397    0.0000 C   0  0  0  0  0  0  0  0  0  0  0  0
   -1.7858   -2.1069    0.0000 C   0  0  0  0  0  0  0  0  0  0  0  0
    4.7157   -3.1029    0.0000 C   0  0  0  0  0  0  0  0  0  0  0  0
   -4.7157    0.1729    0.0000 C   0  0  0  0  0  0  0  0  0  0  0  0
   -4.1488   -0.6315    0.0000 C   0  0  0  0  0  0  0  0  0  0  0  0
   -2.6318   -0.6315    0.0000 C   0  0  0  0  0  0  0  0  0  0  0  0
   -2.6318   -1.6025    0.0000 C   0  0  0  0  0  0  0  0  0  0  0  0
  1  2  2  0
  3  5  1  0
  1  4  1  0
  5 16  2  0
  5 13  1  0
  2  6  1  0
  6 10  2  0
  1  7  1  0
  8 11  2  0
  8 14  1  0
  7  9  1  0
  4 10  1  0
  3 11  1  0
  9 12  1  0
 13 19  2  0
 14 15  1  0
  3 15  2  0
 12 16  1  0
  2 17  1  0
 12 18  2  0
 18 19  1  0
 17 20  3  0
  9 21  2  0
  6 22  1  0
 10 23  1  0
 14 24  1  0
 11 25  1  0
 18 26  1  0
 19 27  1  0
 27 32  2  0
 24 28  1  0
 22 29  1  0
 29 30  1  0
 23 30  1  0
 26 31  2  0
 31 32  1  0
M  END
>  <IDNUMBER>  (789) 
Y502-5910

>  <available>  (789) 
16

>  <H_acceptor>  (789) 
5

>  <H_donor>  (789) 
1

>  <B_rotN>  (789) 
6

>  <N_O>  (789) 
6

>  <logP>  (789) 
4.7561

>  <logD>  (789) 
3.8009

>  <logSw>  (789) 
-4.6546

>  <PSA>  (789) 
63.015

>  <pKa_ma>  (789) 
6.4958

>  <pKa_mb>  (789) 
1.1099

>  <N_Chirals>  (789) 
0

>  <Name>  (789) 
N-(3-cyano-4,5,6,7-tetrahydro-1-benzothiophen-2-yl)-2-(1-ethyl-3-methyl-1H-pyrazol-4-yl)quinoline-4-carboxamide

>  <Smile>  (789) 
CCn1nc(C)c(-c2nc3ccccc3c(C(Nc(sc3c4CCCC3)c4C#N)=O)c2)c1

>  <Color>  (789) 
YELLOW

>  <Collection>  (789) 
DC

>  <InChI>  (789) 
InChI=1S/C25H23N5OS/c1-3-30-14-20(15(2)29-30)22-12-18(16-8-4-6-10-21(16)27-22)24(31)28-25-19(13-26)17-9-5-7-11-23(17)32-25/h4,6,8,10,12,14H,3,5,7,9,11H2,1-2H3,(H,28,31)

>  <InChI Key>  (789) 
DXQQNJMMJXLMGQ-UHFFFAOYSA-N

>  <PERCENTSP3>  (789) 
28

>  <Link>  (789) 
https://www.chemdiv.com/catalog/screening-compounds/compound-Y502-5910/

>  <MFCDNUMBER>  (789) 
MFCD04133913

>  <CLNUMBER>  (789) 
CL7494

>  <Saltdata>  (789) 
HCl

>  <Saltdata_MW>  (789) 
36.461

>  <STEREO>  (789) 
ACHIRAL

>  <State>  (789) 
Solid

>  <Similarity score>  (789) 
0.19

$$$$
N-(3-cyano-5,6-dihydro-4H-cyclopenta[b]thiophen-2-yl)-7-(1,3,5-trimethyl-1H-pyra
     RDKit          2D

 30 34  0  0  0  0  0  0  0  0999 V2000
   -2.1013    1.0476    0.0000 N   0  0  0  0  0  0  0  0  0  0  0  0
   -3.3634   -0.1355    0.0000 C   0  0  0  0  0  0  0  0  0  0  0  0
   -3.0758    0.8184    0.0000 C   0  0  0  0  0  0  0  0  0  0  0  0
    2.1637    1.1892    0.0000 C   0  0  0  0  0  0  0  0  0  0  0  0
   -1.2766    0.4726    0.0000 N   0  0  0  0  0  0  0  0  0  0  0  0
    2.4470    0.2604    0.0000 C   0  0  0  0  0  0  0  0  0  0  0  0
   -0.4769    1.0850    0.0000 C   0  0  0  0  0  0  0  0  0  0  0  0
   -1.8097    2.0053    0.0000 C   0  0  0  0  0  0  0  0  0  0  0  0
   -0.8101    2.0264    0.0000 C   0  0  0  0  0  0  0  0  0  0  0  0
   -4.2921   -1.4682    0.0000 N   0  0  0  0  0  0  0  0  0  0  0  0
   -3.3340   -1.7595    0.0000 N   0  0  0  0  0  0  0  0  0  0  0  0
   -4.3087   -0.4643    0.0000 C   0  0  0  0  0  0  0  0  0  0  0  0
   -2.7594   -0.9391    0.0000 C   0  0  0  0  0  0  0  0  0  0  0  0
    3.0259    1.7515    0.0000 S   0  0  0  0  0  0  0  0  0  0  0  0
    3.4381    0.2022    0.0000 C   0  0  0  0  0  0  0  0  0  0  0  0
    1.2101    1.4807    0.0000 N   0  0  0  0  0  0  0  0  0  0  0  0
    3.8133    1.1184    0.0000 C   0  0  0  0  0  0  0  0  0  0  0  0
    0.4769    0.7934    0.0000 C   0  0  0  0  0  0  0  0  0  0  0  0
   -2.4968    2.7385    0.0000 N   0  0  0  0  0  0  0  0  0  0  0  0
    1.8307   -0.5518    0.0000 C   0  0  0  0  0  0  0  0  0  0  0  0
   -3.7630    1.5515    0.0000 C   0  0  0  0  0  0  0  0  0  0  0  0
    1.2267   -1.3266    0.0000 N   0  0  0  0  0  0  0  0  0  0  0  0
   -3.4713    2.5095    0.0000 C   0  0  0  0  0  0  0  0  0  0  0  0
    0.7060   -0.1853    0.0000 O   0  0  0  0  0  0  0  0  0  0  0  0
   -3.1051   -2.7385    0.0000 C   0  0  0  0  0  0  0  0  0  0  0  0
    4.2254   -0.4352    0.0000 C   0  0  0  0  0  0  0  0  0  0  0  0
    4.8253    1.0643    0.0000 C   0  0  0  0  0  0  0  0  0  0  0  0
   -5.0584    0.1103    0.0000 C   0  0  0  0  0  0  0  0  0  0  0  0
   -1.7513   -0.8642    0.0000 C   0  0  0  0  0  0  0  0  0  0  0  0
    5.0584    0.1103    0.0000 C   0  0  0  0  0  0  0  0  0  0  0  0
  2  3  1  0
  1  3  1  0
  4 16  1  0
  1  5  1  0
  4  6  2  0
  5  7  2  0
  7  9  1  0
  1  8  1  0
  8  9  2  0
 10 12  2  0
 10 11  1  0
 11 13  1  0
  2 12  1  0
  2 13  2  0
  4 14  1  0
  6 15  1  0
 16 18  1  0
 14 17  1  0
 15 17  2  0
  7 18  1  0
  8 19  1  0
  6 20  1  0
  3 21  2  0
 21 23  1  0
 20 22  3  0
 19 23  2  0
 18 24  2  0
 11 25  1  0
 15 26  1  0
 17 27  1  0
 12 28  1  0
 13 29  1  0
 27 30  1  0
 26 30  1  0
M  END
>  <IDNUMBER>  (790) 
Y501-2728

>  <available>  (790) 
6

>  <H_acceptor>  (790) 
6

>  <H_donor>  (790) 
1

>  <B_rotN>  (790) 
5

>  <N_O>  (790) 
8

>  <logP>  (790) 
2.0321

>  <logD>  (790) 
-0.2451

>  <logSw>  (790) 
-2.8949

>  <PSA>  (790) 
73.897

>  <pKa_ma>  (790) 
5.1251

>  <pKa_mb>  (790) 
3.8634

>  <N_Chirals>  (790) 
0

>  <Name>  (790) 
N-(3-cyano-5,6-dihydro-4H-cyclopenta[b]thiophen-2-yl)-7-(1,3,5-trimethyl-1H-pyrazol-4-yl)pyrazolo[1,5-a]pyrimidine-2-carboxamide

>  <Smile>  (790) 
Cc(n(C)nc1C)c1-c1ccnc2cc(C(Nc(sc3c4CCC3)c4C#N)=O)nn12

>  <Color>  (790) 
BROWN

>  <Collection>  (790) 
DC

>  <InChI>  (790) 
InChI=1S/C21H19N7OS/c1-11-19(12(2)27(3)25-11)16-7-8-23-18-9-15(26-28(16)18)20(29)24-21-14(10-22)13-5-4-6-17(13)30-21/h7-9H,4-6H2,1-3H3,(H,24,29)

>  <InChI Key>  (790) 
AUKHSOVUQBRDPH-UHFFFAOYSA-N

>  <PERCENTSP3>  (790) 
28.57

>  <Link>  (790) 
https://www.chemdiv.com/catalog/screening-compounds/compound-Y501-2728/

>  <MFCDNUMBER>  (790) 
MFCD08557601

>  <STEREO>  (790) 
ACHIRAL

>  <State>  (790) 
Solid

>  <Similarity score>  (790) 
0.19

$$$$
3-bromo-N-(3-cyano-6-methyl-4,5,6,7-tetrahydro-1-benzothiophen-2-yl)-6-(4H-1,2,4
     RDKit          2D

 27 30  0  0  0  0  0  0  0  0999 V2000
    1.3145   -0.3353    0.0000 C   0  0  0  0  0  0  0  0  0  0  0  0
    1.6269    0.6188    0.0000 C   0  0  0  0  0  0  0  0  0  0  0  0
    2.6269    0.6188    0.0000 C   0  0  0  0  0  0  0  0  0  0  0  0
    2.9351   -0.3311    0.0000 C   0  0  0  0  0  0  0  0  0  0  0  0
   -1.3687   -0.6436    0.0000 C   0  0  0  0  0  0  0  0  0  0  0  0
    2.1271   -0.9101    0.0000 S   0  0  0  0  0  0  0  0  0  0  0  0
   -2.2394   -1.1437    0.0000 N   0  0  0  0  0  0  0  0  0  0  0  0
   -3.9685   -1.1437    0.0000 N   0  0  0  0  0  0  0  0  0  0  0  0
   -0.5021   -1.1437    0.0000 C   0  0  0  0  0  0  0  0  0  0  0  0
    0.3604   -0.6395    0.0000 N   0  0  0  0  0  0  0  0  0  0  0  0
   -3.1020   -0.6436    0.0000 C   0  0  0  0  0  0  0  0  0  0  0  0
   -5.0560   -2.3438    0.0000 N   0  0  0  0  0  0  0  0  0  0  0  0
   -5.5560   -1.4770    0.0000 N   0  0  0  0  0  0  0  0  0  0  0  0
    1.0395    1.4355    0.0000 C   0  0  0  0  0  0  0  0  0  0  0  0
   -4.8853   -0.7353    0.0000 C   0  0  0  0  0  0  0  0  0  0  0  0
   -4.0771   -2.1394    0.0000 C   0  0  0  0  0  0  0  0  0  0  0  0
    1.4479    2.3438    0.0000 N   0  0  0  0  0  0  0  0  0  0  0  0
    3.2852    1.3604    0.0000 C   0  0  0  0  0  0  0  0  0  0  0  0
   -1.3687    0.3604    0.0000 C   0  0  0  0  0  0  0  0  0  0  0  0
    3.9060   -0.5311    0.0000 C   0  0  0  0  0  0  0  0  0  0  0  0
   -0.5021   -2.1436    0.0000 O   0  0  0  0  0  0  0  0  0  0  0  0
   -3.1020    0.3604    0.0000 C   0  0  0  0  0  0  0  0  0  0  0  0
   -2.2394    0.8605    0.0000 C   0  0  0  0  0  0  0  0  0  0  0  0
    4.2686    1.1647    0.0000 C   0  0  0  0  0  0  0  0  0  0  0  0
   -0.5061    0.8647    0.0000 Br  0  0  0  0  0  0  0  0  0  0  0  0
    4.5809    0.2104    0.0000 C   0  0  0  0  0  0  0  0  0  0  0  0
    5.5560    0.0023    0.0000 C   0  0  0  0  0  0  0  0  0  0  0  0
  1  2  2  0
  2  3  1  0
  4  6  1  0
  3  4  2  0
  5  9  1  0
  1  6  1  0
  5  7  2  0
  8 11  1  0
  9 10  1  0
  1 10  1  0
  7 11  1  0
 12 16  2  0
 13 15  2  0
 12 13  1  0
  2 14  1  0
  8 15  1  0
  8 16  1  0
 14 17  3  0
  3 18  1  0
  5 19  1  0
  4 20  1  0
  9 21  2  0
 22 23  1  0
 11 22  2  0
 19 23  2  0
 18 24  1  0
 24 26  1  0
 19 25  1  0
 20 26  1  0
 26 27  1  0
M  END
>  <IDNUMBER>  (791) 
J015-0225

>  <available>  (791) 
76

>  <H_acceptor>  (791) 
6

>  <H_donor>  (791) 
1

>  <B_rotN>  (791) 
5

>  <N_O>  (791) 
7

>  <logP>  (791) 
3.8892

>  <logD>  (791) 
0.3323

>  <logSw>  (791) 
-4.3333

>  <PSA>  (791) 
74.982

>  <pKa_ma>  (791) 
3.8432

>  <pKa_mb>  (791) 
1.2706

>  <N_Chirals>  (791) 
1

>  <Name>  (791) 
3-bromo-N-(3-cyano-6-methyl-4,5,6,7-tetrahydro-1-benzothiophen-2-yl)-6-(4H-1,2,4-triazol-4-yl)pyridine-2-carboxamide

>  <Smile>  (791) 
CC(CC1)Cc2c1c(C#N)c(NC(c(nc(cc1)-n3cnnc3)c1Br)=O)s2

>  <Color>  (791) 
YELLOW

>  <Collection>  (791) 
NC

>  <InChI>  (791) 
InChI=1S/C18H15BrN6OS/c1-10-2-3-11-12(7-20)18(27-14(11)6-10)24-17(26)16-13(19)4-5-15(23-16)25-8-21-22-9-25/h4-5,8-10H,2-3,6H2,1H3,(H,24,26)/t10-/m1/s1

>  <InChI Key>  (791) 
JRWLUCUNKGZYHY-SNVBAGLBSA-N

>  <PERCENTSP3>  (791) 
27.8

>  <Link>  (791) 
https://www.chemdiv.com/catalog/screening-compounds/compound-J015-0225/

>  <MFCDNUMBER>  (791) 
MFCD27217838

>  <CLNUMBER>  (791) 
CL8311

>  <STEREO>  (791) 
RACEMIC MIXTURE

>  <State>  (791) 
Solid

>  <Similarity score>  (791) 
0.19

$$$$
N-(6-tert-butyl-3-cyano-4,5,6,7-tetrahydro-1-benzothiophen-2-yl)-5-(thiophen-2-y
     RDKit          2D

 36 40  0  0  0  0  0  0  0  0999 V2000
    2.5717   -0.0312    0.0000 N   0  0  0  0  0  0  0  0  0  0  0  0
    3.4929    0.3937    0.0000 C   0  0  0  0  0  0  0  0  0  0  0  0
    2.4966   -1.0318    0.0000 C   0  0  0  0  0  0  0  0  0  0  0  0
   -1.5463    0.4815    0.0000 C   0  0  0  0  0  0  0  0  0  0  0  0
    1.6798    0.3815    0.0000 N   0  0  0  0  0  0  0  0  0  0  0  0
   -2.1131    1.2775    0.0000 C   0  0  0  0  0  0  0  0  0  0  0  0
    1.0046   -0.3939    0.0000 C   0  0  0  0  0  0  0  0  0  0  0  0
    1.5006   -1.2359    0.0000 C   0  0  0  0  0  0  0  0  0  0  0  0
    3.3010   -1.6108    0.0000 N   0  0  0  0  0  0  0  0  0  0  0  0
    4.3097   -0.1853    0.0000 C   0  0  0  0  0  0  0  0  0  0  0  0
   -3.0761   -0.0312    0.0000 C   0  0  0  0  0  0  0  0  0  0  0  0
   -3.0761    0.9605    0.0000 C   0  0  0  0  0  0  0  0  0  0  0  0
   -2.1131   -0.3396    0.0000 S   0  0  0  0  0  0  0  0  0  0  0  0
    4.2097   -1.1983    0.0000 C   0  0  0  0  0  0  0  0  0  0  0  0
    3.5845    1.4024    0.0000 C   0  0  0  0  0  0  0  0  0  0  0  0
   -0.5335    0.4815    0.0000 N   0  0  0  0  0  0  0  0  0  0  0  0
   -0.0333   -0.3939    0.0000 C   0  0  0  0  0  0  0  0  0  0  0  0
    5.0351   -1.7696    0.0000 C   0  0  0  0  0  0  0  0  0  0  0  0
   -1.7923    2.1943    0.0000 C   0  0  0  0  0  0  0  0  0  0  0  0
   -3.9305   -0.5358    0.0000 C   0  0  0  0  0  0  0  0  0  0  0  0
   -1.4630    3.1030    0.0000 N   0  0  0  0  0  0  0  0  0  0  0  0
   -3.9305    1.4651    0.0000 C   0  0  0  0  0  0  0  0  0  0  0  0
    4.9975   -2.7532    0.0000 S   0  0  0  0  0  0  0  0  0  0  0  0
   -4.8100   -0.0312    0.0000 C   0  0  0  0  0  0  0  0  0  0  0  0
   -5.6811   -0.5358    0.0000 C   0  0  0  0  0  0  0  0  0  0  0  0
   -0.5335   -1.2359    0.0000 O   0  0  0  0  0  0  0  0  0  0  0  0
    5.9811   -1.5110    0.0000 C   0  0  0  0  0  0  0  0  0  0  0  0
    5.9311   -3.1030    0.0000 C   0  0  0  0  0  0  0  0  0  0  0  0
   -4.8100    0.9605    0.0000 C   0  0  0  0  0  0  0  0  0  0  0  0
    6.5314   -2.3362    0.0000 C   0  0  0  0  0  0  0  0  0  0  0  0
    2.5717    1.4983    0.0000 F   0  0  0  0  0  0  0  0  0  0  0  0
    4.5973    1.3151    0.0000 F   0  0  0  0  0  0  0  0  0  0  0  0
    3.6761    2.4154    0.0000 F   0  0  0  0  0  0  0  0  0  0  0  0
   -5.1767   -1.4024    0.0000 C   0  0  0  0  0  0  0  0  0  0  0  0
   -6.1813    0.3396    0.0000 C   0  0  0  0  0  0  0  0  0  0  0  0
   -6.5314   -1.0318    0.0000 C   0  0  0  0  0  0  0  0  0  0  0  0
  1  2  1  0
  1  3  1  0
  4 16  1  0
  1  5  1  0
  4  6  2  0
  5  7  2  0
  7  8  1  0
  3  8  2  0
  3  9  1  0
  2 10  2  0
 11 13  1  0
  6 12  1  0
 11 12  2  0
  4 13  1  0
  9 14  2  0
 10 14  1  0
  2 15  1  0
 16 17  1  0
  7 17  1  0
 14 18  1  0
  6 19  1  0
 11 20  1  0
 19 21  3  0
 12 22  1  0
 18 23  1  0
 20 24  1  0
 24 25  1  0
 17 26  2  0
 18 27  2  0
 23 28  1  0
 28 30  2  0
 22 29  1  0
 24 29  1  0
 27 30  1  0
 15 31  1  0
 15 32  1  0
 15 33  1  0
 25 34  1  0
 25 35  1  0
 25 36  1  0
M  END
>  <IDNUMBER>  (792) 
Y500-0421

>  <available>  (792) 
18

>  <H_acceptor>  (792) 
5

>  <H_donor>  (792) 
1

>  <B_rotN>  (792) 
7

>  <N_O>  (792) 
6

>  <logP>  (792) 
6.8668

>  <logD>  (792) 
5.2408

>  <logSw>  (792) 
-5.6465

>  <PSA>  (792) 
59.278

>  <pKa_ma>  (792) 
5.7844

>  <pKa_mb>  (792) 
0.7525

>  <N_Chirals>  (792) 
1

>  <Name>  (792) 
N-(6-tert-butyl-3-cyano-4,5,6,7-tetrahydro-1-benzothiophen-2-yl)-5-(thiophen-2-yl)-7-(trifluoromethyl)pyrazolo[1,5-a]pyrimidine-2-carboxamide

>  <Smile>  (792) 
CC(C)(C)C(CC1)Cc2c1c(C#N)c(NC(c1nn3c(C(F)(F)F)cc(-c4cccs4)nc3c1)=O)s2

>  <Color>  (792) 
YELLOW

>  <Collection>  (792) 
DC

>  <InChI>  (792) 
InChI=1S/C25H22F3N5OS2/c1-24(2,3)13-6-7-14-15(12-29)23(36-19(14)9-13)31-22(34)17-11-21-30-16(18-5-4-8-35-18)10-20(25(26,27)28)33(21)32-17/h4-5,8,10-11,13H,6-7,9H2,1-3H3,(H,31,34)/t13-/m1/s1

>  <InChI Key>  (792) 
VEMOBZAPPNEBJZ-CYBMUJFWSA-N

>  <PERCENTSP3>  (792) 
36

>  <Link>  (792) 
https://www.chemdiv.com/catalog/screening-compounds/compound-Y500-0421/

>  <MFCDNUMBER>  (792) 
MFCD01451921

>  <STEREO>  (792) 
RACEMIC MIXTURE

>  <State>  (792) 
Solid

>  <Similarity score>  (792) 
0.19

$$$$
N-(3-cyano-4,5,6,7-tetrahydro-1-benzothiophen-2-yl)-5-(3,4-dichlorophenyl)-7-(tr
     RDKit          2D

 35 39  0  0  0  0  0  0  0  0999 V2000
    1.0458   -0.0486    0.0000 N   0  0  0  0  0  0  0  0  0  0  0  0
    1.9216    0.4439    0.0000 C   0  0  0  0  0  0  0  0  0  0  0  0
    1.0458   -1.0703    0.0000 C   0  0  0  0  0  0  0  0  0  0  0  0
   -2.9676    0.2980    0.0000 C   0  0  0  0  0  0  0  0  0  0  0  0
    0.0974    0.2431    0.0000 N   0  0  0  0  0  0  0  0  0  0  0  0
   -3.4722    1.1735    0.0000 C   0  0  0  0  0  0  0  0  0  0  0  0
   -0.4622   -0.5778    0.0000 C   0  0  0  0  0  0  0  0  0  0  0  0
    0.0974   -1.3620    0.0000 C   0  0  0  0  0  0  0  0  0  0  0  0
    1.9216   -1.5750    0.0000 N   0  0  0  0  0  0  0  0  0  0  0  0
    2.7971   -0.0486    0.0000 C   0  0  0  0  0  0  0  0  0  0  0  0
   -3.6423   -0.4316    0.0000 S   0  0  0  0  0  0  0  0  0  0  0  0
   -4.4267    0.9365    0.0000 C   0  0  0  0  0  0  0  0  0  0  0  0
    2.7971   -1.0703    0.0000 C   0  0  0  0  0  0  0  0  0  0  0  0
    1.9216    1.4351    0.0000 C   0  0  0  0  0  0  0  0  0  0  0  0
   -1.9760    0.2980    0.0000 N   0  0  0  0  0  0  0  0  0  0  0  0
   -4.5484   -0.0243    0.0000 C   0  0  0  0  0  0  0  0  0  0  0  0
   -1.4837   -0.5778    0.0000 C   0  0  0  0  0  0  0  0  0  0  0  0
   -3.0587    2.1040    0.0000 C   0  0  0  0  0  0  0  0  0  0  0  0
    3.6425   -1.5750    0.0000 C   0  0  0  0  0  0  0  0  0  0  0  0
   -2.6511    3.0406    0.0000 N   0  0  0  0  0  0  0  0  0  0  0  0
    5.3938   -1.5750    0.0000 C   0  0  0  0  0  0  0  0  0  0  0  0
    4.5180   -1.0703    0.0000 C   0  0  0  0  0  0  0  0  0  0  0  0
    5.3938   -2.5479    0.0000 C   0  0  0  0  0  0  0  0  0  0  0  0
   -1.9760   -1.4533    0.0000 O   0  0  0  0  0  0  0  0  0  0  0  0
    3.6425   -2.5479    0.0000 C   0  0  0  0  0  0  0  0  0  0  0  0
    2.9129    1.4351    0.0000 F   0  0  0  0  0  0  0  0  0  0  0  0
    0.8998    1.4351    0.0000 F   0  0  0  0  0  0  0  0  0  0  0  0
    1.9216    2.4568    0.0000 F   0  0  0  0  0  0  0  0  0  0  0  0
    4.5180   -3.0406    0.0000 C   0  0  0  0  0  0  0  0  0  0  0  0
    6.2693   -1.0703    0.0000 Cl  0  0  0  0  0  0  0  0  0  0  0  0
    6.2693   -3.0406    0.0000 Cl  0  0  0  0  0  0  0  0  0  0  0  0
   -5.2478    1.5203    0.0000 C   0  0  0  0  0  0  0  0  0  0  0  0
   -5.4788   -0.4316    0.0000 C   0  0  0  0  0  0  0  0  0  0  0  0
   -6.1537    1.1189    0.0000 C   0  0  0  0  0  0  0  0  0  0  0  0
   -6.2693    0.1520    0.0000 C   0  0  0  0  0  0  0  0  0  0  0  0
  1  2  1  0
  1  3  1  0
  4 15  1  0
  1  5  1  0
  4  6  2  0
  5  7  2  0
  3  8  2  0
  7  8  1  0
  3  9  1  0
  2 10  2  0
  4 11  1  0
  6 12  1  0
 12 16  2  0
  9 13  2  0
 10 13  1  0
  2 14  1  0
 15 17  1  0
 11 16  1  0
  7 17  1  0
  6 18  1  0
 13 19  1  0
 18 20  3  0
 21 22  1  0
 19 22  2  0
 23 29  1  0
 21 23  2  0
 17 24  2  0
 19 25  1  0
 14 26  1  0
 14 27  1  0
 14 28  1  0
 25 29  2  0
 21 30  1  0
 23 31  1  0
 12 32  1  0
 16 33  1  0
 32 34  1  0
 34 35  1  0
 33 35  1  0
M  END
>  <IDNUMBER>  (793) 
K061-0993

>  <available>  (793) 
91

>  <H_acceptor>  (793) 
5

>  <H_donor>  (793) 
1

>  <B_rotN>  (793) 
6

>  <N_O>  (793) 
6

>  <logP>  (793) 
6.8259

>  <logD>  (793) 
5.1999

>  <logSw>  (793) 
-6.8963

>  <PSA>  (793) 
58.26

>  <pKa_ma>  (793) 
5.7844

>  <pKa_mb>  (793) 
1.5188

>  <N_Chirals>  (793) 
0

>  <Name>  (793) 
N-(3-cyano-4,5,6,7-tetrahydro-1-benzothiophen-2-yl)-5-(3,4-dichlorophenyl)-7-(trifluoromethyl)pyrazolo[1,5-a]pyrimidine-2-carboxamide

>  <Smile>  (793) 
N#Cc1c(NC(c2nn3c(C(F)(F)F)cc(-c(cc4)cc(Cl)c4Cl)nc3c2)=O)sc2c1CCCC2

>  <Color>  (793) 
YELLOW

>  <Collection>  (793) 
DC

>  <InChI>  (793) 
InChI=1S/C23H14Cl2F3N5OS/c24-14-6-5-11(7-15(14)25)16-8-19(23(26,27)28)33-20(30-16)9-17(32-33)21(34)31-22-13(10-29)12-3-1-2-4-18(12)35-22/h5-9H,1-4H2,(H,31,34)

>  <InChI Key>  (793) 
DYSOLZAYGRGFJE-UHFFFAOYSA-N

>  <PERCENTSP3>  (793) 
21.7

>  <Link>  (793) 
https://www.chemdiv.com/catalog/screening-compounds/compound-K061-0993/

>  <MFCDNUMBER>  (793) 
MFCD01445193

>  <CLNUMBER>  (793) 
CL1652

>  <STEREO>  (793) 
ACHIRAL

>  <State>  (793) 
Solid

>  <Similarity score>  (793) 
0.19

$$$$
2-[2-(4-amino-1,2,5-oxadiazol-3-yl)-1H-benzimidazol-1-yl]-N-(3-cyano-6-methyl-4,
     RDKit          2D

 31 35  0  0  0  0  0  0  0  0999 V2000
    2.3808    0.1042    0.0000 C   0  0  0  0  0  0  0  0  0  0  0  0
    1.6517    0.8041    0.0000 N   0  0  0  0  0  0  0  0  0  0  0  0
   -1.5727    0.4290    0.0000 C   0  0  0  0  0  0  0  0  0  0  0  0
   -2.5808    0.4666    0.0000 C   0  0  0  0  0  0  0  0  0  0  0  0
    2.2434   -0.8915    0.0000 C   0  0  0  0  0  0  0  0  0  0  0  0
    3.2681    0.5791    0.0000 N   0  0  0  0  0  0  0  0  0  0  0  0
   -2.9183   -0.4708    0.0000 C   0  0  0  0  0  0  0  0  0  0  0  0
   -2.1308   -1.0832    0.0000 C   0  0  0  0  0  0  0  0  0  0  0  0
   -1.3061   -0.5290    0.0000 S   0  0  0  0  0  0  0  0  0  0  0  0
    2.9682   -1.5831    0.0000 C   0  0  0  0  0  0  0  0  0  0  0  0
    2.5266   -2.4829    0.0000 N   0  0  0  0  0  0  0  0  0  0  0  0
   -0.9603    1.2082    0.0000 N   0  0  0  0  0  0  0  0  0  0  0  0
    1.3560   -1.3581    0.0000 N   0  0  0  0  0  0  0  0  0  0  0  0
    2.0934    1.7038    0.0000 C   0  0  0  0  0  0  0  0  0  0  0  0
    1.5309   -2.3454    0.0000 O   0  0  0  0  0  0  0  0  0  0  0  0
    3.0889    1.5664    0.0000 C   0  0  0  0  0  0  0  0  0  0  0  0
   -3.1349    1.2915    0.0000 C   0  0  0  0  0  0  0  0  0  0  0  0
    0.0187    1.3831    0.0000 C   0  0  0  0  0  0  0  0  0  0  0  0
    0.6686    0.6208    0.0000 C   0  0  0  0  0  0  0  0  0  0  0  0
   -2.7433    2.2205    0.0000 N   0  0  0  0  0  0  0  0  0  0  0  0
   -3.8305   -0.8457    0.0000 C   0  0  0  0  0  0  0  0  0  0  0  0
   -2.2684   -2.0580    0.0000 C   0  0  0  0  0  0  0  0  0  0  0  0
    0.3687    2.3287    0.0000 O   0  0  0  0  0  0  0  0  0  0  0  0
    3.9555   -1.4082    0.0000 N   0  0  0  0  0  0  0  0  0  0  0  0
   -3.9555   -1.8288    0.0000 C   0  0  0  0  0  0  0  0  0  0  0  0
   -3.1932   -2.4412    0.0000 C   0  0  0  0  0  0  0  0  0  0  0  0
    1.7184    2.6412    0.0000 C   0  0  0  0  0  0  0  0  0  0  0  0
    3.7056    2.3663    0.0000 C   0  0  0  0  0  0  0  0  0  0  0  0
   -3.3307   -3.4285    0.0000 C   0  0  0  0  0  0  0  0  0  0  0  0
    2.3308    3.4285    0.0000 C   0  0  0  0  0  0  0  0  0  0  0  0
    3.3307    3.2910    0.0000 C   0  0  0  0  0  0  0  0  0  0  0  0
  1  2  1  0
  3 12  1  0
  3  4  2  0
  1  5  1  0
  1  6  2  0
  4  7  1  0
  8  9  1  0
  7  8  2  0
  3  9  1  0
  5 10  1  0
 10 11  2  0
 12 18  1  0
  5 13  2  0
  2 14  1  0
 13 15  1  0
 11 15  1  0
  6 16  1  0
 14 16  2  0
  4 17  1  0
 18 19  1  0
  2 19  1  0
 17 20  3  0
  7 21  1  0
  8 22  1  0
 18 23  2  0
 10 24  1  0
 21 25  1  0
 25 26  1  0
 22 26  1  0
 26 29  1  0
 14 27  1  0
 16 28  1  0
 27 30  2  0
 28 31  2  0
 30 31  1  0
M  END
>  <IDNUMBER>  (794) 
8016-2378

>  <available>  (794) 
15

>  <H_acceptor>  (794) 
7

>  <H_donor>  (794) 
3

>  <B_rotN>  (794) 
6

>  <N_O>  (794) 
9

>  <logP>  (794) 
4.2503

>  <logD>  (794) 
2.8477

>  <logSw>  (794) 
-4.4837

>  <PSA>  (794) 
106.901

>  <pKa_ma>  (794) 
6.0149

>  <pKa_mb>  (794) 
3.9643

>  <N_Chirals>  (794) 
1

>  <Name>  (794) 
2-[2-(4-amino-1,2,5-oxadiazol-3-yl)-1H-benzimidazol-1-yl]-N-(3-cyano-6-methyl-4,5,6,7-tetrahydro-1-benzothiophen-2-yl)acetamide

>  <Smile>  (794) 
CC(CC1)Cc2c1c(C#N)c(NC(Cn1c(-c3nonc3N)nc3c1cccc3)=O)s2

>  <Color>  (794) 
BROWN

>  <Collection>  (794) 
DC

>  <InChI>  (794) 
InChI=1S/C21H19N7O2S/c1-11-6-7-12-13(9-22)21(31-16(12)8-11)25-17(29)10-28-15-5-3-2-4-14(15)24-20(28)18-19(23)27-30-26-18/h2-5,11H,6-8,10H2,1H3,(H2,23,27)(H,25,29)/t11-/m1/s1

>  <InChI Key>  (794) 
YYKQUXZJLHAVCS-LLVKDONJSA-N

>  <PERCENTSP3>  (794) 
28.57

>  <Link>  (794) 
https://www.chemdiv.com/catalog/screening-compounds/compound-8016-2378/

>  <MFCDNUMBER>  (794) 
MFCD05854943

>  <CLNUMBER>  (794) 
CL2888

>  <STEREO>  (794) 
RACEMIC MIXTURE

>  <State>  (794) 
Solid

>  <Similarity score>  (794) 
0.19

$$$$
N-(3-cyano-5,6-dihydro-4H-cyclopenta[b]thiophen-2-yl)-7-(difluoromethyl)-5-methy
     RDKit          2D

 26 29  0  0  0  0  0  0  0  0999 V2000
    2.3066   -1.0897    0.0000 C   0  0  0  0  0  0  0  0  0  0  0  0
    2.0105   -0.1147    0.0000 N   0  0  0  0  0  0  0  0  0  0  0  0
    1.4939   -1.6731    0.0000 N   0  0  0  0  0  0  0  0  0  0  0  0
    0.6813   -1.0565    0.0000 C   0  0  0  0  0  0  0  0  0  0  0  0
    1.0063   -0.1147    0.0000 N   0  0  0  0  0  0  0  0  0  0  0  0
    2.6940    0.6022    0.0000 C   0  0  0  0  0  0  0  0  0  0  0  0
   -1.9482   -0.8939    0.0000 C   0  0  0  0  0  0  0  0  0  0  0  0
   -2.6315   -0.1772    0.0000 C   0  0  0  0  0  0  0  0  0  0  0  0
   -2.3689   -1.7689    0.0000 S   0  0  0  0  0  0  0  0  0  0  0  0
    3.2774   -1.2814    0.0000 N   0  0  0  0  0  0  0  0  0  0  0  0
   -3.5065   -0.6313    0.0000 C   0  0  0  0  0  0  0  0  0  0  0  0
   -1.0062   -0.6313    0.0000 N   0  0  0  0  0  0  0  0  0  0  0  0
   -0.2939   -1.3480    0.0000 C   0  0  0  0  0  0  0  0  0  0  0  0
   -3.3775   -1.6065    0.0000 C   0  0  0  0  0  0  0  0  0  0  0  0
    3.6358    0.3728    0.0000 C   0  0  0  0  0  0  0  0  0  0  0  0
   -2.4982    0.8271    0.0000 C   0  0  0  0  0  0  0  0  0  0  0  0
    3.9607   -0.5354    0.0000 C   0  0  0  0  0  0  0  0  0  0  0  0
    2.4357    1.6063    0.0000 C   0  0  0  0  0  0  0  0  0  0  0  0
   -2.3689    1.8357    0.0000 N   0  0  0  0  0  0  0  0  0  0  0  0
   -0.5522   -2.2898    0.0000 O   0  0  0  0  0  0  0  0  0  0  0  0
    3.1481    2.2898    0.0000 F   0  0  0  0  0  0  0  0  0  0  0  0
    1.4606    1.8980    0.0000 F   0  0  0  0  0  0  0  0  0  0  0  0
   -4.5109   -0.4397    0.0000 C   0  0  0  0  0  0  0  0  0  0  0  0
   -4.3025   -2.0273    0.0000 C   0  0  0  0  0  0  0  0  0  0  0  0
   -4.9650   -1.3146    0.0000 C   0  0  0  0  0  0  0  0  0  0  0  0
    4.9650   -0.7648    0.0000 C   0  0  0  0  0  0  0  0  0  0  0  0
  1  2  1  0
  1  3  2  0
  3  4  1  0
  4  5  2  0
  2  5  1  0
  2  6  1  0
  7 12  1  0
  7  8  2  0
  7  9  1  0
  1 10  1  0
  8 11  1  0
 12 13  1  0
  4 13  1  0
  9 14  1  0
 11 14  2  0
 15 17  1  0
  6 15  2  0
  8 16  1  0
 10 17  2  0
  6 18  1  0
 16 19  3  0
 13 20  2  0
 18 21  1  0
 18 22  1  0
 11 23  1  0
 23 25  1  0
 14 24  1  0
 24 25  1  0
 17 26  1  0
M  END
>  <IDNUMBER>  (795) 
Y500-7655

>  <available>  (795) 
22

>  <H_acceptor>  (795) 
6

>  <H_donor>  (795) 
1

>  <B_rotN>  (795) 
5

>  <N_O>  (795) 
7

>  <logP>  (795) 
2.1039

>  <logD>  (795) 
0.2395

>  <logSw>  (795) 
-2.7387

>  <PSA>  (795) 
70.087

>  <pKa_ma>  (795) 
5.5416

>  <pKa_mb>  (795) 
-0.1968

>  <N_Chirals>  (795) 
0

>  <Name>  (795) 
N-(3-cyano-5,6-dihydro-4H-cyclopenta[b]thiophen-2-yl)-7-(difluoromethyl)-5-methyl[1,2,4]triazolo[1,5-a]pyrimidine-2-carboxamide

>  <Smile>  (795) 
Cc1nc2nc(C(Nc(sc3c4CCC3)c4C#N)=O)nn2c(C(F)F)c1

>  <Color>  (795) 
BROWN

>  <Collection>  (795) 
DC

>  <InChI>  (795) 
InChI=1S/C16H12F2N6OS/c1-7-5-10(12(17)18)24-16(20-7)21-13(23-24)14(25)22-15-9(6-19)8-3-2-4-11(8)26-15/h5,12H,2-4H2,1H3,(H,22,25)

>  <InChI Key>  (795) 
NVAZKDAOFALFAP-UHFFFAOYSA-N

>  <PERCENTSP3>  (795) 
31.25

>  <Link>  (795) 
https://www.chemdiv.com/catalog/screening-compounds/compound-Y500-7655/

>  <MFCDNUMBER>  (795) 
MFCD02175703

>  <STEREO>  (795) 
ACHIRAL

>  <State>  (795) 
Solid

>  <Similarity score>  (795) 
0.19

$$$$
N-(3-carbamoyl-4,5,6,7-tetrahydro-1-benzothiophen-2-yl)-1-(4-ethoxyphenyl)-4-oxo
     RDKit          2D

 32 35  0  0  0  0  0  0  0  0999 V2000
   -2.0837   -0.8764    0.0000 C   0  0  0  0  0  0  0  0  0  0  0  0
   -2.6747   -0.0633    0.0000 C   0  0  0  0  0  0  0  0  0  0  0  0
    0.9017   -0.8818    0.0000 N   0  0  0  0  0  0  0  0  0  0  0  0
    0.4117   -1.7455    0.0000 C   0  0  0  0  0  0  0  0  0  0  0  0
   -2.6799   -1.6849    0.0000 S   0  0  0  0  0  0  0  0  0  0  0  0
    1.9022   -0.8818    0.0000 N   0  0  0  0  0  0  0  0  0  0  0  0
   -3.6194   -0.3665    0.0000 C   0  0  0  0  0  0  0  0  0  0  0  0
   -0.5835   -1.7557    0.0000 C   0  0  0  0  0  0  0  0  0  0  0  0
   -1.0837   -0.8818    0.0000 N   0  0  0  0  0  0  0  0  0  0  0  0
   -3.6295   -1.3666    0.0000 C   0  0  0  0  0  0  0  0  0  0  0  0
   -2.3618    0.8915    0.0000 C   0  0  0  0  0  0  0  0  0  0  0  0
    0.9119   -2.5941    0.0000 C   0  0  0  0  0  0  0  0  0  0  0  0
    1.9022   -2.5941    0.0000 C   0  0  0  0  0  0  0  0  0  0  0  0
    2.4021   -1.7405    0.0000 C   0  0  0  0  0  0  0  0  0  0  0  0
    2.3869   -0.0177    0.0000 C   0  0  0  0  0  0  0  0  0  0  0  0
   -1.1289   -2.6650    0.0000 O   0  0  0  0  0  0  0  0  0  0  0  0
   -3.0284    1.6340    0.0000 O   0  0  0  0  0  0  0  0  0  0  0  0
    0.4170   -3.4681    0.0000 O   0  0  0  0  0  0  0  0  0  0  0  0
    3.3822   -0.0177    0.0000 C   0  0  0  0  0  0  0  0  0  0  0  0
    1.8818    0.8460    0.0000 C   0  0  0  0  0  0  0  0  0  0  0  0
   -1.3864    1.0934    0.0000 N   0  0  0  0  0  0  0  0  0  0  0  0
    3.3720    1.7150    0.0000 C   0  0  0  0  0  0  0  0  0  0  0  0
   -4.4783    0.1338    0.0000 C   0  0  0  0  0  0  0  0  0  0  0  0
    2.3718    1.7097    0.0000 C   0  0  0  0  0  0  0  0  0  0  0  0
    3.8823    0.8460    0.0000 C   0  0  0  0  0  0  0  0  0  0  0  0
   -4.4933   -1.8615    0.0000 C   0  0  0  0  0  0  0  0  0  0  0  0
    3.8669    2.5888    0.0000 O   0  0  0  0  0  0  0  0  0  0  0  0
    4.8674    2.5938    0.0000 C   0  0  0  0  0  0  0  0  0  0  0  0
   -5.3472   -0.3514    0.0000 C   0  0  0  0  0  0  0  0  0  0  0  0
   -5.3574   -1.3514    0.0000 C   0  0  0  0  0  0  0  0  0  0  0  0
    5.3574    3.4681    0.0000 C   0  0  0  0  0  0  0  0  0  0  0  0
   -0.5835   -0.0177    0.0000 H   0  0  0  0  0  0  0  0  0  0  0  0
  1  2  2  0
  3  4  2  0
  4  8  1  0
  1  5  1  0
  3  6  1  0
  6 14  1  0
  2  7  1  0
  8  9  1  0
  1  9  1  0
  5 10  1  0
  7 10  2  0
  2 11  1  0
  4 12  1  0
 12 13  1  0
 13 14  2  0
  6 15  1  0
  8 16  2  0
 11 17  2  0
 12 18  2  0
 15 19  1  0
 15 20  2  0
 11 21  1  0
 22 24  2  0
 22 25  1  0
  7 23  1  0
 20 24  1  0
 19 25  2  0
 10 26  1  0
 22 27  1  0
 27 28  1  0
 23 29  1  0
 29 30  1  0
 26 30  1  0
 28 31  1  0
  9 32  1  0
M  END
>  <IDNUMBER>  (796) 
D223-0764

>  <available>  (796) 
35

>  <H_acceptor>  (796) 
8

>  <H_donor>  (796) 
3

>  <B_rotN>  (796) 
7

>  <N_O>  (796) 
8

>  <logP>  (796) 
2.2029

>  <logD>  (796) 
-1.2395

>  <logSw>  (796) 
-2.8413

>  <PSA>  (796) 
90.637

>  <pKa_ma>  (796) 
3.9578

>  <pKa_mb>  (796) 
-3.4141

>  <N_Chirals>  (796) 
0

>  <Name>  (796) 
N-(3-carbamoyl-4,5,6,7-tetrahydro-1-benzothiophen-2-yl)-1-(4-ethoxyphenyl)-4-oxo-1,4-dihydropyridazine-3-carboxamide

>  <Smile>  (796) 
CCOc(cc1)ccc1N(C=C1)N=C(C(Nc2c(C(N)=O)c(CCCC3)c3s2)=O)C1=O

>  <Color>  (796) 
BROWN

>  <Collection>  (796) 
DC

>  <InChI>  (796) 
InChI=1S/C22H22N4O4S/c1-2-30-14-9-7-13(8-10-14)26-12-11-16(27)19(25-26)21(29)24-22-18(20(23)28)15-5-3-4-6-17(15)31-22/h7-12H,2-6H2,1H3,(H2,23,28)(H,24,29)

>  <InChI Key>  (796) 
PLECXXNZQXENIH-UHFFFAOYSA-N

>  <PERCENTSP3>  (796) 
27.3

>  <Link>  (796) 
https://www.chemdiv.com/catalog/screening-compounds/compound-D223-0764/

>  <MFCDNUMBER>  (796) 
MFCD08545724

>  <CLNUMBER>  (796) 
CL6185

>  <STEREO>  (796) 
ACHIRAL

>  <State>  (796) 
Solid

>  <Similarity score>  (796) 
0.19

$$$$
N-[(3-cyano-5,6,7,8-tetrahydro-4H-cyclohepta[b]thiophen-2-yl)carbamothioyl]-5-me
     RDKit          2D

 30 33  0  0  0  0  0  0  0  0999 V2000
   -0.9445    1.2925    0.0000 C   0  0  0  0  0  0  0  0  0  0  0  0
   -1.4574    2.1557    0.0000 C   0  0  0  0  0  0  0  0  0  0  0  0
    3.1083   -0.3711    0.0000 C   0  0  0  0  0  0  0  0  0  0  0  0
    2.1036   -0.3962    0.0000 C   0  0  0  0  0  0  0  0  0  0  0  0
    4.6720   -0.8340    0.0000 N   0  0  0  0  0  0  0  0  0  0  0  0
   -1.6075    0.5420    0.0000 S   0  0  0  0  0  0  0  0  0  0  0  0
    3.7338   -1.1717    0.0000 C   0  0  0  0  0  0  0  0  0  0  0  0
   -2.4329    1.9221    0.0000 C   0  0  0  0  0  0  0  0  0  0  0  0
    0.0562    1.3049    0.0000 N   0  0  0  0  0  0  0  0  0  0  0  0
    1.5823    0.4545    0.0000 N   0  0  0  0  0  0  0  0  0  0  0  0
    0.5817    0.4419    0.0000 C   0  0  0  0  0  0  0  0  0  0  0  0
   -2.5246    0.9297    0.0000 C   0  0  0  0  0  0  0  0  0  0  0  0
    4.6428    0.1584    0.0000 O   0  0  0  0  0  0  0  0  0  0  0  0
    3.6837    0.4419    0.0000 C   0  0  0  0  0  0  0  0  0  0  0  0
   -1.0737    3.0772    0.0000 C   0  0  0  0  0  0  0  0  0  0  0  0
   -0.6817    3.9986    0.0000 N   0  0  0  0  0  0  0  0  0  0  0  0
    0.0895   -0.4295    0.0000 S   0  0  0  0  0  0  0  0  0  0  0  0
    1.6282   -1.2717    0.0000 O   0  0  0  0  0  0  0  0  0  0  0  0
    3.4168   -2.1098    0.0000 C   0  0  0  0  0  0  0  0  0  0  0  0
   -3.1708    2.6184    0.0000 C   0  0  0  0  0  0  0  0  0  0  0  0
   -3.3586    0.3711    0.0000 C   0  0  0  0  0  0  0  0  0  0  0  0
    3.3544    1.3969    0.0000 C   0  0  0  0  0  0  0  0  0  0  0  0
    2.4454   -2.3226    0.0000 C   0  0  0  0  0  0  0  0  0  0  0  0
    4.0924   -2.8562    0.0000 C   0  0  0  0  0  0  0  0  0  0  0  0
   -4.1592    2.4725    0.0000 C   0  0  0  0  0  0  0  0  0  0  0  0
   -4.3092    0.6839    0.0000 C   0  0  0  0  0  0  0  0  0  0  0  0
    3.7796   -3.7985    0.0000 C   0  0  0  0  0  0  0  0  0  0  0  0
    2.1452   -3.2730    0.0000 C   0  0  0  0  0  0  0  0  0  0  0  0
   -4.6720    1.6053    0.0000 C   0  0  0  0  0  0  0  0  0  0  0  0
    2.7958   -3.9986    0.0000 C   0  0  0  0  0  0  0  0  0  0  0  0
  1  2  2  0
  3  4  1  0
  4 10  1  0
  5  7  2  0
  1  6  1  0
  3  7  1  0
  2  8  1  0
  1  9  1  0
 10 11  1  0
  9 11  1  0
  6 12  1  0
  8 12  2  0
 13 14  1  0
  5 13  1  0
  3 14  2  0
  2 15  1  0
 15 16  3  0
 11 17  2  0
  4 18  2  0
  7 19  1  0
  8 20  1  0
 12 21  1  0
 14 22  1  0
 19 23  2  0
 19 24  1  0
 20 25  1  0
 21 26  1  0
 24 27  2  0
 23 28  1  0
 26 29  1  0
 25 29  1  0
 27 30  1  0
 28 30  2  0
M  END
>  <IDNUMBER>  (797) 
Y512-4165

>  <available>  (797) 
87

>  <H_acceptor>  (797) 
7

>  <H_donor>  (797) 
2

>  <B_rotN>  (797) 
7

>  <N_O>  (797) 
6

>  <logP>  (797) 
4.905

>  <logD>  (797) 
4.558

>  <logSw>  (797) 
-4.702

>  <PSA>  (797) 
72.3

>  <pKa_ma>  (797) 
7.313

>  <pKa_mb>  (797) 
-6.868

>  <N_Chirals>  (797) 
0

>  <Name>  (797) 
N-[(3-cyano-5,6,7,8-tetrahydro-4H-cyclohepta[b]thiophen-2-yl)carbamothioyl]-5-methyl-3-phenyl-1,2-oxazole-4-carboxamide

>  <Smile>  (797) 
c1(c(c2c(s1)CCCCC2)C#N)NC(NC(c1c(noc1C)c1ccccc1)=O)=S

>  <Color>  (797) 
ORANGE

>  <Collection>  (797) 
DC

>  <InChI>  (797) 
InChI=1S/C22H20N4O2S2/c1-13-18(19(26-28-13)14-8-4-2-5-9-14)20(27)24-22(29)25-21-16(12-23)15-10-6-3-7-11-17(15)30-21/h2,4-5,8-9H,3,6-7,10-11H2,1H3,(H2,24,25,27,29)

>  <InChI Key>  (797) 
MBGSVWZLCYMILA-UHFFFAOYSA-N

>  <PERCENTSP3>  (797) 
27.3

>  <Link>  (797) 
https://www.chemdiv.com/catalog/screening-compounds/compound-Y512-4165/

>  <MFCDNUMBER>  (797) 
MFCD03680033

>  <STEREO>  (797) 
ACHIRAL

>  <State>  (797) 
Solid

>  <Similarity score>  (797) 
0.19

$$$$
N-[(3-cyano-4,5,6,7,8,9-hexahydrocycloocta[b]thiophen-2-yl)carbamothioyl]-5-meth
     RDKit          2D

 31 34  0  0  0  0  0  0  0  0999 V2000
   -0.8146    1.2773    0.0000 C   0  0  0  0  0  0  0  0  0  0  0  0
   -1.3356    2.1231    0.0000 C   0  0  0  0  0  0  0  0  0  0  0  0
    3.2484   -0.3605    0.0000 C   0  0  0  0  0  0  0  0  0  0  0  0
    2.2400   -0.3647    0.0000 C   0  0  0  0  0  0  0  0  0  0  0  0
    4.7902   -0.7854    0.0000 N   0  0  0  0  0  0  0  0  0  0  0  0
   -1.4564    0.5272    0.0000 S   0  0  0  0  0  0  0  0  0  0  0  0
    3.8777   -1.1482    0.0000 C   0  0  0  0  0  0  0  0  0  0  0  0
   -2.3063    1.9064    0.0000 C   0  0  0  0  0  0  0  0  0  0  0  0
    0.1814    1.3148    0.0000 N   0  0  0  0  0  0  0  0  0  0  0  0
    1.7023    0.4813    0.0000 N   0  0  0  0  0  0  0  0  0  0  0  0
    0.7272    0.4521    0.0000 C   0  0  0  0  0  0  0  0  0  0  0  0
   -2.3691    0.9104    0.0000 C   0  0  0  0  0  0  0  0  0  0  0  0
    4.7610    0.2105    0.0000 O   0  0  0  0  0  0  0  0  0  0  0  0
    3.8193    0.4855    0.0000 C   0  0  0  0  0  0  0  0  0  0  0  0
   -0.9688    3.0734    0.0000 C   0  0  0  0  0  0  0  0  0  0  0  0
   -0.5730    3.9985    0.0000 N   0  0  0  0  0  0  0  0  0  0  0  0
    0.2397   -0.4229    0.0000 S   0  0  0  0  0  0  0  0  0  0  0  0
    1.7606   -1.2690    0.0000 O   0  0  0  0  0  0  0  0  0  0  0  0
    3.5819   -2.0773    0.0000 C   0  0  0  0  0  0  0  0  0  0  0  0
   -2.9734    2.6650    0.0000 C   0  0  0  0  0  0  0  0  0  0  0  0
   -3.1482    0.2439    0.0000 C   0  0  0  0  0  0  0  0  0  0  0  0
    3.4734    1.4356    0.0000 C   0  0  0  0  0  0  0  0  0  0  0  0
    2.6108   -2.3066    0.0000 C   0  0  0  0  0  0  0  0  0  0  0  0
    4.2610   -2.7900    0.0000 C   0  0  0  0  0  0  0  0  0  0  0  0
   -3.9691    2.7316    0.0000 C   0  0  0  0  0  0  0  0  0  0  0  0
   -4.1235    0.3313    0.0000 C   0  0  0  0  0  0  0  0  0  0  0  0
    3.9985   -3.7567    0.0000 C   0  0  0  0  0  0  0  0  0  0  0  0
    2.3357   -3.2734    0.0000 C   0  0  0  0  0  0  0  0  0  0  0  0
   -4.7902    1.0898    0.0000 C   0  0  0  0  0  0  0  0  0  0  0  0
    3.0026   -3.9985    0.0000 C   0  0  0  0  0  0  0  0  0  0  0  0
   -4.7278    2.0649    0.0000 C   0  0  0  0  0  0  0  0  0  0  0  0
  1  2  2  0
  3  4  1  0
  4 10  1  0
  5  7  2  0
  5 13  1  0
  1  6  1  0
  3  7  1  0
  2  8  1  0
  8 12  2  0
  1  9  1  0
 10 11  1  0
  9 11  1  0
  6 12  1  0
 13 14  1  0
  3 14  2  0
  2 15  1  0
 15 16  3  0
 11 17  2  0
  4 18  2  0
  7 19  1  0
  8 20  1  0
 12 21  1  0
 14 22  1  0
 19 23  2  0
 19 24  1  0
 20 25  1  0
 21 26  1  0
 24 27  2  0
 23 28  1  0
 28 30  2  0
 26 29  1  0
 29 31  1  0
 27 30  1  0
 25 31  1  0
M  END
>  <IDNUMBER>  (798) 
IB03-2476

>  <available>  (798) 
50

>  <H_acceptor>  (798) 
7

>  <H_donor>  (798) 
2

>  <B_rotN>  (798) 
7

>  <N_O>  (798) 
6

>  <logP>  (798) 
5.4

>  <logD>  (798) 
5.05

>  <logSw>  (798) 
-6.27

>  <PSA>  (798) 
204.3

>  <pKa_ma>  (798) 
7.31

>  <pKa_mb>  (798) 
0

>  <N_Chirals>  (798) 
0

>  <Name>  (798) 
N-[(3-cyano-4,5,6,7,8,9-hexahydrocycloocta[b]thiophen-2-yl)carbamothioyl]-5-methyl-3-phenyl-1,2-oxazole-4-carboxamide

>  <Smile>  (798) 
Cc1c(C(NC(Nc(sc2c3CCCCCC2)c3C#N)=S)=O)c(-c2ccccc2)no1

>  <Color>  (798) 
NOT COLORED

>  <Collection>  (798) 
DC

>  <InChI>  (798) 
InChI=1S/C23H22N4O2S2/c1-14-19(20(27-29-14)15-9-5-4-6-10-15)21(28)25-23(30)26-22-17(13-24)16-11-7-2-3-8-12-18(16)31-22/h4-6,9-10H,2-3,7-8,11-12H2,1H3,(H2,25,26,28,30)

>  <InChI Key>  (798) 
GHKNWBGJBNDAGC-UHFFFAOYSA-N

>  <PERCENTSP3>  (798) 
30.4

>  <Link>  (798) 
https://www.chemdiv.com/catalog/screening-compounds/compound-IB03-2476/

>  <STEREO>  (798) 
ACHIRAL

>  <State>  (798) 
Solid

>  <Similarity score>  (798) 
0.19

$$$$
N-(3-cyano-5,6,7,8-tetrahydro-4H-cyclohepta[b]thiophen-2-yl)-5-(3,4-dichlorophen
     RDKit          2D

 36 40  0  0  0  0  0  0  0  0999 V2000
    1.2528   -0.0319    0.0000 N   0  0  0  0  0  0  0  0  0  0  0  0
    2.0918    0.4811    0.0000 C   0  0  0  0  0  0  0  0  0  0  0  0
    1.2528   -1.0365    0.0000 C   0  0  0  0  0  0  0  0  0  0  0  0
   -2.7811    0.3046    0.0000 C   0  0  0  0  0  0  0  0  0  0  0  0
    0.2751    0.2727    0.0000 N   0  0  0  0  0  0  0  0  0  0  0  0
   -3.2622    1.1701    0.0000 C   0  0  0  0  0  0  0  0  0  0  0  0
   -0.2806   -0.5449    0.0000 C   0  0  0  0  0  0  0  0  0  0  0  0
    0.2751   -1.3145    0.0000 C   0  0  0  0  0  0  0  0  0  0  0  0
    2.0918   -1.5229    0.0000 N   0  0  0  0  0  0  0  0  0  0  0  0
    2.9843   -0.0319    0.0000 C   0  0  0  0  0  0  0  0  0  0  0  0
   -3.4437   -0.4168    0.0000 S   0  0  0  0  0  0  0  0  0  0  0  0
   -4.2399    0.9672    0.0000 C   0  0  0  0  0  0  0  0  0  0  0  0
    2.9843   -1.0365    0.0000 C   0  0  0  0  0  0  0  0  0  0  0  0
    2.0918    1.4909    0.0000 C   0  0  0  0  0  0  0  0  0  0  0  0
   -1.7767    0.3046    0.0000 N   0  0  0  0  0  0  0  0  0  0  0  0
   -4.3416   -0.0105    0.0000 C   0  0  0  0  0  0  0  0  0  0  0  0
   -1.2904   -0.5449    0.0000 C   0  0  0  0  0  0  0  0  0  0  0  0
   -2.8775    2.1054    0.0000 C   0  0  0  0  0  0  0  0  0  0  0  0
    3.8393   -1.5229    0.0000 C   0  0  0  0  0  0  0  0  0  0  0  0
   -2.4927    3.0619    0.0000 N   0  0  0  0  0  0  0  0  0  0  0  0
    5.5705   -1.5229    0.0000 C   0  0  0  0  0  0  0  0  0  0  0  0
    4.7155   -1.0365    0.0000 C   0  0  0  0  0  0  0  0  0  0  0  0
    5.5705   -2.5327    0.0000 C   0  0  0  0  0  0  0  0  0  0  0  0
   -1.7767   -1.4212    0.0000 O   0  0  0  0  0  0  0  0  0  0  0  0
    3.8393   -2.5327    0.0000 C   0  0  0  0  0  0  0  0  0  0  0  0
    2.0918    2.5008    0.0000 F   0  0  0  0  0  0  0  0  0  0  0  0
    3.1017    1.4909    0.0000 F   0  0  0  0  0  0  0  0  0  0  0  0
    1.0982    1.4909    0.0000 F   0  0  0  0  0  0  0  0  0  0  0  0
    4.7155   -3.0619    0.0000 C   0  0  0  0  0  0  0  0  0  0  0  0
    6.4682   -1.0365    0.0000 Cl  0  0  0  0  0  0  0  0  0  0  0  0
    6.4682   -3.0619    0.0000 Cl  0  0  0  0  0  0  0  0  0  0  0  0
   -4.9667    1.6567    0.0000 C   0  0  0  0  0  0  0  0  0  0  0  0
   -5.1859   -0.5449    0.0000 C   0  0  0  0  0  0  0  0  0  0  0  0
   -5.9285    1.5231    0.0000 C   0  0  0  0  0  0  0  0  0  0  0  0
   -6.1155   -0.2403    0.0000 C   0  0  0  0  0  0  0  0  0  0  0  0
   -6.4682    0.6573    0.0000 C   0  0  0  0  0  0  0  0  0  0  0  0
  1  2  1  0
  1  3  1  0
  4 15  1  0
  1  5  1  0
  4  6  2  0
  5  7  2  0
  3  8  2  0
  7  8  1  0
  3  9  1  0
  2 10  2  0
  4 11  1  0
  6 12  1  0
 12 16  2  0
  9 13  2  0
 10 13  1  0
  2 14  1  0
 15 17  1  0
 11 16  1  0
  7 17  1  0
  6 18  1  0
 13 19  1  0
 18 20  3  0
 21 22  1  0
 19 22  2  0
 23 29  1  0
 21 23  2  0
 17 24  2  0
 19 25  1  0
 14 26  1  0
 14 27  1  0
 14 28  1  0
 25 29  2  0
 21 30  1  0
 23 31  1  0
 12 32  1  0
 16 33  1  0
 32 34  1  0
 34 36  1  0
 33 35  1  0
 35 36  1  0
M  END
>  <IDNUMBER>  (799) 
K061-0994

>  <available>  (799) 
55

>  <H_acceptor>  (799) 
5

>  <H_donor>  (799) 
1

>  <B_rotN>  (799) 
6

>  <N_O>  (799) 
6

>  <logP>  (799) 
7.3218

>  <logD>  (799) 
5.6958

>  <logSw>  (799) 
-6.9631

>  <PSA>  (799) 
58.591

>  <pKa_ma>  (799) 
5.7844

>  <pKa_mb>  (799) 
1.5188

>  <N_Chirals>  (799) 
0

>  <Name>  (799) 
N-(3-cyano-5,6,7,8-tetrahydro-4H-cyclohepta[b]thiophen-2-yl)-5-(3,4-dichlorophenyl)-7-(trifluoromethyl)pyrazolo[1,5-a]pyrimidine-2-carboxamide

>  <Smile>  (799) 
N#Cc1c(NC(c2nn3c(C(F)(F)F)cc(-c(cc4)cc(Cl)c4Cl)nc3c2)=O)sc2c1CCCCC2

>  <Color>  (799) 
YELLOW

>  <Collection>  (799) 
DC

>  <InChI>  (799) 
InChI=1S/C24H16Cl2F3N5OS/c25-15-7-6-12(8-16(15)26)17-9-20(24(27,28)29)34-21(31-17)10-18(33-34)22(35)32-23-14(11-30)13-4-2-1-3-5-19(13)36-23/h6-10H,1-5H2,(H,32,35)

>  <InChI Key>  (799) 
WPRFDMHOHYLEAH-UHFFFAOYSA-N

>  <PERCENTSP3>  (799) 
25

>  <Link>  (799) 
https://www.chemdiv.com/catalog/screening-compounds/compound-K061-0994/

>  <MFCDNUMBER>  (799) 
MFCD01445194

>  <CLNUMBER>  (799) 
CL1652

>  <STEREO>  (799) 
ACHIRAL

>  <State>  (799) 
Solid

>  <Similarity score>  (799) 
0.19

$$$$
1-(3-methylphenyl)-4-oxo-N-(3-{[(oxolan-2-yl)methyl]carbamoyl}-5,6-dihydro-4H-cy
     RDKit          2D

 35 39  0  0  0  0  0  0  0  0999 V2000
   -2.1248   -1.1612    0.0000 C   0  0  0  0  0  0  0  0  0  0  0  0
   -2.2208   -0.1616    0.0000 C   0  0  0  0  0  0  0  0  0  0  0  0
    0.4796   -2.7356    0.0000 N   0  0  0  0  0  0  0  0  0  0  0  0
   -0.4039   -3.2001    0.0000 C   0  0  0  0  0  0  0  0  0  0  0  0
    1.3224   -3.2658    0.0000 N   0  0  0  0  0  0  0  0  0  0  0  0
   -3.0234   -1.5697    0.0000 S   0  0  0  0  0  0  0  0  0  0  0  0
   -3.2000    0.0404    0.0000 C   0  0  0  0  0  0  0  0  0  0  0  0
   -1.2466   -2.6600    0.0000 C   0  0  0  0  0  0  0  0  0  0  0  0
   -1.2466   -1.6606    0.0000 N   0  0  0  0  0  0  0  0  0  0  0  0
   -3.6997   -0.8226    0.0000 C   0  0  0  0  0  0  0  0  0  0  0  0
   -1.4737    0.4897    0.0000 C   0  0  0  0  0  0  0  0  0  0  0  0
   -0.4440   -4.1892    0.0000 C   0  0  0  0  0  0  0  0  0  0  0  0
    0.4039   -4.7294    0.0000 C   0  0  0  0  0  0  0  0  0  0  0  0
    1.2822   -4.2652    0.0000 C   0  0  0  0  0  0  0  0  0  0  0  0
    2.2008   -2.8063    0.0000 C   0  0  0  0  0  0  0  0  0  0  0  0
   -1.6758    1.4636    0.0000 N   0  0  0  0  0  0  0  0  0  0  0  0
   -2.0945   -3.1900    0.0000 O   0  0  0  0  0  0  0  0  0  0  0  0
   -0.5351    0.1716    0.0000 O   0  0  0  0  0  0  0  0  0  0  0  0
    3.0387   -3.3413    0.0000 C   0  0  0  0  0  0  0  0  0  0  0  0
   -1.3274   -4.6588    0.0000 O   0  0  0  0  0  0  0  0  0  0  0  0
   -0.1714    3.7755    0.0000 O   0  0  0  0  0  0  0  0  0  0  0  0
   -0.9740    2.1755    0.0000 C   0  0  0  0  0  0  0  0  0  0  0  0
   -3.8813    0.7923    0.0000 C   0  0  0  0  0  0  0  0  0  0  0  0
   -4.6839   -0.6106    0.0000 C   0  0  0  0  0  0  0  0  0  0  0  0
    3.9320   -2.8720    0.0000 C   0  0  0  0  0  0  0  0  0  0  0  0
   -0.9740    3.1749    0.0000 C   0  0  0  0  0  0  0  0  0  0  0  0
    2.2361   -1.7969    0.0000 C   0  0  0  0  0  0  0  0  0  0  0  0
   -4.7747    0.3838    0.0000 C   0  0  0  0  0  0  0  0  0  0  0  0
    3.1243   -1.3275    0.0000 C   0  0  0  0  0  0  0  0  0  0  0  0
   -0.4896    4.7294    0.0000 C   0  0  0  0  0  0  0  0  0  0  0  0
    3.9721   -1.8724    0.0000 C   0  0  0  0  0  0  0  0  0  0  0  0
    4.7747   -3.4171    0.0000 C   0  0  0  0  0  0  0  0  0  0  0  0
   -1.7919    3.7602    0.0000 C   0  0  0  0  0  0  0  0  0  0  0  0
   -1.4890    4.7141    0.0000 C   0  0  0  0  0  0  0  0  0  0  0  0
   -0.3835   -1.1612    0.0000 H   0  0  0  0  0  0  0  0  0  0  0  0
  1  2  2  0
  3  4  2  0
  4  8  1  0
  3  5  1  0
  5 14  1  0
  1  6  1  0
  2  7  1  0
  7 10  2  0
  8  9  1  0
  1  9  1  0
  6 10  1  0
  2 11  1  0
  4 12  1  0
 12 13  1  0
 13 14  2  0
  5 15  1  0
 11 16  1  0
  8 17  2  0
 11 18  2  0
 15 19  1  0
 12 20  2  0
 21 26  1  0
 16 22  1  0
  7 23  1  0
 23 28  1  0
 10 24  1  0
 19 25  2  0
 22 26  1  0
 15 27  2  0
 24 28  1  0
 27 29  1  0
 21 30  1  0
 30 34  1  0
 29 31  2  0
 25 31  1  0
 25 32  1  0
 26 33  1  0
 33 34  1  0
  9 35  1  0
M  END
>  <IDNUMBER>  (800) 
D223-0622

>  <available>  (800) 
108

>  <H_acceptor>  (800) 
8

>  <H_donor>  (800) 
2

>  <B_rotN>  (800) 
8

>  <N_O>  (800) 
8

>  <logP>  (800) 
3.0286

>  <logD>  (800) 
-0.9723

>  <logSw>  (800) 
-3.3838

>  <PSA>  (800) 
82.889

>  <pKa_ma>  (800) 
3.3991

>  <pKa_mb>  (800) 
-0.4577

>  <N_Chirals>  (800) 
1

>  <Name>  (800) 
1-(3-methylphenyl)-4-oxo-N-(3-{[(oxolan-2-yl)methyl]carbamoyl}-5,6-dihydro-4H-cyclopenta[b]thiophen-2-yl)-1,4-dihydropyridazine-3-carboxamide

>  <Smile>  (800) 
Cc1cccc(N(C=C2)N=C(C(Nc3c(C(NCC4OCCC4)=O)c(CCC4)c4s3)=O)C2=O)c1

>  <Color>  (800) 
ORANGE

>  <Collection>  (800) 
DC

>  <InChI>  (800) 
InChI=1S/C25H26N4O4S/c1-15-5-2-6-16(13-15)29-11-10-19(30)22(28-29)24(32)27-25-21(18-8-3-9-20(18)34-25)23(31)26-14-17-7-4-12-33-17/h2,5-6,10-11,13,17H,3-4,7-9,12,14H2,1H3,(H,26,31)(H,27,32)/t17-/m1/s1

>  <InChI Key>  (800) 
USASOXQZUKQIDO-QGZVFWFLSA-N

>  <PERCENTSP3>  (800) 
36

>  <Link>  (800) 
https://www.chemdiv.com/catalog/screening-compounds/compound-D223-0622/

>  <MFCDNUMBER>  (800) 
MFCD07428149

>  <CLNUMBER>  (800) 
CL6185

>  <STEREO>  (800) 
RACEMIC MIXTURE

>  <State>  (800) 
Solid

>  <Similarity score>  (800) 
0.19

$$$$
