
     RDKit          2D

 27 31  0  0  0  0  0  0  0  0999 V2000
   -0.8958   -1.4875    0.0000 N   0  0  0  0  0  0  0  0  0  0  0  0
    0.0958   -1.6042    0.0000 C   0  0  0  0  0  0  0  0  0  0  0  0
    0.6917   -0.8000    0.0000 N   0  0  0  0  0  0  0  0  0  0  0  0
    0.2958    0.1167    0.0000 C   0  0  0  0  0  0  0  0  0  0  0  0
   -1.2917   -0.5708    0.0000 C   0  0  0  0  0  0  0  0  0  0  0  0
   -0.6958    0.2333    0.0000 C   0  0  0  0  0  0  0  0  0  0  0  0
    0.4958   -2.5208    0.0000 N   0  0  0  0  0  0  0  0  0  0  0  0
   -1.0958    1.1500    0.0000 C   0  0  0  0  0  0  0  0  0  0  0  0
   -0.5000    1.9542    0.0000 C   0  0  0  0  0  0  0  0  0  0  0  0
   -2.2875   -0.4583    0.0000 N   0  0  0  0  0  0  0  0  0  0  0  0
    0.4958    1.8375    0.0000 C   0  0  0  0  0  0  0  0  0  0  0  0
    0.8917    0.9208    0.0000 O   0  0  0  0  0  0  0  0  0  0  0  0
    1.0917    2.6417    0.0000 C   0  0  0  0  0  0  0  0  0  0  0  0
   -0.8958    2.8708    0.0000 C   0  0  0  0  0  0  0  0  0  0  0  0
    0.6917    3.5583    0.0000 C   0  0  0  0  0  0  0  0  0  0  0  0
   -0.3000    3.6708    0.0000 C   0  0  0  0  0  0  0  0  0  0  0  0
   -2.6833    0.4625    0.0000 C   0  0  0  0  0  0  0  0  0  0  0  0
   -2.0875    1.2625    0.0000 C   0  0  0  0  0  0  0  0  0  0  0  0
   -0.1000   -3.3250    0.0000 C   0  0  0  0  0  0  0  0  0  0  0  0
    1.4875   -2.6375    0.0000 C   0  0  0  0  0  0  0  0  0  0  0  0
    2.0833    2.5250    0.0000 C   0  0  0  0  0  0  0  0  0  0  0  0
    1.2875    4.3583    0.0000 C   0  0  0  0  0  0  0  0  0  0  0  0
    0.2958   -4.2417    0.0000 C   0  0  0  0  0  0  0  0  0  0  0  0
    1.8875   -3.5542    0.0000 C   0  0  0  0  0  0  0  0  0  0  0  0
    2.6792    3.3292    0.0000 C   0  0  0  0  0  0  0  0  0  0  0  0
    2.2833    4.2417    0.0000 C   0  0  0  0  0  0  0  0  0  0  0  0
    1.2875   -4.3583    0.0000 C   0  0  0  0  0  0  0  0  0  0  0  0
  1  2  2  0
  2  3  1  0
  4  6  1  0
  1  5  1  0
  5  6  2  0
  2  7  1  0
  6  8  1  0
  8  9  1  0
  5 10  1  0
  9 11  1  0
  4 12  2  0
 11 13  2  0
  9 14  2  0
 15 16  2  0
 14 16  1  0
 10 17  2  0
 17 18  1  0
  7 19  1  0
  7 20  1  0
 13 21  1  0
 15 22  1  0
 19 23  1  0
 20 24  1  0
 21 25  2  0
 22 26  2  0
 24 27  1  0
  3  4  1  0
  8 18  2  0
 23 27  1  0
 13 15  1  0
 25 26  1  0
M  END
>  <MOLFORMULA>  (1) 
C22 H20 N4 O

>  <MOLWEIGHT>  (1) 
3.564270000000000e+002

>  <IDNUMBER>  (1) 
AN-153/J102310

>  <PRICE>  (1) 
EUR 130/10 mg

>  <Similarity score>  (1) 
0.21

$$$$

     RDKit          2D

 26 28  0  0  0  0  0  0  0  0999 V2000
    0.5375   -0.1167    0.0000 N   0  0  0  0  0  0  0  0  0  0  0  0
    1.2417    1.1208    0.0000 C   0  0  0  0  0  0  0  0  0  0  0  0
   -0.1833    0.2958    0.0000 C   0  0  0  0  0  0  0  0  0  0  0  0
    1.2417    0.2958    0.0000 C   0  0  0  0  0  0  0  0  0  0  0  0
    2.6667    1.1208    0.0000 C   0  0  0  0  0  0  0  0  0  0  0  0
    1.9542    1.5333    0.0000 C   0  0  0  0  0  0  0  0  0  0  0  0
   -0.8958   -0.1167    0.0000 N   0  0  0  0  0  0  0  0  0  0  0  0
    0.5292    1.5333    0.0000 C   0  0  0  0  0  0  0  0  0  0  0  0
    1.9542   -0.1167    0.0000 N   0  0  0  0  0  0  0  0  0  0  0  0
   -2.3250   -0.9417    0.0000 N   0  0  0  0  0  0  0  0  0  0  0  0
   -0.1833    1.1208    0.0000 C   0  0  0  0  0  0  0  0  0  0  0  0
    3.3792    1.5333    0.0000 C   0  0  0  0  0  0  0  0  0  0  0  0
    2.6667    0.2958    0.0000 C   0  0  0  0  0  0  0  0  0  0  0  0
   -3.0458   -1.3542    0.0000 C   0  0  0  0  0  0  0  0  0  0  0  0
   -0.8958   -0.9417    0.0000 C   0  0  0  0  0  0  0  0  0  0  0  0
   -1.6125    0.2958    0.0000 C   0  0  0  0  0  0  0  0  0  0  0  0
   -2.3250   -0.1167    0.0000 C   0  0  0  0  0  0  0  0  0  0  0  0
   -1.6125   -1.3542    0.0000 C   0  0  0  0  0  0  0  0  0  0  0  0
    3.3875    2.3583    0.0000 O   0  0  0  0  0  0  0  0  0  0  0  0
   -3.0458   -2.1792    0.0000 O   0  0  0  0  0  0  0  0  0  0  0  0
    1.9542    2.3583    0.0000 O   0  0  0  0  0  0  0  0  0  0  0  0
   -0.8958    1.5333    0.0000 F   0  0  0  0  0  0  0  0  0  0  0  0
    4.0917    1.1125    0.0000 O   0  0  0  0  0  0  0  0  0  0  0  0
   -3.7583   -0.9417    0.0000 C   0  0  0  0  0  0  0  0  0  0  0  0
    4.8042    1.5333    0.0000 C   0  0  0  0  0  0  0  0  0  0  0  0
    5.5250    1.1250    0.0000 C   0  0  0  0  0  0  0  0  0  0  0  0
  2  4  1  0
  1  3  1  0
  1  4  2  0
  5 13  1  0
  2  6  1  0
  3  7  1  0
  2  8  2  0
  4  9  1  0
 10 17  1  0
  3 11  2  0
  5 12  1  0
  9 13  2  0
 10 14  1  0
  7 15  1  0
  7 16  1  0
 16 17  1  0
 15 18  1  0
 12 19  2  0
 14 20  2  0
  6 21  1  0
 11 22  1  0
 12 23  1  0
 14 24  1  0
 23 25  1  0
 25 26  1  0
  8 11  1  0
  5  6  2  0
 10 18  1  0
M  END
>  <MOLFORMULA>  (2) 
C17 H19 F N4 O4

>  <MOLWEIGHT>  (2) 
3.623591000000000e+002

>  <IDNUMBER>  (2) 
AT-225/JK10309

>  <PRICE>  (2) 
EUR 140/10 mg

>  <Similarity score>  (2) 
0.21

$$$$

     RDKit          2D

 20 22  0  0  0  0  0  0  0  0999 V2000
   -1.5000    0.6833    0.0000 C   0  0  0  0  0  0  0  0  0  0  0  0
   -2.2708    0.1333    0.0000 N   0  0  0  0  0  0  0  0  0  0  0  0
   -1.7833    1.5958    0.0000 C   0  0  0  0  0  0  0  0  0  0  0  0
   -0.5708    0.4958    0.0000 C   0  0  0  0  0  0  0  0  0  0  0  0
   -2.7458    1.5958    0.0000 C   0  0  0  0  0  0  0  0  0  0  0  0
   -3.0333    0.7125    0.0000 C   0  0  0  0  0  0  0  0  0  0  0  0
    0.0667    1.1833    0.0000 N   0  0  0  0  0  0  0  0  0  0  0  0
   -1.1333    2.2958    0.0000 N   0  0  0  0  0  0  0  0  0  0  0  0
   -0.2833   -0.4000    0.0000 N   0  0  0  0  0  0  0  0  0  0  0  0
   -0.2125    2.0833    0.0000 C   0  0  0  0  0  0  0  0  0  0  0  0
   -3.3958    2.3125    0.0000 C   0  0  0  0  0  0  0  0  0  0  0  0
   -3.9625    0.5125    0.0000 C   0  0  0  0  0  0  0  0  0  0  0  0
   -4.3208    2.1125    0.0000 C   0  0  0  0  0  0  0  0  0  0  0  0
   -4.6000    1.2125    0.0000 C   0  0  0  0  0  0  0  0  0  0  0  0
   -4.9583    2.8208    0.0000 O   0  0  0  0  0  0  0  0  0  0  0  0
   -0.9000   -1.1167    0.0000 C   0  0  0  0  0  0  0  0  0  0  0  0
    0.6375   -0.5875    0.0000 C   0  0  0  0  0  0  0  0  0  0  0  0
   -5.8958    2.6458    0.0000 C   0  0  0  0  0  0  0  0  0  0  0  0
    0.9500   -1.4875    0.0000 C   0  0  0  0  0  0  0  0  0  0  0  0
   -0.5958   -2.0167    0.0000 C   0  0  0  0  0  0  0  0  0  0  0  0
  1  2  1  0
  1  3  2  0
  1  4  1  0
  3  5  1  0
  2  6  1  0
  4  7  2  0
  3  8  1  0
  4  9  1  0
  7 10  1  0
  5 11  1  0
  6 12  1  0
 11 13  2  0
 12 14  2  0
 13 15  1  0
  9 16  1  0
  9 17  1  0
 15 18  1  0
 17 19  1  0
 16 20  1  0
  5  6  2  0
  8 10  2  0
 13 14  1  0
M  END
>  <MOLFORMULA>  (3) 
C15 H18 N4 O

>  <MOLWEIGHT>  (3) 
2.703342000000000e+002

>  <IDNUMBER>  (3) 
AT-225/JK07514

>  <PRICE>  (3) 
EUR 140/10 mg

>  <Similarity score>  (3) 
0.20

$$$$

     RDKit          2D

 21 24  0  0  0  0  0  0  0  0999 V2000
   -0.8333    0.0708    0.0000 C   0  0  0  0  0  0  0  0  0  0  0  0
   -1.6208   -0.5292    0.0000 N   0  0  0  0  0  0  0  0  0  0  0  0
    0.1542   -0.0875    0.0000 C   0  0  0  0  0  0  0  0  0  0  0  0
   -1.1625    0.9625    0.0000 C   0  0  0  0  0  0  0  0  0  0  0  0
   -2.1125    0.9625    0.0000 C   0  0  0  0  0  0  0  0  0  0  0  0
   -2.4000    0.0208    0.0000 C   0  0  0  0  0  0  0  0  0  0  0  0
    0.5167   -1.0000    0.0000 N   0  0  0  0  0  0  0  0  0  0  0  0
    0.7875    0.6625    0.0000 N   0  0  0  0  0  0  0  0  0  0  0  0
   -0.5458    1.7458    0.0000 N   0  0  0  0  0  0  0  0  0  0  0  0
    0.4375    1.5958    0.0000 C   0  0  0  0  0  0  0  0  0  0  0  0
   -2.7833    1.6833    0.0000 C   0  0  0  0  0  0  0  0  0  0  0  0
   -3.3625   -0.1875    0.0000 C   0  0  0  0  0  0  0  0  0  0  0  0
   -3.7500    1.4500    0.0000 C   0  0  0  0  0  0  0  0  0  0  0  0
   -4.0500    0.5208    0.0000 C   0  0  0  0  0  0  0  0  0  0  0  0
   -0.0833   -1.7792    0.0000 C   0  0  0  0  0  0  0  0  0  0  0  0
    1.4875   -1.1292    0.0000 C   0  0  0  0  0  0  0  0  0  0  0  0
   -4.4208    2.1500    0.0000 O   0  0  0  0  0  0  0  0  0  0  0  0
   -4.1583    3.1083    0.0000 C   0  0  0  0  0  0  0  0  0  0  0  0
    1.8542   -2.0500    0.0000 C   0  0  0  0  0  0  0  0  0  0  0  0
    0.2875   -2.6875    0.0000 C   0  0  0  0  0  0  0  0  0  0  0  0
    1.2542   -2.8292    0.0000 C   0  0  0  0  0  0  0  0  0  0  0  0
  1  2  1  0
  1  3  1  0
  1  4  2  0
  4  5  1  0
  2  6  1  0
  3  7  1  0
  3  8  2  0
  4  9  1  0
  9 10  2  0
  5 11  1  0
  6 12  1  0
 11 13  2  0
 12 14  2  0
  7 15  1  0
  7 16  1  0
 13 17  1  0
 17 18  1  0
 16 19  1  0
 15 20  1  0
 19 21  1  0
  5  6  2  0
  8 10  1  0
 13 14  1  0
 20 21  1  0
M  END
>  <MOLFORMULA>  (4) 
C16 H18 N4 O

>  <MOLWEIGHT>  (4) 
2.823452000000000e+002

>  <IDNUMBER>  (4) 
AT-225/JK07488

>  <PRICE>  (4) 
EUR 140/10 mg

>  <Similarity score>  (4) 
0.20

$$$$

     RDKit          2D

 26 30  0  0  0  0  0  0  0  0999 V2000
    5.3583   -7.0583    0.0000 C   0  0  0  0  0  0  0  0  0  0  0  0
    5.3667   -6.3208    0.0000 C   0  0  0  0  0  0  0  0  0  0  0  0
    4.7292   -7.4125    0.0000 N   0  0  0  0  0  0  0  0  0  0  0  0
    4.7292   -5.9500    0.0000 C   0  0  0  0  0  0  0  0  0  0  0  0
    6.0083   -7.4167    0.0000 C   0  0  0  0  0  0  0  0  0  0  0  0
    4.0917   -6.3250    0.0000 C   0  0  0  0  0  0  0  0  0  0  0  0
    4.7208   -5.2250    0.0000 N   0  0  0  0  0  0  0  0  0  0  0  0
    4.0917   -7.0500    0.0000 C   0  0  0  0  0  0  0  0  0  0  0  0
    6.6542   -7.0583    0.0000 C   0  0  0  0  0  0  0  0  0  0  0  0
    6.0083   -5.9500    0.0000 C   0  0  0  0  0  0  0  0  0  0  0  0
    6.0042   -8.1583    0.0000 C   0  0  0  0  0  0  0  0  0  0  0  0
    6.6542   -6.3208    0.0000 C   0  0  0  0  0  0  0  0  0  0  0  0
    7.2917   -7.4250    0.0000 C   0  0  0  0  0  0  0  0  0  0  0  0
    4.7208   -3.7708    0.0000 O   0  0  0  0  0  0  0  0  0  0  0  0
    7.2917   -8.1625    0.0000 C   0  0  0  0  0  0  0  0  0  0  0  0
    6.6417   -8.5250    0.0000 C   0  0  0  0  0  0  0  0  0  0  0  0
    5.3583   -4.8625    0.0000 C   0  0  0  0  0  0  0  0  0  0  0  0
    4.0833   -4.8625    0.0000 C   0  0  0  0  0  0  0  0  0  0  0  0
    3.4583   -5.9583    0.0000 C   0  0  0  0  0  0  0  0  0  0  0  0
    7.9208   -8.5250    0.0000 O   0  0  0  0  0  0  0  0  0  0  0  0
    3.4583   -7.4125    0.0000 C   0  0  0  0  0  0  0  0  0  0  0  0
    5.3583   -4.1333    0.0000 C   0  0  0  0  0  0  0  0  0  0  0  0
    4.0833   -4.1375    0.0000 C   0  0  0  0  0  0  0  0  0  0  0  0
    8.5583   -8.1583    0.0000 C   0  0  0  0  0  0  0  0  0  0  0  0
    2.8208   -6.3250    0.0000 C   0  0  0  0  0  0  0  0  0  0  0  0
    2.8208   -7.0500    0.0000 C   0  0  0  0  0  0  0  0  0  0  0  0
  1  2  1  0
  1  3  2  0
  2  4  2  0
  1  5  1  0
  6  8  1  0
  4  7  1  0
  3  8  1  0
  5  9  2  0
  2 10  1  0
  5 11  1  0
  9 12  1  0
  9 13  1  0
 14 23  1  0
 15 16  1  0
 11 16  2  0
  7 17  1  0
  7 18  1  0
  6 19  2  0
 15 20  1  0
  8 21  2  0
 17 22  1  0
 18 23  1  0
 20 24  1  0
 25 26  2  0
 21 26  1  0
 10 12  1  0
  4  6  1  0
 13 15  2  0
 19 25  1  0
 14 22  1  0
M  END
>  <MOLFORMULA>  (5) 
C22 H22 N2 O2

>  <MOLWEIGHT>  (5) 
3.464278000000000e+002

>  <IDNUMBER>  (5) 
AT-225/NB48356

>  <SALTDATA>  (5) 
2 H2O

>  <PRICE>  (5) 
EUR 140/10 mg

>  <Similarity score>  (5) 
0.20

$$$$

     RDKit          2D

 26 30  0  0  0  0  0  0  0  0999 V2000
    5.6500   -6.7417    0.0000 C   0  0  0  0  0  0  0  0  0  0  0  0
    5.6583   -6.0417    0.0000 C   0  0  0  0  0  0  0  0  0  0  0  0
    5.0500   -7.0833    0.0000 N   0  0  0  0  0  0  0  0  0  0  0  0
    5.0500   -5.6958    0.0000 C   0  0  0  0  0  0  0  0  0  0  0  0
    6.2583   -7.0917    0.0000 C   0  0  0  0  0  0  0  0  0  0  0  0
    4.4583   -6.0458    0.0000 C   0  0  0  0  0  0  0  0  0  0  0  0
    5.0500   -4.9958    0.0000 N   0  0  0  0  0  0  0  0  0  0  0  0
    4.4583   -6.7333    0.0000 C   0  0  0  0  0  0  0  0  0  0  0  0
    6.8625   -6.7417    0.0000 C   0  0  0  0  0  0  0  0  0  0  0  0
    6.2625   -5.6833    0.0000 C   0  0  0  0  0  0  0  0  0  0  0  0
    6.2500   -7.7833    0.0000 C   0  0  0  0  0  0  0  0  0  0  0  0
    6.8625   -6.0417    0.0000 C   0  0  0  0  0  0  0  0  0  0  0  0
    7.4625   -7.0917    0.0000 C   0  0  0  0  0  0  0  0  0  0  0  0
    5.0500   -3.6083    0.0000 O   0  0  0  0  0  0  0  0  0  0  0  0
    7.4625   -7.7917    0.0000 C   0  0  0  0  0  0  0  0  0  0  0  0
    6.8583   -8.1417    0.0000 C   0  0  0  0  0  0  0  0  0  0  0  0
    5.6500   -4.6542    0.0000 C   0  0  0  0  0  0  0  0  0  0  0  0
    4.4500   -4.6542    0.0000 C   0  0  0  0  0  0  0  0  0  0  0  0
    3.8583   -5.6958    0.0000 C   0  0  0  0  0  0  0  0  0  0  0  0
    8.0625   -8.1333    0.0000 O   0  0  0  0  0  0  0  0  0  0  0  0
    3.8583   -7.0833    0.0000 C   0  0  0  0  0  0  0  0  0  0  0  0
    5.6500   -3.9583    0.0000 C   0  0  0  0  0  0  0  0  0  0  0  0
    4.4500   -3.9583    0.0000 C   0  0  0  0  0  0  0  0  0  0  0  0
    8.0583   -8.8292    0.0000 C   0  0  0  0  0  0  0  0  0  0  0  0
    3.2583   -6.0458    0.0000 C   0  0  0  0  0  0  0  0  0  0  0  0
    3.2583   -6.7333    0.0000 C   0  0  0  0  0  0  0  0  0  0  0  0
  1  2  1  0
  1  3  2  0
  2  4  2  0
  1  5  1  0
  6  8  1  0
  4  7  1  0
  3  8  1  0
  5  9  2  0
  2 10  1  0
  5 11  1  0
  9 12  1  0
  9 13  1  0
 14 23  1  0
 15 16  1  0
 11 16  2  0
  7 17  1  0
  7 18  1  0
  6 19  2  0
 15 20  1  0
  8 21  2  0
 17 22  1  0
 18 23  1  0
 20 24  1  0
 19 25  1  0
 21 26  1  0
 10 12  1  0
  4  6  1  0
 13 15  2  0
 25 26  2  0
 14 22  1  0
M  END
>  <MOLFORMULA>  (6) 
C22 H22 N2 O2

>  <MOLWEIGHT>  (6) 
3.464278000000000e+002

>  <IDNUMBER>  (6) 
AT-225/NB47209

>  <SALTDATA>  (6) 
H2O

>  <PRICE>  (6) 
EUR 140/10 mg

>  <Similarity score>  (6) 
0.20

$$$$

     RDKit          2D

 26 30  0  0  0  0  0  0  0  0999 V2000
   -2.9375   -6.7125    0.0000 C   0  0  0  0  0  0  0  0  0  0  0  0
   -2.9375   -5.9542    0.0000 C   0  0  0  0  0  0  0  0  0  0  0  0
   -3.5958   -7.0875    0.0000 N   0  0  0  0  0  0  0  0  0  0  0  0
   -3.6125   -5.5792    0.0000 C   0  0  0  0  0  0  0  0  0  0  0  0
   -2.2833   -7.0875    0.0000 C   0  0  0  0  0  0  0  0  0  0  0  0
   -4.2458   -5.9542    0.0000 C   0  0  0  0  0  0  0  0  0  0  0  0
   -3.6125   -4.7917    0.0000 N   0  0  0  0  0  0  0  0  0  0  0  0
   -4.2458   -6.7125    0.0000 C   0  0  0  0  0  0  0  0  0  0  0  0
   -1.6333   -6.7125    0.0000 C   0  0  0  0  0  0  0  0  0  0  0  0
   -2.2833   -5.5792    0.0000 C   0  0  0  0  0  0  0  0  0  0  0  0
   -2.2833   -7.8417    0.0000 C   0  0  0  0  0  0  0  0  0  0  0  0
   -1.6333   -5.9542    0.0000 C   0  0  0  0  0  0  0  0  0  0  0  0
   -0.9833   -7.0875    0.0000 C   0  0  0  0  0  0  0  0  0  0  0  0
   -3.6125   -3.2875    0.0000 O   0  0  0  0  0  0  0  0  0  0  0  0
   -0.9833   -7.8417    0.0000 C   0  0  0  0  0  0  0  0  0  0  0  0
   -1.6333   -8.2167    0.0000 C   0  0  0  0  0  0  0  0  0  0  0  0
   -2.9625   -4.4167    0.0000 C   0  0  0  0  0  0  0  0  0  0  0  0
   -4.2708   -4.4167    0.0000 C   0  0  0  0  0  0  0  0  0  0  0  0
   -4.9083   -5.5792    0.0000 C   0  0  0  0  0  0  0  0  0  0  0  0
   -0.3333   -8.2167    0.0000 O   0  0  0  0  0  0  0  0  0  0  0  0
   -4.9083   -7.0875    0.0000 C   0  0  0  0  0  0  0  0  0  0  0  0
   -2.9583   -3.6667    0.0000 C   0  0  0  0  0  0  0  0  0  0  0  0
   -4.2708   -3.6625    0.0000 C   0  0  0  0  0  0  0  0  0  0  0  0
   -0.3333   -8.9667    0.0000 C   0  0  0  0  0  0  0  0  0  0  0  0
   -5.5458   -5.9542    0.0000 C   0  0  0  0  0  0  0  0  0  0  0  0
   -5.5458   -6.7125    0.0000 C   0  0  0  0  0  0  0  0  0  0  0  0
  1  2  2  0
  1  3  1  0
  2  4  1  0
  1  5  1  0
  6  8  1  0
  4  7  1  0
  3  8  2  0
  5  9  2  0
  2 10  1  0
  5 11  1  0
  9 12  1  0
  9 13  1  0
 14 23  1  0
 15 16  1  0
 11 16  2  0
  7 17  1  0
  7 18  1  0
  6 19  1  0
 15 20  1  0
  8 21  1  0
 17 22  1  0
 18 23  1  0
 20 24  1  0
 25 26  1  0
 21 26  2  0
 10 12  1  0
  4  6  2  0
 13 15  2  0
 19 25  2  0
 14 22  1  0
M  END
>  <MOLFORMULA>  (7) 
C22 H22 N2 O2

>  <MOLWEIGHT>  (7) 
3.464278000000000e+002

>  <IDNUMBER>  (7) 
AT-225/JK06946

>  <PRICE>  (7) 
EUR 140/10 mg

>  <Similarity score>  (7) 
0.20

$$$$

     RDKit          2D

 35 39  0  0  0  0  0  0  0  0999 V2000
   -0.9208   -1.3792    0.0000 C   0  0  0  0  0  0  0  0  0  0  0  0
   -0.9333   -2.3792    0.0000 C   0  0  0  0  0  0  0  0  0  0  0  0
    0.8125   -1.3917    0.0000 C   0  0  0  0  0  0  0  0  0  0  0  0
   -0.0583   -0.8792    0.0000 N   0  0  0  0  0  0  0  0  0  0  0  0
    0.8042   -2.3917    0.0000 N   0  0  0  0  0  0  0  0  0  0  0  0
   -1.8750   -1.0667    0.0000 C   0  0  0  0  0  0  0  0  0  0  0  0
   -0.0708   -2.8917    0.0000 C   0  0  0  0  0  0  0  0  0  0  0  0
   -1.8833   -2.6792    0.0000 S   0  0  0  0  0  0  0  0  0  0  0  0
   -2.4708   -1.8750    0.0000 C   0  0  0  0  0  0  0  0  0  0  0  0
    1.6792   -0.9042    0.0000 N   0  0  0  0  0  0  0  0  0  0  0  0
   -2.1833   -0.1167    0.0000 C   0  0  0  0  0  0  0  0  0  0  0  0
    3.4292    0.0833    0.0000 N   0  0  0  0  0  0  0  0  0  0  0  0
    4.3042    0.5583    0.0000 C   0  0  0  0  0  0  0  0  0  0  0  0
   -3.1625    0.1000    0.0000 C   0  0  0  0  0  0  0  0  0  0  0  0
   -3.4708    1.0375    0.0000 C   0  0  0  0  0  0  0  0  0  0  0  0
   -0.0833   -3.8917    0.0000 O   0  0  0  0  0  0  0  0  0  0  0  0
    1.7000    0.1000    0.0000 C   0  0  0  0  0  0  0  0  0  0  0  0
    2.5417   -1.4125    0.0000 C   0  0  0  0  0  0  0  0  0  0  0  0
    2.5667    0.5833    0.0000 C   0  0  0  0  0  0  0  0  0  0  0  0
    3.4167   -0.9250    0.0000 C   0  0  0  0  0  0  0  0  0  0  0  0
   -2.7833    1.7833    0.0000 C   0  0  0  0  0  0  0  0  0  0  0  0
   -1.5000    0.6125    0.0000 C   0  0  0  0  0  0  0  0  0  0  0  0
    4.3167    1.5625    0.0000 C   0  0  0  0  0  0  0  0  0  0  0  0
   -1.8125    1.5708    0.0000 C   0  0  0  0  0  0  0  0  0  0  0  0
    3.4542    2.0708    0.0000 F   0  0  0  0  0  0  0  0  0  0  0  0
   -4.4250    1.2583    0.0000 O   0  0  0  0  0  0  0  0  0  0  0  0
   -3.0875    2.7333    0.0000 O   0  0  0  0  0  0  0  0  0  0  0  0
    5.1667    0.0583    0.0000 C   0  0  0  0  0  0  0  0  0  0  0  0
    5.1875    2.0500    0.0000 C   0  0  0  0  0  0  0  0  0  0  0  0
   -5.0958    0.5208    0.0000 C   0  0  0  0  0  0  0  0  0  0  0  0
   -4.0708    2.9458    0.0000 C   0  0  0  0  0  0  0  0  0  0  0  0
   -6.0667    0.7333    0.0000 C   0  0  0  0  0  0  0  0  0  0  0  0
   -4.3583    3.9000    0.0000 C   0  0  0  0  0  0  0  0  0  0  0  0
    6.0417    0.5375    0.0000 C   0  0  0  0  0  0  0  0  0  0  0  0
    6.0667    1.5458    0.0000 C   0  0  0  0  0  0  0  0  0  0  0  0
  1  2  2  0
  3  4  2  0
  1  4  1  0
  3  5  1  0
  1  6  1  0
  2  7  1  0
  2  8  1  0
  6  9  2  0
  3 10  1  0
  6 11  1  0
 12 20  1  0
 12 13  1  0
 11 14  2  0
 14 15  1  0
  7 16  2  0
 10 17  1  0
 10 18  1  0
 17 19  1  0
 18 20  1  0
 21 24  1  0
 11 22  1  0
 13 23  1  0
 22 24  2  0
 23 25  1  0
 15 26  1  0
 21 27  1  0
 13 28  2  0
 23 29  2  0
 26 30  1  0
 27 31  1  0
 30 32  1  0
 31 33  1  0
 28 34  1  0
 34 35  2  0
  8  9  1  0
  5  7  1  0
 15 21  2  0
 12 19  1  0
 29 35  1  0
M  END
>  <MOLFORMULA>  (8) 
C26 H27 F N4 O3 S

>  <MOLWEIGHT>  (8) 
4.945883000000000e+002

>  <IDNUMBER>  (8) 
AT-687/PE25854

>  <PRICE>  (8) 
EUR 80/10 mg

>  <Similarity score>  (8) 
0.20

$$$$

     RDKit          2D

 24 26  0  0  0  0  0  0  0  0999 V2000
    5.6042   -2.7542    0.0000 C   0  0  0  0  0  0  0  0  0  0  0  0
    6.3250   -3.1667    0.0000 C   0  0  0  0  0  0  0  0  0  0  0  0
    6.3250   -4.0000    0.0000 N   0  0  0  0  0  0  0  0  0  0  0  0
    7.0417   -2.7542    0.0000 C   0  0  0  0  0  0  0  0  0  0  0  0
    6.3250   -1.5125    0.0000 N   0  0  0  0  0  0  0  0  0  0  0  0
    7.7542   -3.1667    0.0000 C   0  0  0  0  0  0  0  0  0  0  0  0
    8.4792   -3.5875    0.0000 N   0  0  0  0  0  0  0  0  0  0  0  0
    5.6042   -1.9292    0.0000 C   0  0  0  0  0  0  0  0  0  0  0  0
    6.3125   -6.4792    0.0000 C   0  0  0  0  0  0  0  0  0  0  0  0
    4.8875   -3.1667    0.0000 C   0  0  0  0  0  0  0  0  0  0  0  0
    7.0417   -1.9292    0.0000 C   0  0  0  0  0  0  0  0  0  0  0  0
    6.3167   -5.6542    0.0000 C   0  0  0  0  0  0  0  0  0  0  0  0
    7.0417   -4.4042    0.0000 C   0  0  0  0  0  0  0  0  0  0  0  0
    5.6042   -4.4125    0.0000 C   0  0  0  0  0  0  0  0  0  0  0  0
    7.0292   -6.9000    0.0000 O   0  0  0  0  0  0  0  0  0  0  0  0
    7.0375   -5.2417    0.0000 C   0  0  0  0  0  0  0  0  0  0  0  0
    5.6000   -5.2375    0.0000 C   0  0  0  0  0  0  0  0  0  0  0  0
    4.8875   -1.5125    0.0000 C   0  0  0  0  0  0  0  0  0  0  0  0
    4.1667   -2.7542    0.0000 C   0  0  0  0  0  0  0  0  0  0  0  0
    5.6000   -6.8917    0.0000 O   0  0  0  0  0  0  0  0  0  0  0  0
    4.1667   -1.9292    0.0000 C   0  0  0  0  0  0  0  0  0  0  0  0
    3.4542   -3.1667    0.0000 F   0  0  0  0  0  0  0  0  0  0  0  0
    4.8792   -6.4792    0.0000 C   0  0  0  0  0  0  0  0  0  0  0  0
    4.1667   -6.8917    0.0000 C   0  0  0  0  0  0  0  0  0  0  0  0
  1  2  1  0
  2  3  1  0
  2  4  2  0
  5  8  1  0
  4  6  1  0
  6  7  3  0
  1  8  1  0
  9 12  1  0
  1 10  2  0
  5 11  2  0
 12 17  1  0
  3 13  1  0
  3 14  1  0
  9 15  2  0
 13 16  1  0
 14 17  1  0
  8 18  2  0
 10 19  1  0
  9 20  1  0
 19 21  2  0
 19 22  1  0
 20 23  1  0
 23 24  1  0
 18 21  1  0
  4 11  1  0
 12 16  1  0
M  END
>  <MOLFORMULA>  (9) 
C18 H18 F N3 O2

>  <MOLWEIGHT>  (9) 
3.273572000000000e+002

>  <IDNUMBER>  (9) 
AT-687/SK17411

>  <PRICE>  (9) 
EUR 80/10 mg

>  <Similarity score>  (9) 
0.20

$$$$

     RDKit          2D

 22 24  0  0  0  0  0  0  0  0999 V2000
    2.7625   -3.4667    0.0000 C   0  0  0  0  0  0  0  0  0  0  0  0
    3.4667   -3.0542    0.0000 C   0  0  0  0  0  0  0  0  0  0  0  0
    3.4667   -2.2292    0.0000 N   0  0  0  0  0  0  0  0  0  0  0  0
    4.1875   -3.4625    0.0000 C   0  0  0  0  0  0  0  0  0  0  0  0
    3.4792   -4.7042    0.0000 N   0  0  0  0  0  0  0  0  0  0  0  0
    4.8917   -3.0417    0.0000 C   0  0  0  0  0  0  0  0  0  0  0  0
    5.6042   -2.6292    0.0000 N   0  0  0  0  0  0  0  0  0  0  0  0
    3.4625    0.2458    0.0000 C   0  0  0  0  0  0  0  0  0  0  0  0
    2.7625   -4.2917    0.0000 C   0  0  0  0  0  0  0  0  0  0  0  0
    2.0417   -3.0542    0.0000 C   0  0  0  0  0  0  0  0  0  0  0  0
    4.1917   -4.2917    0.0000 C   0  0  0  0  0  0  0  0  0  0  0  0
    3.4625   -0.5792    0.0000 C   0  0  0  0  0  0  0  0  0  0  0  0
    2.7500   -1.8292    0.0000 C   0  0  0  0  0  0  0  0  0  0  0  0
    4.1792   -1.8167    0.0000 C   0  0  0  0  0  0  0  0  0  0  0  0
    2.7500    0.6583    0.0000 O   0  0  0  0  0  0  0  0  0  0  0  0
    2.7500   -1.0000    0.0000 C   0  0  0  0  0  0  0  0  0  0  0  0
    4.1792   -1.0000    0.0000 C   0  0  0  0  0  0  0  0  0  0  0  0
    2.0417   -4.7125    0.0000 C   0  0  0  0  0  0  0  0  0  0  0  0
    1.3292   -3.4750    0.0000 C   0  0  0  0  0  0  0  0  0  0  0  0
    4.1750    0.6583    0.0000 O   0  0  0  0  0  0  0  0  0  0  0  0
    1.3292   -4.3000    0.0000 C   0  0  0  0  0  0  0  0  0  0  0  0
    0.6167   -3.0625    0.0000 F   0  0  0  0  0  0  0  0  0  0  0  0
  1  2  1  0
  2  3  1  0
  2  4  2  0
  5  9  1  0
  4  6  1  0
  6  7  3  0
  8 12  1  0
  1  9  1  0
  1 10  2  0
  5 11  2  0
 12 17  1  0
  3 13  1  0
  3 14  1  0
  8 15  2  0
 13 16  1  0
 14 17  1  0
  9 18  2  0
 10 19  1  0
  8 20  1  0
 19 21  2  0
 19 22  1  0
 18 21  1  0
  4 11  1  0
 12 16  1  0
M  END
>  <MOLFORMULA>  (10) 
C16 H14 F N3 O2

>  <MOLWEIGHT>  (10) 
2.993036000000000e+002

>  <IDNUMBER>  (10) 
AT-687/SK17429

>  <PRICE>  (10) 
EUR 80/10 mg

>  <Similarity score>  (10) 
0.20

$$$$

     RDKit          2D

 33 37  0  0  0  0  0  0  0  0999 V2000
    5.9750   -8.0542    0.0000 S   0  0  0  0  0  0  0  0  0  0  0  0
    4.6417   -8.0542    0.0000 C   0  0  0  0  0  0  0  0  0  0  0  0
    3.9750   -6.9042    0.0000 C   0  0  0  0  0  0  0  0  0  0  0  0
    2.6542   -6.9042    0.0000 C   0  0  0  0  0  0  0  0  0  0  0  0
    2.6542   -9.2042    0.0000 N   0  0  0  0  0  0  0  0  0  0  0  0
    1.9750   -8.0542    0.0000 C   0  0  0  0  0  0  0  0  0  0  0  0
    4.6417   -5.7500    0.0000 N   0  0  0  0  0  0  0  0  0  0  0  0
    3.9750   -9.2042    0.0000 C   0  0  0  0  0  0  0  0  0  0  0  0
    6.6417   -2.3042    0.0000 N   0  0  0  0  0  0  0  0  0  0  0  0
    7.3000   -8.0542    0.0000 C   0  0  0  0  0  0  0  0  0  0  0  0
    5.9750   -6.7292    0.0000 O   0  0  0  0  0  0  0  0  0  0  0  0
    5.9750   -9.3917    0.0000 O   0  0  0  0  0  0  0  0  0  0  0  0
    5.9750   -3.4542    0.0000 C   0  0  0  0  0  0  0  0  0  0  0  0
    4.6417   -3.4542    0.0000 C   0  0  0  0  0  0  0  0  0  0  0  0
    6.6417   -4.5917    0.0000 C   0  0  0  0  0  0  0  0  0  0  0  0
    3.9750   -4.5917    0.0000 C   0  0  0  0  0  0  0  0  0  0  0  0
    5.9750   -5.7500    0.0000 C   0  0  0  0  0  0  0  0  0  0  0  0
    0.6667   -8.0542    0.0000 C   0  0  0  0  0  0  0  0  0  0  0  0
    7.9750   -9.2042    0.0000 C   0  0  0  0  0  0  0  0  0  0  0  0
    7.9750   -6.9042    0.0000 C   0  0  0  0  0  0  0  0  0  0  0  0
    1.9750   -5.7500    0.0000 C   0  0  0  0  0  0  0  0  0  0  0  0
    9.9542   -8.0542    0.0000 C   0  0  0  0  0  0  0  0  0  0  0  0
    0.0000   -9.2042    0.0000 F   0  0  0  0  0  0  0  0  0  0  0  0
    9.3125   -6.9042    0.0000 C   0  0  0  0  0  0  0  0  0  0  0  0
    9.3125   -9.2042    0.0000 C   0  0  0  0  0  0  0  0  0  0  0  0
   11.3000   -8.0542    0.0000 F   0  0  0  0  0  0  0  0  0  0  0  0
    5.9750   -1.1500    0.0000 C   0  0  0  0  0  0  0  0  0  0  0  0
    7.9750   -2.3042    0.0000 C   0  0  0  0  0  0  0  0  0  0  0  0
    0.6667   -5.7500    0.0000 C   0  0  0  0  0  0  0  0  0  0  0  0
    0.0000   -6.9042    0.0000 C   0  0  0  0  0  0  0  0  0  0  0  0
    6.6417   -0.0000    0.0000 C   0  0  0  0  0  0  0  0  0  0  0  0
    8.6417   -1.1500    0.0000 C   0  0  0  0  0  0  0  0  0  0  0  0
    7.9750   -0.0000    0.0000 C   0  0  0  0  0  0  0  0  0  0  0  0
  1  2  1  0
  2  3  2  0
  3  4  1  0
  5  8  2  0
  5  6  1  0
  3  7  1  0
  2  8  1  0
  9 13  1  0
  1 10  1  0
  1 11  2  0
  1 12  2  0
 13 15  1  0
 14 16  1  0
 15 17  1  0
  7 16  1  0
  7 17  1  0
  6 18  2  0
 10 19  2  0
 10 20  1  0
  4 21  2  0
 22 24  1  0
 18 23  1  0
 20 24  2  0
 19 25  1  0
 22 26  1  0
  9 27  1  0
  9 28  1  0
 21 29  1  0
 18 30  1  0
 27 31  1  0
 28 32  1  0
 32 33  1  0
 22 25  2  0
  4  6  1  0
 13 14  1  0
 29 30  2  0
 31 33  1  0
M  END
>  <MOLFORMULA>  (11) 
C25 H27 F2 N3 O2 S

>  <MOLWEIGHT>  (11) 
4.715693000000000e+002

>  <IDNUMBER>  (11) 
AT-687/NB06792

>  <PRICE>  (11) 
EUR 80/10 mg

>  <Similarity score>  (11) 
0.20

$$$$

     RDKit          2D

 33 37  0  0  0  0  0  0  0  0999 V2000
    5.9792   -6.8292    0.0000 S   0  0  0  0  0  0  0  0  0  0  0  0
    4.6375   -6.8292    0.0000 C   0  0  0  0  0  0  0  0  0  0  0  0
    3.9667   -5.6792    0.0000 C   0  0  0  0  0  0  0  0  0  0  0  0
    2.6625   -5.6792    0.0000 C   0  0  0  0  0  0  0  0  0  0  0  0
    2.6625   -7.9792    0.0000 N   0  0  0  0  0  0  0  0  0  0  0  0
    1.9917   -6.8292    0.0000 C   0  0  0  0  0  0  0  0  0  0  0  0
    4.6375   -4.5375    0.0000 N   0  0  0  0  0  0  0  0  0  0  0  0
    3.9667   -7.9792    0.0000 C   0  0  0  0  0  0  0  0  0  0  0  0
    7.3042   -6.8292    0.0000 C   0  0  0  0  0  0  0  0  0  0  0  0
    5.9792   -5.4917    0.0000 O   0  0  0  0  0  0  0  0  0  0  0  0
    5.9792   -8.1625    0.0000 O   0  0  0  0  0  0  0  0  0  0  0  0
    7.9667   -1.0542    0.0000 N   0  0  0  0  0  0  0  0  0  0  0  0
    0.6625   -6.8292    0.0000 C   0  0  0  0  0  0  0  0  0  0  0  0
    3.9667   -3.3750    0.0000 C   0  0  0  0  0  0  0  0  0  0  0  0
    5.9792   -4.5375    0.0000 C   0  0  0  0  0  0  0  0  0  0  0  0
    7.9667   -7.9792    0.0000 C   0  0  0  0  0  0  0  0  0  0  0  0
    7.9667   -5.6792    0.0000 C   0  0  0  0  0  0  0  0  0  0  0  0
    6.6500   -1.0542    0.0000 C   0  0  0  0  0  0  0  0  0  0  0  0
    1.9917   -4.5375    0.0000 C   0  0  0  0  0  0  0  0  0  0  0  0
    9.9542   -6.8292    0.0000 C   0  0  0  0  0  0  0  0  0  0  0  0
    0.0000   -7.9792    0.0000 F   0  0  0  0  0  0  0  0  0  0  0  0
    9.3000   -5.6792    0.0000 C   0  0  0  0  0  0  0  0  0  0  0  0
    9.3000   -7.9792    0.0000 C   0  0  0  0  0  0  0  0  0  0  0  0
    4.6375   -2.2167    0.0000 C   0  0  0  0  0  0  0  0  0  0  0  0
    6.6500   -3.3750    0.0000 C   0  0  0  0  0  0  0  0  0  0  0  0
    5.9792   -2.2167    0.0000 C   0  0  0  0  0  0  0  0  0  0  0  0
   11.2875   -6.8292    0.0000 F   0  0  0  0  0  0  0  0  0  0  0  0
    8.7542   -2.1417    0.0000 C   0  0  0  0  0  0  0  0  0  0  0  0
    8.7542   -0.0000    0.0000 C   0  0  0  0  0  0  0  0  0  0  0  0
    0.6625   -4.5375    0.0000 C   0  0  0  0  0  0  0  0  0  0  0  0
    0.0000   -5.6792    0.0000 C   0  0  0  0  0  0  0  0  0  0  0  0
   10.0208   -1.7375    0.0000 C   0  0  0  0  0  0  0  0  0  0  0  0
   10.0208   -0.4042    0.0000 C   0  0  0  0  0  0  0  0  0  0  0  0
  1  2  1  0
  2  3  2  0
  3  4  1  0
  5  8  2  0
  5  6  1  0
  3  7  1  0
  2  8  1  0
  1  9  1  0
  1 10  2  0
  1 11  2  0
 12 18  1  0
  6 13  2  0
  7 14  1  0
  7 15  1  0
  9 16  2  0
  9 17  1  0
 18 26  1  0
  4 19  2  0
 20 22  1  0
 13 21  1  0
 17 22  2  0
 16 23  1  0
 14 24  1  0
 15 25  1  0
 25 26  1  0
 20 27  1  0
 12 28  1  0
 12 29  1  0
 19 30  1  0
 13 31  1  0
 28 32  1  0
 29 33  1  0
 20 23  2  0
  4  6  1  0
 30 31  2  0
 24 26  1  0
 32 33  1  0
M  END
>  <MOLFORMULA>  (12) 
C25 H27 F2 N3 O2 S

>  <MOLWEIGHT>  (12) 
4.715693000000000e+002

>  <IDNUMBER>  (12) 
AT-687/NB06795

>  <PRICE>  (12) 
EUR 80/10 mg

>  <Similarity score>  (12) 
0.20

$$$$

     RDKit          2D

 29 32  0  0  0  0  0  0  0  0999 V2000
    0.2500   -1.6625    0.0000 S   0  0  0  0  0  0  0  0  0  0  0  0
   -0.7583   -1.6625    0.0000 C   0  0  0  0  0  0  0  0  0  0  0  0
   -1.2583   -0.7917    0.0000 C   0  0  0  0  0  0  0  0  0  0  0  0
   -2.2500   -0.7917    0.0000 C   0  0  0  0  0  0  0  0  0  0  0  0
   -2.2500   -2.5292    0.0000 N   0  0  0  0  0  0  0  0  0  0  0  0
   -2.7583   -1.6625    0.0000 C   0  0  0  0  0  0  0  0  0  0  0  0
   -0.7583    0.0708    0.0000 C   0  0  0  0  0  0  0  0  0  0  0  0
   -1.2583   -2.5292    0.0000 C   0  0  0  0  0  0  0  0  0  0  0  0
   -3.7500   -1.6625    0.0000 C   0  0  0  0  0  0  0  0  0  0  0  0
    1.2417   -1.6625    0.0000 C   0  0  0  0  0  0  0  0  0  0  0  0
   -4.2500   -0.7917    0.0000 C   0  0  0  0  0  0  0  0  0  0  0  0
    0.2500   -0.6625    0.0000 O   0  0  0  0  0  0  0  0  0  0  0  0
    0.2500   -2.6625    0.0000 O   0  0  0  0  0  0  0  0  0  0  0  0
   -2.7583    0.0708    0.0000 C   0  0  0  0  0  0  0  0  0  0  0  0
   -3.7500    0.0708    0.0000 C   0  0  0  0  0  0  0  0  0  0  0  0
   -1.2583    0.9333    0.0000 C   0  0  0  0  0  0  0  0  0  0  0  0
    1.7417   -2.5292    0.0000 C   0  0  0  0  0  0  0  0  0  0  0  0
    1.7417   -0.7917    0.0000 C   0  0  0  0  0  0  0  0  0  0  0  0
   -4.2500   -2.5292    0.0000 F   0  0  0  0  0  0  0  0  0  0  0  0
   -0.7583    1.8000    0.0000 C   0  0  0  0  0  0  0  0  0  0  0  0
    3.2417   -1.6625    0.0000 C   0  0  0  0  0  0  0  0  0  0  0  0
   -4.2500    0.9333    0.0000 Cl  0  0  0  0  0  0  0  0  0  0  0  0
    2.7500   -0.7917    0.0000 C   0  0  0  0  0  0  0  0  0  0  0  0
    2.7500   -2.5292    0.0000 C   0  0  0  0  0  0  0  0  0  0  0  0
   -1.2583    2.6708    0.0000 F   0  0  0  0  0  0  0  0  0  0  0  0
    4.2500   -1.6625    0.0000 F   0  0  0  0  0  0  0  0  0  0  0  0
    0.2500    0.0708    0.0000 C   0  0  0  0  0  0  0  0  0  0  0  0
    0.7500    0.9333    0.0000 C   0  0  0  0  0  0  0  0  0  0  0  0
    0.2500    1.8000    0.0000 C   0  0  0  0  0  0  0  0  0  0  0  0
  1  2  1  0
  2  3  2  0
  3  4  1  0
  5  8  2  0
  5  6  1  0
  3  7  1  0
  2  8  1  0
  6  9  2  0
  1 10  1  0
  9 11  1  0
  1 12  2  0
  1 13  2  0
  4 14  2  0
 14 15  1  0
  7 16  2  0
 10 17  2  0
 10 18  1  0
  9 19  1  0
 16 20  1  0
 21 23  1  0
 15 22  1  0
 18 23  2  0
 17 24  1  0
 20 25  1  0
 21 26  1  0
  7 27  1  0
 27 28  2  0
 28 29  1  0
 21 24  2  0
  4  6  1  0
 11 15  2  0
 20 29  2  0
M  END
>  <MOLFORMULA>  (13) 
C21 H11 Cl F3 N O2 S

>  <MOLWEIGHT>  (13) 
4.338359000000000e+002

>  <IDNUMBER>  (13) 
AT-687/PE25811

>  <PRICE>  (13) 
EUR 80/10 mg

>  <Similarity score>  (13) 
0.20

$$$$

     RDKit          2D

 26 30  0  0  0  0  0  0  0  0999 V2000
   -0.6458    1.4625    0.0000 N   0  0  0  0  0  0  0  0  0  0  0  0
    0.3500    1.5583    0.0000 C   0  0  0  0  0  0  0  0  0  0  0  0
    0.9333    0.7458    0.0000 N   0  0  0  0  0  0  0  0  0  0  0  0
    0.5208   -0.1625    0.0000 C   0  0  0  0  0  0  0  0  0  0  0  0
   -1.0583    0.5542    0.0000 C   0  0  0  0  0  0  0  0  0  0  0  0
   -0.4750   -0.2625    0.0000 C   0  0  0  0  0  0  0  0  0  0  0  0
    0.7667    2.4708    0.0000 N   0  0  0  0  0  0  0  0  0  0  0  0
   -0.8917   -1.1708    0.0000 C   0  0  0  0  0  0  0  0  0  0  0  0
   -0.3083   -1.9833    0.0000 C   0  0  0  0  0  0  0  0  0  0  0  0
    1.2667   -2.7000    0.0000 C   0  0  0  0  0  0  0  0  0  0  0  0
   -2.0542    0.4542    0.0000 N   0  0  0  0  0  0  0  0  0  0  0  0
    0.6875   -1.8875    0.0000 C   0  0  0  0  0  0  0  0  0  0  0  0
    1.1000   -0.9792    0.0000 O   0  0  0  0  0  0  0  0  0  0  0  0
    0.8542   -3.6125    0.0000 C   0  0  0  0  0  0  0  0  0  0  0  0
    2.2625   -2.8125    0.0000 O   0  0  0  0  0  0  0  0  0  0  0  0
    1.5917   -4.2875    0.0000 O   0  0  0  0  0  0  0  0  0  0  0  0
    2.4625   -3.7917    0.0000 C   0  0  0  0  0  0  0  0  0  0  0  0
   -0.7208   -2.8958    0.0000 C   0  0  0  0  0  0  0  0  0  0  0  0
   -0.1417   -3.7083    0.0000 C   0  0  0  0  0  0  0  0  0  0  0  0
   -2.4667   -0.4542    0.0000 C   0  0  0  0  0  0  0  0  0  0  0  0
   -1.8833   -1.2667    0.0000 C   0  0  0  0  0  0  0  0  0  0  0  0
    1.7625    2.5667    0.0000 C   0  0  0  0  0  0  0  0  0  0  0  0
    0.1833    3.2833    0.0000 C   0  0  0  0  0  0  0  0  0  0  0  0
    0.5958    4.1917    0.0000 C   0  0  0  0  0  0  0  0  0  0  0  0
    2.1750    3.4792    0.0000 C   0  0  0  0  0  0  0  0  0  0  0  0
    1.5917    4.2875    0.0000 C   0  0  0  0  0  0  0  0  0  0  0  0
  1  2  2  0
  2  3  1  0
  4  6  1  0
  1  5  1  0
  5  6  2  0
  2  7  1  0
  6  8  1  0
  8  9  1  0
 10 12  2  0
  5 11  1  0
  9 12  1  0
  4 13  2  0
 14 19  2  0
 10 15  1  0
 14 16  1  0
 15 17  1  0
  9 18  2  0
 18 19  1  0
 11 20  2  0
 20 21  1  0
  7 22  1  0
  7 23  1  0
 23 24  1  0
 22 25  1  0
 24 26  1  0
  3  4  1  0
  8 21  2  0
 25 26  1  0
 10 14  1  0
 16 17  1  0
M  END
>  <MOLFORMULA>  (14) 
C19 H18 N4 O3

>  <MOLWEIGHT>  (14) 
3.503762000000000e+002

>  <IDNUMBER>  (14) 
AN-153/J107084

>  <PRICE>  (14) 
EUR 130/10 mg

>  <Similarity score>  (14) 
0.20

$$$$

     RDKit          2D

 26 30  0  0  0  0  0  0  0  0999 V2000
   -0.4917   -1.7042    0.0000 N   0  0  0  0  0  0  0  0  0  0  0  0
    0.4875   -1.9167    0.0000 C   0  0  0  0  0  0  0  0  0  0  0  0
    1.1583   -1.1750    0.0000 N   0  0  0  0  0  0  0  0  0  0  0  0
    0.8500   -0.2208    0.0000 C   0  0  0  0  0  0  0  0  0  0  0  0
   -0.8000   -0.7542    0.0000 C   0  0  0  0  0  0  0  0  0  0  0  0
   -0.1292   -0.0125    0.0000 C   0  0  0  0  0  0  0  0  0  0  0  0
    0.7958   -2.8667    0.0000 N   0  0  0  0  0  0  0  0  0  0  0  0
   -0.4375    0.9375    0.0000 C   0  0  0  0  0  0  0  0  0  0  0  0
    0.2333    1.6792    0.0000 C   0  0  0  0  0  0  0  0  0  0  0  0
    0.5958    3.3750    0.0000 C   0  0  0  0  0  0  0  0  0  0  0  0
   -1.7750   -0.5458    0.0000 N   0  0  0  0  0  0  0  0  0  0  0  0
   -0.0708    2.6333    0.0000 C   0  0  0  0  0  0  0  0  0  0  0  0
    1.5208    0.5208    0.0000 O   0  0  0  0  0  0  0  0  0  0  0  0
    1.5750    3.1667    0.0000 C   0  0  0  0  0  0  0  0  0  0  0  0
    0.4958    4.3667    0.0000 O   0  0  0  0  0  0  0  0  0  0  0  0
    2.0750    4.0250    0.0000 O   0  0  0  0  0  0  0  0  0  0  0  0
    1.4083    4.7708    0.0000 C   0  0  0  0  0  0  0  0  0  0  0  0
    1.2125    1.4708    0.0000 C   0  0  0  0  0  0  0  0  0  0  0  0
    1.8833    2.2125    0.0000 C   0  0  0  0  0  0  0  0  0  0  0  0
    1.4083   -4.7708    0.0000 O   0  0  0  0  0  0  0  0  0  0  0  0
   -2.0833    0.4083    0.0000 C   0  0  0  0  0  0  0  0  0  0  0  0
   -1.4125    1.1500    0.0000 C   0  0  0  0  0  0  0  0  0  0  0  0
    0.1250   -3.6083    0.0000 C   0  0  0  0  0  0  0  0  0  0  0  0
    1.7708   -3.0750    0.0000 C   0  0  0  0  0  0  0  0  0  0  0  0
    0.4292   -4.5625    0.0000 C   0  0  0  0  0  0  0  0  0  0  0  0
    2.0792   -4.0292    0.0000 C   0  0  0  0  0  0  0  0  0  0  0  0
  1  2  2  0
  2  3  1  0
  4  6  1  0
  1  5  1  0
  5  6  2  0
  2  7  1  0
  6  8  1  0
  8  9  1  0
 10 12  2  0
  5 11  1  0
  9 12  1  0
  4 13  2  0
 14 19  2  0
 10 15  1  0
 14 16  1  0
 15 17  1  0
  9 18  2  0
 18 19  1  0
 20 26  1  0
 11 21  2  0
 21 22  1  0
  7 23  1  0
  7 24  1  0
 23 25  1  0
 24 26  1  0
  3  4  1  0
  8 22  2  0
 20 25  1  0
 10 14  1  0
 16 17  1  0
M  END
>  <MOLFORMULA>  (15) 
C18 H16 N4 O4

>  <MOLWEIGHT>  (15) 
3.523484000000000e+002

>  <IDNUMBER>  (15) 
AN-153/J107076

>  <PRICE>  (15) 
EUR 130/10 mg

>  <Similarity score>  (15) 
0.20

$$$$

     RDKit          2D

 24 27  0  0  0  0  0  0  0  0999 V2000
    6.6625   -3.0500    0.0000 N   0  0  0  0  0  0  0  0  0  0  0  0
    5.9500   -2.6375    0.0000 C   0  0  0  0  0  0  0  0  0  0  0  0
    7.3792   -2.6375    0.0000 C   0  0  0  0  0  0  0  0  0  0  0  0
    5.9500   -1.8125    0.0000 C   0  0  0  0  0  0  0  0  0  0  0  0
    5.2292   -3.0500    0.0000 N   0  0  0  0  0  0  0  0  0  0  0  0
    7.3792   -1.8042    0.0000 N   0  0  0  0  0  0  0  0  0  0  0  0
   10.1917   -2.6667    0.0000 C   0  0  0  0  0  0  0  0  0  0  0  0
    8.0917   -3.8750    0.0000 N   0  0  0  0  0  0  0  0  0  0  0  0
   10.8792   -3.0542    0.0000 C   0  0  0  0  0  0  0  0  0  0  0  0
   10.1917   -1.8792    0.0000 O   0  0  0  0  0  0  0  0  0  0  0  0
    6.6625   -1.3917    0.0000 C   0  0  0  0  0  0  0  0  0  0  0  0
   11.5625   -2.6542    0.0000 O   0  0  0  0  0  0  0  0  0  0  0  0
    8.0917   -3.0500    0.0000 N   0  0  0  0  0  0  0  0  0  0  0  0
   11.1542   -1.7792    0.0000 C   0  0  0  0  0  0  0  0  0  0  0  0
    9.5125   -3.0750    0.0000 C   0  0  0  0  0  0  0  0  0  0  0  0
   10.8917   -3.8500    0.0000 C   0  0  0  0  0  0  0  0  0  0  0  0
    5.2375   -1.4000    0.0000 F   0  0  0  0  0  0  0  0  0  0  0  0
    8.8125   -4.2792    0.0000 C   0  0  0  0  0  0  0  0  0  0  0  0
    9.5250   -3.8667    0.0000 C   0  0  0  0  0  0  0  0  0  0  0  0
   10.2042   -4.2542    0.0000 C   0  0  0  0  0  0  0  0  0  0  0  0
    4.4875   -2.7125    0.0000 C   0  0  0  0  0  0  0  0  0  0  0  0
    5.1542   -3.8667    0.0000 C   0  0  0  0  0  0  0  0  0  0  0  0
    4.3417   -4.0417    0.0000 C   0  0  0  0  0  0  0  0  0  0  0  0
    3.9292   -3.3250    0.0000 C   0  0  0  0  0  0  0  0  0  0  0  0
  1  2  1  0
  1  3  2  0
  2  4  2  0
  2  5  1  0
  3  6  1  0
  7 15  1  0
  8 13  1  0
  9 16  1  0
  7 10  1  0
  6 11  2  0
  9 12  1  0
  3 13  1  0
 10 14  1  0
 15 19  2  0
 16 20  2  0
  4 17  1  0
  8 18  2  0
 18 19  1  0
 19 20  1  0
  5 21  1  0
  5 22  1  0
 22 23  1  0
 21 24  1  0
  4 11  1  0
 23 24  1  0
  7  9  2  0
 12 14  1  0
M  END
>  <MOLFORMULA>  (16) 
C16 H16 F N5 O2

>  <MOLWEIGHT>  (16) 
3.293334000000000e+002

>  <IDNUMBER>  (16) 
AT-138/QI01021

>  <CHIRALFLAG>  (16) 
-

>  <PRICE>  (16) 
EUR 125.00/10 mg

>  <Similarity score>  (16) 
0.20

$$$$

     RDKit          2D

 27 31  0  0  0  0  0  0  0  0999 V2000
   -2.9375   -6.7125    0.0000 C   0  0  0  0  0  0  0  0  0  0  0  0
   -2.9375   -5.9542    0.0000 C   0  0  0  0  0  0  0  0  0  0  0  0
   -3.5958   -7.0875    0.0000 N   0  0  0  0  0  0  0  0  0  0  0  0
   -3.6125   -5.5792    0.0000 C   0  0  0  0  0  0  0  0  0  0  0  0
   -2.2833   -7.0875    0.0000 C   0  0  0  0  0  0  0  0  0  0  0  0
   -3.6125   -4.7917    0.0000 N   0  0  0  0  0  0  0  0  0  0  0  0
   -4.2458   -5.9542    0.0000 C   0  0  0  0  0  0  0  0  0  0  0  0
   -4.2458   -6.7125    0.0000 C   0  0  0  0  0  0  0  0  0  0  0  0
   -1.6333   -6.7125    0.0000 C   0  0  0  0  0  0  0  0  0  0  0  0
   -2.2833   -5.5792    0.0000 C   0  0  0  0  0  0  0  0  0  0  0  0
   -3.6125   -3.2875    0.0000 N   0  0  0  0  0  0  0  0  0  0  0  0
   -2.2833   -7.8417    0.0000 C   0  0  0  0  0  0  0  0  0  0  0  0
   -1.6333   -5.9542    0.0000 C   0  0  0  0  0  0  0  0  0  0  0  0
   -0.9833   -7.0875    0.0000 C   0  0  0  0  0  0  0  0  0  0  0  0
   -2.9625   -4.4167    0.0000 C   0  0  0  0  0  0  0  0  0  0  0  0
   -4.2708   -4.4167    0.0000 C   0  0  0  0  0  0  0  0  0  0  0  0
   -4.2708   -3.6625    0.0000 C   0  0  0  0  0  0  0  0  0  0  0  0
   -2.9583   -3.6667    0.0000 C   0  0  0  0  0  0  0  0  0  0  0  0
   -0.9833   -7.8417    0.0000 C   0  0  0  0  0  0  0  0  0  0  0  0
   -1.6333   -8.2167    0.0000 C   0  0  0  0  0  0  0  0  0  0  0  0
   -4.9083   -5.5792    0.0000 C   0  0  0  0  0  0  0  0  0  0  0  0
   -0.3333   -8.2167    0.0000 O   0  0  0  0  0  0  0  0  0  0  0  0
   -3.6083   -2.5375    0.0000 C   0  0  0  0  0  0  0  0  0  0  0  0
   -4.9083   -7.0875    0.0000 C   0  0  0  0  0  0  0  0  0  0  0  0
   -0.3333   -8.9667    0.0000 C   0  0  0  0  0  0  0  0  0  0  0  0
   -5.5458   -5.9542    0.0000 C   0  0  0  0  0  0  0  0  0  0  0  0
   -5.5458   -6.7125    0.0000 C   0  0  0  0  0  0  0  0  0  0  0  0
  1  2  2  0
  1  3  1  0
  2  4  1  0
  1  5  1  0
  4  6  1  0
  7  8  1  0
  3  8  2  0
  5  9  2  0
  2 10  1  0
 11 17  1  0
  5 12  1  0
  9 13  1  0
  9 14  1  0
  6 15  1  0
  6 16  1  0
 16 17  1  0
 15 18  1  0
 19 20  1  0
 12 20  2  0
  7 21  1  0
 19 22  1  0
 11 23  1  0
  8 24  1  0
 22 25  1  0
 26 27  1  0
 24 27  2  0
 10 13  1  0
  4  7  2  0
 14 19  2  0
 21 26  2  0
 11 18  1  0
M  END
>  <MOLFORMULA>  (17) 
C23 H25 N3 O

>  <MOLWEIGHT>  (17) 
3.594705000000000e+002

>  <IDNUMBER>  (17) 
AT-225/JK06945

>  <PRICE>  (17) 
EUR 140/10 mg

>  <Similarity score>  (17) 
0.20

$$$$

     RDKit          2D

 27 31  0  0  0  0  0  0  0  0999 V2000
    5.3958   -7.8167    0.0000 C   0  0  0  0  0  0  0  0  0  0  0  0
    5.3958   -6.9875    0.0000 C   0  0  0  0  0  0  0  0  0  0  0  0
    4.6833   -8.2292    0.0000 N   0  0  0  0  0  0  0  0  0  0  0  0
    4.6833   -6.5750    0.0000 C   0  0  0  0  0  0  0  0  0  0  0  0
    6.1083   -8.2292    0.0000 C   0  0  0  0  0  0  0  0  0  0  0  0
    4.6833   -5.7458    0.0000 N   0  0  0  0  0  0  0  0  0  0  0  0
    3.9667   -6.9875    0.0000 C   0  0  0  0  0  0  0  0  0  0  0  0
    3.9667   -7.8167    0.0000 C   0  0  0  0  0  0  0  0  0  0  0  0
    6.8250   -7.8167    0.0000 C   0  0  0  0  0  0  0  0  0  0  0  0
    6.1083   -6.5750    0.0000 C   0  0  0  0  0  0  0  0  0  0  0  0
    4.6833   -4.0917    0.0000 N   0  0  0  0  0  0  0  0  0  0  0  0
    6.1083   -9.0583    0.0000 C   0  0  0  0  0  0  0  0  0  0  0  0
    6.8250   -6.9875    0.0000 C   0  0  0  0  0  0  0  0  0  0  0  0
    7.5417   -8.2292    0.0000 C   0  0  0  0  0  0  0  0  0  0  0  0
    5.4000   -5.3333    0.0000 C   0  0  0  0  0  0  0  0  0  0  0  0
    3.9708   -5.3333    0.0000 C   0  0  0  0  0  0  0  0  0  0  0  0
    3.9708   -4.5042    0.0000 C   0  0  0  0  0  0  0  0  0  0  0  0
    5.4000   -4.5042    0.0000 C   0  0  0  0  0  0  0  0  0  0  0  0
    7.5417   -9.0583    0.0000 C   0  0  0  0  0  0  0  0  0  0  0  0
    6.8208   -9.4708    0.0000 C   0  0  0  0  0  0  0  0  0  0  0  0
    3.2542   -6.5750    0.0000 C   0  0  0  0  0  0  0  0  0  0  0  0
    8.2667   -9.4750    0.0000 O   0  0  0  0  0  0  0  0  0  0  0  0
    4.6750   -3.2667    0.0000 C   0  0  0  0  0  0  0  0  0  0  0  0
    3.2542   -8.2292    0.0000 C   0  0  0  0  0  0  0  0  0  0  0  0
    8.9875   -9.0583    0.0000 C   0  0  0  0  0  0  0  0  0  0  0  0
    2.5375   -6.9875    0.0000 C   0  0  0  0  0  0  0  0  0  0  0  0
    2.5375   -7.8167    0.0000 C   0  0  0  0  0  0  0  0  0  0  0  0
  1  2  1  0
  1  3  2  0
  2  4  2  0
  1  5  1  0
  4  6  1  0
  7  8  1  0
  3  8  1  0
  5  9  2  0
  2 10  1  0
 11 17  1  0
  5 12  1  0
  9 13  1  0
  9 14  1  0
  6 15  1  0
  6 16  1  0
 16 17  1  0
 15 18  1  0
 19 20  1  0
 12 20  2  0
  7 21  2  0
 19 22  1  0
 11 23  1  0
  8 24  2  0
 22 25  1  0
 26 27  2  0
 24 27  1  0
 10 13  1  0
  4  7  1  0
 14 19  2  0
 21 26  1  0
 11 18  1  0
M  END
>  <MOLFORMULA>  (18) 
C23 H25 N3 O

>  <MOLWEIGHT>  (18) 
3.594705000000000e+002

>  <IDNUMBER>  (18) 
AT-225/NB48355

>  <SALTDATA>  (18) 
H2O

>  <PRICE>  (18) 
EUR 140/10 mg

>  <Similarity score>  (18) 
0.20

$$$$

     RDKit          2D

 23 25  0  0  0  0  0  0  0  0999 V2000
    4.5042   -1.7042    0.0000 C   0  0  0  0  0  0  0  0  0  0  0  0
    3.7917   -2.1250    0.0000 C   0  0  0  0  0  0  0  0  0  0  0  0
    4.5000   -0.8792    0.0000 N   0  0  0  0  0  0  0  0  0  0  0  0
    5.2167   -2.1167    0.0000 C   0  0  0  0  0  0  0  0  0  0  0  0
    3.7917   -2.9500    0.0000 C   0  0  0  0  0  0  0  0  0  0  0  0
    4.5125   -3.3625    0.0000 N   0  0  0  0  0  0  0  0  0  0  0  0
    5.9292   -1.7000    0.0000 C   0  0  0  0  0  0  0  0  0  0  0  0
    6.6417   -1.2792    0.0000 N   0  0  0  0  0  0  0  0  0  0  0  0
    4.5000    1.5875    0.0000 C   0  0  0  0  0  0  0  0  0  0  0  0
    3.0792   -1.7125    0.0000 C   0  0  0  0  0  0  0  0  0  0  0  0
    3.0792   -3.3667    0.0000 C   0  0  0  0  0  0  0  0  0  0  0  0
    5.2250   -2.9417    0.0000 C   0  0  0  0  0  0  0  0  0  0  0  0
    4.5000    0.7625    0.0000 C   0  0  0  0  0  0  0  0  0  0  0  0
    3.7875   -0.4792    0.0000 C   0  0  0  0  0  0  0  0  0  0  0  0
    5.2167   -0.4667    0.0000 C   0  0  0  0  0  0  0  0  0  0  0  0
    3.7792    2.0000    0.0000 O   0  0  0  0  0  0  0  0  0  0  0  0
    3.7875    0.3458    0.0000 C   0  0  0  0  0  0  0  0  0  0  0  0
    5.2167    0.3500    0.0000 C   0  0  0  0  0  0  0  0  0  0  0  0
    2.3667   -2.9542    0.0000 C   0  0  0  0  0  0  0  0  0  0  0  0
    2.3667   -2.1250    0.0000 C   0  0  0  0  0  0  0  0  0  0  0  0
    5.2125    2.0083    0.0000 O   0  0  0  0  0  0  0  0  0  0  0  0
    1.6542   -3.3625    0.0000 O   0  0  0  0  0  0  0  0  0  0  0  0
    1.6542   -4.1875    0.0000 C   0  0  0  0  0  0  0  0  0  0  0  0
  1  2  1  0
  1  3  1  0
  1  4  2  0
  2  5  1  0
  6 12  2  0
  4  7  1  0
  7  8  3  0
  9 13  1  0
  2 10  2  0
  5 11  2  0
  4 12  1  0
 13 18  1  0
  3 14  1  0
  3 15  1  0
  9 16  2  0
 14 17  1  0
 15 18  1  0
 19 20  2  0
 10 20  1  0
  9 21  1  0
 19 22  1  0
 22 23  1  0
  5  6  1  0
 13 17  1  0
 11 19  1  0
M  END
>  <MOLFORMULA>  (19) 
C17 H17 N3 O3

>  <MOLWEIGHT>  (19) 
3.113393000000000e+002

>  <IDNUMBER>  (19) 
AT-687/SK17441

>  <PRICE>  (19) 
EUR 80/10 mg

>  <Similarity score>  (19) 
0.20

$$$$

     RDKit          2D

 27 31  0  0  0  0  0  0  0  0999 V2000
    0.1000    2.2625    0.0000 N   0  0  0  0  0  0  0  0  0  0  0  0
   -0.6417    1.5917    0.0000 C   0  0  0  0  0  0  0  0  0  0  0  0
   -0.4333    0.6125    0.0000 N   0  0  0  0  0  0  0  0  0  0  0  0
    0.5167    0.3042    0.0000 C   0  0  0  0  0  0  0  0  0  0  0  0
    1.0500    1.9500    0.0000 C   0  0  0  0  0  0  0  0  0  0  0  0
    1.2583    0.9750    0.0000 C   0  0  0  0  0  0  0  0  0  0  0  0
   -1.5958    1.9000    0.0000 N   0  0  0  0  0  0  0  0  0  0  0  0
    2.2083    0.6625    0.0000 C   0  0  0  0  0  0  0  0  0  0  0  0
    2.4167   -0.3125    0.0000 C   0  0  0  0  0  0  0  0  0  0  0  0
    3.5792   -1.6000    0.0000 C   0  0  0  0  0  0  0  0  0  0  0  0
    1.7958    2.6208    0.0000 N   0  0  0  0  0  0  0  0  0  0  0  0
    3.3708   -0.6208    0.0000 C   0  0  0  0  0  0  0  0  0  0  0  0
   -3.4958    2.5167    0.0000 N   0  0  0  0  0  0  0  0  0  0  0  0
    0.7250   -0.6750    0.0000 O   0  0  0  0  0  0  0  0  0  0  0  0
    2.8333   -2.2708    0.0000 C   0  0  0  0  0  0  0  0  0  0  0  0
    4.4417   -2.1000    0.0000 O   0  0  0  0  0  0  0  0  0  0  0  0
    3.2417   -3.1833    0.0000 O   0  0  0  0  0  0  0  0  0  0  0  0
    4.2333   -3.0792    0.0000 C   0  0  0  0  0  0  0  0  0  0  0  0
   -2.3375    1.2333    0.0000 C   0  0  0  0  0  0  0  0  0  0  0  0
   -1.8000    2.8792    0.0000 C   0  0  0  0  0  0  0  0  0  0  0  0
    1.6750   -0.9833    0.0000 C   0  0  0  0  0  0  0  0  0  0  0  0
    1.8833   -1.9625    0.0000 C   0  0  0  0  0  0  0  0  0  0  0  0
   -2.7542    3.1875    0.0000 C   0  0  0  0  0  0  0  0  0  0  0  0
   -3.2875    1.5417    0.0000 C   0  0  0  0  0  0  0  0  0  0  0  0
    2.7458    2.3125    0.0000 C   0  0  0  0  0  0  0  0  0  0  0  0
    2.9542    1.3333    0.0000 C   0  0  0  0  0  0  0  0  0  0  0  0
   -4.4458    2.8292    0.0000 C   0  0  0  0  0  0  0  0  0  0  0  0
  1  2  2  0
  2  3  1  0
  4  6  1  0
  1  5  1  0
  5  6  1  0
  2  7  1  0
  6  8  2  0
  8  9  1  0
 10 12  1  0
  5 11  2  0
  9 12  2  0
 13 24  1  0
  4 14  2  0
 15 22  1  0
 10 16  1  0
 15 17  1  0
 16 18  1  0
  7 19  1  0
  7 20  1  0
  9 21  1  0
 21 22  2  0
 20 23  1  0
 19 24  1  0
 11 25  1  0
 25 26  2  0
 13 27  1  0
  3  4  1  0
  8 26  1  0
 13 23  1  0
 10 15  2  0
 17 18  1  0
M  END
>  <MOLFORMULA>  (20) 
C19 H19 N5 O3

>  <MOLWEIGHT>  (20) 
3.653911000000000e+002

>  <IDNUMBER>  (20) 
AN-153/NB25804

>  <PRICE>  (20) 
EUR 130/10 mg

>  <Similarity score>  (20) 
0.20

$$$$

     RDKit          2D

 23 25  0  0  0  0  0  0  0  0999 V2000
    4.8333    6.2500    0.0000 C   0  0  0  0  0  0  0  0  0  0  0  0
    4.8375    7.6500    0.0000 N   0  0  0  0  0  0  0  0  0  0  0  0
    3.6167    5.5583    0.0000 C   0  0  0  0  0  0  0  0  0  0  0  0
    3.6250    8.3500    0.0000 C   0  0  0  0  0  0  0  0  0  0  0  0
    2.4125    7.6500    0.0000 N   0  0  0  0  0  0  0  0  0  0  0  0
    6.0417    5.5458    0.0000 C   0  0  0  0  0  0  0  0  0  0  0  0
    2.4125    6.2542    0.0000 C   0  0  0  0  0  0  0  0  0  0  0  0
    3.6167    4.1708    0.0000 C   0  0  0  0  0  0  0  0  0  0  0  0
    7.2583    6.2417    0.0000 C   0  0  0  0  0  0  0  0  0  0  0  0
    3.6250    9.7500    0.0000 O   0  0  0  0  0  0  0  0  0  0  0  0
    2.4125    3.4792    0.0000 C   0  0  0  0  0  0  0  0  0  0  0  0
    1.2125    5.5583    0.0000 C   0  0  0  0  0  0  0  0  0  0  0  0
    2.4125    2.0833    0.0000 O   0  0  0  0  0  0  0  0  0  0  0  0
    1.2000    1.3958    0.0000 C   0  0  0  0  0  0  0  0  0  0  0  0
    1.2125    4.1708    0.0000 C   0  0  0  0  0  0  0  0  0  0  0  0
    7.2625    7.6417    0.0000 F   0  0  0  0  0  0  0  0  0  0  0  0
    6.0333    4.1458    0.0000 C   0  0  0  0  0  0  0  0  0  0  0  0
    8.4667    5.5333    0.0000 C   0  0  0  0  0  0  0  0  0  0  0  0
    1.2000   -0.0000    0.0000 C   0  0  0  0  0  0  0  0  0  0  0  0
    0.0000    2.0833    0.0000 C   0  0  0  0  0  0  0  0  0  0  0  0
    0.0000    0.7000    0.0000 C   0  0  0  0  0  0  0  0  0  0  0  0
    7.2458    3.4458    0.0000 C   0  0  0  0  0  0  0  0  0  0  0  0
    8.4583    4.1333    0.0000 C   0  0  0  0  0  0  0  0  0  0  0  0
  1  2  2  0
  1  3  1  0
  2  4  1  0
  5  7  1  0
  1  6  1  0
  3  7  2  0
  3  8  1  0
  6  9  1  0
  4 10  2  0
  8 11  2  0
  7 12  1  0
 11 13  1  0
 13 14  1  0
 12 15  2  0
  9 16  1  0
  6 17  2  0
  9 18  2  0
 14 19  1  0
 14 20  1  0
 14 21  1  0
 17 22  1  0
 18 23  1  0
  4  5  1  0
 11 15  1  0
 22 23  2  0
M  END
>  <MOLFORMULA>  (21) 
C18 H17 F N2 O2

>  <MOLWEIGHT>  (21) 
3.123423000000000e+002

>  <IDNUMBER>  (21) 
AT-819/OC12801

>  <PRICE>  (21) 
EUR 192/10 mg

>  <Similarity score>  (21) 
0.20

$$$$

     RDKit          2D

 18 21  0  0  0  0  0  0  0  0999 V2000
    3.1042    0.1958    0.0000 C   0  0  0  0  0  0  0  0  0  0  0  0
    1.8042   -0.5542    0.0000 C   0  0  0  0  0  0  0  0  0  0  0  0
    0.5042    0.1958    0.0000 C   0  0  0  0  0  0  0  0  0  0  0  0
    3.1042    1.6958    0.0000 C   0  0  0  0  0  0  0  0  0  0  0  0
   -0.7875   -0.5542    0.0000 C   0  0  0  0  0  0  0  0  0  0  0  0
    5.7042    0.1958    0.0000 N   0  0  0  0  0  0  0  0  0  0  0  0
    4.4042   -0.5542    0.0000 N   0  0  0  0  0  0  0  0  0  0  0  0
   -0.7875   -2.0542    0.0000 C   0  0  0  0  0  0  0  0  0  0  0  0
    1.8042   -2.0542    0.0000 C   0  0  0  0  0  0  0  0  0  0  0  0
    0.5042    1.6958    0.0000 C   0  0  0  0  0  0  0  0  0  0  0  0
   -2.0875    0.1958    0.0000 C   0  0  0  0  0  0  0  0  0  0  0  0
    1.8042    2.4458    0.0000 C   0  0  0  0  0  0  0  0  0  0  0  0
    5.7042    1.6958    0.0000 C   0  0  0  0  0  0  0  0  0  0  0  0
    0.5042   -2.8042    0.0000 C   0  0  0  0  0  0  0  0  0  0  0  0
   -2.0875   -2.8042    0.0000 C   0  0  0  0  0  0  0  0  0  0  0  0
   -3.3875   -2.0542    0.0000 C   0  0  0  0  0  0  0  0  0  0  0  0
   -3.3875   -0.5542    0.0000 C   0  0  0  0  0  0  0  0  0  0  0  0
   -4.6875   -2.8042    0.0000 O   0  0  0  0  0  0  0  0  0  0  0  0
  1  2  1  0
  2  3  2  0
  1  4  2  0
  3  5  1  0
  6  7  1  0
  1  7  1  0
  8 14  1  0
  2  9  1  0
 10 12  1  0
  5 11  1  0
  4 12  1  0
  4 13  1  0
  9 14  2  0
  8 15  1  0
 15 16  2  0
 11 17  2  0
 16 18  1  0
  6 13  2  0
  3 10  1  0
  5  8  2  0
 16 17  1  0
M  END
>  <MOLFORMULA>  (22) 
C15 H12 N2 O

>  <MOLWEIGHT>  (22) 
2.362728000000000e+002

>  <IDNUMBER>  (22) 
AT-225/JK13034

>  <PRICE>  (22) 
EUR 140/10 mg

>  <Similarity score>  (22) 
0.20

$$$$

     RDKit          2D

 24 27  0  0  0  0  0  0  0  0999 V2000
   -0.5000    1.4917    0.0000 N   0  0  0  0  0  0  0  0  0  0  0  0
    0.4958    1.6083    0.0000 C   0  0  0  0  0  0  0  0  0  0  0  0
    1.0917    0.8042    0.0000 N   0  0  0  0  0  0  0  0  0  0  0  0
    0.6917   -0.1125    0.0000 C   0  0  0  0  0  0  0  0  0  0  0  0
   -0.8958    0.5750    0.0000 C   0  0  0  0  0  0  0  0  0  0  0  0
   -0.3000   -0.2292    0.0000 C   0  0  0  0  0  0  0  0  0  0  0  0
    0.8917    2.5250    0.0000 N   0  0  0  0  0  0  0  0  0  0  0  0
   -0.6958   -1.1458    0.0000 C   0  0  0  0  0  0  0  0  0  0  0  0
   -1.8875    0.4625    0.0000 N   0  0  0  0  0  0  0  0  0  0  0  0
    1.2875   -0.9167    0.0000 O   0  0  0  0  0  0  0  0  0  0  0  0
   -0.1000   -1.9500    0.0000 C   0  0  0  0  0  0  0  0  0  0  0  0
    1.6875    4.3583    0.0000 O   0  0  0  0  0  0  0  0  0  0  0  0
   -0.5000   -2.8667    0.0000 C   0  0  0  0  0  0  0  0  0  0  0  0
    0.8917   -1.8333    0.0000 C   0  0  0  0  0  0  0  0  0  0  0  0
    1.0917   -3.5542    0.0000 C   0  0  0  0  0  0  0  0  0  0  0  0
   -2.2875   -0.4583    0.0000 C   0  0  0  0  0  0  0  0  0  0  0  0
    0.0958   -3.6667    0.0000 C   0  0  0  0  0  0  0  0  0  0  0  0
    1.4875   -2.6375    0.0000 C   0  0  0  0  0  0  0  0  0  0  0  0
    1.6875   -4.3583    0.0000 F   0  0  0  0  0  0  0  0  0  0  0  0
   -1.6917   -1.2583    0.0000 C   0  0  0  0  0  0  0  0  0  0  0  0
    1.8875    2.6417    0.0000 C   0  0  0  0  0  0  0  0  0  0  0  0
    0.2958    3.3292    0.0000 C   0  0  0  0  0  0  0  0  0  0  0  0
    2.2833    3.5583    0.0000 C   0  0  0  0  0  0  0  0  0  0  0  0
    0.6917    4.2417    0.0000 C   0  0  0  0  0  0  0  0  0  0  0  0
  1  2  2  0
  2  3  1  0
  4  6  1  0
  1  5  1  0
  5  6  2  0
  2  7  1  0
  6  8  1  0
  5  9  1  0
  4 10  2  0
  8 11  1  0
 12 24  1  0
 11 13  2  0
 11 14  1  0
 15 18  1  0
  9 16  2  0
 13 17  1  0
 14 18  2  0
 15 19  1  0
 16 20  1  0
  7 21  1  0
  7 22  1  0
 21 23  1  0
 22 24  1  0
  3  4  1  0
  8 20  2  0
 12 23  1  0
 15 17  2  0
M  END
>  <MOLFORMULA>  (23) 
C17 H15 F N4 O2

>  <MOLWEIGHT>  (23) 
3.263295000000000e+002

>  <IDNUMBER>  (23) 
AN-153/J103479

>  <PRICE>  (23) 
EUR 130/10 mg

>  <Similarity score>  (23) 
0.20

$$$$

     RDKit          2D

 29 32  0  0  0  0  0  0  0  0999 V2000
   -0.4333    0.2500    0.0000 S   0  0  0  0  0  0  0  0  0  0  0  0
    0.4292   -0.2417    0.0000 C   0  0  0  0  0  0  0  0  0  0  0  0
    0.4292   -1.2500    0.0000 C   0  0  0  0  0  0  0  0  0  0  0  0
   -1.3000    0.7500    0.0000 C   0  0  0  0  0  0  0  0  0  0  0  0
    1.2917   -1.7500    0.0000 C   0  0  0  0  0  0  0  0  0  0  0  0
    2.1625   -0.2417    0.0000 N   0  0  0  0  0  0  0  0  0  0  0  0
    2.1625   -1.2500    0.0000 C   0  0  0  0  0  0  0  0  0  0  0  0
    1.2917    0.2500    0.0000 C   0  0  0  0  0  0  0  0  0  0  0  0
   -2.1708    0.2500    0.0000 C   0  0  0  0  0  0  0  0  0  0  0  0
   -1.3000    1.7583    0.0000 C   0  0  0  0  0  0  0  0  0  0  0  0
    0.0667    1.1208    0.0000 O   0  0  0  0  0  0  0  0  0  0  0  0
   -0.9333   -0.6125    0.0000 O   0  0  0  0  0  0  0  0  0  0  0  0
   -0.4333   -1.7500    0.0000 C   0  0  0  0  0  0  0  0  0  0  0  0
   -2.1708    2.2500    0.0000 C   0  0  0  0  0  0  0  0  0  0  0  0
   -3.0333    0.7500    0.0000 C   0  0  0  0  0  0  0  0  0  0  0  0
    3.0292   -1.7500    0.0000 C   0  0  0  0  0  0  0  0  0  0  0  0
   -3.0333    1.7583    0.0000 C   0  0  0  0  0  0  0  0  0  0  0  0
   -0.4333   -2.7500    0.0000 C   0  0  0  0  0  0  0  0  0  0  0  0
   -1.3000   -1.2500    0.0000 C   0  0  0  0  0  0  0  0  0  0  0  0
   -2.1708   -2.7500    0.0000 C   0  0  0  0  0  0  0  0  0  0  0  0
   -3.9000    0.2500    0.0000 F   0  0  0  0  0  0  0  0  0  0  0  0
   -2.1708    3.2500    0.0000 F   0  0  0  0  0  0  0  0  0  0  0  0
    3.8917   -1.2500    0.0000 F   0  0  0  0  0  0  0  0  0  0  0  0
    1.2917   -2.7500    0.0000 C   0  0  0  0  0  0  0  0  0  0  0  0
   -2.1708   -1.7500    0.0000 C   0  0  0  0  0  0  0  0  0  0  0  0
   -1.3000   -3.2500    0.0000 C   0  0  0  0  0  0  0  0  0  0  0  0
   -3.0333   -3.2500    0.0000 F   0  0  0  0  0  0  0  0  0  0  0  0
    2.1625   -3.2500    0.0000 C   0  0  0  0  0  0  0  0  0  0  0  0
    3.0292   -2.7500    0.0000 C   0  0  0  0  0  0  0  0  0  0  0  0
  1  2  1  0
  2  3  2  0
  1  4  1  0
  3  5  1  0
  6  8  2  0
  6  7  1  0
  2  8  1  0
  4  9  1  0
  4 10  2  0
  1 11  2  0
  1 12  2  0
  3 13  1  0
 10 14  1  0
  9 15  2  0
  7 16  1  0
 14 17  2  0
 13 18  1  0
 13 19  2  0
 20 25  2  0
 15 21  1  0
 14 22  1  0
 16 23  1  0
  5 24  1  0
 19 25  1  0
 18 26  2  0
 20 27  1  0
 24 28  2  0
 16 29  2  0
 15 17  1  0
  5  7  2  0
 20 26  1  0
 28 29  1  0
M  END
>  <MOLFORMULA>  (24) 
C21 H11 F4 N O2 S

>  <MOLWEIGHT>  (24) 
4.173809000000000e+002

>  <IDNUMBER>  (24) 
AT-687/PE13102

>  <PRICE>  (24) 
EUR 80/10 mg

>  <Similarity score>  (24) 
0.20

$$$$

     RDKit          2D

 31 35  0  0  0  0  0  0  0  0999 V2000
   -1.7375   -0.8000    0.0000 C   0  0  0  0  0  0  0  0  0  0  0  0
   -1.7583   -1.7917    0.0000 C   0  0  0  0  0  0  0  0  0  0  0  0
   -0.0125   -0.8125    0.0000 C   0  0  0  0  0  0  0  0  0  0  0  0
   -0.8750   -0.3000    0.0000 N   0  0  0  0  0  0  0  0  0  0  0  0
   -0.0208   -1.8125    0.0000 N   0  0  0  0  0  0  0  0  0  0  0  0
   -2.6958   -0.4792    0.0000 C   0  0  0  0  0  0  0  0  0  0  0  0
   -0.8958   -2.3125    0.0000 C   0  0  0  0  0  0  0  0  0  0  0  0
   -2.6958   -2.1000    0.0000 S   0  0  0  0  0  0  0  0  0  0  0  0
   -3.2833   -1.2917    0.0000 C   0  0  0  0  0  0  0  0  0  0  0  0
    0.8625   -0.3250    0.0000 N   0  0  0  0  0  0  0  0  0  0  0  0
   -2.9958    0.4625    0.0000 C   0  0  0  0  0  0  0  0  0  0  0  0
    2.6042    0.6625    0.0000 N   0  0  0  0  0  0  0  0  0  0  0  0
    3.4875    1.1458    0.0000 C   0  0  0  0  0  0  0  0  0  0  0  0
   -3.9833    0.6833    0.0000 C   0  0  0  0  0  0  0  0  0  0  0  0
   -4.2833    1.6208    0.0000 C   0  0  0  0  0  0  0  0  0  0  0  0
   -0.9083   -3.3125    0.0000 O   0  0  0  0  0  0  0  0  0  0  0  0
    0.8750    0.6833    0.0000 C   0  0  0  0  0  0  0  0  0  0  0  0
    1.7250   -0.8292    0.0000 C   0  0  0  0  0  0  0  0  0  0  0  0
   -3.6000    2.3625    0.0000 C   0  0  0  0  0  0  0  0  0  0  0  0
    1.7417    1.1625    0.0000 C   0  0  0  0  0  0  0  0  0  0  0  0
    2.5917   -0.3417    0.0000 C   0  0  0  0  0  0  0  0  0  0  0  0
   -2.3208    1.1958    0.0000 C   0  0  0  0  0  0  0  0  0  0  0  0
    3.4917    2.1458    0.0000 C   0  0  0  0  0  0  0  0  0  0  0  0
   -2.6333    2.1500    0.0000 C   0  0  0  0  0  0  0  0  0  0  0  0
   -5.2458    1.8458    0.0000 Cl  0  0  0  0  0  0  0  0  0  0  0  0
   -3.9083    3.3208    0.0000 Cl  0  0  0  0  0  0  0  0  0  0  0  0
    2.6292    2.6583    0.0000 F   0  0  0  0  0  0  0  0  0  0  0  0
    4.3500    0.6458    0.0000 C   0  0  0  0  0  0  0  0  0  0  0  0
    4.3625    2.6333    0.0000 C   0  0  0  0  0  0  0  0  0  0  0  0
    5.2167    1.1208    0.0000 C   0  0  0  0  0  0  0  0  0  0  0  0
    5.2417    2.1250    0.0000 C   0  0  0  0  0  0  0  0  0  0  0  0
  1  2  2  0
  3  4  2  0
  1  4  1  0
  3  5  1  0
  1  6  1  0
  2  7  1  0
  2  8  1  0
  6  9  2  0
  3 10  1  0
  6 11  1  0
 12 21  1  0
 12 13  1  0
 11 14  2  0
 14 15  1  0
  7 16  2  0
 10 17  1  0
 10 18  1  0
 19 24  1  0
 17 20  1  0
 18 21  1  0
 11 22  1  0
 13 23  1  0
 22 24  2  0
 15 25  1  0
 19 26  1  0
 23 27  1  0
 13 28  2  0
 23 29  2  0
 28 30  1  0
 30 31  2  0
  8  9  1  0
  5  7  1  0
 15 19  2  0
 12 20  1  0
 29 31  1  0
M  END
>  <MOLFORMULA>  (25) 
C22 H17 Cl2 F N4 O S

>  <MOLWEIGHT>  (25) 
4.753733000000000e+002

>  <IDNUMBER>  (25) 
AT-687/PE25900

>  <PRICE>  (25) 
EUR 80/10 mg

>  <Similarity score>  (25) 
0.20

$$$$

     RDKit          2D

 25 27  0  0  0  0  0  0  0  0999 V2000
    4.5917   -5.9917    0.0000 C   0  0  0  0  0  0  0  0  0  0  0  0
    3.4500   -6.6500    0.0000 C   0  0  0  0  0  0  0  0  0  0  0  0
    4.5750   -4.6542    0.0000 N   0  0  0  0  0  0  0  0  0  0  0  0
    5.7500   -6.6417    0.0000 C   0  0  0  0  0  0  0  0  0  0  0  0
    3.4500   -7.9792    0.0000 C   0  0  0  0  0  0  0  0  0  0  0  0
    4.6000   -8.6500    0.0000 N   0  0  0  0  0  0  0  0  0  0  0  0
    6.9000   -5.9667    0.0000 C   0  0  0  0  0  0  0  0  0  0  0  0
    8.0500   -5.3000    0.0000 N   0  0  0  0  0  0  0  0  0  0  0  0
    4.5750   -0.6667    0.0000 C   0  0  0  0  0  0  0  0  0  0  0  0
    2.2917   -5.9917    0.0000 C   0  0  0  0  0  0  0  0  0  0  0  0
    2.2917   -8.6500    0.0000 C   0  0  0  0  0  0  0  0  0  0  0  0
    5.7500   -7.9750    0.0000 C   0  0  0  0  0  0  0  0  0  0  0  0
    4.5750   -2.0000    0.0000 C   0  0  0  0  0  0  0  0  0  0  0  0
    3.4250   -4.0042    0.0000 C   0  0  0  0  0  0  0  0  0  0  0  0
    5.7250   -3.9917    0.0000 C   0  0  0  0  0  0  0  0  0  0  0  0
    3.4250   -0.0000    0.0000 O   0  0  0  0  0  0  0  0  0  0  0  0
    5.7250   -2.6667    0.0000 C   0  0  0  0  0  0  0  0  0  0  0  0
    3.4250   -2.6667    0.0000 C   0  0  0  0  0  0  0  0  0  0  0  0
    1.1417   -7.9792    0.0000 C   0  0  0  0  0  0  0  0  0  0  0  0
    1.1417   -6.6500    0.0000 C   0  0  0  0  0  0  0  0  0  0  0  0
    5.7250   -0.0000    0.0000 O   0  0  0  0  0  0  0  0  0  0  0  0
    0.0000   -8.6500    0.0000 O   0  0  0  0  0  0  0  0  0  0  0  0
    6.8750   -0.6667    0.0000 C   0  0  0  0  0  0  0  0  0  0  0  0
    0.0000   -9.9792    0.0000 C   0  0  0  0  0  0  0  0  0  0  0  0
    8.0250   -0.0000    0.0000 C   0  0  0  0  0  0  0  0  0  0  0  0
  1  2  1  0
  1  3  1  0
  1  4  2  0
  2  5  2  0
  6 12  2  0
  4  7  1  0
  7  8  3  0
  9 13  1  0
  2 10  1  0
  5 11  1  0
  4 12  1  0
 13 17  1  0
  3 14  1  0
  3 15  1  0
  9 16  2  0
 15 17  1  0
 14 18  1  0
 19 20  1  0
 10 20  2  0
  9 21  1  0
 19 22  1  0
 21 23  1  0
 22 24  1  0
 23 25  1  0
  5  6  1  0
 13 18  1  0
 11 19  2  0
M  END
>  <MOLFORMULA>  (26) 
C19 H21 N3 O3

>  <MOLWEIGHT>  (26) 
3.393929000000000e+002

>  <IDNUMBER>  (26) 
AT-687/PE27681

>  <PRICE>  (26) 
EUR 80/10 mg

>  <Similarity score>  (26) 
0.19

$$$$

     RDKit          2D

 30 34  0  0  0  0  0  0  0  0999 V2000
   -2.2208   -0.5875    0.0000 C   0  0  0  0  0  0  0  0  0  0  0  0
   -2.2333   -1.5792    0.0000 C   0  0  0  0  0  0  0  0  0  0  0  0
   -0.4958   -0.6000    0.0000 C   0  0  0  0  0  0  0  0  0  0  0  0
   -1.3583   -0.0875    0.0000 N   0  0  0  0  0  0  0  0  0  0  0  0
   -0.5000   -1.6000    0.0000 N   0  0  0  0  0  0  0  0  0  0  0  0
   -3.1750   -0.2667    0.0000 C   0  0  0  0  0  0  0  0  0  0  0  0
   -1.3708   -2.1000    0.0000 C   0  0  0  0  0  0  0  0  0  0  0  0
   -3.1833   -1.8875    0.0000 S   0  0  0  0  0  0  0  0  0  0  0  0
   -3.7625   -1.0792    0.0000 C   0  0  0  0  0  0  0  0  0  0  0  0
    0.3792   -0.1125    0.0000 N   0  0  0  0  0  0  0  0  0  0  0  0
    2.1250    0.8708    0.0000 N   0  0  0  0  0  0  0  0  0  0  0  0
   -3.4750    0.6750    0.0000 C   0  0  0  0  0  0  0  0  0  0  0  0
    3.0042    1.3500    0.0000 C   0  0  0  0  0  0  0  0  0  0  0  0
   -1.3875   -3.1000    0.0000 O   0  0  0  0  0  0  0  0  0  0  0  0
    0.3917    0.8958    0.0000 C   0  0  0  0  0  0  0  0  0  0  0  0
    1.2417   -0.6167    0.0000 C   0  0  0  0  0  0  0  0  0  0  0  0
    1.2625    1.3708    0.0000 C   0  0  0  0  0  0  0  0  0  0  0  0
    2.1042   -0.1292    0.0000 C   0  0  0  0  0  0  0  0  0  0  0  0
   -2.8000    1.4083    0.0000 C   0  0  0  0  0  0  0  0  0  0  0  0
    3.0125    2.3583    0.0000 C   0  0  0  0  0  0  0  0  0  0  0  0
    2.1500    2.8708    0.0000 F   0  0  0  0  0  0  0  0  0  0  0  0
   -3.1125    2.3625    0.0000 C   0  0  0  0  0  0  0  0  0  0  0  0
   -4.4583    0.8958    0.0000 C   0  0  0  0  0  0  0  0  0  0  0  0
   -4.7708    1.8333    0.0000 C   0  0  0  0  0  0  0  0  0  0  0  0
    3.8667    0.8583    0.0000 C   0  0  0  0  0  0  0  0  0  0  0  0
    3.8792    2.8458    0.0000 C   0  0  0  0  0  0  0  0  0  0  0  0
   -4.0833    2.5833    0.0000 C   0  0  0  0  0  0  0  0  0  0  0  0
   -2.4375    3.1083    0.0000 C   0  0  0  0  0  0  0  0  0  0  0  0
    4.7375    1.3333    0.0000 C   0  0  0  0  0  0  0  0  0  0  0  0
    4.7542    2.3375    0.0000 C   0  0  0  0  0  0  0  0  0  0  0  0
  1  2  2  0
  3  4  2  0
  1  4  1  0
  3  5  1  0
  1  6  1  0
  2  7  1  0
  2  8  1  0
  6  9  2  0
  3 10  1  0
 11 18  1  0
  6 12  1  0
 11 13  1  0
  7 14  2  0
 10 15  1  0
 10 16  1  0
 15 17  1  0
 16 18  1  0
 12 19  1  0
 13 20  1  0
 20 21  1  0
 19 22  2  0
 12 23  2  0
 23 24  1  0
 13 25  2  0
 20 26  2  0
 24 27  2  0
 22 28  1  0
 25 29  1  0
 29 30  2  0
  8  9  1  0
  5  7  1  0
 22 27  1  0
 11 17  1  0
 26 30  1  0
M  END
>  <MOLFORMULA>  (27) 
C23 H21 F N4 O S

>  <MOLWEIGHT>  (27) 
4.205099000000000e+002

>  <IDNUMBER>  (27) 
AT-687/PE25833

>  <PRICE>  (27) 
EUR 80/10 mg

>  <Similarity score>  (27) 
0.19

$$$$

     RDKit          2D

 30 34  0  0  0  0  0  0  0  0999 V2000
   -1.7375   -0.4667    0.0000 C   0  0  0  0  0  0  0  0  0  0  0  0
   -1.7583   -1.4667    0.0000 C   0  0  0  0  0  0  0  0  0  0  0  0
   -0.0125   -0.4792    0.0000 C   0  0  0  0  0  0  0  0  0  0  0  0
   -0.8750    0.0333    0.0000 N   0  0  0  0  0  0  0  0  0  0  0  0
   -0.0208   -1.4792    0.0000 N   0  0  0  0  0  0  0  0  0  0  0  0
   -2.6958   -0.1542    0.0000 C   0  0  0  0  0  0  0  0  0  0  0  0
   -0.8958   -1.9792    0.0000 C   0  0  0  0  0  0  0  0  0  0  0  0
   -2.6958   -1.7667    0.0000 S   0  0  0  0  0  0  0  0  0  0  0  0
   -3.2833   -0.9625    0.0000 C   0  0  0  0  0  0  0  0  0  0  0  0
    0.8625    0.0083    0.0000 N   0  0  0  0  0  0  0  0  0  0  0  0
    2.6042    0.9958    0.0000 N   0  0  0  0  0  0  0  0  0  0  0  0
   -2.9958    0.7958    0.0000 C   0  0  0  0  0  0  0  0  0  0  0  0
    3.4875    1.4708    0.0000 C   0  0  0  0  0  0  0  0  0  0  0  0
   -0.9083   -2.9792    0.0000 O   0  0  0  0  0  0  0  0  0  0  0  0
    0.8750    1.0125    0.0000 C   0  0  0  0  0  0  0  0  0  0  0  0
    1.7250   -0.4917    0.0000 C   0  0  0  0  0  0  0  0  0  0  0  0
    1.7417    1.4958    0.0000 C   0  0  0  0  0  0  0  0  0  0  0  0
    2.5917   -0.0125    0.0000 C   0  0  0  0  0  0  0  0  0  0  0  0
   -3.9833    1.0125    0.0000 C   0  0  0  0  0  0  0  0  0  0  0  0
    3.4917    2.4750    0.0000 C   0  0  0  0  0  0  0  0  0  0  0  0
   -4.2833    1.9583    0.0000 C   0  0  0  0  0  0  0  0  0  0  0  0
    2.6292    2.9875    0.0000 F   0  0  0  0  0  0  0  0  0  0  0  0
   -5.2458    2.1750    0.0000 F   0  0  0  0  0  0  0  0  0  0  0  0
   -2.3208    1.5250    0.0000 C   0  0  0  0  0  0  0  0  0  0  0  0
   -2.6333    2.4833    0.0000 C   0  0  0  0  0  0  0  0  0  0  0  0
    4.3500    0.9708    0.0000 C   0  0  0  0  0  0  0  0  0  0  0  0
    4.3625    2.9708    0.0000 C   0  0  0  0  0  0  0  0  0  0  0  0
   -3.6000    2.6958    0.0000 C   0  0  0  0  0  0  0  0  0  0  0  0
    5.2167    1.4500    0.0000 C   0  0  0  0  0  0  0  0  0  0  0  0
    5.2417    2.4583    0.0000 C   0  0  0  0  0  0  0  0  0  0  0  0
  1  2  2  0
  3  4  2  0
  1  4  1  0
  3  5  1  0
  1  6  1  0
  2  7  1  0
  2  8  1  0
  6  9  2  0
  3 10  1  0
 11 18  1  0
  6 12  1  0
 11 13  1  0
  7 14  2  0
 10 15  1  0
 10 16  1  0
 15 17  1  0
 16 18  1  0
 12 19  2  0
 13 20  1  0
 19 21  1  0
 20 22  1  0
 21 23  1  0
 12 24  1  0
 24 25  2  0
 13 26  2  0
 20 27  2  0
 25 28  1  0
 26 29  1  0
 29 30  2  0
  8  9  1  0
  5  7  1  0
 21 28  2  0
 11 17  1  0
 27 30  1  0
M  END
>  <MOLFORMULA>  (28) 
C22 H18 F2 N4 O S

>  <MOLWEIGHT>  (28) 
4.244732000000000e+002

>  <IDNUMBER>  (28) 
AT-687/PE25861

>  <PRICE>  (28) 
EUR 80/10 mg

>  <Similarity score>  (28) 
0.19

$$$$

     RDKit          2D

 29 32  0  0  0  0  0  0  0  0999 V2000
    0.4292   -0.2417    0.0000 S   0  0  0  0  0  0  0  0  0  0  0  0
   -0.4333    0.2500    0.0000 C   0  0  0  0  0  0  0  0  0  0  0  0
   -0.4333    1.2500    0.0000 C   0  0  0  0  0  0  0  0  0  0  0  0
    1.2917   -0.7500    0.0000 C   0  0  0  0  0  0  0  0  0  0  0  0
   -1.3000    1.7583    0.0000 C   0  0  0  0  0  0  0  0  0  0  0  0
   -2.1708    0.2500    0.0000 N   0  0  0  0  0  0  0  0  0  0  0  0
   -2.1708    1.2500    0.0000 C   0  0  0  0  0  0  0  0  0  0  0  0
   -1.3000   -0.2417    0.0000 C   0  0  0  0  0  0  0  0  0  0  0  0
    2.1625   -0.2417    0.0000 C   0  0  0  0  0  0  0  0  0  0  0  0
    1.2917   -1.7500    0.0000 C   0  0  0  0  0  0  0  0  0  0  0  0
    0.9292    0.6208    0.0000 O   0  0  0  0  0  0  0  0  0  0  0  0
   -0.0708   -1.1125    0.0000 O   0  0  0  0  0  0  0  0  0  0  0  0
    0.4292    1.7583    0.0000 C   0  0  0  0  0  0  0  0  0  0  0  0
    2.1625   -2.2500    0.0000 C   0  0  0  0  0  0  0  0  0  0  0  0
    3.0292   -0.7500    0.0000 C   0  0  0  0  0  0  0  0  0  0  0  0
   -3.0333    1.7583    0.0000 C   0  0  0  0  0  0  0  0  0  0  0  0
    3.0292   -1.7500    0.0000 C   0  0  0  0  0  0  0  0  0  0  0  0
    0.4292    2.7583    0.0000 C   0  0  0  0  0  0  0  0  0  0  0  0
    1.2917    1.2500    0.0000 C   0  0  0  0  0  0  0  0  0  0  0  0
    2.1625    2.7583    0.0000 C   0  0  0  0  0  0  0  0  0  0  0  0
    3.8917   -0.2417    0.0000 Cl  0  0  0  0  0  0  0  0  0  0  0  0
    2.1625   -3.2500    0.0000 Cl  0  0  0  0  0  0  0  0  0  0  0  0
   -3.9000    1.2500    0.0000 F   0  0  0  0  0  0  0  0  0  0  0  0
   -1.3000    2.7583    0.0000 C   0  0  0  0  0  0  0  0  0  0  0  0
    2.1625    1.7583    0.0000 C   0  0  0  0  0  0  0  0  0  0  0  0
    1.2917    3.2500    0.0000 C   0  0  0  0  0  0  0  0  0  0  0  0
    3.0292    3.2500    0.0000 F   0  0  0  0  0  0  0  0  0  0  0  0
   -2.1708    3.2500    0.0000 C   0  0  0  0  0  0  0  0  0  0  0  0
   -3.0333    2.7583    0.0000 C   0  0  0  0  0  0  0  0  0  0  0  0
  1  2  1  0
  2  3  2  0
  1  4  1  0
  3  5  1  0
  6  8  2  0
  6  7  1  0
  2  8  1  0
  4  9  2  0
  4 10  1  0
  1 11  2  0
  1 12  2  0
  3 13  1  0
 10 14  2  0
  9 15  1  0
  7 16  1  0
 14 17  1  0
 13 18  1  0
 13 19  2  0
 20 25  2  0
 15 21  1  0
 14 22  1  0
 16 23  1  0
  5 24  1  0
 19 25  1  0
 18 26  2  0
 20 27  1  0
 24 28  2  0
 16 29  2  0
 15 17  2  0
  5  7  2  0
 20 26  1  0
 28 29  1  0
M  END
>  <MOLFORMULA>  (29) 
C21 H11 Cl2 F2 N O2 S

>  <MOLWEIGHT>  (29) 
4.502909000000000e+002

>  <IDNUMBER>  (29) 
AT-687/PE13101

>  <PRICE>  (29) 
EUR 80/10 mg

>  <Similarity score>  (29) 
0.19

$$$$

     RDKit          2D

 35 39  0  0  0  0  0  0  0  0999 V2000
    7.9792   -5.7667    0.0000 S   0  0  0  0  0  0  0  0  0  0  0  0
    6.6375   -5.7667    0.0000 C   0  0  0  0  0  0  0  0  0  0  0  0
    5.9792   -4.6042    0.0000 C   0  0  0  0  0  0  0  0  0  0  0  0
    4.6542   -4.6042    0.0000 C   0  0  0  0  0  0  0  0  0  0  0  0
    6.6375   -3.4542    0.0000 N   0  0  0  0  0  0  0  0  0  0  0  0
    4.6542   -6.9125    0.0000 N   0  0  0  0  0  0  0  0  0  0  0  0
    3.9667   -5.7667    0.0000 C   0  0  0  0  0  0  0  0  0  0  0  0
    9.3042   -5.7667    0.0000 C   0  0  0  0  0  0  0  0  0  0  0  0
    5.9792   -6.9125    0.0000 C   0  0  0  0  0  0  0  0  0  0  0  0
    7.9792   -4.4375    0.0000 O   0  0  0  0  0  0  0  0  0  0  0  0
    7.9792   -7.0917    0.0000 O   0  0  0  0  0  0  0  0  0  0  0  0
    9.9542   -4.6042    0.0000 C   0  0  0  0  0  0  0  0  0  0  0  0
    2.6542   -1.1542    0.0000 N   0  0  0  0  0  0  0  0  0  0  0  0
    5.9792   -2.3042    0.0000 C   0  0  0  0  0  0  0  0  0  0  0  0
    4.6542   -2.3042    0.0000 C   0  0  0  0  0  0  0  0  0  0  0  0
    2.6542   -5.7667    0.0000 C   0  0  0  0  0  0  0  0  0  0  0  0
    3.9667   -1.1542    0.0000 C   0  0  0  0  0  0  0  0  0  0  0  0
    0.0000   -1.1542    0.0000 O   0  0  0  0  0  0  0  0  0  0  0  0
   11.2917   -4.6042    0.0000 C   0  0  0  0  0  0  0  0  0  0  0  0
    3.9667   -3.4542    0.0000 C   0  0  0  0  0  0  0  0  0  0  0  0
    7.9792   -3.4542    0.0000 C   0  0  0  0  0  0  0  0  0  0  0  0
    1.9917   -6.9125    0.0000 F   0  0  0  0  0  0  0  0  0  0  0  0
   11.9625   -3.4542    0.0000 F   0  0  0  0  0  0  0  0  0  0  0  0
    9.9542   -6.9125    0.0000 C   0  0  0  0  0  0  0  0  0  0  0  0
    1.9917   -2.3042    0.0000 C   0  0  0  0  0  0  0  0  0  0  0  0
    1.9917   -0.0000    0.0000 C   0  0  0  0  0  0  0  0  0  0  0  0
    2.6542   -3.4542    0.0000 C   0  0  0  0  0  0  0  0  0  0  0  0
   11.2917   -6.9125    0.0000 C   0  0  0  0  0  0  0  0  0  0  0  0
    1.9917   -4.6042    0.0000 C   0  0  0  0  0  0  0  0  0  0  0  0
    0.6542   -2.3042    0.0000 C   0  0  0  0  0  0  0  0  0  0  0  0
    0.6542   -0.0000    0.0000 C   0  0  0  0  0  0  0  0  0  0  0  0
    6.6375   -1.1542    0.0000 C   0  0  0  0  0  0  0  0  0  0  0  0
   11.9625   -5.7667    0.0000 C   0  0  0  0  0  0  0  0  0  0  0  0
    8.6375   -2.3042    0.0000 C   0  0  0  0  0  0  0  0  0  0  0  0
    7.9792   -1.1542    0.0000 C   0  0  0  0  0  0  0  0  0  0  0  0
  1  2  1  0
  2  3  2  0
  3  4  1  0
  3  5  1  0
  6  9  2  0
  6  7  1  0
  1  8  1  0
  2  9  1  0
  1 10  2  0
  1 11  2  0
  8 12  1  0
 13 17  1  0
  5 14  1  0
 14 15  1  0
  7 16  2  0
 15 17  1  0
 18 31  1  0
 12 19  2  0
  4 20  2  0
  5 21  1  0
 16 22  1  0
 19 23  1  0
  8 24  2  0
 13 25  1  0
 13 26  1  0
 20 27  1  0
 24 28  1  0
 16 29  1  0
 25 30  1  0
 26 31  1  0
 14 32  1  0
 28 33  2  0
 21 34  1  0
 34 35  1  0
 19 33  1  0
  4  7  1  0
 27 29  2  0
 32 35  1  0
 18 30  1  0
M  END
>  <MOLFORMULA>  (30) 
C26 H29 F2 N3 O3 S

>  <MOLWEIGHT>  (30) 
5.015951000000000e+002

>  <IDNUMBER>  (30) 
AT-687/NB06794

>  <PRICE>  (30) 
EUR 80/10 mg

>  <Similarity score>  (30) 
0.19

$$$$

     RDKit          2D

 27 31  0  0  0  0  0  0  0  0999 V2000
   -1.0458    1.3667    0.0000 N   0  0  0  0  0  0  0  0  0  0  0  0
   -0.1375    1.7833    0.0000 C   0  0  0  0  0  0  0  0  0  0  0  0
    0.6792    1.2083    0.0000 N   0  0  0  0  0  0  0  0  0  0  0  0
   -0.3208   -0.2083    0.0000 C   0  0  0  0  0  0  0  0  0  0  0  0
    0.5875    0.2125    0.0000 C   0  0  0  0  0  0  0  0  0  0  0  0
   -1.1375    0.3708    0.0000 C   0  0  0  0  0  0  0  0  0  0  0  0
   -0.4125   -1.2042    0.0000 C   0  0  0  0  0  0  0  0  0  0  0  0
    0.4042   -1.7792    0.0000 C   0  0  0  0  0  0  0  0  0  0  0  0
   -0.0458    2.7792    0.0000 N   0  0  0  0  0  0  0  0  0  0  0  0
    0.3167   -2.7750    0.0000 C   0  0  0  0  0  0  0  0  0  0  0  0
   -2.0458   -0.0500    0.0000 N   0  0  0  0  0  0  0  0  0  0  0  0
    1.4042   -0.3667    0.0000 O   0  0  0  0  0  0  0  0  0  0  0  0
    0.1333    4.7667    0.0000 O   0  0  0  0  0  0  0  0  0  0  0  0
    1.1333   -3.3542    0.0000 C   0  0  0  0  0  0  0  0  0  0  0  0
   -1.3167   -1.6208    0.0000 C   0  0  0  0  0  0  0  0  0  0  0  0
   -2.1375   -1.0458    0.0000 C   0  0  0  0  0  0  0  0  0  0  0  0
    1.3125   -1.3625    0.0000 C   0  0  0  0  0  0  0  0  0  0  0  0
   -0.8667    3.3583    0.0000 C   0  0  0  0  0  0  0  0  0  0  0  0
    0.8625    3.2000    0.0000 C   0  0  0  0  0  0  0  0  0  0  0  0
   -0.5917   -3.1958    0.0000 C   0  0  0  0  0  0  0  0  0  0  0  0
    2.1333   -1.9375    0.0000 C   0  0  0  0  0  0  0  0  0  0  0  0
    0.9500    4.1917    0.0000 C   0  0  0  0  0  0  0  0  0  0  0  0
   -0.7750    4.3500    0.0000 C   0  0  0  0  0  0  0  0  0  0  0  0
    2.0417   -2.9333    0.0000 C   0  0  0  0  0  0  0  0  0  0  0  0
    1.0417   -4.3500    0.0000 C   0  0  0  0  0  0  0  0  0  0  0  0
   -0.6833   -4.1917    0.0000 C   0  0  0  0  0  0  0  0  0  0  0  0
    0.1333   -4.7667    0.0000 C   0  0  0  0  0  0  0  0  0  0  0  0
  1  2  2  0
  2  3  1  0
  4  6  2  0
  4  5  1  0
  1  6  1  0
  4  7  1  0
  7  8  1  0
  2  9  1  0
  8 10  2  0
  6 11  1  0
  5 12  2  0
 13 22  1  0
 10 14  1  0
 15 16  1  0
 11 16  2  0
  8 17  1  0
  9 18  1  0
  9 19  1  0
 10 20  1  0
 17 21  2  0
 19 22  1  0
 18 23  1  0
 21 24  1  0
 14 25  1  0
 20 26  2  0
 26 27  1  0
  3  5  1  0
  7 15  2  0
 13 23  1  0
 14 24  2  0
 25 27  2  0
M  END
>  <MOLFORMULA>  (31) 
C21 H18 N4 O2

>  <MOLWEIGHT>  (31) 
3.583992000000000e+002

>  <IDNUMBER>  (31) 
AN-153/J102306

>  <PRICE>  (31) 
EUR 130/10 mg

>  <Similarity score>  (31) 
0.19

$$$$

     RDKit          2D

 29 32  0  0  0  0  0  0  0  0999 V2000
    6.3250   -4.9875    0.0000 C   0  0  0  0  0  0  0  0  0  0  0  0
    6.3250   -4.1667    0.0000 N   0  0  0  0  0  0  0  0  0  0  0  0
    6.3292   -1.6875    0.0000 C   0  0  0  0  0  0  0  0  0  0  0  0
    7.0500   -5.4125    0.0000 C   0  0  0  0  0  0  0  0  0  0  0  0
    7.0500   -1.2875    0.0000 N   0  0  0  0  0  0  0  0  0  0  0  0
    5.6042   -5.4125    0.0000 C   0  0  0  0  0  0  0  0  0  0  0  0
    7.0375   -0.4625    0.0000 C   0  0  0  0  0  0  0  0  0  0  0  0
    6.3167   -6.6542    0.0000 N   0  0  0  0  0  0  0  0  0  0  0  0
    7.7625   -5.0000    0.0000 C   0  0  0  0  0  0  0  0  0  0  0  0
    8.4750   -4.5875    0.0000 N   0  0  0  0  0  0  0  0  0  0  0  0
    6.3250   -0.0750    0.0000 C   0  0  0  0  0  0  0  0  0  0  0  0
    7.0500   -6.2417    0.0000 C   0  0  0  0  0  0  0  0  0  0  0  0
    5.6000   -6.2417    0.0000 C   0  0  0  0  0  0  0  0  0  0  0  0
    7.7417   -0.0542    0.0000 C   0  0  0  0  0  0  0  0  0  0  0  0
    6.3292   -2.5167    0.0000 C   0  0  0  0  0  0  0  0  0  0  0  0
    7.0417   -3.7542    0.0000 C   0  0  0  0  0  0  0  0  0  0  0  0
    5.6125   -3.7542    0.0000 C   0  0  0  0  0  0  0  0  0  0  0  0
    5.6167   -1.2750    0.0000 O   0  0  0  0  0  0  0  0  0  0  0  0
    7.0500   -2.9375    0.0000 C   0  0  0  0  0  0  0  0  0  0  0  0
    5.6125   -2.9292    0.0000 C   0  0  0  0  0  0  0  0  0  0  0  0
    7.7375    0.7625    0.0000 C   0  0  0  0  0  0  0  0  0  0  0  0
    6.3125    0.7458    0.0000 C   0  0  0  0  0  0  0  0  0  0  0  0
    8.4625   -0.4625    0.0000 F   0  0  0  0  0  0  0  0  0  0  0  0
    7.0125    1.1708    0.0000 C   0  0  0  0  0  0  0  0  0  0  0  0
    5.5875    1.1458    0.0000 Cl  0  0  0  0  0  0  0  0  0  0  0  0
    4.8875   -5.0000    0.0000 C   0  0  0  0  0  0  0  0  0  0  0  0
    4.8875   -6.6500    0.0000 C   0  0  0  0  0  0  0  0  0  0  0  0
    4.1750   -5.4125    0.0000 C   0  0  0  0  0  0  0  0  0  0  0  0
    4.1750   -6.2375    0.0000 C   0  0  0  0  0  0  0  0  0  0  0  0
  1  2  1  0
  3 15  1  0
  1  4  2  0
  3  5  1  0
  1  6  1  0
  5  7  1  0
  8 13  1  0
  4  9  1  0
  9 10  3  0
  7 11  1  0
  4 12  1  0
  6 13  1  0
  7 14  2  0
 15 20  1  0
  2 16  1  0
  2 17  1  0
  3 18  2  0
 16 19  1  0
 17 20  1  0
 14 21  1  0
 11 22  2  0
 14 23  1  0
 21 24  2  0
 22 25  1  0
  6 26  2  0
 13 27  2  0
 26 28  1  0
 28 29  2  0
  8 12  2  0
 15 19  1  0
 27 29  1  0
 22 24  1  0
M  END
>  <MOLFORMULA>  (32) 
C22 H18 Cl F N4 O

>  <MOLWEIGHT>  (32) 
4.088622000000000e+002

>  <IDNUMBER>  (32) 
AT-687/SK17415

>  <PRICE>  (32) 
EUR 80/10 mg

>  <Similarity score>  (32) 
0.19

$$$$

     RDKit          2D

 35 39  0  0  0  0  0  0  0  0999 V2000
    6.6292   -5.7542    0.0000 C   0  0  0  0  0  0  0  0  0  0  0  0
    5.3042   -5.7542    0.0000 S   0  0  0  0  0  0  0  0  0  0  0  0
    7.2917   -4.6042    0.0000 C   0  0  0  0  0  0  0  0  0  0  0  0
    8.6250   -4.6042    0.0000 C   0  0  0  0  0  0  0  0  0  0  0  0
    6.6292   -3.4500    0.0000 N   0  0  0  0  0  0  0  0  0  0  0  0
    8.6250   -6.9125    0.0000 N   0  0  0  0  0  0  0  0  0  0  0  0
    9.2875   -5.7542    0.0000 C   0  0  0  0  0  0  0  0  0  0  0  0
    7.2917   -6.9125    0.0000 C   0  0  0  0  0  0  0  0  0  0  0  0
    3.9792   -5.7542    0.0000 C   0  0  0  0  0  0  0  0  0  0  0  0
    5.3042   -4.4292    0.0000 O   0  0  0  0  0  0  0  0  0  0  0  0
    5.3042   -7.0792    0.0000 O   0  0  0  0  0  0  0  0  0  0  0  0
   10.6292   -1.1542    0.0000 N   0  0  0  0  0  0  0  0  0  0  0  0
    7.2917   -2.3042    0.0000 C   0  0  0  0  0  0  0  0  0  0  0  0
    8.6250   -2.3042    0.0000 C   0  0  0  0  0  0  0  0  0  0  0  0
   10.6292   -5.7542    0.0000 C   0  0  0  0  0  0  0  0  0  0  0  0
    9.2875   -1.1542    0.0000 C   0  0  0  0  0  0  0  0  0  0  0  0
   13.2667   -1.1542    0.0000 O   0  0  0  0  0  0  0  0  0  0  0  0
    3.3167   -6.9125    0.0000 C   0  0  0  0  0  0  0  0  0  0  0  0
    3.3167   -4.6042    0.0000 C   0  0  0  0  0  0  0  0  0  0  0  0
    9.2875   -3.4500    0.0000 C   0  0  0  0  0  0  0  0  0  0  0  0
    5.3042   -3.4500    0.0000 C   0  0  0  0  0  0  0  0  0  0  0  0
    1.3125   -5.7542    0.0000 C   0  0  0  0  0  0  0  0  0  0  0  0
   11.2917   -6.9125    0.0000 F   0  0  0  0  0  0  0  0  0  0  0  0
    1.9750   -4.6042    0.0000 C   0  0  0  0  0  0  0  0  0  0  0  0
    1.9750   -6.9125    0.0000 C   0  0  0  0  0  0  0  0  0  0  0  0
    0.0000   -5.7542    0.0000 F   0  0  0  0  0  0  0  0  0  0  0  0
   11.2917   -2.3042    0.0000 C   0  0  0  0  0  0  0  0  0  0  0  0
   11.2917   -0.0000    0.0000 C   0  0  0  0  0  0  0  0  0  0  0  0
   10.6292   -3.4500    0.0000 C   0  0  0  0  0  0  0  0  0  0  0  0
   11.2917   -4.6042    0.0000 C   0  0  0  0  0  0  0  0  0  0  0  0
   12.6042   -0.0000    0.0000 C   0  0  0  0  0  0  0  0  0  0  0  0
   12.6042   -2.3042    0.0000 C   0  0  0  0  0  0  0  0  0  0  0  0
    6.6292   -1.1542    0.0000 C   0  0  0  0  0  0  0  0  0  0  0  0
    4.6292   -2.3042    0.0000 C   0  0  0  0  0  0  0  0  0  0  0  0
    5.3042   -1.1542    0.0000 C   0  0  0  0  0  0  0  0  0  0  0  0
  1  2  1  0
  1  3  2  0
  3  4  1  0
  3  5  1  0
  6  8  2  0
  6  7  1  0
  1  8  1  0
  2  9  1  0
  2 10  2  0
  2 11  2  0
 12 16  1  0
  5 13  1  0
 13 14  1  0
  7 15  2  0
 14 16  1  0
 17 31  1  0
  9 18  2  0
  9 19  1  0
  4 20  2  0
  5 21  1  0
 22 24  1  0
 15 23  1  0
 19 24  2  0
 18 25  1  0
 22 26  1  0
 12 27  1  0
 12 28  1  0
 20 29  1  0
 15 30  1  0
 28 31  1  0
 27 32  1  0
 13 33  1  0
 21 34  1  0
 34 35  1  0
  4  7  1  0
 22 25  2  0
 29 30  2  0
 33 35  1  0
 17 32  1  0
M  END
>  <MOLFORMULA>  (33) 
C26 H29 F2 N3 O3 S

>  <MOLWEIGHT>  (33) 
5.015951000000000e+002

>  <IDNUMBER>  (33) 
AT-687/NB06793

>  <PRICE>  (33) 
EUR 80/10 mg

>  <Similarity score>  (33) 
0.19

$$$$

     RDKit          2D

 27 30  0  0  0  0  0  0  0  0999 V2000
    2.5083  -11.6167    0.0000 N   0  0  0  0  0  0  0  0  0  0  0  0
    1.8542  -12.7417    0.0000 C   0  0  0  0  0  0  0  0  0  0  0  0
    2.5042  -12.3667    0.0000 C   0  0  0  0  0  0  0  0  0  0  0  0
    1.2000  -14.6125    0.0000 N   0  0  0  0  0  0  0  0  0  0  0  0
    1.2042   -9.3542    0.0000 N   0  0  0  0  0  0  0  0  0  0  0  0
    1.8542  -11.2417    0.0000 C   0  0  0  0  0  0  0  0  0  0  0  0
    1.2042  -12.3667    0.0000 C   0  0  0  0  0  0  0  0  0  0  0  0
    1.2042  -11.6167    0.0000 C   0  0  0  0  0  0  0  0  0  0  0  0
    1.8542  -13.4917    0.0000 C   0  0  0  0  0  0  0  0  0  0  0  0
    1.2042  -13.8625    0.0000 C   0  0  0  0  0  0  0  0  0  0  0  0
    1.2042  -10.1042    0.0000 C   0  0  0  0  0  0  0  0  0  0  0  0
    1.8542  -10.4875    0.0000 C   0  0  0  0  0  0  0  0  0  0  0  0
    3.1542  -12.7500    0.0000 C   0  0  0  0  0  0  0  0  0  0  0  0
    0.5542  -12.7375    0.0000 C   0  0  0  0  0  0  0  0  0  0  0  0
    0.5542  -11.2375    0.0000 C   0  0  0  0  0  0  0  0  0  0  0  0
    0.5500  -14.9875    0.0000 O   0  0  0  0  0  0  0  0  0  0  0  0
    1.8542   -8.9792    0.0000 O   0  0  0  0  0  0  0  0  0  0  0  0
    1.8500  -14.9917    0.0000 O   0  0  0  0  0  0  0  0  0  0  0  0
    0.5542   -8.9792    0.0000 O   0  0  0  0  0  0  0  0  0  0  0  0
    0.5542  -13.4875    0.0000 C   0  0  0  0  0  0  0  0  0  0  0  0
    3.1542  -13.5000    0.0000 C   0  0  0  0  0  0  0  0  0  0  0  0
    0.5542  -10.4875    0.0000 C   0  0  0  0  0  0  0  0  0  0  0  0
    3.8042  -13.8750    0.0000 C   0  0  0  0  0  0  0  0  0  0  0  0
    3.8000  -14.6250    0.0000 O   0  0  0  0  0  0  0  0  0  0  0  0
    3.8042  -12.3750    0.0000 C   0  0  0  0  0  0  0  0  0  0  0  0
    4.4542  -12.7542    0.0000 C   0  0  0  0  0  0  0  0  0  0  0  0
    4.4542  -13.5042    0.0000 C   0  0  0  0  0  0  0  0  0  0  0  0
  2  3  1  0
  1  3  2  0
  4 10  1  0
  5 11  1  0
  1  6  1  0
  7  8  1  0
  6  8  1  0
  2  9  1  0
  9 10  2  0
 11 12  1  0
  6 12  2  0
  3 13  1  0
  7 14  1  0
  8 15  2  0
  4 16  1  0
  5 17  1  0
  4 18  2  0
  5 19  2  0
 14 20  2  0
 13 21  1  0
 11 22  2  0
 21 23  2  0
 23 24  1  0
 13 25  2  0
 25 26  1  0
 26 27  2  0
  2  7  2  0
 15 22  1  0
 10 20  1  0
 23 27  1  0
M  CHG  4   4   1   5   1  16  -1  17  -1
M  END
>  <MOLFORMULA>  (34) 
C19 H11 N3 O5

>  <MOLWEIGHT>  (34) 
3.613119000000000e+002

>  <IDNUMBER>  (34) 
AT-225/NB32526

>  <PRICE>  (34) 
EUR 140/10 mg

>  <Similarity score>  (34) 
0.19

$$$$

     RDKit          2D

 22 24  0  0  0  0  0  0  0  0999 V2000
    5.9792   -7.2500    0.0000 N   0  0  0  0  0  0  0  0  0  0  0  0
    5.2667   -6.8375    0.0000 C   0  0  0  0  0  0  0  0  0  0  0  0
    6.6917   -6.8375    0.0000 C   0  0  0  0  0  0  0  0  0  0  0  0
    5.2667   -6.0125    0.0000 C   0  0  0  0  0  0  0  0  0  0  0  0
    4.5500   -7.2500    0.0000 N   0  0  0  0  0  0  0  0  0  0  0  0
    6.6917   -6.0042    0.0000 N   0  0  0  0  0  0  0  0  0  0  0  0
    7.4125   -7.2500    0.0000 N   0  0  0  0  0  0  0  0  0  0  0  0
    5.9792   -5.5917    0.0000 C   0  0  0  0  0  0  0  0  0  0  0  0
    3.1250   -8.0667    0.0000 O   0  0  0  0  0  0  0  0  0  0  0  0
    4.5542   -5.6000    0.0000 F   0  0  0  0  0  0  0  0  0  0  0  0
    8.1250   -6.8292    0.0000 C   0  0  0  0  0  0  0  0  0  0  0  0
    9.5417   -6.0000    0.0000 C   0  0  0  0  0  0  0  0  0  0  0  0
    8.8375   -7.2417    0.0000 C   0  0  0  0  0  0  0  0  0  0  0  0
    8.1167   -6.0125    0.0000 C   0  0  0  0  0  0  0  0  0  0  0  0
    8.8167   -5.5917    0.0000 C   0  0  0  0  0  0  0  0  0  0  0  0
    9.5500   -6.8250    0.0000 C   0  0  0  0  0  0  0  0  0  0  0  0
    3.8417   -6.8292    0.0000 C   0  0  0  0  0  0  0  0  0  0  0  0
    4.5542   -8.0667    0.0000 C   0  0  0  0  0  0  0  0  0  0  0  0
   10.2500   -5.5792    0.0000 O   0  0  0  0  0  0  0  0  0  0  0  0
    3.1292   -7.2417    0.0000 C   0  0  0  0  0  0  0  0  0  0  0  0
    3.8375   -8.4792    0.0000 C   0  0  0  0  0  0  0  0  0  0  0  0
   10.2417   -4.7542    0.0000 C   0  0  0  0  0  0  0  0  0  0  0  0
  1  2  1  0
  1  3  2  0
  2  4  2  0
  2  5  1  0
  3  6  1  0
  3  7  1  0
  6  8  2  0
  9 21  1  0
  4 10  1  0
  7 11  1  0
 12 15  1  0
 11 13  2  0
 11 14  1  0
 14 15  2  0
 13 16  1  0
  5 17  1  0
  5 18  1  0
 12 19  1  0
 17 20  1  0
 18 21  1  0
 19 22  1  0
  4  8  1  0
  9 20  1  0
 12 16  2  0
M  END
>  <MOLFORMULA>  (35) 
C15 H17 F N4 O2

>  <MOLWEIGHT>  (35) 
3.043233000000000e+002

>  <IDNUMBER>  (35) 
AT-138/QI00258

>  <CHIRALFLAG>  (35) 
-

>  <PRICE>  (35) 
EUR 125.00/10 mg

>  <Similarity score>  (35) 
0.19

$$$$

     RDKit          2D

 30 34  0  0  0  0  0  0  0  0999 V2000
   -1.7375   -0.4667    0.0000 C   0  0  0  0  0  0  0  0  0  0  0  0
   -1.7583   -1.4667    0.0000 C   0  0  0  0  0  0  0  0  0  0  0  0
   -0.0125   -0.4792    0.0000 C   0  0  0  0  0  0  0  0  0  0  0  0
   -0.8750    0.0333    0.0000 N   0  0  0  0  0  0  0  0  0  0  0  0
   -0.0208   -1.4792    0.0000 N   0  0  0  0  0  0  0  0  0  0  0  0
   -2.6958   -0.1542    0.0000 C   0  0  0  0  0  0  0  0  0  0  0  0
   -0.8958   -1.9792    0.0000 C   0  0  0  0  0  0  0  0  0  0  0  0
   -2.6958   -1.7667    0.0000 S   0  0  0  0  0  0  0  0  0  0  0  0
   -3.2833   -0.9625    0.0000 C   0  0  0  0  0  0  0  0  0  0  0  0
    0.8625    0.0083    0.0000 N   0  0  0  0  0  0  0  0  0  0  0  0
    2.6042    0.9958    0.0000 N   0  0  0  0  0  0  0  0  0  0  0  0
   -2.9958    0.7958    0.0000 C   0  0  0  0  0  0  0  0  0  0  0  0
    3.4875    1.4708    0.0000 C   0  0  0  0  0  0  0  0  0  0  0  0
   -0.9083   -2.9792    0.0000 O   0  0  0  0  0  0  0  0  0  0  0  0
    0.8750    1.0125    0.0000 C   0  0  0  0  0  0  0  0  0  0  0  0
    1.7250   -0.4917    0.0000 C   0  0  0  0  0  0  0  0  0  0  0  0
    1.7417    1.4958    0.0000 C   0  0  0  0  0  0  0  0  0  0  0  0
    2.5917   -0.0125    0.0000 C   0  0  0  0  0  0  0  0  0  0  0  0
   -3.9833    1.0125    0.0000 C   0  0  0  0  0  0  0  0  0  0  0  0
    3.4917    2.4750    0.0000 C   0  0  0  0  0  0  0  0  0  0  0  0
   -4.2833    1.9583    0.0000 C   0  0  0  0  0  0  0  0  0  0  0  0
    2.6292    2.9875    0.0000 F   0  0  0  0  0  0  0  0  0  0  0  0
   -5.2458    2.1750    0.0000 Cl  0  0  0  0  0  0  0  0  0  0  0  0
   -2.3208    1.5250    0.0000 C   0  0  0  0  0  0  0  0  0  0  0  0
   -2.6333    2.4833    0.0000 C   0  0  0  0  0  0  0  0  0  0  0  0
    4.3500    0.9708    0.0000 C   0  0  0  0  0  0  0  0  0  0  0  0
    4.3625    2.9708    0.0000 C   0  0  0  0  0  0  0  0  0  0  0  0
   -3.6000    2.6958    0.0000 C   0  0  0  0  0  0  0  0  0  0  0  0
    5.2167    1.4500    0.0000 C   0  0  0  0  0  0  0  0  0  0  0  0
    5.2417    2.4583    0.0000 C   0  0  0  0  0  0  0  0  0  0  0  0
  1  2  2  0
  3  4  2  0
  1  4  1  0
  3  5  1  0
  1  6  1  0
  2  7  1  0
  2  8  1  0
  6  9  2  0
  3 10  1  0
 11 18  1  0
  6 12  1  0
 11 13  1  0
  7 14  2  0
 10 15  1  0
 10 16  1  0
 15 17  1  0
 16 18  1  0
 12 19  2  0
 13 20  1  0
 19 21  1  0
 20 22  1  0
 21 23  1  0
 12 24  1  0
 24 25  2  0
 13 26  2  0
 20 27  2  0
 25 28  1  0
 26 29  1  0
 29 30  2  0
  8  9  1  0
  5  7  1  0
 21 28  2  0
 11 17  1  0
 27 30  1  0
M  END
>  <MOLFORMULA>  (36) 
C22 H18 Cl F N4 O S

>  <MOLWEIGHT>  (36) 
4.409282000000000e+002

>  <IDNUMBER>  (36) 
AT-687/PE25884

>  <PRICE>  (36) 
EUR 80/10 mg

>  <Similarity score>  (36) 
0.19

$$$$

     RDKit          2D

 34 38  0  0  0  0  0  0  0  0999 V2000
    0.0917   -0.6542    0.0000 C   0  0  0  0  0  0  0  0  0  0  0  0
    0.6583    0.9833    0.0000 C   0  0  0  0  0  0  0  0  0  0  0  0
   -0.0958    0.3292    0.0000 N   0  0  0  0  0  0  0  0  0  0  0  0
   -0.4750   -2.2875    0.0000 C   0  0  0  0  0  0  0  0  0  0  0  0
    1.0375   -0.9792    0.0000 N   0  0  0  0  0  0  0  0  0  0  0  0
    0.0917    3.9292    0.0000 C   0  0  0  0  0  0  0  0  0  0  0  0
    1.6042    0.6583    0.0000 C   0  0  0  0  0  0  0  0  0  0  0  0
    0.4708    1.9667    0.0000 C   0  0  0  0  0  0  0  0  0  0  0  0
    1.0375    3.6042    0.0000 N   0  0  0  0  0  0  0  0  0  0  0  0
   -0.6625   -1.3083    0.0000 N   0  0  0  0  0  0  0  0  0  0  0  0
   -0.0958   -4.2542    0.0000 C   0  0  0  0  0  0  0  0  0  0  0  0
   -1.0417   -3.9250    0.0000 C   0  0  0  0  0  0  0  0  0  0  0  0
    1.7917   -0.3250    0.0000 C   0  0  0  0  0  0  0  0  0  0  0  0
   -1.2292   -2.9458    0.0000 N   0  0  0  0  0  0  0  0  0  0  0  0
    0.4708   -2.6167    0.0000 N   0  0  0  0  0  0  0  0  0  0  0  0
   -0.6625    3.2750    0.0000 N   0  0  0  0  0  0  0  0  0  0  0  0
    1.2250    2.6208    0.0000 C   0  0  0  0  0  0  0  0  0  0  0  0
    0.6583   -3.6000    0.0000 C   0  0  0  0  0  0  0  0  0  0  0  0
   -0.0958    4.9083    0.0000 N   0  0  0  0  0  0  0  0  0  0  0  0
   -0.4750    2.2917    0.0000 C   0  0  0  0  0  0  0  0  0  0  0  0
   -1.7958   -4.5792    0.0000 C   0  0  0  0  0  0  0  0  0  0  0  0
    0.0917   -5.2333    0.0000 C   0  0  0  0  0  0  0  0  0  0  0  0
   -1.6083   -5.5625    0.0000 C   0  0  0  0  0  0  0  0  0  0  0  0
    2.7375   -0.6542    0.0000 O   0  0  0  0  0  0  0  0  0  0  0  0
   -0.6625   -5.8917    0.0000 C   0  0  0  0  0  0  0  0  0  0  0  0
   -0.4750    6.8708    0.0000 O   0  0  0  0  0  0  0  0  0  0  0  0
    0.6583    5.5625    0.0000 C   0  0  0  0  0  0  0  0  0  0  0  0
   -1.0417    5.2333    0.0000 C   0  0  0  0  0  0  0  0  0  0  0  0
    2.1708    2.2917    0.0000 C   0  0  0  0  0  0  0  0  0  0  0  0
    1.6042   -3.9250    0.0000 C   0  0  0  0  0  0  0  0  0  0  0  0
   -2.7417   -4.2542    0.0000 C   0  0  0  0  0  0  0  0  0  0  0  0
   -1.2292    6.2167    0.0000 C   0  0  0  0  0  0  0  0  0  0  0  0
    0.4708    6.5458    0.0000 C   0  0  0  0  0  0  0  0  0  0  0  0
   -0.4750   -6.8708    0.0000 C   0  0  0  0  0  0  0  0  0  0  0  0
  2  3  1  0
  1  3  2  0
  4 10  1  0
  1  5  1  0
  6 16  2  0
  7 13  1  0
  2  8  1  0
  9 17  2  0
  1 10  1  0
 11 18  1  0
 12 14  1  0
  5 13  1  0
  4 14  2  0
  4 15  1  0
 16 20  1  0
  8 17  1  0
 15 18  2  0
  6 19  1  0
  8 20  2  0
 12 21  1  0
 11 22  1  0
 21 23  2  0
 13 24  2  0
 22 25  2  0
 26 32  1  0
 19 27  1  0
 19 28  1  0
 17 29  1  0
 18 30  1  0
 21 31  1  0
 28 32  1  0
 27 33  1  0
 25 34  1  0
  2  7  2  0
 11 12  2  0
  6  9  1  0
 23 25  1  0
 26 33  1  0
M  END
>  <MOLFORMULA>  (37) 
C24 H26 N8 O2

>  <MOLWEIGHT>  (37) 
4.585234000000000e+002

>  <IDNUMBER>  (37) 
AN-153/NB22716

>  <PRICE>  (37) 
EUR 130/10 mg

>  <Similarity score>  (37) 
0.19

$$$$

     RDKit          2D

 35 39  0  0  0  0  0  0  0  0999 V2000
   -3.3208    0.9208    0.0000 C   0  0  0  0  0  0  0  0  0  0  0  0
   -3.3125    0.0875    0.0000 C   0  0  0  0  0  0  0  0  0  0  0  0
   -1.8833    0.9208    0.0000 C   0  0  0  0  0  0  0  0  0  0  0  0
   -2.6083    1.3333    0.0000 N   0  0  0  0  0  0  0  0  0  0  0  0
   -4.1000    1.1625    0.0000 C   0  0  0  0  0  0  0  0  0  0  0  0
   -1.8833    0.0875    0.0000 N   0  0  0  0  0  0  0  0  0  0  0  0
   -2.6000   -0.3250    0.0000 C   0  0  0  0  0  0  0  0  0  0  0  0
   -4.0958   -0.1667    0.0000 S   0  0  0  0  0  0  0  0  0  0  0  0
   -4.5833    0.4958    0.0000 C   0  0  0  0  0  0  0  0  0  0  0  0
   -1.1708    1.3333    0.0000 N   0  0  0  0  0  0  0  0  0  0  0  0
   -4.3625    1.9458    0.0000 C   0  0  0  0  0  0  0  0  0  0  0  0
    0.9792    2.5583    0.0000 C   0  0  0  0  0  0  0  0  0  0  0  0
    3.1250    3.7833    0.0000 C   0  0  0  0  0  0  0  0  0  0  0  0
    2.4042    3.3958    0.0000 C   0  0  0  0  0  0  0  0  0  0  0  0
    0.9792    3.3833    0.0000 N   0  0  0  0  0  0  0  0  0  0  0  0
    3.8292    3.3750    0.0000 C   0  0  0  0  0  0  0  0  0  0  0  0
   -2.6000   -1.1500    0.0000 O   0  0  0  0  0  0  0  0  0  0  0  0
   -0.4583    0.9125    0.0000 C   0  0  0  0  0  0  0  0  0  0  0  0
   -1.1708    2.1500    0.0000 C   0  0  0  0  0  0  0  0  0  0  0  0
    0.2625    2.1458    0.0000 C   0  0  0  0  0  0  0  0  0  0  0  0
    1.7000    3.7958    0.0000 C   0  0  0  0  0  0  0  0  0  0  0  0
   -5.1708    2.1208    0.0000 C   0  0  0  0  0  0  0  0  0  0  0  0
    1.6917    2.1458    0.0000 O   0  0  0  0  0  0  0  0  0  0  0  0
    2.3917    2.5625    0.0000 C   0  0  0  0  0  0  0  0  0  0  0  0
   -0.4583    2.5625    0.0000 C   0  0  0  0  0  0  0  0  0  0  0  0
    0.2542    1.3208    0.0000 C   0  0  0  0  0  0  0  0  0  0  0  0
    3.8250    2.5500    0.0000 C   0  0  0  0  0  0  0  0  0  0  0  0
    3.1250    4.6042    0.0000 F   0  0  0  0  0  0  0  0  0  0  0  0
   -5.7250    1.5083    0.0000 F   0  0  0  0  0  0  0  0  0  0  0  0
    3.1042    2.1333    0.0000 C   0  0  0  0  0  0  0  0  0  0  0  0
    4.5292    2.1208    0.0000 F   0  0  0  0  0  0  0  0  0  0  0  0
   -3.8083    2.5708    0.0000 C   0  0  0  0  0  0  0  0  0  0  0  0
   -5.4333    2.9000    0.0000 C   0  0  0  0  0  0  0  0  0  0  0  0
   -4.0708    3.3583    0.0000 C   0  0  0  0  0  0  0  0  0  0  0  0
   -4.8750    3.5208    0.0000 C   0  0  0  0  0  0  0  0  0  0  0  0
  1  2  2  0
  3  4  2  0
  1  4  1  0
  1  5  1  0
  3  6  1  0
  2  7  1  0
  2  8  1  0
  5  9  2  0
  3 10  1  0
  5 11  1  0
 12 20  1  0
 13 14  2  0
 14 21  1  0
 12 15  1  0
 13 16  1  0
  7 17  2  0
 10 18  1  0
 10 19  1  0
 20 25  1  0
 15 21  1  0
 11 22  2  0
 12 23  2  0
 14 24  1  0
 19 25  1  0
 18 26  1  0
 27 30  1  0
 13 28  1  0
 22 29  1  0
 24 30  2  0
 27 31  1  0
 11 32  1  0
 22 33  1  0
 32 34  2  0
 34 35  1  0
  8  9  1  0
  6  7  1  0
 33 35  2  0
 20 26  1  0
 16 27  2  0
M  END
>  <MOLFORMULA>  (38) 
C25 H21 F3 N4 O2 S

>  <MOLWEIGHT>  (38) 
4.985269000000000e+002

>  <IDNUMBER>  (38) 
AT-687/PE25914

>  <PRICE>  (38) 
EUR 80/10 mg

>  <Similarity score>  (38) 
0.19

$$$$

     RDKit          2D

 35 39  0  0  0  0  0  0  0  0999 V2000
   -0.2333   -0.0000    0.0000 C   0  0  0  0  0  0  0  0  0  0  0  0
    0.4583    1.5917    0.0000 C   0  0  0  0  0  0  0  0  0  0  0  0
   -0.3458    0.9958    0.0000 N   0  0  0  0  0  0  0  0  0  0  0  0
   -0.9208   -1.5875    0.0000 C   0  0  0  0  0  0  0  0  0  0  0  0
    0.6875   -0.3958    0.0000 N   0  0  0  0  0  0  0  0  0  0  0  0
    0.1125    4.5667    0.0000 C   0  0  0  0  0  0  0  0  0  0  0  0
    1.3750    1.1958    0.0000 C   0  0  0  0  0  0  0  0  0  0  0  0
    0.3417    2.5833    0.0000 C   0  0  0  0  0  0  0  0  0  0  0  0
    1.0292    4.1708    0.0000 N   0  0  0  0  0  0  0  0  0  0  0  0
   -1.0333   -0.5958    0.0000 N   0  0  0  0  0  0  0  0  0  0  0  0
    1.4875    0.2000    0.0000 C   0  0  0  0  0  0  0  0  0  0  0  0
   -0.0042   -1.9833    0.0000 N   0  0  0  0  0  0  0  0  0  0  0  0
   -1.7208   -2.1833    0.0000 N   0  0  0  0  0  0  0  0  0  0  0  0
   -0.6917   -3.5750    0.0000 C   0  0  0  0  0  0  0  0  0  0  0  0
   -0.6917    3.9750    0.0000 N   0  0  0  0  0  0  0  0  0  0  0  0
    1.1458    3.1792    0.0000 C   0  0  0  0  0  0  0  0  0  0  0  0
    0.0000    5.5625    0.0000 N   0  0  0  0  0  0  0  0  0  0  0  0
    0.1125   -2.9792    0.0000 C   0  0  0  0  0  0  0  0  0  0  0  0
   -1.6083   -3.1750    0.0000 C   0  0  0  0  0  0  0  0  0  0  0  0
   -0.5750    2.9833    0.0000 C   0  0  0  0  0  0  0  0  0  0  0  0
   -0.5750   -4.5667    0.0000 C   0  0  0  0  0  0  0  0  0  0  0  0
    2.4083   -0.1958    0.0000 O   0  0  0  0  0  0  0  0  0  0  0  0
   -2.4125   -3.7750    0.0000 C   0  0  0  0  0  0  0  0  0  0  0  0
   -0.2333    7.5500    0.0000 O   0  0  0  0  0  0  0  0  0  0  0  0
   -1.3792   -5.1625    0.0000 C   0  0  0  0  0  0  0  0  0  0  0  0
   -2.2958   -4.7667    0.0000 C   0  0  0  0  0  0  0  0  0  0  0  0
    0.8000    6.1583    0.0000 C   0  0  0  0  0  0  0  0  0  0  0  0
   -0.9208    5.9583    0.0000 C   0  0  0  0  0  0  0  0  0  0  0  0
   -1.2625   -6.1583    0.0000 O   0  0  0  0  0  0  0  0  0  0  0  0
    2.0625    2.7833    0.0000 C   0  0  0  0  0  0  0  0  0  0  0  0
    1.0292   -3.3750    0.0000 C   0  0  0  0  0  0  0  0  0  0  0  0
   -1.0333    6.9500    0.0000 C   0  0  0  0  0  0  0  0  0  0  0  0
    0.6875    7.1500    0.0000 C   0  0  0  0  0  0  0  0  0  0  0  0
   -0.3458   -6.5542    0.0000 C   0  0  0  0  0  0  0  0  0  0  0  0
   -0.2333   -7.5500    0.0000 C   0  0  0  0  0  0  0  0  0  0  0  0
  2  3  1  0
  1  3  2  0
  4 10  1  0
  1  5  1  0
  6 15  2  0
  7 11  1  0
  2  8  1  0
  9 16  2  0
  1 10  1  0
  5 11  1  0
  4 12  1  0
  4 13  2  0
 14 19  2  0
 15 20  1  0
  8 16  1  0
  6 17  1  0
 12 18  2  0
 13 19  1  0
  8 20  2  0
 14 21  1  0
 11 22  2  0
 19 23  1  0
 24 32  1  0
 25 26  1  0
 23 26  2  0
 17 27  1  0
 17 28  1  0
 25 29  1  0
 16 30  1  0
 18 31  1  0
 28 32  1  0
 27 33  1  0
 29 34  1  0
 34 35  1  0
  2  7  2  0
 14 18  1  0
  6  9  1  0
 21 25  2  0
 24 33  1  0
M  END
>  <MOLFORMULA>  (39) 
C24 H26 N8 O3

>  <MOLWEIGHT>  (39) 
4.745224000000000e+002

>  <IDNUMBER>  (39) 
AN-153/NB22718

>  <PRICE>  (39) 
EUR 130/10 mg

>  <Similarity score>  (39) 
0.19

$$$$

     RDKit          2D

 34 38  0  0  0  0  0  0  0  0999 V2000
    1.6000   -2.4250    0.0000 C   0  0  0  0  0  0  0  0  0  0  0  0
    2.3167   -2.8417    0.0000 N   0  0  0  0  0  0  0  0  0  0  0  0
    2.3167   -3.6667    0.0000 N   0  0  0  0  0  0  0  0  0  0  0  0
    1.6000   -4.0667    0.0000 C   0  0  0  0  0  0  0  0  0  0  0  0
    3.0417    2.5500    0.0000 C   0  0  0  0  0  0  0  0  0  0  0  0
    1.6000   -1.6000    0.0000 N   0  0  0  0  0  0  0  0  0  0  0  0
    0.8917   -2.8417    0.0000 C   0  0  0  0  0  0  0  0  0  0  0  0
    0.8917   -3.6667    0.0000 C   0  0  0  0  0  0  0  0  0  0  0  0
    1.6000    0.0583    0.0000 N   0  0  0  0  0  0  0  0  0  0  0  0
    1.6000   -4.9000    0.0000 C   0  0  0  0  0  0  0  0  0  0  0  0
    2.3167    2.1250    0.0000 C   0  0  0  0  0  0  0  0  0  0  0  0
    1.6000    0.8833    0.0000 C   0  0  0  0  0  0  0  0  0  0  0  0
    2.3167   -5.3167    0.0000 C   0  0  0  0  0  0  0  0  0  0  0  0
    2.3167    1.3000    0.0000 C   0  0  0  0  0  0  0  0  0  0  0  0
    2.3167   -6.1500    0.0000 C   0  0  0  0  0  0  0  0  0  0  0  0
    2.3167   -1.1792    0.0000 C   0  0  0  0  0  0  0  0  0  0  0  0
    0.8917   -1.1792    0.0000 C   0  0  0  0  0  0  0  0  0  0  0  0
    0.8917   -0.3500    0.0000 C   0  0  0  0  0  0  0  0  0  0  0  0
    2.3167   -0.3500    0.0000 C   0  0  0  0  0  0  0  0  0  0  0  0
    1.6000   -6.5542    0.0000 C   0  0  0  0  0  0  0  0  0  0  0  0
    0.8917   -5.3167    0.0000 C   0  0  0  0  0  0  0  0  0  0  0  0
    3.4667    1.8250    0.0000 F   0  0  0  0  0  0  0  0  0  0  0  0
    3.7667    2.9833    0.0000 F   0  0  0  0  0  0  0  0  0  0  0  0
    2.6250    3.2750    0.0000 F   0  0  0  0  0  0  0  0  0  0  0  0
    0.8917   -6.1500    0.0000 C   0  0  0  0  0  0  0  0  0  0  0  0
    0.1750   -2.4250    0.0000 C   0  0  0  0  0  0  0  0  0  0  0  0
    0.1750   -4.0667    0.0000 C   0  0  0  0  0  0  0  0  0  0  0  0
    1.6000    2.5375    0.0000 C   0  0  0  0  0  0  0  0  0  0  0  0
    0.8917    1.3000    0.0000 C   0  0  0  0  0  0  0  0  0  0  0  0
    0.8917    2.1250    0.0000 C   0  0  0  0  0  0  0  0  0  0  0  0
    3.0417   -6.5667    0.0000 C   0  0  0  0  0  0  0  0  0  0  0  0
    1.6167   -7.3792    0.0000 C   0  0  0  0  0  0  0  0  0  0  0  0
   -0.5333   -3.6667    0.0000 C   0  0  0  0  0  0  0  0  0  0  0  0
   -0.5333   -2.8417    0.0000 C   0  0  0  0  0  0  0  0  0  0  0  0
  1  2  2  0
  2  3  1  0
  4  8  1  0
  5 11  1  0
  1  6  1  0
  1  7  1  0
  7  8  2  0
  9 18  1  0
  4 10  1  0
 11 14  1  0
  9 12  1  0
 10 13  2  0
 12 14  2  0
 13 15  1  0
  6 16  1  0
  6 17  1  0
 17 18  1  0
 16 19  1  0
 20 25  1  0
 10 21  1  0
  5 22  1  0
  5 23  1  0
  5 24  1  0
 21 25  2  0
  7 26  1  0
  8 27  1  0
 28 30  1  0
 12 29  1  0
 29 30  2  0
 15 31  1  0
 20 32  1  0
 33 34  1  0
 26 34  2  0
  3  4  2  0
  9 19  1  0
 27 33  2  0
 15 20  2  0
 11 28  2  0
M  END
>  <MOLFORMULA>  (40) 
C27 H25 F3 N4

>  <MOLWEIGHT>  (40) 
4.625165000000000e+002

>  <IDNUMBER>  (40) 
AT-687/SK06467

>  <PRICE>  (40) 
EUR 80/10 mg

>  <Similarity score>  (40) 
0.19

$$$$

     RDKit          2D

 31 34  0  0  0  0  0  0  0  0999 V2000
    6.3417   -5.2875    0.0000 C   0  0  0  0  0  0  0  0  0  0  0  0
    5.6250   -5.7042    0.0000 C   0  0  0  0  0  0  0  0  0  0  0  0
    6.3417   -4.4625    0.0000 N   0  0  0  0  0  0  0  0  0  0  0  0
    7.0667   -5.7042    0.0000 C   0  0  0  0  0  0  0  0  0  0  0  0
    6.3542   -1.9750    0.0000 C   0  0  0  0  0  0  0  0  0  0  0  0
    5.6167   -6.5417    0.0000 C   0  0  0  0  0  0  0  0  0  0  0  0
    6.3417   -6.9625    0.0000 N   0  0  0  0  0  0  0  0  0  0  0  0
    7.7875   -5.3000    0.0000 C   0  0  0  0  0  0  0  0  0  0  0  0
    8.5000   -4.8750    0.0000 N   0  0  0  0  0  0  0  0  0  0  0  0
    7.0667   -1.5625    0.0000 N   0  0  0  0  0  0  0  0  0  0  0  0
    4.9042   -5.3000    0.0000 C   0  0  0  0  0  0  0  0  0  0  0  0
    4.9042   -6.9625    0.0000 C   0  0  0  0  0  0  0  0  0  0  0  0
    7.0667   -6.5417    0.0000 C   0  0  0  0  0  0  0  0  0  0  0  0
    6.3542   -2.8042    0.0000 C   0  0  0  0  0  0  0  0  0  0  0  0
    7.0625   -4.0417    0.0000 C   0  0  0  0  0  0  0  0  0  0  0  0
    5.6292   -4.0417    0.0000 C   0  0  0  0  0  0  0  0  0  0  0  0
    5.6375   -1.5500    0.0000 O   0  0  0  0  0  0  0  0  0  0  0  0
    7.0667   -3.2167    0.0000 C   0  0  0  0  0  0  0  0  0  0  0  0
    5.6292   -3.2125    0.0000 C   0  0  0  0  0  0  0  0  0  0  0  0
    7.0542   -0.7375    0.0000 C   0  0  0  0  0  0  0  0  0  0  0  0
    4.1875   -6.5375    0.0000 C   0  0  0  0  0  0  0  0  0  0  0  0
    4.1875   -5.7125    0.0000 C   0  0  0  0  0  0  0  0  0  0  0  0
    7.0292    0.9083    0.0000 C   0  0  0  0  0  0  0  0  0  0  0  0
    6.3500   -0.3500    0.0000 C   0  0  0  0  0  0  0  0  0  0  0  0
    7.7667   -0.3292    0.0000 C   0  0  0  0  0  0  0  0  0  0  0  0
    6.3292    0.4708    0.0000 C   0  0  0  0  0  0  0  0  0  0  0  0
    7.7542    0.4958    0.0000 C   0  0  0  0  0  0  0  0  0  0  0  0
    3.4667   -6.9500    0.0000 O   0  0  0  0  0  0  0  0  0  0  0  0
    7.0167    1.7333    0.0000 C   0  0  0  0  0  0  0  0  0  0  0  0
    3.4667   -7.7750    0.0000 C   0  0  0  0  0  0  0  0  0  0  0  0
    7.7292    2.1583    0.0000 C   0  0  0  0  0  0  0  0  0  0  0  0
  1  2  1  0
  1  3  1  0
  1  4  2  0
  5 14  1  0
  2  6  1  0
  7 13  2  0
  4  8  1  0
  8  9  3  0
  5 10  1  0
  2 11  2  0
  6 12  2  0
  4 13  1  0
 14 19  1  0
  3 15  1  0
  3 16  1  0
  5 17  2  0
 15 18  1  0
 16 19  1  0
 10 20  1  0
 21 22  2  0
 11 22  1  0
 23 27  2  0
 20 24  1  0
 20 25  2  0
 24 26  2  0
 25 27  1  0
 21 28  1  0
 23 29  1  0
 28 30  1  0
 29 31  1  0
  6  7  1  0
 14 18  1  0
 12 21  1  0
 23 26  1  0
M  END
>  <MOLFORMULA>  (41) 
C25 H26 N4 O2

>  <MOLWEIGHT>  (41) 
4.145064000000000e+002

>  <IDNUMBER>  (41) 
AT-687/SK17414

>  <PRICE>  (41) 
EUR 80/10 mg

>  <Similarity score>  (41) 
0.19

$$$$

     RDKit          2D

 24 26  0  0  0  0  0  0  0  0999 V2000
    3.4542   -6.6500    0.0000 C   0  0  0  0  0  0  0  0  0  0  0  0
    4.5917   -5.9875    0.0000 C   0  0  0  0  0  0  0  0  0  0  0  0
    4.5917   -4.6625    0.0000 N   0  0  0  0  0  0  0  0  0  0  0  0
    5.7500   -6.6292    0.0000 C   0  0  0  0  0  0  0  0  0  0  0  0
    4.6042   -8.6500    0.0000 N   0  0  0  0  0  0  0  0  0  0  0  0
    6.9042   -5.9667    0.0000 C   0  0  0  0  0  0  0  0  0  0  0  0
    8.0542   -5.3000    0.0000 N   0  0  0  0  0  0  0  0  0  0  0  0
    3.4542   -7.9792    0.0000 C   0  0  0  0  0  0  0  0  0  0  0  0
    4.5792   -0.6667    0.0000 C   0  0  0  0  0  0  0  0  0  0  0  0
    2.3000   -5.9917    0.0000 C   0  0  0  0  0  0  0  0  0  0  0  0
    5.7625   -7.9750    0.0000 C   0  0  0  0  0  0  0  0  0  0  0  0
    4.5792   -1.9917    0.0000 C   0  0  0  0  0  0  0  0  0  0  0  0
    3.4417   -4.0083    0.0000 C   0  0  0  0  0  0  0  0  0  0  0  0
    5.7417   -3.9917    0.0000 C   0  0  0  0  0  0  0  0  0  0  0  0
    3.4417   -0.0042    0.0000 O   0  0  0  0  0  0  0  0  0  0  0  0
    3.4417   -2.6625    0.0000 C   0  0  0  0  0  0  0  0  0  0  0  0
    5.7417   -2.6625    0.0000 C   0  0  0  0  0  0  0  0  0  0  0  0
    2.3000   -8.6500    0.0000 C   0  0  0  0  0  0  0  0  0  0  0  0
    1.1500   -6.6500    0.0000 C   0  0  0  0  0  0  0  0  0  0  0  0
    5.7292   -0.0042    0.0000 O   0  0  0  0  0  0  0  0  0  0  0  0
    1.1500   -7.9792    0.0000 C   0  0  0  0  0  0  0  0  0  0  0  0
    6.8875   -0.6667    0.0000 C   0  0  0  0  0  0  0  0  0  0  0  0
    0.0000   -5.9917    0.0000 C   0  0  0  0  0  0  0  0  0  0  0  0
    8.0375   -0.0000    0.0000 C   0  0  0  0  0  0  0  0  0  0  0  0
  1  2  1  0
  2  3  1  0
  2  4  2  0
  5  8  1  0
  4  6  1  0
  6  7  3  0
  1  8  1  0
  9 12  1  0
  1 10  2  0
  5 11  2  0
 12 17  1  0
  3 13  1  0
  3 14  1  0
  9 15  2  0
 13 16  1  0
 14 17  1  0
  8 18  2  0
 10 19  1  0
  9 20  1  0
 19 21  2  0
 20 22  1  0
 19 23  1  0
 22 24  1  0
 18 21  1  0
  4 11  1  0
 12 16  1  0
M  END
>  <MOLFORMULA>  (42) 
C19 H21 N3 O2

>  <MOLWEIGHT>  (42) 
3.233939000000000e+002

>  <IDNUMBER>  (42) 
AT-687/NB05220

>  <PRICE>  (42) 
EUR 80/10 mg

>  <Similarity score>  (42) 
0.19

$$$$

     RDKit          2D

 25 28  0  0  0  0  0  0  0  0999 V2000
    6.6625   -3.0667    0.0000 N   0  0  0  0  0  0  0  0  0  0  0  0
    5.9500   -2.6542    0.0000 C   0  0  0  0  0  0  0  0  0  0  0  0
    7.3792   -2.6542    0.0000 C   0  0  0  0  0  0  0  0  0  0  0  0
    5.9500   -1.8250    0.0000 C   0  0  0  0  0  0  0  0  0  0  0  0
    5.2292   -3.0667    0.0000 N   0  0  0  0  0  0  0  0  0  0  0  0
   11.7250   -2.7792    0.0000 O   0  0  0  0  0  0  0  0  0  0  0  0
   10.9542   -3.8667    0.0000 C   0  0  0  0  0  0  0  0  0  0  0  0
   10.9417   -3.0417    0.0000 C   0  0  0  0  0  0  0  0  0  0  0  0
    7.3792   -1.8250    0.0000 N   0  0  0  0  0  0  0  0  0  0  0  0
    8.0917   -3.8917    0.0000 N   0  0  0  0  0  0  0  0  0  0  0  0
    6.6625   -1.4125    0.0000 C   0  0  0  0  0  0  0  0  0  0  0  0
   11.7417   -4.1167    0.0000 C   0  0  0  0  0  0  0  0  0  0  0  0
    8.0917   -3.0667    0.0000 N   0  0  0  0  0  0  0  0  0  0  0  0
   10.2417   -4.2875    0.0000 C   0  0  0  0  0  0  0  0  0  0  0  0
   12.2167   -3.4417    0.0000 C   0  0  0  0  0  0  0  0  0  0  0  0
   10.2167   -2.6375    0.0000 C   0  0  0  0  0  0  0  0  0  0  0  0
    5.2375   -1.4167    0.0000 F   0  0  0  0  0  0  0  0  0  0  0  0
    8.8125   -4.3000    0.0000 C   0  0  0  0  0  0  0  0  0  0  0  0
    9.5250   -3.8792    0.0000 C   0  0  0  0  0  0  0  0  0  0  0  0
    9.5125   -3.0542    0.0000 C   0  0  0  0  0  0  0  0  0  0  0  0
    4.4875   -2.7292    0.0000 C   0  0  0  0  0  0  0  0  0  0  0  0
    5.1542   -3.8875    0.0000 C   0  0  0  0  0  0  0  0  0  0  0  0
   13.0417   -3.4292    0.0000 C   0  0  0  0  0  0  0  0  0  0  0  0
    3.9292   -3.3417    0.0000 C   0  0  0  0  0  0  0  0  0  0  0  0
    4.3417   -4.0542    0.0000 C   0  0  0  0  0  0  0  0  0  0  0  0
  1  2  1  0
  1  3  2  0
  2  4  2  0
  2  5  1  0
  6  8  1  0
  7 14  1  0
  8 16  1  0
  3  9  1  0
 10 13  1  0
  9 11  2  0
  7 12  1  0
  3 13  1  0
 14 19  2  0
 12 15  1  0
 16 20  2  0
  4 17  1  0
 10 18  2  0
 18 19  1  0
 19 20  1  0
  5 21  1  0
  5 22  1  0
 15 23  1  0
 21 24  1  0
 22 25  1  0
  4 11  1  0
 24 25  1  0
  7  8  2  0
  6 15  1  0
M  END
>  <MOLFORMULA>  (43) 
C18 H20 F N5 O

>  <MOLWEIGHT>  (43) 
3.413880000000000e+002

>  <IDNUMBER>  (43) 
AT-138/QI01024

>  <CHIRALFLAG>  (43) 
-

>  <PRICE>  (43) 
EUR 125.00/10 mg

>  <Similarity score>  (43) 
0.19

$$$$

     RDKit          2D

 25 29  0  0  0  0  0  0  0  0999 V2000
    5.3375   -5.5167    0.0000 C   0  0  0  0  0  0  0  0  0  0  0  0
    5.6250   -4.2042    0.0000 N   0  0  0  0  0  0  0  0  0  0  0  0
    4.6167   -5.1000    0.0000 C   0  0  0  0  0  0  0  0  0  0  0  0
    5.9542   -4.9667    0.0000 C   0  0  0  0  0  0  0  0  0  0  0  0
    4.8000   -4.2875    0.0000 N   0  0  0  0  0  0  0  0  0  0  0  0
    3.9042   -5.5167    0.0000 C   0  0  0  0  0  0  0  0  0  0  0  0
    3.9000   -6.3542    0.0000 C   0  0  0  0  0  0  0  0  0  0  0  0
    4.6167   -6.7667    0.0000 N   0  0  0  0  0  0  0  0  0  0  0  0
    3.1875   -5.1042    0.0000 C   0  0  0  0  0  0  0  0  0  0  0  0
    6.7625   -5.1417    0.0000 C   0  0  0  0  0  0  0  0  0  0  0  0
    5.3417   -6.3542    0.0000 C   0  0  0  0  0  0  0  0  0  0  0  0
    3.1875   -6.7625    0.0000 C   0  0  0  0  0  0  0  0  0  0  0  0
    2.4750   -5.5250    0.0000 C   0  0  0  0  0  0  0  0  0  0  0  0
    2.4750   -6.3500    0.0000 C   0  0  0  0  0  0  0  0  0  0  0  0
    7.3167   -4.5375    0.0000 C   0  0  0  0  0  0  0  0  0  0  0  0
    8.1167   -4.7042    0.0000 C   0  0  0  0  0  0  0  0  0  0  0  0
    1.7625   -5.1042    0.0000 O   0  0  0  0  0  0  0  0  0  0  0  0
    1.7625   -6.7625    0.0000 O   0  0  0  0  0  0  0  0  0  0  0  0
    8.3750   -5.5000    0.0000 C   0  0  0  0  0  0  0  0  0  0  0  0
    7.0125   -5.9292    0.0000 C   0  0  0  0  0  0  0  0  0  0  0  0
    7.8167   -6.1042    0.0000 C   0  0  0  0  0  0  0  0  0  0  0  0
    8.6750   -4.0917    0.0000 C   0  0  0  0  0  0  0  0  0  0  0  0
    1.0417   -5.5167    0.0000 C   0  0  0  0  0  0  0  0  0  0  0  0
    1.0417   -6.3417    0.0000 C   0  0  0  0  0  0  0  0  0  0  0  0
    9.1792   -5.6750    0.0000 C   0  0  0  0  0  0  0  0  0  0  0  0
  2  4  2  0
  1  3  2  0
  1  4  1  0
  3  5  1  0
  3  6  1  0
  7  8  1  0
  8 11  2  0
  6  9  2  0
  4 10  1  0
  1 11  1  0
  7 12  2  0
  9 13  1  0
 12 14  1  0
 10 15  1  0
 15 16  2  0
 13 17  1  0
 14 18  1  0
 19 21  2  0
 10 20  2  0
 20 21  1  0
 16 22  1  0
 17 23  1  0
 18 24  1  0
 19 25  1  0
  2  5  1  0
  6  7  1  0
 13 14  2  0
 16 19  1  0
 23 24  1  0
M  END
>  <MOLFORMULA>  (44) 
C20 H17 N3 O2

>  <MOLWEIGHT>  (44) 
3.313733000000000e+002

>  <IDNUMBER>  (44) 
AT-687/SK17479

>  <PRICE>  (44) 
EUR 80/10 mg

>  <Similarity score>  (44) 
0.19

$$$$

     RDKit          2D

 27 30  0  0  0  0  0  0  0  0999 V2000
   -0.5000   -2.1625    0.0000 N   0  0  0  0  0  0  0  0  0  0  0  0
    0.4958   -2.1625    0.0000 C   0  0  0  0  0  0  0  0  0  0  0  0
    1.0000   -1.2958    0.0000 N   0  0  0  0  0  0  0  0  0  0  0  0
    0.4958   -0.4292    0.0000 C   0  0  0  0  0  0  0  0  0  0  0  0
   -1.0000   -1.2958    0.0000 C   0  0  0  0  0  0  0  0  0  0  0  0
   -0.5000   -0.4292    0.0000 C   0  0  0  0  0  0  0  0  0  0  0  0
    1.0000   -3.0292    0.0000 N   0  0  0  0  0  0  0  0  0  0  0  0
   -1.0000    0.4333    0.0000 C   0  0  0  0  0  0  0  0  0  0  0  0
   -0.5000    1.3000    0.0000 C   0  0  0  0  0  0  0  0  0  0  0  0
   -2.0000   -1.2958    0.0000 N   0  0  0  0  0  0  0  0  0  0  0  0
   -1.0000    2.1667    0.0000 C   0  0  0  0  0  0  0  0  0  0  0  0
   -0.5000    3.0333    0.0000 C   0  0  0  0  0  0  0  0  0  0  0  0
    1.0000    0.4333    0.0000 O   0  0  0  0  0  0  0  0  0  0  0  0
    0.4958    3.0333    0.0000 C   0  0  0  0  0  0  0  0  0  0  0  0
    0.4958    1.3000    0.0000 C   0  0  0  0  0  0  0  0  0  0  0  0
    1.0000    2.1667    0.0000 C   0  0  0  0  0  0  0  0  0  0  0  0
   -2.5000   -0.4292    0.0000 C   0  0  0  0  0  0  0  0  0  0  0  0
   -1.0000    3.9000    0.0000 O   0  0  0  0  0  0  0  0  0  0  0  0
   -2.0000    0.4333    0.0000 C   0  0  0  0  0  0  0  0  0  0  0  0
    1.0000    3.9000    0.0000 O   0  0  0  0  0  0  0  0  0  0  0  0
    0.4958   -3.8958    0.0000 C   0  0  0  0  0  0  0  0  0  0  0  0
    2.0000   -3.0292    0.0000 C   0  0  0  0  0  0  0  0  0  0  0  0
   -0.5000    4.7625    0.0000 C   0  0  0  0  0  0  0  0  0  0  0  0
    2.0000    3.9000    0.0000 C   0  0  0  0  0  0  0  0  0  0  0  0
    2.4958   -3.8958    0.0000 C   0  0  0  0  0  0  0  0  0  0  0  0
    1.0000   -4.7625    0.0000 C   0  0  0  0  0  0  0  0  0  0  0  0
    2.0000   -4.7625    0.0000 C   0  0  0  0  0  0  0  0  0  0  0  0
  1  2  2  0
  2  3  1  0
  4  6  1  0
  1  5  1  0
  5  6  2  0
  2  7  1  0
  6  8  1  0
  8  9  1  0
  5 10  1  0
  9 11  1  0
 11 12  2  0
  4 13  2  0
 14 16  2  0
  9 15  2  0
 15 16  1  0
 10 17  2  0
 12 18  1  0
 17 19  1  0
 14 20  1  0
  7 21  1  0
  7 22  1  0
 18 23  1  0
 20 24  1  0
 22 25  1  0
 21 26  1  0
 25 27  1  0
  3  4  1  0
  8 19  2  0
 26 27  1  0
 12 14  1  0
M  END
>  <MOLFORMULA>  (45) 
C20 H22 N4 O3

>  <MOLWEIGHT>  (45) 
3.664188000000000e+002

>  <IDNUMBER>  (45) 
AN-153/J107083

>  <PRICE>  (45) 
EUR 130/10 mg

>  <Similarity score>  (45) 
0.19

$$$$

     RDKit          2D

 30 34  0  0  0  0  0  0  0  0999 V2000
    3.3917   -4.5750    0.0000 C   0  0  0  0  0  0  0  0  0  0  0  0
    3.3667   -5.9042    0.0000 C   0  0  0  0  0  0  0  0  0  0  0  0
    5.6792   -4.6000    0.0000 C   0  0  0  0  0  0  0  0  0  0  0  0
    4.5250   -3.9250    0.0000 N   0  0  0  0  0  0  0  0  0  0  0  0
    2.1250   -4.1667    0.0000 C   0  0  0  0  0  0  0  0  0  0  0  0
    5.6667   -5.9292    0.0000 N   0  0  0  0  0  0  0  0  0  0  0  0
    4.5167   -6.5917    0.0000 C   0  0  0  0  0  0  0  0  0  0  0  0
    2.1042   -6.3167    0.0000 S   0  0  0  0  0  0  0  0  0  0  0  0
    1.3417   -5.2417    0.0000 C   0  0  0  0  0  0  0  0  0  0  0  0
    6.8500   -3.9500    0.0000 N   0  0  0  0  0  0  0  0  0  0  0  0
    9.1667   -2.6417    0.0000 N   0  0  0  0  0  0  0  0  0  0  0  0
    1.7167   -2.9042    0.0000 C   0  0  0  0  0  0  0  0  0  0  0  0
   10.3250   -2.0042    0.0000 C   0  0  0  0  0  0  0  0  0  0  0  0
    4.4917   -7.9250    0.0000 O   0  0  0  0  0  0  0  0  0  0  0  0
    7.9917   -4.6167    0.0000 C   0  0  0  0  0  0  0  0  0  0  0  0
    6.8542   -2.6167    0.0000 C   0  0  0  0  0  0  0  0  0  0  0  0
    8.0167   -1.9750    0.0000 C   0  0  0  0  0  0  0  0  0  0  0  0
    9.1417   -3.9792    0.0000 C   0  0  0  0  0  0  0  0  0  0  0  0
    2.6167   -1.9292    0.0000 C   0  0  0  0  0  0  0  0  0  0  0  0
   10.3417   -0.6667    0.0000 C   0  0  0  0  0  0  0  0  0  0  0  0
    3.9042   -2.2167    0.0000 F   0  0  0  0  0  0  0  0  0  0  0  0
    9.2000   -0.0000    0.0000 F   0  0  0  0  0  0  0  0  0  0  0  0
    0.3917   -2.6167    0.0000 C   0  0  0  0  0  0  0  0  0  0  0  0
   11.4792   -2.6667    0.0000 C   0  0  0  0  0  0  0  0  0  0  0  0
    2.1917   -0.6667    0.0000 C   0  0  0  0  0  0  0  0  0  0  0  0
   11.5000   -0.0250    0.0000 C   0  0  0  0  0  0  0  0  0  0  0  0
    0.0000   -1.3667    0.0000 C   0  0  0  0  0  0  0  0  0  0  0  0
   12.6417   -2.0292    0.0000 C   0  0  0  0  0  0  0  0  0  0  0  0
   12.6667   -0.6917    0.0000 C   0  0  0  0  0  0  0  0  0  0  0  0
    0.9000   -0.3750    0.0000 C   0  0  0  0  0  0  0  0  0  0  0  0
  1  2  2  0
  3  4  2  0
  1  4  1  0
  1  5  1  0
  3  6  1  0
  2  7  1  0
  2  8  1  0
  5  9  2  0
  3 10  1  0
 11 17  1  0
  5 12  1  0
 11 13  1  0
  7 14  2  0
 10 15  1  0
 10 16  1  0
 16 17  1  0
 15 18  1  0
 12 19  2  0
 13 20  2  0
 19 21  1  0
 20 22  1  0
 12 23  1  0
 13 24  1  0
 19 25  1  0
 20 26  1  0
 23 27  2  0
 24 28  2  0
 28 29  1  0
 27 30  1  0
  8  9  1  0
  6  7  1  0
 25 30  2  0
 11 18  1  0
 26 29  2  0
M  END
>  <MOLFORMULA>  (46) 
C22 H18 F2 N4 O S

>  <MOLWEIGHT>  (46) 
4.244732000000000e+002

>  <IDNUMBER>  (46) 
AT-687/PE25858

>  <PRICE>  (46) 
EUR 80/10 mg

>  <Similarity score>  (46) 
0.19

$$$$

     RDKit          2D

 24 26  0  0  0  0  0  0  0  0999 V2000
    3.3250   -2.1875    0.0000 C   0  0  0  0  0  0  0  0  0  0  0  0
    4.0292   -1.7667    0.0000 C   0  0  0  0  0  0  0  0  0  0  0  0
    4.0292   -0.9417    0.0000 N   0  0  0  0  0  0  0  0  0  0  0  0
    4.7500   -2.1792    0.0000 C   0  0  0  0  0  0  0  0  0  0  0  0
    4.0417   -3.4250    0.0000 N   0  0  0  0  0  0  0  0  0  0  0  0
    5.4542   -1.7625    0.0000 C   0  0  0  0  0  0  0  0  0  0  0  0
    6.1667   -1.3417    0.0000 N   0  0  0  0  0  0  0  0  0  0  0  0
    3.3250   -3.0125    0.0000 C   0  0  0  0  0  0  0  0  0  0  0  0
    4.0250    1.5333    0.0000 C   0  0  0  0  0  0  0  0  0  0  0  0
    2.6042   -1.7750    0.0000 C   0  0  0  0  0  0  0  0  0  0  0  0
    4.7542   -3.0042    0.0000 C   0  0  0  0  0  0  0  0  0  0  0  0
    4.0292    0.7000    0.0000 C   0  0  0  0  0  0  0  0  0  0  0  0
    3.3167   -0.5417    0.0000 C   0  0  0  0  0  0  0  0  0  0  0  0
    4.7417   -0.5292    0.0000 C   0  0  0  0  0  0  0  0  0  0  0  0
    3.3125    1.9375    0.0000 O   0  0  0  0  0  0  0  0  0  0  0  0
    3.3167    0.2833    0.0000 C   0  0  0  0  0  0  0  0  0  0  0  0
    4.7417    0.2875    0.0000 C   0  0  0  0  0  0  0  0  0  0  0  0
    2.6042   -3.4292    0.0000 C   0  0  0  0  0  0  0  0  0  0  0  0
    1.8917   -2.1875    0.0000 C   0  0  0  0  0  0  0  0  0  0  0  0
    4.7417    1.9458    0.0000 O   0  0  0  0  0  0  0  0  0  0  0  0
    1.8917   -3.0167    0.0000 C   0  0  0  0  0  0  0  0  0  0  0  0
    1.1792   -1.7792    0.0000 Cl  0  0  0  0  0  0  0  0  0  0  0  0
    5.4542    1.5333    0.0000 C   0  0  0  0  0  0  0  0  0  0  0  0
    6.1667    1.9458    0.0000 C   0  0  0  0  0  0  0  0  0  0  0  0
  1  2  1  0
  2  3  1  0
  2  4  2  0
  5  8  1  0
  4  6  1  0
  6  7  3  0
  1  8  1  0
  9 12  1  0
  1 10  2  0
  5 11  2  0
 12 17  1  0
  3 13  1  0
  3 14  1  0
  9 15  2  0
 13 16  1  0
 14 17  1  0
  8 18  2  0
 10 19  1  0
  9 20  1  0
 19 21  2  0
 19 22  1  0
 20 23  1  0
 23 24  1  0
 18 21  1  0
  4 11  1  0
 12 16  1  0
M  END
>  <MOLFORMULA>  (47) 
C18 H18 Cl N3 O2

>  <MOLWEIGHT>  (47) 
3.438122000000000e+002

>  <IDNUMBER>  (47) 
AT-687/SK17905

>  <PRICE>  (47) 
EUR 80/10 mg

>  <Similarity score>  (47) 
0.19

$$$$

     RDKit          2D

 32 35  0  0  0  0  0  0  0  0999 V2000
    4.6042   -6.6292    0.0000 S   0  0  0  0  0  0  0  0  0  0  0  0
    5.7417   -7.3000    0.0000 C   0  0  0  0  0  0  0  0  0  0  0  0
    6.9042   -1.3167    0.0000 S   0  0  0  0  0  0  0  0  0  0  0  0
    6.9042   -6.6292    0.0000 C   0  0  0  0  0  0  0  0  0  0  0  0
    8.0542   -7.3000    0.0000 C   0  0  0  0  0  0  0  0  0  0  0  0
    3.4542   -5.9750    0.0000 C   0  0  0  0  0  0  0  0  0  0  0  0
    6.9042   -2.6417    0.0000 N   0  0  0  0  0  0  0  0  0  0  0  0
    6.9042   -5.3042    0.0000 N   0  0  0  0  0  0  0  0  0  0  0  0
    5.7417   -8.6292    0.0000 C   0  0  0  0  0  0  0  0  0  0  0  0
    6.9042   -9.2917    0.0000 N   0  0  0  0  0  0  0  0  0  0  0  0
    2.3000   -6.6292    0.0000 C   0  0  0  0  0  0  0  0  0  0  0  0
    3.4542   -4.6375    0.0000 C   0  0  0  0  0  0  0  0  0  0  0  0
    8.0542   -8.6250    0.0000 C   0  0  0  0  0  0  0  0  0  0  0  0
    5.2625   -5.4917    0.0000 O   0  0  0  0  0  0  0  0  0  0  0  0
    3.9375   -7.7917    0.0000 O   0  0  0  0  0  0  0  0  0  0  0  0
    8.0542   -3.3125    0.0000 C   0  0  0  0  0  0  0  0  0  0  0  0
    5.7417   -3.3125    0.0000 C   0  0  0  0  0  0  0  0  0  0  0  0
    5.5667   -1.3167    0.0000 O   0  0  0  0  0  0  0  0  0  0  0  0
    8.2292   -1.3167    0.0000 O   0  0  0  0  0  0  0  0  0  0  0  0
    9.2000   -6.6292    0.0000 C   0  0  0  0  0  0  0  0  0  0  0  0
    5.7417   -4.6375    0.0000 C   0  0  0  0  0  0  0  0  0  0  0  0
    8.0542   -4.6375    0.0000 C   0  0  0  0  0  0  0  0  0  0  0  0
    1.1500   -5.9750    0.0000 C   0  0  0  0  0  0  0  0  0  0  0  0
    2.3000   -3.9792    0.0000 C   0  0  0  0  0  0  0  0  0  0  0  0
    1.1500   -4.6375    0.0000 C   0  0  0  0  0  0  0  0  0  0  0  0
    9.2000   -9.2917    0.0000 C   0  0  0  0  0  0  0  0  0  0  0  0
    6.9042   -0.0000    0.0000 C   0  0  0  0  0  0  0  0  0  0  0  0
   10.3625   -7.3000    0.0000 C   0  0  0  0  0  0  0  0  0  0  0  0
    0.0000   -6.6417    0.0000 F   0  0  0  0  0  0  0  0  0  0  0  0
    2.3000   -2.6417    0.0000 F   0  0  0  0  0  0  0  0  0  0  0  0
   10.3625   -8.6250    0.0000 C   0  0  0  0  0  0  0  0  0  0  0  0
   11.5125   -6.6292    0.0000 F   0  0  0  0  0  0  0  0  0  0  0  0
  1  2  1  0
  3  7  1  0
  2  4  2  0
  4  5  1  0
  1  6  1  0
  7 16  1  0
  4  8  1  0
  2  9  1  0
  9 10  2  0
  6 11  2  0
  6 12  1  0
 10 13  1  0
  1 14  2  0
  1 15  2  0
 16 22  1  0
 17 21  1  0
  3 18  2  0
  3 19  2  0
  5 20  2  0
  8 21  1  0
  8 22  1  0
 11 23  1  0
 12 24  2  0
 24 25  1  0
 13 26  2  0
  3 27  1  0
 20 28  1  0
 23 29  1  0
 24 30  1  0
 26 31  1  0
 28 32  1  0
 23 25  2  0
  5 13  1  0
  7 17  1  0
 28 31  2  0
M  END
>  <MOLFORMULA>  (48) 
C20 H18 F3 N3 O4 S2

>  <MOLWEIGHT>  (48) 
4.855052000000000e+002

>  <IDNUMBER>  (48) 
AT-687/NB06807

>  <PRICE>  (48) 
EUR 80/10 mg

>  <Similarity score>  (48) 
0.19

$$$$

     RDKit          2D

 34 38  0  0  0  0  0  0  0  0999 V2000
   -0.3042    0.1917    0.0000 C   0  0  0  0  0  0  0  0  0  0  0  0
    0.3208    1.8083    0.0000 C   0  0  0  0  0  0  0  0  0  0  0  0
   -0.4583    1.1792    0.0000 N   0  0  0  0  0  0  0  0  0  0  0  0
   -0.9333   -1.4208    0.0000 C   0  0  0  0  0  0  0  0  0  0  0  0
    0.6250   -0.1708    0.0000 N   0  0  0  0  0  0  0  0  0  0  0  0
   -0.1333    4.7667    0.0000 C   0  0  0  0  0  0  0  0  0  0  0  0
    1.2542    1.4458    0.0000 C   0  0  0  0  0  0  0  0  0  0  0  0
    0.1708    2.7958    0.0000 C   0  0  0  0  0  0  0  0  0  0  0  0
    0.8000    4.4042    0.0000 N   0  0  0  0  0  0  0  0  0  0  0  0
   -1.0875   -0.4333    0.0000 N   0  0  0  0  0  0  0  0  0  0  0  0
    1.4083    0.4542    0.0000 C   0  0  0  0  0  0  0  0  0  0  0  0
   -1.7125   -2.0458    0.0000 N   0  0  0  0  0  0  0  0  0  0  0  0
   -0.0042   -1.7833    0.0000 N   0  0  0  0  0  0  0  0  0  0  0  0
   -0.6292   -3.4000    0.0000 C   0  0  0  0  0  0  0  0  0  0  0  0
   -0.9125    4.1417    0.0000 N   0  0  0  0  0  0  0  0  0  0  0  0
    0.9500    3.4208    0.0000 C   0  0  0  0  0  0  0  0  0  0  0  0
   -0.2833    5.7542    0.0000 N   0  0  0  0  0  0  0  0  0  0  0  0
   -1.5625   -3.0375    0.0000 C   0  0  0  0  0  0  0  0  0  0  0  0
    0.1500   -2.7708    0.0000 C   0  0  0  0  0  0  0  0  0  0  0  0
   -0.7625    3.1583    0.0000 C   0  0  0  0  0  0  0  0  0  0  0  0
   -0.4792   -4.3875    0.0000 C   0  0  0  0  0  0  0  0  0  0  0  0
    2.3375    0.0917    0.0000 O   0  0  0  0  0  0  0  0  0  0  0  0
    1.0833   -3.1333    0.0000 C   0  0  0  0  0  0  0  0  0  0  0  0
    0.4542   -4.7500    0.0000 C   0  0  0  0  0  0  0  0  0  0  0  0
    1.2333   -4.1250    0.0000 C   0  0  0  0  0  0  0  0  0  0  0  0
    0.4250    6.4583    0.0000 C   0  0  0  0  0  0  0  0  0  0  0  0
   -1.1750    6.2125    0.0000 C   0  0  0  0  0  0  0  0  0  0  0  0
    0.6042   -5.7375    0.0000 O   0  0  0  0  0  0  0  0  0  0  0  0
    1.8833    3.0583    0.0000 C   0  0  0  0  0  0  0  0  0  0  0  0
   -2.3417   -3.6625    0.0000 C   0  0  0  0  0  0  0  0  0  0  0  0
   -0.1750   -6.3625    0.0000 C   0  0  0  0  0  0  0  0  0  0  0  0
   -0.0250    7.3542    0.0000 C   0  0  0  0  0  0  0  0  0  0  0  0
   -1.0125    7.2000    0.0000 C   0  0  0  0  0  0  0  0  0  0  0  0
   -0.0250   -7.3542    0.0000 C   0  0  0  0  0  0  0  0  0  0  0  0
  2  3  1  0
  1  3  2  0
  4 10  1  0
  1  5  1  0
  6 15  2  0
  7 11  1  0
  2  8  1  0
  9 16  2  0
  1 10  1  0
  5 11  1  0
  4 12  1  0
  4 13  2  0
 14 19  1  0
 15 20  1  0
  8 16  1  0
  6 17  1  0
 12 18  2  0
 13 19  1  0
  8 20  2  0
 14 21  2  0
 11 22  2  0
 19 23  2  0
 24 25  2  0
 23 25  1  0
 17 26  1  0
 17 27  1  0
 24 28  1  0
 16 29  1  0
 18 30  1  0
 28 31  1  0
 26 32  1  0
 27 33  1  0
 31 34  1  0
  2  7  2  0
 14 18  1  0
  6  9  1  0
 21 24  1  0
 32 33  1  0
M  END
>  <MOLFORMULA>  (49) 
C24 H26 N8 O2

>  <MOLWEIGHT>  (49) 
4.585234000000000e+002

>  <IDNUMBER>  (49) 
AN-153/NB22781

>  <PRICE>  (49) 
EUR 130/10 mg

>  <Similarity score>  (49) 
0.19

$$$$

     RDKit          2D

 29 32  0  0  0  0  0  0  0  0999 V2000
    0.4292   -0.2500    0.0000 S   0  0  0  0  0  0  0  0  0  0  0  0
   -0.4333    0.2500    0.0000 C   0  0  0  0  0  0  0  0  0  0  0  0
   -0.4333    1.2583    0.0000 C   0  0  0  0  0  0  0  0  0  0  0  0
   -1.3000    1.7583    0.0000 C   0  0  0  0  0  0  0  0  0  0  0  0
   -2.1708    0.2500    0.0000 N   0  0  0  0  0  0  0  0  0  0  0  0
    1.2917   -0.7500    0.0000 C   0  0  0  0  0  0  0  0  0  0  0  0
   -2.1708    1.2583    0.0000 C   0  0  0  0  0  0  0  0  0  0  0  0
   -1.3000   -0.2500    0.0000 C   0  0  0  0  0  0  0  0  0  0  0  0
    1.2917   -1.7500    0.0000 C   0  0  0  0  0  0  0  0  0  0  0  0
    2.1625   -2.2500    0.0000 C   0  0  0  0  0  0  0  0  0  0  0  0
    0.9292    0.6208    0.0000 O   0  0  0  0  0  0  0  0  0  0  0  0
   -0.0708   -1.1125    0.0000 O   0  0  0  0  0  0  0  0  0  0  0  0
    0.4292    1.7583    0.0000 C   0  0  0  0  0  0  0  0  0  0  0  0
    3.0292   -1.7500    0.0000 C   0  0  0  0  0  0  0  0  0  0  0  0
   -3.0333    1.7583    0.0000 C   0  0  0  0  0  0  0  0  0  0  0  0
    2.1625   -0.2500    0.0000 C   0  0  0  0  0  0  0  0  0  0  0  0
    3.0292   -0.7500    0.0000 C   0  0  0  0  0  0  0  0  0  0  0  0
    0.4292    2.7500    0.0000 C   0  0  0  0  0  0  0  0  0  0  0  0
    1.2917    1.2583    0.0000 C   0  0  0  0  0  0  0  0  0  0  0  0
    2.1625   -3.2500    0.0000 F   0  0  0  0  0  0  0  0  0  0  0  0
    2.1625    2.7500    0.0000 C   0  0  0  0  0  0  0  0  0  0  0  0
    3.8917   -2.2500    0.0000 F   0  0  0  0  0  0  0  0  0  0  0  0
   -3.9000    1.2500    0.0000 F   0  0  0  0  0  0  0  0  0  0  0  0
   -1.3000    2.7500    0.0000 C   0  0  0  0  0  0  0  0  0  0  0  0
    2.1625    1.7583    0.0000 C   0  0  0  0  0  0  0  0  0  0  0  0
    1.2917    3.2500    0.0000 C   0  0  0  0  0  0  0  0  0  0  0  0
    3.0292    3.2500    0.0000 Cl  0  0  0  0  0  0  0  0  0  0  0  0
   -2.1708    3.2500    0.0000 C   0  0  0  0  0  0  0  0  0  0  0  0
   -3.0333    2.7500    0.0000 C   0  0  0  0  0  0  0  0  0  0  0  0
  1  2  1  0
  2  3  2  0
  3  4  1  0
  5  8  2  0
  1  6  1  0
  5  7  1  0
  2  8  1  0
  6  9  1  0
  9 10  2  0
  1 11  2  0
  1 12  2  0
  3 13  1  0
 14 17  2  0
  7 15  1  0
  6 16  2  0
 16 17  1  0
 13 18  2  0
 13 19  1  0
 10 20  1  0
 21 25  1  0
 14 22  1  0
 15 23  1  0
  4 24  1  0
 19 25  2  0
 18 26  1  0
 21 27  1  0
 24 28  2  0
 15 29  2  0
 10 14  1  0
  4  7  2  0
 21 26  2  0
 28 29  1  0
M  END
>  <MOLFORMULA>  (50) 
C21 H11 Cl F3 N O2 S

>  <MOLWEIGHT>  (50) 
4.338359000000000e+002

>  <IDNUMBER>  (50) 
AT-687/PE13104

>  <PRICE>  (50) 
EUR 80/10 mg

>  <Similarity score>  (50) 
0.19

$$$$

     RDKit          2D

 30 34  0  0  0  0  0  0  0  0999 V2000
   -2.2208   -0.8000    0.0000 C   0  0  0  0  0  0  0  0  0  0  0  0
   -2.2333   -1.7917    0.0000 C   0  0  0  0  0  0  0  0  0  0  0  0
   -0.4958   -0.8125    0.0000 C   0  0  0  0  0  0  0  0  0  0  0  0
   -1.3583   -0.3000    0.0000 N   0  0  0  0  0  0  0  0  0  0  0  0
   -0.5000   -1.8125    0.0000 N   0  0  0  0  0  0  0  0  0  0  0  0
   -1.3708   -2.3125    0.0000 C   0  0  0  0  0  0  0  0  0  0  0  0
   -3.1750   -0.4792    0.0000 C   0  0  0  0  0  0  0  0  0  0  0  0
   -3.1833   -2.1000    0.0000 S   0  0  0  0  0  0  0  0  0  0  0  0
   -3.7625   -1.2917    0.0000 C   0  0  0  0  0  0  0  0  0  0  0  0
    0.3792   -0.3250    0.0000 N   0  0  0  0  0  0  0  0  0  0  0  0
    2.1250    0.6625    0.0000 N   0  0  0  0  0  0  0  0  0  0  0  0
    3.0042    1.1458    0.0000 C   0  0  0  0  0  0  0  0  0  0  0  0
   -3.4750    0.4625    0.0000 C   0  0  0  0  0  0  0  0  0  0  0  0
   -1.3875   -3.3125    0.0000 O   0  0  0  0  0  0  0  0  0  0  0  0
    0.3917    0.6833    0.0000 C   0  0  0  0  0  0  0  0  0  0  0  0
    1.2417   -0.8292    0.0000 C   0  0  0  0  0  0  0  0  0  0  0  0
    1.2625    1.1583    0.0000 C   0  0  0  0  0  0  0  0  0  0  0  0
    2.1042   -0.3417    0.0000 C   0  0  0  0  0  0  0  0  0  0  0  0
    3.0125    2.1458    0.0000 C   0  0  0  0  0  0  0  0  0  0  0  0
   -4.4708    0.6833    0.0000 C   0  0  0  0  0  0  0  0  0  0  0  0
   -2.8000    1.1958    0.0000 C   0  0  0  0  0  0  0  0  0  0  0  0
   -4.0833    2.3625    0.0000 C   0  0  0  0  0  0  0  0  0  0  0  0
    2.1500    2.6583    0.0000 F   0  0  0  0  0  0  0  0  0  0  0  0
   -3.1125    2.1500    0.0000 C   0  0  0  0  0  0  0  0  0  0  0  0
   -4.7708    1.6208    0.0000 C   0  0  0  0  0  0  0  0  0  0  0  0
   -4.3833    3.3208    0.0000 F   0  0  0  0  0  0  0  0  0  0  0  0
    3.8667    0.6458    0.0000 C   0  0  0  0  0  0  0  0  0  0  0  0
    3.8792    2.6333    0.0000 C   0  0  0  0  0  0  0  0  0  0  0  0
    4.7375    1.1208    0.0000 C   0  0  0  0  0  0  0  0  0  0  0  0
    4.7542    2.1250    0.0000 C   0  0  0  0  0  0  0  0  0  0  0  0
  1  2  2  0
  3  4  2  0
  1  4  1  0
  3  5  1  0
  2  6  1  0
  1  7  1  0
  2  8  1  0
  7  9  2  0
  3 10  1  0
 11 18  1  0
 11 12  1  0
  7 13  1  0
  6 14  2  0
 10 15  1  0
 10 16  1  0
 15 17  1  0
 16 18  1  0
 12 19  1  0
 13 20  2  0
 13 21  1  0
 22 24  1  0
 19 23  1  0
 21 24  2  0
 20 25  1  0
 22 26  1  0
 12 27  2  0
 19 28  2  0
 27 29  1  0
 29 30  2  0
  8  9  1  0
  5  6  1  0
 22 25  2  0
 11 17  1  0
 28 30  1  0
M  END
>  <MOLFORMULA>  (51) 
C22 H18 F2 N4 O S

>  <MOLWEIGHT>  (51) 
4.244732000000000e+002

>  <IDNUMBER>  (51) 
AT-687/PE25870

>  <PRICE>  (51) 
EUR 80/10 mg

>  <Similarity score>  (51) 
0.19

$$$$

     RDKit          2D

 25 28  0  0  0  0  0  0  0  0999 V2000
   -1.5375   -0.8542    0.0000 N   0  0  0  0  0  0  0  0  0  0  0  0
   -0.5833   -1.1583    0.0000 C   0  0  0  0  0  0  0  0  0  0  0  0
    0.1583   -0.4875    0.0000 N   0  0  0  0  0  0  0  0  0  0  0  0
   -0.0542    0.4917    0.0000 C   0  0  0  0  0  0  0  0  0  0  0  0
   -1.7458    0.1250    0.0000 C   0  0  0  0  0  0  0  0  0  0  0  0
   -1.0083    0.7958    0.0000 C   0  0  0  0  0  0  0  0  0  0  0  0
   -0.3708   -2.1375    0.0000 N   0  0  0  0  0  0  0  0  0  0  0  0
   -1.2167    1.7750    0.0000 C   0  0  0  0  0  0  0  0  0  0  0  0
   -0.4792    2.4458    0.0000 C   0  0  0  0  0  0  0  0  0  0  0  0
   -2.7000    0.4292    0.0000 N   0  0  0  0  0  0  0  0  0  0  0  0
    0.6875    1.1625    0.0000 O   0  0  0  0  0  0  0  0  0  0  0  0
    0.4750    2.1417    0.0000 C   0  0  0  0  0  0  0  0  0  0  0  0
    0.0500   -4.0917    0.0000 O   0  0  0  0  0  0  0  0  0  0  0  0
    1.2167    2.8125    0.0000 C   0  0  0  0  0  0  0  0  0  0  0  0
   -2.9125    1.4083    0.0000 C   0  0  0  0  0  0  0  0  0  0  0  0
   -2.1708    2.0792    0.0000 C   0  0  0  0  0  0  0  0  0  0  0  0
   -1.1125   -2.8083    0.0000 C   0  0  0  0  0  0  0  0  0  0  0  0
    0.5792   -2.4417    0.0000 C   0  0  0  0  0  0  0  0  0  0  0  0
   -0.6917    3.4208    0.0000 C   0  0  0  0  0  0  0  0  0  0  0  0
    2.1667    2.5083    0.0000 O   0  0  0  0  0  0  0  0  0  0  0  0
    0.0500    4.0917    0.0000 C   0  0  0  0  0  0  0  0  0  0  0  0
   -0.9000   -3.7833    0.0000 C   0  0  0  0  0  0  0  0  0  0  0  0
    0.7917   -3.4167    0.0000 C   0  0  0  0  0  0  0  0  0  0  0  0
    1.0042    3.7875    0.0000 C   0  0  0  0  0  0  0  0  0  0  0  0
    2.9083    3.1792    0.0000 C   0  0  0  0  0  0  0  0  0  0  0  0
  1  2  2  0
  2  3  1  0
  4  6  1  0
  1  5  1  0
  5  6  2  0
  2  7  1  0
  6  8  1  0
  8  9  1  0
  5 10  1  0
  4 11  2  0
  9 12  2  0
 13 23  1  0
 12 14  1  0
 10 15  2  0
 15 16  1  0
  7 17  1  0
  7 18  1  0
  9 19  1  0
 14 20  1  0
 19 21  2  0
 17 22  1  0
 18 23  1  0
 21 24  1  0
 20 25  1  0
  3  4  1  0
  8 16  2  0
 13 22  1  0
 14 24  2  0
M  END
>  <MOLFORMULA>  (52) 
C18 H18 N4 O3

>  <MOLWEIGHT>  (52) 
3.383652000000000e+002

>  <IDNUMBER>  (52) 
AN-153/J102308

>  <PRICE>  (52) 
EUR 130/10 mg

>  <Similarity score>  (52) 
0.19

$$$$

     RDKit          2D

 22 24  0  0  0  0  0  0  0  0999 V2000
    0.3750   -3.8042    0.0000 C   0  0  0  0  0  0  0  0  0  0  0  0
    1.0750   -3.3917    0.0000 C   0  0  0  0  0  0  0  0  0  0  0  0
    1.0750   -2.5750    0.0000 N   0  0  0  0  0  0  0  0  0  0  0  0
    1.8000   -3.8000    0.0000 C   0  0  0  0  0  0  0  0  0  0  0  0
    1.0917   -5.0500    0.0000 N   0  0  0  0  0  0  0  0  0  0  0  0
    2.5000   -3.3792    0.0000 C   0  0  0  0  0  0  0  0  0  0  0  0
    3.2250   -2.9667    0.0000 N   0  0  0  0  0  0  0  0  0  0  0  0
    1.0750   -0.0917    0.0000 C   0  0  0  0  0  0  0  0  0  0  0  0
    0.3750   -4.6292    0.0000 C   0  0  0  0  0  0  0  0  0  0  0  0
   -0.3500   -3.4000    0.0000 C   0  0  0  0  0  0  0  0  0  0  0  0
    1.8000   -4.6250    0.0000 C   0  0  0  0  0  0  0  0  0  0  0  0
    1.0750   -0.9250    0.0000 C   0  0  0  0  0  0  0  0  0  0  0  0
    1.7917   -2.1500    0.0000 C   0  0  0  0  0  0  0  0  0  0  0  0
    0.3667   -2.1667    0.0000 C   0  0  0  0  0  0  0  0  0  0  0  0
    0.3542    0.3125    0.0000 O   0  0  0  0  0  0  0  0  0  0  0  0
    0.3667   -1.3417    0.0000 C   0  0  0  0  0  0  0  0  0  0  0  0
    1.7917   -1.3292    0.0000 C   0  0  0  0  0  0  0  0  0  0  0  0
   -0.3500   -5.0500    0.0000 C   0  0  0  0  0  0  0  0  0  0  0  0
   -1.0583   -3.8042    0.0000 C   0  0  0  0  0  0  0  0  0  0  0  0
    1.7917    0.3250    0.0000 O   0  0  0  0  0  0  0  0  0  0  0  0
   -1.0583   -4.6417    0.0000 C   0  0  0  0  0  0  0  0  0  0  0  0
   -1.7833   -3.4000    0.0000 C   0  0  0  0  0  0  0  0  0  0  0  0
  1  2  2  0
  2  3  1  0
  2  4  1  0
  5  9  2  0
  4  6  1  0
  6  7  3  0
  8 12  1  0
  1  9  1  0
  1 10  1  0
  5 11  1  0
 12 16  1  0
  3 13  1  0
  3 14  1  0
  8 15  2  0
 14 16  1  0
 13 17  1  0
  9 18  1  0
 10 19  2  0
  8 20  1  0
 19 21  1  0
 19 22  1  0
 18 21  2  0
  4 11  2  0
 12 17  1  0
M  END
>  <MOLFORMULA>  (53) 
C17 H17 N3 O2

>  <MOLWEIGHT>  (53) 
2.953403000000000e+002

>  <IDNUMBER>  (53) 
AT-687/PE35213

>  <PRICE>  (53) 
EUR 80/10 mg

>  <Similarity score>  (53) 
0.19

$$$$

     RDKit          2D

 22 24  0  0  0  0  0  0  0  0999 V2000
    5.2542   -8.7000    0.0000 C   0  0  0  0  0  0  0  0  0  0  0  0
    5.9667   -8.2917    0.0000 C   0  0  0  0  0  0  0  0  0  0  0  0
    5.9667   -7.4667    0.0000 N   0  0  0  0  0  0  0  0  0  0  0  0
    6.6792   -8.7000    0.0000 C   0  0  0  0  0  0  0  0  0  0  0  0
    5.9750   -9.9417    0.0000 N   0  0  0  0  0  0  0  0  0  0  0  0
    7.4000   -8.2750    0.0000 C   0  0  0  0  0  0  0  0  0  0  0  0
    8.1042   -7.8667    0.0000 N   0  0  0  0  0  0  0  0  0  0  0  0
    5.9542   -4.9917    0.0000 C   0  0  0  0  0  0  0  0  0  0  0  0
    5.2542   -9.5250    0.0000 C   0  0  0  0  0  0  0  0  0  0  0  0
    4.5417   -8.2917    0.0000 C   0  0  0  0  0  0  0  0  0  0  0  0
    6.6917   -9.5250    0.0000 C   0  0  0  0  0  0  0  0  0  0  0  0
    5.9667   -5.8167    0.0000 C   0  0  0  0  0  0  0  0  0  0  0  0
    6.6750   -7.0500    0.0000 C   0  0  0  0  0  0  0  0  0  0  0  0
    5.2500   -7.0542    0.0000 C   0  0  0  0  0  0  0  0  0  0  0  0
    5.2500   -4.5750    0.0000 O   0  0  0  0  0  0  0  0  0  0  0  0
    5.2500   -6.2292    0.0000 C   0  0  0  0  0  0  0  0  0  0  0  0
    6.6750   -6.2250    0.0000 C   0  0  0  0  0  0  0  0  0  0  0  0
    4.5417   -9.9500    0.0000 C   0  0  0  0  0  0  0  0  0  0  0  0
    3.8250   -8.7042    0.0000 C   0  0  0  0  0  0  0  0  0  0  0  0
    6.6750   -4.5750    0.0000 O   0  0  0  0  0  0  0  0  0  0  0  0
    3.8250   -9.5292    0.0000 C   0  0  0  0  0  0  0  0  0  0  0  0
    3.1167   -8.2917    0.0000 Cl  0  0  0  0  0  0  0  0  0  0  0  0
  1  2  2  0
  2  3  1  0
  2  4  1  0
  5  9  2  0
  4  6  1  0
  6  7  3  0
  8 12  1  0
  1  9  1  0
  1 10  1  0
  5 11  1  0
 12 16  1  0
  3 13  1  0
  3 14  1  0
  8 15  2  0
 14 16  1  0
 13 17  1  0
  9 18  1  0
 10 19  2  0
  8 20  1  0
 19 21  1  0
 19 22  1  0
 18 21  2  0
  4 11  2  0
 12 17  1  0
M  END
>  <MOLFORMULA>  (54) 
C16 H14 Cl N3 O2

>  <MOLWEIGHT>  (54) 
3.157586000000000e+002

>  <IDNUMBER>  (54) 
AT-687/PE27527

>  <PRICE>  (54) 
EUR 80/10 mg

>  <Similarity score>  (54) 
0.19

$$$$

     RDKit          2D

 34 38  0  0  0  0  0  0  0  0999 V2000
   -0.2458   -0.4958    0.0000 C   0  0  0  0  0  0  0  0  0  0  0  0
    0.4292    1.1000    0.0000 C   0  0  0  0  0  0  0  0  0  0  0  0
   -0.3708    0.5000    0.0000 N   0  0  0  0  0  0  0  0  0  0  0  0
   -0.9250   -2.0875    0.0000 C   0  0  0  0  0  0  0  0  0  0  0  0
    0.6750   -0.8833    0.0000 N   0  0  0  0  0  0  0  0  0  0  0  0
    0.0583    4.0750    0.0000 C   0  0  0  0  0  0  0  0  0  0  0  0
    1.3500    0.7125    0.0000 C   0  0  0  0  0  0  0  0  0  0  0  0
    0.3042    2.0917    0.0000 C   0  0  0  0  0  0  0  0  0  0  0  0
    0.9792    3.6875    0.0000 N   0  0  0  0  0  0  0  0  0  0  0  0
   -1.0458   -1.0958    0.0000 N   0  0  0  0  0  0  0  0  0  0  0  0
    1.4708   -0.2792    0.0000 C   0  0  0  0  0  0  0  0  0  0  0  0
   -1.7208   -2.6917    0.0000 N   0  0  0  0  0  0  0  0  0  0  0  0
   -0.0042   -2.4792    0.0000 N   0  0  0  0  0  0  0  0  0  0  0  0
   -0.6792   -4.0750    0.0000 C   0  0  0  0  0  0  0  0  0  0  0  0
   -0.7375    3.4750    0.0000 N   0  0  0  0  0  0  0  0  0  0  0  0
    1.1042    2.6958    0.0000 C   0  0  0  0  0  0  0  0  0  0  0  0
   -0.0625    5.0667    0.0000 N   0  0  0  0  0  0  0  0  0  0  0  0
   -1.6000   -3.6833    0.0000 C   0  0  0  0  0  0  0  0  0  0  0  0
    0.1208   -3.4708    0.0000 C   0  0  0  0  0  0  0  0  0  0  0  0
   -0.6167    2.4833    0.0000 C   0  0  0  0  0  0  0  0  0  0  0  0
   -0.5542   -5.0667    0.0000 C   0  0  0  0  0  0  0  0  0  0  0  0
    2.3917   -0.6708    0.0000 O   0  0  0  0  0  0  0  0  0  0  0  0
    1.0417   -3.8625    0.0000 C   0  0  0  0  0  0  0  0  0  0  0  0
   -0.3083    7.0500    0.0000 O   0  0  0  0  0  0  0  0  0  0  0  0
    0.3667   -5.4583    0.0000 C   0  0  0  0  0  0  0  0  0  0  0  0
    1.1625   -4.8542    0.0000 C   0  0  0  0  0  0  0  0  0  0  0  0
   -0.9833    5.4583    0.0000 C   0  0  0  0  0  0  0  0  0  0  0  0
    0.7333    5.6708    0.0000 C   0  0  0  0  0  0  0  0  0  0  0  0
    0.4875   -6.4500    0.0000 O   0  0  0  0  0  0  0  0  0  0  0  0
    2.0250    2.3042    0.0000 C   0  0  0  0  0  0  0  0  0  0  0  0
   -2.3958   -4.2875    0.0000 C   0  0  0  0  0  0  0  0  0  0  0  0
   -1.1083    6.4500    0.0000 C   0  0  0  0  0  0  0  0  0  0  0  0
    0.6125    6.6625    0.0000 C   0  0  0  0  0  0  0  0  0  0  0  0
   -0.3083   -7.0500    0.0000 C   0  0  0  0  0  0  0  0  0  0  0  0
  2  3  1  0
  1  3  2  0
  4 10  1  0
  1  5  1  0
  6 15  2  0
  7 11  1  0
  2  8  1  0
  9 16  2  0
  1 10  1  0
  5 11  1  0
  4 12  1  0
  4 13  2  0
 14 19  2  0
 15 20  1  0
  8 16  1  0
  6 17  1  0
 12 18  2  0
 13 19  1  0
  8 20  2  0
 14 21  1  0
 11 22  2  0
 19 23  1  0
 24 32  1  0
 25 26  1  0
 23 26  2  0
 17 27  1  0
 17 28  1  0
 25 29  1  0
 16 30  1  0
 18 31  1  0
 27 32  1  0
 28 33  1  0
 29 34  1  0
  2  7  2  0
 14 18  1  0
  6  9  1  0
 21 25  2  0
 24 33  1  0
M  END
>  <MOLFORMULA>  (55) 
C23 H24 N8 O3

>  <MOLWEIGHT>  (55) 
4.604956000000000e+002

>  <IDNUMBER>  (55) 
AN-153/NB22717

>  <PRICE>  (55) 
EUR 130/10 mg

>  <Similarity score>  (55) 
0.19

$$$$

     RDKit          2D

 31 35  0  0  0  0  0  0  0  0999 V2000
    4.6500   -4.5750    0.0000 C   0  0  0  0  0  0  0  0  0  0  0  0
    4.6417   -5.9000    0.0000 C   0  0  0  0  0  0  0  0  0  0  0  0
    6.9542   -4.5917    0.0000 C   0  0  0  0  0  0  0  0  0  0  0  0
    5.8167   -3.9167    0.0000 N   0  0  0  0  0  0  0  0  0  0  0  0
    6.9417   -5.9292    0.0000 N   0  0  0  0  0  0  0  0  0  0  0  0
    3.3792   -4.1500    0.0000 C   0  0  0  0  0  0  0  0  0  0  0  0
    5.7792   -6.6000    0.0000 C   0  0  0  0  0  0  0  0  0  0  0  0
    3.3792   -6.3042    0.0000 S   0  0  0  0  0  0  0  0  0  0  0  0
    2.6000   -5.2250    0.0000 C   0  0  0  0  0  0  0  0  0  0  0  0
    8.1167   -3.9417    0.0000 N   0  0  0  0  0  0  0  0  0  0  0  0
   10.4250   -2.6292    0.0000 N   0  0  0  0  0  0  0  0  0  0  0  0
   11.6000   -2.0000    0.0000 C   0  0  0  0  0  0  0  0  0  0  0  0
    2.9750   -2.9000    0.0000 C   0  0  0  0  0  0  0  0  0  0  0  0
   12.7500   -2.6667    0.0000 C   0  0  0  0  0  0  0  0  0  0  0  0
    5.7667   -7.9250    0.0000 O   0  0  0  0  0  0  0  0  0  0  0  0
    8.1292   -2.6167    0.0000 C   0  0  0  0  0  0  0  0  0  0  0  0
    9.2667   -4.6250    0.0000 C   0  0  0  0  0  0  0  0  0  0  0  0
   11.6167   -0.6542    0.0000 C   0  0  0  0  0  0  0  0  0  0  0  0
   10.4042   -3.9750    0.0000 C   0  0  0  0  0  0  0  0  0  0  0  0
    9.2750   -1.9667    0.0000 C   0  0  0  0  0  0  0  0  0  0  0  0
    1.6667   -2.6167    0.0000 C   0  0  0  0  0  0  0  0  0  0  0  0
   12.7750   -0.0042    0.0000 C   0  0  0  0  0  0  0  0  0  0  0  0
   13.9250   -2.0250    0.0000 C   0  0  0  0  0  0  0  0  0  0  0  0
    1.2750   -1.3500    0.0000 C   0  0  0  0  0  0  0  0  0  0  0  0
   13.9417   -0.6917    0.0000 C   0  0  0  0  0  0  0  0  0  0  0  0
   15.0667   -2.6917    0.0000 Cl  0  0  0  0  0  0  0  0  0  0  0  0
    0.0000   -1.0667    0.0000 F   0  0  0  0  0  0  0  0  0  0  0  0
    3.8792   -1.9250    0.0000 C   0  0  0  0  0  0  0  0  0  0  0  0
    3.4667   -0.6542    0.0000 C   0  0  0  0  0  0  0  0  0  0  0  0
   10.4750   -0.0000    0.0000 C   0  0  0  0  0  0  0  0  0  0  0  0
    2.1667   -0.3750    0.0000 C   0  0  0  0  0  0  0  0  0  0  0  0
  1  2  2  0
  3  4  2  0
  1  4  1  0
  3  5  1  0
  1  6  1  0
  2  7  1  0
  2  8  1  0
  6  9  2  0
  3 10  1  0
 11 19  1  0
 11 12  1  0
  6 13  1  0
 12 14  2  0
  7 15  2  0
 10 16  1  0
 10 17  1  0
 12 18  1  0
 17 19  1  0
 16 20  1  0
 13 21  2  0
 18 22  2  0
 14 23  1  0
 21 24  1  0
 22 25  1  0
 23 26  1  0
 24 27  1  0
 13 28  1  0
 28 29  2  0
 18 30  1  0
 29 31  1  0
  8  9  1  0
  5  7  1  0
 24 31  2  0
 11 20  1  0
 23 25  2  0
M  END
>  <MOLFORMULA>  (56) 
C23 H20 Cl F N4 O S

>  <MOLWEIGHT>  (56) 
4.549550000000000e+002

>  <IDNUMBER>  (56) 
AT-687/PE25864

>  <PRICE>  (56) 
EUR 80/10 mg

>  <Similarity score>  (56) 
0.19

$$$$

     RDKit          2D

 27 31  0  0  0  0  0  0  0  0999 V2000
   10.0000   -0.2500    0.0000 C   0  0  0  0  0  0  0  0  0  0  0  0
    9.3500    0.1250    0.0000 C   0  0  0  0  0  0  0  0  0  0  0  0
    8.0500    0.8833    0.0000 C   0  0  0  0  0  0  0  0  0  0  0  0
    8.0500    0.1250    0.0000 C   0  0  0  0  0  0  0  0  0  0  0  0
    7.3917    1.2583    0.0000 C   0  0  0  0  0  0  0  0  0  0  0  0
    8.6917   -0.2500    0.0000 N   0  0  0  0  0  0  0  0  0  0  0  0
    9.3500    0.8833    0.0000 N   0  0  0  0  0  0  0  0  0  0  0  0
    8.6917    1.2583    0.0000 C   0  0  0  0  0  0  0  0  0  0  0  0
   10.6458    0.1250    0.0000 C   0  0  0  0  0  0  0  0  0  0  0  0
   10.0000   -1.0000    0.0000 C   0  0  0  0  0  0  0  0  0  0  0  0
    6.7417    0.8833    0.0000 O   0  0  0  0  0  0  0  0  0  0  0  0
    7.3917   -0.2500    0.0000 C   0  0  0  0  0  0  0  0  0  0  0  0
   11.3000   -0.2500    0.0000 O   0  0  0  0  0  0  0  0  0  0  0  0
    6.7417    0.1250    0.0000 C   0  0  0  0  0  0  0  0  0  0  0  0
   10.6458   -1.3750    0.0000 C   0  0  0  0  0  0  0  0  0  0  0  0
   11.3000   -1.0000    0.0000 C   0  0  0  0  0  0  0  0  0  0  0  0
    7.3917    2.0083    0.0000 O   0  0  0  0  0  0  0  0  0  0  0  0
   10.6458    0.8750    0.0000 O   0  0  0  0  0  0  0  0  0  0  0  0
    8.6917    2.0083    0.0000 N   0  0  0  0  0  0  0  0  0  0  0  0
    7.3917   -1.0042    0.0000 C   0  0  0  0  0  0  0  0  0  0  0  0
    6.0875   -0.2500    0.0000 C   0  0  0  0  0  0  0  0  0  0  0  0
   10.6417   -2.1250    0.0000 C   0  0  0  0  0  0  0  0  0  0  0  0
   11.9417   -1.3750    0.0000 C   0  0  0  0  0  0  0  0  0  0  0  0
    6.7417   -1.3792    0.0000 C   0  0  0  0  0  0  0  0  0  0  0  0
    6.0875   -1.0042    0.0000 C   0  0  0  0  0  0  0  0  0  0  0  0
   11.9417   -2.1250    0.0000 C   0  0  0  0  0  0  0  0  0  0  0  0
   11.2917   -2.5000    0.0000 C   0  0  0  0  0  0  0  0  0  0  0  0
  1  2  1  0
  3  8  2  0
  4  6  2  0
  3  5  1  0
  2  6  1  0
  2  7  2  0
  7  8  1  0
  1  9  1  0
  1 10  2  0
  5 11  1  0
  4 12  1  0
  9 13  1  0
 12 14  2  0
 10 15  1  0
 15 16  2  0
  5 17  2  0
  9 18  2  0
  8 19  1  0
 12 20  1  0
 14 21  1  0
 15 22  1  0
 16 23  1  0
 20 24  2  0
 24 25  1  0
 26 27  1  0
 22 27  2  0
 13 16  1  0
  3  4  1  0
 23 26  2  0
 11 14  1  0
 21 25  2  0
M  END
>  <MOLFORMULA>  (57) 
C20 H11 N3 O4

>  <MOLWEIGHT>  (57) 
3.573239000000000e+002

>  <IDNUMBER>  (57) 
AT-225/NB31025

>  <PRICE>  (57) 
EUR 140/10 mg

>  <Similarity score>  (57) 
0.19

$$$$

     RDKit          2D

 26 29  0  0  0  0  0  0  0  0999 V2000
    0.5250   -1.7750    0.0000 N   0  0  0  0  0  0  0  0  0  0  0  0
   -0.4417   -2.0292    0.0000 C   0  0  0  0  0  0  0  0  0  0  0  0
   -1.1458   -1.3167    0.0000 N   0  0  0  0  0  0  0  0  0  0  0  0
   -0.8833   -0.3542    0.0000 C   0  0  0  0  0  0  0  0  0  0  0  0
    0.7875   -0.8083    0.0000 C   0  0  0  0  0  0  0  0  0  0  0  0
    0.0875   -0.1000    0.0000 C   0  0  0  0  0  0  0  0  0  0  0  0
   -0.5292    4.2125    0.0000 N   0  0  0  0  0  0  0  0  0  0  0  0
   -0.7042   -2.9917    0.0000 N   0  0  0  0  0  0  0  0  0  0  0  0
    0.3500    0.8667    0.0000 C   0  0  0  0  0  0  0  0  0  0  0  0
   -0.3542    1.5750    0.0000 C   0  0  0  0  0  0  0  0  0  0  0  0
   -0.7917    3.2500    0.0000 C   0  0  0  0  0  0  0  0  0  0  0  0
    1.7583   -0.5583    0.0000 N   0  0  0  0  0  0  0  0  0  0  0  0
   -0.0917    2.5417    0.0000 C   0  0  0  0  0  0  0  0  0  0  0  0
   -1.2333    4.9208    0.0000 O   0  0  0  0  0  0  0  0  0  0  0  0
   -1.5833    0.3583    0.0000 O   0  0  0  0  0  0  0  0  0  0  0  0
    0.4375    4.4667    0.0000 O   0  0  0  0  0  0  0  0  0  0  0  0
   -1.2333   -4.9208    0.0000 O   0  0  0  0  0  0  0  0  0  0  0  0
    2.0208    0.4083    0.0000 C   0  0  0  0  0  0  0  0  0  0  0  0
    1.3167    1.1208    0.0000 C   0  0  0  0  0  0  0  0  0  0  0  0
   -0.0042   -3.7042    0.0000 C   0  0  0  0  0  0  0  0  0  0  0  0
   -1.6708   -3.2458    0.0000 C   0  0  0  0  0  0  0  0  0  0  0  0
   -1.3208    1.3208    0.0000 C   0  0  0  0  0  0  0  0  0  0  0  0
   -1.7625    2.9958    0.0000 C   0  0  0  0  0  0  0  0  0  0  0  0
   -2.0250    2.0333    0.0000 C   0  0  0  0  0  0  0  0  0  0  0  0
   -1.9375   -4.2125    0.0000 C   0  0  0  0  0  0  0  0  0  0  0  0
   -0.2667   -4.6667    0.0000 C   0  0  0  0  0  0  0  0  0  0  0  0
  1  2  2  0
  2  3  1  0
  4  6  1  0
  1  5  1  0
  5  6  2  0
  7 11  1  0
  2  8  1  0
  6  9  1  0
  9 10  1  0
 11 13  1  0
  5 12  1  0
 10 13  2  0
  7 14  1  0
  4 15  2  0
  7 16  2  0
 17 25  1  0
 12 18  2  0
 18 19  1  0
  8 20  1  0
  8 21  1  0
 10 22  1  0
 23 24  1  0
 22 24  2  0
 21 25  1  0
 20 26  1  0
  3  4  1  0
  9 19  2  0
 17 26  1  0
 11 23  2  0
M  CHG  2   7   1  14  -1
M  END
>  <MOLFORMULA>  (58) 
C17 H15 N5 O4

>  <MOLWEIGHT>  (58) 
3.533365000000000e+002

>  <IDNUMBER>  (58) 
AN-153/J103477

>  <PRICE>  (58) 
EUR 130/10 mg

>  <Similarity score>  (58) 
0.19

$$$$

     RDKit          2D

 35 39  0  0  0  0  0  0  0  0999 V2000
   -0.2333    0.0042    0.0000 C   0  0  0  0  0  0  0  0  0  0  0  0
    0.4583    1.5917    0.0000 C   0  0  0  0  0  0  0  0  0  0  0  0
   -0.3458    0.9958    0.0000 N   0  0  0  0  0  0  0  0  0  0  0  0
   -0.9208   -1.5875    0.0000 C   0  0  0  0  0  0  0  0  0  0  0  0
    0.6875   -0.3958    0.0000 N   0  0  0  0  0  0  0  0  0  0  0  0
    0.1125    4.5667    0.0000 C   0  0  0  0  0  0  0  0  0  0  0  0
    1.3750    1.1958    0.0000 C   0  0  0  0  0  0  0  0  0  0  0  0
    0.3417    2.5833    0.0000 C   0  0  0  0  0  0  0  0  0  0  0  0
    1.0292    4.1708    0.0000 N   0  0  0  0  0  0  0  0  0  0  0  0
   -1.0333   -0.5958    0.0000 N   0  0  0  0  0  0  0  0  0  0  0  0
    1.4875    0.2000    0.0000 C   0  0  0  0  0  0  0  0  0  0  0  0
    0.0000   -1.9833    0.0000 N   0  0  0  0  0  0  0  0  0  0  0  0
   -1.7208   -2.1833    0.0000 N   0  0  0  0  0  0  0  0  0  0  0  0
   -0.6917   -3.5750    0.0000 C   0  0  0  0  0  0  0  0  0  0  0  0
   -0.6917    3.9750    0.0000 N   0  0  0  0  0  0  0  0  0  0  0  0
    1.1458    3.1792    0.0000 C   0  0  0  0  0  0  0  0  0  0  0  0
    0.0000    5.5625    0.0000 N   0  0  0  0  0  0  0  0  0  0  0  0
    0.1125   -2.9792    0.0000 C   0  0  0  0  0  0  0  0  0  0  0  0
   -1.6083   -3.1750    0.0000 C   0  0  0  0  0  0  0  0  0  0  0  0
   -0.5750    2.9833    0.0000 C   0  0  0  0  0  0  0  0  0  0  0  0
   -0.5750   -4.5667    0.0000 C   0  0  0  0  0  0  0  0  0  0  0  0
    2.4083   -0.1958    0.0000 O   0  0  0  0  0  0  0  0  0  0  0  0
   -2.4125   -3.7750    0.0000 C   0  0  0  0  0  0  0  0  0  0  0  0
   -1.3792   -5.1625    0.0000 C   0  0  0  0  0  0  0  0  0  0  0  0
   -2.2958   -4.7667    0.0000 C   0  0  0  0  0  0  0  0  0  0  0  0
    0.8000    6.1583    0.0000 C   0  0  0  0  0  0  0  0  0  0  0  0
   -0.9208    5.9583    0.0000 C   0  0  0  0  0  0  0  0  0  0  0  0
   -1.2625   -6.1583    0.0000 O   0  0  0  0  0  0  0  0  0  0  0  0
    2.0625    2.7833    0.0000 C   0  0  0  0  0  0  0  0  0  0  0  0
    1.0292   -3.3750    0.0000 C   0  0  0  0  0  0  0  0  0  0  0  0
   -0.3458   -6.5542    0.0000 C   0  0  0  0  0  0  0  0  0  0  0  0
   -1.0333    6.9500    0.0000 C   0  0  0  0  0  0  0  0  0  0  0  0
    0.6875    7.1500    0.0000 C   0  0  0  0  0  0  0  0  0  0  0  0
   -0.2333   -7.5458    0.0000 C   0  0  0  0  0  0  0  0  0  0  0  0
   -0.2333    7.5458    0.0000 C   0  0  0  0  0  0  0  0  0  0  0  0
  2  3  1  0
  1  3  2  0
  4 10  1  0
  1  5  1  0
  6 15  2  0
  7 11  1  0
  2  8  1  0
  9 16  2  0
  1 10  1  0
  5 11  1  0
  4 12  1  0
  4 13  2  0
 14 19  2  0
 15 20  1  0
  8 16  1  0
  6 17  1  0
 12 18  2  0
 13 19  1  0
  8 20  2  0
 14 21  1  0
 11 22  2  0
 19 23  1  0
 24 25  1  0
 23 25  2  0
 17 26  1  0
 17 27  1  0
 24 28  1  0
 16 29  1  0
 18 30  1  0
 28 31  1  0
 27 32  1  0
 26 33  1  0
 31 34  1  0
 33 35  1  0
  2  7  2  0
 14 18  1  0
  6  9  1  0
 21 24  2  0
 32 35  1  0
M  END
>  <MOLFORMULA>  (59) 
C25 H28 N8 O2

>  <MOLWEIGHT>  (59) 
4.725502000000000e+002

>  <IDNUMBER>  (59) 
AN-153/NB22740

>  <PRICE>  (59) 
EUR 130/10 mg

>  <Similarity score>  (59) 
0.19

$$$$

     RDKit          2D

 24 27  0  0  0  0  0  0  0  0999 V2000
    0.8708    1.6208    0.0000 N   0  0  0  0  0  0  0  0  0  0  0  0
   -0.0583    1.9875    0.0000 C   0  0  0  0  0  0  0  0  0  0  0  0
   -0.8417    1.3625    0.0000 N   0  0  0  0  0  0  0  0  0  0  0  0
   -0.6917    0.3750    0.0000 C   0  0  0  0  0  0  0  0  0  0  0  0
    1.0208    0.6333    0.0000 C   0  0  0  0  0  0  0  0  0  0  0  0
    0.2375    0.0083    0.0000 C   0  0  0  0  0  0  0  0  0  0  0  0
   -0.2083    2.9750    0.0000 N   0  0  0  0  0  0  0  0  0  0  0  0
    0.3875   -0.9792    0.0000 C   0  0  0  0  0  0  0  0  0  0  0  0
   -0.3917   -1.6042    0.0000 C   0  0  0  0  0  0  0  0  0  0  0  0
    1.9500    0.2708    0.0000 N   0  0  0  0  0  0  0  0  0  0  0  0
   -1.4750   -0.2500    0.0000 O   0  0  0  0  0  0  0  0  0  0  0  0
   -0.2417   -2.5917    0.0000 C   0  0  0  0  0  0  0  0  0  0  0  0
   -1.0250   -3.2167    0.0000 C   0  0  0  0  0  0  0  0  0  0  0  0
    2.1000   -0.7208    0.0000 C   0  0  0  0  0  0  0  0  0  0  0  0
    1.3208   -1.3417    0.0000 C   0  0  0  0  0  0  0  0  0  0  0  0
    0.5042    3.6792    0.0000 C   0  0  0  0  0  0  0  0  0  0  0  0
   -1.0958    3.4375    0.0000 C   0  0  0  0  0  0  0  0  0  0  0  0
   -1.3250   -1.2375    0.0000 C   0  0  0  0  0  0  0  0  0  0  0  0
   -0.8750   -4.2042    0.0000 O   0  0  0  0  0  0  0  0  0  0  0  0
   -2.1042   -1.8625    0.0000 C   0  0  0  0  0  0  0  0  0  0  0  0
   -1.9542   -2.8500    0.0000 C   0  0  0  0  0  0  0  0  0  0  0  0
    0.0542   -4.5667    0.0000 C   0  0  0  0  0  0  0  0  0  0  0  0
    0.0542    4.5667    0.0000 C   0  0  0  0  0  0  0  0  0  0  0  0
   -0.9333    4.4208    0.0000 C   0  0  0  0  0  0  0  0  0  0  0  0
  1  2  2  0
  2  3  1  0
  4  6  1  0
  1  5  1  0
  5  6  2  0
  2  7  1  0
  6  8  1  0
  8  9  1  0
  5 10  1  0
  4 11  2  0
  9 12  1  0
 12 13  2  0
 10 14  2  0
 14 15  1  0
  7 16  1  0
  7 17  1  0
  9 18  2  0
 13 19  1  0
 18 20  1  0
 20 21  2  0
 19 22  1  0
 16 23  1  0
 17 24  1  0
  3  4  1  0
  8 15  2  0
 23 24  1  0
 13 21  1  0
M  END
>  <MOLFORMULA>  (60) 
C18 H18 N4 O2

>  <MOLWEIGHT>  (60) 
3.223662000000000e+002

>  <IDNUMBER>  (60) 
AN-153/J110173

>  <PRICE>  (60) 
EUR 130/10 mg

>  <Similarity score>  (60) 
0.19

$$$$

     RDKit          2D

 31 34  0  0  0  0  0  0  0  0999 V2000
    8.0667   -5.9792    0.0000 S   0  0  0  0  0  0  0  0  0  0  0  0
    8.0667   -4.6417    0.0000 C   0  0  0  0  0  0  0  0  0  0  0  0
    6.9042   -3.9667    0.0000 C   0  0  0  0  0  0  0  0  0  0  0  0
    6.9042   -2.6542    0.0000 C   0  0  0  0  0  0  0  0  0  0  0  0
    8.0667   -7.3125    0.0000 C   0  0  0  0  0  0  0  0  0  0  0  0
    5.7667   -4.6417    0.0000 N   0  0  0  0  0  0  0  0  0  0  0  0
    9.2167   -3.9667    0.0000 C   0  0  0  0  0  0  0  0  0  0  0  0
    9.2167   -2.6542    0.0000 N   0  0  0  0  0  0  0  0  0  0  0  0
    9.2167   -7.9875    0.0000 C   0  0  0  0  0  0  0  0  0  0  0  0
    6.9042   -7.9875    0.0000 C   0  0  0  0  0  0  0  0  0  0  0  0
    8.0667   -1.9917    0.0000 C   0  0  0  0  0  0  0  0  0  0  0  0
    6.7417   -5.9792    0.0000 O   0  0  0  0  0  0  0  0  0  0  0  0
    9.3917   -5.9792    0.0000 O   0  0  0  0  0  0  0  0  0  0  0  0
    5.7667   -1.9917    0.0000 C   0  0  0  0  0  0  0  0  0  0  0  0
    9.2167   -9.3125    0.0000 C   0  0  0  0  0  0  0  0  0  0  0  0
    6.9042   -9.3125    0.0000 C   0  0  0  0  0  0  0  0  0  0  0  0
    8.0667   -9.9667    0.0000 C   0  0  0  0  0  0  0  0  0  0  0  0
    4.6125   -3.9667    0.0000 C   0  0  0  0  0  0  0  0  0  0  0  0
    5.7667   -5.9792    0.0000 C   0  0  0  0  0  0  0  0  0  0  0  0
    8.0667   -0.6625    0.0000 C   0  0  0  0  0  0  0  0  0  0  0  0
    5.7667   -0.6625    0.0000 C   0  0  0  0  0  0  0  0  0  0  0  0
   10.3667   -9.9667    0.0000 F   0  0  0  0  0  0  0  0  0  0  0  0
    5.7667   -9.9667    0.0000 F   0  0  0  0  0  0  0  0  0  0  0  0
    6.9042   -0.0000    0.0000 C   0  0  0  0  0  0  0  0  0  0  0  0
    3.4625   -4.6417    0.0000 C   0  0  0  0  0  0  0  0  0  0  0  0
    4.6125   -6.6417    0.0000 C   0  0  0  0  0  0  0  0  0  0  0  0
    4.6125   -0.0000    0.0000 F   0  0  0  0  0  0  0  0  0  0  0  0
    3.4625   -5.9792    0.0000 C   0  0  0  0  0  0  0  0  0  0  0  0
    1.1500   -5.9792    0.0000 O   0  0  0  0  0  0  0  0  0  0  0  0
    2.3000   -6.6417    0.0000 C   0  0  0  0  0  0  0  0  0  0  0  0
    0.0000   -6.6417    0.0000 C   0  0  0  0  0  0  0  0  0  0  0  0
  1  2  1  0
  2  3  2  0
  3  4  1  0
  1  5  1  0
  3  6  1  0
  2  7  1  0
  7  8  2  0
  5  9  2  0
  5 10  1  0
  8 11  1  0
  1 12  2  0
  1 13  2  0
  4 14  2  0
  9 15  1  0
 10 16  2  0
 16 17  1  0
  6 18  1  0
  6 19  1  0
 11 20  2  0
 14 21  1  0
 15 22  1  0
 16 23  1  0
 20 24  1  0
 18 25  1  0
 19 26  1  0
 21 27  1  0
 26 28  1  0
 29 30  1  0
 28 30  1  0
 29 31  1  0
 15 17  2  0
  4 11  1  0
 21 24  2  0
 25 28  1  0
M  END
>  <MOLFORMULA>  (61) 
C22 H21 F3 N2 O3 S

>  <MOLWEIGHT>  (61) 
4.504789000000000e+002

>  <IDNUMBER>  (61) 
AT-687/NB06799

>  <PRICE>  (61) 
EUR 80/10 mg

>  <Similarity score>  (61) 
0.19

$$$$

     RDKit          2D

 26 30  0  0  0  0  0  0  0  0999 V2000
    4.6375   -6.0167    0.0000 C   0  0  0  0  0  0  0  0  0  0  0  0
    4.6375   -7.5917    0.0000 N   0  0  0  0  0  0  0  0  0  0  0  0
    5.3250   -6.4125    0.0000 C   0  0  0  0  0  0  0  0  0  0  0  0
    5.3250   -7.2042    0.0000 C   0  0  0  0  0  0  0  0  0  0  0  0
    3.9625   -6.4167    0.0000 C   0  0  0  0  0  0  0  0  0  0  0  0
    4.6375   -5.2292    0.0000 N   0  0  0  0  0  0  0  0  0  0  0  0
    3.9625   -7.2042    0.0000 C   0  0  0  0  0  0  0  0  0  0  0  0
    6.0083   -7.6000    0.0000 C   0  0  0  0  0  0  0  0  0  0  0  0
    6.7000   -7.2042    0.0000 C   0  0  0  0  0  0  0  0  0  0  0  0
    7.3833   -7.6042    0.0000 C   0  0  0  0  0  0  0  0  0  0  0  0
    6.0000   -8.3917    0.0000 C   0  0  0  0  0  0  0  0  0  0  0  0
    4.6375   -3.6417    0.0000 O   0  0  0  0  0  0  0  0  0  0  0  0
    7.3833   -8.3917    0.0000 C   0  0  0  0  0  0  0  0  0  0  0  0
    6.6875   -8.7917    0.0000 C   0  0  0  0  0  0  0  0  0  0  0  0
    5.3250   -4.8292    0.0000 C   0  0  0  0  0  0  0  0  0  0  0  0
    3.9500   -4.8375    0.0000 C   0  0  0  0  0  0  0  0  0  0  0  0
    3.2750   -6.0167    0.0000 C   0  0  0  0  0  0  0  0  0  0  0  0
    3.2750   -7.5917    0.0000 C   0  0  0  0  0  0  0  0  0  0  0  0
    3.9500   -4.0417    0.0000 C   0  0  0  0  0  0  0  0  0  0  0  0
    5.3167   -4.0417    0.0000 C   0  0  0  0  0  0  0  0  0  0  0  0
    8.0625   -7.2125    0.0000 C   0  0  0  0  0  0  0  0  0  0  0  0
    8.0625   -8.7875    0.0000 C   0  0  0  0  0  0  0  0  0  0  0  0
    2.6000   -6.4167    0.0000 C   0  0  0  0  0  0  0  0  0  0  0  0
    2.6000   -7.2042    0.0000 C   0  0  0  0  0  0  0  0  0  0  0  0
    8.7458   -7.6042    0.0000 C   0  0  0  0  0  0  0  0  0  0  0  0
    8.7500   -8.3917    0.0000 C   0  0  0  0  0  0  0  0  0  0  0  0
  2  7  1  0
  1  3  2  0
  3  4  1  0
  1  5  1  0
  1  6  1  0
  5  7  1  0
  4  8  1  0
  8  9  2  0
  9 10  1  0
  8 11  1  0
 12 19  1  0
 13 14  1  0
 11 14  2  0
  6 15  1  0
  6 16  1  0
  5 17  2  0
  7 18  2  0
 16 19  1  0
 15 20  1  0
 10 21  2  0
 13 22  2  0
 17 23  1  0
 23 24  2  0
 21 25  1  0
 22 26  1  0
  2  4  2  0
 12 20  1  0
 18 24  1  0
 10 13  1  0
 25 26  2  0
M  END
>  <MOLFORMULA>  (62) 
C23 H20 N2 O

>  <MOLWEIGHT>  (62) 
3.404240000000000e+002

>  <IDNUMBER>  (62) 
AT-225/NB47216

>  <SALTDATA>  (62) 
2 H2O

>  <PRICE>  (62) 
EUR 140/10 mg

>  <Similarity score>  (62) 
0.19

$$$$

     RDKit          2D

 26 30  0  0  0  0  0  0  0  0999 V2000
   -1.6125    1.1958    0.0000 C   0  0  0  0  0  0  0  0  0  0  0  0
   -1.6125   -0.3125    0.0000 N   0  0  0  0  0  0  0  0  0  0  0  0
   -0.9583    0.8208    0.0000 C   0  0  0  0  0  0  0  0  0  0  0  0
   -0.9583    0.0625    0.0000 C   0  0  0  0  0  0  0  0  0  0  0  0
   -2.2708    0.8208    0.0000 C   0  0  0  0  0  0  0  0  0  0  0  0
   -1.6125    1.9458    0.0000 N   0  0  0  0  0  0  0  0  0  0  0  0
   -2.2708    0.0625    0.0000 C   0  0  0  0  0  0  0  0  0  0  0  0
   -0.3083   -0.3125    0.0000 C   0  0  0  0  0  0  0  0  0  0  0  0
    0.3417    0.0625    0.0000 C   0  0  0  0  0  0  0  0  0  0  0  0
    0.9875   -0.3125    0.0000 C   0  0  0  0  0  0  0  0  0  0  0  0
   -0.3083   -1.0625    0.0000 C   0  0  0  0  0  0  0  0  0  0  0  0
   -1.6125    3.4583    0.0000 O   0  0  0  0  0  0  0  0  0  0  0  0
    0.9875   -1.0625    0.0000 C   0  0  0  0  0  0  0  0  0  0  0  0
    0.3417   -1.4375    0.0000 C   0  0  0  0  0  0  0  0  0  0  0  0
   -0.9625    2.3333    0.0000 C   0  0  0  0  0  0  0  0  0  0  0  0
   -2.2708    2.3333    0.0000 C   0  0  0  0  0  0  0  0  0  0  0  0
   -2.9208    1.1958    0.0000 C   0  0  0  0  0  0  0  0  0  0  0  0
   -2.9208   -0.3125    0.0000 C   0  0  0  0  0  0  0  0  0  0  0  0
   -2.2708    3.0833    0.0000 C   0  0  0  0  0  0  0  0  0  0  0  0
   -0.9583    3.0833    0.0000 C   0  0  0  0  0  0  0  0  0  0  0  0
    1.6375    0.0625    0.0000 C   0  0  0  0  0  0  0  0  0  0  0  0
    1.6375   -1.4375    0.0000 C   0  0  0  0  0  0  0  0  0  0  0  0
   -3.5708    0.8208    0.0000 C   0  0  0  0  0  0  0  0  0  0  0  0
   -3.5708    0.0625    0.0000 C   0  0  0  0  0  0  0  0  0  0  0  0
    2.2875   -0.3125    0.0000 C   0  0  0  0  0  0  0  0  0  0  0  0
    2.2875   -1.0625    0.0000 C   0  0  0  0  0  0  0  0  0  0  0  0
  2  7  2  0
  1  3  1  0
  3  4  2  0
  1  5  2  0
  1  6  1  0
  5  7  1  0
  4  8  1  0
  8  9  2  0
  9 10  1  0
  8 11  1  0
 12 19  1  0
 13 14  1  0
 11 14  2  0
  6 15  1  0
  6 16  1  0
  5 17  1  0
  7 18  1  0
 16 19  1  0
 15 20  1  0
 10 21  2  0
 13 22  2  0
 17 23  2  0
 23 24  1  0
 21 25  1  0
 22 26  1  0
  2  4  1  0
 12 20  1  0
 18 24  2  0
 10 13  1  0
 25 26  2  0
M  END
>  <MOLFORMULA>  (63) 
C23 H20 N2 O

>  <MOLWEIGHT>  (63) 
3.404240000000000e+002

>  <IDNUMBER>  (63) 
AT-225/JK06935

>  <PRICE>  (63) 
EUR 140/10 mg

>  <Similarity score>  (63) 
0.19

$$$$

     RDKit          2D

 26 30  0  0  0  0  0  0  0  0999 V2000
   -0.4333    2.9083    0.0000 C   0  0  0  0  0  0  0  0  0  0  0  0
   -0.4333    2.1583    0.0000 N   0  0  0  0  0  0  0  0  0  0  0  0
   -0.1083    2.7208    0.0000 C   0  0  0  0  0  0  0  0  0  0  0  0
   -0.1083    2.3458    0.0000 C   0  0  0  0  0  0  0  0  0  0  0  0
   -0.7625    2.7208    0.0000 C   0  0  0  0  0  0  0  0  0  0  0  0
   -0.4333    3.2958    0.0000 N   0  0  0  0  0  0  0  0  0  0  0  0
   -0.7625    2.3458    0.0000 C   0  0  0  0  0  0  0  0  0  0  0  0
    0.2167    2.1583    0.0000 C   0  0  0  0  0  0  0  0  0  0  0  0
    0.5500    2.3458    0.0000 C   0  0  0  0  0  0  0  0  0  0  0  0
    0.8750    2.1583    0.0000 C   0  0  0  0  0  0  0  0  0  0  0  0
    0.2167    1.7833    0.0000 C   0  0  0  0  0  0  0  0  0  0  0  0
   -0.4333    4.0292    0.0000 O   0  0  0  0  0  0  0  0  0  0  0  0
    0.8750    1.7833    0.0000 C   0  0  0  0  0  0  0  0  0  0  0  0
    0.5500    1.5958    0.0000 C   0  0  0  0  0  0  0  0  0  0  0  0
   -0.1083    3.4833    0.0000 C   0  0  0  0  0  0  0  0  0  0  0  0
   -0.7583    3.4833    0.0000 C   0  0  0  0  0  0  0  0  0  0  0  0
   -1.0875    2.9083    0.0000 C   0  0  0  0  0  0  0  0  0  0  0  0
   -1.0875    2.1583    0.0000 C   0  0  0  0  0  0  0  0  0  0  0  0
   -0.7583    3.8583    0.0000 C   0  0  0  0  0  0  0  0  0  0  0  0
   -0.1083    3.8583    0.0000 C   0  0  0  0  0  0  0  0  0  0  0  0
    1.2000    2.3458    0.0000 C   0  0  0  0  0  0  0  0  0  0  0  0
    1.2000    1.5958    0.0000 C   0  0  0  0  0  0  0  0  0  0  0  0
   -1.4125    2.7208    0.0000 C   0  0  0  0  0  0  0  0  0  0  0  0
   -1.4125    2.3458    0.0000 C   0  0  0  0  0  0  0  0  0  0  0  0
    1.5250    2.1583    0.0000 C   0  0  0  0  0  0  0  0  0  0  0  0
    1.5250    1.7833    0.0000 C   0  0  0  0  0  0  0  0  0  0  0  0
  2  7  2  0
  1  3  1  0
  3  4  2  0
  1  5  2  0
  1  6  1  0
  5  7  1  0
  4  8  1  0
  8  9  2  0
  9 10  1  0
  8 11  1  0
 12 19  1  0
 13 14  1  0
 11 14  2  0
  6 15  1  0
  6 16  1  0
  5 17  1  0
  7 18  1  0
 16 19  1  0
 15 20  1  0
 10 21  2  0
 13 22  2  0
 17 23  2  0
 23 24  1  0
 21 25  1  0
 22 26  1  0
  2  4  1  0
 12 20  1  0
 18 24  2  0
 10 13  1  0
 25 26  2  0
M  END
>  <MOLFORMULA>  (64) 
C23 H20 N2 O

>  <MOLWEIGHT>  (64) 
3.404240000000000e+002

>  <IDNUMBER>  (64) 
AT-225/JK07151

>  <PRICE>  (64) 
EUR 140/10 mg

>  <Similarity score>  (64) 
0.19

$$$$

     RDKit          2D

 26 30  0  0  0  0  0  0  0  0999 V2000
    4.6875   -6.0417    0.0000 C   0  0  0  0  0  0  0  0  0  0  0  0
    4.6875   -7.5417    0.0000 N   0  0  0  0  0  0  0  0  0  0  0  0
    5.3417   -6.4167    0.0000 C   0  0  0  0  0  0  0  0  0  0  0  0
    5.3417   -7.1667    0.0000 C   0  0  0  0  0  0  0  0  0  0  0  0
    4.0375   -6.4250    0.0000 C   0  0  0  0  0  0  0  0  0  0  0  0
    4.6792   -5.3000    0.0000 N   0  0  0  0  0  0  0  0  0  0  0  0
    4.0375   -7.1667    0.0000 C   0  0  0  0  0  0  0  0  0  0  0  0
    6.0000   -7.5417    0.0000 C   0  0  0  0  0  0  0  0  0  0  0  0
    6.6417   -7.1667    0.0000 C   0  0  0  0  0  0  0  0  0  0  0  0
    7.3000   -7.5375    0.0000 C   0  0  0  0  0  0  0  0  0  0  0  0
    5.9917   -8.2917    0.0000 C   0  0  0  0  0  0  0  0  0  0  0  0
    4.6792   -3.8083    0.0000 O   0  0  0  0  0  0  0  0  0  0  0  0
    7.3000   -8.2917    0.0000 C   0  0  0  0  0  0  0  0  0  0  0  0
    6.6500   -8.6625    0.0000 C   0  0  0  0  0  0  0  0  0  0  0  0
    5.3375   -4.9292    0.0000 C   0  0  0  0  0  0  0  0  0  0  0  0
    4.0292   -4.9292    0.0000 C   0  0  0  0  0  0  0  0  0  0  0  0
    3.3792   -6.0500    0.0000 C   0  0  0  0  0  0  0  0  0  0  0  0
    3.3792   -7.5417    0.0000 C   0  0  0  0  0  0  0  0  0  0  0  0
    4.0292   -4.1833    0.0000 C   0  0  0  0  0  0  0  0  0  0  0  0
    5.3375   -4.1792    0.0000 C   0  0  0  0  0  0  0  0  0  0  0  0
    7.9500   -7.1625    0.0000 C   0  0  0  0  0  0  0  0  0  0  0  0
    7.9542   -8.6542    0.0000 C   0  0  0  0  0  0  0  0  0  0  0  0
    2.7292   -6.4250    0.0000 C   0  0  0  0  0  0  0  0  0  0  0  0
    2.7292   -7.1667    0.0000 C   0  0  0  0  0  0  0  0  0  0  0  0
    8.6042   -7.5292    0.0000 C   0  0  0  0  0  0  0  0  0  0  0  0
    8.6167   -8.2792    0.0000 C   0  0  0  0  0  0  0  0  0  0  0  0
  2  7  1  0
  1  3  2  0
  3  4  1  0
  1  5  1  0
  1  6  1  0
  5  7  1  0
  4  8  1  0
  8  9  1  0
  9 10  2  0
  8 11  2  0
 12 19  1  0
 13 14  2  0
 11 14  1  0
  6 15  1  0
  6 16  1  0
  5 17  2  0
  7 18  2  0
 16 19  1  0
 15 20  1  0
 10 21  1  0
 13 22  1  0
 17 23  1  0
 23 24  2  0
 21 25  2  0
 22 26  2  0
  2  4  2  0
 12 20  1  0
 18 24  1  0
 10 13  1  0
 25 26  1  0
M  END
>  <MOLFORMULA>  (65) 
C23 H20 N2 O

>  <MOLWEIGHT>  (65) 
3.404240000000000e+002

>  <IDNUMBER>  (65) 
AT-225/NB46582

>  <SALTDATA>  (65) 
H2O

>  <PRICE>  (65) 
EUR 140/10 mg

>  <Similarity score>  (65) 
0.19

$$$$

     RDKit          2D

 26 30  0  0  0  0  0  0  0  0999 V2000
    4.6875   -6.0292    0.0000 C   0  0  0  0  0  0  0  0  0  0  0  0
    4.6875   -7.5250    0.0000 N   0  0  0  0  0  0  0  0  0  0  0  0
    5.3417   -6.4042    0.0000 C   0  0  0  0  0  0  0  0  0  0  0  0
    5.3417   -7.1542    0.0000 C   0  0  0  0  0  0  0  0  0  0  0  0
    4.0375   -6.4042    0.0000 C   0  0  0  0  0  0  0  0  0  0  0  0
    4.6792   -5.2792    0.0000 N   0  0  0  0  0  0  0  0  0  0  0  0
    4.0375   -7.1542    0.0000 C   0  0  0  0  0  0  0  0  0  0  0  0
    6.0000   -7.5250    0.0000 C   0  0  0  0  0  0  0  0  0  0  0  0
    6.6417   -7.1500    0.0000 C   0  0  0  0  0  0  0  0  0  0  0  0
    7.3000   -7.5167    0.0000 C   0  0  0  0  0  0  0  0  0  0  0  0
    5.9917   -8.2667    0.0000 C   0  0  0  0  0  0  0  0  0  0  0  0
    4.6792   -3.7917    0.0000 O   0  0  0  0  0  0  0  0  0  0  0  0
    7.3000   -8.2667    0.0000 C   0  0  0  0  0  0  0  0  0  0  0  0
    6.6500   -8.6417    0.0000 C   0  0  0  0  0  0  0  0  0  0  0  0
    5.3375   -4.9042    0.0000 C   0  0  0  0  0  0  0  0  0  0  0  0
    4.0292   -4.9125    0.0000 C   0  0  0  0  0  0  0  0  0  0  0  0
    3.3792   -6.0292    0.0000 C   0  0  0  0  0  0  0  0  0  0  0  0
    3.3792   -7.5250    0.0000 C   0  0  0  0  0  0  0  0  0  0  0  0
    4.0292   -4.1667    0.0000 C   0  0  0  0  0  0  0  0  0  0  0  0
    5.3375   -4.1625    0.0000 C   0  0  0  0  0  0  0  0  0  0  0  0
    7.9500   -7.1417    0.0000 C   0  0  0  0  0  0  0  0  0  0  0  0
    7.9542   -8.6375    0.0000 C   0  0  0  0  0  0  0  0  0  0  0  0
    2.7292   -6.4042    0.0000 C   0  0  0  0  0  0  0  0  0  0  0  0
    2.7292   -7.1542    0.0000 C   0  0  0  0  0  0  0  0  0  0  0  0
    8.6042   -7.5125    0.0000 C   0  0  0  0  0  0  0  0  0  0  0  0
    8.6167   -8.2625    0.0000 C   0  0  0  0  0  0  0  0  0  0  0  0
  2  7  1  0
  1  3  2  0
  3  4  1  0
  1  5  1  0
  1  6  1  0
  5  7  1  0
  4  8  1  0
  8  9  1  0
  9 10  2  0
  8 11  2  0
 12 19  1  0
 13 14  2  0
 11 14  1  0
  6 15  1  0
  6 16  1  0
  5 17  2  0
  7 18  2  0
 16 19  1  0
 15 20  1  0
 10 21  1  0
 13 22  1  0
 17 23  1  0
 23 24  2  0
 21 25  2  0
 22 26  2  0
  2  4  2  0
 12 20  1  0
 18 24  1  0
 10 13  1  0
 25 26  1  0
M  END
>  <MOLFORMULA>  (66) 
C23 H20 N2 O

>  <MOLWEIGHT>  (66) 
3.404240000000000e+002

>  <IDNUMBER>  (66) 
AT-225/NB48342

>  <SALTDATA>  (66) 
3 H2O

>  <PRICE>  (66) 
EUR 140/10 mg

>  <Similarity score>  (66) 
0.19

$$$$

     RDKit          2D

 26 28  0  0  0  0  0  0  0  0999 V2000
    5.5167   -2.8667    0.0000 N   0  0  0  0  0  0  0  0  0  0  0  0
    4.8042   -2.4542    0.0000 C   0  0  0  0  0  0  0  0  0  0  0  0
    6.2375   -2.4542    0.0000 C   0  0  0  0  0  0  0  0  0  0  0  0
    4.8042   -1.6250    0.0000 C   0  0  0  0  0  0  0  0  0  0  0  0
    4.0917   -2.8667    0.0000 N   0  0  0  0  0  0  0  0  0  0  0  0
    6.2375   -1.6250    0.0000 N   0  0  0  0  0  0  0  0  0  0  0  0
    6.9542   -3.6917    0.0000 N   0  0  0  0  0  0  0  0  0  0  0  0
    5.5167   -1.2125    0.0000 C   0  0  0  0  0  0  0  0  0  0  0  0
    6.9542   -2.8667    0.0000 N   0  0  0  0  0  0  0  0  0  0  0  0
    4.0917   -1.2167    0.0000 F   0  0  0  0  0  0  0  0  0  0  0  0
    7.6667   -4.1000    0.0000 C   0  0  0  0  0  0  0  0  0  0  0  0
    8.3792   -3.6792    0.0000 C   0  0  0  0  0  0  0  0  0  0  0  0
    9.8000   -2.8417    0.0000 C   0  0  0  0  0  0  0  0  0  0  0  0
    8.3667   -2.8542    0.0000 C   0  0  0  0  0  0  0  0  0  0  0  0
    9.1000   -4.0875    0.0000 C   0  0  0  0  0  0  0  0  0  0  0  0
    9.0792   -2.4375    0.0000 C   0  0  0  0  0  0  0  0  0  0  0  0
    9.8125   -3.6667    0.0000 C   0  0  0  0  0  0  0  0  0  0  0  0
    4.0125   -3.6875    0.0000 C   0  0  0  0  0  0  0  0  0  0  0  0
    3.3417   -2.5292    0.0000 C   0  0  0  0  0  0  0  0  0  0  0  0
   10.5792   -2.5792    0.0000 O   0  0  0  0  0  0  0  0  0  0  0  0
   12.3250   -3.9417    0.0000 O   0  0  0  0  0  0  0  0  0  0  0  0
   11.0792   -3.2417    0.0000 C   0  0  0  0  0  0  0  0  0  0  0  0
   11.9042   -3.2292    0.0000 C   0  0  0  0  0  0  0  0  0  0  0  0
   13.1500   -3.9292    0.0000 C   0  0  0  0  0  0  0  0  0  0  0  0
    3.2042   -3.8542    0.0000 C   0  0  0  0  0  0  0  0  0  0  0  0
    2.7917   -3.1417    0.0000 C   0  0  0  0  0  0  0  0  0  0  0  0
  1  2  1  0
  1  3  2  0
  2  4  2  0
  2  5  1  0
  3  6  1  0
  7  9  1  0
  6  8  2  0
  3  9  1  0
  4 10  1  0
  7 11  2  0
 11 12  1  0
 13 17  2  0
 12 14  1  0
 12 15  2  0
 14 16  2  0
 15 17  1  0
  5 18  1  0
  5 19  1  0
 13 20  1  0
 21 23  1  0
 20 22  1  0
 22 23  1  0
 21 24  1  0
 18 25  1  0
 19 26  1  0
  4  8  1  0
 25 26  1  0
 13 16  1  0
M  END
>  <MOLFORMULA>  (67) 
C18 H22 F N5 O2

>  <MOLWEIGHT>  (67) 
3.594028000000000e+002

>  <IDNUMBER>  (67) 
AT-138/QI01032

>  <CHIRALFLAG>  (67) 
-

>  <PRICE>  (67) 
EUR 125.00/10 mg

>  <Similarity score>  (67) 
0.19

$$$$

     RDKit          2D

 24 26  0  0  0  0  0  0  0  0999 V2000
    1.6417   -1.4917    0.0000 S   0  0  0  0  0  0  0  0  0  0  0  0
    0.9250   -1.9000    0.0000 C   0  0  0  0  0  0  0  0  0  0  0  0
    0.2042   -1.5000    0.0000 C   0  0  0  0  0  0  0  0  0  0  0  0
   -0.5000   -1.9167    0.0000 C   0  0  0  0  0  0  0  0  0  0  0  0
    0.2167   -3.1500    0.0000 N   0  0  0  0  0  0  0  0  0  0  0  0
    2.3500   -1.0750    0.0000 C   0  0  0  0  0  0  0  0  0  0  0  0
   -0.5000   -2.7417    0.0000 C   0  0  0  0  0  0  0  0  0  0  0  0
    0.9250   -2.7292    0.0000 C   0  0  0  0  0  0  0  0  0  0  0  0
    3.7750   -1.0667    0.0000 C   0  0  0  0  0  0  0  0  0  0  0  0
    5.2000   -1.8750    0.0000 N   0  0  0  0  0  0  0  0  0  0  0  0
    4.4917   -1.4667    0.0000 C   0  0  0  0  0  0  0  0  0  0  0  0
    3.0667   -1.4750    0.0000 C   0  0  0  0  0  0  0  0  0  0  0  0
    2.0500   -2.2000    0.0000 O   0  0  0  0  0  0  0  0  0  0  0  0
    1.2250   -0.7750    0.0000 O   0  0  0  0  0  0  0  0  0  0  0  0
    3.7750   -0.2292    0.0000 C   0  0  0  0  0  0  0  0  0  0  0  0
   -1.2125   -3.1500    0.0000 C   0  0  0  0  0  0  0  0  0  0  0  0
    2.3417   -0.2500    0.0000 C   0  0  0  0  0  0  0  0  0  0  0  0
    3.0500    0.1750    0.0000 C   0  0  0  0  0  0  0  0  0  0  0  0
    0.2000   -0.6750    0.0000 Cl  0  0  0  0  0  0  0  0  0  0  0  0
    4.4792    0.1833    0.0000 F   0  0  0  0  0  0  0  0  0  0  0  0
   -1.2125   -3.9750    0.0000 F   0  0  0  0  0  0  0  0  0  0  0  0
   -1.2125   -1.5000    0.0000 C   0  0  0  0  0  0  0  0  0  0  0  0
   -1.9250   -1.9167    0.0000 C   0  0  0  0  0  0  0  0  0  0  0  0
   -1.9250   -2.7417    0.0000 C   0  0  0  0  0  0  0  0  0  0  0  0
  1  2  1  0
  2  3  2  0
  3  4  1  0
  5  8  2  0
  1  6  1  0
  5  7  1  0
  2  8  1  0
  9 12  1  0
 10 11  3  0
  9 11  1  0
  6 12  2  0
  1 13  2  0
  1 14  2  0
 15 18  1  0
  7 16  1  0
  6 17  1  0
 17 18  2  0
  3 19  1  0
 15 20  1  0
 16 21  1  0
  4 22  1  0
 22 23  2  0
 16 24  2  0
  9 15  2  0
  4  7  2  0
 23 24  1  0
M  END
>  <MOLFORMULA>  (68) 
C16 H7 Cl F2 N2 O2 S

>  <MOLWEIGHT>  (68) 
3.647583000000000e+002

>  <IDNUMBER>  (68) 
AT-687/PE27587

>  <PRICE>  (68) 
EUR 80/10 mg

>  <Similarity score>  (68) 
0.19

$$$$

     RDKit          2D

 25 28  0  0  0  0  0  0  0  0999 V2000
    0.3583    2.5208    0.0000 N   0  0  0  0  0  0  0  0  0  0  0  0
   -0.6333    2.4000    0.0000 C   0  0  0  0  0  0  0  0  0  0  0  0
   -1.0208    1.4792    0.0000 N   0  0  0  0  0  0  0  0  0  0  0  0
   -0.4208    0.6792    0.0000 C   0  0  0  0  0  0  0  0  0  0  0  0
    0.9625    1.7250    0.0000 C   0  0  0  0  0  0  0  0  0  0  0  0
    0.5750    0.8042    0.0000 C   0  0  0  0  0  0  0  0  0  0  0  0
   -1.2375    3.1958    0.0000 N   0  0  0  0  0  0  0  0  0  0  0  0
    1.1750    0.0042    0.0000 C   0  0  0  0  0  0  0  0  0  0  0  0
    1.9542    1.8500    0.0000 N   0  0  0  0  0  0  0  0  0  0  0  0
   -0.8083   -0.2417    0.0000 O   0  0  0  0  0  0  0  0  0  0  0  0
    0.7875   -0.9167    0.0000 C   0  0  0  0  0  0  0  0  0  0  0  0
   -0.2042   -1.0375    0.0000 C   0  0  0  0  0  0  0  0  0  0  0  0
    1.3875   -1.7125    0.0000 C   0  0  0  0  0  0  0  0  0  0  0  0
    0.0083   -2.7583    0.0000 C   0  0  0  0  0  0  0  0  0  0  0  0
    2.5583    1.0500    0.0000 C   0  0  0  0  0  0  0  0  0  0  0  0
   -0.5958   -1.9583    0.0000 C   0  0  0  0  0  0  0  0  0  0  0  0
    1.0000   -2.6333    0.0000 C   0  0  0  0  0  0  0  0  0  0  0  0
    2.1667    0.1292    0.0000 C   0  0  0  0  0  0  0  0  0  0  0  0
   -2.2333    3.1792    0.0000 C   0  0  0  0  0  0  0  0  0  0  0  0
   -0.9458    4.1500    0.0000 C   0  0  0  0  0  0  0  0  0  0  0  0
   -0.3833   -3.6792    0.0000 O   0  0  0  0  0  0  0  0  0  0  0  0
   -1.3750   -3.8000    0.0000 C   0  0  0  0  0  0  0  0  0  0  0  0
   -2.5625    4.1208    0.0000 C   0  0  0  0  0  0  0  0  0  0  0  0
   -1.7625    4.7208    0.0000 C   0  0  0  0  0  0  0  0  0  0  0  0
   -1.7625   -4.7208    0.0000 C   0  0  0  0  0  0  0  0  0  0  0  0
  1  2  2  0
  2  3  1  0
  4  6  1  0
  1  5  1  0
  5  6  2  0
  2  7  1  0
  6  8  1  0
  5  9  1  0
  4 10  2  0
  8 11  1  0
 11 12  2  0
 11 13  1  0
 14 16  2  0
  9 15  2  0
 12 16  1  0
 13 17  2  0
 15 18  1  0
  7 19  1  0
  7 20  1  0
 14 21  1  0
 21 22  1  0
 19 23  1  0
 20 24  1  0
 22 25  1  0
  3  4  1  0
  8 18  2  0
 23 24  1  0
 14 17  1  0
M  END
>  <MOLFORMULA>  (69) 
C19 H20 N4 O2

>  <MOLWEIGHT>  (69) 
3.363930000000000e+002

>  <IDNUMBER>  (69) 
AN-153/NB20267

>  <PRICE>  (69) 
EUR 130/10 mg

>  <Similarity score>  (69) 
0.19

$$$$

     RDKit          2D

 33 36  0  0  0  0  0  0  0  0999 V2000
    4.6167   -6.6417    0.0000 S   0  0  0  0  0  0  0  0  0  0  0  0
    5.7667   -7.3167    0.0000 C   0  0  0  0  0  0  0  0  0  0  0  0
    6.9125   -1.3167    0.0000 S   0  0  0  0  0  0  0  0  0  0  0  0
    6.9125   -6.6417    0.0000 C   0  0  0  0  0  0  0  0  0  0  0  0
    8.0667   -7.3167    0.0000 C   0  0  0  0  0  0  0  0  0  0  0  0
    6.9125   -2.6625    0.0000 N   0  0  0  0  0  0  0  0  0  0  0  0
    3.4625   -5.9875    0.0000 C   0  0  0  0  0  0  0  0  0  0  0  0
    6.9125   -5.3000    0.0000 N   0  0  0  0  0  0  0  0  0  0  0  0
    5.7667   -8.6375    0.0000 C   0  0  0  0  0  0  0  0  0  0  0  0
    6.9125   -9.3125    0.0000 N   0  0  0  0  0  0  0  0  0  0  0  0
    3.4625   -4.6417    0.0000 C   0  0  0  0  0  0  0  0  0  0  0  0
   12.6875   -5.9875    0.0000 N   0  0  0  0  0  0  0  0  0  0  0  0
    8.0667   -8.6375    0.0000 C   0  0  0  0  0  0  0  0  0  0  0  0
    2.3042   -3.9792    0.0000 C   0  0  0  0  0  0  0  0  0  0  0  0
    5.2875   -5.4917    0.0000 O   0  0  0  0  0  0  0  0  0  0  0  0
    3.9542   -7.8000    0.0000 O   0  0  0  0  0  0  0  0  0  0  0  0
    5.7667   -3.3167    0.0000 C   0  0  0  0  0  0  0  0  0  0  0  0
    8.0667   -3.3167    0.0000 C   0  0  0  0  0  0  0  0  0  0  0  0
    8.2417   -1.3167    0.0000 O   0  0  0  0  0  0  0  0  0  0  0  0
    5.5917   -1.3167    0.0000 O   0  0  0  0  0  0  0  0  0  0  0  0
   11.5292   -6.6417    0.0000 C   0  0  0  0  0  0  0  0  0  0  0  0
    9.2167   -6.6417    0.0000 C   0  0  0  0  0  0  0  0  0  0  0  0
    8.0667   -4.6417    0.0000 C   0  0  0  0  0  0  0  0  0  0  0  0
    5.7667   -4.6417    0.0000 C   0  0  0  0  0  0  0  0  0  0  0  0
    1.1542   -4.6542    0.0000 C   0  0  0  0  0  0  0  0  0  0  0  0
    2.3042   -6.6417    0.0000 C   0  0  0  0  0  0  0  0  0  0  0  0
    1.1542   -5.9875    0.0000 C   0  0  0  0  0  0  0  0  0  0  0  0
   10.3750   -7.3167    0.0000 C   0  0  0  0  0  0  0  0  0  0  0  0
    9.2167   -9.3125    0.0000 C   0  0  0  0  0  0  0  0  0  0  0  0
    6.9125   -0.0000    0.0000 C   0  0  0  0  0  0  0  0  0  0  0  0
    2.3042   -2.6625    0.0000 Cl  0  0  0  0  0  0  0  0  0  0  0  0
    0.0000   -3.9792    0.0000 F   0  0  0  0  0  0  0  0  0  0  0  0
   10.3750   -8.6375    0.0000 C   0  0  0  0  0  0  0  0  0  0  0  0
  1  2  1  0
  3  6  1  0
  2  4  2  0
  4  5  1  0
  6 17  1  0
  1  7  1  0
  4  8  1  0
  2  9  1  0
  9 10  2  0
  7 11  1  0
 12 21  3  0
 10 13  1  0
 11 14  2  0
  1 15  2  0
  1 16  2  0
 17 24  1  0
 18 23  1  0
  3 19  2  0
  3 20  2  0
 21 28  1  0
  5 22  2  0
  8 23  1  0
  8 24  1  0
 25 27  2  0
  7 26  2  0
 26 27  1  0
 22 28  1  0
 13 29  2  0
  3 30  1  0
 14 31  1  0
 25 32  1  0
 29 33  1  0
 14 25  1  0
  5 13  1  0
  6 18  1  0
 28 33  2  0
M  END
>  <MOLFORMULA>  (70) 
C21 H18 Cl F N4 O4 S2

>  <MOLWEIGHT>  (70) 
5.089802000000000e+002

>  <IDNUMBER>  (70) 
AT-687/NB06791

>  <PRICE>  (70) 
EUR 80/10 mg

>  <Similarity score>  (70) 
0.19

$$$$

     RDKit          2D

 59 66  0  0  0  0  0  0  0  0999 V2000
   -0.1458   -1.1167    0.0000 N   0  0  0  0  0  0  0  0  0  0  0  0
    6.3167   -1.0917    0.0000 N   0  0  0  0  0  0  0  0  0  0  0  0
   -0.7958   -2.2417    0.0000 C   0  0  0  0  0  0  0  0  0  0  0  0
    6.9792   -2.2125    0.0000 C   0  0  0  0  0  0  0  0  0  0  0  0
   -0.1458   -1.8667    0.0000 C   0  0  0  0  0  0  0  0  0  0  0  0
    6.3250   -1.8417    0.0000 C   0  0  0  0  0  0  0  0  0  0  0  0
   -1.4500   -4.1125    0.0000 N   0  0  0  0  0  0  0  0  0  0  0  0
    7.6417   -4.0792    0.0000 N   0  0  0  0  0  0  0  0  0  0  0  0
    7.6042    1.1708    0.0000 N   0  0  0  0  0  0  0  0  0  0  0  0
   -1.4458    1.1458    0.0000 N   0  0  0  0  0  0  0  0  0  0  0  0
    6.9667   -0.7125    0.0000 C   0  0  0  0  0  0  0  0  0  0  0  0
   -0.7958   -0.7417    0.0000 C   0  0  0  0  0  0  0  0  0  0  0  0
   -1.4458   -1.8667    0.0000 C   0  0  0  0  0  0  0  0  0  0  0  0
    7.6250   -1.8292    0.0000 C   0  0  0  0  0  0  0  0  0  0  0  0
    7.6167   -1.0792    0.0000 C   0  0  0  0  0  0  0  0  0  0  0  0
   -1.4458   -1.1167    0.0000 C   0  0  0  0  0  0  0  0  0  0  0  0
    6.9792   -2.9625    0.0000 C   0  0  0  0  0  0  0  0  0  0  0  0
   -0.7958   -2.9917    0.0000 C   0  0  0  0  0  0  0  0  0  0  0  0
    7.6292   -3.3292    0.0000 C   0  0  0  0  0  0  0  0  0  0  0  0
   -1.4458   -3.3625    0.0000 C   0  0  0  0  0  0  0  0  0  0  0  0
    7.6042    0.4208    0.0000 C   0  0  0  0  0  0  0  0  0  0  0  0
   -1.4458    0.3958    0.0000 C   0  0  0  0  0  0  0  0  0  0  0  0
    6.9625    0.0375    0.0000 C   0  0  0  0  0  0  0  0  0  0  0  0
   -0.7958    0.0125    0.0000 C   0  0  0  0  0  0  0  0  0  0  0  0
    0.5042   -2.2417    0.0000 C   0  0  0  0  0  0  0  0  0  0  0  0
    5.6792   -2.2167    0.0000 C   0  0  0  0  0  0  0  0  0  0  0  0
    8.2750   -2.2042    0.0000 C   0  0  0  0  0  0  0  0  0  0  0  0
   -2.0958   -2.2375    0.0000 C   0  0  0  0  0  0  0  0  0  0  0  0
   -2.0958   -0.7417    0.0000 C   0  0  0  0  0  0  0  0  0  0  0  0
    8.2667   -0.7042    0.0000 C   0  0  0  0  0  0  0  0  0  0  0  0
   -0.7958    1.5208    0.0000 O   0  0  0  0  0  0  0  0  0  0  0  0
   -2.1000   -4.4875    0.0000 O   0  0  0  0  0  0  0  0  0  0  0  0
    8.2500    1.5458    0.0000 O   0  0  0  0  0  0  0  0  0  0  0  0
    6.9917   -4.4625    0.0000 O   0  0  0  0  0  0  0  0  0  0  0  0
   -2.0958    1.5208    0.0000 O   0  0  0  0  0  0  0  0  0  0  0  0
    6.9542    1.5375    0.0000 O   0  0  0  0  0  0  0  0  0  0  0  0
   -0.8000   -4.4917    0.0000 O   0  0  0  0  0  0  0  0  0  0  0  0
    8.2917   -4.4542    0.0000 O   0  0  0  0  0  0  0  0  0  0  0  0
   -2.0958   -2.9875    0.0000 C   0  0  0  0  0  0  0  0  0  0  0  0
    8.2792   -2.9542    0.0000 C   0  0  0  0  0  0  0  0  0  0  0  0
    0.5042   -2.9917    0.0000 C   0  0  0  0  0  0  0  0  0  0  0  0
    5.6792   -2.9667    0.0000 C   0  0  0  0  0  0  0  0  0  0  0  0
   -2.0958    0.0125    0.0000 C   0  0  0  0  0  0  0  0  0  0  0  0
    8.2625    0.0458    0.0000 C   0  0  0  0  0  0  0  0  0  0  0  0
    1.1542   -3.3667    0.0000 C   0  0  0  0  0  0  0  0  0  0  0  0
    5.0375   -3.3500    0.0000 C   0  0  0  0  0  0  0  0  0  0  0  0
    1.1542   -1.8667    0.0000 C   0  0  0  0  0  0  0  0  0  0  0  0
    5.0250   -1.8500    0.0000 C   0  0  0  0  0  0  0  0  0  0  0  0
    1.1500   -4.1167    0.0000 O   0  0  0  0  0  0  0  0  0  0  0  0
    5.0417   -4.1000    0.0000 O   0  0  0  0  0  0  0  0  0  0  0  0
    4.3792   -2.2292    0.0000 C   0  0  0  0  0  0  0  0  0  0  0  0
    1.8042   -2.2417    0.0000 C   0  0  0  0  0  0  0  0  0  0  0  0
    3.0917   -4.4875    0.0000 O   0  0  0  0  0  0  0  0  0  0  0  0
    4.3792   -2.9792    0.0000 C   0  0  0  0  0  0  0  0  0  0  0  0
    1.8042   -2.9917    0.0000 C   0  0  0  0  0  0  0  0  0  0  0  0
    1.8000   -4.4917    0.0000 C   0  0  0  0  0  0  0  0  0  0  0  0
    4.3917   -4.4792    0.0000 C   0  0  0  0  0  0  0  0  0  0  0  0
    3.7417   -4.1042    0.0000 C   0  0  0  0  0  0  0  0  0  0  0  0
    2.4417   -4.1167    0.0000 C   0  0  0  0  0  0  0  0  0  0  0  0
  2  6  2  0
  3  5  1  0
  4  6  1  0
  1  5  2  0
  6 26  1  0
  7 20  1  0
  8 19  1  0
  9 21  1  0
 10 22  1  0
  2 11  1  0
  1 12  1  0
 13 16  1  0
  4 14  2  0
 14 15  1  0
 12 16  1  0
  4 17  1  0
  3 18  1  0
 17 19  2  0
 18 20  2  0
 21 23  2  0
 22 24  1  0
 11 23  1  0
 12 24  2  0
  5 25  1  0
 26 42  2  0
 14 27  1  0
 13 28  1  0
 16 29  2  0
 15 30  1  0
 10 31  1  0
  7 32  1  0
  9 33  1  0
  8 34  1  0
 10 35  2  0
  9 36  2  0
  7 37  2  0
  8 38  2  0
 28 39  2  0
 19 40  1  0
 25 41  1  0
 42 46  1  0
 22 43  2  0
 30 44  2  0
 41 45  2  0
 46 50  1  0
 25 47  2  0
 48 51  2  0
 45 49  1  0
 50 57  1  0
 51 54  1  0
 47 52  1  0
 53 59  1  0
 46 54  2  0
 52 55  2  0
 49 56  1  0
 57 58  1  0
 53 58  1  0
 56 59  1  0
  3 13  2  0
 29 43  1  0
 20 39  1  0
 45 55  1  0
 26 48  1  0
 11 15  2  0
 27 40  2  0
 21 44  1  0
M  CHG  8   7   1   8   1   9   1  10   1  31  -1  32  -1  33  -1  34  -1
M  END
>  <MOLFORMULA>  (71) 
C42 H28 N6 O11

>  <MOLWEIGHT>  (71) 
7.927142000000000e+002

>  <IDNUMBER>  (71) 
AT-225/NB31042

>  <PRICE>  (71) 
EUR 140/10 mg

>  <Similarity score>  (71) 
0.19

$$$$

     RDKit          2D

 30 33  0  0  0  0  0  0  0  0999 V2000
    5.6042   -5.4125    0.0000 C   0  0  0  0  0  0  0  0  0  0  0  0
    6.3250   -4.9875    0.0000 C   0  0  0  0  0  0  0  0  0  0  0  0
    6.3250   -4.1667    0.0000 N   0  0  0  0  0  0  0  0  0  0  0  0
    6.3292   -1.6875    0.0000 C   0  0  0  0  0  0  0  0  0  0  0  0
    7.0500   -5.4125    0.0000 C   0  0  0  0  0  0  0  0  0  0  0  0
    7.0500   -1.2875    0.0000 N   0  0  0  0  0  0  0  0  0  0  0  0
    7.0375   -0.4625    0.0000 C   0  0  0  0  0  0  0  0  0  0  0  0
    6.3167   -6.6542    0.0000 N   0  0  0  0  0  0  0  0  0  0  0  0
    7.7625   -5.0000    0.0000 C   0  0  0  0  0  0  0  0  0  0  0  0
    8.4750   -4.5875    0.0000 N   0  0  0  0  0  0  0  0  0  0  0  0
    5.6000   -6.2417    0.0000 C   0  0  0  0  0  0  0  0  0  0  0  0
    6.3250   -0.0750    0.0000 C   0  0  0  0  0  0  0  0  0  0  0  0
    4.8875   -5.0000    0.0000 C   0  0  0  0  0  0  0  0  0  0  0  0
    7.0500   -6.2417    0.0000 C   0  0  0  0  0  0  0  0  0  0  0  0
    6.3292   -2.5167    0.0000 C   0  0  0  0  0  0  0  0  0  0  0  0
    5.6125   -3.7542    0.0000 C   0  0  0  0  0  0  0  0  0  0  0  0
    7.0417   -3.7542    0.0000 C   0  0  0  0  0  0  0  0  0  0  0  0
    7.7417   -0.0542    0.0000 C   0  0  0  0  0  0  0  0  0  0  0  0
    5.6167   -1.2750    0.0000 O   0  0  0  0  0  0  0  0  0  0  0  0
    7.0500   -2.9375    0.0000 C   0  0  0  0  0  0  0  0  0  0  0  0
    5.6125   -2.9292    0.0000 C   0  0  0  0  0  0  0  0  0  0  0  0
    4.8875   -6.6500    0.0000 C   0  0  0  0  0  0  0  0  0  0  0  0
    7.7375    0.7625    0.0000 C   0  0  0  0  0  0  0  0  0  0  0  0
    6.3125    0.7458    0.0000 C   0  0  0  0  0  0  0  0  0  0  0  0
    4.1750   -5.4125    0.0000 C   0  0  0  0  0  0  0  0  0  0  0  0
    7.0125    1.1708    0.0000 C   0  0  0  0  0  0  0  0  0  0  0  0
    4.1750   -6.2375    0.0000 C   0  0  0  0  0  0  0  0  0  0  0  0
    5.5917    1.1458    0.0000 Cl  0  0  0  0  0  0  0  0  0  0  0  0
    3.4625   -4.9875    0.0000 F   0  0  0  0  0  0  0  0  0  0  0  0
    8.4625   -0.4625    0.0000 C   0  0  0  0  0  0  0  0  0  0  0  0
  1  2  1  0
  2  3  1  0
  4 15  1  0
  2  5  2  0
  4  6  1  0
  6  7  1  0
  8 11  1  0
  5  9  1  0
  9 10  3  0
  1 11  1  0
  7 12  1  0
  1 13  2  0
  8 14  2  0
 15 20  1  0
  3 16  1  0
  3 17  1  0
  7 18  2  0
  4 19  2  0
 17 20  1  0
 16 21  1  0
 11 22  2  0
 18 23  1  0
 12 24  2  0
 13 25  1  0
 23 26  2  0
 25 27  2  0
 24 28  1  0
 25 29  1  0
 18 30  1  0
 22 27  1  0
  5 14  1  0
 15 21  1  0
 24 26  1  0
M  END
>  <MOLFORMULA>  (72) 
C23 H20 Cl F N4 O

>  <MOLWEIGHT>  (72) 
4.228890000000000e+002

>  <IDNUMBER>  (72) 
AT-687/SK17413

>  <PRICE>  (72) 
EUR 80/10 mg

>  <Similarity score>  (72) 
0.19

$$$$

     RDKit          2D

 27 30  0  0  0  0  0  0  0  0999 V2000
   -0.2125   -0.2875    0.0000 C   0  0  0  0  0  0  0  0  0  0  0  0
   -0.3833   -1.2708    0.0000 C   0  0  0  0  0  0  0  0  0  0  0  0
    0.6833    0.1583    0.0000 C   0  0  0  0  0  0  0  0  0  0  0  0
   -1.0958    0.1792    0.0000 C   0  0  0  0  0  0  0  0  0  0  0  0
    0.7500    1.1542    0.0000 C   0  0  0  0  0  0  0  0  0  0  0  0
   -1.3708   -1.4167    0.0000 C   0  0  0  0  0  0  0  0  0  0  0  0
   -1.8125   -0.5167    0.0000 N   0  0  0  0  0  0  0  0  0  0  0  0
    0.2375   -2.0583    0.0000 C   0  0  0  0  0  0  0  0  0  0  0  0
   -0.0792    1.7083    0.0000 C   0  0  0  0  0  0  0  0  0  0  0  0
   -1.7417   -2.3417    0.0000 C   0  0  0  0  0  0  0  0  0  0  0  0
    1.6458    1.5958    0.0000 C   0  0  0  0  0  0  0  0  0  0  0  0
   -0.1333   -2.9875    0.0000 C   0  0  0  0  0  0  0  0  0  0  0  0
   -0.0167    2.7083    0.0000 C   0  0  0  0  0  0  0  0  0  0  0  0
   -1.1208   -3.1292    0.0000 C   0  0  0  0  0  0  0  0  0  0  0  0
    0.8833    3.1500    0.0000 C   0  0  0  0  0  0  0  0  0  0  0  0
    1.5167   -0.4000    0.0000 N   0  0  0  0  0  0  0  0  0  0  0  0
    1.7125    2.5958    0.0000 C   0  0  0  0  0  0  0  0  0  0  0  0
    2.4125    0.0417    0.0000 C   0  0  0  0  0  0  0  0  0  0  0  0
    0.4875   -3.7708    0.0000 O   0  0  0  0  0  0  0  0  0  0  0  0
   -0.8458    3.2625    0.0000 O   0  0  0  0  0  0  0  0  0  0  0  0
   -1.4917   -4.0583    0.0000 O   0  0  0  0  0  0  0  0  0  0  0  0
    0.9458    4.1458    0.0000 O   0  0  0  0  0  0  0  0  0  0  0  0
    2.4792    1.0417    0.0000 C   0  0  0  0  0  0  0  0  0  0  0  0
    0.1167    4.7000    0.0000 C   0  0  0  0  0  0  0  0  0  0  0  0
   -2.4833   -4.2000    0.0000 C   0  0  0  0  0  0  0  0  0  0  0  0
   -1.7458    2.8208    0.0000 C   0  0  0  0  0  0  0  0  0  0  0  0
    0.1167   -4.7000    0.0000 C   0  0  0  0  0  0  0  0  0  0  0  0
  1  2  1  0
  1  3  1  0
  1  4  2  0
  3  5  1  0
  2  6  2  0
  4  7  1  0
  2  8  1  0
  5  9  1  0
  6 10  1  0
  5 11  2  0
  8 12  2  0
  9 13  2  0
 12 14  1  0
 15 17  2  0
  3 16  2  0
 11 17  1  0
 16 18  1  0
 12 19  1  0
 13 20  1  0
 14 21  1  0
 15 22  1  0
 18 23  2  0
 22 24  1  0
 21 25  1  0
 20 26  1  0
 19 27  1  0
  6  7  1  0
 11 23  1  0
 10 14  2  0
 13 15  1  0
M  END
>  <MOLFORMULA>  (73) 
C21 H20 N2 O4

>  <MOLWEIGHT>  (73) 
3.643990000000000e+002

>  <IDNUMBER>  (73) 
AN-153/I289756

>  <PRICE>  (73) 
EUR 130/10 mg

>  <Similarity score>  (73) 
0.19

$$$$

     RDKit          2D

 25 28  0  0  0  0  0  0  0  0999 V2000
    6.6667   -6.7000    0.0000 N   0  0  0  0  0  0  0  0  0  0  0  0
    7.3875   -6.2875    0.0000 C   0  0  0  0  0  0  0  0  0  0  0  0
    5.9542   -6.2875    0.0000 C   0  0  0  0  0  0  0  0  0  0  0  0
    5.2417   -6.7000    0.0000 N   0  0  0  0  0  0  0  0  0  0  0  0
    7.3875   -5.4542    0.0000 N   0  0  0  0  0  0  0  0  0  0  0  0
    5.9542   -5.4625    0.0000 C   0  0  0  0  0  0  0  0  0  0  0  0
    8.1042   -6.7000    0.0000 N   0  0  0  0  0  0  0  0  0  0  0  0
    3.8167   -7.5167    0.0000 N   0  0  0  0  0  0  0  0  0  0  0  0
    6.6667   -5.0417    0.0000 C   0  0  0  0  0  0  0  0  0  0  0  0
    4.5292   -6.2792    0.0000 C   0  0  0  0  0  0  0  0  0  0  0  0
    5.2500   -7.5167    0.0000 C   0  0  0  0  0  0  0  0  0  0  0  0
    4.5292   -7.9292    0.0000 C   0  0  0  0  0  0  0  0  0  0  0  0
    3.8167   -6.6917    0.0000 C   0  0  0  0  0  0  0  0  0  0  0  0
    3.1000   -7.9250    0.0000 C   0  0  0  0  0  0  0  0  0  0  0  0
    9.5292   -7.5250    0.0000 O   0  0  0  0  0  0  0  0  0  0  0  0
    5.2417   -5.0500    0.0000 F   0  0  0  0  0  0  0  0  0  0  0  0
    8.1000   -7.5250    0.0000 C   0  0  0  0  0  0  0  0  0  0  0  0
    8.8125   -6.2792    0.0000 C   0  0  0  0  0  0  0  0  0  0  0  0
    9.5292   -6.7000    0.0000 C   0  0  0  0  0  0  0  0  0  0  0  0
    8.8125   -7.9292    0.0000 C   0  0  0  0  0  0  0  0  0  0  0  0
    2.3792   -7.5042    0.0000 C   0  0  0  0  0  0  0  0  0  0  0  0
    3.1000   -8.7417    0.0000 C   0  0  0  0  0  0  0  0  0  0  0  0
    2.3792   -9.1542    0.0000 C   0  0  0  0  0  0  0  0  0  0  0  0
    1.6750   -7.9167    0.0000 C   0  0  0  0  0  0  0  0  0  0  0  0
    1.6667   -8.7417    0.0000 C   0  0  0  0  0  0  0  0  0  0  0  0
  1  2  2  0
  1  3  1  0
  3  4  1  0
  2  5  1  0
  3  6  2  0
  2  7  1  0
  8 12  1  0
  6  9  1  0
  4 10  1  0
  4 11  1  0
 11 12  1  0
 10 13  1  0
  8 14  1  0
 15 19  1  0
  6 16  1  0
  7 17  1  0
  7 18  1  0
 18 19  1  0
 17 20  1  0
 14 21  2  0
 14 22  1  0
 22 23  2  0
 21 24  1  0
 23 25  1  0
  5  9  2  0
  8 13  1  0
 15 20  1  0
 24 25  2  0
M  END
>  <MOLFORMULA>  (74) 
C18 H22 F N5 O

>  <MOLWEIGHT>  (74) 
3.434038000000000e+002

>  <IDNUMBER>  (74) 
AT-138/QI00262

>  <CHIRALFLAG>  (74) 
-

>  <PRICE>  (74) 
EUR 125.00/10 mg

>  <Similarity score>  (74) 
0.19

$$$$

     RDKit          2D

 25 28  0  0  0  0  0  0  0  0999 V2000
   -0.5292   -1.7750    0.0000 N   0  0  0  0  0  0  0  0  0  0  0  0
    0.4375   -2.0292    0.0000 C   0  0  0  0  0  0  0  0  0  0  0  0
    1.1417   -1.3167    0.0000 N   0  0  0  0  0  0  0  0  0  0  0  0
    0.8792   -0.3542    0.0000 C   0  0  0  0  0  0  0  0  0  0  0  0
   -0.7917   -0.8083    0.0000 C   0  0  0  0  0  0  0  0  0  0  0  0
   -0.0917   -0.1000    0.0000 C   0  0  0  0  0  0  0  0  0  0  0  0
    0.7000   -2.9917    0.0000 N   0  0  0  0  0  0  0  0  0  0  0  0
   -0.3542    0.8667    0.0000 C   0  0  0  0  0  0  0  0  0  0  0  0
    0.3500    1.5750    0.0000 C   0  0  0  0  0  0  0  0  0  0  0  0
   -1.7625   -0.5583    0.0000 N   0  0  0  0  0  0  0  0  0  0  0  0
    1.5792    0.3583    0.0000 O   0  0  0  0  0  0  0  0  0  0  0  0
    0.0875    2.5417    0.0000 C   0  0  0  0  0  0  0  0  0  0  0  0
    0.7875    3.2500    0.0000 C   0  0  0  0  0  0  0  0  0  0  0  0
   -2.0250    0.4083    0.0000 C   0  0  0  0  0  0  0  0  0  0  0  0
   -1.3208    1.1208    0.0000 C   0  0  0  0  0  0  0  0  0  0  0  0
   -0.0042   -3.7042    0.0000 C   0  0  0  0  0  0  0  0  0  0  0  0
    1.6667   -3.2458    0.0000 C   0  0  0  0  0  0  0  0  0  0  0  0
    1.3167    1.3208    0.0000 C   0  0  0  0  0  0  0  0  0  0  0  0
    0.5250    4.2125    0.0000 O   0  0  0  0  0  0  0  0  0  0  0  0
    2.0208    2.0333    0.0000 C   0  0  0  0  0  0  0  0  0  0  0  0
    1.7583    2.9958    0.0000 C   0  0  0  0  0  0  0  0  0  0  0  0
    1.2292    4.9208    0.0000 C   0  0  0  0  0  0  0  0  0  0  0  0
    1.9333   -4.2125    0.0000 C   0  0  0  0  0  0  0  0  0  0  0  0
    0.2625   -4.6667    0.0000 C   0  0  0  0  0  0  0  0  0  0  0  0
    1.2292   -4.9208    0.0000 C   0  0  0  0  0  0  0  0  0  0  0  0
  1  2  2  0
  2  3  1  0
  4  6  1  0
  1  5  1  0
  5  6  2  0
  2  7  1  0
  6  8  1  0
  8  9  1  0
  5 10  1  0
  4 11  2  0
  9 12  1  0
 12 13  2  0
 10 14  2  0
 14 15  1  0
  7 16  1  0
  7 17  1  0
  9 18  2  0
 13 19  1  0
 18 20  1  0
 20 21  2  0
 19 22  1  0
 17 23  1  0
 16 24  1  0
 23 25  1  0
  3  4  1  0
  8 15  2  0
 24 25  1  0
 13 21  1  0
M  END
>  <MOLFORMULA>  (75) 
C19 H20 N4 O2

>  <MOLWEIGHT>  (75) 
3.363930000000000e+002

>  <IDNUMBER>  (75) 
AN-153/J107082

>  <PRICE>  (75) 
EUR 130/10 mg

>  <Similarity score>  (75) 
0.19

$$$$

     RDKit          2D

 33 37  0  0  0  0  0  0  0  0999 V2000
   -0.3792   -0.6542    0.0000 C   0  0  0  0  0  0  0  0  0  0  0  0
    0.1875    0.9833    0.0000 C   0  0  0  0  0  0  0  0  0  0  0  0
   -0.5708    0.3292    0.0000 N   0  0  0  0  0  0  0  0  0  0  0  0
   -0.9458   -2.2875    0.0000 C   0  0  0  0  0  0  0  0  0  0  0  0
    0.5667   -0.9792    0.0000 N   0  0  0  0  0  0  0  0  0  0  0  0
   -0.3792    3.9292    0.0000 C   0  0  0  0  0  0  0  0  0  0  0  0
    1.1333    0.6583    0.0000 C   0  0  0  0  0  0  0  0  0  0  0  0
   -0.0042    1.9667    0.0000 C   0  0  0  0  0  0  0  0  0  0  0  0
    0.5667    3.6042    0.0000 N   0  0  0  0  0  0  0  0  0  0  0  0
   -1.1375   -1.3083    0.0000 N   0  0  0  0  0  0  0  0  0  0  0  0
    1.3208   -0.3250    0.0000 C   0  0  0  0  0  0  0  0  0  0  0  0
   -0.0042   -2.6167    0.0000 N   0  0  0  0  0  0  0  0  0  0  0  0
   -1.7042   -2.9458    0.0000 N   0  0  0  0  0  0  0  0  0  0  0  0
   -0.5708   -4.2542    0.0000 C   0  0  0  0  0  0  0  0  0  0  0  0
   -1.1375    3.2750    0.0000 N   0  0  0  0  0  0  0  0  0  0  0  0
    0.7542    2.6208    0.0000 C   0  0  0  0  0  0  0  0  0  0  0  0
   -0.5708    4.9083    0.0000 N   0  0  0  0  0  0  0  0  0  0  0  0
    0.1875   -3.6000    0.0000 C   0  0  0  0  0  0  0  0  0  0  0  0
   -1.5125   -3.9250    0.0000 C   0  0  0  0  0  0  0  0  0  0  0  0
   -0.9458    2.2917    0.0000 C   0  0  0  0  0  0  0  0  0  0  0  0
   -0.3792   -5.2333    0.0000 C   0  0  0  0  0  0  0  0  0  0  0  0
    2.2667   -0.6542    0.0000 O   0  0  0  0  0  0  0  0  0  0  0  0
   -2.2708   -4.5792    0.0000 C   0  0  0  0  0  0  0  0  0  0  0  0
   -0.9458    6.8708    0.0000 O   0  0  0  0  0  0  0  0  0  0  0  0
   -1.1375   -5.8917    0.0000 C   0  0  0  0  0  0  0  0  0  0  0  0
   -2.0792   -5.5625    0.0000 C   0  0  0  0  0  0  0  0  0  0  0  0
   -1.5125    5.2333    0.0000 C   0  0  0  0  0  0  0  0  0  0  0  0
    0.1875    5.5625    0.0000 C   0  0  0  0  0  0  0  0  0  0  0  0
    1.7000    2.2917    0.0000 C   0  0  0  0  0  0  0  0  0  0  0  0
    1.1333   -3.9250    0.0000 C   0  0  0  0  0  0  0  0  0  0  0  0
   -1.7042    6.2167    0.0000 C   0  0  0  0  0  0  0  0  0  0  0  0
   -0.0042    6.5458    0.0000 C   0  0  0  0  0  0  0  0  0  0  0  0
   -0.9458   -6.8708    0.0000 C   0  0  0  0  0  0  0  0  0  0  0  0
  2  3  1  0
  1  3  2  0
  4 10  1  0
  1  5  1  0
  6 15  2  0
  7 11  1  0
  2  8  1  0
  9 16  2  0
  1 10  1  0
  5 11  1  0
  4 12  1  0
  4 13  2  0
 14 19  2  0
 15 20  1  0
  8 16  1  0
  6 17  1  0
 12 18  2  0
 13 19  1  0
  8 20  2  0
 14 21  1  0
 11 22  2  0
 19 23  1  0
 24 31  1  0
 25 26  1  0
 23 26  2  0
 17 27  1  0
 17 28  1  0
 16 29  1  0
 18 30  1  0
 27 31  1  0
 28 32  1  0
 25 33  1  0
  2  7  2  0
 14 18  1  0
  6  9  1  0
 21 25  2  0
 24 32  1  0
M  END
>  <MOLFORMULA>  (76) 
C23 H24 N8 O2

>  <MOLWEIGHT>  (76) 
4.444966000000000e+002

>  <IDNUMBER>  (76) 
AN-153/NB22715

>  <PRICE>  (76) 
EUR 130/10 mg

>  <Similarity score>  (76) 
0.19

$$$$

     RDKit          2D

 33 38  0  0  0  0  0  0  0  0999 V2000
    5.2250   -0.9167    0.0000 C   0  0  0  0  0  0  0  0  0  0  0  0
    5.9375    0.3208    0.0000 C   0  0  0  0  0  0  0  0  0  0  0  0
    5.9375   -0.5042    0.0000 C   0  0  0  0  0  0  0  0  0  0  0  0
    4.5167   -0.5042    0.0000 C   0  0  0  0  0  0  0  0  0  0  0  0
    5.2250   -3.3875    0.0000 C   0  0  0  0  0  0  0  0  0  0  0  0
    5.2250    0.7333    0.0000 O   0  0  0  0  0  0  0  0  0  0  0  0
    5.2292   -4.2125    0.0000 C   0  0  0  0  0  0  0  0  0  0  0  0
    5.2250   -1.7375    0.0000 C   0  0  0  0  0  0  0  0  0  0  0  0
    4.5042   -2.9750    0.0000 N   0  0  0  0  0  0  0  0  0  0  0  0
    4.5167    0.3208    0.0000 C   0  0  0  0  0  0  0  0  0  0  0  0
    5.9417   -2.9667    0.0000 C   0  0  0  0  0  0  0  0  0  0  0  0
    5.9375   -2.1500    0.0000 C   0  0  0  0  0  0  0  0  0  0  0  0
    6.6667   -4.2042    0.0000 O   0  0  0  0  0  0  0  0  0  0  0  0
    5.9417   -4.6250    0.0000 C   0  0  0  0  0  0  0  0  0  0  0  0
    4.5042   -2.1500    0.0000 C   0  0  0  0  0  0  0  0  0  0  0  0
    6.6542   -3.3792    0.0000 C   0  0  0  0  0  0  0  0  0  0  0  0
    3.8042   -0.9167    0.0000 C   0  0  0  0  0  0  0  0  0  0  0  0
    6.6542    0.7333    0.0000 O   0  0  0  0  0  0  0  0  0  0  0  0
    4.5167   -4.6250    0.0000 C   0  0  0  0  0  0  0  0  0  0  0  0
    6.6500   -0.9167    0.0000 C   0  0  0  0  0  0  0  0  0  0  0  0
    3.8042    0.7333    0.0000 C   0  0  0  0  0  0  0  0  0  0  0  0
    5.9500   -5.4500    0.0000 C   0  0  0  0  0  0  0  0  0  0  0  0
    3.0917   -0.5042    0.0000 C   0  0  0  0  0  0  0  0  0  0  0  0
    4.5167   -5.4500    0.0000 C   0  0  0  0  0  0  0  0  0  0  0  0
    3.0917    0.3208    0.0000 C   0  0  0  0  0  0  0  0  0  0  0  0
    5.2375   -5.8625    0.0000 C   0  0  0  0  0  0  0  0  0  0  0  0
    2.3792   -0.9167    0.0000 Cl  0  0  0  0  0  0  0  0  0  0  0  0
    3.8042   -5.8667    0.0000 Cl  0  0  0  0  0  0  0  0  0  0  0  0
    7.3625   -0.5042    0.0000 C   0  0  0  0  0  0  0  0  0  0  0  0
    6.6500   -1.7417    0.0000 C   0  0  0  0  0  0  0  0  0  0  0  0
    7.3625   -2.1542    0.0000 C   0  0  0  0  0  0  0  0  0  0  0  0
    8.0750   -0.9167    0.0000 C   0  0  0  0  0  0  0  0  0  0  0  0
    8.0792   -1.7417    0.0000 C   0  0  0  0  0  0  0  0  0  0  0  0
  2  3  1  0
  1  3  2  0
  1  4  1  0
  5  9  2  0
  6 10  1  0
  5  7  1  0
  1  8  1  0
  9 15  1  0
  4 10  2  0
 11 12  2  0
  8 12  1  0
 13 16  1  0
  7 14  1  0
  8 15  2  0
 11 16  1  0
  4 17  1  0
  2 18  2  0
  7 19  2  0
  3 20  1  0
 10 21  1  0
 14 22  2  0
 17 23  2  0
 19 24  1  0
 23 25  1  0
 24 26  2  0
 23 27  1  0
 24 28  1  0
 20 29  1  0
 20 30  2  0
 30 31  1  0
 29 32  2  0
 31 33  2  0
  5 11  1  0
  2  6  1  0
 21 25  2  0
 32 33  1  0
 13 14  1  0
 22 26  1  0
M  END
>  <MOLFORMULA>  (77) 
C27 H15 Cl2 N O3

>  <MOLWEIGHT>  (77) 
4.723255000000000e+002

>  <IDNUMBER>  (77) 
AQ-358/J254344

>  <PRICE>  (77) 
EUR 29.00/10 mg

>  <Similarity score>  (77) 
0.19

$$$$

     RDKit          2D

 20 22  0  0  0  0  0  0  0  0999 V2000
    5.6292   -6.7042    0.0000 N   0  0  0  0  0  0  0  0  0  0  0  0
    4.9167   -6.2917    0.0000 C   0  0  0  0  0  0  0  0  0  0  0  0
    6.3417   -6.2917    0.0000 C   0  0  0  0  0  0  0  0  0  0  0  0
    4.9167   -5.4625    0.0000 C   0  0  0  0  0  0  0  0  0  0  0  0
    4.2000   -6.7042    0.0000 N   0  0  0  0  0  0  0  0  0  0  0  0
    6.3417   -5.4625    0.0000 N   0  0  0  0  0  0  0  0  0  0  0  0
    7.0625   -6.7042    0.0000 N   0  0  0  0  0  0  0  0  0  0  0  0
    5.6292   -5.0500    0.0000 C   0  0  0  0  0  0  0  0  0  0  0  0
    2.7750   -7.5167    0.0000 O   0  0  0  0  0  0  0  0  0  0  0  0
    4.2042   -5.0542    0.0000 F   0  0  0  0  0  0  0  0  0  0  0  0
    7.7750   -6.2875    0.0000 C   0  0  0  0  0  0  0  0  0  0  0  0
    4.2042   -7.5250    0.0000 C   0  0  0  0  0  0  0  0  0  0  0  0
    3.4917   -6.2875    0.0000 C   0  0  0  0  0  0  0  0  0  0  0  0
    2.7792   -6.6917    0.0000 C   0  0  0  0  0  0  0  0  0  0  0  0
    3.4875   -7.9292    0.0000 C   0  0  0  0  0  0  0  0  0  0  0  0
    8.4875   -6.6917    0.0000 C   0  0  0  0  0  0  0  0  0  0  0  0
    7.7667   -5.4667    0.0000 C   0  0  0  0  0  0  0  0  0  0  0  0
    8.4667   -5.0417    0.0000 C   0  0  0  0  0  0  0  0  0  0  0  0
    9.2000   -6.2792    0.0000 C   0  0  0  0  0  0  0  0  0  0  0  0
    9.1917   -5.4542    0.0000 C   0  0  0  0  0  0  0  0  0  0  0  0
  1  2  1  0
  1  3  2  0
  2  4  2  0
  2  5  1  0
  3  6  1  0
  3  7  1  0
  6  8  2  0
  9 14  1  0
  4 10  1  0
  7 11  1  0
  5 12  1  0
  5 13  1  0
 13 14  1  0
 12 15  1  0
 11 16  2  0
 11 17  1  0
 17 18  2  0
 16 19  1  0
 18 20  1  0
  4  8  1  0
  9 15  1  0
 19 20  2  0
M  END
>  <MOLFORMULA>  (78) 
C14 H15 F N4 O

>  <MOLWEIGHT>  (78) 
2.742975000000000e+002

>  <IDNUMBER>  (78) 
AT-138/QI00259

>  <CHIRALFLAG>  (78) 
-

>  <PRICE>  (78) 
EUR 125.00/10 mg

>  <Similarity score>  (78) 
0.19

$$$$

     RDKit          2D

 27 30  0  0  0  0  0  0  0  0999 V2000
    5.9792  -12.2792    0.0000 N   0  0  0  0  0  0  0  0  0  0  0  0
    5.2667  -11.8667    0.0000 C   0  0  0  0  0  0  0  0  0  0  0  0
    6.7000  -11.8667    0.0000 C   0  0  0  0  0  0  0  0  0  0  0  0
    5.2667  -11.0417    0.0000 C   0  0  0  0  0  0  0  0  0  0  0  0
    4.5542  -12.2792    0.0000 N   0  0  0  0  0  0  0  0  0  0  0  0
    6.7000  -11.0417    0.0000 N   0  0  0  0  0  0  0  0  0  0  0  0
   12.4125  -12.6042    0.0000 C   0  0  0  0  0  0  0  0  0  0  0  0
    8.8417  -12.2792    0.0000 C   0  0  0  0  0  0  0  0  0  0  0  0
   12.4375  -13.4292    0.0000 C   0  0  0  0  0  0  0  0  0  0  0  0
   13.1917  -12.3292    0.0000 O   0  0  0  0  0  0  0  0  0  0  0  0
    5.9792  -10.6292    0.0000 C   0  0  0  0  0  0  0  0  0  0  0  0
   13.2292  -13.6667    0.0000 O   0  0  0  0  0  0  0  0  0  0  0  0
    7.4167  -12.2792    0.0000 S   0  0  0  0  0  0  0  0  0  0  0  0
   13.6917  -12.9792    0.0000 C   0  0  0  0  0  0  0  0  0  0  0  0
    9.5542  -12.6667    0.0000 N   0  0  0  0  0  0  0  0  0  0  0  0
   11.6917  -12.2042    0.0000 C   0  0  0  0  0  0  0  0  0  0  0  0
    8.8375  -11.4417    0.0000 O   0  0  0  0  0  0  0  0  0  0  0  0
   11.7250  -13.8625    0.0000 C   0  0  0  0  0  0  0  0  0  0  0  0
    4.5542  -10.6292    0.0000 F   0  0  0  0  0  0  0  0  0  0  0  0
    8.1292  -12.6917    0.0000 C   0  0  0  0  0  0  0  0  0  0  0  0
   10.9875  -12.6417    0.0000 C   0  0  0  0  0  0  0  0  0  0  0  0
   10.2667  -12.2417    0.0000 C   0  0  0  0  0  0  0  0  0  0  0  0
   11.0042  -13.4667    0.0000 C   0  0  0  0  0  0  0  0  0  0  0  0
    3.8042  -11.9500    0.0000 C   0  0  0  0  0  0  0  0  0  0  0  0
    4.4667  -13.1042    0.0000 C   0  0  0  0  0  0  0  0  0  0  0  0
    3.6625  -13.2792    0.0000 C   0  0  0  0  0  0  0  0  0  0  0  0
    3.2542  -12.5625    0.0000 C   0  0  0  0  0  0  0  0  0  0  0  0
  1  2  1  0
  1  3  2  0
  2  4  2  0
  2  5  1  0
  3  6  1  0
  7 16  2  0
  8 20  1  0
  9 18  2  0
  7 10  1  0
  6 11  2  0
  9 12  1  0
  3 13  1  0
 10 14  1  0
  8 15  1  0
 16 21  1  0
  8 17  2  0
 18 23  1  0
  4 19  1  0
 13 20  1  0
 21 22  1  0
 15 22  1  0
 21 23  2  0
  5 24  1  0
  5 25  1  0
 25 26  1  0
 24 27  1  0
  4 11  1  0
 26 27  1  0
  7  9  1  0
 12 14  1  0
M  END
>  <MOLFORMULA>  (79) 
C18 H19 F N4 O3 S

>  <MOLWEIGHT>  (79) 
3.904371000000000e+002

>  <IDNUMBER>  (79) 
AT-138/QI00742

>  <CHIRALFLAG>  (79) 
-

>  <PRICE>  (79) 
EUR 125.00/10 mg

>  <Similarity score>  (79) 
0.19

$$$$

     RDKit          2D

 28 31  0  0  0  0  0  0  0  0999 V2000
    5.9792   -4.6042    0.0000 S   0  0  0  0  0  0  0  0  0  0  0  0
    4.6375   -4.6042    0.0000 C   0  0  0  0  0  0  0  0  0  0  0  0
    3.9667   -3.4542    0.0000 C   0  0  0  0  0  0  0  0  0  0  0  0
    2.6625   -3.4542    0.0000 C   0  0  0  0  0  0  0  0  0  0  0  0
    7.3042   -4.6042    0.0000 C   0  0  0  0  0  0  0  0  0  0  0  0
    4.6375   -2.3000    0.0000 N   0  0  0  0  0  0  0  0  0  0  0  0
    3.9667   -5.7542    0.0000 C   0  0  0  0  0  0  0  0  0  0  0  0
    2.6625   -5.7542    0.0000 N   0  0  0  0  0  0  0  0  0  0  0  0
    7.9667   -3.4542    0.0000 C   0  0  0  0  0  0  0  0  0  0  0  0
    1.9917   -4.6042    0.0000 C   0  0  0  0  0  0  0  0  0  0  0  0
    9.3000   -3.4542    0.0000 C   0  0  0  0  0  0  0  0  0  0  0  0
    5.9792   -3.2667    0.0000 O   0  0  0  0  0  0  0  0  0  0  0  0
    5.9792   -5.9375    0.0000 O   0  0  0  0  0  0  0  0  0  0  0  0
    1.9917   -2.3000    0.0000 C   0  0  0  0  0  0  0  0  0  0  0  0
    9.9542   -4.6042    0.0000 C   0  0  0  0  0  0  0  0  0  0  0  0
    7.9667   -5.7542    0.0000 C   0  0  0  0  0  0  0  0  0  0  0  0
    5.9792   -0.0000    0.0000 S   0  0  0  0  0  0  0  0  0  0  0  0
    9.3000   -5.7542    0.0000 C   0  0  0  0  0  0  0  0  0  0  0  0
    0.6625   -4.6042    0.0000 C   0  0  0  0  0  0  0  0  0  0  0  0
    0.6625   -2.3000    0.0000 C   0  0  0  0  0  0  0  0  0  0  0  0
    9.9542   -2.3000    0.0000 F   0  0  0  0  0  0  0  0  0  0  0  0
   11.2875   -4.6042    0.0000 F   0  0  0  0  0  0  0  0  0  0  0  0
    0.0000   -3.4542    0.0000 C   0  0  0  0  0  0  0  0  0  0  0  0
    0.0000   -1.1500    0.0000 F   0  0  0  0  0  0  0  0  0  0  0  0
    3.9667   -1.1500    0.0000 C   0  0  0  0  0  0  0  0  0  0  0  0
    5.9792   -2.3000    0.0000 C   0  0  0  0  0  0  0  0  0  0  0  0
    4.6375   -0.0000    0.0000 C   0  0  0  0  0  0  0  0  0  0  0  0
    6.6500   -1.1500    0.0000 C   0  0  0  0  0  0  0  0  0  0  0  0
  1  2  1  0
  2  3  2  0
  3  4  1  0
  1  5  1  0
  3  6  1  0
  2  7  1  0
  7  8  2  0
  5  9  1  0
  8 10  1  0
  9 11  2  0
  1 12  2  0
  1 13  2  0
  4 14  2  0
 15 18  2  0
  5 16  2  0
 17 28  1  0
 16 18  1  0
 10 19  2  0
 14 20  1  0
 11 21  1  0
 15 22  1  0
 19 23  1  0
 20 24  1  0
  6 25  1  0
  6 26  1  0
 25 27  1  0
 26 28  1  0
 11 15  1  0
  4 10  1  0
 17 27  1  0
 20 23  2  0
M  END
>  <MOLFORMULA>  (80) 
C19 H15 F3 N2 O2 S2

>  <MOLWEIGHT>  (80) 
4.244655000000000e+002

>  <IDNUMBER>  (80) 
AT-687/NB06801

>  <PRICE>  (80) 
EUR 80/10 mg

>  <Similarity score>  (80) 
0.19

$$$$

     RDKit          2D

 24 28  0  0  0  0  0  0  0  0999 V2000
    5.4292    1.8417    0.0000 C   0  0  0  0  0  0  0  0  0  0  0  0
    6.4667    2.4375    0.0000 C   0  0  0  0  0  0  0  0  0  0  0  0
    6.4667    1.8417    0.0000 N   0  0  0  0  0  0  0  0  0  0  0  0
    5.4292    2.4375    0.0000 C   0  0  0  0  0  0  0  0  0  0  0  0
    5.9500    2.7375    0.0000 C   0  0  0  0  0  0  0  0  0  0  0  0
    6.9875    2.7375    0.0000 C   0  0  0  0  0  0  0  0  0  0  0  0
    4.9083    1.5417    0.0000 C   0  0  0  0  0  0  0  0  0  0  0  0
    7.5083    2.4375    0.0000 C   0  0  0  0  0  0  0  0  0  0  0  0
    5.9500    1.5417    0.0000 C   0  0  0  0  0  0  0  0  0  0  0  0
    6.9875    3.3375    0.0000 C   0  0  0  0  0  0  0  0  0  0  0  0
    8.0250    2.7375    0.0000 C   0  0  0  0  0  0  0  0  0  0  0  0
    8.0250    3.3375    0.0000 C   0  0  0  0  0  0  0  0  0  0  0  0
    7.5083    3.6375    0.0000 C   0  0  0  0  0  0  0  0  0  0  0  0
    5.9500    3.3375    0.0000 C   0  0  0  0  0  0  0  0  0  0  0  0
    4.9083    2.7375    0.0000 C   0  0  0  0  0  0  0  0  0  0  0  0
    8.5958    2.5542    0.0000 O   0  0  0  0  0  0  0  0  0  0  0  0
    8.5958    3.5250    0.0000 O   0  0  0  0  0  0  0  0  0  0  0  0
    4.3917    1.8417    0.0000 C   0  0  0  0  0  0  0  0  0  0  0  0
    8.9500    3.0417    0.0000 C   0  0  0  0  0  0  0  0  0  0  0  0
    6.4667    3.6375    0.0000 C   0  0  0  0  0  0  0  0  0  0  0  0
    4.3917    2.4375    0.0000 C   0  0  0  0  0  0  0  0  0  0  0  0
    4.9083    0.9417    0.0000 O   0  0  0  0  0  0  0  0  0  0  0  0
    3.8708    1.5417    0.0000 O   0  0  0  0  0  0  0  0  0  0  0  0
    4.3917    0.6417    0.0000 C   0  0  0  0  0  0  0  0  0  0  0  0
  2  3  1  0
  3  9  2  0
  1  4  2  0
  4  5  1  0
  2  6  1  0
  1  7  1  0
  6  8  1  0
  1  9  1  0
  6 10  2  0
  8 11  2  0
 11 12  1  0
 10 13  1  0
  5 14  1  0
  4 15  1  0
 11 16  1  0
 12 17  1  0
  7 18  2  0
 16 19  1  0
 14 20  2  0
 15 21  2  0
  7 22  1  0
 18 23  1  0
 22 24  1  0
  2  5  2  0
 18 21  1  0
 10 20  1  0
 12 13  2  0
 17 19  1  0
M  END
>  <MOLFORMULA>  (81) 
C19 H13 N O4

>  <MOLWEIGHT>  (81) 
3.193147000000000e+002

>  <IDNUMBER>  (81) 
AT-358/LC03042

>  <Similarity score>  (81) 
0.19

$$$$

     RDKit          2D

 32 35  0  0  0  0  0  0  0  0999 V2000
    4.6042   -6.6292    0.0000 S   0  0  0  0  0  0  0  0  0  0  0  0
    5.7417   -7.3000    0.0000 C   0  0  0  0  0  0  0  0  0  0  0  0
    6.9042   -1.3167    0.0000 S   0  0  0  0  0  0  0  0  0  0  0  0
    6.9042   -6.6292    0.0000 C   0  0  0  0  0  0  0  0  0  0  0  0
    6.9042   -2.6417    0.0000 N   0  0  0  0  0  0  0  0  0  0  0  0
    8.0542   -7.3000    0.0000 C   0  0  0  0  0  0  0  0  0  0  0  0
    3.4542   -5.9750    0.0000 C   0  0  0  0  0  0  0  0  0  0  0  0
    6.9042   -5.3042    0.0000 N   0  0  0  0  0  0  0  0  0  0  0  0
    8.0542   -8.6250    0.0000 C   0  0  0  0  0  0  0  0  0  0  0  0
    6.9042   -9.2917    0.0000 N   0  0  0  0  0  0  0  0  0  0  0  0
    5.7417   -8.6375    0.0000 C   0  0  0  0  0  0  0  0  0  0  0  0
    3.4542   -4.6375    0.0000 C   0  0  0  0  0  0  0  0  0  0  0  0
    2.3000   -3.9792    0.0000 C   0  0  0  0  0  0  0  0  0  0  0  0
    5.2625   -5.4917    0.0000 O   0  0  0  0  0  0  0  0  0  0  0  0
    3.9375   -7.7917    0.0000 O   0  0  0  0  0  0  0  0  0  0  0  0
    8.0542   -3.3167    0.0000 C   0  0  0  0  0  0  0  0  0  0  0  0
    5.7417   -3.3167    0.0000 C   0  0  0  0  0  0  0  0  0  0  0  0
    9.2000   -6.6292    0.0000 C   0  0  0  0  0  0  0  0  0  0  0  0
    5.5667   -1.3167    0.0000 O   0  0  0  0  0  0  0  0  0  0  0  0
    8.2292   -1.3167    0.0000 O   0  0  0  0  0  0  0  0  0  0  0  0
    9.2000   -9.2917    0.0000 C   0  0  0  0  0  0  0  0  0  0  0  0
    5.7417   -4.6375    0.0000 C   0  0  0  0  0  0  0  0  0  0  0  0
    8.0542   -4.6375    0.0000 C   0  0  0  0  0  0  0  0  0  0  0  0
    1.1500   -4.6375    0.0000 C   0  0  0  0  0  0  0  0  0  0  0  0
    2.3000   -6.6292    0.0000 C   0  0  0  0  0  0  0  0  0  0  0  0
    1.1500   -5.9750    0.0000 C   0  0  0  0  0  0  0  0  0  0  0  0
   10.3625   -8.6250    0.0000 C   0  0  0  0  0  0  0  0  0  0  0  0
    6.9042   -0.0000    0.0000 C   0  0  0  0  0  0  0  0  0  0  0  0
    2.3000   -2.6417    0.0000 Cl  0  0  0  0  0  0  0  0  0  0  0  0
   10.3625   -7.3000    0.0000 C   0  0  0  0  0  0  0  0  0  0  0  0
    0.0000   -3.9792    0.0000 F   0  0  0  0  0  0  0  0  0  0  0  0
   11.5167   -9.2917    0.0000 F   0  0  0  0  0  0  0  0  0  0  0  0
  1  2  1  0
  3  5  1  0
  2  4  2  0
  5 16  1  0
  4  6  1  0
  1  7  1  0
  4  8  1  0
  9 10  1  0
 10 11  2  0
  2 11  1  0
  7 12  1  0
 12 13  2  0
  1 14  2  0
  1 15  2  0
 16 23  1  0
 17 22  1  0
  6 18  2  0
  3 19  2  0
  3 20  2  0
  9 21  2  0
  8 22  1  0
  8 23  1  0
 24 26  2  0
  7 25  2  0
 25 26  1  0
 21 27  1  0
  3 28  1  0
 13 29  1  0
 18 30  1  0
 24 31  1  0
 27 32  1  0
 13 24  1  0
  6  9  1  0
  5 17  1  0
 27 30  2  0
M  END
>  <MOLFORMULA>  (82) 
C20 H18 Cl F2 N3 O4 S2

>  <MOLWEIGHT>  (82) 
5.019602000000000e+002

>  <IDNUMBER>  (82) 
AT-687/NB06818

>  <PRICE>  (82) 
EUR 80/10 mg

>  <Similarity score>  (82) 
0.19

$$$$

     RDKit          2D

 22 25  0  0  0  0  0  0  0  0999 V2000
    5.5625   -2.7917    0.0000 C   0  0  0  0  0  0  0  0  0  0  0  0
    5.8500   -1.4792    0.0000 N   0  0  0  0  0  0  0  0  0  0  0  0
    4.8417   -2.3667    0.0000 C   0  0  0  0  0  0  0  0  0  0  0  0
    5.0250   -1.5542    0.0000 N   0  0  0  0  0  0  0  0  0  0  0  0
    6.1792   -2.2375    0.0000 C   0  0  0  0  0  0  0  0  0  0  0  0
    4.1292   -2.7917    0.0000 C   0  0  0  0  0  0  0  0  0  0  0  0
    5.5667   -3.6250    0.0000 C   0  0  0  0  0  0  0  0  0  0  0  0
    4.8417   -4.0375    0.0000 N   0  0  0  0  0  0  0  0  0  0  0  0
    4.1250   -3.6250    0.0000 C   0  0  0  0  0  0  0  0  0  0  0  0
    6.9917   -2.4167    0.0000 C   0  0  0  0  0  0  0  0  0  0  0  0
    3.4125   -2.3792    0.0000 C   0  0  0  0  0  0  0  0  0  0  0  0
    7.2375   -3.2042    0.0000 C   0  0  0  0  0  0  0  0  0  0  0  0
    7.5417   -1.8042    0.0000 C   0  0  0  0  0  0  0  0  0  0  0  0
    3.4125   -4.0292    0.0000 C   0  0  0  0  0  0  0  0  0  0  0  0
    2.7000   -2.7917    0.0000 C   0  0  0  0  0  0  0  0  0  0  0  0
    2.7000   -3.6167    0.0000 C   0  0  0  0  0  0  0  0  0  0  0  0
    8.3417   -1.9792    0.0000 C   0  0  0  0  0  0  0  0  0  0  0  0
    8.0417   -3.3792    0.0000 C   0  0  0  0  0  0  0  0  0  0  0  0
    8.6000   -2.7667    0.0000 C   0  0  0  0  0  0  0  0  0  0  0  0
    9.4042   -2.9417    0.0000 C   0  0  0  0  0  0  0  0  0  0  0  0
    1.9875   -2.3792    0.0000 C   0  0  0  0  0  0  0  0  0  0  0  0
    9.9542   -2.3292    0.0000 C   0  0  0  0  0  0  0  0  0  0  0  0
  2  5  2  0
  1  3  2  0
  3  4  1  0
  1  5  1  0
  3  6  1  0
  1  7  1  0
  7  8  2  0
  8  9  1  0
  5 10  1  0
  6 11  2  0
 10 12  2  0
 10 13  1  0
  9 14  2  0
 11 15  1  0
 14 16  1  0
 13 17  2  0
 12 18  1  0
 17 19  1  0
 19 20  1  0
 15 21  1  0
 20 22  1  0
  2  4  1  0
  6  9  1  0
 15 16  2  0
 18 19  2  0
M  END
>  <MOLFORMULA>  (83) 
C19 H17 N3

>  <MOLWEIGHT>  (83) 
2.873643000000000e+002

>  <IDNUMBER>  (83) 
AT-687/SK17428

>  <PRICE>  (83) 
EUR 80/10 mg

>  <Similarity score>  (83) 
0.19

$$$$

     RDKit          2D

 26 29  0  0  0  0  0  0  0  0999 V2000
   -0.5000   -2.3917    0.0000 N   0  0  0  0  0  0  0  0  0  0  0  0
    0.4958   -2.4875    0.0000 C   0  0  0  0  0  0  0  0  0  0  0  0
    1.0750   -1.6750    0.0000 N   0  0  0  0  0  0  0  0  0  0  0  0
    0.6625   -0.7625    0.0000 C   0  0  0  0  0  0  0  0  0  0  0  0
   -0.9125   -1.4833    0.0000 C   0  0  0  0  0  0  0  0  0  0  0  0
   -0.3333   -0.6667    0.0000 C   0  0  0  0  0  0  0  0  0  0  0  0
    0.9083   -3.4000    0.0000 N   0  0  0  0  0  0  0  0  0  0  0  0
   -0.7500    0.2417    0.0000 C   0  0  0  0  0  0  0  0  0  0  0  0
   -1.9083   -1.3875    0.0000 N   0  0  0  0  0  0  0  0  0  0  0  0
    1.2417    0.0500    0.0000 O   0  0  0  0  0  0  0  0  0  0  0  0
   -0.1667    1.0542    0.0000 C   0  0  0  0  0  0  0  0  0  0  0  0
    0.8292    0.9583    0.0000 C   0  0  0  0  0  0  0  0  0  0  0  0
   -0.5833    1.9667    0.0000 C   0  0  0  0  0  0  0  0  0  0  0  0
    0.9917    2.6833    0.0000 C   0  0  0  0  0  0  0  0  0  0  0  0
   -2.3250   -0.4750    0.0000 C   0  0  0  0  0  0  0  0  0  0  0  0
    1.4083    1.7750    0.0000 C   0  0  0  0  0  0  0  0  0  0  0  0
    0.0000    2.7792    0.0000 C   0  0  0  0  0  0  0  0  0  0  0  0
   -1.7458    0.3375    0.0000 C   0  0  0  0  0  0  0  0  0  0  0  0
    0.3292   -4.2125    0.0000 C   0  0  0  0  0  0  0  0  0  0  0  0
    1.9042   -3.4917    0.0000 C   0  0  0  0  0  0  0  0  0  0  0  0
    1.5750    3.5000    0.0000 O   0  0  0  0  0  0  0  0  0  0  0  0
    1.1583    4.4042    0.0000 C   0  0  0  0  0  0  0  0  0  0  0  0
    0.7458   -5.1208    0.0000 C   0  0  0  0  0  0  0  0  0  0  0  0
    2.3208   -4.4042    0.0000 C   0  0  0  0  0  0  0  0  0  0  0  0
    1.7417    5.2167    0.0000 C   0  0  0  0  0  0  0  0  0  0  0  0
    1.7417   -5.2167    0.0000 C   0  0  0  0  0  0  0  0  0  0  0  0
  1  2  2  0
  2  3  1  0
  4  6  1  0
  1  5  1  0
  5  6  2  0
  2  7  1  0
  6  8  1  0
  5  9  1  0
  4 10  2  0
  8 11  1  0
 11 12  2  0
 11 13  1  0
 14 16  2  0
  9 15  2  0
 12 16  1  0
 13 17  2  0
 15 18  1  0
  7 19  1  0
  7 20  1  0
 14 21  1  0
 21 22  1  0
 19 23  1  0
 20 24  1  0
 22 25  1  0
 23 26  1  0
  3  4  1  0
  8 18  2  0
 24 26  1  0
 14 17  1  0
M  END
>  <MOLFORMULA>  (84) 
C20 H22 N4 O2

>  <MOLWEIGHT>  (84) 
3.504198000000000e+002

>  <IDNUMBER>  (84) 
AN-153/PE02156

>  <PRICE>  (84) 
EUR 130/10 mg

>  <Similarity score>  (84) 
0.19

$$$$

     RDKit          2D

 28 31  0  0  0  0  0  0  0  0999 V2000
    7.3042   -4.6042    0.0000 S   0  0  0  0  0  0  0  0  0  0  0  0
    5.9875   -4.6042    0.0000 C   0  0  0  0  0  0  0  0  0  0  0  0
    5.3167   -3.4542    0.0000 C   0  0  0  0  0  0  0  0  0  0  0  0
    3.9750   -3.4542    0.0000 C   0  0  0  0  0  0  0  0  0  0  0  0
    8.6417   -4.6042    0.0000 C   0  0  0  0  0  0  0  0  0  0  0  0
    3.3292   -4.6042    0.0000 C   0  0  0  0  0  0  0  0  0  0  0  0
    3.9750   -5.7542    0.0000 N   0  0  0  0  0  0  0  0  0  0  0  0
    5.3167   -5.7542    0.0000 C   0  0  0  0  0  0  0  0  0  0  0  0
    5.9875   -2.3042    0.0000 N   0  0  0  0  0  0  0  0  0  0  0  0
   11.9750   -1.1417    0.0000 N   0  0  0  0  0  0  0  0  0  0  0  0
    7.3042   -3.2792    0.0000 O   0  0  0  0  0  0  0  0  0  0  0  0
    7.3042   -5.9375    0.0000 O   0  0  0  0  0  0  0  0  0  0  0  0
    3.3292   -2.3042    0.0000 C   0  0  0  0  0  0  0  0  0  0  0  0
    2.0000   -4.6042    0.0000 C   0  0  0  0  0  0  0  0  0  0  0  0
   11.3042   -2.3042    0.0000 C   0  0  0  0  0  0  0  0  0  0  0  0
    9.3167   -3.4542    0.0000 C   0  0  0  0  0  0  0  0  0  0  0  0
    7.3042   -0.0000    0.0000 S   0  0  0  0  0  0  0  0  0  0  0  0
    1.3292   -3.4542    0.0000 C   0  0  0  0  0  0  0  0  0  0  0  0
   10.6417   -3.4542    0.0000 C   0  0  0  0  0  0  0  0  0  0  0  0
    2.0000   -2.3042    0.0000 C   0  0  0  0  0  0  0  0  0  0  0  0
    0.0000   -3.4542    0.0000 F   0  0  0  0  0  0  0  0  0  0  0  0
    7.3042   -2.3042    0.0000 C   0  0  0  0  0  0  0  0  0  0  0  0
    5.3167   -1.1417    0.0000 C   0  0  0  0  0  0  0  0  0  0  0  0
    9.3167   -5.7542    0.0000 C   0  0  0  0  0  0  0  0  0  0  0  0
   10.6417   -5.7542    0.0000 C   0  0  0  0  0  0  0  0  0  0  0  0
    7.9875   -1.1417    0.0000 C   0  0  0  0  0  0  0  0  0  0  0  0
    5.9875   -0.0000    0.0000 C   0  0  0  0  0  0  0  0  0  0  0  0
   11.3042   -4.6042    0.0000 C   0  0  0  0  0  0  0  0  0  0  0  0
  1  2  1  0
  2  3  2  0
  3  4  1  0
  1  5  1  0
  6  7  1  0
  7  8  2  0
  2  8  1  0
  3  9  1  0
 10 15  3  0
  1 11  2  0
  1 12  2  0
  4 13  2  0
  6 14  2  0
 15 19  1  0
  5 16  1  0
 17 27  1  0
 14 18  1  0
 16 19  2  0
 13 20  1  0
 18 21  1  0
  9 22  1  0
  9 23  1  0
  5 24  2  0
 24 25  1  0
 22 26  1  0
 23 27  1  0
 25 28  2  0
 19 28  1  0
  4  6  1  0
 17 26  1  0
 18 20  2  0
M  END
>  <MOLFORMULA>  (85) 
C20 H16 F N3 O2 S2

>  <MOLWEIGHT>  (85) 
4.134954000000000e+002

>  <IDNUMBER>  (85) 
AT-687/NB06816

>  <PRICE>  (85) 
EUR 80/10 mg

>  <Similarity score>  (85) 
0.18

$$$$

     RDKit          2D

 25 27  0  0  0  0  0  0  0  0999 V2000
    4.7417   -1.2292    0.0000 N   0  0  0  0  0  0  0  0  0  0  0  0
    4.0292   -0.8167    0.0000 C   0  0  0  0  0  0  0  0  0  0  0  0
    5.4542   -0.8167    0.0000 C   0  0  0  0  0  0  0  0  0  0  0  0
    4.0292    0.0083    0.0000 C   0  0  0  0  0  0  0  0  0  0  0  0
    3.3125   -1.2292    0.0000 N   0  0  0  0  0  0  0  0  0  0  0  0
    9.0250   -1.2125    0.0000 C   0  0  0  0  0  0  0  0  0  0  0  0
    8.3042   -0.8042    0.0000 C   0  0  0  0  0  0  0  0  0  0  0  0
    9.0292   -2.0417    0.0000 C   0  0  0  0  0  0  0  0  0  0  0  0
    5.4542    0.0083    0.0000 N   0  0  0  0  0  0  0  0  0  0  0  0
    6.1750   -2.0542    0.0000 N   0  0  0  0  0  0  0  0  0  0  0  0
    4.7417    0.4208    0.0000 C   0  0  0  0  0  0  0  0  0  0  0  0
    7.6000   -1.2292    0.0000 C   0  0  0  0  0  0  0  0  0  0  0  0
    8.3167   -2.4625    0.0000 C   0  0  0  0  0  0  0  0  0  0  0  0
    6.1750   -1.2292    0.0000 N   0  0  0  0  0  0  0  0  0  0  0  0
    7.6042   -2.0542    0.0000 C   0  0  0  0  0  0  0  0  0  0  0  0
    6.8917   -2.4667    0.0000 C   0  0  0  0  0  0  0  0  0  0  0  0
    3.3167    0.4208    0.0000 F   0  0  0  0  0  0  0  0  0  0  0  0
    8.3042    0.0208    0.0000 I   0  0  0  0  0  0  0  0  0  0  0  0
    9.7375   -0.7917    0.0000 O   0  0  0  0  0  0  0  0  0  0  0  0
    9.7542   -2.4500    0.0000 O   0  0  0  0  0  0  0  0  0  0  0  0
    2.5625   -0.9000    0.0000 C   0  0  0  0  0  0  0  0  0  0  0  0
    3.2292   -2.0542    0.0000 C   0  0  0  0  0  0  0  0  0  0  0  0
   10.4667   -2.0250    0.0000 C   0  0  0  0  0  0  0  0  0  0  0  0
    2.0042   -1.5125    0.0000 C   0  0  0  0  0  0  0  0  0  0  0  0
    2.4167   -2.2292    0.0000 C   0  0  0  0  0  0  0  0  0  0  0  0
  1  2  1  0
  1  3  2  0
  2  4  2  0
  2  5  1  0
  6  8  1  0
  7 12  1  0
  8 13  2  0
  3  9  1  0
 10 14  1  0
  9 11  2  0
 12 15  2  0
 13 15  1  0
  3 14  1  0
 15 16  1  0
 10 16  2  0
  4 17  1  0
  7 18  1  0
  6 19  1  0
  8 20  1  0
  5 21  1  0
  5 22  1  0
 20 23  1  0
 21 24  1  0
 22 25  1  0
  4 11  1  0
 24 25  1  0
  6  7  2  0
M  END
>  <MOLFORMULA>  (86) 
C16 H17 F I N5 O2

>  <MOLWEIGHT>  (86) 
4.572413000000000e+002

>  <IDNUMBER>  (86) 
AT-138/QI01020

>  <CHIRALFLAG>  (86) 
-

>  <PRICE>  (86) 
EUR 125.00/10 mg

>  <Similarity score>  (86) 
0.18

$$$$

     RDKit          2D

 25 28  0  0  0  0  0  0  0  0999 V2000
   -1.2625    0.9125    0.0000 C   0  0  0  0  0  0  0  0  0  0  0  0
   -0.6708    1.2458    0.0000 C   0  0  0  0  0  0  0  0  0  0  0  0
   -2.4208    0.9125    0.0000 N   0  0  0  0  0  0  0  0  0  0  0  0
   -1.8458    1.2458    0.0000 C   0  0  0  0  0  0  0  0  0  0  0  0
   -0.0833    0.9125    0.0000 C   0  0  0  0  0  0  0  0  0  0  0  0
   -0.6708   -0.0917    0.0000 N   0  0  0  0  0  0  0  0  0  0  0  0
   -1.2625    0.2458    0.0000 C   0  0  0  0  0  0  0  0  0  0  0  0
   -3.0000    1.2458    0.0000 C   0  0  0  0  0  0  0  0  0  0  0  0
   -0.0833    0.2458    0.0000 C   0  0  0  0  0  0  0  0  0  0  0  0
   -1.8458    1.9000    0.0000 C   0  0  0  0  0  0  0  0  0  0  0  0
   -3.0000    1.9000    0.0000 C   0  0  0  0  0  0  0  0  0  0  0  0
   -2.4208    2.2333    0.0000 C   0  0  0  0  0  0  0  0  0  0  0  0
   -0.6708    1.9000    0.0000 O   0  0  0  0  0  0  0  0  0  0  0  0
    0.5042    1.2458    0.0000 C   0  0  0  0  0  0  0  0  0  0  0  0
   -3.5833    0.9125    0.0000 C   0  0  0  0  0  0  0  0  0  0  0  0
    0.5042   -0.0917    0.0000 C   0  0  0  0  0  0  0  0  0  0  0  0
   -3.5833    2.2333    0.0000 C   0  0  0  0  0  0  0  0  0  0  0  0
   -0.1000    2.2333    0.0000 C   0  0  0  0  0  0  0  0  0  0  0  0
   -0.1000    2.8958    0.0000 C   0  0  0  0  0  0  0  0  0  0  0  0
    0.4667    3.2208    0.0000 C   0  0  0  0  0  0  0  0  0  0  0  0
    1.1042    0.9125    0.0000 C   0  0  0  0  0  0  0  0  0  0  0  0
    0.4542    3.8833    0.0000 C   0  0  0  0  0  0  0  0  0  0  0  0
   -4.1625    1.2458    0.0000 C   0  0  0  0  0  0  0  0  0  0  0  0
    1.1042    0.2458    0.0000 C   0  0  0  0  0  0  0  0  0  0  0  0
   -4.1625    1.9000    0.0000 C   0  0  0  0  0  0  0  0  0  0  0  0
  1  2  1  0
  3  4  1  0
  1  4  1  0
  2  5  2  0
  6  7  1  0
  1  7  2  0
  3  8  2  0
  6  9  2  0
  4 10  2  0
 11 12  2  0
 10 12  1  0
  2 13  1  0
  5 14  1  0
  8 15  1  0
  9 16  1  0
 11 17  1  0
 13 18  1  0
 18 19  1  0
 19 20  1  0
 14 21  2  0
 20 22  1  0
 15 23  2  0
 16 24  2  0
 17 25  2  0
  5  9  1  0
  8 11  1  0
 21 24  1  0
 23 25  1  0
M  END
>  <MOLFORMULA>  (87) 
C22 H20 N2 O

>  <MOLWEIGHT>  (87) 
3.284130000000000e+002

>  <IDNUMBER>  (87) 
AT-225/NB37546

>  <PRICE>  (87) 
EUR 140/10 mg

>  <Similarity score>  (87) 
0.18

$$$$

     RDKit          2D

 27 30  0  0  0  0  0  0  0  0999 V2000
   -1.7542    1.3000    0.0000 N   0  0  0  0  0  0  0  0  0  0  0  0
   -1.2500    0.4333    0.0000 C   0  0  0  0  0  0  0  0  0  0  0  0
   -0.2500    0.4333    0.0000 N   0  0  0  0  0  0  0  0  0  0  0  0
    0.2500    1.3000    0.0000 C   0  0  0  0  0  0  0  0  0  0  0  0
   -1.2500    2.1667    0.0000 C   0  0  0  0  0  0  0  0  0  0  0  0
   -0.2500    2.1667    0.0000 C   0  0  0  0  0  0  0  0  0  0  0  0
   -1.7542   -0.4292    0.0000 N   0  0  0  0  0  0  0  0  0  0  0  0
    0.2500    3.0333    0.0000 C   0  0  0  0  0  0  0  0  0  0  0  0
   -3.2500   -3.0292    0.0000 C   0  0  0  0  0  0  0  0  0  0  0  0
   -1.7542    3.0333    0.0000 N   0  0  0  0  0  0  0  0  0  0  0  0
    1.2500    1.3000    0.0000 O   0  0  0  0  0  0  0  0  0  0  0  0
    1.2500    3.0333    0.0000 C   0  0  0  0  0  0  0  0  0  0  0  0
   -2.7500   -0.4292    0.0000 C   0  0  0  0  0  0  0  0  0  0  0  0
   -1.2500   -1.2958    0.0000 C   0  0  0  0  0  0  0  0  0  0  0  0
   -2.7500   -2.1625    0.0000 C   0  0  0  0  0  0  0  0  0  0  0  0
   -2.7500   -3.8958    0.0000 O   0  0  0  0  0  0  0  0  0  0  0  0
   -1.7542   -2.1625    0.0000 C   0  0  0  0  0  0  0  0  0  0  0  0
   -3.2500   -1.2958    0.0000 C   0  0  0  0  0  0  0  0  0  0  0  0
    1.7500    2.1667    0.0000 C   0  0  0  0  0  0  0  0  0  0  0  0
    1.7500    3.9000    0.0000 C   0  0  0  0  0  0  0  0  0  0  0  0
   -4.2500   -3.0292    0.0000 N   0  0  0  0  0  0  0  0  0  0  0  0
    3.2500    3.0333    0.0000 C   0  0  0  0  0  0  0  0  0  0  0  0
   -1.2500    3.9000    0.0000 C   0  0  0  0  0  0  0  0  0  0  0  0
    2.7500    2.1667    0.0000 C   0  0  0  0  0  0  0  0  0  0  0  0
    2.7500    3.9000    0.0000 C   0  0  0  0  0  0  0  0  0  0  0  0
    4.2458    3.0333    0.0000 F   0  0  0  0  0  0  0  0  0  0  0  0
   -0.2500    3.9000    0.0000 C   0  0  0  0  0  0  0  0  0  0  0  0
  1  2  2  0
  2  3  1  0
  4  6  1  0
  1  5  1  0
  5  6  1  0
  2  7  1  0
  6  8  2  0
  9 15  1  0
  5 10  2  0
  4 11  2  0
  8 12  1  0
  7 13  1  0
  7 14  1  0
 15 18  1  0
  9 16  2  0
 14 17  1  0
 13 18  1  0
 12 19  1  0
 12 20  2  0
  9 21  1  0
 22 24  1  0
 10 23  1  0
 19 24  2  0
 20 25  1  0
 22 26  1  0
 23 27  2  0
  3  4  1  0
  8 27  1  0
 15 17  1  0
 22 25  2  0
M  END
>  <MOLFORMULA>  (88) 
C19 H18 F N5 O2

>  <MOLWEIGHT>  (88) 
3.673822000000000e+002

>  <IDNUMBER>  (88) 
AN-153/NB25801

>  <PRICE>  (88) 
EUR 130/10 mg

>  <Similarity score>  (88) 
0.18

$$$$

     RDKit          2D

 31 35  0  0  0  0  0  0  0  0999 V2000
    4.0167  -10.5750    0.0000 C   0  0  0  0  0  0  0  0  0  0  0  0
    5.2000   -9.9750    0.0000 C   0  0  0  0  0  0  0  0  0  0  0  0
    2.7917  -10.0917    0.0000 O   0  0  0  0  0  0  0  0  0  0  0  0
    3.9292  -11.8917    0.0000 C   0  0  0  0  0  0  0  0  0  0  0  0
    2.6667  -12.2417    0.0000 C   0  0  0  0  0  0  0  0  0  0  0  0
    5.2750   -8.6292    0.0000 N   0  0  0  0  0  0  0  0  0  0  0  0
    1.9500  -11.1167    0.0000 C   0  0  0  0  0  0  0  0  0  0  0  0
    6.3167  -10.7167    0.0000 N   0  0  0  0  0  0  0  0  0  0  0  0
    5.4250   -4.6417    0.0000 C   0  0  0  0  0  0  0  0  0  0  0  0
    5.0500  -12.6167    0.0000 N   0  0  0  0  0  0  0  0  0  0  0  0
    7.7792   -0.7000    0.0000 C   0  0  0  0  0  0  0  0  0  0  0  0
    7.7500   -2.0167    0.0000 C   0  0  0  0  0  0  0  0  0  0  0  0
    6.5750   -4.0000    0.0000 N   0  0  0  0  0  0  0  0  0  0  0  0
    8.9417   -0.0292    0.0000 C   0  0  0  0  0  0  0  0  0  0  0  0
    6.2417  -12.0042    0.0000 C   0  0  0  0  0  0  0  0  0  0  0  0
    5.3917   -5.9542    0.0000 C   0  0  0  0  0  0  0  0  0  0  0  0
    6.4500   -8.0417    0.0000 C   0  0  0  0  0  0  0  0  0  0  0  0
    4.1667   -7.9250    0.0000 C   0  0  0  0  0  0  0  0  0  0  0  0
    6.6042   -2.6667    0.0000 C   0  0  0  0  0  0  0  0  0  0  0  0
    4.2917   -3.9500    0.0000 O   0  0  0  0  0  0  0  0  0  0  0  0
    8.9000   -2.6917    0.0000 C   0  0  0  0  0  0  0  0  0  0  0  0
    4.2250   -6.5750    0.0000 C   0  0  0  0  0  0  0  0  0  0  0  0
    6.5250   -6.7000    0.0000 C   0  0  0  0  0  0  0  0  0  0  0  0
   10.0750   -0.7000    0.0000 C   0  0  0  0  0  0  0  0  0  0  0  0
    6.6292   -0.0000    0.0000 F   0  0  0  0  0  0  0  0  0  0  0  0
   10.0667   -2.0292    0.0000 C   0  0  0  0  0  0  0  0  0  0  0  0
   11.2500   -0.0292    0.0000 F   0  0  0  0  0  0  0  0  0  0  0  0
    2.0500  -13.4250    0.0000 C   0  0  0  0  0  0  0  0  0  0  0  0
    0.6167  -11.1792    0.0000 C   0  0  0  0  0  0  0  0  0  0  0  0
    0.7250  -13.4917    0.0000 C   0  0  0  0  0  0  0  0  0  0  0  0
    0.0000  -12.3542    0.0000 C   0  0  0  0  0  0  0  0  0  0  0  0
  1  2  2  0
  1  3  1  0
  1  4  1  0
  4  5  1  0
  2  6  1  0
  3  7  1  0
  2  8  1  0
  9 16  1  0
  4 10  2  0
 11 12  2  0
 12 19  1  0
  9 13  1  0
 11 14  1  0
 10 15  1  0
 16 22  1  0
  6 17  1  0
  6 18  1  0
 13 19  1  0
  9 20  2  0
 12 21  1  0
 18 22  1  0
 17 23  1  0
 24 26  1  0
 11 25  1  0
 21 26  2  0
 24 27  1  0
  5 28  1  0
  7 29  1  0
 28 30  2  0
 29 31  2  0
  5  7  2  0
  8 15  2  0
 30 31  1  0
 16 23  1  0
 14 24  2  0
M  END
>  <MOLFORMULA>  (89) 
C23 H20 F2 N4 O2

>  <MOLWEIGHT>  (89) 
4.224330000000000e+002

>  <IDNUMBER>  (89) 
AT-687/PE16720

>  <PRICE>  (89) 
EUR 80/10 mg

>  <Similarity score>  (89) 
0.18

$$$$

     RDKit          2D

 30 34  0  0  0  0  0  0  0  0999 V2000
   -2.2208   -0.8000    0.0000 C   0  0  0  0  0  0  0  0  0  0  0  0
   -2.2333   -1.7917    0.0000 C   0  0  0  0  0  0  0  0  0  0  0  0
   -0.4958   -0.8125    0.0000 C   0  0  0  0  0  0  0  0  0  0  0  0
   -1.3583   -0.3000    0.0000 N   0  0  0  0  0  0  0  0  0  0  0  0
   -0.5000   -1.8125    0.0000 N   0  0  0  0  0  0  0  0  0  0  0  0
   -1.3708   -2.3125    0.0000 C   0  0  0  0  0  0  0  0  0  0  0  0
   -3.1750   -0.4792    0.0000 C   0  0  0  0  0  0  0  0  0  0  0  0
   -3.1833   -2.1000    0.0000 S   0  0  0  0  0  0  0  0  0  0  0  0
   -3.7625   -1.2917    0.0000 C   0  0  0  0  0  0  0  0  0  0  0  0
    0.3792   -0.3250    0.0000 N   0  0  0  0  0  0  0  0  0  0  0  0
    2.1250    0.6625    0.0000 N   0  0  0  0  0  0  0  0  0  0  0  0
    3.0042    1.1458    0.0000 C   0  0  0  0  0  0  0  0  0  0  0  0
   -3.4750    0.4625    0.0000 C   0  0  0  0  0  0  0  0  0  0  0  0
   -1.3875   -3.3125    0.0000 O   0  0  0  0  0  0  0  0  0  0  0  0
    0.3917    0.6833    0.0000 C   0  0  0  0  0  0  0  0  0  0  0  0
    1.2417   -0.8292    0.0000 C   0  0  0  0  0  0  0  0  0  0  0  0
    1.2625    1.1583    0.0000 C   0  0  0  0  0  0  0  0  0  0  0  0
    2.1042   -0.3417    0.0000 C   0  0  0  0  0  0  0  0  0  0  0  0
    3.0125    2.1458    0.0000 C   0  0  0  0  0  0  0  0  0  0  0  0
   -4.4708    0.6833    0.0000 C   0  0  0  0  0  0  0  0  0  0  0  0
   -2.8000    1.1958    0.0000 C   0  0  0  0  0  0  0  0  0  0  0  0
   -4.0833    2.3625    0.0000 C   0  0  0  0  0  0  0  0  0  0  0  0
    2.1500    2.6583    0.0000 F   0  0  0  0  0  0  0  0  0  0  0  0
   -3.1125    2.1500    0.0000 C   0  0  0  0  0  0  0  0  0  0  0  0
   -4.7708    1.6208    0.0000 C   0  0  0  0  0  0  0  0  0  0  0  0
   -4.3833    3.3208    0.0000 Br  0  0  0  0  0  0  0  0  0  0  0  0
    3.8667    0.6458    0.0000 C   0  0  0  0  0  0  0  0  0  0  0  0
    3.8792    2.6333    0.0000 C   0  0  0  0  0  0  0  0  0  0  0  0
    4.7375    1.1208    0.0000 C   0  0  0  0  0  0  0  0  0  0  0  0
    4.7542    2.1250    0.0000 C   0  0  0  0  0  0  0  0  0  0  0  0
  1  2  2  0
  3  4  2  0
  1  4  1  0
  3  5  1  0
  2  6  1  0
  1  7  1  0
  2  8  1  0
  7  9  2  0
  3 10  1  0
 11 18  1  0
 11 12  1  0
  7 13  1  0
  6 14  2  0
 10 15  1  0
 10 16  1  0
 15 17  1  0
 16 18  1  0
 12 19  1  0
 13 20  2  0
 13 21  1  0
 22 24  1  0
 19 23  1  0
 21 24  2  0
 20 25  1  0
 22 26  1  0
 12 27  2  0
 19 28  2  0
 27 29  1  0
 29 30  2  0
  8  9  1  0
  5  6  1  0
 22 25  2  0
 11 17  1  0
 28 30  1  0
M  END
>  <MOLFORMULA>  (90) 
C22 H18 Br F N4 O S

>  <MOLWEIGHT>  (90) 
4.853792000000000e+002

>  <IDNUMBER>  (90) 
AT-687/PE25904

>  <PRICE>  (90) 
EUR 80/10 mg

>  <Similarity score>  (90) 
0.18

$$$$

     RDKit          2D

 29 33  0  0  0  0  0  0  0  0999 V2000
   -2.2208   -0.4542    0.0000 C   0  0  0  0  0  0  0  0  0  0  0  0
   -2.2375   -1.4542    0.0000 C   0  0  0  0  0  0  0  0  0  0  0  0
   -0.4958   -0.4667    0.0000 C   0  0  0  0  0  0  0  0  0  0  0  0
   -1.3583    0.0458    0.0000 N   0  0  0  0  0  0  0  0  0  0  0  0
   -3.1750   -0.1417    0.0000 C   0  0  0  0  0  0  0  0  0  0  0  0
   -0.5000   -1.4667    0.0000 N   0  0  0  0  0  0  0  0  0  0  0  0
   -1.3708   -1.9667    0.0000 C   0  0  0  0  0  0  0  0  0  0  0  0
   -3.1833   -1.7542    0.0000 S   0  0  0  0  0  0  0  0  0  0  0  0
   -3.7708   -0.9500    0.0000 C   0  0  0  0  0  0  0  0  0  0  0  0
    0.3792    0.0208    0.0000 N   0  0  0  0  0  0  0  0  0  0  0  0
   -3.4833    0.8083    0.0000 C   0  0  0  0  0  0  0  0  0  0  0  0
    2.1250    1.0000    0.0000 N   0  0  0  0  0  0  0  0  0  0  0  0
   -1.3875   -2.9667    0.0000 O   0  0  0  0  0  0  0  0  0  0  0  0
    1.2417   -0.4875    0.0000 C   0  0  0  0  0  0  0  0  0  0  0  0
    0.3917    1.0208    0.0000 C   0  0  0  0  0  0  0  0  0  0  0  0
    2.1042   -0.0042    0.0000 C   0  0  0  0  0  0  0  0  0  0  0  0
    1.2625    1.5000    0.0000 C   0  0  0  0  0  0  0  0  0  0  0  0
   -2.8000    1.5375    0.0000 C   0  0  0  0  0  0  0  0  0  0  0  0
    3.0042    1.4833    0.0000 C   0  0  0  0  0  0  0  0  0  0  0  0
   -1.8250    1.3250    0.0000 F   0  0  0  0  0  0  0  0  0  0  0  0
   -4.4708    1.0208    0.0000 C   0  0  0  0  0  0  0  0  0  0  0  0
   -3.1125    2.4958    0.0000 C   0  0  0  0  0  0  0  0  0  0  0  0
    3.8667    0.9833    0.0000 C   0  0  0  0  0  0  0  0  0  0  0  0
    3.0125    2.4833    0.0000 C   0  0  0  0  0  0  0  0  0  0  0  0
   -4.7708    1.9625    0.0000 C   0  0  0  0  0  0  0  0  0  0  0  0
    4.7417    1.4625    0.0000 C   0  0  0  0  0  0  0  0  0  0  0  0
    3.8792    2.9833    0.0000 C   0  0  0  0  0  0  0  0  0  0  0  0
   -4.0833    2.7083    0.0000 C   0  0  0  0  0  0  0  0  0  0  0  0
    4.7542    2.4708    0.0000 C   0  0  0  0  0  0  0  0  0  0  0  0
  1  2  2  0
  3  4  2  0
  1  4  1  0
  1  5  1  0
  3  6  1  0
  2  7  1  0
  2  8  1  0
  5  9  2  0
  3 10  1  0
  5 11  1  0
 12 17  1  0
  7 13  2  0
 10 14  1  0
 10 15  1  0
 14 16  1  0
 15 17  1  0
 11 18  1  0
 12 19  1  0
 18 20  1  0
 11 21  2  0
 18 22  2  0
 19 23  2  0
 19 24  1  0
 21 25  1  0
 23 26  1  0
 24 27  2  0
 25 28  2  0
 27 29  1  0
  8  9  1  0
  6  7  1  0
 22 28  1  0
 12 16  1  0
 26 29  2  0
M  END
>  <MOLFORMULA>  (91) 
C22 H19 F N4 O S

>  <MOLWEIGHT>  (91) 
4.064831000000000e+002

>  <IDNUMBER>  (91) 
AT-687/PE25857

>  <PRICE>  (91) 
EUR 80/10 mg

>  <Similarity score>  (91) 
0.18

$$$$

     RDKit          2D

 32 35  0  0  0  0  0  0  0  0999 V2000
    4.6042   -6.6292    0.0000 S   0  0  0  0  0  0  0  0  0  0  0  0
    5.7417   -7.3000    0.0000 C   0  0  0  0  0  0  0  0  0  0  0  0
    6.9042   -1.3167    0.0000 S   0  0  0  0  0  0  0  0  0  0  0  0
    6.9042   -6.6292    0.0000 C   0  0  0  0  0  0  0  0  0  0  0  0
    8.0542   -7.3000    0.0000 C   0  0  0  0  0  0  0  0  0  0  0  0
    6.9042   -2.6417    0.0000 N   0  0  0  0  0  0  0  0  0  0  0  0
    3.4542   -5.9750    0.0000 C   0  0  0  0  0  0  0  0  0  0  0  0
    6.9042   -5.3042    0.0000 N   0  0  0  0  0  0  0  0  0  0  0  0
    5.7417   -8.6375    0.0000 C   0  0  0  0  0  0  0  0  0  0  0  0
    6.9042   -9.2917    0.0000 N   0  0  0  0  0  0  0  0  0  0  0  0
    3.4542   -4.6375    0.0000 C   0  0  0  0  0  0  0  0  0  0  0  0
    8.0542   -8.6250    0.0000 C   0  0  0  0  0  0  0  0  0  0  0  0
    2.3000   -3.9792    0.0000 C   0  0  0  0  0  0  0  0  0  0  0  0
    5.2625   -5.4917    0.0000 O   0  0  0  0  0  0  0  0  0  0  0  0
    3.9375   -7.7917    0.0000 O   0  0  0  0  0  0  0  0  0  0  0  0
    8.0542   -3.3167    0.0000 C   0  0  0  0  0  0  0  0  0  0  0  0
    5.7417   -3.3167    0.0000 C   0  0  0  0  0  0  0  0  0  0  0  0
    5.5667   -1.3167    0.0000 O   0  0  0  0  0  0  0  0  0  0  0  0
    8.2292   -1.3167    0.0000 O   0  0  0  0  0  0  0  0  0  0  0  0
    9.2000   -6.6292    0.0000 C   0  0  0  0  0  0  0  0  0  0  0  0
    5.7417   -4.6375    0.0000 C   0  0  0  0  0  0  0  0  0  0  0  0
    8.0542   -4.6375    0.0000 C   0  0  0  0  0  0  0  0  0  0  0  0
    1.1500   -4.6375    0.0000 C   0  0  0  0  0  0  0  0  0  0  0  0
    2.3000   -6.6292    0.0000 C   0  0  0  0  0  0  0  0  0  0  0  0
    1.1500   -5.9750    0.0000 C   0  0  0  0  0  0  0  0  0  0  0  0
    9.2000   -9.2917    0.0000 C   0  0  0  0  0  0  0  0  0  0  0  0
    6.9042   -0.0000    0.0000 C   0  0  0  0  0  0  0  0  0  0  0  0
   10.3625   -7.3000    0.0000 C   0  0  0  0  0  0  0  0  0  0  0  0
    2.3000   -2.6417    0.0000 F   0  0  0  0  0  0  0  0  0  0  0  0
    0.0000   -3.9792    0.0000 F   0  0  0  0  0  0  0  0  0  0  0  0
   10.3625   -8.6250    0.0000 C   0  0  0  0  0  0  0  0  0  0  0  0
   11.5167   -6.6292    0.0000 F   0  0  0  0  0  0  0  0  0  0  0  0
  1  2  1  0
  3  6  1  0
  2  4  2  0
  4  5  1  0
  6 16  1  0
  1  7  1  0
  4  8  1  0
  2  9  1  0
  9 10  2  0
  7 11  1  0
 10 12  1  0
 11 13  2  0
  1 14  2  0
  1 15  2  0
 16 22  1  0
 17 21  1  0
  3 18  2  0
  3 19  2  0
  5 20  2  0
  8 21  1  0
  8 22  1  0
 23 25  2  0
  7 24  2  0
 24 25  1  0
 12 26  2  0
  3 27  1  0
 20 28  1  0
 13 29  1  0
 23 30  1  0
 26 31  1  0
 28 32  1  0
 13 23  1  0
  5 12  1  0
  6 17  1  0
 28 31  2  0
M  END
>  <MOLFORMULA>  (92) 
C20 H18 F3 N3 O4 S2

>  <MOLWEIGHT>  (92) 
4.855052000000000e+002

>  <IDNUMBER>  (92) 
AT-687/NB06806

>  <PRICE>  (92) 
EUR 80/10 mg

>  <Similarity score>  (92) 
0.18

$$$$

     RDKit          2D

 24 26  0  0  0  0  0  0  0  0999 V2000
    6.6625   -3.0667    0.0000 N   0  0  0  0  0  0  0  0  0  0  0  0
    5.9500   -2.6542    0.0000 C   0  0  0  0  0  0  0  0  0  0  0  0
    7.3792   -2.6542    0.0000 C   0  0  0  0  0  0  0  0  0  0  0  0
    5.9500   -1.8250    0.0000 C   0  0  0  0  0  0  0  0  0  0  0  0
    9.5250   -3.8792    0.0000 C   0  0  0  0  0  0  0  0  0  0  0  0
    5.2292   -3.0667    0.0000 N   0  0  0  0  0  0  0  0  0  0  0  0
   10.2292   -2.6375    0.0000 C   0  0  0  0  0  0  0  0  0  0  0  0
    9.5125   -3.0625    0.0000 C   0  0  0  0  0  0  0  0  0  0  0  0
    7.3792   -1.8250    0.0000 N   0  0  0  0  0  0  0  0  0  0  0  0
   10.9417   -3.0417    0.0000 C   0  0  0  0  0  0  0  0  0  0  0  0
    8.0917   -3.8917    0.0000 N   0  0  0  0  0  0  0  0  0  0  0  0
    6.6625   -1.4125    0.0000 C   0  0  0  0  0  0  0  0  0  0  0  0
   10.2375   -4.2875    0.0000 C   0  0  0  0  0  0  0  0  0  0  0  0
   10.9500   -3.8667    0.0000 C   0  0  0  0  0  0  0  0  0  0  0  0
    8.0917   -3.0667    0.0000 N   0  0  0  0  0  0  0  0  0  0  0  0
    8.8125   -4.3000    0.0000 C   0  0  0  0  0  0  0  0  0  0  0  0
    5.2375   -1.4167    0.0000 F   0  0  0  0  0  0  0  0  0  0  0  0
   10.2250   -1.8125    0.0000 Br  0  0  0  0  0  0  0  0  0  0  0  0
    8.7917   -2.6542    0.0000 O   0  0  0  0  0  0  0  0  0  0  0  0
   11.6667   -4.2792    0.0000 Cl  0  0  0  0  0  0  0  0  0  0  0  0
    4.4875   -2.7292    0.0000 C   0  0  0  0  0  0  0  0  0  0  0  0
    5.1542   -3.8875    0.0000 C   0  0  0  0  0  0  0  0  0  0  0  0
    4.3417   -4.0542    0.0000 C   0  0  0  0  0  0  0  0  0  0  0  0
    3.9292   -3.3417    0.0000 C   0  0  0  0  0  0  0  0  0  0  0  0
  1  2  1  0
  1  3  2  0
  2  4  2  0
  5 16  1  0
  2  6  1  0
  7  8  1  0
  5  8  2  0
  3  9  1  0
 10 14  1  0
 11 15  1  0
  9 12  2  0
  5 13  1  0
 13 14  2  0
  3 15  1  0
 11 16  2  0
  4 17  1  0
  7 18  1  0
  8 19  1  0
 14 20  1  0
  6 21  1  0
  6 22  1  0
 22 23  1  0
 21 24  1  0
  4 12  1  0
 23 24  1  0
  7 10  2  0
M  END
>  <MOLFORMULA>  (93) 
C15 H14 Br Cl F N5 O

>  <MOLWEIGHT>  (93) 
4.146646000000000e+002

>  <IDNUMBER>  (93) 
AT-138/QI01026

>  <CHIRALFLAG>  (93) 
-

>  <PRICE>  (93) 
EUR 125.00/10 mg

>  <Similarity score>  (93) 
0.18

$$$$

     RDKit          2D

 26 29  0  0  0  0  0  0  0  0999 V2000
    6.6625   -3.0667    0.0000 N   0  0  0  0  0  0  0  0  0  0  0  0
    5.9500   -2.6542    0.0000 C   0  0  0  0  0  0  0  0  0  0  0  0
    7.3792   -2.6542    0.0000 C   0  0  0  0  0  0  0  0  0  0  0  0
   10.8792   -3.0792    0.0000 C   0  0  0  0  0  0  0  0  0  0  0  0
    5.9500   -1.8250    0.0000 C   0  0  0  0  0  0  0  0  0  0  0  0
    5.2292   -3.0667    0.0000 N   0  0  0  0  0  0  0  0  0  0  0  0
   10.8917   -3.8667    0.0000 C   0  0  0  0  0  0  0  0  0  0  0  0
   10.1917   -2.6875    0.0000 C   0  0  0  0  0  0  0  0  0  0  0  0
    7.3792   -1.8250    0.0000 N   0  0  0  0  0  0  0  0  0  0  0  0
   11.5625   -2.6792    0.0000 O   0  0  0  0  0  0  0  0  0  0  0  0
    8.0917   -3.8917    0.0000 N   0  0  0  0  0  0  0  0  0  0  0  0
   11.5792   -4.2542    0.0000 O   0  0  0  0  0  0  0  0  0  0  0  0
    6.6625   -1.4125    0.0000 C   0  0  0  0  0  0  0  0  0  0  0  0
   10.2042   -4.2667    0.0000 C   0  0  0  0  0  0  0  0  0  0  0  0
    9.5167   -3.0917    0.0000 C   0  0  0  0  0  0  0  0  0  0  0  0
   12.1375   -3.4542    0.0000 C   0  0  0  0  0  0  0  0  0  0  0  0
    8.0917   -3.0667    0.0000 N   0  0  0  0  0  0  0  0  0  0  0  0
    9.5250   -3.8792    0.0000 C   0  0  0  0  0  0  0  0  0  0  0  0
    8.8125   -4.3000    0.0000 C   0  0  0  0  0  0  0  0  0  0  0  0
    5.2375   -1.4167    0.0000 F   0  0  0  0  0  0  0  0  0  0  0  0
   10.1792   -1.8667    0.0000 O   0  0  0  0  0  0  0  0  0  0  0  0
    5.1542   -3.8875    0.0000 C   0  0  0  0  0  0  0  0  0  0  0  0
    4.4875   -2.7292    0.0000 C   0  0  0  0  0  0  0  0  0  0  0  0
    9.4667   -1.4625    0.0000 C   0  0  0  0  0  0  0  0  0  0  0  0
    4.3417   -4.0542    0.0000 C   0  0  0  0  0  0  0  0  0  0  0  0
    3.9292   -3.3417    0.0000 C   0  0  0  0  0  0  0  0  0  0  0  0
  1  2  1  0
  1  3  2  0
  4  8  1  0
  2  5  2  0
  2  6  1  0
  7 14  1  0
  8 15  2  0
  3  9  1  0
  4 10  1  0
 11 17  1  0
  7 12  1  0
  9 13  2  0
 14 18  2  0
 15 18  1  0
 12 16  1  0
  3 17  1  0
 18 19  1  0
 11 19  2  0
  5 20  1  0
  8 21  1  0
  6 22  1  0
  6 23  1  0
 21 24  1  0
 22 25  1  0
 23 26  1  0
  5 13  1  0
 25 26  1  0
  4  7  2  0
 10 16  1  0
M  END
>  <MOLFORMULA>  (94) 
C17 H18 F N5 O3

>  <MOLWEIGHT>  (94) 
3.593592000000000e+002

>  <IDNUMBER>  (94) 
AT-138/QI01025

>  <CHIRALFLAG>  (94) 
-

>  <PRICE>  (94) 
EUR 125.00/10 mg

>  <Similarity score>  (94) 
0.18

$$$$

     RDKit          2D

 30 34  0  0  0  0  0  0  0  0999 V2000
   -2.2208   -0.8000    0.0000 C   0  0  0  0  0  0  0  0  0  0  0  0
   -2.2333   -1.7917    0.0000 C   0  0  0  0  0  0  0  0  0  0  0  0
   -0.4958   -0.8125    0.0000 C   0  0  0  0  0  0  0  0  0  0  0  0
   -1.3583   -0.3000    0.0000 N   0  0  0  0  0  0  0  0  0  0  0  0
   -0.5000   -1.8125    0.0000 N   0  0  0  0  0  0  0  0  0  0  0  0
   -1.3708   -2.3125    0.0000 C   0  0  0  0  0  0  0  0  0  0  0  0
   -3.1750   -0.4792    0.0000 C   0  0  0  0  0  0  0  0  0  0  0  0
   -3.1833   -2.1000    0.0000 S   0  0  0  0  0  0  0  0  0  0  0  0
   -3.7625   -1.2917    0.0000 C   0  0  0  0  0  0  0  0  0  0  0  0
    0.3792   -0.3250    0.0000 N   0  0  0  0  0  0  0  0  0  0  0  0
    2.1250    0.6625    0.0000 N   0  0  0  0  0  0  0  0  0  0  0  0
    3.0042    1.1458    0.0000 C   0  0  0  0  0  0  0  0  0  0  0  0
   -3.4750    0.4625    0.0000 C   0  0  0  0  0  0  0  0  0  0  0  0
   -1.3875   -3.3125    0.0000 O   0  0  0  0  0  0  0  0  0  0  0  0
    0.3917    0.6833    0.0000 C   0  0  0  0  0  0  0  0  0  0  0  0
    1.2417   -0.8292    0.0000 C   0  0  0  0  0  0  0  0  0  0  0  0
    1.2625    1.1583    0.0000 C   0  0  0  0  0  0  0  0  0  0  0  0
    2.1042   -0.3417    0.0000 C   0  0  0  0  0  0  0  0  0  0  0  0
    3.0125    2.1458    0.0000 C   0  0  0  0  0  0  0  0  0  0  0  0
   -4.4708    0.6833    0.0000 C   0  0  0  0  0  0  0  0  0  0  0  0
   -2.8000    1.1958    0.0000 C   0  0  0  0  0  0  0  0  0  0  0  0
    2.1500    2.6583    0.0000 F   0  0  0  0  0  0  0  0  0  0  0  0
   -3.1125    2.1500    0.0000 C   0  0  0  0  0  0  0  0  0  0  0  0
   -4.7708    1.6208    0.0000 C   0  0  0  0  0  0  0  0  0  0  0  0
   -4.0833    2.3625    0.0000 C   0  0  0  0  0  0  0  0  0  0  0  0
    3.8667    0.6458    0.0000 C   0  0  0  0  0  0  0  0  0  0  0  0
    3.8792    2.6333    0.0000 C   0  0  0  0  0  0  0  0  0  0  0  0
   -4.3833    3.3208    0.0000 C   0  0  0  0  0  0  0  0  0  0  0  0
    4.7375    1.1208    0.0000 C   0  0  0  0  0  0  0  0  0  0  0  0
    4.7542    2.1250    0.0000 C   0  0  0  0  0  0  0  0  0  0  0  0
  1  2  2  0
  3  4  2  0
  1  4  1  0
  3  5  1  0
  2  6  1  0
  1  7  1  0
  2  8  1  0
  7  9  2  0
  3 10  1  0
 11 18  1  0
 11 12  1  0
  7 13  1  0
  6 14  2  0
 10 15  1  0
 10 16  1  0
 15 17  1  0
 16 18  1  0
 12 19  1  0
 13 20  2  0
 13 21  1  0
 19 22  1  0
 21 23  2  0
 20 24  1  0
 23 25  1  0
 12 26  2  0
 19 27  2  0
 25 28  1  0
 26 29  1  0
 29 30  2  0
  8  9  1  0
  5  6  1  0
 24 25  2  0
 11 17  1  0
 27 30  1  0
M  END
>  <MOLFORMULA>  (95) 
C23 H21 F N4 O S

>  <MOLWEIGHT>  (95) 
4.205099000000000e+002

>  <IDNUMBER>  (95) 
AT-687/PE25823

>  <PRICE>  (95) 
EUR 80/10 mg

>  <Similarity score>  (95) 
0.18

$$$$

     RDKit          2D

 30 34  0  0  0  0  0  0  0  0999 V2000
   -2.2208   -0.8000    0.0000 C   0  0  0  0  0  0  0  0  0  0  0  0
   -2.2333   -1.7917    0.0000 C   0  0  0  0  0  0  0  0  0  0  0  0
   -0.4958   -0.8125    0.0000 C   0  0  0  0  0  0  0  0  0  0  0  0
   -1.3583   -0.3000    0.0000 N   0  0  0  0  0  0  0  0  0  0  0  0
   -0.5000   -1.8125    0.0000 N   0  0  0  0  0  0  0  0  0  0  0  0
   -1.3708   -2.3125    0.0000 C   0  0  0  0  0  0  0  0  0  0  0  0
   -3.1750   -0.4792    0.0000 C   0  0  0  0  0  0  0  0  0  0  0  0
   -3.1833   -2.1000    0.0000 S   0  0  0  0  0  0  0  0  0  0  0  0
   -3.7625   -1.2917    0.0000 C   0  0  0  0  0  0  0  0  0  0  0  0
    0.3792   -0.3250    0.0000 N   0  0  0  0  0  0  0  0  0  0  0  0
    2.1250    0.6625    0.0000 N   0  0  0  0  0  0  0  0  0  0  0  0
    3.0042    1.1458    0.0000 C   0  0  0  0  0  0  0  0  0  0  0  0
   -3.4750    0.4625    0.0000 C   0  0  0  0  0  0  0  0  0  0  0  0
   -1.3875   -3.3125    0.0000 O   0  0  0  0  0  0  0  0  0  0  0  0
    0.3917    0.6833    0.0000 C   0  0  0  0  0  0  0  0  0  0  0  0
    1.2417   -0.8292    0.0000 C   0  0  0  0  0  0  0  0  0  0  0  0
    1.2625    1.1583    0.0000 C   0  0  0  0  0  0  0  0  0  0  0  0
    2.1042   -0.3417    0.0000 C   0  0  0  0  0  0  0  0  0  0  0  0
    3.0125    2.1458    0.0000 C   0  0  0  0  0  0  0  0  0  0  0  0
   -4.4708    0.6833    0.0000 C   0  0  0  0  0  0  0  0  0  0  0  0
   -2.8000    1.1958    0.0000 C   0  0  0  0  0  0  0  0  0  0  0  0
   -4.0833    2.3625    0.0000 C   0  0  0  0  0  0  0  0  0  0  0  0
    2.1500    2.6583    0.0000 F   0  0  0  0  0  0  0  0  0  0  0  0
   -3.1125    2.1500    0.0000 C   0  0  0  0  0  0  0  0  0  0  0  0
   -4.7708    1.6208    0.0000 C   0  0  0  0  0  0  0  0  0  0  0  0
   -4.3833    3.3208    0.0000 Cl  0  0  0  0  0  0  0  0  0  0  0  0
    3.8667    0.6458    0.0000 C   0  0  0  0  0  0  0  0  0  0  0  0
    3.8792    2.6333    0.0000 C   0  0  0  0  0  0  0  0  0  0  0  0
    4.7375    1.1208    0.0000 C   0  0  0  0  0  0  0  0  0  0  0  0
    4.7542    2.1250    0.0000 C   0  0  0  0  0  0  0  0  0  0  0  0
  1  2  2  0
  3  4  2  0
  1  4  1  0
  3  5  1  0
  2  6  1  0
  1  7  1  0
  2  8  1  0
  7  9  2  0
  3 10  1  0
 11 18  1  0
 11 12  1  0
  7 13  1  0
  6 14  2  0
 10 15  1  0
 10 16  1  0
 15 17  1  0
 16 18  1  0
 12 19  1  0
 13 20  2  0
 13 21  1  0
 22 24  1  0
 19 23  1  0
 21 24  2  0
 20 25  1  0
 22 26  1  0
 12 27  2  0
 19 28  2  0
 27 29  1  0
 29 30  2  0
  8  9  1  0
  5  6  1  0
 22 25  2  0
 11 17  1  0
 28 30  1  0
M  END
>  <MOLFORMULA>  (96) 
C22 H18 Cl F N4 O S

>  <MOLWEIGHT>  (96) 
4.409282000000000e+002

>  <IDNUMBER>  (96) 
AT-687/PE25893

>  <PRICE>  (96) 
EUR 80/10 mg

>  <Similarity score>  (96) 
0.18

$$$$

     RDKit          2D

 32 35  0  0  0  0  0  0  0  0999 V2000
    3.4625   -2.6417    0.0000 S   0  0  0  0  0  0  0  0  0  0  0  0
    4.6125   -1.9792    0.0000 C   0  0  0  0  0  0  0  0  0  0  0  0
    5.7625   -7.9792    0.0000 S   0  0  0  0  0  0  0  0  0  0  0  0
    5.7625   -2.6417    0.0000 C   0  0  0  0  0  0  0  0  0  0  0  0
    5.7625   -6.6417    0.0000 N   0  0  0  0  0  0  0  0  0  0  0  0
    6.9042   -1.9792    0.0000 C   0  0  0  0  0  0  0  0  0  0  0  0
    5.7625   -3.9792    0.0000 N   0  0  0  0  0  0  0  0  0  0  0  0
    2.3000   -3.3042    0.0000 C   0  0  0  0  0  0  0  0  0  0  0  0
    6.9042   -0.6500    0.0000 C   0  0  0  0  0  0  0  0  0  0  0  0
    5.7625   -0.0000    0.0000 N   0  0  0  0  0  0  0  0  0  0  0  0
    4.6125   -0.6500    0.0000 C   0  0  0  0  0  0  0  0  0  0  0  0
    1.1500   -7.9792    0.0000 N   0  0  0  0  0  0  0  0  0  0  0  0
    4.1250   -3.8042    0.0000 O   0  0  0  0  0  0  0  0  0  0  0  0
    2.8000   -1.5000    0.0000 O   0  0  0  0  0  0  0  0  0  0  0  0
    4.6125   -5.9792    0.0000 C   0  0  0  0  0  0  0  0  0  0  0  0
    6.9042   -5.9792    0.0000 C   0  0  0  0  0  0  0  0  0  0  0  0
    8.0667   -2.6417    0.0000 C   0  0  0  0  0  0  0  0  0  0  0  0
    7.0917   -7.9792    0.0000 O   0  0  0  0  0  0  0  0  0  0  0  0
    4.4250   -7.9792    0.0000 O   0  0  0  0  0  0  0  0  0  0  0  0
    8.0667   -0.0000    0.0000 C   0  0  0  0  0  0  0  0  0  0  0  0
    1.1500   -6.6417    0.0000 C   0  0  0  0  0  0  0  0  0  0  0  0
    4.6125   -4.6417    0.0000 C   0  0  0  0  0  0  0  0  0  0  0  0
    6.9042   -4.6417    0.0000 C   0  0  0  0  0  0  0  0  0  0  0  0
    2.3000   -4.6417    0.0000 C   0  0  0  0  0  0  0  0  0  0  0  0
    9.2167   -0.6500    0.0000 C   0  0  0  0  0  0  0  0  0  0  0  0
    1.1500   -5.3042    0.0000 C   0  0  0  0  0  0  0  0  0  0  0  0
    5.7625   -9.3125    0.0000 C   0  0  0  0  0  0  0  0  0  0  0  0
    9.2167   -1.9792    0.0000 C   0  0  0  0  0  0  0  0  0  0  0  0
   10.3667   -0.0000    0.0000 F   0  0  0  0  0  0  0  0  0  0  0  0
    1.1500   -2.6417    0.0000 C   0  0  0  0  0  0  0  0  0  0  0  0
    0.0000   -3.3042    0.0000 C   0  0  0  0  0  0  0  0  0  0  0  0
    0.0000   -4.6417    0.0000 C   0  0  0  0  0  0  0  0  0  0  0  0
  1  2  1  0
  3  5  1  0
  2  4  2  0
  5 16  1  0
  4  6  1  0
  4  7  1  0
  1  8  1  0
  9 10  1  0
 10 11  2  0
  2 11  1  0
 12 21  3  0
  1 13  2  0
  1 14  2  0
 15 22  1  0
 16 23  1  0
  6 17  2  0
  3 18  2  0
  3 19  2  0
  9 20  2  0
 21 26  1  0
  7 22  1  0
  7 23  1  0
  8 24  1  0
 20 25  1  0
 24 26  2  0
  3 27  1  0
 17 28  1  0
 25 29  1  0
  8 30  2  0
 30 31  1  0
 31 32  2  0
 26 32  1  0
  6  9  1  0
  5 15  1  0
 25 28  2  0
M  END
>  <MOLFORMULA>  (97) 
C21 H19 F N4 O4 S2

>  <MOLWEIGHT>  (97) 
4.745351000000000e+002

>  <IDNUMBER>  (97) 
AT-687/NB06819

>  <PRICE>  (97) 
EUR 80/10 mg

>  <Similarity score>  (97) 
0.18

$$$$

     RDKit          2D

 28 32  0  0  0  0  0  0  0  0999 V2000
    6.7792   -7.3167    0.0000 C   0  0  0  0  0  0  0  0  0  0  0  0
    6.0625   -7.7292    0.0000 N   0  0  0  0  0  0  0  0  0  0  0  0
    6.7792   -6.4875    0.0000 N   0  0  0  0  0  0  0  0  0  0  0  0
    7.3917   -7.8667    0.0000 C   0  0  0  0  0  0  0  0  0  0  0  0
    6.2292   -8.5375    0.0000 N   0  0  0  0  0  0  0  0  0  0  0  0
    6.0625   -6.0667    0.0000 C   0  0  0  0  0  0  0  0  0  0  0  0
    5.3500   -6.4875    0.0000 C   0  0  0  0  0  0  0  0  0  0  0  0
    7.0542   -8.6292    0.0000 N   0  0  0  0  0  0  0  0  0  0  0  0
    5.3417   -7.3125    0.0000 C   0  0  0  0  0  0  0  0  0  0  0  0
    6.0625   -5.2417    0.0000 N   0  0  0  0  0  0  0  0  0  0  0  0
    8.1917   -7.7042    0.0000 C   0  0  0  0  0  0  0  0  0  0  0  0
    4.6292   -6.0750    0.0000 C   0  0  0  0  0  0  0  0  0  0  0  0
    4.6292   -7.7292    0.0000 C   0  0  0  0  0  0  0  0  0  0  0  0
    8.7417   -8.3167    0.0000 C   0  0  0  0  0  0  0  0  0  0  0  0
    3.9167   -6.4875    0.0000 C   0  0  0  0  0  0  0  0  0  0  0  0
    3.9167   -7.3167    0.0000 C   0  0  0  0  0  0  0  0  0  0  0  0
    9.5542   -8.1542    0.0000 C   0  0  0  0  0  0  0  0  0  0  0  0
    3.2042   -6.0750    0.0000 Cl  0  0  0  0  0  0  0  0  0  0  0  0
   10.1000   -8.7667    0.0000 F   0  0  0  0  0  0  0  0  0  0  0  0
    6.8042   -4.8792    0.0000 C   0  0  0  0  0  0  0  0  0  0  0  0
    5.3250   -4.8875    0.0000 C   0  0  0  0  0  0  0  0  0  0  0  0
    8.4500   -6.9250    0.0000 C   0  0  0  0  0  0  0  0  0  0  0  0
    9.2542   -6.7542    0.0000 C   0  0  0  0  0  0  0  0  0  0  0  0
    9.8125   -7.3667    0.0000 C   0  0  0  0  0  0  0  0  0  0  0  0
    5.1375   -4.0792    0.0000 C   0  0  0  0  0  0  0  0  0  0  0  0
    6.9917   -4.0792    0.0000 C   0  0  0  0  0  0  0  0  0  0  0  0
    6.4667   -3.4375    0.0000 C   0  0  0  0  0  0  0  0  0  0  0  0
    5.6500   -3.4292    0.0000 C   0  0  0  0  0  0  0  0  0  0  0  0
  1  2  1  0
  1  3  1  0
  1  4  2  0
  2  5  1  0
  3  6  2  0
  6  7  1  0
  4  8  1  0
  2  9  1  0
  6 10  1  0
  4 11  1  0
  7 12  2  0
  9 13  2  0
 11 14  2  0
 12 15  1  0
 13 16  1  0
 14 17  1  0
 15 18  1  0
 17 19  1  0
 10 20  1  0
 10 21  1  0
 11 22  1  0
 22 23  2  0
 23 24  1  0
 21 25  1  0
 20 26  1  0
 26 27  1  0
 25 28  1  0
  5  8  2  0
  7  9  1  0
 15 16  2  0
 17 24  2  0
 27 28  1  0
M  END
>  <MOLFORMULA>  (98) 
C21 H19 Cl F N5

>  <MOLWEIGHT>  (98) 
3.958671000000000e+002

>  <IDNUMBER>  (98) 
AT-687/PE10279

>  <PRICE>  (98) 
EUR 80/10 mg

>  <Similarity score>  (98) 
0.18

$$$$

     RDKit          2D

 27 31  0  0  0  0  0  0  0  0999 V2000
    6.7792   -7.2292    0.0000 C   0  0  0  0  0  0  0  0  0  0  0  0
    6.0625   -7.6417    0.0000 N   0  0  0  0  0  0  0  0  0  0  0  0
    6.7792   -6.4042    0.0000 N   0  0  0  0  0  0  0  0  0  0  0  0
    7.3917   -7.7875    0.0000 C   0  0  0  0  0  0  0  0  0  0  0  0
    6.2292   -8.4542    0.0000 N   0  0  0  0  0  0  0  0  0  0  0  0
    6.0625   -5.9875    0.0000 C   0  0  0  0  0  0  0  0  0  0  0  0
    5.3500   -6.4042    0.0000 C   0  0  0  0  0  0  0  0  0  0  0  0
    7.0542   -8.5417    0.0000 N   0  0  0  0  0  0  0  0  0  0  0  0
    5.3417   -7.2292    0.0000 C   0  0  0  0  0  0  0  0  0  0  0  0
    6.0625   -5.1625    0.0000 N   0  0  0  0  0  0  0  0  0  0  0  0
    8.1917   -7.6167    0.0000 C   0  0  0  0  0  0  0  0  0  0  0  0
    4.6292   -5.9917    0.0000 C   0  0  0  0  0  0  0  0  0  0  0  0
    4.6292   -7.6417    0.0000 C   0  0  0  0  0  0  0  0  0  0  0  0
    8.7417   -8.2375    0.0000 C   0  0  0  0  0  0  0  0  0  0  0  0
    3.9167   -6.4042    0.0000 C   0  0  0  0  0  0  0  0  0  0  0  0
    3.9167   -7.2292    0.0000 C   0  0  0  0  0  0  0  0  0  0  0  0
    9.5542   -8.0667    0.0000 C   0  0  0  0  0  0  0  0  0  0  0  0
    3.2042   -5.9917    0.0000 Cl  0  0  0  0  0  0  0  0  0  0  0  0
   10.1000   -8.6875    0.0000 F   0  0  0  0  0  0  0  0  0  0  0  0
    5.3500   -4.7542    0.0000 C   0  0  0  0  0  0  0  0  0  0  0  0
    6.7792   -4.7542    0.0000 C   0  0  0  0  0  0  0  0  0  0  0  0
    8.4500   -6.8417    0.0000 C   0  0  0  0  0  0  0  0  0  0  0  0
    9.2542   -6.6667    0.0000 C   0  0  0  0  0  0  0  0  0  0  0  0
    9.8125   -7.2875    0.0000 C   0  0  0  0  0  0  0  0  0  0  0  0
    5.3500   -3.9292    0.0000 C   0  0  0  0  0  0  0  0  0  0  0  0
    6.7792   -3.9292    0.0000 C   0  0  0  0  0  0  0  0  0  0  0  0
    6.0667   -3.5167    0.0000 C   0  0  0  0  0  0  0  0  0  0  0  0
  1  2  1  0
  1  3  1  0
  1  4  2  0
  2  5  1  0
  3  6  2  0
  6  7  1  0
  4  8  1  0
  2  9  1  0
  6 10  1  0
  4 11  1  0
  7 12  2  0
  9 13  2  0
 11 14  2  0
 12 15  1  0
 13 16  1  0
 14 17  1  0
 15 18  1  0
 17 19  1  0
 10 20  1  0
 10 21  1  0
 11 22  1  0
 22 23  2  0
 23 24  1  0
 20 25  1  0
 21 26  1  0
 26 27  1  0
  5  8  2  0
  7  9  1  0
 15 16  2  0
 17 24  2  0
 25 27  1  0
M  END
>  <MOLFORMULA>  (99) 
C20 H17 Cl F N5

>  <MOLWEIGHT>  (99) 
3.818403000000000e+002

>  <IDNUMBER>  (99) 
AT-687/PE10271

>  <PRICE>  (99) 
EUR 80/10 mg

>  <Similarity score>  (99) 
0.18

$$$$

     RDKit          2D

 29 33  0  0  0  0  0  0  0  0999 V2000
    5.6125   -6.6333    0.0000 C   0  0  0  0  0  0  0  0  0  0  0  0
    6.3333   -7.0458    0.0000 C   0  0  0  0  0  0  0  0  0  0  0  0
    4.9000   -5.3875    0.0000 C   0  0  0  0  0  0  0  0  0  0  0  0
    4.9000   -7.0458    0.0000 N   0  0  0  0  0  0  0  0  0  0  0  0
    5.6125   -5.8000    0.0000 C   0  0  0  0  0  0  0  0  0  0  0  0
    6.3250   -7.8708    0.0000 C   0  0  0  0  0  0  0  0  0  0  0  0
    4.1875   -5.8083    0.0000 C   0  0  0  0  0  0  0  0  0  0  0  0
    4.8958   -4.5625    0.0000 N   0  0  0  0  0  0  0  0  0  0  0  0
    5.6125   -8.2750    0.0000 N   0  0  0  0  0  0  0  0  0  0  0  0
    4.1875   -6.6333    0.0000 C   0  0  0  0  0  0  0  0  0  0  0  0
    7.0458   -8.2750    0.0000 C   0  0  0  0  0  0  0  0  0  0  0  0
    7.0375   -6.6250    0.0000 C   0  0  0  0  0  0  0  0  0  0  0  0
    4.8958   -2.9125    0.0000 O   0  0  0  0  0  0  0  0  0  0  0  0
    4.1833   -9.1000    0.0000 O   0  0  0  0  0  0  0  0  0  0  0  0
    7.7500   -7.0375    0.0000 C   0  0  0  0  0  0  0  0  0  0  0  0
    7.7583   -7.8625    0.0000 C   0  0  0  0  0  0  0  0  0  0  0  0
    8.4625   -6.6208    0.0000 Cl  0  0  0  0  0  0  0  0  0  0  0  0
    4.1750   -4.1583    0.0000 C   0  0  0  0  0  0  0  0  0  0  0  0
    5.6125   -4.1500    0.0000 C   0  0  0  0  0  0  0  0  0  0  0  0
    5.6125   -9.1125    0.0000 C   0  0  0  0  0  0  0  0  0  0  0  0
    4.9000   -7.8708    0.0000 C   0  0  0  0  0  0  0  0  0  0  0  0
    3.4750   -5.3958    0.0000 C   0  0  0  0  0  0  0  0  0  0  0  0
    3.4750   -7.0458    0.0000 C   0  0  0  0  0  0  0  0  0  0  0  0
    4.1750   -3.3333    0.0000 C   0  0  0  0  0  0  0  0  0  0  0  0
    4.8958   -9.5208    0.0000 C   0  0  0  0  0  0  0  0  0  0  0  0
    5.6083   -3.3250    0.0000 C   0  0  0  0  0  0  0  0  0  0  0  0
    4.1875   -8.2750    0.0000 C   0  0  0  0  0  0  0  0  0  0  0  0
    2.7625   -5.8083    0.0000 C   0  0  0  0  0  0  0  0  0  0  0  0
    2.7625   -6.6333    0.0000 C   0  0  0  0  0  0  0  0  0  0  0  0
  1  2  1  0
  3  5  2  0
  1  4  2  0
  1  5  1  0
  2  6  2  0
  3  7  1  0
  3  8  1  0
  6  9  1  0
  4 10  1  0
  6 11  1  0
  2 12  1  0
 13 26  1  0
 14 27  1  0
 12 15  2  0
 15 16  1  0
 15 17  1  0
  8 18  1  0
  8 19  1  0
  9 20  1  0
  9 21  1  0
  7 22  2  0
 10 23  2  0
 18 24  1  0
 20 25  1  0
 19 26  1  0
 21 27  1  0
 22 28  1  0
 23 29  1  0
  7 10  1  0
 11 16  2  0
 28 29  2  0
 14 25  1  0
 13 24  1  0
M  END
>  <MOLFORMULA>  (100) 
C23 H24 Cl N3 O2

>  <MOLWEIGHT>  (100) 
4.099146000000000e+002

>  <IDNUMBER>  (100) 
AT-225/NB48410

>  <SALTDATA>  (100) 
2 HBr

>  <PRICE>  (100) 
EUR 140/10 mg

>  <Similarity score>  (100) 
0.18

$$$$

     RDKit          2D

 18 21  0  0  0  0  0  0  0  0999 V2000
    3.1042    0.1958    0.0000 C   0  0  0  0  0  0  0  0  0  0  0  0
    1.8042   -0.5542    0.0000 C   0  0  0  0  0  0  0  0  0  0  0  0
    0.5042    0.1958    0.0000 C   0  0  0  0  0  0  0  0  0  0  0  0
    3.1042    1.6958    0.0000 C   0  0  0  0  0  0  0  0  0  0  0  0
   -0.7875   -0.5542    0.0000 C   0  0  0  0  0  0  0  0  0  0  0  0
    5.7042    0.1958    0.0000 N   0  0  0  0  0  0  0  0  0  0  0  0
    4.4042   -0.5542    0.0000 N   0  0  0  0  0  0  0  0  0  0  0  0
   -0.7875   -2.0542    0.0000 C   0  0  0  0  0  0  0  0  0  0  0  0
    1.8042   -2.0542    0.0000 C   0  0  0  0  0  0  0  0  0  0  0  0
    0.5042    1.6958    0.0000 C   0  0  0  0  0  0  0  0  0  0  0  0
   -2.0875    0.1958    0.0000 C   0  0  0  0  0  0  0  0  0  0  0  0
    1.8042    2.4458    0.0000 C   0  0  0  0  0  0  0  0  0  0  0  0
    5.7042    1.6958    0.0000 C   0  0  0  0  0  0  0  0  0  0  0  0
    0.5042   -2.8042    0.0000 C   0  0  0  0  0  0  0  0  0  0  0  0
   -2.0875   -2.8042    0.0000 C   0  0  0  0  0  0  0  0  0  0  0  0
   -3.3875   -2.0542    0.0000 C   0  0  0  0  0  0  0  0  0  0  0  0
   -3.3875   -0.5542    0.0000 C   0  0  0  0  0  0  0  0  0  0  0  0
   -4.6875   -2.8042    0.0000 O   0  0  0  0  0  0  0  0  0  0  0  0
  1  2  1  0
  2  3  2  0
  1  4  2  0
  3  5  1  0
  6  7  1  0
  1  7  1  0
  8 14  1  0
  2  9  1  0
 10 12  1  0
  5 11  1  0
  4 12  1  0
  4 13  1  0
  9 14  2  0
  8 15  1  0
 15 16  2  0
 11 17  2  0
 16 18  1  0
  6 13  2  0
  3 10  1  0
  5  8  2  0
 16 17  1  0
M  END
>  <MOLFORMULA>  (101) 
C15 H12 N2 O

>  <MOLWEIGHT>  (101) 
2.362728000000000e+002

>  <IDNUMBER>  (101) 
AT-225/JK13034

>  <PRICE>  (101) 
EUR 140/10 mg

>  <Similarity score>  (101) 
0.22

$$$$

     RDKit          2D

 31 35  0  0  0  0  0  0  0  0999 V2000
    4.3250   -5.4292    0.0000 C   0  0  0  0  0  0  0  0  0  0  0  0
    5.6292   -5.1667    0.0000 C   0  0  0  0  0  0  0  0  0  0  0  0
    3.2542   -4.6500    0.0000 O   0  0  0  0  0  0  0  0  0  0  0  0
    3.9167   -6.6917    0.0000 C   0  0  0  0  0  0  0  0  0  0  0  0
    6.0500   -3.9000    0.0000 N   0  0  0  0  0  0  0  0  0  0  0  0
    2.6000   -6.7042    0.0000 C   0  0  0  0  0  0  0  0  0  0  0  0
    2.1750   -5.4292    0.0000 C   0  0  0  0  0  0  0  0  0  0  0  0
    7.7667   -2.3500    0.0000 C   0  0  0  0  0  0  0  0  0  0  0  0
    9.0792   -2.0792    0.0000 C   0  0  0  0  0  0  0  0  0  0  0  0
    6.5250   -6.1500    0.0000 N   0  0  0  0  0  0  0  0  0  0  0  0
    7.3667   -3.6167    0.0000 C   0  0  0  0  0  0  0  0  0  0  0  0
    4.8000   -7.6750    0.0000 N   0  0  0  0  0  0  0  0  0  0  0  0
   12.9667   -1.2500    0.0000 C   0  0  0  0  0  0  0  0  0  0  0  0
   11.6542   -1.5250    0.0000 C   0  0  0  0  0  0  0  0  0  0  0  0
    9.4792   -0.8042    0.0000 N   0  0  0  0  0  0  0  0  0  0  0  0
   13.8417   -2.2417    0.0000 C   0  0  0  0  0  0  0  0  0  0  0  0
    6.1000   -7.4250    0.0000 C   0  0  0  0  0  0  0  0  0  0  0  0
   10.7917   -0.5417    0.0000 C   0  0  0  0  0  0  0  0  0  0  0  0
    9.9750   -3.0750    0.0000 O   0  0  0  0  0  0  0  0  0  0  0  0
   11.2500   -2.7750    0.0000 C   0  0  0  0  0  0  0  0  0  0  0  0
   13.4250   -3.5000    0.0000 C   0  0  0  0  0  0  0  0  0  0  0  0
   13.3667   -0.0000    0.0000 F   0  0  0  0  0  0  0  0  0  0  0  0
    5.1667   -2.9167    0.0000 C   0  0  0  0  0  0  0  0  0  0  0  0
   12.1292   -3.7917    0.0000 C   0  0  0  0  0  0  0  0  0  0  0  0
   14.3042   -4.5000    0.0000 F   0  0  0  0  0  0  0  0  0  0  0  0
    6.8750   -1.3500    0.0000 C   0  0  0  0  0  0  0  0  0  0  0  0
    1.7000   -7.6750    0.0000 C   0  0  0  0  0  0  0  0  0  0  0  0
    0.8792   -5.1667    0.0000 C   0  0  0  0  0  0  0  0  0  0  0  0
    5.5750   -1.6417    0.0000 C   0  0  0  0  0  0  0  0  0  0  0  0
    0.4000   -7.4042    0.0000 C   0  0  0  0  0  0  0  0  0  0  0  0
    0.0000   -6.1500    0.0000 C   0  0  0  0  0  0  0  0  0  0  0  0
  1  2  2  0
  1  3  1  0
  1  4  1  0
  2  5  1  0
  4  6  1  0
  3  7  1  0
  8 11  1  0
  8  9  1  0
  2 10  1  0
  5 11  1  0
  4 12  2  0
 13 14  2  0
 14 18  1  0
  9 15  1  0
 13 16  1  0
 12 17  1  0
 15 18  1  0
  9 19  2  0
 14 20  1  0
 21 24  1  0
 13 22  1  0
  5 23  1  0
 20 24  2  0
 21 25  1  0
 26 29  1  0
  6 27  1  0
  7 28  1  0
 23 29  1  0
 27 30  2  0
 28 31  2  0
  6  7  2  0
 10 17  2  0
 30 31  1  0
  8 26  1  0
 16 21  2  0
M  END
>  <MOLFORMULA>  (102) 
C23 H20 F2 N4 O2

>  <MOLWEIGHT>  (102) 
4.224330000000000e+002

>  <IDNUMBER>  (102) 
AT-687/PE16777

>  <PRICE>  (102) 
EUR 80/10 mg

>  <Similarity score>  (102) 
0.22

$$$$

     RDKit          2D

 30 34  0  0  0  0  0  0  0  0999 V2000
    2.5917   -1.4792    0.0000 C   0  0  0  0  0  0  0  0  0  0  0  0
    3.2417   -1.1042    0.0000 C   0  0  0  0  0  0  0  0  0  0  0  0
    2.5917   -2.2292    0.0000 C   0  0  0  0  0  0  0  0  0  0  0  0
    0.6542   -2.6083    0.0000 C   0  0  0  0  0  0  0  0  0  0  0  0
    3.2417   -0.3542    0.0000 N   0  0  0  0  0  0  0  0  0  0  0  0
    1.9417   -2.6042    0.0000 O   0  0  0  0  0  0  0  0  0  0  0  0
    1.3042   -2.2292    0.0000 C   0  0  0  0  0  0  0  0  0  0  0  0
    1.9417   -1.1042    0.0000 C   0  0  0  0  0  0  0  0  0  0  0  0
    3.8917   -1.4792    0.0000 N   0  0  0  0  0  0  0  0  0  0  0  0
    0.6542   -3.3583    0.0000 C   0  0  0  0  0  0  0  0  0  0  0  0
    0.0042   -3.7333    0.0000 N   0  0  0  0  0  0  0  0  0  0  0  0
    1.3042   -1.4792    0.0000 C   0  0  0  0  0  0  0  0  0  0  0  0
    4.5417   -0.3542    0.0000 C   0  0  0  0  0  0  0  0  0  0  0  0
    4.5417   -1.1042    0.0000 C   0  0  0  0  0  0  0  0  0  0  0  0
    0.0042   -2.2292    0.0000 C   0  0  0  0  0  0  0  0  0  0  0  0
    3.2375   -2.6083    0.0000 O   0  0  0  0  0  0  0  0  0  0  0  0
    0.6542   -1.1083    0.0000 C   0  0  0  0  0  0  0  0  0  0  0  0
    0.0042   -4.4833    0.0000 C   0  0  0  0  0  0  0  0  0  0  0  0
    0.0042   -1.4792    0.0000 C   0  0  0  0  0  0  0  0  0  0  0  0
   -0.6458   -2.6042    0.0000 O   0  0  0  0  0  0  0  0  0  0  0  0
   -0.6458   -3.3583    0.0000 C   0  0  0  0  0  0  0  0  0  0  0  0
    5.1917    0.0208    0.0000 C   0  0  0  0  0  0  0  0  0  0  0  0
    5.1917   -1.4792    0.0000 C   0  0  0  0  0  0  0  0  0  0  0  0
    0.6542   -4.8583    0.0000 C   0  0  0  0  0  0  0  0  0  0  0  0
   -0.6458   -4.8583    0.0000 C   0  0  0  0  0  0  0  0  0  0  0  0
   -1.2958   -3.7333    0.0000 C   0  0  0  0  0  0  0  0  0  0  0  0
    1.3042   -4.4833    0.0000 C   0  0  0  0  0  0  0  0  0  0  0  0
    5.8417   -1.1042    0.0000 C   0  0  0  0  0  0  0  0  0  0  0  0
    5.8417   -0.3542    0.0000 C   0  0  0  0  0  0  0  0  0  0  0  0
   -1.2958   -4.4833    0.0000 C   0  0  0  0  0  0  0  0  0  0  0  0
  1  2  1  0
  1  3  1  0
  4  7  1  0
  2  5  2  0
  3  6  1  0
  7 12  2  0
  1  8  2  0
  2  9  1  0
  4 10  1  0
 10 11  1  0
  8 12  1  0
  5 13  1  0
  9 14  1  0
 15 19  1  0
  3 16  2  0
 12 17  1  0
 11 18  1  0
 17 19  2  0
 15 20  1  0
 11 21  1  0
 13 22  1  0
 14 23  1  0
 18 24  1  0
 18 25  1  0
 21 26  1  0
 24 27  1  0
 23 28  2  0
 22 29  2  0
 26 30  1  0
  6  7  1  0
 13 14  2  0
  4 15  2  0
 28 29  1  0
 25 30  1  0
M  END
>  <MOLFORMULA>  (103) 
C24 H25 N3 O3

>  <MOLWEIGHT>  (103) 
4.034795000000000e+002

>  <IDNUMBER>  (103) 
AT-225/NB52971

>  <PRICE>  (103) 
EUR 140/10 mg

>  <Similarity score>  (103) 
0.21

$$$$

     RDKit          2D

 34 38  0  0  0  0  0  0  0  0999 V2000
   -3.3208    2.1875    0.0000 C   0  0  0  0  0  0  0  0  0  0  0  0
   -3.3125    1.3583    0.0000 C   0  0  0  0  0  0  0  0  0  0  0  0
   -1.8833    2.1875    0.0000 C   0  0  0  0  0  0  0  0  0  0  0  0
   -2.6083    2.6083    0.0000 N   0  0  0  0  0  0  0  0  0  0  0  0
   -1.8833    1.3583    0.0000 N   0  0  0  0  0  0  0  0  0  0  0  0
   -2.6000    0.9458    0.0000 C   0  0  0  0  0  0  0  0  0  0  0  0
   -4.1000    2.4333    0.0000 C   0  0  0  0  0  0  0  0  0  0  0  0
   -4.0958    1.1000    0.0000 S   0  0  0  0  0  0  0  0  0  0  0  0
   -1.1708    2.6000    0.0000 N   0  0  0  0  0  0  0  0  0  0  0  0
   -4.5833    1.7708    0.0000 C   0  0  0  0  0  0  0  0  0  0  0  0
    0.2542    2.5958    0.0000 C   0  0  0  0  0  0  0  0  0  0  0  0
    0.9750    2.1750    0.0000 C   0  0  0  0  0  0  0  0  0  0  0  0
   -0.4583    2.1833    0.0000 C   0  0  0  0  0  0  0  0  0  0  0  0
    3.1042    0.9333    0.0000 C   0  0  0  0  0  0  0  0  0  0  0  0
    2.4000    1.3583    0.0000 C   0  0  0  0  0  0  0  0  0  0  0  0
    1.6917    2.5875    0.0000 N   0  0  0  0  0  0  0  0  0  0  0  0
    3.1042    0.1208    0.0000 C   0  0  0  0  0  0  0  0  0  0  0  0
   -4.3625    3.2208    0.0000 C   0  0  0  0  0  0  0  0  0  0  0  0
   -2.6000    0.1208    0.0000 O   0  0  0  0  0  0  0  0  0  0  0  0
    2.4042    2.1708    0.0000 C   0  0  0  0  0  0  0  0  0  0  0  0
    0.9667    1.3500    0.0000 O   0  0  0  0  0  0  0  0  0  0  0  0
    1.6792    0.9583    0.0000 C   0  0  0  0  0  0  0  0  0  0  0  0
    2.3792   -0.2917    0.0000 C   0  0  0  0  0  0  0  0  0  0  0  0
    3.8292    1.3458    0.0000 F   0  0  0  0  0  0  0  0  0  0  0  0
   -1.1708    3.4208    0.0000 C   0  0  0  0  0  0  0  0  0  0  0  0
    1.6667    0.1208    0.0000 C   0  0  0  0  0  0  0  0  0  0  0  0
    2.3750   -1.1167    0.0000 F   0  0  0  0  0  0  0  0  0  0  0  0
    0.2625    3.4208    0.0000 C   0  0  0  0  0  0  0  0  0  0  0  0
   -0.4583    3.8333    0.0000 C   0  0  0  0  0  0  0  0  0  0  0  0
   -3.8083    3.8375    0.0000 C   0  0  0  0  0  0  0  0  0  0  0  0
   -5.1708    3.3958    0.0000 C   0  0  0  0  0  0  0  0  0  0  0  0
   -4.0708    4.6167    0.0000 C   0  0  0  0  0  0  0  0  0  0  0  0
   -5.4333    4.1667    0.0000 C   0  0  0  0  0  0  0  0  0  0  0  0
   -4.8750    4.7792    0.0000 C   0  0  0  0  0  0  0  0  0  0  0  0
  1  2  2  0
  3  4  2  0
  1  4  1  0
  3  5  1  0
  2  6  1  0
  1  7  1  0
  2  8  1  0
  3  9  1  0
  7 10  2  0
 11 13  1  0
 11 12  1  0
  9 13  1  0
 14 15  2  0
 15 20  1  0
 12 16  1  0
 14 17  1  0
  7 18  1  0
  6 19  2  0
 16 20  1  0
 12 21  2  0
 15 22  1  0
 23 26  1  0
 14 24  1  0
  9 25  1  0
 22 26  2  0
 23 27  1  0
 28 29  1  0
 25 29  1  0
 18 30  1  0
 18 31  2  0
 30 32  2  0
 31 33  1  0
 33 34  2  0
  8 10  1  0
  5  6  1  0
 32 34  1  0
 11 28  1  0
 17 23  2  0
M  END
>  <MOLFORMULA>  (104) 
C25 H22 F2 N4 O2 S

>  <MOLWEIGHT>  (104) 
4.805368000000000e+002

>  <IDNUMBER>  (104) 
AT-687/PE25945

>  <PRICE>  (104) 
EUR 80/10 mg

>  <Similarity score>  (104) 
0.21

$$$$

     RDKit          2D

 35 39  0  0  0  0  0  0  0  0999 V2000
    7.9792   -5.7667    0.0000 S   0  0  0  0  0  0  0  0  0  0  0  0
    6.6375   -5.7667    0.0000 C   0  0  0  0  0  0  0  0  0  0  0  0
    5.9792   -4.6042    0.0000 C   0  0  0  0  0  0  0  0  0  0  0  0
    4.6542   -4.6042    0.0000 C   0  0  0  0  0  0  0  0  0  0  0  0
    6.6375   -3.4542    0.0000 N   0  0  0  0  0  0  0  0  0  0  0  0
    4.6542   -6.9125    0.0000 N   0  0  0  0  0  0  0  0  0  0  0  0
    3.9667   -5.7667    0.0000 C   0  0  0  0  0  0  0  0  0  0  0  0
    9.3042   -5.7667    0.0000 C   0  0  0  0  0  0  0  0  0  0  0  0
    5.9792   -6.9125    0.0000 C   0  0  0  0  0  0  0  0  0  0  0  0
    7.9792   -4.4375    0.0000 O   0  0  0  0  0  0  0  0  0  0  0  0
    7.9792   -7.0917    0.0000 O   0  0  0  0  0  0  0  0  0  0  0  0
    9.9542   -4.6042    0.0000 C   0  0  0  0  0  0  0  0  0  0  0  0
    2.6542   -1.1542    0.0000 N   0  0  0  0  0  0  0  0  0  0  0  0
    5.9792   -2.3042    0.0000 C   0  0  0  0  0  0  0  0  0  0  0  0
    4.6542   -2.3042    0.0000 C   0  0  0  0  0  0  0  0  0  0  0  0
    2.6542   -5.7667    0.0000 C   0  0  0  0  0  0  0  0  0  0  0  0
    3.9667   -1.1542    0.0000 C   0  0  0  0  0  0  0  0  0  0  0  0
    0.0000   -1.1542    0.0000 O   0  0  0  0  0  0  0  0  0  0  0  0
   11.2917   -4.6042    0.0000 C   0  0  0  0  0  0  0  0  0  0  0  0
    3.9667   -3.4542    0.0000 C   0  0  0  0  0  0  0  0  0  0  0  0
    7.9792   -3.4542    0.0000 C   0  0  0  0  0  0  0  0  0  0  0  0
    1.9917   -6.9125    0.0000 F   0  0  0  0  0  0  0  0  0  0  0  0
   11.9625   -3.4542    0.0000 F   0  0  0  0  0  0  0  0  0  0  0  0
    9.9542   -6.9125    0.0000 C   0  0  0  0  0  0  0  0  0  0  0  0
    1.9917   -2.3042    0.0000 C   0  0  0  0  0  0  0  0  0  0  0  0
    1.9917   -0.0000    0.0000 C   0  0  0  0  0  0  0  0  0  0  0  0
    2.6542   -3.4542    0.0000 C   0  0  0  0  0  0  0  0  0  0  0  0
   11.2917   -6.9125    0.0000 C   0  0  0  0  0  0  0  0  0  0  0  0
    1.9917   -4.6042    0.0000 C   0  0  0  0  0  0  0  0  0  0  0  0
    0.6542   -2.3042    0.0000 C   0  0  0  0  0  0  0  0  0  0  0  0
    0.6542   -0.0000    0.0000 C   0  0  0  0  0  0  0  0  0  0  0  0
    6.6375   -1.1542    0.0000 C   0  0  0  0  0  0  0  0  0  0  0  0
   11.9625   -5.7667    0.0000 C   0  0  0  0  0  0  0  0  0  0  0  0
    8.6375   -2.3042    0.0000 C   0  0  0  0  0  0  0  0  0  0  0  0
    7.9792   -1.1542    0.0000 C   0  0  0  0  0  0  0  0  0  0  0  0
  1  2  1  0
  2  3  2  0
  3  4  1  0
  3  5  1  0
  6  9  2  0
  6  7  1  0
  1  8  1  0
  2  9  1  0
  1 10  2  0
  1 11  2  0
  8 12  1  0
 13 17  1  0
  5 14  1  0
 14 15  1  0
  7 16  2  0
 15 17  1  0
 18 31  1  0
 12 19  2  0
  4 20  2  0
  5 21  1  0
 16 22  1  0
 19 23  1  0
  8 24  2  0
 13 25  1  0
 13 26  1  0
 20 27  1  0
 24 28  1  0
 16 29  1  0
 25 30  1  0
 26 31  1  0
 14 32  1  0
 28 33  2  0
 21 34  1  0
 34 35  1  0
 19 33  1  0
  4  7  1  0
 27 29  2  0
 32 35  1  0
 18 30  1  0
M  END
>  <MOLFORMULA>  (105) 
C26 H29 F2 N3 O3 S

>  <MOLWEIGHT>  (105) 
5.015951000000000e+002

>  <IDNUMBER>  (105) 
AT-687/NB06794

>  <PRICE>  (105) 
EUR 80/10 mg

>  <Similarity score>  (105) 
0.21

$$$$

     RDKit          2D

 35 39  0  0  0  0  0  0  0  0999 V2000
   -3.3208    2.1875    0.0000 C   0  0  0  0  0  0  0  0  0  0  0  0
   -3.3125    1.3583    0.0000 C   0  0  0  0  0  0  0  0  0  0  0  0
   -1.8833    2.1875    0.0000 C   0  0  0  0  0  0  0  0  0  0  0  0
   -2.6083    2.6083    0.0000 N   0  0  0  0  0  0  0  0  0  0  0  0
   -1.8833    1.3583    0.0000 N   0  0  0  0  0  0  0  0  0  0  0  0
   -2.6000    0.9458    0.0000 C   0  0  0  0  0  0  0  0  0  0  0  0
   -4.1000    2.4333    0.0000 C   0  0  0  0  0  0  0  0  0  0  0  0
   -4.0958    1.1000    0.0000 S   0  0  0  0  0  0  0  0  0  0  0  0
   -1.1708    2.6000    0.0000 N   0  0  0  0  0  0  0  0  0  0  0  0
   -4.5833    1.7708    0.0000 C   0  0  0  0  0  0  0  0  0  0  0  0
    0.2542    2.5958    0.0000 C   0  0  0  0  0  0  0  0  0  0  0  0
    0.9750    2.1750    0.0000 C   0  0  0  0  0  0  0  0  0  0  0  0
   -0.4583    2.1833    0.0000 C   0  0  0  0  0  0  0  0  0  0  0  0
    3.1042    0.9333    0.0000 C   0  0  0  0  0  0  0  0  0  0  0  0
   -4.3625    3.2208    0.0000 C   0  0  0  0  0  0  0  0  0  0  0  0
    2.4000    1.3583    0.0000 C   0  0  0  0  0  0  0  0  0  0  0  0
    1.6917    2.5875    0.0000 N   0  0  0  0  0  0  0  0  0  0  0  0
    3.1042    0.1208    0.0000 C   0  0  0  0  0  0  0  0  0  0  0  0
   -2.6000    0.1208    0.0000 O   0  0  0  0  0  0  0  0  0  0  0  0
    2.4042    2.1708    0.0000 C   0  0  0  0  0  0  0  0  0  0  0  0
    0.9667    1.3500    0.0000 O   0  0  0  0  0  0  0  0  0  0  0  0
    1.6792    0.9583    0.0000 C   0  0  0  0  0  0  0  0  0  0  0  0
   -3.8083    3.8375    0.0000 C   0  0  0  0  0  0  0  0  0  0  0  0
   -5.1708    3.3958    0.0000 C   0  0  0  0  0  0  0  0  0  0  0  0
    2.3792   -0.2917    0.0000 C   0  0  0  0  0  0  0  0  0  0  0  0
    3.8292    1.3458    0.0000 F   0  0  0  0  0  0  0  0  0  0  0  0
   -1.1708    3.4208    0.0000 C   0  0  0  0  0  0  0  0  0  0  0  0
    1.6667    0.1208    0.0000 C   0  0  0  0  0  0  0  0  0  0  0  0
   -5.4333    4.1667    0.0000 C   0  0  0  0  0  0  0  0  0  0  0  0
   -4.0708    4.6167    0.0000 C   0  0  0  0  0  0  0  0  0  0  0  0
    2.3750   -1.1167    0.0000 F   0  0  0  0  0  0  0  0  0  0  0  0
   -4.8750    4.7792    0.0000 C   0  0  0  0  0  0  0  0  0  0  0  0
    0.2625    3.4208    0.0000 C   0  0  0  0  0  0  0  0  0  0  0  0
   -0.4583    3.8333    0.0000 C   0  0  0  0  0  0  0  0  0  0  0  0
   -5.1333    5.5667    0.0000 C   0  0  0  0  0  0  0  0  0  0  0  0
  1  2  2  0
  3  4  2  0
  1  4  1  0
  3  5  1  0
  2  6  1  0
  1  7  1  0
  2  8  1  0
  3  9  1  0
  7 10  2  0
 11 13  1  0
 11 12  1  0
  9 13  1  0
 14 16  2  0
  7 15  1  0
 16 20  1  0
 12 17  1  0
 14 18  1  0
  6 19  2  0
 17 20  1  0
 12 21  2  0
 16 22  1  0
 15 23  1  0
 15 24  2  0
 25 28  1  0
 14 26  1  0
  9 27  1  0
 22 28  2  0
 24 29  1  0
 23 30  2  0
 25 31  1  0
 29 32  2  0
 33 34  1  0
 27 34  1  0
 32 35  1  0
  8 10  1  0
  5  6  1  0
 30 32  1  0
 11 33  1  0
 18 25  2  0
M  END
>  <MOLFORMULA>  (106) 
C26 H24 F2 N4 O2 S

>  <MOLWEIGHT>  (106) 
4.945636000000000e+002

>  <IDNUMBER>  (106) 
AT-687/PE25985

>  <PRICE>  (106) 
EUR 80/10 mg

>  <Similarity score>  (106) 
0.21

$$$$

     RDKit          2D

 35 39  0  0  0  0  0  0  0  0999 V2000
    6.6292   -5.7542    0.0000 C   0  0  0  0  0  0  0  0  0  0  0  0
    5.3042   -5.7542    0.0000 S   0  0  0  0  0  0  0  0  0  0  0  0
    7.2917   -4.6042    0.0000 C   0  0  0  0  0  0  0  0  0  0  0  0
    8.6250   -4.6042    0.0000 C   0  0  0  0  0  0  0  0  0  0  0  0
    6.6292   -3.4500    0.0000 N   0  0  0  0  0  0  0  0  0  0  0  0
    8.6250   -6.9125    0.0000 N   0  0  0  0  0  0  0  0  0  0  0  0
    9.2875   -5.7542    0.0000 C   0  0  0  0  0  0  0  0  0  0  0  0
    7.2917   -6.9125    0.0000 C   0  0  0  0  0  0  0  0  0  0  0  0
    3.9792   -5.7542    0.0000 C   0  0  0  0  0  0  0  0  0  0  0  0
    5.3042   -4.4292    0.0000 O   0  0  0  0  0  0  0  0  0  0  0  0
    5.3042   -7.0792    0.0000 O   0  0  0  0  0  0  0  0  0  0  0  0
   10.6292   -1.1542    0.0000 N   0  0  0  0  0  0  0  0  0  0  0  0
    7.2917   -2.3042    0.0000 C   0  0  0  0  0  0  0  0  0  0  0  0
    8.6250   -2.3042    0.0000 C   0  0  0  0  0  0  0  0  0  0  0  0
   10.6292   -5.7542    0.0000 C   0  0  0  0  0  0  0  0  0  0  0  0
    9.2875   -1.1542    0.0000 C   0  0  0  0  0  0  0  0  0  0  0  0
   13.2667   -1.1542    0.0000 O   0  0  0  0  0  0  0  0  0  0  0  0
    3.3167   -6.9125    0.0000 C   0  0  0  0  0  0  0  0  0  0  0  0
    3.3167   -4.6042    0.0000 C   0  0  0  0  0  0  0  0  0  0  0  0
    9.2875   -3.4500    0.0000 C   0  0  0  0  0  0  0  0  0  0  0  0
    5.3042   -3.4500    0.0000 C   0  0  0  0  0  0  0  0  0  0  0  0
    1.3125   -5.7542    0.0000 C   0  0  0  0  0  0  0  0  0  0  0  0
   11.2917   -6.9125    0.0000 F   0  0  0  0  0  0  0  0  0  0  0  0
    1.9750   -4.6042    0.0000 C   0  0  0  0  0  0  0  0  0  0  0  0
    1.9750   -6.9125    0.0000 C   0  0  0  0  0  0  0  0  0  0  0  0
    0.0000   -5.7542    0.0000 F   0  0  0  0  0  0  0  0  0  0  0  0
   11.2917   -2.3042    0.0000 C   0  0  0  0  0  0  0  0  0  0  0  0
   11.2917   -0.0000    0.0000 C   0  0  0  0  0  0  0  0  0  0  0  0
   10.6292   -3.4500    0.0000 C   0  0  0  0  0  0  0  0  0  0  0  0
   11.2917   -4.6042    0.0000 C   0  0  0  0  0  0  0  0  0  0  0  0
   12.6042   -0.0000    0.0000 C   0  0  0  0  0  0  0  0  0  0  0  0
   12.6042   -2.3042    0.0000 C   0  0  0  0  0  0  0  0  0  0  0  0
    6.6292   -1.1542    0.0000 C   0  0  0  0  0  0  0  0  0  0  0  0
    4.6292   -2.3042    0.0000 C   0  0  0  0  0  0  0  0  0  0  0  0
    5.3042   -1.1542    0.0000 C   0  0  0  0  0  0  0  0  0  0  0  0
  1  2  1  0
  1  3  2  0
  3  4  1  0
  3  5  1  0
  6  8  2  0
  6  7  1  0
  1  8  1  0
  2  9  1  0
  2 10  2  0
  2 11  2  0
 12 16  1  0
  5 13  1  0
 13 14  1  0
  7 15  2  0
 14 16  1  0
 17 31  1  0
  9 18  2  0
  9 19  1  0
  4 20  2  0
  5 21  1  0
 22 24  1  0
 15 23  1  0
 19 24  2  0
 18 25  1  0
 22 26  1  0
 12 27  1  0
 12 28  1  0
 20 29  1  0
 15 30  1  0
 28 31  1  0
 27 32  1  0
 13 33  1  0
 21 34  1  0
 34 35  1  0
  4  7  1  0
 22 25  2  0
 29 30  2  0
 33 35  1  0
 17 32  1  0
M  END
>  <MOLFORMULA>  (107) 
C26 H29 F2 N3 O3 S

>  <MOLWEIGHT>  (107) 
5.015951000000000e+002

>  <IDNUMBER>  (107) 
AT-687/NB06793

>  <PRICE>  (107) 
EUR 80/10 mg

>  <Similarity score>  (107) 
0.21

$$$$

     RDKit          2D

 30 34  0  0  0  0  0  0  0  0999 V2000
    0.4917   -0.9458    0.0000 C   0  0  0  0  0  0  0  0  0  0  0  0
   -0.4958   -0.8750    0.0000 N   0  0  0  0  0  0  0  0  0  0  0  0
   -0.0125    2.8750    0.0000 C   0  0  0  0  0  0  0  0  0  0  0  0
    1.0458   -0.1292    0.0000 N   0  0  0  0  0  0  0  0  0  0  0  0
   -0.3667    0.8333    0.0000 C   0  0  0  0  0  0  0  0  0  0  0  0
    0.6167    0.7583    0.0000 C   0  0  0  0  0  0  0  0  0  0  0  0
   -0.9250    0.0125    0.0000 C   0  0  0  0  0  0  0  0  0  0  0  0
    0.9708    2.8042    0.0000 C   0  0  0  0  0  0  0  0  0  0  0  0
   -0.4417    3.7667    0.0000 C   0  0  0  0  0  0  0  0  0  0  0  0
   -0.8000    1.7208    0.0000 C   0  0  0  0  0  0  0  0  0  0  0  0
    0.9208   -1.8375    0.0000 N   0  0  0  0  0  0  0  0  0  0  0  0
    0.1125    4.5792    0.0000 C   0  0  0  0  0  0  0  0  0  0  0  0
    1.5292    3.6208    0.0000 O   0  0  0  0  0  0  0  0  0  0  0  0
    1.1000    4.5042    0.0000 C   0  0  0  0  0  0  0  0  0  0  0  0
    0.3667   -2.6542    0.0000 C   0  0  0  0  0  0  0  0  0  0  0  0
   -1.9083    0.0875    0.0000 N   0  0  0  0  0  0  0  0  0  0  0  0
    0.7958   -3.5458    0.0000 C   0  0  0  0  0  0  0  0  0  0  0  0
    1.1708    1.5750    0.0000 O   0  0  0  0  0  0  0  0  0  0  0  0
    1.4042    1.9125    0.0000 O   0  0  0  0  0  0  0  0  0  0  0  0
    1.9042   -1.9083    0.0000 C   0  0  0  0  0  0  0  0  0  0  0  0
    1.7792   -3.6167    0.0000 C   0  0  0  0  0  0  0  0  0  0  0  0
   -1.4292    3.8375    0.0000 O   0  0  0  0  0  0  0  0  0  0  0  0
    2.3333   -2.8000    0.0000 C   0  0  0  0  0  0  0  0  0  0  0  0
   -1.7833    1.7958    0.0000 C   0  0  0  0  0  0  0  0  0  0  0  0
   -2.3375    0.9750    0.0000 C   0  0  0  0  0  0  0  0  0  0  0  0
    1.6542    5.3250    0.0000 C   0  0  0  0  0  0  0  0  0  0  0  0
    0.2375   -4.3625    0.0000 C   0  0  0  0  0  0  0  0  0  0  0  0
    2.2083   -4.5083    0.0000 C   0  0  0  0  0  0  0  0  0  0  0  0
    0.6667   -5.2500    0.0000 C   0  0  0  0  0  0  0  0  0  0  0  0
    1.6542   -5.3250    0.0000 C   0  0  0  0  0  0  0  0  0  0  0  0
  1  2  2  0
  3 10  1  0
  1  4  1  0
  5  6  1  0
  4  6  1  0
  2  7  1  0
  3  8  1  0
  3  9  2  0
  5 10  1  0
  1 11  1  0
  9 12  1  0
  8 13  1  0
 12 14  2  0
 11 15  1  0
  7 16  1  0
 15 17  1  0
  6 18  2  0
  8 19  2  0
 11 20  1  0
 21 23  1  0
  9 22  1  0
 20 23  1  0
 10 24  2  0
 16 25  2  0
 14 26  1  0
 17 27  1  0
 21 28  1  0
 27 29  2  0
 28 30  2  0
  5  7  2  0
 17 21  2  0
 24 25  1  0
 29 30  1  0
 13 14  1  0
M  END
>  <MOLFORMULA>  (108) 
C22 H18 N4 O4

>  <MOLWEIGHT>  (108) 
4.024082000000000e+002

>  <IDNUMBER>  (108) 
AN-153/NB20268

>  <PRICE>  (108) 
EUR 130/10 mg

>  <Similarity score>  (108) 
0.21

$$$$

     RDKit          2D

 34 38  0  0  0  0  0  0  0  0999 V2000
   -3.3208    2.1875    0.0000 C   0  0  0  0  0  0  0  0  0  0  0  0
   -3.3125    1.3583    0.0000 C   0  0  0  0  0  0  0  0  0  0  0  0
   -1.8833    2.1875    0.0000 C   0  0  0  0  0  0  0  0  0  0  0  0
   -2.6083    2.6083    0.0000 N   0  0  0  0  0  0  0  0  0  0  0  0
   -1.8833    1.3583    0.0000 N   0  0  0  0  0  0  0  0  0  0  0  0
   -2.6000    0.9458    0.0000 C   0  0  0  0  0  0  0  0  0  0  0  0
   -4.1000    2.4333    0.0000 C   0  0  0  0  0  0  0  0  0  0  0  0
   -4.0958    1.1000    0.0000 S   0  0  0  0  0  0  0  0  0  0  0  0
   -1.1708    2.6000    0.0000 N   0  0  0  0  0  0  0  0  0  0  0  0
   -4.5833    1.7708    0.0000 C   0  0  0  0  0  0  0  0  0  0  0  0
    0.2542    2.5958    0.0000 C   0  0  0  0  0  0  0  0  0  0  0  0
    0.9750    2.1750    0.0000 C   0  0  0  0  0  0  0  0  0  0  0  0
   -0.4583    2.1833    0.0000 C   0  0  0  0  0  0  0  0  0  0  0  0
   -4.3625    3.2208    0.0000 C   0  0  0  0  0  0  0  0  0  0  0  0
    1.6917    2.5875    0.0000 N   0  0  0  0  0  0  0  0  0  0  0  0
    2.4000    1.3583    0.0000 C   0  0  0  0  0  0  0  0  0  0  0  0
   -2.6000    0.1208    0.0000 O   0  0  0  0  0  0  0  0  0  0  0  0
    2.4042    2.1708    0.0000 C   0  0  0  0  0  0  0  0  0  0  0  0
    0.9667    1.3500    0.0000 O   0  0  0  0  0  0  0  0  0  0  0  0
    3.1042    0.9333    0.0000 C   0  0  0  0  0  0  0  0  0  0  0  0
   -3.8083    3.8375    0.0000 C   0  0  0  0  0  0  0  0  0  0  0  0
   -5.1708    3.3958    0.0000 C   0  0  0  0  0  0  0  0  0  0  0  0
   -1.1708    3.4208    0.0000 C   0  0  0  0  0  0  0  0  0  0  0  0
    3.8292    1.3458    0.0000 F   0  0  0  0  0  0  0  0  0  0  0  0
   -5.4333    4.1667    0.0000 C   0  0  0  0  0  0  0  0  0  0  0  0
   -4.0708    4.6167    0.0000 C   0  0  0  0  0  0  0  0  0  0  0  0
   -4.8750    4.7792    0.0000 C   0  0  0  0  0  0  0  0  0  0  0  0
    0.2625    3.4208    0.0000 C   0  0  0  0  0  0  0  0  0  0  0  0
   -0.4583    3.8333    0.0000 C   0  0  0  0  0  0  0  0  0  0  0  0
    1.6792    0.9583    0.0000 C   0  0  0  0  0  0  0  0  0  0  0  0
    3.1042    0.1125    0.0000 C   0  0  0  0  0  0  0  0  0  0  0  0
   -5.1333    5.5667    0.0000 C   0  0  0  0  0  0  0  0  0  0  0  0
    1.6667    0.1208    0.0000 C   0  0  0  0  0  0  0  0  0  0  0  0
    2.3917   -0.3000    0.0000 C   0  0  0  0  0  0  0  0  0  0  0  0
  1  2  2  0
  3  4  2  0
  1  4  1  0
  3  5  1  0
  2  6  1  0
  1  7  1  0
  2  8  1  0
  3  9  1  0
  7 10  2  0
 11 13  1  0
 11 12  1  0
  9 13  1  0
  7 14  1  0
 12 15  1  0
 16 18  1  0
  6 17  2  0
 15 18  1  0
 12 19  2  0
 16 20  2  0
 14 21  1  0
 14 22  2  0
  9 23  1  0
 20 24  1  0
 22 25  1  0
 21 26  2  0
 25 27  2  0
 28 29  1  0
 23 29  1  0
 16 30  1  0
 20 31  1  0
 27 32  1  0
 30 33  2  0
 33 34  1  0
  8 10  1  0
  5  6  1  0
 26 27  1  0
 11 28  1  0
 31 34  2  0
M  END
>  <MOLFORMULA>  (109) 
C26 H25 F N4 O2 S

>  <MOLWEIGHT>  (109) 
4.765735000000000e+002

>  <IDNUMBER>  (109) 
AT-687/PE25983

>  <PRICE>  (109) 
EUR 80/10 mg

>  <Similarity score>  (109) 
0.21

$$$$

     RDKit          2D

 33 37  0  0  0  0  0  0  0  0999 V2000
    4.3417   -5.6750    0.0000 C   0  0  0  0  0  0  0  0  0  0  0  0
    5.6417   -5.4000    0.0000 C   0  0  0  0  0  0  0  0  0  0  0  0
    3.2500   -4.9000    0.0000 O   0  0  0  0  0  0  0  0  0  0  0  0
    3.9167   -6.9417    0.0000 C   0  0  0  0  0  0  0  0  0  0  0  0
    6.0667   -4.1417    0.0000 N   0  0  0  0  0  0  0  0  0  0  0  0
    2.6000   -6.9542    0.0000 C   0  0  0  0  0  0  0  0  0  0  0  0
    2.1792   -5.6750    0.0000 C   0  0  0  0  0  0  0  0  0  0  0  0
    7.7750   -2.6042    0.0000 C   0  0  0  0  0  0  0  0  0  0  0  0
    9.0917   -2.3250    0.0000 C   0  0  0  0  0  0  0  0  0  0  0  0
    6.5167   -6.3792    0.0000 N   0  0  0  0  0  0  0  0  0  0  0  0
    7.3750   -3.8750    0.0000 C   0  0  0  0  0  0  0  0  0  0  0  0
   11.6542   -1.7417    0.0000 C   0  0  0  0  0  0  0  0  0  0  0  0
    4.8000   -7.9250    0.0000 N   0  0  0  0  0  0  0  0  0  0  0  0
    9.4917   -1.0500    0.0000 N   0  0  0  0  0  0  0  0  0  0  0  0
    6.1000   -7.6667    0.0000 C   0  0  0  0  0  0  0  0  0  0  0  0
   10.7917   -0.7917    0.0000 C   0  0  0  0  0  0  0  0  0  0  0  0
   12.9667   -1.5042    0.0000 C   0  0  0  0  0  0  0  0  0  0  0  0
   11.2292   -3.0250    0.0000 C   0  0  0  0  0  0  0  0  0  0  0  0
    9.9750   -3.3167    0.0000 O   0  0  0  0  0  0  0  0  0  0  0  0
   13.8292   -2.4917    0.0000 C   0  0  0  0  0  0  0  0  0  0  0  0
   12.1167   -4.0000    0.0000 C   0  0  0  0  0  0  0  0  0  0  0  0
    5.1667   -3.1500    0.0000 C   0  0  0  0  0  0  0  0  0  0  0  0
   13.4250   -3.7417    0.0000 C   0  0  0  0  0  0  0  0  0  0  0  0
    6.8792   -1.6000    0.0000 C   0  0  0  0  0  0  0  0  0  0  0  0
    1.7000   -7.9250    0.0000 C   0  0  0  0  0  0  0  0  0  0  0  0
   13.4000   -0.2167    0.0000 O   0  0  0  0  0  0  0  0  0  0  0  0
   11.6917   -5.2667    0.0000 O   0  0  0  0  0  0  0  0  0  0  0  0
    0.8917   -5.4000    0.0000 C   0  0  0  0  0  0  0  0  0  0  0  0
    5.5917   -1.8750    0.0000 C   0  0  0  0  0  0  0  0  0  0  0  0
   14.6917   -0.0000    0.0000 C   0  0  0  0  0  0  0  0  0  0  0  0
   12.5917   -6.2667    0.0000 C   0  0  0  0  0  0  0  0  0  0  0  0
    0.4000   -7.6667    0.0000 C   0  0  0  0  0  0  0  0  0  0  0  0
    0.0000   -6.3792    0.0000 C   0  0  0  0  0  0  0  0  0  0  0  0
  1  2  2  0
  1  3  1  0
  1  4  1  0
  2  5  1  0
  4  6  1  0
  3  7  1  0
  8 11  1  0
  8  9  1  0
  2 10  1  0
  5 11  1  0
 12 16  1  0
  4 13  2  0
  9 14  1  0
 13 15  1  0
 14 16  1  0
 12 17  2  0
 12 18  1  0
  9 19  2  0
 17 20  1  0
 18 21  2  0
  5 22  1  0
 21 23  1  0
 24 29  1  0
  6 25  1  0
 17 26  1  0
 21 27  1  0
  7 28  1  0
 22 29  1  0
 26 30  1  0
 27 31  1  0
 25 32  2  0
 28 33  2  0
  6  7  2  0
 10 15  2  0
 32 33  1  0
  8 24  1  0
 20 23  2  0
M  END
>  <MOLFORMULA>  (110) 
C25 H26 N4 O4

>  <MOLWEIGHT>  (110) 
4.465044000000000e+002

>  <IDNUMBER>  (110) 
AT-687/PE16774

>  <PRICE>  (110) 
EUR 80/10 mg

>  <Similarity score>  (110) 
0.21

$$$$

     RDKit          2D

 29 33  0  0  0  0  0  0  0  0999 V2000
    3.3667   -1.3375    0.0000 C   0  0  0  0  0  0  0  0  0  0  0  0
    2.7333   -0.9667    0.0000 C   0  0  0  0  0  0  0  0  0  0  0  0
    3.3667   -2.0750    0.0000 C   0  0  0  0  0  0  0  0  0  0  0  0
    5.2792   -2.4417    0.0000 C   0  0  0  0  0  0  0  0  0  0  0  0
    2.7333   -0.2375    0.0000 N   0  0  0  0  0  0  0  0  0  0  0  0
    4.0042   -2.4417    0.0000 O   0  0  0  0  0  0  0  0  0  0  0  0
    4.6458   -2.0750    0.0000 C   0  0  0  0  0  0  0  0  0  0  0  0
    4.0042   -0.9625    0.0000 C   0  0  0  0  0  0  0  0  0  0  0  0
    2.1000   -1.3375    0.0000 N   0  0  0  0  0  0  0  0  0  0  0  0
    5.2792   -3.1750    0.0000 C   0  0  0  0  0  0  0  0  0  0  0  0
    4.6458   -3.5375    0.0000 N   0  0  0  0  0  0  0  0  0  0  0  0
    4.6458   -1.3375    0.0000 C   0  0  0  0  0  0  0  0  0  0  0  0
    1.4625   -0.2375    0.0000 C   0  0  0  0  0  0  0  0  0  0  0  0
    1.4667   -0.9708    0.0000 C   0  0  0  0  0  0  0  0  0  0  0  0
    5.9208   -2.0750    0.0000 C   0  0  0  0  0  0  0  0  0  0  0  0
    2.7208   -2.4500    0.0000 O   0  0  0  0  0  0  0  0  0  0  0  0
    5.2792   -0.9625    0.0000 C   0  0  0  0  0  0  0  0  0  0  0  0
    4.6458   -4.2708    0.0000 C   0  0  0  0  0  0  0  0  0  0  0  0
    5.9208   -1.3375    0.0000 C   0  0  0  0  0  0  0  0  0  0  0  0
    6.5542   -2.4417    0.0000 O   0  0  0  0  0  0  0  0  0  0  0  0
    4.0125   -3.1708    0.0000 C   0  0  0  0  0  0  0  0  0  0  0  0
    0.8250    0.1250    0.0000 C   0  0  0  0  0  0  0  0  0  0  0  0
    0.8292   -1.3375    0.0000 C   0  0  0  0  0  0  0  0  0  0  0  0
    5.2917   -4.6500    0.0000 C   0  0  0  0  0  0  0  0  0  0  0  0
    4.0083   -4.6375    0.0000 C   0  0  0  0  0  0  0  0  0  0  0  0
    3.3792   -3.5333    0.0000 C   0  0  0  0  0  0  0  0  0  0  0  0
    0.1917   -0.9708    0.0000 C   0  0  0  0  0  0  0  0  0  0  0  0
    0.1875   -0.2417    0.0000 C   0  0  0  0  0  0  0  0  0  0  0  0
    3.3750   -4.2667    0.0000 C   0  0  0  0  0  0  0  0  0  0  0  0
  1  2  1  0
  1  3  1  0
  4  7  1  0
  2  5  2  0
  3  6  1  0
  7 12  2  0
  1  8  2  0
  2  9  1  0
  4 10  1  0
 10 11  1  0
  8 12  1  0
  5 13  1  0
  9 14  1  0
  4 15  2  0
  3 16  2  0
 12 17  1  0
 11 18  1  0
 17 19  2  0
 15 20  1  0
 11 21  1  0
 13 22  1  0
 14 23  1  0
 18 24  1  0
 18 25  1  0
 21 26  1  0
 23 27  2  0
 22 28  2  0
 26 29  1  0
  6  7  1  0
 13 14  2  0
 15 19  1  0
 27 28  1  0
 25 29  1  0
M  END
>  <MOLFORMULA>  (111) 
C23 H23 N3 O3

>  <MOLWEIGHT>  (111) 
3.894527000000000e+002

>  <IDNUMBER>  (111) 
AT-225/NB53225

>  <PRICE>  (111) 
EUR 140/10 mg

>  <Similarity score>  (111) 
0.21

$$$$

     RDKit          2D

 32 36  0  0  0  0  0  0  0  0999 V2000
    6.7792   -7.6417    0.0000 C   0  0  0  0  0  0  0  0  0  0  0  0
    6.0625   -8.0542    0.0000 N   0  0  0  0  0  0  0  0  0  0  0  0
    6.7792   -6.8125    0.0000 N   0  0  0  0  0  0  0  0  0  0  0  0
    7.3917   -8.1917    0.0000 C   0  0  0  0  0  0  0  0  0  0  0  0
    6.0625   -6.3917    0.0000 C   0  0  0  0  0  0  0  0  0  0  0  0
    6.2292   -8.8625    0.0000 N   0  0  0  0  0  0  0  0  0  0  0  0
    5.3500   -6.8125    0.0000 C   0  0  0  0  0  0  0  0  0  0  0  0
    7.0542   -8.9542    0.0000 N   0  0  0  0  0  0  0  0  0  0  0  0
    5.3417   -7.6375    0.0000 C   0  0  0  0  0  0  0  0  0  0  0  0
    6.0625   -5.5667    0.0000 N   0  0  0  0  0  0  0  0  0  0  0  0
    6.7792   -4.3375    0.0000 C   0  0  0  0  0  0  0  0  0  0  0  0
    8.1917   -8.0292    0.0000 C   0  0  0  0  0  0  0  0  0  0  0  0
    6.7792   -5.1542    0.0000 C   0  0  0  0  0  0  0  0  0  0  0  0
    7.5042   -3.9292    0.0000 C   0  0  0  0  0  0  0  0  0  0  0  0
    4.6292   -6.4000    0.0000 C   0  0  0  0  0  0  0  0  0  0  0  0
    4.6292   -8.0542    0.0000 C   0  0  0  0  0  0  0  0  0  0  0  0
    8.7417   -8.6417    0.0000 C   0  0  0  0  0  0  0  0  0  0  0  0
    7.5042   -3.1042    0.0000 O   0  0  0  0  0  0  0  0  0  0  0  0
    3.9167   -6.8125    0.0000 C   0  0  0  0  0  0  0  0  0  0  0  0
    5.3542   -5.1625    0.0000 C   0  0  0  0  0  0  0  0  0  0  0  0
    3.9167   -7.6417    0.0000 C   0  0  0  0  0  0  0  0  0  0  0  0
    9.5542   -8.4792    0.0000 C   0  0  0  0  0  0  0  0  0  0  0  0
    8.2167   -4.3417    0.0000 O   0  0  0  0  0  0  0  0  0  0  0  0
    3.2042   -6.4000    0.0000 Cl  0  0  0  0  0  0  0  0  0  0  0  0
   10.1000   -9.0917    0.0000 F   0  0  0  0  0  0  0  0  0  0  0  0
    6.0667   -3.9167    0.0000 C   0  0  0  0  0  0  0  0  0  0  0  0
    8.4500   -7.2500    0.0000 C   0  0  0  0  0  0  0  0  0  0  0  0
    5.3542   -4.3292    0.0000 C   0  0  0  0  0  0  0  0  0  0  0  0
    9.2542   -7.0792    0.0000 C   0  0  0  0  0  0  0  0  0  0  0  0
    9.8125   -7.6917    0.0000 C   0  0  0  0  0  0  0  0  0  0  0  0
    8.2125   -5.1667    0.0000 C   0  0  0  0  0  0  0  0  0  0  0  0
    8.9250   -5.5792    0.0000 C   0  0  0  0  0  0  0  0  0  0  0  0
  1  2  1  0
  1  3  1  0
  1  4  2  0
  3  5  2  0
  2  6  1  0
  5  7  1  0
  4  8  1  0
  2  9  1  0
  5 10  1  0
 11 13  1  0
  4 12  1  0
 10 13  1  0
 11 14  1  0
  7 15  2  0
  9 16  2  0
 12 17  2  0
 14 18  2  0
 15 19  1  0
 10 20  1  0
 16 21  1  0
 17 22  1  0
 14 23  1  0
 19 24  1  0
 22 25  1  0
 26 28  1  0
 12 27  1  0
 20 28  1  0
 27 29  2  0
 29 30  1  0
 23 31  1  0
 31 32  1  0
  6  8  2  0
  7  9  1  0
 19 21  2  0
 22 30  2  0
 11 26  1  0
M  END
>  <MOLFORMULA>  (112) 
C23 H21 Cl F N5 O2

>  <MOLWEIGHT>  (112) 
4.539029000000000e+002

>  <IDNUMBER>  (112) 
AT-687/PE10280

>  <PRICE>  (112) 
EUR 80/10 mg

>  <Similarity score>  (112) 
0.21

$$$$

     RDKit          2D

 31 35  0  0  0  0  0  0  0  0999 V2000
    4.3250   -5.4292    0.0000 C   0  0  0  0  0  0  0  0  0  0  0  0
    5.6292   -5.1667    0.0000 C   0  0  0  0  0  0  0  0  0  0  0  0
    3.2542   -4.6500    0.0000 O   0  0  0  0  0  0  0  0  0  0  0  0
    3.9167   -6.6917    0.0000 C   0  0  0  0  0  0  0  0  0  0  0  0
    6.0500   -3.9000    0.0000 N   0  0  0  0  0  0  0  0  0  0  0  0
    2.6000   -6.7042    0.0000 C   0  0  0  0  0  0  0  0  0  0  0  0
    2.1750   -5.4292    0.0000 C   0  0  0  0  0  0  0  0  0  0  0  0
    7.7667   -2.3500    0.0000 C   0  0  0  0  0  0  0  0  0  0  0  0
    9.0792   -2.0792    0.0000 C   0  0  0  0  0  0  0  0  0  0  0  0
    6.5250   -6.1500    0.0000 N   0  0  0  0  0  0  0  0  0  0  0  0
    7.3667   -3.6167    0.0000 C   0  0  0  0  0  0  0  0  0  0  0  0
    4.8000   -7.6750    0.0000 N   0  0  0  0  0  0  0  0  0  0  0  0
   12.9667   -1.2500    0.0000 C   0  0  0  0  0  0  0  0  0  0  0  0
   11.6542   -1.5250    0.0000 C   0  0  0  0  0  0  0  0  0  0  0  0
    9.4792   -0.8042    0.0000 N   0  0  0  0  0  0  0  0  0  0  0  0
   13.8417   -2.2417    0.0000 C   0  0  0  0  0  0  0  0  0  0  0  0
    6.1000   -7.4250    0.0000 C   0  0  0  0  0  0  0  0  0  0  0  0
   10.7917   -0.5417    0.0000 C   0  0  0  0  0  0  0  0  0  0  0  0
    9.9750   -3.0750    0.0000 O   0  0  0  0  0  0  0  0  0  0  0  0
   11.2500   -2.7750    0.0000 C   0  0  0  0  0  0  0  0  0  0  0  0
   13.4250   -3.5000    0.0000 C   0  0  0  0  0  0  0  0  0  0  0  0
   13.3667   -0.0000    0.0000 Cl  0  0  0  0  0  0  0  0  0  0  0  0
    5.1667   -2.9167    0.0000 C   0  0  0  0  0  0  0  0  0  0  0  0
   12.1292   -3.7917    0.0000 C   0  0  0  0  0  0  0  0  0  0  0  0
   14.3042   -4.5000    0.0000 F   0  0  0  0  0  0  0  0  0  0  0  0
    6.8750   -1.3500    0.0000 C   0  0  0  0  0  0  0  0  0  0  0  0
    1.7000   -7.6750    0.0000 C   0  0  0  0  0  0  0  0  0  0  0  0
    0.8792   -5.1667    0.0000 C   0  0  0  0  0  0  0  0  0  0  0  0
    5.5750   -1.6417    0.0000 C   0  0  0  0  0  0  0  0  0  0  0  0
    0.4000   -7.4042    0.0000 C   0  0  0  0  0  0  0  0  0  0  0  0
    0.0000   -6.1500    0.0000 C   0  0  0  0  0  0  0  0  0  0  0  0
  1  2  2  0
  1  3  1  0
  1  4  1  0
  2  5  1  0
  4  6  1  0
  3  7  1  0
  8 11  1  0
  8  9  1  0
  2 10  1  0
  5 11  1  0
  4 12  2  0
 13 14  2  0
 14 18  1  0
  9 15  1  0
 13 16  1  0
 12 17  1  0
 15 18  1  0
  9 19  2  0
 14 20  1  0
 21 24  1  0
 13 22  1  0
  5 23  1  0
 20 24  2  0
 21 25  1  0
 26 29  1  0
  6 27  1  0
  7 28  1  0
 23 29  1  0
 27 30  2  0
 28 31  2  0
  6  7  2  0
 10 17  2  0
 30 31  1  0
  8 26  1  0
 16 21  2  0
M  END
>  <MOLFORMULA>  (113) 
C23 H20 Cl F N4 O2

>  <MOLWEIGHT>  (113) 
4.388880000000000e+002

>  <IDNUMBER>  (113) 
AT-687/PE16778

>  <PRICE>  (113) 
EUR 80/10 mg

>  <Similarity score>  (113) 
0.20

$$$$

     RDKit          2D

 31 35  0  0  0  0  0  0  0  0999 V2000
    4.3417   -4.8917    0.0000 C   0  0  0  0  0  0  0  0  0  0  0  0
    5.6250   -4.6000    0.0000 C   0  0  0  0  0  0  0  0  0  0  0  0
    3.2667   -4.1000    0.0000 O   0  0  0  0  0  0  0  0  0  0  0  0
    3.9167   -6.1500    0.0000 C   0  0  0  0  0  0  0  0  0  0  0  0
    6.0500   -3.3417    0.0000 N   0  0  0  0  0  0  0  0  0  0  0  0
    2.6000   -6.1667    0.0000 C   0  0  0  0  0  0  0  0  0  0  0  0
    2.1750   -4.8917    0.0000 C   0  0  0  0  0  0  0  0  0  0  0  0
    7.7667   -1.8167    0.0000 C   0  0  0  0  0  0  0  0  0  0  0  0
    9.0917   -1.5417    0.0000 C   0  0  0  0  0  0  0  0  0  0  0  0
    6.5250   -5.6000    0.0000 N   0  0  0  0  0  0  0  0  0  0  0  0
    7.3542   -3.0750    0.0000 C   0  0  0  0  0  0  0  0  0  0  0  0
    4.8000   -7.1250    0.0000 N   0  0  0  0  0  0  0  0  0  0  0  0
    9.5000   -0.2667    0.0000 N   0  0  0  0  0  0  0  0  0  0  0  0
   13.8250   -1.6917    0.0000 C   0  0  0  0  0  0  0  0  0  0  0  0
    6.1167   -6.8750    0.0000 C   0  0  0  0  0  0  0  0  0  0  0  0
   13.4292   -2.9500    0.0000 C   0  0  0  0  0  0  0  0  0  0  0  0
    9.9667   -2.5250    0.0000 O   0  0  0  0  0  0  0  0  0  0  0  0
   12.9667   -0.7000    0.0000 C   0  0  0  0  0  0  0  0  0  0  0  0
   12.1292   -3.2417    0.0000 C   0  0  0  0  0  0  0  0  0  0  0  0
   11.6667   -0.9667    0.0000 C   0  0  0  0  0  0  0  0  0  0  0  0
   10.7792   -0.0000    0.0000 C   0  0  0  0  0  0  0  0  0  0  0  0
   15.1500   -1.3917    0.0000 Cl  0  0  0  0  0  0  0  0  0  0  0  0
    5.1667   -2.3542    0.0000 C   0  0  0  0  0  0  0  0  0  0  0  0
   14.3167   -3.9500    0.0000 F   0  0  0  0  0  0  0  0  0  0  0  0
   11.2500   -2.2250    0.0000 C   0  0  0  0  0  0  0  0  0  0  0  0
    6.8917   -0.8167    0.0000 C   0  0  0  0  0  0  0  0  0  0  0  0
    1.7000   -7.1250    0.0000 C   0  0  0  0  0  0  0  0  0  0  0  0
    0.8917   -4.6000    0.0000 C   0  0  0  0  0  0  0  0  0  0  0  0
    5.5917   -1.0792    0.0000 C   0  0  0  0  0  0  0  0  0  0  0  0
    0.4000   -6.8542    0.0000 C   0  0  0  0  0  0  0  0  0  0  0  0
    0.0000   -5.6000    0.0000 C   0  0  0  0  0  0  0  0  0  0  0  0
  1  2  2  0
  1  3  1  0
  1  4  1  0
  2  5  1  0
  4  6  1  0
  3  7  1  0
  8 11  1  0
  8  9  1  0
  2 10  1  0
  5 11  1  0
  4 12  2  0
  9 13  1  0
 14 18  1  0
 12 15  1  0
 16 19  1  0
  9 17  2  0
 18 20  2  0
 19 25  2  0
 20 21  1  0
 13 21  1  0
 14 22  1  0
  5 23  1  0
 16 24  1  0
 20 25  1  0
 26 29  1  0
  6 27  1  0
  7 28  1  0
 23 29  1  0
 27 30  2  0
 28 31  2  0
  6  7  2  0
 10 15  2  0
 30 31  1  0
  8 26  1  0
 14 16  2  0
M  END
>  <MOLFORMULA>  (114) 
C23 H20 Cl F N4 O2

>  <MOLWEIGHT>  (114) 
4.388880000000000e+002

>  <IDNUMBER>  (114) 
AT-687/PE16779

>  <PRICE>  (114) 
EUR 80/10 mg

>  <Similarity score>  (114) 
0.20

$$$$

     RDKit          2D

 32 36  0  0  0  0  0  0  0  0999 V2000
   -1.8958    0.9458    0.0000 C   0  0  0  0  0  0  0  0  0  0  0  0
   -1.0958    1.1125    0.0000 C   0  0  0  0  0  0  0  0  0  0  0  0
   -2.5625    1.4333    0.0000 O   0  0  0  0  0  0  0  0  0  0  0  0
   -2.1583    0.1625    0.0000 C   0  0  0  0  0  0  0  0  0  0  0  0
   -0.8333    1.8958    0.0000 N   0  0  0  0  0  0  0  0  0  0  0  0
   -2.9750    0.1583    0.0000 C   0  0  0  0  0  0  0  0  0  0  0  0
    1.0375    3.0208    0.0000 C   0  0  0  0  0  0  0  0  0  0  0  0
   -3.2333    0.9458    0.0000 C   0  0  0  0  0  0  0  0  0  0  0  0
    0.2292    2.8458    0.0000 C   0  0  0  0  0  0  0  0  0  0  0  0
   -0.5458    0.5083    0.0000 N   0  0  0  0  0  0  0  0  0  0  0  0
   -0.0250    2.0708    0.0000 C   0  0  0  0  0  0  0  0  0  0  0  0
    1.5792    2.4083    0.0000 N   0  0  0  0  0  0  0  0  0  0  0  0
   -1.6083   -0.4500    0.0000 N   0  0  0  0  0  0  0  0  0  0  0  0
    2.9292    1.9583    0.0000 C   0  0  0  0  0  0  0  0  0  0  0  0
    3.7375    2.1208    0.0000 C   0  0  0  0  0  0  0  0  0  0  0  0
   -0.8000   -0.2792    0.0000 C   0  0  0  0  0  0  0  0  0  0  0  0
    2.3792    2.5833    0.0000 C   0  0  0  0  0  0  0  0  0  0  0  0
    1.2917    3.8000    0.0000 O   0  0  0  0  0  0  0  0  0  0  0  0
    3.9917    2.9000    0.0000 C   0  0  0  0  0  0  0  0  0  0  0  0
    3.4500    3.5083    0.0000 C   0  0  0  0  0  0  0  0  0  0  0  0
   -1.3875    2.5083    0.0000 C   0  0  0  0  0  0  0  0  0  0  0  0
    2.6500    3.3583    0.0000 C   0  0  0  0  0  0  0  0  0  0  0  0
    4.2750    1.5083    0.0000 O   0  0  0  0  0  0  0  0  0  0  0  0
   -0.3208    3.4625    0.0000 C   0  0  0  0  0  0  0  0  0  0  0  0
   -3.5250   -0.4500    0.0000 C   0  0  0  0  0  0  0  0  0  0  0  0
    4.7917    3.0625    0.0000 O   0  0  0  0  0  0  0  0  0  0  0  0
   -4.0333    1.1208    0.0000 C   0  0  0  0  0  0  0  0  0  0  0  0
   -1.1250    3.2958    0.0000 C   0  0  0  0  0  0  0  0  0  0  0  0
    5.0792    1.6708    0.0000 C   0  0  0  0  0  0  0  0  0  0  0  0
    5.0542    3.8458    0.0000 C   0  0  0  0  0  0  0  0  0  0  0  0
   -4.3333   -0.2792    0.0000 C   0  0  0  0  0  0  0  0  0  0  0  0
   -4.5833    0.5083    0.0000 C   0  0  0  0  0  0  0  0  0  0  0  0
  1  2  1  0
  1  3  1  0
  1  4  2  0
  2  5  1  0
  4  6  1  0
  7  9  1  0
  3  8  1  0
  9 11  1  0
  2 10  2  0
  5 11  1  0
  7 12  1  0
  4 13  1  0
 14 17  1  0
 14 15  2  0
 13 16  2  0
 12 17  1  0
  7 18  2  0
 19 20  2  0
 20 22  1  0
  5 21  1  0
 17 22  2  0
 15 23  1  0
 24 28  1  0
  6 25  1  0
 19 26  1  0
  8 27  1  0
 21 28  1  0
 23 29  1  0
 26 30  1  0
 25 31  2  0
 27 32  2  0
  6  8  2  0
 10 16  1  0
 31 32  1  0
  9 24  1  0
 15 19  1  0
M  END
>  <MOLFORMULA>  (115) 
C24 H24 N4 O4

>  <MOLWEIGHT>  (115) 
4.324776000000000e+002

>  <IDNUMBER>  (115) 
AT-687/PE16754

>  <PRICE>  (115) 
EUR 80/10 mg

>  <Similarity score>  (115) 
0.20

$$$$

     RDKit          2D

 32 36  0  0  0  0  0  0  0  0999 V2000
   -0.0375   -1.3792    0.0000 C   0  0  0  0  0  0  0  0  0  0  0  0
   -0.0583   -2.3792    0.0000 C   0  0  0  0  0  0  0  0  0  0  0  0
    1.6917   -1.3917    0.0000 C   0  0  0  0  0  0  0  0  0  0  0  0
    0.8250   -0.8792    0.0000 N   0  0  0  0  0  0  0  0  0  0  0  0
    1.6792   -2.3917    0.0000 N   0  0  0  0  0  0  0  0  0  0  0  0
   -0.9958   -1.0667    0.0000 C   0  0  0  0  0  0  0  0  0  0  0  0
    0.8125   -2.8917    0.0000 C   0  0  0  0  0  0  0  0  0  0  0  0
   -0.9958   -2.6875    0.0000 S   0  0  0  0  0  0  0  0  0  0  0  0
    2.5625   -0.9042    0.0000 N   0  0  0  0  0  0  0  0  0  0  0  0
   -1.5833   -1.8792    0.0000 C   0  0  0  0  0  0  0  0  0  0  0  0
   -1.2958   -0.1167    0.0000 C   0  0  0  0  0  0  0  0  0  0  0  0
    2.5792    0.1000    0.0000 C   0  0  0  0  0  0  0  0  0  0  0  0
   -2.2833    0.1000    0.0000 C   0  0  0  0  0  0  0  0  0  0  0  0
   -2.5833    1.0375    0.0000 C   0  0  0  0  0  0  0  0  0  0  0  0
    3.4500    0.5833    0.0000 C   0  0  0  0  0  0  0  0  0  0  0  0
    0.7917   -3.9000    0.0000 O   0  0  0  0  0  0  0  0  0  0  0  0
    3.4292   -1.4125    0.0000 C   0  0  0  0  0  0  0  0  0  0  0  0
   -1.9083    1.7833    0.0000 C   0  0  0  0  0  0  0  0  0  0  0  0
    4.3125    0.0833    0.0000 C   0  0  0  0  0  0  0  0  0  0  0  0
   -0.6208    0.6125    0.0000 C   0  0  0  0  0  0  0  0  0  0  0  0
    4.2917   -0.9292    0.0000 C   0  0  0  0  0  0  0  0  0  0  0  0
   -0.9333    1.5708    0.0000 C   0  0  0  0  0  0  0  0  0  0  0  0
   -3.5458    1.2583    0.0000 O   0  0  0  0  0  0  0  0  0  0  0  0
   -2.2083    2.7333    0.0000 O   0  0  0  0  0  0  0  0  0  0  0  0
    3.4500    1.5708    0.0000 C   0  0  0  0  0  0  0  0  0  0  0  0
    5.1875    0.5833    0.0000 C   0  0  0  0  0  0  0  0  0  0  0  0
   -4.2208    0.5208    0.0000 C   0  0  0  0  0  0  0  0  0  0  0  0
   -3.1833    2.9458    0.0000 C   0  0  0  0  0  0  0  0  0  0  0  0
   -3.4708    3.9083    0.0000 C   0  0  0  0  0  0  0  0  0  0  0  0
   -5.1958    0.7333    0.0000 C   0  0  0  0  0  0  0  0  0  0  0  0
    4.3125    2.0708    0.0000 C   0  0  0  0  0  0  0  0  0  0  0  0
    5.1917    1.5833    0.0000 C   0  0  0  0  0  0  0  0  0  0  0  0
  1  2  2  0
  3  4  2  0
  1  4  1  0
  3  5  1  0
  1  6  1  0
  2  7  1  0
  2  8  1  0
  3  9  1  0
  6 10  2  0
  6 11  1  0
  9 12  1  0
 11 13  2  0
 13 14  1  0
 12 15  1  0
  7 16  2  0
  9 17  1  0
 18 22  1  0
 19 21  1  0
 11 20  1  0
 17 21  1  0
 20 22  2  0
 14 23  1  0
 18 24  1  0
 15 25  1  0
 19 26  1  0
 23 27  1  0
 24 28  1  0
 28 29  1  0
 27 30  1  0
 25 31  2  0
 26 32  2  0
  8 10  1  0
  5  7  1  0
 14 18  2  0
 15 19  2  0
 31 32  1  0
M  END
>  <MOLFORMULA>  (116) 
C25 H25 N3 O3 S

>  <MOLWEIGHT>  (116) 
4.475565000000000e+002

>  <IDNUMBER>  (116) 
AT-687/PE25849

>  <PRICE>  (116) 
EUR 80/10 mg

>  <Similarity score>  (116) 
0.20

$$$$

     RDKit          2D

 31 35  0  0  0  0  0  0  0  0999 V2000
    4.3292   -4.9250    0.0000 C   0  0  0  0  0  0  0  0  0  0  0  0
    5.6292   -4.6500    0.0000 C   0  0  0  0  0  0  0  0  0  0  0  0
    3.2500   -4.1500    0.0000 O   0  0  0  0  0  0  0  0  0  0  0  0
    3.9042   -6.1917    0.0000 C   0  0  0  0  0  0  0  0  0  0  0  0
    6.0500   -3.3917    0.0000 N   0  0  0  0  0  0  0  0  0  0  0  0
    2.5917   -6.2000    0.0000 C   0  0  0  0  0  0  0  0  0  0  0  0
    9.0750   -1.5750    0.0000 C   0  0  0  0  0  0  0  0  0  0  0  0
    2.1750   -4.9250    0.0000 C   0  0  0  0  0  0  0  0  0  0  0  0
    7.7750   -1.8500    0.0000 C   0  0  0  0  0  0  0  0  0  0  0  0
    6.5250   -5.6292    0.0000 N   0  0  0  0  0  0  0  0  0  0  0  0
    7.3500   -3.1167    0.0000 C   0  0  0  0  0  0  0  0  0  0  0  0
    9.9500   -2.5542    0.0000 N   0  0  0  0  0  0  0  0  0  0  0  0
    4.8000   -7.1792    0.0000 N   0  0  0  0  0  0  0  0  0  0  0  0
    6.1000   -6.9167    0.0000 C   0  0  0  0  0  0  0  0  0  0  0  0
    9.4750   -0.3167    0.0000 O   0  0  0  0  0  0  0  0  0  0  0  0
   11.2500   -2.2917    0.0000 C   0  0  0  0  0  0  0  0  0  0  0  0
    5.1542   -2.4042    0.0000 C   0  0  0  0  0  0  0  0  0  0  0  0
   13.8500   -1.7667    0.0000 C   0  0  0  0  0  0  0  0  0  0  0  0
    6.8750   -0.8500    0.0000 C   0  0  0  0  0  0  0  0  0  0  0  0
    1.7000   -7.1792    0.0000 C   0  0  0  0  0  0  0  0  0  0  0  0
   12.1250   -3.2917    0.0000 C   0  0  0  0  0  0  0  0  0  0  0  0
   11.6750   -1.0250    0.0000 C   0  0  0  0  0  0  0  0  0  0  0  0
   12.9750   -0.7917    0.0000 C   0  0  0  0  0  0  0  0  0  0  0  0
   13.4500   -3.0292    0.0000 C   0  0  0  0  0  0  0  0  0  0  0  0
    0.8917   -4.6500    0.0000 C   0  0  0  0  0  0  0  0  0  0  0  0
   15.1417   -1.5167    0.0000 O   0  0  0  0  0  0  0  0  0  0  0  0
    5.5792   -1.1250    0.0000 C   0  0  0  0  0  0  0  0  0  0  0  0
   15.5750   -0.2500    0.0000 C   0  0  0  0  0  0  0  0  0  0  0  0
    0.4000   -6.9167    0.0000 C   0  0  0  0  0  0  0  0  0  0  0  0
    0.0000   -5.6292    0.0000 C   0  0  0  0  0  0  0  0  0  0  0  0
   16.8750   -0.0000    0.0000 C   0  0  0  0  0  0  0  0  0  0  0  0
  1  2  2  0
  1  3  1  0
  1  4  1  0
  2  5  1  0
  4  6  1  0
  7  9  1  0
  3  8  1  0
  9 11  1  0
  2 10  1  0
  5 11  1  0
  7 12  1  0
  4 13  2  0
 13 14  1  0
  7 15  2  0
 12 16  1  0
  5 17  1  0
 18 23  2  0
 19 27  1  0
  6 20  1  0
 16 21  1  0
 16 22  2  0
 22 23  1  0
 21 24  2  0
  8 25  1  0
 18 26  1  0
 17 27  1  0
 26 28  1  0
 20 29  2  0
 25 30  2  0
 28 31  1  0
  6  8  2  0
 10 14  2  0
 29 30  1  0
  9 19  1  0
 18 24  1  0
M  END
>  <MOLFORMULA>  (117) 
C24 H24 N4 O3

>  <MOLWEIGHT>  (117) 
4.164786000000000e+002

>  <IDNUMBER>  (117) 
AT-687/PE16755

>  <PRICE>  (117) 
EUR 80/10 mg

>  <Similarity score>  (117) 
0.20

$$$$

     RDKit          2D

 40 45  0  0  0  0  0  0  0  0999 V2000
    2.4833    2.1417    0.0000 C   0  0  0  0  0  0  0  0  0  0  0  0
    2.4833    3.1417    0.0000 C   0  0  0  0  0  0  0  0  0  0  0  0
    3.3500    1.6417    0.0000 C   0  0  0  0  0  0  0  0  0  0  0  0
    1.6167    1.6417    0.0000 N   0  0  0  0  0  0  0  0  0  0  0  0
    3.3500    3.6417    0.0000 C   0  0  0  0  0  0  0  0  0  0  0  0
    4.2125    2.1417    0.0000 N   0  0  0  0  0  0  0  0  0  0  0  0
    4.2125    3.1458    0.0000 C   0  0  0  0  0  0  0  0  0  0  0  0
    0.7500    0.1417    0.0000 C   0  0  0  0  0  0  0  0  0  0  0  0
   -0.4792   -5.3958    0.0000 N   0  0  0  0  0  0  0  0  0  0  0  0
   -1.7917   -4.4458    0.0000 C   0  0  0  0  0  0  0  0  0  0  0  0
    1.6167    0.6417    0.0000 C   0  0  0  0  0  0  0  0  0  0  0  0
    0.7500   -0.8583    0.0000 C   0  0  0  0  0  0  0  0  0  0  0  0
   -0.1708   -4.4458    0.0000 C   0  0  0  0  0  0  0  0  0  0  0  0
   -0.9792   -3.8583    0.0000 C   0  0  0  0  0  0  0  0  0  0  0  0
   -1.4792   -5.3958    0.0000 C   0  0  0  0  0  0  0  0  0  0  0  0
    3.3458    4.6375    0.0000 C   0  0  0  0  0  0  0  0  0  0  0  0
    1.6167    3.6417    0.0000 C   0  0  0  0  0  0  0  0  0  0  0  0
    3.3500    0.6417    0.0000 O   0  0  0  0  0  0  0  0  0  0  0  0
   -2.7667   -4.2375    0.0000 C   0  0  0  0  0  0  0  0  0  0  0  0
    1.6167   -1.3583    0.0000 O   0  0  0  0  0  0  0  0  0  0  0  0
    5.0792    3.6417    0.0000 C   0  0  0  0  0  0  0  0  0  0  0  0
   -0.1167   -1.3583    0.0000 N   0  0  0  0  0  0  0  0  0  0  0  0
   -2.1500   -6.1375    0.0000 C   0  0  0  0  0  0  0  0  0  0  0  0
    0.7500    2.1417    0.0000 C   0  0  0  0  0  0  0  0  0  0  0  0
    4.2125    5.1375    0.0000 C   0  0  0  0  0  0  0  0  0  0  0  0
   -3.4375   -4.9792    0.0000 C   0  0  0  0  0  0  0  0  0  0  0  0
    5.0792    4.6417    0.0000 C   0  0  0  0  0  0  0  0  0  0  0  0
   -3.1292   -5.9333    0.0000 C   0  0  0  0  0  0  0  0  0  0  0  0
    4.2125    6.1375    0.0000 Cl  0  0  0  0  0  0  0  0  0  0  0  0
   -0.1167    0.6417    0.0000 C   0  0  0  0  0  0  0  0  0  0  0  0
   -0.1167   -2.3583    0.0000 C   0  0  0  0  0  0  0  0  0  0  0  0
   -0.9792   -2.8583    0.0000 C   0  0  0  0  0  0  0  0  0  0  0  0
   -4.4167   -4.7708    0.0000 O   0  0  0  0  0  0  0  0  0  0  0  0
   -0.1167    1.6417    0.0000 C   0  0  0  0  0  0  0  0  0  0  0  0
    1.6167    4.6375    0.0000 C   0  0  0  0  0  0  0  0  0  0  0  0
    0.7500    3.1417    0.0000 C   0  0  0  0  0  0  0  0  0  0  0  0
   -5.0833   -5.5167    0.0000 C   0  0  0  0  0  0  0  0  0  0  0  0
   -0.1167    3.6417    0.0000 C   0  0  0  0  0  0  0  0  0  0  0  0
    0.7500    5.1375    0.0000 C   0  0  0  0  0  0  0  0  0  0  0  0
   -0.1167    4.6375    0.0000 C   0  0  0  0  0  0  0  0  0  0  0  0
  1  2  2  0
  1  3  1  0
  1  4  1  0
  2  5  1  0
  3  6  1  0
  6  7  1  0
  8 11  1  0
  9 13  1  0
 10 14  1  0
  4 11  1  0
  8 12  1  0
 13 14  2  0
 14 32  1  0
 10 15  2  0
  5 16  1  0
  2 17  1  0
  3 18  2  0
 10 19  1  0
 12 20  2  0
  7 21  1  0
 12 22  1  0
 15 23  1  0
  4 24  1  0
 16 25  2  0
 19 26  2  0
 21 27  2  0
 26 28  1  0
 25 29  1  0
 30 34  1  0
 22 31  1  0
 31 32  1  0
 26 33  1  0
 24 34  1  0
 17 35  1  0
 17 36  2  0
 33 37  1  0
 36 38  1  0
 35 39  2  0
 38 40  2  0
  5  7  2  0
  8 30  1  0
 25 27  1  0
 39 40  1  0
  9 15  1  0
 23 28  2  0
M  END
>  <MOLFORMULA>  (118) 
C32 H31 Cl N4 O3

>  <MOLWEIGHT>  (118) 
5.550749000000000e+002

>  <IDNUMBER>  (118) 
AN-153/I262611

>  <PRICE>  (118) 
EUR 130/10 mg

>  <Similarity score>  (118) 
0.20

$$$$

     RDKit          2D

 29 33  0  0  0  0  0  0  0  0999 V2000
    0.9917    1.0708    0.0000 N   0  0  0  0  0  0  0  0  0  0  0  0
    2.0292    1.0708    0.0000 C   0  0  0  0  0  0  0  0  0  0  0  0
    0.9917    0.4708    0.0000 C   0  0  0  0  0  0  0  0  0  0  0  0
    2.0292    0.4708    0.0000 C   0  0  0  0  0  0  0  0  0  0  0  0
    1.5125    1.3708    0.0000 C   0  0  0  0  0  0  0  0  0  0  0  0
   -0.0458    0.4708    0.0000 C   0  0  0  0  0  0  0  0  0  0  0  0
   -0.0458    1.0708    0.0000 C   0  0  0  0  0  0  0  0  0  0  0  0
    1.5125    0.1708    0.0000 C   0  0  0  0  0  0  0  0  0  0  0  0
   -0.5708    0.1708    0.0000 N   0  0  0  0  0  0  0  0  0  0  0  0
    2.5500    0.1708    0.0000 C   0  0  0  0  0  0  0  0  0  0  0  0
    0.4667    1.3708    0.0000 C   0  0  0  0  0  0  0  0  0  0  0  0
   -0.5708    1.3708    0.0000 C   0  0  0  0  0  0  0  0  0  0  0  0
    3.0667    0.4708    0.0000 C   0  0  0  0  0  0  0  0  0  0  0  0
   -1.0875    1.0708    0.0000 C   0  0  0  0  0  0  0  0  0  0  0  0
   -1.0875    0.4708    0.0000 C   0  0  0  0  0  0  0  0  0  0  0  0
    2.5500    1.3708    0.0000 C   0  0  0  0  0  0  0  0  0  0  0  0
    3.0667    1.0708    0.0000 O   0  0  0  0  0  0  0  0  0  0  0  0
    1.5125    1.9708    0.0000 O   0  0  0  0  0  0  0  0  0  0  0  0
   -1.6083    1.3708    0.0000 C   0  0  0  0  0  0  0  0  0  0  0  0
    3.5917    0.1708    0.0000 O   0  0  0  0  0  0  0  0  0  0  0  0
   -1.6083    0.1708    0.0000 C   0  0  0  0  0  0  0  0  0  0  0  0
    2.8500   -0.3542    0.0000 O   0  0  0  0  0  0  0  0  0  0  0  0
   -2.1250    1.0708    0.0000 C   0  0  0  0  0  0  0  0  0  0  0  0
    2.2500   -0.3542    0.0000 C   0  0  0  0  0  0  0  0  0  0  0  0
   -2.1250    0.4708    0.0000 C   0  0  0  0  0  0  0  0  0  0  0  0
   -0.5708    1.9708    0.0000 C   0  0  0  0  0  0  0  0  0  0  0  0
   -2.6458    1.3708    0.0000 O   0  0  0  0  0  0  0  0  0  0  0  0
    1.6500   -0.3542    0.0000 C   0  0  0  0  0  0  0  0  0  0  0  0
   -1.0875    2.2708    0.0000 C   0  0  0  0  0  0  0  0  0  0  0  0
  2  5  1  0
  1  3  1  0
  2  4  2  0
  1  5  1  0
  3  6  1  0
  7 11  1  0
  3  8  2  0
  6  9  2  0
  4 10  1  0
  1 11  1  0
  7 12  2  0
 13 17  1  0
 12 14  1  0
  9 15  1  0
  2 16  1  0
 16 17  1  0
  5 18  2  0
 14 19  2  0
 13 20  2  0
 15 21  2  0
 10 22  1  1
 19 23  1  0
 10 24  1  0
 21 25  1  0
 12 26  1  0
 23 27  1  0
 24 28  1  0
 26 29  1  0
  4  8  1  0
  6  7  1  0
 14 15  1  0
 10 13  1  0
 23 25  2  0
M  END
>  <MOLFORMULA>  (119) 
C22 H20 N2 O5

>  <MOLWEIGHT>  (119) 
3.924090000000000e+002

>  <IDNUMBER>  (119) 
AT-358/NJ01084

>  <Similarity score>  (119) 
0.20

$$$$

     RDKit          2D

 32 36  0  0  0  0  0  0  0  0999 V2000
    4.3417   -4.8792    0.0000 C   0  0  0  0  0  0  0  0  0  0  0  0
    5.6250   -4.6000    0.0000 C   0  0  0  0  0  0  0  0  0  0  0  0
    3.2667   -4.1042    0.0000 O   0  0  0  0  0  0  0  0  0  0  0  0
    3.9042   -6.1417    0.0000 C   0  0  0  0  0  0  0  0  0  0  0  0
    6.0542   -3.3500    0.0000 N   0  0  0  0  0  0  0  0  0  0  0  0
    2.5917   -6.1542    0.0000 C   0  0  0  0  0  0  0  0  0  0  0  0
    2.1750   -4.8792    0.0000 C   0  0  0  0  0  0  0  0  0  0  0  0
    7.7750   -1.8167    0.0000 C   0  0  0  0  0  0  0  0  0  0  0  0
    9.0792   -1.5250    0.0000 C   0  0  0  0  0  0  0  0  0  0  0  0
    6.5250   -5.6000    0.0000 N   0  0  0  0  0  0  0  0  0  0  0  0
    7.3667   -3.0667    0.0000 C   0  0  0  0  0  0  0  0  0  0  0  0
    4.8000   -7.1292    0.0000 N   0  0  0  0  0  0  0  0  0  0  0  0
    9.5000   -0.2542    0.0000 N   0  0  0  0  0  0  0  0  0  0  0  0
    6.1042   -6.8667    0.0000 C   0  0  0  0  0  0  0  0  0  0  0  0
    9.9750   -2.5250    0.0000 O   0  0  0  0  0  0  0  0  0  0  0  0
   10.7792   -0.0000    0.0000 C   0  0  0  0  0  0  0  0  0  0  0  0
    5.1667   -2.3542    0.0000 C   0  0  0  0  0  0  0  0  0  0  0  0
   11.6542   -0.9667    0.0000 C   0  0  0  0  0  0  0  0  0  0  0  0
   13.4250   -2.9500    0.0000 C   0  0  0  0  0  0  0  0  0  0  0  0
    6.8792   -0.8000    0.0000 C   0  0  0  0  0  0  0  0  0  0  0  0
    1.7167   -7.1292    0.0000 C   0  0  0  0  0  0  0  0  0  0  0  0
   12.9667   -0.7000    0.0000 C   0  0  0  0  0  0  0  0  0  0  0  0
   11.2500   -2.2250    0.0000 C   0  0  0  0  0  0  0  0  0  0  0  0
   12.1250   -3.2292    0.0000 C   0  0  0  0  0  0  0  0  0  0  0  0
   13.8417   -1.7000    0.0000 C   0  0  0  0  0  0  0  0  0  0  0  0
    0.8917   -4.6000    0.0000 C   0  0  0  0  0  0  0  0  0  0  0  0
   14.3250   -3.9250    0.0000 O   0  0  0  0  0  0  0  0  0  0  0  0
    5.5750   -1.0792    0.0000 C   0  0  0  0  0  0  0  0  0  0  0  0
   15.6250   -3.6667    0.0000 C   0  0  0  0  0  0  0  0  0  0  0  0
    0.3917   -6.8667    0.0000 C   0  0  0  0  0  0  0  0  0  0  0  0
    0.0000   -5.6000    0.0000 C   0  0  0  0  0  0  0  0  0  0  0  0
   16.5167   -4.6500    0.0000 C   0  0  0  0  0  0  0  0  0  0  0  0
  1  2  2  0
  1  3  1  0
  1  4  1  0
  2  5  1  0
  4  6  1  0
  3  7  1  0
  8 11  1  0
  8  9  1  0
  2 10  1  0
  5 11  1  0
  4 12  2  0
  9 13  1  0
 12 14  1  0
  9 15  2  0
 13 16  1  0
  5 17  1  0
 16 18  1  0
 19 24  2  0
 20 28  1  0
  6 21  1  0
 18 22  1  0
 18 23  2  0
 23 24  1  0
 22 25  2  0
  7 26  1  0
 19 27  1  0
 17 28  1  0
 27 29  1  0
 21 30  2  0
 26 31  2  0
 29 32  1  0
  6  7  2  0
 10 14  2  0
 30 31  1  0
  8 20  1  0
 19 25  1  0
M  END
>  <MOLFORMULA>  (120) 
C25 H26 N4 O3

>  <MOLWEIGHT>  (120) 
4.305054000000000e+002

>  <IDNUMBER>  (120) 
AT-687/PE16772

>  <PRICE>  (120) 
EUR 80/10 mg

>  <Similarity score>  (120) 
0.20

$$$$

     RDKit          2D

 34 38  0  0  0  0  0  0  0  0999 V2000
   -3.3208    2.1875    0.0000 C   0  0  0  0  0  0  0  0  0  0  0  0
   -3.3125    1.3583    0.0000 C   0  0  0  0  0  0  0  0  0  0  0  0
   -1.8833    2.1875    0.0000 C   0  0  0  0  0  0  0  0  0  0  0  0
   -2.6083    2.6083    0.0000 N   0  0  0  0  0  0  0  0  0  0  0  0
   -1.8833    1.3583    0.0000 N   0  0  0  0  0  0  0  0  0  0  0  0
   -2.6000    0.9458    0.0000 C   0  0  0  0  0  0  0  0  0  0  0  0
   -4.1000    2.4333    0.0000 C   0  0  0  0  0  0  0  0  0  0  0  0
   -4.0958    1.1000    0.0000 S   0  0  0  0  0  0  0  0  0  0  0  0
   -1.1708    2.6000    0.0000 N   0  0  0  0  0  0  0  0  0  0  0  0
   -4.5833    1.7708    0.0000 C   0  0  0  0  0  0  0  0  0  0  0  0
    0.2542    2.5958    0.0000 C   0  0  0  0  0  0  0  0  0  0  0  0
    0.9750    2.1750    0.0000 C   0  0  0  0  0  0  0  0  0  0  0  0
   -0.4583    2.1833    0.0000 C   0  0  0  0  0  0  0  0  0  0  0  0
    3.1042    0.9333    0.0000 C   0  0  0  0  0  0  0  0  0  0  0  0
    2.4000    1.3583    0.0000 C   0  0  0  0  0  0  0  0  0  0  0  0
    1.6917    2.5875    0.0000 N   0  0  0  0  0  0  0  0  0  0  0  0
    3.1042    0.1208    0.0000 C   0  0  0  0  0  0  0  0  0  0  0  0
   -4.3625    3.2208    0.0000 C   0  0  0  0  0  0  0  0  0  0  0  0
   -2.6000    0.1208    0.0000 O   0  0  0  0  0  0  0  0  0  0  0  0
    2.4042    2.1708    0.0000 C   0  0  0  0  0  0  0  0  0  0  0  0
    0.9667    1.3500    0.0000 O   0  0  0  0  0  0  0  0  0  0  0  0
    1.6792    0.9583    0.0000 C   0  0  0  0  0  0  0  0  0  0  0  0
    2.3792   -0.2917    0.0000 C   0  0  0  0  0  0  0  0  0  0  0  0
    3.8292    1.3458    0.0000 Cl  0  0  0  0  0  0  0  0  0  0  0  0
   -1.1708    3.4208    0.0000 C   0  0  0  0  0  0  0  0  0  0  0  0
    1.6667    0.1208    0.0000 C   0  0  0  0  0  0  0  0  0  0  0  0
    2.3750   -1.1167    0.0000 F   0  0  0  0  0  0  0  0  0  0  0  0
    0.2625    3.4208    0.0000 C   0  0  0  0  0  0  0  0  0  0  0  0
   -0.4583    3.8333    0.0000 C   0  0  0  0  0  0  0  0  0  0  0  0
   -3.8083    3.8375    0.0000 C   0  0  0  0  0  0  0  0  0  0  0  0
   -5.1708    3.3958    0.0000 C   0  0  0  0  0  0  0  0  0  0  0  0
   -4.0708    4.6167    0.0000 C   0  0  0  0  0  0  0  0  0  0  0  0
   -5.4333    4.1667    0.0000 C   0  0  0  0  0  0  0  0  0  0  0  0
   -4.8750    4.7792    0.0000 C   0  0  0  0  0  0  0  0  0  0  0  0
  1  2  2  0
  3  4  2  0
  1  4  1  0
  3  5  1  0
  2  6  1  0
  1  7  1  0
  2  8  1  0
  3  9  1  0
  7 10  2  0
 11 13  1  0
 11 12  1  0
  9 13  1  0
 14 15  2  0
 15 20  1  0
 12 16  1  0
 14 17  1  0
  7 18  1  0
  6 19  2  0
 16 20  1  0
 12 21  2  0
 15 22  1  0
 23 26  1  0
 14 24  1  0
  9 25  1  0
 22 26  2  0
 23 27  1  0
 28 29  1  0
 25 29  1  0
 18 30  1  0
 18 31  2  0
 30 32  2  0
 31 33  1  0
 33 34  2  0
  8 10  1  0
  5  6  1  0
 32 34  1  0
 11 28  1  0
 17 23  2  0
M  END
>  <MOLFORMULA>  (121) 
C25 H22 Cl F N4 O2 S

>  <MOLWEIGHT>  (121) 
4.969918000000000e+002

>  <IDNUMBER>  (121) 
AT-687/PE25950

>  <PRICE>  (121) 
EUR 80/10 mg

>  <Similarity score>  (121) 
0.20

$$$$

     RDKit          2D

 33 37  0  0  0  0  0  0  0  0999 V2000
    4.3250   -4.8792    0.0000 C   0  0  0  0  0  0  0  0  0  0  0  0
    5.6250   -4.6000    0.0000 C   0  0  0  0  0  0  0  0  0  0  0  0
    3.2542   -4.1000    0.0000 O   0  0  0  0  0  0  0  0  0  0  0  0
    3.9167   -6.1500    0.0000 C   0  0  0  0  0  0  0  0  0  0  0  0
    6.0542   -3.3500    0.0000 N   0  0  0  0  0  0  0  0  0  0  0  0
    2.6000   -6.1500    0.0000 C   0  0  0  0  0  0  0  0  0  0  0  0
    2.1750   -4.8792    0.0000 C   0  0  0  0  0  0  0  0  0  0  0  0
    7.7750   -1.8167    0.0000 C   0  0  0  0  0  0  0  0  0  0  0  0
    9.0750   -1.5250    0.0000 C   0  0  0  0  0  0  0  0  0  0  0  0
    6.5250   -5.6000    0.0000 N   0  0  0  0  0  0  0  0  0  0  0  0
    7.3667   -3.0667    0.0000 C   0  0  0  0  0  0  0  0  0  0  0  0
    4.8042   -7.1250    0.0000 N   0  0  0  0  0  0  0  0  0  0  0  0
    9.4792   -0.2667    0.0000 N   0  0  0  0  0  0  0  0  0  0  0  0
    6.1167   -6.8667    0.0000 C   0  0  0  0  0  0  0  0  0  0  0  0
    9.9667   -2.5250    0.0000 O   0  0  0  0  0  0  0  0  0  0  0  0
   10.7917   -0.0000    0.0000 C   0  0  0  0  0  0  0  0  0  0  0  0
    5.1667   -2.3500    0.0000 C   0  0  0  0  0  0  0  0  0  0  0  0
   11.6542   -0.9750    0.0000 C   0  0  0  0  0  0  0  0  0  0  0  0
   13.4250   -2.9417    0.0000 C   0  0  0  0  0  0  0  0  0  0  0  0
    6.8750   -0.8167    0.0000 C   0  0  0  0  0  0  0  0  0  0  0  0
    1.7000   -7.1250    0.0000 C   0  0  0  0  0  0  0  0  0  0  0  0
   12.9667   -0.7042    0.0000 C   0  0  0  0  0  0  0  0  0  0  0  0
   11.2292   -2.2250    0.0000 C   0  0  0  0  0  0  0  0  0  0  0  0
   12.1417   -3.2250    0.0000 C   0  0  0  0  0  0  0  0  0  0  0  0
   13.8500   -1.6750    0.0000 C   0  0  0  0  0  0  0  0  0  0  0  0
    0.8917   -4.6000    0.0000 C   0  0  0  0  0  0  0  0  0  0  0  0
   14.3167   -3.9167    0.0000 O   0  0  0  0  0  0  0  0  0  0  0  0
    5.5750   -1.0792    0.0000 C   0  0  0  0  0  0  0  0  0  0  0  0
   15.6417   -3.6500    0.0000 C   0  0  0  0  0  0  0  0  0  0  0  0
   16.5167   -4.6292    0.0000 C   0  0  0  0  0  0  0  0  0  0  0  0
    0.4000   -6.8667    0.0000 C   0  0  0  0  0  0  0  0  0  0  0  0
    0.0000   -5.6000    0.0000 C   0  0  0  0  0  0  0  0  0  0  0  0
   17.8292   -4.3667    0.0000 C   0  0  0  0  0  0  0  0  0  0  0  0
  1  2  2  0
  1  3  1  0
  1  4  1  0
  2  5  1  0
  4  6  1  0
  3  7  1  0
  8 11  1  0
  8  9  1  0
  2 10  1  0
  5 11  1  0
  4 12  2  0
  9 13  1  0
 12 14  1  0
  9 15  2  0
 13 16  1  0
  5 17  1  0
 16 18  1  0
 19 24  2  0
 20 28  1  0
  6 21  1  0
 18 22  1  0
 18 23  2  0
 23 24  1  0
 22 25  2  0
  7 26  1  0
 19 27  1  0
 17 28  1  0
 27 29  1  0
 29 30  1  0
 21 31  2  0
 26 32  2  0
 30 33  1  0
  6  7  2  0
 10 14  2  0
 31 32  1  0
  8 20  1  0
 19 25  1  0
M  END
>  <MOLFORMULA>  (122) 
C26 H28 N4 O3

>  <MOLWEIGHT>  (122) 
4.445322000000000e+002

>  <IDNUMBER>  (122) 
AT-687/PE16773

>  <PRICE>  (122) 
EUR 80/10 mg

>  <Similarity score>  (122) 
0.20

$$$$

     RDKit          2D

 38 43  0  0  0  0  0  0  0  0999 V2000
   -1.0000   -2.7458    0.0000 C   0  0  0  0  0  0  0  0  0  0  0  0
   -0.4833   -3.6000    0.0000 C   0  0  0  0  0  0  0  0  0  0  0  0
   -2.0000   -2.7708    0.0000 C   0  0  0  0  0  0  0  0  0  0  0  0
   -0.5208   -1.8708    0.0000 N   0  0  0  0  0  0  0  0  0  0  0  0
   -0.9625   -4.4792    0.0000 C   0  0  0  0  0  0  0  0  0  0  0  0
   -2.4833   -3.6458    0.0000 N   0  0  0  0  0  0  0  0  0  0  0  0
   -1.9625   -4.5000    0.0000 C   0  0  0  0  0  0  0  0  0  0  0  0
   -0.5625   -0.1375    0.0000 C   0  0  0  0  0  0  0  0  0  0  0  0
   -2.3875    5.2292    0.0000 N   0  0  0  0  0  0  0  0  0  0  0  0
   -1.0417   -1.0167    0.0000 C   0  0  0  0  0  0  0  0  0  0  0  0
   -1.0792    0.7167    0.0000 C   0  0  0  0  0  0  0  0  0  0  0  0
   -2.1583    4.2583    0.0000 C   0  0  0  0  0  0  0  0  0  0  0  0
   -1.1583    4.1750    0.0000 C   0  0  0  0  0  0  0  0  0  0  0  0
   -0.7750    5.1000    0.0000 C   0  0  0  0  0  0  0  0  0  0  0  0
   -1.5333    5.7500    0.0000 C   0  0  0  0  0  0  0  0  0  0  0  0
   -0.4417   -5.3333    0.0000 C   0  0  0  0  0  0  0  0  0  0  0  0
    0.5167   -3.5792    0.0000 C   0  0  0  0  0  0  0  0  0  0  0  0
   -2.5208   -1.9167    0.0000 O   0  0  0  0  0  0  0  0  0  0  0  0
   -2.0792    0.6958    0.0000 O   0  0  0  0  0  0  0  0  0  0  0  0
   -2.4417   -5.3792    0.0000 C   0  0  0  0  0  0  0  0  0  0  0  0
   -0.6000    1.5958    0.0000 N   0  0  0  0  0  0  0  0  0  0  0  0
    0.4792   -1.8458    0.0000 C   0  0  0  0  0  0  0  0  0  0  0  0
   -0.9208   -6.2083    0.0000 C   0  0  0  0  0  0  0  0  0  0  0  0
   -1.9208   -6.2333    0.0000 C   0  0  0  0  0  0  0  0  0  0  0  0
   -0.4042   -7.0625    0.0000 Cl  0  0  0  0  0  0  0  0  0  0  0  0
    0.4375   -0.1167    0.0000 C   0  0  0  0  0  0  0  0  0  0  0  0
   -1.1208    2.4500    0.0000 C   0  0  0  0  0  0  0  0  0  0  0  0
   -0.6417    3.3250    0.0000 C   0  0  0  0  0  0  0  0  0  0  0  0
    0.9583   -0.9708    0.0000 C   0  0  0  0  0  0  0  0  0  0  0  0
    0.1708    5.4292    0.0000 C   0  0  0  0  0  0  0  0  0  0  0  0
   -1.3458    6.7333    0.0000 C   0  0  0  0  0  0  0  0  0  0  0  0
    0.9958   -2.7000    0.0000 C   0  0  0  0  0  0  0  0  0  0  0  0
    1.0375   -4.4333    0.0000 C   0  0  0  0  0  0  0  0  0  0  0  0
    0.3542    6.4125    0.0000 C   0  0  0  0  0  0  0  0  0  0  0  0
   -0.4042    7.0625    0.0000 C   0  0  0  0  0  0  0  0  0  0  0  0
    2.0375   -4.4083    0.0000 C   0  0  0  0  0  0  0  0  0  0  0  0
    1.9958   -2.6792    0.0000 C   0  0  0  0  0  0  0  0  0  0  0  0
    2.5167   -3.5333    0.0000 C   0  0  0  0  0  0  0  0  0  0  0  0
  1  2  2  0
  1  3  1  0
  1  4  1  0
  2  5  1  0
  3  6  1  0
  6  7  1  0
  8 10  1  0
  9 12  1  0
  4 10  1  0
  8 11  1  0
 12 13  2  0
 13 28  1  0
 13 14  1  0
 14 15  2  0
  5 16  1  0
  2 17  1  0
  3 18  2  0
 11 19  2  0
  7 20  1  0
 11 21  1  0
  4 22  1  0
 16 23  2  0
 20 24  2  0
 23 25  1  0
 26 29  1  0
 21 27  1  0
 27 28  1  0
 22 29  1  0
 14 30  1  0
 15 31  1  0
 17 32  1  0
 17 33  2  0
 30 34  2  0
 34 35  1  0
 33 36  1  0
 32 37  2  0
 36 38  2  0
  5  7  2  0
  8 26  1  0
 23 24  1  0
 37 38  1  0
  9 15  1  0
 31 35  2  0
M  END
>  <MOLFORMULA>  (123) 
C31 H29 Cl N4 O2

>  <MOLWEIGHT>  (123) 
5.250491000000000e+002

>  <IDNUMBER>  (123) 
AN-153/I261776

>  <PRICE>  (123) 
EUR 130/10 mg

>  <Similarity score>  (123) 
0.20

$$$$

     RDKit          2D

 34 38  0  0  0  0  0  0  0  0999 V2000
   -3.3208    2.1875    0.0000 C   0  0  0  0  0  0  0  0  0  0  0  0
   -3.3125    1.3583    0.0000 C   0  0  0  0  0  0  0  0  0  0  0  0
   -1.8833    2.1875    0.0000 C   0  0  0  0  0  0  0  0  0  0  0  0
   -2.6083    2.6083    0.0000 N   0  0  0  0  0  0  0  0  0  0  0  0
   -1.8833    1.3583    0.0000 N   0  0  0  0  0  0  0  0  0  0  0  0
   -2.6000    0.9458    0.0000 C   0  0  0  0  0  0  0  0  0  0  0  0
   -4.1000    2.4333    0.0000 C   0  0  0  0  0  0  0  0  0  0  0  0
   -4.0958    1.1000    0.0000 S   0  0  0  0  0  0  0  0  0  0  0  0
   -1.1708    2.6000    0.0000 N   0  0  0  0  0  0  0  0  0  0  0  0
   -4.5833    1.7708    0.0000 C   0  0  0  0  0  0  0  0  0  0  0  0
    0.2542    2.5958    0.0000 C   0  0  0  0  0  0  0  0  0  0  0  0
    0.9750    2.1750    0.0000 C   0  0  0  0  0  0  0  0  0  0  0  0
   -0.4583    2.1833    0.0000 C   0  0  0  0  0  0  0  0  0  0  0  0
    1.6917    2.5875    0.0000 N   0  0  0  0  0  0  0  0  0  0  0  0
    3.1042    0.1208    0.0000 C   0  0  0  0  0  0  0  0  0  0  0  0
   -4.3625    3.2208    0.0000 C   0  0  0  0  0  0  0  0  0  0  0  0
   -2.6000    0.1208    0.0000 O   0  0  0  0  0  0  0  0  0  0  0  0
    2.3792   -0.2917    0.0000 C   0  0  0  0  0  0  0  0  0  0  0  0
    0.9667    1.3500    0.0000 O   0  0  0  0  0  0  0  0  0  0  0  0
    3.1042    0.9333    0.0000 C   0  0  0  0  0  0  0  0  0  0  0  0
    1.6667    0.1208    0.0000 C   0  0  0  0  0  0  0  0  0  0  0  0
    2.4000    1.3583    0.0000 C   0  0  0  0  0  0  0  0  0  0  0  0
    2.4042    2.1708    0.0000 C   0  0  0  0  0  0  0  0  0  0  0  0
    3.8250   -0.3000    0.0000 Cl  0  0  0  0  0  0  0  0  0  0  0  0
   -1.1708    3.4208    0.0000 C   0  0  0  0  0  0  0  0  0  0  0  0
    2.3750   -1.1250    0.0000 F   0  0  0  0  0  0  0  0  0  0  0  0
    1.6792    0.9583    0.0000 C   0  0  0  0  0  0  0  0  0  0  0  0
    0.2625    3.4208    0.0000 C   0  0  0  0  0  0  0  0  0  0  0  0
   -0.4583    3.8333    0.0000 C   0  0  0  0  0  0  0  0  0  0  0  0
   -3.8083    3.8375    0.0000 C   0  0  0  0  0  0  0  0  0  0  0  0
   -5.1708    3.3958    0.0000 C   0  0  0  0  0  0  0  0  0  0  0  0
   -4.0708    4.6167    0.0000 C   0  0  0  0  0  0  0  0  0  0  0  0
   -5.4333    4.1667    0.0000 C   0  0  0  0  0  0  0  0  0  0  0  0
   -4.8750    4.7792    0.0000 C   0  0  0  0  0  0  0  0  0  0  0  0
  1  2  2  0
  3  4  2  0
  1  4  1  0
  3  5  1  0
  2  6  1  0
  1  7  1  0
  2  8  1  0
  3  9  1  0
  7 10  2  0
 11 13  1  0
 11 12  1  0
  9 13  1  0
 12 14  1  0
 15 20  1  0
  7 16  1  0
  6 17  2  0
 18 21  1  0
 12 19  2  0
 20 22  2  0
 21 27  2  0
 22 23  1  0
 14 23  1  0
 15 24  1  0
  9 25  1  0
 18 26  1  0
 22 27  1  0
 28 29  1  0
 25 29  1  0
 16 30  1  0
 16 31  2  0
 30 32  2  0
 31 33  1  0
 33 34  2  0
  8 10  1  0
  5  6  1  0
 32 34  1  0
 11 28  1  0
 15 18  2  0
M  END
>  <MOLFORMULA>  (124) 
C25 H22 Cl F N4 O2 S

>  <MOLWEIGHT>  (124) 
4.969918000000000e+002

>  <IDNUMBER>  (124) 
AT-687/PE25951

>  <PRICE>  (124) 
EUR 80/10 mg

>  <Similarity score>  (124) 
0.20

$$$$

     RDKit          2D

 32 36  0  0  0  0  0  0  0  0999 V2000
    4.3292   -4.8750    0.0000 C   0  0  0  0  0  0  0  0  0  0  0  0
    5.6292   -4.5917    0.0000 C   0  0  0  0  0  0  0  0  0  0  0  0
    3.2542   -4.0917    0.0000 O   0  0  0  0  0  0  0  0  0  0  0  0
    3.9167   -6.1417    0.0000 C   0  0  0  0  0  0  0  0  0  0  0  0
    6.0500   -3.3417    0.0000 N   0  0  0  0  0  0  0  0  0  0  0  0
    2.6000   -6.1500    0.0000 C   0  0  0  0  0  0  0  0  0  0  0  0
    2.1750   -4.8917    0.0000 C   0  0  0  0  0  0  0  0  0  0  0  0
    7.7667   -1.8000    0.0000 C   0  0  0  0  0  0  0  0  0  0  0  0
    9.0750   -1.5417    0.0000 C   0  0  0  0  0  0  0  0  0  0  0  0
    6.5250   -5.6000    0.0000 N   0  0  0  0  0  0  0  0  0  0  0  0
    7.3750   -3.0667    0.0000 C   0  0  0  0  0  0  0  0  0  0  0  0
    4.8000   -7.1250    0.0000 N   0  0  0  0  0  0  0  0  0  0  0  0
    9.4917   -0.2500    0.0000 N   0  0  0  0  0  0  0  0  0  0  0  0
    6.1000   -6.8667    0.0000 C   0  0  0  0  0  0  0  0  0  0  0  0
    9.9750   -2.5250    0.0000 O   0  0  0  0  0  0  0  0  0  0  0  0
   10.7917   -0.0000    0.0000 C   0  0  0  0  0  0  0  0  0  0  0  0
    5.1667   -2.3500    0.0000 C   0  0  0  0  0  0  0  0  0  0  0  0
   12.9542   -0.7000    0.0000 C   0  0  0  0  0  0  0  0  0  0  0  0
   11.6500   -0.9667    0.0000 C   0  0  0  0  0  0  0  0  0  0  0  0
   13.8417   -1.6750    0.0000 C   0  0  0  0  0  0  0  0  0  0  0  0
    6.8792   -0.8042    0.0000 C   0  0  0  0  0  0  0  0  0  0  0  0
    1.7167   -7.1250    0.0000 C   0  0  0  0  0  0  0  0  0  0  0  0
    0.8750   -4.5917    0.0000 C   0  0  0  0  0  0  0  0  0  0  0  0
   15.1500   -1.3792    0.0000 O   0  0  0  0  0  0  0  0  0  0  0  0
    5.5792   -1.0917    0.0000 C   0  0  0  0  0  0  0  0  0  0  0  0
   12.1250   -3.2000    0.0000 C   0  0  0  0  0  0  0  0  0  0  0  0
   11.2417   -2.2167    0.0000 C   0  0  0  0  0  0  0  0  0  0  0  0
   13.4250   -2.9500    0.0000 C   0  0  0  0  0  0  0  0  0  0  0  0
   16.0250   -2.3750    0.0000 C   0  0  0  0  0  0  0  0  0  0  0  0
    0.3917   -6.8500    0.0000 C   0  0  0  0  0  0  0  0  0  0  0  0
    0.0000   -5.6000    0.0000 C   0  0  0  0  0  0  0  0  0  0  0  0
   17.3500   -2.0917    0.0000 C   0  0  0  0  0  0  0  0  0  0  0  0
  1  2  2  0
  1  3  1  0
  1  4  1  0
  2  5  1  0
  4  6  1  0
  3  7  1  0
  8 11  1  0
  8  9  1  0
  2 10  1  0
  5 11  1  0
  4 12  2  0
  9 13  1  0
 12 14  1  0
  9 15  2  0
 13 16  1  0
  5 17  1  0
 18 19  2  0
 16 19  1  0
 18 20  1  0
 21 25  1  0
  6 22  1  0
  7 23  1  0
 20 24  1  0
 17 25  1  0
 26 27  2  0
 19 27  1  0
 26 28  1  0
 24 29  1  0
 22 30  2  0
 23 31  2  0
 29 32  1  0
  6  7  2  0
 10 14  2  0
 30 31  1  0
  8 21  1  0
 20 28  2  0
M  END
>  <MOLFORMULA>  (125) 
C25 H26 N4 O3

>  <MOLWEIGHT>  (125) 
4.305054000000000e+002

>  <IDNUMBER>  (125) 
AT-687/PE16771

>  <PRICE>  (125) 
EUR 80/10 mg

>  <Similarity score>  (125) 
0.20

$$$$

     RDKit          2D

 30 34  0  0  0  0  0  0  0  0999 V2000
    4.3292   -4.8750    0.0000 C   0  0  0  0  0  0  0  0  0  0  0  0
    5.6417   -4.6000    0.0000 C   0  0  0  0  0  0  0  0  0  0  0  0
    3.2542   -4.0917    0.0000 O   0  0  0  0  0  0  0  0  0  0  0  0
    3.9167   -6.1417    0.0000 C   0  0  0  0  0  0  0  0  0  0  0  0
    6.0500   -3.3500    0.0000 N   0  0  0  0  0  0  0  0  0  0  0  0
    2.5917   -6.1500    0.0000 C   0  0  0  0  0  0  0  0  0  0  0  0
    2.1750   -4.8750    0.0000 C   0  0  0  0  0  0  0  0  0  0  0  0
    7.7750   -1.8167    0.0000 C   0  0  0  0  0  0  0  0  0  0  0  0
    9.0750   -1.5250    0.0000 C   0  0  0  0  0  0  0  0  0  0  0  0
    6.5250   -5.6000    0.0000 N   0  0  0  0  0  0  0  0  0  0  0  0
    7.3500   -3.0750    0.0000 C   0  0  0  0  0  0  0  0  0  0  0  0
    4.8042   -7.1250    0.0000 N   0  0  0  0  0  0  0  0  0  0  0  0
    9.4917   -0.2500    0.0000 N   0  0  0  0  0  0  0  0  0  0  0  0
    6.1042   -6.8750    0.0000 C   0  0  0  0  0  0  0  0  0  0  0  0
    9.9667   -2.5167    0.0000 O   0  0  0  0  0  0  0  0  0  0  0  0
   10.7667   -0.0000    0.0000 C   0  0  0  0  0  0  0  0  0  0  0  0
    5.1667   -2.3542    0.0000 C   0  0  0  0  0  0  0  0  0  0  0  0
   13.4250   -2.9500    0.0000 C   0  0  0  0  0  0  0  0  0  0  0  0
   11.6667   -0.9667    0.0000 C   0  0  0  0  0  0  0  0  0  0  0  0
   14.3167   -3.9500    0.0000 F   0  0  0  0  0  0  0  0  0  0  0  0
    6.8792   -0.8042    0.0000 C   0  0  0  0  0  0  0  0  0  0  0  0
    1.7000   -7.1250    0.0000 C   0  0  0  0  0  0  0  0  0  0  0  0
   12.1250   -3.2250    0.0000 C   0  0  0  0  0  0  0  0  0  0  0  0
   13.8500   -1.6792    0.0000 C   0  0  0  0  0  0  0  0  0  0  0  0
   11.2500   -2.2167    0.0000 C   0  0  0  0  0  0  0  0  0  0  0  0
   12.9750   -0.7000    0.0000 C   0  0  0  0  0  0  0  0  0  0  0  0
    0.8792   -4.6000    0.0000 C   0  0  0  0  0  0  0  0  0  0  0  0
    5.5750   -1.0792    0.0000 C   0  0  0  0  0  0  0  0  0  0  0  0
    0.4000   -6.8500    0.0000 C   0  0  0  0  0  0  0  0  0  0  0  0
    0.0000   -5.6000    0.0000 C   0  0  0  0  0  0  0  0  0  0  0  0
  1  2  2  0
  1  3  1  0
  1  4  1  0
  2  5  1  0
  4  6  1  0
  3  7  1  0
  8 11  1  0
  8  9  1  0
  2 10  1  0
  5 11  1  0
  4 12  2  0
  9 13  1  0
 12 14  1  0
  9 15  2  0
 13 16  1  0
  5 17  1  0
 18 24  2  0
 16 19  1  0
 18 20  1  0
 21 28  1  0
  6 22  1  0
 23 25  2  0
 24 26  1  0
 19 25  1  0
 19 26  2  0
  7 27  1  0
 17 28  1  0
 22 29  2  0
 27 30  2  0
  6  7  2  0
 10 14  2  0
 29 30  1  0
  8 21  1  0
 18 23  1  0
M  END
>  <MOLFORMULA>  (126) 
C23 H21 F N4 O2

>  <MOLWEIGHT>  (126) 
4.044429000000000e+002

>  <IDNUMBER>  (126) 
AT-687/PE16776

>  <PRICE>  (126) 
EUR 80/10 mg

>  <Similarity score>  (126) 
0.19

$$$$

     RDKit          2D

 30 34  0  0  0  0  0  0  0  0999 V2000
    4.3417   -4.6792    0.0000 C   0  0  0  0  0  0  0  0  0  0  0  0
    5.6417   -4.4250    0.0000 C   0  0  0  0  0  0  0  0  0  0  0  0
    3.2667   -3.9000    0.0000 O   0  0  0  0  0  0  0  0  0  0  0  0
    3.9250   -5.9500    0.0000 C   0  0  0  0  0  0  0  0  0  0  0  0
    6.0542   -3.1542    0.0000 N   0  0  0  0  0  0  0  0  0  0  0  0
    2.6000   -5.9667    0.0000 C   0  0  0  0  0  0  0  0  0  0  0  0
    9.0750   -1.3292    0.0000 C   0  0  0  0  0  0  0  0  0  0  0  0
    2.1750   -4.6792    0.0000 C   0  0  0  0  0  0  0  0  0  0  0  0
    7.7750   -1.6167    0.0000 C   0  0  0  0  0  0  0  0  0  0  0  0
    6.5250   -5.4000    0.0000 N   0  0  0  0  0  0  0  0  0  0  0  0
    7.3667   -2.8667    0.0000 C   0  0  0  0  0  0  0  0  0  0  0  0
    9.9500   -2.3167    0.0000 N   0  0  0  0  0  0  0  0  0  0  0  0
    4.8042   -6.9500    0.0000 N   0  0  0  0  0  0  0  0  0  0  0  0
    6.1250   -6.6667    0.0000 C   0  0  0  0  0  0  0  0  0  0  0  0
    9.5000   -0.0750    0.0000 O   0  0  0  0  0  0  0  0  0  0  0  0
   11.2500   -2.0417    0.0000 C   0  0  0  0  0  0  0  0  0  0  0  0
    5.1667   -2.1542    0.0000 C   0  0  0  0  0  0  0  0  0  0  0  0
   13.8667   -1.5250    0.0000 C   0  0  0  0  0  0  0  0  0  0  0  0
    6.8792   -0.6167    0.0000 C   0  0  0  0  0  0  0  0  0  0  0  0
    1.7042   -6.9500    0.0000 C   0  0  0  0  0  0  0  0  0  0  0  0
   12.1500   -3.0500    0.0000 C   0  0  0  0  0  0  0  0  0  0  0  0
   11.7000   -0.7917    0.0000 C   0  0  0  0  0  0  0  0  0  0  0  0
   12.9917   -0.5417    0.0000 C   0  0  0  0  0  0  0  0  0  0  0  0
   13.4500   -2.7792    0.0000 C   0  0  0  0  0  0  0  0  0  0  0  0
    0.8792   -4.4000    0.0000 C   0  0  0  0  0  0  0  0  0  0  0  0
   15.1542   -1.2750    0.0000 O   0  0  0  0  0  0  0  0  0  0  0  0
    5.5917   -0.8792    0.0000 C   0  0  0  0  0  0  0  0  0  0  0  0
   15.5750   -0.0000    0.0000 C   0  0  0  0  0  0  0  0  0  0  0  0
    0.4000   -6.6667    0.0000 C   0  0  0  0  0  0  0  0  0  0  0  0
    0.0000   -5.4000    0.0000 C   0  0  0  0  0  0  0  0  0  0  0  0
  1  2  2  0
  1  3  1  0
  1  4  1  0
  2  5  1  0
  4  6  1  0
  7  9  1  0
  3  8  1  0
  9 11  1  0
  2 10  1  0
  5 11  1  0
  7 12  1  0
  4 13  2  0
 13 14  1  0
  7 15  2  0
 12 16  1  0
  5 17  1  0
 18 23  2  0
 19 27  1  0
  6 20  1  0
 16 21  1  0
 16 22  2  0
 22 23  1  0
 21 24  2  0
  8 25  1  0
 18 26  1  0
 17 27  1  0
 26 28  1  0
 20 29  2  0
 25 30  2  0
  6  8  2  0
 10 14  2  0
 29 30  1  0
  9 19  1  0
 18 24  1  0
M  END
>  <MOLFORMULA>  (127) 
C23 H22 N4 O3

>  <MOLWEIGHT>  (127) 
4.024518000000000e+002

>  <IDNUMBER>  (127) 
AT-687/PE16753

>  <PRICE>  (127) 
EUR 80/10 mg

>  <Similarity score>  (127) 
0.19

$$$$

     RDKit          2D

 28 32  0  0  0  0  0  0  0  0999 V2000
   -0.5333   -0.4667    0.0000 C   0  0  0  0  0  0  0  0  0  0  0  0
   -0.5458   -1.4667    0.0000 C   0  0  0  0  0  0  0  0  0  0  0  0
    1.2000   -0.4792    0.0000 C   0  0  0  0  0  0  0  0  0  0  0  0
    0.3375    0.0333    0.0000 N   0  0  0  0  0  0  0  0  0  0  0  0
    1.1917   -1.4792    0.0000 N   0  0  0  0  0  0  0  0  0  0  0  0
   -1.4833   -0.1542    0.0000 C   0  0  0  0  0  0  0  0  0  0  0  0
    0.3167   -1.9792    0.0000 C   0  0  0  0  0  0  0  0  0  0  0  0
   -1.4875   -1.7667    0.0000 S   0  0  0  0  0  0  0  0  0  0  0  0
    2.0667    0.0083    0.0000 N   0  0  0  0  0  0  0  0  0  0  0  0
   -2.0750   -0.9625    0.0000 C   0  0  0  0  0  0  0  0  0  0  0  0
   -1.7875    0.7958    0.0000 C   0  0  0  0  0  0  0  0  0  0  0  0
    2.0917    1.0208    0.0000 C   0  0  0  0  0  0  0  0  0  0  0  0
    2.9542    1.4958    0.0000 C   0  0  0  0  0  0  0  0  0  0  0  0
    0.3042   -2.9792    0.0000 O   0  0  0  0  0  0  0  0  0  0  0  0
    2.9375   -0.4917    0.0000 C   0  0  0  0  0  0  0  0  0  0  0  0
   -2.7708    1.0208    0.0000 C   0  0  0  0  0  0  0  0  0  0  0  0
    3.8167    0.9958    0.0000 C   0  0  0  0  0  0  0  0  0  0  0  0
    3.8042   -0.0125    0.0000 C   0  0  0  0  0  0  0  0  0  0  0  0
   -3.0750    1.9583    0.0000 C   0  0  0  0  0  0  0  0  0  0  0  0
   -1.1083    1.5333    0.0000 C   0  0  0  0  0  0  0  0  0  0  0  0
   -4.0333    2.1833    0.0000 O   0  0  0  0  0  0  0  0  0  0  0  0
   -1.4208    2.4833    0.0000 C   0  0  0  0  0  0  0  0  0  0  0  0
    2.9542    2.4833    0.0000 C   0  0  0  0  0  0  0  0  0  0  0  0
    4.6917    1.4958    0.0000 C   0  0  0  0  0  0  0  0  0  0  0  0
   -2.3958    2.6958    0.0000 C   0  0  0  0  0  0  0  0  0  0  0  0
   -4.7083    1.4375    0.0000 C   0  0  0  0  0  0  0  0  0  0  0  0
    3.8167    2.9875    0.0000 C   0  0  0  0  0  0  0  0  0  0  0  0
    4.7000    2.4958    0.0000 C   0  0  0  0  0  0  0  0  0  0  0  0
  1  2  2  0
  3  4  2  0
  1  4  1  0
  3  5  1  0
  1  6  1  0
  2  7  1  0
  2  8  1  0
  3  9  1  0
  6 10  2  0
  6 11  1  0
  9 12  1  0
 12 13  1  0
  7 14  2  0
  9 15  1  0
 11 16  2  0
 17 18  1  0
 15 18  1  0
 16 19  1  0
 11 20  1  0
 19 21  1  0
 20 22  2  0
 13 23  1  0
 17 24  1  0
 22 25  1  0
 21 26  1  0
 23 27  2  0
 24 28  2  0
  8 10  1  0
  5  7  1  0
 19 25  2  0
 13 17  2  0
 27 28  1  0
M  END
>  <MOLFORMULA>  (128) 
C22 H19 N3 O2 S

>  <MOLWEIGHT>  (128) 
3.894771000000000e+002

>  <IDNUMBER>  (128) 
AT-687/PE25847

>  <PRICE>  (128) 
EUR 80/10 mg

>  <Similarity score>  (128) 
0.19

$$$$

     RDKit          2D

 36 40  0  0  0  0  0  0  0  0999 V2000
    8.0625   -3.9667    0.0000 S   0  0  0  0  0  0  0  0  0  0  0  0
    8.0625   -5.3042    0.0000 C   0  0  0  0  0  0  0  0  0  0  0  0
    6.9000   -5.9792    0.0000 C   0  0  0  0  0  0  0  0  0  0  0  0
    6.9000   -7.3042    0.0000 C   0  0  0  0  0  0  0  0  0  0  0  0
    5.7625   -5.3042    0.0000 N   0  0  0  0  0  0  0  0  0  0  0  0
    8.0625   -2.6500    0.0000 C   0  0  0  0  0  0  0  0  0  0  0  0
    9.2125   -5.9792    0.0000 C   0  0  0  0  0  0  0  0  0  0  0  0
    9.2125   -7.3042    0.0000 N   0  0  0  0  0  0  0  0  0  0  0  0
    9.2125   -1.9875    0.0000 C   0  0  0  0  0  0  0  0  0  0  0  0
    6.9000   -1.9875    0.0000 C   0  0  0  0  0  0  0  0  0  0  0  0
    8.0625   -7.9792    0.0000 C   0  0  0  0  0  0  0  0  0  0  0  0
    6.7292   -3.9667    0.0000 O   0  0  0  0  0  0  0  0  0  0  0  0
    9.3875   -3.9667    0.0000 O   0  0  0  0  0  0  0  0  0  0  0  0
    2.3000   -7.3042    0.0000 N   0  0  0  0  0  0  0  0  0  0  0  0
    4.6042   -5.9667    0.0000 C   0  0  0  0  0  0  0  0  0  0  0  0
    5.7625   -7.9792    0.0000 C   0  0  0  0  0  0  0  0  0  0  0  0
    9.2125   -0.6625    0.0000 C   0  0  0  0  0  0  0  0  0  0  0  0
    6.9000   -0.6625    0.0000 C   0  0  0  0  0  0  0  0  0  0  0  0
    4.6042   -7.3042    0.0000 C   0  0  0  0  0  0  0  0  0  0  0  0
    8.0625   -0.0000    0.0000 C   0  0  0  0  0  0  0  0  0  0  0  0
    3.4542   -7.9792    0.0000 C   0  0  0  0  0  0  0  0  0  0  0  0
    0.0000   -5.9667    0.0000 O   0  0  0  0  0  0  0  0  0  0  0  0
    8.0625   -9.3042    0.0000 C   0  0  0  0  0  0  0  0  0  0  0  0
    5.7625   -9.3042    0.0000 C   0  0  0  0  0  0  0  0  0  0  0  0
    5.7625   -3.9667    0.0000 C   0  0  0  0  0  0  0  0  0  0  0  0
   10.3625   -0.0000    0.0000 F   0  0  0  0  0  0  0  0  0  0  0  0
    5.7625   -0.0000    0.0000 F   0  0  0  0  0  0  0  0  0  0  0  0
    6.9000   -9.9542    0.0000 C   0  0  0  0  0  0  0  0  0  0  0  0
    4.6042   -9.9542    0.0000 F   0  0  0  0  0  0  0  0  0  0  0  0
    1.1500   -7.9792    0.0000 C   0  0  0  0  0  0  0  0  0  0  0  0
    2.3000   -5.9667    0.0000 C   0  0  0  0  0  0  0  0  0  0  0  0
    1.1500   -5.3042    0.0000 C   0  0  0  0  0  0  0  0  0  0  0  0
    0.0000   -7.2917    0.0000 C   0  0  0  0  0  0  0  0  0  0  0  0
    3.4542   -5.3042    0.0000 C   0  0  0  0  0  0  0  0  0  0  0  0
    4.6042   -3.3042    0.0000 C   0  0  0  0  0  0  0  0  0  0  0  0
    3.4542   -3.9667    0.0000 C   0  0  0  0  0  0  0  0  0  0  0  0
  1  2  1  0
  2  3  2  0
  3  4  1  0
  3  5  1  0
  1  6  1  0
  2  7  1  0
  7  8  2  0
  6  9  2  0
  6 10  1  0
  8 11  1  0
  1 12  2  0
  1 13  2  0
 14 21  1  0
  5 15  1  0
  4 16  2  0
  9 17  1  0
 10 18  2  0
 15 19  1  0
 18 20  1  0
 19 21  1  0
 22 32  1  0
 11 23  2  0
 16 24  1  0
  5 25  1  0
 17 26  1  0
 18 27  1  0
 23 28  1  0
 24 29  1  0
 14 30  1  0
 14 31  1  0
 31 32  1  0
 30 33  1  0
 15 34  1  0
 25 35  1  0
 35 36  1  0
 17 20  2  0
  4 11  1  0
 24 28  2  0
 34 36  1  0
 22 33  1  0
M  END
>  <MOLFORMULA>  (129) 
C26 H28 F3 N3 O3 S

>  <MOLWEIGHT>  (129) 
5.195852000000000e+002

>  <IDNUMBER>  (129) 
AT-687/NB06803

>  <PRICE>  (129) 
EUR 80/10 mg

>  <Similarity score>  (129) 
0.19

$$$$

     RDKit          2D

 30 34  0  0  0  0  0  0  0  0999 V2000
    4.3417   -4.6000    0.0000 C   0  0  0  0  0  0  0  0  0  0  0  0
    5.6250   -4.3167    0.0000 C   0  0  0  0  0  0  0  0  0  0  0  0
    3.2667   -3.8042    0.0000 O   0  0  0  0  0  0  0  0  0  0  0  0
    3.9167   -5.8667    0.0000 C   0  0  0  0  0  0  0  0  0  0  0  0
    6.0500   -3.0667    0.0000 N   0  0  0  0  0  0  0  0  0  0  0  0
    2.6000   -5.8667    0.0000 C   0  0  0  0  0  0  0  0  0  0  0  0
    9.0750   -1.2500    0.0000 C   0  0  0  0  0  0  0  0  0  0  0  0
    2.1750   -4.6000    0.0000 C   0  0  0  0  0  0  0  0  0  0  0  0
    7.7667   -1.5250    0.0000 C   0  0  0  0  0  0  0  0  0  0  0  0
    6.5250   -5.3042    0.0000 N   0  0  0  0  0  0  0  0  0  0  0  0
    7.3500   -2.7750    0.0000 C   0  0  0  0  0  0  0  0  0  0  0  0
    9.9417   -2.2292    0.0000 N   0  0  0  0  0  0  0  0  0  0  0  0
    4.7917   -6.8500    0.0000 N   0  0  0  0  0  0  0  0  0  0  0  0
    6.1167   -6.5750    0.0000 C   0  0  0  0  0  0  0  0  0  0  0  0
   13.4417   -2.6750    0.0000 C   0  0  0  0  0  0  0  0  0  0  0  0
   11.2500   -1.9500    0.0000 C   0  0  0  0  0  0  0  0  0  0  0  0
    9.4917   -0.0000    0.0000 O   0  0  0  0  0  0  0  0  0  0  0  0
   12.1250   -2.9667    0.0000 C   0  0  0  0  0  0  0  0  0  0  0  0
   13.8500   -1.4292    0.0000 C   0  0  0  0  0  0  0  0  0  0  0  0
   12.9500   -0.4292    0.0000 C   0  0  0  0  0  0  0  0  0  0  0  0
    5.1542   -2.0667    0.0000 C   0  0  0  0  0  0  0  0  0  0  0  0
   11.6667   -0.7000    0.0000 C   0  0  0  0  0  0  0  0  0  0  0  0
    6.8792   -0.5417    0.0000 C   0  0  0  0  0  0  0  0  0  0  0  0
    1.7000   -6.8500    0.0000 C   0  0  0  0  0  0  0  0  0  0  0  0
    0.8917   -4.3042    0.0000 C   0  0  0  0  0  0  0  0  0  0  0  0
    5.5750   -0.8000    0.0000 C   0  0  0  0  0  0  0  0  0  0  0  0
   14.3167   -3.6917    0.0000 C   0  0  0  0  0  0  0  0  0  0  0  0
   15.1292   -1.1500    0.0000 C   0  0  0  0  0  0  0  0  0  0  0  0
    0.4000   -6.5750    0.0000 C   0  0  0  0  0  0  0  0  0  0  0  0
    0.0000   -5.3042    0.0000 C   0  0  0  0  0  0  0  0  0  0  0  0
  1  2  2  0
  1  3  1  0
  1  4  1  0
  2  5  1  0
  4  6  1  0
  7  9  1  0
  3  8  1  0
  9 11  1  0
  2 10  1  0
  5 11  1  0
  7 12  1  0
  4 13  2  0
 13 14  1  0
 15 18  1  0
 12 16  1  0
  7 17  2  0
 16 18  2  0
 19 20  1  0
 20 22  2  0
  5 21  1  0
 16 22  1  0
 23 26  1  0
  6 24  1  0
  8 25  1  0
 21 26  1  0
 15 27  1  0
 19 28  1  0
 24 29  2  0
 25 30  2  0
  6  8  2  0
 10 14  2  0
 29 30  1  0
  9 23  1  0
 15 19  2  0
M  END
>  <MOLFORMULA>  (130) 
C24 H24 N4 O2

>  <MOLWEIGHT>  (130) 
4.004796000000000e+002

>  <IDNUMBER>  (130) 
AT-687/PE16751

>  <PRICE>  (130) 
EUR 80/10 mg

>  <Similarity score>  (130) 
0.19

$$$$

     RDKit          2D

 29 32  0  0  0  0  0  0  0  0999 V2000
    7.3042   -4.4042    0.0000 S   0  0  0  0  0  0  0  0  0  0  0  0
    5.9917   -4.4042    0.0000 C   0  0  0  0  0  0  0  0  0  0  0  0
    5.3250   -3.2542    0.0000 C   0  0  0  0  0  0  0  0  0  0  0  0
    5.9792   -2.1000    0.0000 N   0  0  0  0  0  0  0  0  0  0  0  0
    8.6500   -4.4042    0.0000 C   0  0  0  0  0  0  0  0  0  0  0  0
    3.9917   -3.2542    0.0000 C   0  0  0  0  0  0  0  0  0  0  0  0
    3.3292   -4.4042    0.0000 C   0  0  0  0  0  0  0  0  0  0  0  0
    4.0000   -5.5625    0.0000 N   0  0  0  0  0  0  0  0  0  0  0  0
    5.3250   -5.5625    0.0000 C   0  0  0  0  0  0  0  0  0  0  0  0
    9.3167   -5.5625    0.0000 C   0  0  0  0  0  0  0  0  0  0  0  0
    9.3042   -3.2542    0.0000 C   0  0  0  0  0  0  0  0  0  0  0  0
    7.3042   -3.0750    0.0000 O   0  0  0  0  0  0  0  0  0  0  0  0
    7.3042   -5.7292    0.0000 O   0  0  0  0  0  0  0  0  0  0  0  0
    3.3250   -2.1000    0.0000 C   0  0  0  0  0  0  0  0  0  0  0  0
    2.0000   -4.4042    0.0000 C   0  0  0  0  0  0  0  0  0  0  0  0
   10.6417   -5.5625    0.0000 C   0  0  0  0  0  0  0  0  0  0  0  0
   10.6417   -3.2542    0.0000 C   0  0  0  0  0  0  0  0  0  0  0  0
    7.3042   -1.9667    0.0000 C   0  0  0  0  0  0  0  0  0  0  0  0
   11.3042   -4.4042    0.0000 C   0  0  0  0  0  0  0  0  0  0  0  0
    1.3292   -3.2542    0.0000 C   0  0  0  0  0  0  0  0  0  0  0  0
    5.4500   -0.8917    0.0000 C   0  0  0  0  0  0  0  0  0  0  0  0
    1.9875   -2.1000    0.0000 C   0  0  0  0  0  0  0  0  0  0  0  0
   11.3042   -6.7042    0.0000 Cl  0  0  0  0  0  0  0  0  0  0  0  0
   11.2917   -2.1000    0.0000 Cl  0  0  0  0  0  0  0  0  0  0  0  0
    0.0000   -3.2542    0.0000 F   0  0  0  0  0  0  0  0  0  0  0  0
    9.5000   -2.6792    0.0000 O   0  0  0  0  0  0  0  0  0  0  0  0
    6.4292   -0.0000    0.0000 C   0  0  0  0  0  0  0  0  0  0  0  0
    8.2000   -2.9500    0.0000 C   0  0  0  0  0  0  0  0  0  0  0  0
    7.5875   -0.6667    0.0000 C   0  0  0  0  0  0  0  0  0  0  0  0
  1  2  1  0
  2  3  2  0
  3  4  1  0
  1  5  1  0
  3  6  1  0
  7  8  1  0
  8  9  2  0
  2  9  1  0
  5 10  2  0
  5 11  1  0
  1 12  2  0
  1 13  2  0
  6 14  2  0
  7 15  2  0
 10 16  1  0
 11 17  2  0
  4 18  1  0
 17 19  1  0
 15 20  1  0
  4 21  1  0
 14 22  1  0
 16 23  1  0
 17 24  1  0
 20 25  1  0
 26 28  1  0
 21 27  1  0
 18 28  1  0
 18 29  1  0
 16 19  2  0
  6  7  1  0
 20 22  2  0
 27 29  1  0
M  END
>  <MOLFORMULA>  (131) 
C20 H17 Cl2 F N2 O3 S

>  <MOLWEIGHT>  (131) 
4.553353000000000e+002

>  <IDNUMBER>  (131) 
AT-687/NB06820

>  <PRICE>  (131) 
EUR 80/10 mg

>  <Similarity score>  (131) 
0.19

$$$$

     RDKit          2D

 32 36  0  0  0  0  0  0  0  0999 V2000
    4.3250   -6.9542    0.0000 C   0  0  0  0  0  0  0  0  0  0  0  0
    5.6250   -6.6917    0.0000 C   0  0  0  0  0  0  0  0  0  0  0  0
    3.2542   -6.1750    0.0000 O   0  0  0  0  0  0  0  0  0  0  0  0
    3.9042   -8.2167    0.0000 C   0  0  0  0  0  0  0  0  0  0  0  0
    6.0500   -5.4292    0.0000 N   0  0  0  0  0  0  0  0  0  0  0  0
    2.5917   -8.2250    0.0000 C   0  0  0  0  0  0  0  0  0  0  0  0
    2.1750   -6.9750    0.0000 C   0  0  0  0  0  0  0  0  0  0  0  0
    7.7750   -3.8917    0.0000 C   0  0  0  0  0  0  0  0  0  0  0  0
    9.0750   -3.6250    0.0000 C   0  0  0  0  0  0  0  0  0  0  0  0
    6.5250   -7.6667    0.0000 N   0  0  0  0  0  0  0  0  0  0  0  0
    7.3667   -5.1500    0.0000 C   0  0  0  0  0  0  0  0  0  0  0  0
    4.8000   -9.2042    0.0000 N   0  0  0  0  0  0  0  0  0  0  0  0
    9.4750   -2.3292    0.0000 N   0  0  0  0  0  0  0  0  0  0  0  0
    6.1167   -8.9500    0.0000 C   0  0  0  0  0  0  0  0  0  0  0  0
   11.6500   -3.0500    0.0000 C   0  0  0  0  0  0  0  0  0  0  0  0
   10.7667   -2.0750    0.0000 C   0  0  0  0  0  0  0  0  0  0  0  0
    9.9667   -4.6000    0.0000 O   0  0  0  0  0  0  0  0  0  0  0  0
   12.9500   -2.7917    0.0000 C   0  0  0  0  0  0  0  0  0  0  0  0
    5.1542   -4.4292    0.0000 C   0  0  0  0  0  0  0  0  0  0  0  0
    6.8792   -2.9000    0.0000 C   0  0  0  0  0  0  0  0  0  0  0  0
    1.7000   -9.2042    0.0000 C   0  0  0  0  0  0  0  0  0  0  0  0
   13.3667   -1.5292    0.0000 O   0  0  0  0  0  0  0  0  0  0  0  0
    0.8792   -6.6917    0.0000 C   0  0  0  0  0  0  0  0  0  0  0  0
    5.5792   -3.1667    0.0000 C   0  0  0  0  0  0  0  0  0  0  0  0
   11.2292   -4.3000    0.0000 C   0  0  0  0  0  0  0  0  0  0  0  0
   13.8500   -3.7500    0.0000 C   0  0  0  0  0  0  0  0  0  0  0  0
   14.6750   -1.2667    0.0000 C   0  0  0  0  0  0  0  0  0  0  0  0
    0.4000   -8.9417    0.0000 C   0  0  0  0  0  0  0  0  0  0  0  0
    0.0000   -7.6667    0.0000 C   0  0  0  0  0  0  0  0  0  0  0  0
   15.1000   -0.0000    0.0000 C   0  0  0  0  0  0  0  0  0  0  0  0
   12.1250   -5.3167    0.0000 C   0  0  0  0  0  0  0  0  0  0  0  0
   13.4250   -5.0250    0.0000 C   0  0  0  0  0  0  0  0  0  0  0  0
  1  2  2  0
  1  3  1  0
  1  4  1  0
  2  5  1  0
  4  6  1  0
  3  7  1  0
  8 11  1  0
  8  9  1  0
  2 10  1  0
  5 11  1  0
  4 12  2  0
  9 13  1  0
 12 14  1  0
 15 16  1  0
 13 16  1  0
  9 17  2  0
 15 18  2  0
  5 19  1  0
 20 24  1  0
  6 21  1  0
 18 22  1  0
  7 23  1  0
 19 24  1  0
 15 25  1  0
 18 26  1  0
 22 27  1  0
 21 28  2  0
 23 29  2  0
 27 30  1  0
 25 31  2  0
 31 32  1  0
  6  7  2  0
 10 14  2  0
 28 29  1  0
  8 20  1  0
 26 32  2  0
M  END
>  <MOLFORMULA>  (132) 
C25 H26 N4 O3

>  <MOLWEIGHT>  (132) 
4.305054000000000e+002

>  <IDNUMBER>  (132) 
AT-687/PE16770

>  <PRICE>  (132) 
EUR 80/10 mg

>  <Similarity score>  (132) 
0.19

$$$$

     RDKit          2D

 36 40  0  0  0  0  0  0  0  0999 V2000
    1.0000    1.7333    0.0000 C   0  0  0  0  0  0  0  0  0  0  0  0
    0.4958    2.6000    0.0000 C   0  0  0  0  0  0  0  0  0  0  0  0
    1.9958    1.7333    0.0000 C   0  0  0  0  0  0  0  0  0  0  0  0
    0.4958    0.8667    0.0000 N   0  0  0  0  0  0  0  0  0  0  0  0
    1.0000    3.4667    0.0000 C   0  0  0  0  0  0  0  0  0  0  0  0
    2.5000    2.6000    0.0000 N   0  0  0  0  0  0  0  0  0  0  0  0
    1.9958    3.4667    0.0000 C   0  0  0  0  0  0  0  0  0  0  0  0
    0.4958   -0.8625    0.0000 C   0  0  0  0  0  0  0  0  0  0  0  0
    1.0000   -1.7292    0.0000 C   0  0  0  0  0  0  0  0  0  0  0  0
    1.0000   -0.0000    0.0000 C   0  0  0  0  0  0  0  0  0  0  0  0
    0.4958   -2.5958    0.0000 N   0  0  0  0  0  0  0  0  0  0  0  0
    0.4958    4.3292    0.0000 C   0  0  0  0  0  0  0  0  0  0  0  0
   -0.5000    2.6000    0.0000 C   0  0  0  0  0  0  0  0  0  0  0  0
    2.5000    0.8667    0.0000 O   0  0  0  0  0  0  0  0  0  0  0  0
    0.4958   -4.3292    0.0000 C   0  0  0  0  0  0  0  0  0  0  0  0
    1.0000   -3.4625    0.0000 C   0  0  0  0  0  0  0  0  0  0  0  0
    1.9958   -1.7292    0.0000 O   0  0  0  0  0  0  0  0  0  0  0  0
    2.5000    4.3292    0.0000 C   0  0  0  0  0  0  0  0  0  0  0  0
    1.0000   -5.1958    0.0000 C   0  0  0  0  0  0  0  0  0  0  0  0
   -0.5000    0.8667    0.0000 C   0  0  0  0  0  0  0  0  0  0  0  0
    1.0000    5.1958    0.0000 C   0  0  0  0  0  0  0  0  0  0  0  0
    1.9958    5.1958    0.0000 C   0  0  0  0  0  0  0  0  0  0  0  0
    0.4958    6.0583    0.0000 Cl  0  0  0  0  0  0  0  0  0  0  0  0
   -0.5000   -0.8625    0.0000 C   0  0  0  0  0  0  0  0  0  0  0  0
    1.9958   -5.1958    0.0000 O   0  0  0  0  0  0  0  0  0  0  0  0
   -1.0042   -0.0000    0.0000 C   0  0  0  0  0  0  0  0  0  0  0  0
   -0.5000   -4.3292    0.0000 C   0  0  0  0  0  0  0  0  0  0  0  0
   -1.0042    3.4667    0.0000 C   0  0  0  0  0  0  0  0  0  0  0  0
   -1.0042    1.7333    0.0000 C   0  0  0  0  0  0  0  0  0  0  0  0
    0.4958   -6.0583    0.0000 C   0  0  0  0  0  0  0  0  0  0  0  0
    2.5000   -6.0583    0.0000 C   0  0  0  0  0  0  0  0  0  0  0  0
   -1.0042   -5.1958    0.0000 C   0  0  0  0  0  0  0  0  0  0  0  0
   -0.5000   -6.0583    0.0000 C   0  0  0  0  0  0  0  0  0  0  0  0
   -2.0000    3.4667    0.0000 C   0  0  0  0  0  0  0  0  0  0  0  0
   -2.0000    1.7333    0.0000 C   0  0  0  0  0  0  0  0  0  0  0  0
   -2.5042    2.6000    0.0000 C   0  0  0  0  0  0  0  0  0  0  0  0
  1  2  2  0
  1  3  1  0
  1  4  1  0
  2  5  1  0
  3  6  1  0
  6  7  1  0
  8 10  1  0
  8  9  1  0
  4 10  1  0
  9 11  1  0
  5 12  1  0
  2 13  1  0
  3 14  2  0
 15 16  1  0
 11 16  1  0
  9 17  2  0
  7 18  1  0
 15 19  2  0
  4 20  1  0
 12 21  2  0
 18 22  2  0
 21 23  1  0
 24 26  1  0
 19 25  1  0
 20 26  1  0
 15 27  1  0
 13 28  2  0
 13 29  1  0
 19 30  1  0
 25 31  1  0
 27 32  2  0
 32 33  1  0
 28 34  1  0
 29 35  2  0
 35 36  1  0
  5  7  2  0
  8 24  1  0
 21 22  1  0
 34 36  2  0
 30 33  2  0
M  END
>  <MOLFORMULA>  (133) 
C29 H28 Cl N3 O3

>  <MOLWEIGHT>  (133) 
5.020112000000000e+002

>  <IDNUMBER>  (133) 
AN-153/I261764

>  <PRICE>  (133) 
EUR 130/10 mg

>  <Similarity score>  (133) 
0.19

$$$$

     RDKit          2D

 31 34  0  0  0  0  0  0  0  0999 V2000
    8.3167   -0.3917    0.0000 N   0  0  0  0  0  0  0  0  0  0  0  0
    8.3125    0.6083    0.0000 C   0  0  0  0  0  0  0  0  0  0  0  0
    6.5792    0.5958    0.0000 C   0  0  0  0  0  0  0  0  0  0  0  0
    7.4500    1.1000    0.0000 N   0  0  0  0  0  0  0  0  0  0  0  0
    7.4500   -0.9000    0.0000 C   0  0  0  0  0  0  0  0  0  0  0  0
    5.7125    1.1000    0.0000 N   0  0  0  0  0  0  0  0  0  0  0  0
    6.5792   -0.3917    0.0000 C   0  0  0  0  0  0  0  0  0  0  0  0
    4.8500    0.6000    0.0000 C   0  0  0  0  0  0  0  0  0  0  0  0
    3.9792    1.0958    0.0000 N   0  0  0  0  0  0  0  0  0  0  0  0
    9.3542   -0.9917    0.0000 C   0  0  0  0  0  0  0  0  0  0  0  0
    4.8542   -0.4042    0.0000 N   0  0  0  0  0  0  0  0  0  0  0  0
    3.1125    2.5958    0.0000 C   0  0  0  0  0  0  0  0  0  0  0  0
    5.7167   -0.9000    0.0000 C   0  0  0  0  0  0  0  0  0  0  0  0
    3.9792    2.1000    0.0000 C   0  0  0  0  0  0  0  0  0  0  0  0
    3.1125    3.5958    0.0000 C   0  0  0  0  0  0  0  0  0  0  0  0
    9.3542   -1.9917    0.0000 C   0  0  0  0  0  0  0  0  0  0  0  0
    9.1750    1.1083    0.0000 O   0  0  0  0  0  0  0  0  0  0  0  0
    7.4500   -1.5000    0.0000 O   0  0  0  0  0  0  0  0  0  0  0  0
   10.2292   -2.4917    0.0000 C   0  0  0  0  0  0  0  0  0  0  0  0
    3.9792    4.0917    0.0000 O   0  0  0  0  0  0  0  0  0  0  0  0
    2.2500    4.0792    0.0000 O   0  0  0  0  0  0  0  0  0  0  0  0
   11.0917   -1.9917    0.0000 F   0  0  0  0  0  0  0  0  0  0  0  0
    3.1167    0.5958    0.0000 C   0  0  0  0  0  0  0  0  0  0  0  0
    2.2500    2.0958    0.0000 C   0  0  0  0  0  0  0  0  0  0  0  0
    8.5000   -2.4917    0.0000 C   0  0  0  0  0  0  0  0  0  0  0  0
    2.2417    1.0958    0.0000 C   0  0  0  0  0  0  0  0  0  0  0  0
   10.2292   -3.4917    0.0000 C   0  0  0  0  0  0  0  0  0  0  0  0
    1.3792    3.5833    0.0000 C   0  0  0  0  0  0  0  0  0  0  0  0
    8.5000   -3.4917    0.0000 C   0  0  0  0  0  0  0  0  0  0  0  0
    0.5167    4.0750    0.0000 C   0  0  0  0  0  0  0  0  0  0  0  0
    9.3542   -3.9917    0.0000 C   0  0  0  0  0  0  0  0  0  0  0  0
  1  2  1  0
  3  7  2  0
  2  4  1  0
  1  5  1  0
  3  6  1  0
  5  7  1  0
  8 11  1  0
  8  9  1  0
  1 10  1  0
 11 13  2  0
 12 14  1  0
  7 13  1  0
  9 14  1  0
 12 15  1  0
 10 16  1  0
  2 17  2  0
  5 18  2  0
 16 19  2  0
 15 20  2  0
 15 21  1  0
 19 22  1  0
  9 23  1  0
 24 26  1  0
 16 25  1  0
 23 26  1  0
 19 27  1  0
 21 28  1  0
 25 29  2  0
 28 30  1  0
 29 31  1  0
  3  4  1  0
 27 31  2  0
  6  8  2  0
 12 24  1  0
M  END
>  <MOLFORMULA>  (134) 
C21 H22 F N5 O4

>  <MOLWEIGHT>  (134) 
4.274338000000000e+002

>  <IDNUMBER>  (134) 
AT-687/PE12739

>  <PRICE>  (134) 
EUR 80/10 mg

>  <Similarity score>  (134) 
0.19

$$$$

     RDKit          2D

 35 39  0  0  0  0  0  0  0  0999 V2000
   -3.3208    2.1875    0.0000 C   0  0  0  0  0  0  0  0  0  0  0  0
   -3.3125    1.3583    0.0000 C   0  0  0  0  0  0  0  0  0  0  0  0
   -1.8833    2.1875    0.0000 C   0  0  0  0  0  0  0  0  0  0  0  0
   -2.6083    2.6083    0.0000 N   0  0  0  0  0  0  0  0  0  0  0  0
   -1.8833    1.3583    0.0000 N   0  0  0  0  0  0  0  0  0  0  0  0
   -4.1000    2.4333    0.0000 C   0  0  0  0  0  0  0  0  0  0  0  0
   -2.6000    0.9458    0.0000 C   0  0  0  0  0  0  0  0  0  0  0  0
   -4.0958    1.1000    0.0000 S   0  0  0  0  0  0  0  0  0  0  0  0
   -1.1708    2.6000    0.0000 N   0  0  0  0  0  0  0  0  0  0  0  0
   -4.5833    1.7708    0.0000 C   0  0  0  0  0  0  0  0  0  0  0  0
   -4.3625    3.2208    0.0000 C   0  0  0  0  0  0  0  0  0  0  0  0
    0.2542    2.5958    0.0000 C   0  0  0  0  0  0  0  0  0  0  0  0
    0.9750    2.1750    0.0000 C   0  0  0  0  0  0  0  0  0  0  0  0
   -0.4583    2.1833    0.0000 C   0  0  0  0  0  0  0  0  0  0  0  0
   -5.1708    3.3958    0.0000 C   0  0  0  0  0  0  0  0  0  0  0  0
    1.6917    2.5875    0.0000 N   0  0  0  0  0  0  0  0  0  0  0  0
   -5.4333    4.1667    0.0000 C   0  0  0  0  0  0  0  0  0  0  0  0
    2.4000    1.3583    0.0000 C   0  0  0  0  0  0  0  0  0  0  0  0
   -2.6000    0.1208    0.0000 O   0  0  0  0  0  0  0  0  0  0  0  0
    3.0542    0.8583    0.0000 O   0  0  0  0  0  0  0  0  0  0  0  0
   -4.8750    4.7792    0.0000 C   0  0  0  0  0  0  0  0  0  0  0  0
   -3.8083    3.8375    0.0000 C   0  0  0  0  0  0  0  0  0  0  0  0
    0.9667    1.3500    0.0000 O   0  0  0  0  0  0  0  0  0  0  0  0
    1.7292    0.8750    0.0000 C   0  0  0  0  0  0  0  0  0  0  0  0
    2.7917    0.0750    0.0000 C   0  0  0  0  0  0  0  0  0  0  0  0
    1.9750    0.0833    0.0000 C   0  0  0  0  0  0  0  0  0  0  0  0
   -4.0708    4.6167    0.0000 C   0  0  0  0  0  0  0  0  0  0  0  0
    2.4042    2.1708    0.0000 C   0  0  0  0  0  0  0  0  0  0  0  0
   -1.1708    3.4208    0.0000 C   0  0  0  0  0  0  0  0  0  0  0  0
   -6.2167    4.3375    0.0000 O   0  0  0  0  0  0  0  0  0  0  0  0
    0.2625    3.4208    0.0000 C   0  0  0  0  0  0  0  0  0  0  0  0
   -5.1333    5.5667    0.0000 O   0  0  0  0  0  0  0  0  0  0  0  0
   -0.4583    3.8333    0.0000 C   0  0  0  0  0  0  0  0  0  0  0  0
   -6.7792    3.7333    0.0000 C   0  0  0  0  0  0  0  0  0  0  0  0
   -5.9458    5.7292    0.0000 C   0  0  0  0  0  0  0  0  0  0  0  0
  1  2  2  0
  3  4  2  0
  1  4  1  0
  3  5  1  0
  1  6  1  0
  2  7  1  0
  2  8  1  0
  3  9  1  0
  6 10  2  0
  6 11  1  0
 12 14  1  0
 12 13  1  0
  9 14  1  0
 11 15  2  0
 13 16  1  0
 15 17  1  0
 18 28  1  0
  7 19  2  0
 18 20  1  0
 21 27  1  0
 11 22  1  0
 13 23  2  0
 18 24  2  0
 20 25  1  0
 24 26  1  0
 22 27  2  0
 16 28  1  0
  9 29  1  0
 17 30  1  0
 31 33  1  0
 21 32  1  0
 29 33  1  0
 30 34  1  0
 32 35  1  0
  8 10  1  0
  5  7  1  0
 17 21  2  0
 12 31  1  0
 25 26  2  0
M  END
>  <MOLFORMULA>  (135) 
C25 H26 N4 O5 S

>  <MOLWEIGHT>  (135) 
4.945694000000000e+002

>  <IDNUMBER>  (135) 
AT-687/PE26008

>  <PRICE>  (135) 
EUR 80/10 mg

>  <Similarity score>  (135) 
0.19

$$$$

     RDKit          2D

 31 35  0  0  0  0  0  0  0  0999 V2000
    4.3292   -4.8750    0.0000 C   0  0  0  0  0  0  0  0  0  0  0  0
    5.6167   -4.6167    0.0000 C   0  0  0  0  0  0  0  0  0  0  0  0
    3.2542   -4.1000    0.0000 O   0  0  0  0  0  0  0  0  0  0  0  0
    3.9167   -6.1500    0.0000 C   0  0  0  0  0  0  0  0  0  0  0  0
    6.0500   -3.3500    0.0000 N   0  0  0  0  0  0  0  0  0  0  0  0
    2.5917   -6.1667    0.0000 C   0  0  0  0  0  0  0  0  0  0  0  0
    2.1750   -4.9000    0.0000 C   0  0  0  0  0  0  0  0  0  0  0  0
    7.7500   -1.8250    0.0000 C   0  0  0  0  0  0  0  0  0  0  0  0
    9.0667   -1.5417    0.0000 C   0  0  0  0  0  0  0  0  0  0  0  0
    6.5000   -5.6000    0.0000 N   0  0  0  0  0  0  0  0  0  0  0  0
    7.3500   -3.0750    0.0000 C   0  0  0  0  0  0  0  0  0  0  0  0
    4.7917   -7.1250    0.0000 N   0  0  0  0  0  0  0  0  0  0  0  0
    9.4750   -0.2750    0.0000 N   0  0  0  0  0  0  0  0  0  0  0  0
    6.1000   -6.8667    0.0000 C   0  0  0  0  0  0  0  0  0  0  0  0
    9.9500   -2.5250    0.0000 O   0  0  0  0  0  0  0  0  0  0  0  0
   10.7667   -0.0000    0.0000 C   0  0  0  0  0  0  0  0  0  0  0  0
    5.1500   -2.3667    0.0000 C   0  0  0  0  0  0  0  0  0  0  0  0
   11.6417   -0.9750    0.0000 C   0  0  0  0  0  0  0  0  0  0  0  0
   13.4000   -2.9750    0.0000 C   0  0  0  0  0  0  0  0  0  0  0  0
    6.8750   -0.8250    0.0000 C   0  0  0  0  0  0  0  0  0  0  0  0
    1.7000   -7.1250    0.0000 C   0  0  0  0  0  0  0  0  0  0  0  0
   12.9417   -0.7250    0.0000 C   0  0  0  0  0  0  0  0  0  0  0  0
   11.2000   -2.2417    0.0000 C   0  0  0  0  0  0  0  0  0  0  0  0
   12.1000   -3.2542    0.0000 C   0  0  0  0  0  0  0  0  0  0  0  0
   13.8250   -1.7000    0.0000 C   0  0  0  0  0  0  0  0  0  0  0  0
    0.8792   -4.6167    0.0000 C   0  0  0  0  0  0  0  0  0  0  0  0
    5.5667   -1.0917    0.0000 C   0  0  0  0  0  0  0  0  0  0  0  0
   14.3000   -3.9750    0.0000 C   0  0  0  0  0  0  0  0  0  0  0  0
    0.4000   -6.8667    0.0000 C   0  0  0  0  0  0  0  0  0  0  0  0
    0.0000   -5.6000    0.0000 C   0  0  0  0  0  0  0  0  0  0  0  0
   15.6042   -3.7000    0.0000 C   0  0  0  0  0  0  0  0  0  0  0  0
  1  2  2  0
  1  3  1  0
  1  4  1  0
  2  5  1  0
  4  6  1  0
  3  7  1  0
  8 11  1  0
  8  9  1  0
  2 10  1  0
  5 11  1  0
  4 12  2  0
  9 13  1  0
 12 14  1  0
  9 15  2  0
 13 16  1  0
  5 17  1  0
 16 18  1  0
 19 24  2  0
 20 27  1  0
  6 21  1  0
 18 22  1  0
 18 23  2  0
 23 24  1  0
 22 25  2  0
  7 26  1  0
 17 27  1  0
 19 28  1  0
 21 29  2  0
 26 30  2  0
 28 31  1  0
  6  7  2  0
 10 14  2  0
 29 30  1  0
  8 20  1  0
 19 25  1  0
M  END
>  <MOLFORMULA>  (136) 
C25 H26 N4 O2

>  <MOLWEIGHT>  (136) 
4.145064000000000e+002

>  <IDNUMBER>  (136) 
AT-687/PE16767

>  <PRICE>  (136) 
EUR 80/10 mg

>  <Similarity score>  (136) 
0.19

$$$$

     RDKit          2D

 27 31  0  0  0  0  0  0  0  0999 V2000
    3.3792   -4.9000    0.0000 C   0  0  0  0  0  0  0  0  0  0  0  0
    3.3667   -6.2250    0.0000 C   0  0  0  0  0  0  0  0  0  0  0  0
    5.6750   -4.9167    0.0000 C   0  0  0  0  0  0  0  0  0  0  0  0
    4.5292   -4.2417    0.0000 N   0  0  0  0  0  0  0  0  0  0  0  0
    5.6750   -6.2500    0.0000 N   0  0  0  0  0  0  0  0  0  0  0  0
    2.1250   -4.4917    0.0000 C   0  0  0  0  0  0  0  0  0  0  0  0
    4.5167   -6.9042    0.0000 C   0  0  0  0  0  0  0  0  0  0  0  0
    2.1167   -6.6250    0.0000 S   0  0  0  0  0  0  0  0  0  0  0  0
    6.8417   -4.2750    0.0000 N   0  0  0  0  0  0  0  0  0  0  0  0
    1.3417   -5.5500    0.0000 C   0  0  0  0  0  0  0  0  0  0  0  0
    1.7250   -3.2250    0.0000 C   0  0  0  0  0  0  0  0  0  0  0  0
    6.8542   -2.9250    0.0000 C   0  0  0  0  0  0  0  0  0  0  0  0
    8.0250   -2.3000    0.0000 C   0  0  0  0  0  0  0  0  0  0  0  0
    4.5000   -8.2500    0.0000 O   0  0  0  0  0  0  0  0  0  0  0  0
    7.9917   -4.9500    0.0000 C   0  0  0  0  0  0  0  0  0  0  0  0
    2.6042   -2.2500    0.0000 C   0  0  0  0  0  0  0  0  0  0  0  0
    9.1667   -2.9667    0.0000 C   0  0  0  0  0  0  0  0  0  0  0  0
    9.1417   -4.3000    0.0000 C   0  0  0  0  0  0  0  0  0  0  0  0
    2.1917   -0.9750    0.0000 C   0  0  0  0  0  0  0  0  0  0  0  0
    0.4042   -2.9250    0.0000 C   0  0  0  0  0  0  0  0  0  0  0  0
    0.0000   -1.6750    0.0000 C   0  0  0  0  0  0  0  0  0  0  0  0
    8.0250   -0.9750    0.0000 C   0  0  0  0  0  0  0  0  0  0  0  0
   10.3292   -2.3000    0.0000 C   0  0  0  0  0  0  0  0  0  0  0  0
    0.9000   -0.6917    0.0000 C   0  0  0  0  0  0  0  0  0  0  0  0
    3.1000   -0.0000    0.0000 C   0  0  0  0  0  0  0  0  0  0  0  0
    9.1667   -0.3167    0.0000 C   0  0  0  0  0  0  0  0  0  0  0  0
   10.3292   -0.9667    0.0000 C   0  0  0  0  0  0  0  0  0  0  0  0
  1  2  2  0
  3  4  2  0
  1  4  1  0
  3  5  1  0
  1  6  1  0
  2  7  1  0
  2  8  1  0
  3  9  1  0
  6 10  2  0
  6 11  1  0
  9 12  1  0
 12 13  1  0
  7 14  2  0
  9 15  1  0
 11 16  2  0
 17 18  1  0
 15 18  1  0
 16 19  1  0
 11 20  1  0
 20 21  2  0
 13 22  1  0
 17 23  1  0
 21 24  1  0
 19 25  1  0
 22 26  2  0
 23 27  2  0
  8 10  1  0
  5  7  1  0
 19 24  2  0
 13 17  2  0
 26 27  1  0
M  END
>  <MOLFORMULA>  (137) 
C22 H19 N3 O S

>  <MOLWEIGHT>  (137) 
3.734781000000000e+002

>  <IDNUMBER>  (137) 
AT-687/PE25829

>  <PRICE>  (137) 
EUR 80/10 mg

>  <Similarity score>  (137) 
0.19

$$$$

     RDKit          2D

 31 35  0  0  0  0  0  0  0  0999 V2000
    4.3500   -5.6792    0.0000 C   0  0  0  0  0  0  0  0  0  0  0  0
    5.6417   -5.4000    0.0000 C   0  0  0  0  0  0  0  0  0  0  0  0
    3.2542   -4.9000    0.0000 O   0  0  0  0  0  0  0  0  0  0  0  0
    3.9167   -6.9500    0.0000 C   0  0  0  0  0  0  0  0  0  0  0  0
    6.0667   -4.1417    0.0000 N   0  0  0  0  0  0  0  0  0  0  0  0
    2.6000   -6.9667    0.0000 C   0  0  0  0  0  0  0  0  0  0  0  0
    2.1792   -5.6792    0.0000 C   0  0  0  0  0  0  0  0  0  0  0  0
    7.7792   -2.6042    0.0000 C   0  0  0  0  0  0  0  0  0  0  0  0
    9.0917   -2.3250    0.0000 C   0  0  0  0  0  0  0  0  0  0  0  0
    6.5250   -6.3917    0.0000 N   0  0  0  0  0  0  0  0  0  0  0  0
    7.3750   -3.8750    0.0000 C   0  0  0  0  0  0  0  0  0  0  0  0
    4.8000   -7.9250    0.0000 N   0  0  0  0  0  0  0  0  0  0  0  0
    9.4917   -1.0500    0.0000 N   0  0  0  0  0  0  0  0  0  0  0  0
    6.1042   -7.6667    0.0000 C   0  0  0  0  0  0  0  0  0  0  0  0
   11.6667   -1.7417    0.0000 C   0  0  0  0  0  0  0  0  0  0  0  0
   10.8000   -0.7917    0.0000 C   0  0  0  0  0  0  0  0  0  0  0  0
    9.9750   -3.3167    0.0000 O   0  0  0  0  0  0  0  0  0  0  0  0
   12.9750   -1.5042    0.0000 C   0  0  0  0  0  0  0  0  0  0  0  0
    5.1667   -3.1500    0.0000 C   0  0  0  0  0  0  0  0  0  0  0  0
    6.8917   -1.6000    0.0000 C   0  0  0  0  0  0  0  0  0  0  0  0
    1.7000   -7.9250    0.0000 C   0  0  0  0  0  0  0  0  0  0  0  0
   13.4000   -0.2167    0.0000 O   0  0  0  0  0  0  0  0  0  0  0  0
    0.8917   -5.4000    0.0000 C   0  0  0  0  0  0  0  0  0  0  0  0
    5.6000   -1.8750    0.0000 C   0  0  0  0  0  0  0  0  0  0  0  0
   11.2417   -3.0250    0.0000 C   0  0  0  0  0  0  0  0  0  0  0  0
   13.8417   -2.4917    0.0000 C   0  0  0  0  0  0  0  0  0  0  0  0
   14.6917   -0.0000    0.0000 C   0  0  0  0  0  0  0  0  0  0  0  0
    0.4000   -7.6667    0.0000 C   0  0  0  0  0  0  0  0  0  0  0  0
    0.0000   -6.3917    0.0000 C   0  0  0  0  0  0  0  0  0  0  0  0
   12.1250   -4.0042    0.0000 C   0  0  0  0  0  0  0  0  0  0  0  0
   13.4250   -3.7417    0.0000 C   0  0  0  0  0  0  0  0  0  0  0  0
  1  2  2  0
  1  3  1  0
  1  4  1  0
  2  5  1  0
  4  6  1  0
  3  7  1  0
  8 11  1  0
  8  9  1  0
  2 10  1  0
  5 11  1  0
  4 12  2  0
  9 13  1  0
 12 14  1  0
 15 16  1  0
 13 16  1  0
  9 17  2  0
 15 18  2  0
  5 19  1  0
 20 24  1  0
  6 21  1  0
 18 22  1  0
  7 23  1  0
 19 24  1  0
 15 25  1  0
 18 26  1  0
 22 27  1  0
 21 28  2  0
 23 29  2  0
 25 30  2  0
 30 31  1  0
  6  7  2  0
 10 14  2  0
 28 29  1  0
  8 20  1  0
 26 31  2  0
M  END
>  <MOLFORMULA>  (138) 
C24 H24 N4 O3

>  <MOLWEIGHT>  (138) 
4.164786000000000e+002

>  <IDNUMBER>  (138) 
AT-687/PE16768

>  <PRICE>  (138) 
EUR 80/10 mg

>  <Similarity score>  (138) 
0.19

$$$$

     RDKit          2D

 36 41  0  0  0  0  0  0  0  0999 V2000
   -3.3208    2.1875    0.0000 C   0  0  0  0  0  0  0  0  0  0  0  0
   -3.3125    1.3583    0.0000 C   0  0  0  0  0  0  0  0  0  0  0  0
   -1.8833    2.1875    0.0000 C   0  0  0  0  0  0  0  0  0  0  0  0
   -2.6083    2.6083    0.0000 N   0  0  0  0  0  0  0  0  0  0  0  0
   -1.8833    1.3583    0.0000 N   0  0  0  0  0  0  0  0  0  0  0  0
   -2.6000    0.9458    0.0000 C   0  0  0  0  0  0  0  0  0  0  0  0
   -4.1000    2.4333    0.0000 C   0  0  0  0  0  0  0  0  0  0  0  0
   -4.0958    1.1000    0.0000 S   0  0  0  0  0  0  0  0  0  0  0  0
   -1.1708    2.6000    0.0000 N   0  0  0  0  0  0  0  0  0  0  0  0
   -4.5833    1.7708    0.0000 C   0  0  0  0  0  0  0  0  0  0  0  0
    0.2542    2.5958    0.0000 C   0  0  0  0  0  0  0  0  0  0  0  0
    4.4292    0.6500    0.0000 N   0  0  0  0  0  0  0  0  0  0  0  0
    0.9750    2.1750    0.0000 C   0  0  0  0  0  0  0  0  0  0  0  0
    3.8750    1.2708    0.0000 C   0  0  0  0  0  0  0  0  0  0  0  0
   -0.4583    2.1833    0.0000 C   0  0  0  0  0  0  0  0  0  0  0  0
    3.1125    0.9333    0.0000 C   0  0  0  0  0  0  0  0  0  0  0  0
    3.2000    0.1083    0.0000 C   0  0  0  0  0  0  0  0  0  0  0  0
    4.0125   -0.0667    0.0000 C   0  0  0  0  0  0  0  0  0  0  0  0
   -4.3625    3.2208    0.0000 C   0  0  0  0  0  0  0  0  0  0  0  0
   -2.6000    0.1208    0.0000 O   0  0  0  0  0  0  0  0  0  0  0  0
    0.9667    1.3500    0.0000 O   0  0  0  0  0  0  0  0  0  0  0  0
    1.6917    2.5875    0.0000 N   0  0  0  0  0  0  0  0  0  0  0  0
   -1.1708    3.4208    0.0000 C   0  0  0  0  0  0  0  0  0  0  0  0
    0.2625    3.4208    0.0000 C   0  0  0  0  0  0  0  0  0  0  0  0
    2.4042    2.1708    0.0000 C   0  0  0  0  0  0  0  0  0  0  0  0
    2.4000    1.3458    0.0000 C   0  0  0  0  0  0  0  0  0  0  0  0
   -0.4583    3.8333    0.0000 C   0  0  0  0  0  0  0  0  0  0  0  0
    2.6417   -0.5042    0.0000 C   0  0  0  0  0  0  0  0  0  0  0  0
    4.2542   -0.8625    0.0000 C   0  0  0  0  0  0  0  0  0  0  0  0
   -3.8083    3.8375    0.0000 C   0  0  0  0  0  0  0  0  0  0  0  0
   -5.1708    3.3958    0.0000 C   0  0  0  0  0  0  0  0  0  0  0  0
    2.8917   -1.2875    0.0000 C   0  0  0  0  0  0  0  0  0  0  0  0
    3.7000   -1.4667    0.0000 C   0  0  0  0  0  0  0  0  0  0  0  0
   -4.0708    4.6167    0.0000 C   0  0  0  0  0  0  0  0  0  0  0  0
   -5.4333    4.1667    0.0000 C   0  0  0  0  0  0  0  0  0  0  0  0
   -4.8750    4.7792    0.0000 C   0  0  0  0  0  0  0  0  0  0  0  0
  1  2  2  0
  3  4  2  0
  1  4  1  0
  3  5  1  0
  2  6  1  0
  1  7  1  0
  2  8  1  0
  3  9  1  0
  7 10  2  0
 11 15  1  0
 12 14  1  0
 11 13  1  0
 14 16  2  0
  9 15  1  0
 16 26  1  0
 16 17  1  0
 17 18  1  0
  7 19  1  0
  6 20  2  0
 13 21  2  0
 13 22  1  0
  9 23  1  0
 24 27  1  0
 22 25  1  0
 25 26  1  0
 23 27  1  0
 17 28  2  0
 18 29  2  0
 19 30  1  0
 19 31  2  0
 28 32  1  0
 32 33  2  0
 30 34  2  0
 31 35  1  0
 35 36  2  0
  8 10  1  0
  5  6  1  0
 34 36  1  0
 11 24  1  0
 12 18  1  0
 29 33  1  0
M  END
>  <MOLFORMULA>  (139) 
C28 H27 N5 O2 S

>  <MOLWEIGHT>  (139) 
4.976203000000000e+002

>  <IDNUMBER>  (139) 
AT-687/PE25965

>  <PRICE>  (139) 
EUR 80/10 mg

>  <Similarity score>  (139) 
0.19

$$$$

     RDKit          2D

 35 39  0  0  0  0  0  0  0  0999 V2000
   -3.3208    2.1875    0.0000 C   0  0  0  0  0  0  0  0  0  0  0  0
   -3.3125    1.3583    0.0000 C   0  0  0  0  0  0  0  0  0  0  0  0
   -1.8833    2.1875    0.0000 C   0  0  0  0  0  0  0  0  0  0  0  0
   -2.6083    2.6083    0.0000 N   0  0  0  0  0  0  0  0  0  0  0  0
   -1.8833    1.3583    0.0000 N   0  0  0  0  0  0  0  0  0  0  0  0
   -2.6000    0.9458    0.0000 C   0  0  0  0  0  0  0  0  0  0  0  0
   -4.1000    2.4333    0.0000 C   0  0  0  0  0  0  0  0  0  0  0  0
   -4.0958    1.1000    0.0000 S   0  0  0  0  0  0  0  0  0  0  0  0
   -1.1708    2.6000    0.0000 N   0  0  0  0  0  0  0  0  0  0  0  0
   -4.5833    1.7708    0.0000 C   0  0  0  0  0  0  0  0  0  0  0  0
    0.2542    2.5958    0.0000 C   0  0  0  0  0  0  0  0  0  0  0  0
    0.9750    2.1750    0.0000 C   0  0  0  0  0  0  0  0  0  0  0  0
   -0.4583    2.1833    0.0000 C   0  0  0  0  0  0  0  0  0  0  0  0
    1.6917    2.5875    0.0000 N   0  0  0  0  0  0  0  0  0  0  0  0
    2.4000    1.3583    0.0000 C   0  0  0  0  0  0  0  0  0  0  0  0
   -4.3625    3.2208    0.0000 C   0  0  0  0  0  0  0  0  0  0  0  0
   -2.6000    0.1208    0.0000 O   0  0  0  0  0  0  0  0  0  0  0  0
    2.4042    2.1708    0.0000 C   0  0  0  0  0  0  0  0  0  0  0  0
    0.9667    1.3500    0.0000 O   0  0  0  0  0  0  0  0  0  0  0  0
    3.1042    0.9375    0.0000 C   0  0  0  0  0  0  0  0  0  0  0  0
   -1.1708    3.4208    0.0000 C   0  0  0  0  0  0  0  0  0  0  0  0
    0.2625    3.4208    0.0000 C   0  0  0  0  0  0  0  0  0  0  0  0
    3.8292    1.3458    0.0000 O   0  0  0  0  0  0  0  0  0  0  0  0
   -0.4583    3.8333    0.0000 C   0  0  0  0  0  0  0  0  0  0  0  0
    1.6792    0.9583    0.0000 C   0  0  0  0  0  0  0  0  0  0  0  0
   -3.8083    3.8375    0.0000 C   0  0  0  0  0  0  0  0  0  0  0  0
   -5.1708    3.3958    0.0000 C   0  0  0  0  0  0  0  0  0  0  0  0
    3.1042    0.1208    0.0000 C   0  0  0  0  0  0  0  0  0  0  0  0
    4.5417    0.9208    0.0000 C   0  0  0  0  0  0  0  0  0  0  0  0
    5.2667    1.3333    0.0000 C   0  0  0  0  0  0  0  0  0  0  0  0
    1.6667    0.1250    0.0000 C   0  0  0  0  0  0  0  0  0  0  0  0
   -5.4333    4.1667    0.0000 C   0  0  0  0  0  0  0  0  0  0  0  0
    2.3917   -0.2917    0.0000 C   0  0  0  0  0  0  0  0  0  0  0  0
   -4.0708    4.6167    0.0000 C   0  0  0  0  0  0  0  0  0  0  0  0
   -4.8750    4.7792    0.0000 C   0  0  0  0  0  0  0  0  0  0  0  0
  1  2  2  0
  3  4  2  0
  1  4  1  0
  3  5  1  0
  2  6  1  0
  1  7  1  0
  2  8  1  0
  3  9  1  0
  7 10  2  0
 11 13  1  0
 11 12  1  0
  9 13  1  0
 12 14  1  0
 15 18  1  0
  7 16  1  0
  6 17  2  0
 14 18  1  0
 12 19  2  0
 15 20  2  0
  9 21  1  0
 22 24  1  0
 20 23  1  0
 21 24  1  0
 15 25  1  0
 16 26  1  0
 16 27  2  0
 20 28  1  0
 23 29  1  0
 29 30  1  0
 25 31  2  0
 27 32  1  0
 31 33  1  0
 26 34  2  0
 32 35  2  0
  8 10  1  0
  5  6  1  0
 34 35  1  0
 11 22  1  0
 28 33  2  0
M  END
>  <MOLFORMULA>  (140) 
C27 H28 N4 O3 S

>  <MOLWEIGHT>  (140) 
4.886092000000000e+002

>  <IDNUMBER>  (140) 
AT-687/PE25941

>  <PRICE>  (140) 
EUR 80/10 mg

>  <Similarity score>  (140) 
0.19

$$$$

     RDKit          2D

 22 25  0  0  0  0  0  0  0  0999 V2000
    5.5625   -2.7917    0.0000 C   0  0  0  0  0  0  0  0  0  0  0  0
    5.8500   -1.4792    0.0000 N   0  0  0  0  0  0  0  0  0  0  0  0
    4.8417   -2.3667    0.0000 C   0  0  0  0  0  0  0  0  0  0  0  0
    5.0250   -1.5542    0.0000 N   0  0  0  0  0  0  0  0  0  0  0  0
    6.1792   -2.2375    0.0000 C   0  0  0  0  0  0  0  0  0  0  0  0
    4.1292   -2.7917    0.0000 C   0  0  0  0  0  0  0  0  0  0  0  0
    5.5667   -3.6250    0.0000 C   0  0  0  0  0  0  0  0  0  0  0  0
    4.8417   -4.0375    0.0000 N   0  0  0  0  0  0  0  0  0  0  0  0
    4.1250   -3.6250    0.0000 C   0  0  0  0  0  0  0  0  0  0  0  0
    6.9917   -2.4167    0.0000 C   0  0  0  0  0  0  0  0  0  0  0  0
    3.4125   -2.3792    0.0000 C   0  0  0  0  0  0  0  0  0  0  0  0
    7.2375   -3.2042    0.0000 C   0  0  0  0  0  0  0  0  0  0  0  0
    7.5417   -1.8042    0.0000 C   0  0  0  0  0  0  0  0  0  0  0  0
    3.4125   -4.0292    0.0000 C   0  0  0  0  0  0  0  0  0  0  0  0
    2.7000   -2.7917    0.0000 C   0  0  0  0  0  0  0  0  0  0  0  0
    2.7000   -3.6167    0.0000 C   0  0  0  0  0  0  0  0  0  0  0  0
    8.3417   -1.9792    0.0000 C   0  0  0  0  0  0  0  0  0  0  0  0
    8.0417   -3.3792    0.0000 C   0  0  0  0  0  0  0  0  0  0  0  0
    8.6000   -2.7667    0.0000 C   0  0  0  0  0  0  0  0  0  0  0  0
    9.4042   -2.9417    0.0000 C   0  0  0  0  0  0  0  0  0  0  0  0
    1.9875   -2.3792    0.0000 C   0  0  0  0  0  0  0  0  0  0  0  0
    9.9542   -2.3292    0.0000 C   0  0  0  0  0  0  0  0  0  0  0  0
  2  5  2  0
  1  3  2  0
  3  4  1  0
  1  5  1  0
  3  6  1  0
  1  7  1  0
  7  8  2  0
  8  9  1  0
  5 10  1  0
  6 11  2  0
 10 12  2  0
 10 13  1  0
  9 14  2  0
 11 15  1  0
 14 16  1  0
 13 17  2  0
 12 18  1  0
 17 19  1  0
 19 20  1  0
 15 21  1  0
 20 22  1  0
  2  4  1  0
  6  9  1  0
 15 16  2  0
 18 19  2  0
M  END
>  <MOLFORMULA>  (141) 
C19 H17 N3

>  <MOLWEIGHT>  (141) 
2.873643000000000e+002

>  <IDNUMBER>  (141) 
AT-687/SK17428

>  <PRICE>  (141) 
EUR 80/10 mg

>  <Similarity score>  (141) 
0.19

$$$$

     RDKit          2D

 27 31  0  0  0  0  0  0  0  0999 V2000
   -1.3458   -0.8000    0.0000 C   0  0  0  0  0  0  0  0  0  0  0  0
   -1.3583   -1.8000    0.0000 C   0  0  0  0  0  0  0  0  0  0  0  0
    0.3792   -0.8125    0.0000 C   0  0  0  0  0  0  0  0  0  0  0  0
   -0.4833   -0.3000    0.0000 N   0  0  0  0  0  0  0  0  0  0  0  0
    0.3792   -1.8125    0.0000 N   0  0  0  0  0  0  0  0  0  0  0  0
   -0.4958   -2.3125    0.0000 C   0  0  0  0  0  0  0  0  0  0  0  0
   -2.2958   -0.4792    0.0000 C   0  0  0  0  0  0  0  0  0  0  0  0
   -2.3083   -2.1000    0.0000 S   0  0  0  0  0  0  0  0  0  0  0  0
    1.2542   -0.3250    0.0000 N   0  0  0  0  0  0  0  0  0  0  0  0
   -2.8875   -1.2917    0.0000 C   0  0  0  0  0  0  0  0  0  0  0  0
    1.2667    0.6833    0.0000 C   0  0  0  0  0  0  0  0  0  0  0  0
   -2.6000    0.4625    0.0000 C   0  0  0  0  0  0  0  0  0  0  0  0
    2.1417    1.1625    0.0000 C   0  0  0  0  0  0  0  0  0  0  0  0
   -0.5083   -3.3125    0.0000 O   0  0  0  0  0  0  0  0  0  0  0  0
    2.1167   -0.8292    0.0000 C   0  0  0  0  0  0  0  0  0  0  0  0
    3.0042    0.6625    0.0000 C   0  0  0  0  0  0  0  0  0  0  0  0
    2.9917   -0.3417    0.0000 C   0  0  0  0  0  0  0  0  0  0  0  0
   -3.5833    0.6833    0.0000 C   0  0  0  0  0  0  0  0  0  0  0  0
   -1.9250    1.1958    0.0000 C   0  0  0  0  0  0  0  0  0  0  0  0
   -3.2083    2.3625    0.0000 C   0  0  0  0  0  0  0  0  0  0  0  0
   -3.8958    1.6208    0.0000 C   0  0  0  0  0  0  0  0  0  0  0  0
   -2.2375    2.1500    0.0000 C   0  0  0  0  0  0  0  0  0  0  0  0
   -3.5083    3.3208    0.0000 F   0  0  0  0  0  0  0  0  0  0  0  0
    2.1417    2.1500    0.0000 C   0  0  0  0  0  0  0  0  0  0  0  0
    3.8792    1.1625    0.0000 C   0  0  0  0  0  0  0  0  0  0  0  0
    3.0042    2.6500    0.0000 C   0  0  0  0  0  0  0  0  0  0  0  0
    3.8792    2.1625    0.0000 C   0  0  0  0  0  0  0  0  0  0  0  0
  1  2  2  0
  3  4  2  0
  1  4  1  0
  3  5  1  0
  2  6  1  0
  1  7  1  0
  2  8  1  0
  3  9  1  0
  7 10  2  0
  9 11  1  0
  7 12  1  0
 11 13  1  0
  6 14  2  0
  9 15  1  0
 16 17  1  0
 15 17  1  0
 12 18  2  0
 12 19  1  0
 20 22  1  0
 18 21  1  0
 19 22  2  0
 20 23  1  0
 13 24  1  0
 16 25  1  0
 24 26  2  0
 25 27  2  0
  8 10  1  0
  5  6  1  0
 20 21  2  0
 13 16  2  0
 26 27  1  0
M  END
>  <MOLFORMULA>  (142) 
C21 H16 F N3 O S

>  <MOLWEIGHT>  (142) 
3.774414000000000e+002

>  <IDNUMBER>  (142) 
AT-687/PE25866

>  <PRICE>  (142) 
EUR 80/10 mg

>  <Similarity score>  (142) 
0.19

$$$$

     RDKit          2D

 34 38  0  0  0  0  0  0  0  0999 V2000
   -3.3208    2.1875    0.0000 C   0  0  0  0  0  0  0  0  0  0  0  0
   -3.3125    1.3583    0.0000 C   0  0  0  0  0  0  0  0  0  0  0  0
   -1.8833    2.1875    0.0000 C   0  0  0  0  0  0  0  0  0  0  0  0
   -2.6083    2.6083    0.0000 N   0  0  0  0  0  0  0  0  0  0  0  0
   -1.8833    1.3583    0.0000 N   0  0  0  0  0  0  0  0  0  0  0  0
   -4.1000    2.4333    0.0000 C   0  0  0  0  0  0  0  0  0  0  0  0
   -2.6000    0.9458    0.0000 C   0  0  0  0  0  0  0  0  0  0  0  0
   -4.0958    1.1000    0.0000 S   0  0  0  0  0  0  0  0  0  0  0  0
   -1.1708    2.6000    0.0000 N   0  0  0  0  0  0  0  0  0  0  0  0
   -4.5833    1.7708    0.0000 C   0  0  0  0  0  0  0  0  0  0  0  0
    0.2542    2.5958    0.0000 C   0  0  0  0  0  0  0  0  0  0  0  0
    0.9750    2.1750    0.0000 C   0  0  0  0  0  0  0  0  0  0  0  0
   -4.3625    3.2208    0.0000 C   0  0  0  0  0  0  0  0  0  0  0  0
   -0.4583    2.1833    0.0000 C   0  0  0  0  0  0  0  0  0  0  0  0
    1.6917    2.5875    0.0000 N   0  0  0  0  0  0  0  0  0  0  0  0
   -2.6000    0.1208    0.0000 O   0  0  0  0  0  0  0  0  0  0  0  0
   -5.1708    3.3958    0.0000 C   0  0  0  0  0  0  0  0  0  0  0  0
    0.9667    1.3500    0.0000 O   0  0  0  0  0  0  0  0  0  0  0  0
    2.4042    2.1708    0.0000 C   0  0  0  0  0  0  0  0  0  0  0  0
   -5.4333    4.1667    0.0000 C   0  0  0  0  0  0  0  0  0  0  0  0
   -1.1708    3.4208    0.0000 C   0  0  0  0  0  0  0  0  0  0  0  0
    0.2625    3.4208    0.0000 C   0  0  0  0  0  0  0  0  0  0  0  0
    2.4000    1.3500    0.0000 C   0  0  0  0  0  0  0  0  0  0  0  0
   -3.8083    3.8375    0.0000 C   0  0  0  0  0  0  0  0  0  0  0  0
   -6.2167    4.3375    0.0000 O   0  0  0  0  0  0  0  0  0  0  0  0
   -0.4583    3.8333    0.0000 C   0  0  0  0  0  0  0  0  0  0  0  0
   -4.0708    4.6167    0.0000 C   0  0  0  0  0  0  0  0  0  0  0  0
   -4.8750    4.7792    0.0000 C   0  0  0  0  0  0  0  0  0  0  0  0
    3.1167    0.9208    0.0000 C   0  0  0  0  0  0  0  0  0  0  0  0
    1.6792    0.9458    0.0000 C   0  0  0  0  0  0  0  0  0  0  0  0
   -6.7792    3.7333    0.0000 C   0  0  0  0  0  0  0  0  0  0  0  0
    1.6667    0.1083    0.0000 C   0  0  0  0  0  0  0  0  0  0  0  0
    3.1042    0.1083    0.0000 C   0  0  0  0  0  0  0  0  0  0  0  0
    2.3917   -0.3042    0.0000 C   0  0  0  0  0  0  0  0  0  0  0  0
  1  2  2  0
  3  4  2  0
  1  4  1  0
  3  5  1  0
  1  6  1  0
  2  7  1  0
  2  8  1  0
  3  9  1  0
  6 10  2  0
 11 14  1  0
 11 12  1  0
  6 13  1  0
  9 14  1  0
 12 15  1  0
  7 16  2  0
 13 17  2  0
 12 18  2  0
 15 19  1  0
 17 20  1  0
  9 21  1  0
 22 26  1  0
 19 23  1  0
 13 24  1  0
 20 25  1  0
 21 26  1  0
 24 27  2  0
 27 28  1  0
 23 29  2  0
 23 30  1  0
 25 31  1  0
 30 32  2  0
 29 33  1  0
 32 34  1  0
  8 10  1  0
  5  7  1  0
 20 28  2  0
 11 22  1  0
 33 34  2  0
M  END
>  <MOLFORMULA>  (143) 
C26 H26 N4 O3 S

>  <MOLWEIGHT>  (143) 
4.745824000000000e+002

>  <IDNUMBER>  (143) 
AT-687/PE26007

>  <PRICE>  (143) 
EUR 80/10 mg

>  <Similarity score>  (143) 
0.19

$$$$

     RDKit          2D

 26 30  0  0  0  0  0  0  0  0999 V2000
    5.6500   -6.7417    0.0000 C   0  0  0  0  0  0  0  0  0  0  0  0
    5.6583   -6.0417    0.0000 C   0  0  0  0  0  0  0  0  0  0  0  0
    5.0500   -7.0833    0.0000 N   0  0  0  0  0  0  0  0  0  0  0  0
    5.0500   -5.6958    0.0000 C   0  0  0  0  0  0  0  0  0  0  0  0
    6.2583   -7.0917    0.0000 C   0  0  0  0  0  0  0  0  0  0  0  0
    4.4583   -6.0458    0.0000 C   0  0  0  0  0  0  0  0  0  0  0  0
    5.0500   -4.9958    0.0000 N   0  0  0  0  0  0  0  0  0  0  0  0
    4.4583   -6.7333    0.0000 C   0  0  0  0  0  0  0  0  0  0  0  0
    6.8625   -6.7417    0.0000 C   0  0  0  0  0  0  0  0  0  0  0  0
    6.2625   -5.6833    0.0000 C   0  0  0  0  0  0  0  0  0  0  0  0
    6.2500   -7.7833    0.0000 C   0  0  0  0  0  0  0  0  0  0  0  0
    6.8625   -6.0417    0.0000 C   0  0  0  0  0  0  0  0  0  0  0  0
    7.4625   -7.0917    0.0000 C   0  0  0  0  0  0  0  0  0  0  0  0
    5.0500   -3.6083    0.0000 O   0  0  0  0  0  0  0  0  0  0  0  0
    7.4625   -7.7917    0.0000 C   0  0  0  0  0  0  0  0  0  0  0  0
    6.8583   -8.1417    0.0000 C   0  0  0  0  0  0  0  0  0  0  0  0
    5.6500   -4.6542    0.0000 C   0  0  0  0  0  0  0  0  0  0  0  0
    4.4500   -4.6542    0.0000 C   0  0  0  0  0  0  0  0  0  0  0  0
    3.8583   -5.6958    0.0000 C   0  0  0  0  0  0  0  0  0  0  0  0
    8.0625   -8.1333    0.0000 O   0  0  0  0  0  0  0  0  0  0  0  0
    3.8583   -7.0833    0.0000 C   0  0  0  0  0  0  0  0  0  0  0  0
    5.6500   -3.9583    0.0000 C   0  0  0  0  0  0  0  0  0  0  0  0
    4.4500   -3.9583    0.0000 C   0  0  0  0  0  0  0  0  0  0  0  0
    8.0583   -8.8292    0.0000 C   0  0  0  0  0  0  0  0  0  0  0  0
    3.2583   -6.0458    0.0000 C   0  0  0  0  0  0  0  0  0  0  0  0
    3.2583   -6.7333    0.0000 C   0  0  0  0  0  0  0  0  0  0  0  0
  1  2  1  0
  1  3  2  0
  2  4  2  0
  1  5  1  0
  6  8  1  0
  4  7  1  0
  3  8  1  0
  5  9  2  0
  2 10  1  0
  5 11  1  0
  9 12  1  0
  9 13  1  0
 14 23  1  0
 15 16  1  0
 11 16  2  0
  7 17  1  0
  7 18  1  0
  6 19  2  0
 15 20  1  0
  8 21  2  0
 17 22  1  0
 18 23  1  0
 20 24  1  0
 19 25  1  0
 21 26  1  0
 10 12  1  0
  4  6  1  0
 13 15  2  0
 25 26  2  0
 14 22  1  0
M  END
>  <MOLFORMULA>  (144) 
C22 H22 N2 O2

>  <MOLWEIGHT>  (144) 
3.464278000000000e+002

>  <IDNUMBER>  (144) 
AT-225/NB47209

>  <SALTDATA>  (144) 
H2O

>  <PRICE>  (144) 
EUR 140/10 mg

>  <Similarity score>  (144) 
0.19

$$$$

     RDKit          2D

 26 30  0  0  0  0  0  0  0  0999 V2000
    5.3583   -7.0583    0.0000 C   0  0  0  0  0  0  0  0  0  0  0  0
    5.3667   -6.3208    0.0000 C   0  0  0  0  0  0  0  0  0  0  0  0
    4.7292   -7.4125    0.0000 N   0  0  0  0  0  0  0  0  0  0  0  0
    4.7292   -5.9500    0.0000 C   0  0  0  0  0  0  0  0  0  0  0  0
    6.0083   -7.4167    0.0000 C   0  0  0  0  0  0  0  0  0  0  0  0
    4.0917   -6.3250    0.0000 C   0  0  0  0  0  0  0  0  0  0  0  0
    4.7208   -5.2250    0.0000 N   0  0  0  0  0  0  0  0  0  0  0  0
    4.0917   -7.0500    0.0000 C   0  0  0  0  0  0  0  0  0  0  0  0
    6.6542   -7.0583    0.0000 C   0  0  0  0  0  0  0  0  0  0  0  0
    6.0083   -5.9500    0.0000 C   0  0  0  0  0  0  0  0  0  0  0  0
    6.0042   -8.1583    0.0000 C   0  0  0  0  0  0  0  0  0  0  0  0
    6.6542   -6.3208    0.0000 C   0  0  0  0  0  0  0  0  0  0  0  0
    7.2917   -7.4250    0.0000 C   0  0  0  0  0  0  0  0  0  0  0  0
    4.7208   -3.7708    0.0000 O   0  0  0  0  0  0  0  0  0  0  0  0
    7.2917   -8.1625    0.0000 C   0  0  0  0  0  0  0  0  0  0  0  0
    6.6417   -8.5250    0.0000 C   0  0  0  0  0  0  0  0  0  0  0  0
    5.3583   -4.8625    0.0000 C   0  0  0  0  0  0  0  0  0  0  0  0
    4.0833   -4.8625    0.0000 C   0  0  0  0  0  0  0  0  0  0  0  0
    3.4583   -5.9583    0.0000 C   0  0  0  0  0  0  0  0  0  0  0  0
    7.9208   -8.5250    0.0000 O   0  0  0  0  0  0  0  0  0  0  0  0
    3.4583   -7.4125    0.0000 C   0  0  0  0  0  0  0  0  0  0  0  0
    5.3583   -4.1333    0.0000 C   0  0  0  0  0  0  0  0  0  0  0  0
    4.0833   -4.1375    0.0000 C   0  0  0  0  0  0  0  0  0  0  0  0
    8.5583   -8.1583    0.0000 C   0  0  0  0  0  0  0  0  0  0  0  0
    2.8208   -6.3250    0.0000 C   0  0  0  0  0  0  0  0  0  0  0  0
    2.8208   -7.0500    0.0000 C   0  0  0  0  0  0  0  0  0  0  0  0
  1  2  1  0
  1  3  2  0
  2  4  2  0
  1  5  1  0
  6  8  1  0
  4  7  1  0
  3  8  1  0
  5  9  2  0
  2 10  1  0
  5 11  1  0
  9 12  1  0
  9 13  1  0
 14 23  1  0
 15 16  1  0
 11 16  2  0
  7 17  1  0
  7 18  1  0
  6 19  2  0
 15 20  1  0
  8 21  2  0
 17 22  1  0
 18 23  1  0
 20 24  1  0
 25 26  2  0
 21 26  1  0
 10 12  1  0
  4  6  1  0
 13 15  2  0
 19 25  1  0
 14 22  1  0
M  END
>  <MOLFORMULA>  (145) 
C22 H22 N2 O2

>  <MOLWEIGHT>  (145) 
3.464278000000000e+002

>  <IDNUMBER>  (145) 
AT-225/NB48356

>  <SALTDATA>  (145) 
2 H2O

>  <PRICE>  (145) 
EUR 140/10 mg

>  <Similarity score>  (145) 
0.19

$$$$

     RDKit          2D

 26 30  0  0  0  0  0  0  0  0999 V2000
   -2.9375   -6.7125    0.0000 C   0  0  0  0  0  0  0  0  0  0  0  0
   -2.9375   -5.9542    0.0000 C   0  0  0  0  0  0  0  0  0  0  0  0
   -3.5958   -7.0875    0.0000 N   0  0  0  0  0  0  0  0  0  0  0  0
   -3.6125   -5.5792    0.0000 C   0  0  0  0  0  0  0  0  0  0  0  0
   -2.2833   -7.0875    0.0000 C   0  0  0  0  0  0  0  0  0  0  0  0
   -4.2458   -5.9542    0.0000 C   0  0  0  0  0  0  0  0  0  0  0  0
   -3.6125   -4.7917    0.0000 N   0  0  0  0  0  0  0  0  0  0  0  0
   -4.2458   -6.7125    0.0000 C   0  0  0  0  0  0  0  0  0  0  0  0
   -1.6333   -6.7125    0.0000 C   0  0  0  0  0  0  0  0  0  0  0  0
   -2.2833   -5.5792    0.0000 C   0  0  0  0  0  0  0  0  0  0  0  0
   -2.2833   -7.8417    0.0000 C   0  0  0  0  0  0  0  0  0  0  0  0
   -1.6333   -5.9542    0.0000 C   0  0  0  0  0  0  0  0  0  0  0  0
   -0.9833   -7.0875    0.0000 C   0  0  0  0  0  0  0  0  0  0  0  0
   -3.6125   -3.2875    0.0000 O   0  0  0  0  0  0  0  0  0  0  0  0
   -0.9833   -7.8417    0.0000 C   0  0  0  0  0  0  0  0  0  0  0  0
   -1.6333   -8.2167    0.0000 C   0  0  0  0  0  0  0  0  0  0  0  0
   -2.9625   -4.4167    0.0000 C   0  0  0  0  0  0  0  0  0  0  0  0
   -4.2708   -4.4167    0.0000 C   0  0  0  0  0  0  0  0  0  0  0  0
   -4.9083   -5.5792    0.0000 C   0  0  0  0  0  0  0  0  0  0  0  0
   -0.3333   -8.2167    0.0000 O   0  0  0  0  0  0  0  0  0  0  0  0
   -4.9083   -7.0875    0.0000 C   0  0  0  0  0  0  0  0  0  0  0  0
   -2.9583   -3.6667    0.0000 C   0  0  0  0  0  0  0  0  0  0  0  0
   -4.2708   -3.6625    0.0000 C   0  0  0  0  0  0  0  0  0  0  0  0
   -0.3333   -8.9667    0.0000 C   0  0  0  0  0  0  0  0  0  0  0  0
   -5.5458   -5.9542    0.0000 C   0  0  0  0  0  0  0  0  0  0  0  0
   -5.5458   -6.7125    0.0000 C   0  0  0  0  0  0  0  0  0  0  0  0
  1  2  2  0
  1  3  1  0
  2  4  1  0
  1  5  1  0
  6  8  1  0
  4  7  1  0
  3  8  2  0
  5  9  2  0
  2 10  1  0
  5 11  1  0
  9 12  1  0
  9 13  1  0
 14 23  1  0
 15 16  1  0
 11 16  2  0
  7 17  1  0
  7 18  1  0
  6 19  1  0
 15 20  1  0
  8 21  1  0
 17 22  1  0
 18 23  1  0
 20 24  1  0
 25 26  1  0
 21 26  2  0
 10 12  1  0
  4  6  2  0
 13 15  2  0
 19 25  2  0
 14 22  1  0
M  END
>  <MOLFORMULA>  (146) 
C22 H22 N2 O2

>  <MOLWEIGHT>  (146) 
3.464278000000000e+002

>  <IDNUMBER>  (146) 
AT-225/JK06946

>  <PRICE>  (146) 
EUR 140/10 mg

>  <Similarity score>  (146) 
0.19

$$$$

     RDKit          2D

 27 31  0  0  0  0  0  0  0  0999 V2000
    0.4375   -0.3542    0.0000 C   0  0  0  0  0  0  0  0  0  0  0  0
   -0.5292   -0.1000    0.0000 N   0  0  0  0  0  0  0  0  0  0  0  0
    1.1417    0.3583    0.0000 N   0  0  0  0  0  0  0  0  0  0  0  0
    0.8792    1.3208    0.0000 C   0  0  0  0  0  0  0  0  0  0  0  0
   -0.7917    0.8667    0.0000 C   0  0  0  0  0  0  0  0  0  0  0  0
   -0.0917    1.5750    0.0000 C   0  0  0  0  0  0  0  0  0  0  0  0
    0.7000   -1.3167    0.0000 N   0  0  0  0  0  0  0  0  0  0  0  0
   -0.3542    2.5417    0.0000 C   0  0  0  0  0  0  0  0  0  0  0  0
   -0.0042   -2.0292    0.0000 C   0  0  0  0  0  0  0  0  0  0  0  0
   -1.7625    1.1167    0.0000 N   0  0  0  0  0  0  0  0  0  0  0  0
    0.2625   -2.9917    0.0000 C   0  0  0  0  0  0  0  0  0  0  0  0
    1.5792    2.0333    0.0000 O   0  0  0  0  0  0  0  0  0  0  0  0
    1.6667   -1.5708    0.0000 C   0  0  0  0  0  0  0  0  0  0  0  0
    1.2292   -3.2458    0.0000 C   0  0  0  0  0  0  0  0  0  0  0  0
    0.3500    3.2500    0.0000 C   0  0  0  0  0  0  0  0  0  0  0  0
    1.7583    4.6667    0.0000 N   0  0  0  0  0  0  0  0  0  0  0  0
    1.9333   -2.5375    0.0000 C   0  0  0  0  0  0  0  0  0  0  0  0
   -2.0250    2.0833    0.0000 C   0  0  0  0  0  0  0  0  0  0  0  0
   -1.3208    2.7958    0.0000 C   0  0  0  0  0  0  0  0  0  0  0  0
   -0.4417   -3.7042    0.0000 C   0  0  0  0  0  0  0  0  0  0  0  0
    0.7875    4.9208    0.0000 C   0  0  0  0  0  0  0  0  0  0  0  0
    2.0208    3.7083    0.0000 C   0  0  0  0  0  0  0  0  0  0  0  0
    1.3167    2.9958    0.0000 C   0  0  0  0  0  0  0  0  0  0  0  0
    0.0875    4.2125    0.0000 C   0  0  0  0  0  0  0  0  0  0  0  0
    1.4917   -4.2125    0.0000 C   0  0  0  0  0  0  0  0  0  0  0  0
   -0.1792   -4.6667    0.0000 C   0  0  0  0  0  0  0  0  0  0  0  0
    0.7875   -4.9208    0.0000 C   0  0  0  0  0  0  0  0  0  0  0  0
  1  2  2  0
  1  3  1  0
  3  4  1  0
  2  5  1  0
  4  6  1  0
  1  7  1  0
  6  8  1  0
  7  9  1  0
  5 10  1  0
  9 11  1  0
  4 12  2  0
  7 13  1  0
 14 17  1  0
  8 15  1  0
 16 21  1  0
 13 17  1  0
 10 18  2  0
  8 19  2  0
 11 20  1  0
 21 24  2  0
 22 23  1  0
 15 23  2  0
 15 24  1  0
 14 25  1  0
 20 26  2  0
 25 27  2  0
  5  6  2  0
 11 14  2  0
 18 19  1  0
 26 27  1  0
 16 22  2  0
M  END
>  <MOLFORMULA>  (147) 
C21 H17 N5 O

>  <MOLWEIGHT>  (147) 
3.553993000000000e+002

>  <IDNUMBER>  (147) 
AN-153/NB21479

>  <PRICE>  (147) 
EUR 130/10 mg

>  <Similarity score>  (147) 
0.19

$$$$

     RDKit          2D

 31 35  0  0  0  0  0  0  0  0999 V2000
    4.3417   -4.6917    0.0000 C   0  0  0  0  0  0  0  0  0  0  0  0
    5.6250   -4.4417    0.0000 C   0  0  0  0  0  0  0  0  0  0  0  0
    3.2667   -3.9042    0.0000 O   0  0  0  0  0  0  0  0  0  0  0  0
    3.9042   -5.9667    0.0000 C   0  0  0  0  0  0  0  0  0  0  0  0
    6.0542   -3.1750    0.0000 N   0  0  0  0  0  0  0  0  0  0  0  0
    2.5917   -5.9750    0.0000 C   0  0  0  0  0  0  0  0  0  0  0  0
    9.0750   -1.3417    0.0000 C   0  0  0  0  0  0  0  0  0  0  0  0
    2.1750   -4.6917    0.0000 C   0  0  0  0  0  0  0  0  0  0  0  0
    7.7750   -1.6250    0.0000 C   0  0  0  0  0  0  0  0  0  0  0  0
    6.5250   -5.4000    0.0000 N   0  0  0  0  0  0  0  0  0  0  0  0
    7.3500   -2.8750    0.0000 C   0  0  0  0  0  0  0  0  0  0  0  0
    9.9500   -2.3417    0.0000 N   0  0  0  0  0  0  0  0  0  0  0  0
    4.8000   -6.9500    0.0000 N   0  0  0  0  0  0  0  0  0  0  0  0
    6.1000   -6.6792    0.0000 C   0  0  0  0  0  0  0  0  0  0  0  0
    9.4917   -0.0917    0.0000 O   0  0  0  0  0  0  0  0  0  0  0  0
   13.8500   -1.5292    0.0000 C   0  0  0  0  0  0  0  0  0  0  0  0
   11.2500   -2.0500    0.0000 C   0  0  0  0  0  0  0  0  0  0  0  0
   13.4292   -2.7792    0.0000 C   0  0  0  0  0  0  0  0  0  0  0  0
   12.9750   -0.5417    0.0000 C   0  0  0  0  0  0  0  0  0  0  0  0
    5.1542   -2.1750    0.0000 C   0  0  0  0  0  0  0  0  0  0  0  0
   15.1500   -1.2500    0.0000 C   0  0  0  0  0  0  0  0  0  0  0  0
   12.1417   -3.0542    0.0000 C   0  0  0  0  0  0  0  0  0  0  0  0
   11.6750   -0.8000    0.0000 C   0  0  0  0  0  0  0  0  0  0  0  0
    6.8750   -0.6292    0.0000 C   0  0  0  0  0  0  0  0  0  0  0  0
    1.7042   -6.9500    0.0000 C   0  0  0  0  0  0  0  0  0  0  0  0
    0.8750   -4.4250    0.0000 C   0  0  0  0  0  0  0  0  0  0  0  0
    5.5750   -0.9042    0.0000 C   0  0  0  0  0  0  0  0  0  0  0  0
   15.5667   -0.0000    0.0000 C   0  0  0  0  0  0  0  0  0  0  0  0
   16.0292   -2.2417    0.0000 C   0  0  0  0  0  0  0  0  0  0  0  0
    0.4000   -6.6792    0.0000 C   0  0  0  0  0  0  0  0  0  0  0  0
    0.0000   -5.4000    0.0000 C   0  0  0  0  0  0  0  0  0  0  0  0
  1  2  2  0
  1  3  1  0
  1  4  1  0
  2  5  1  0
  4  6  1  0
  7  9  1  0
  3  8  1  0
  9 11  1  0
  2 10  1  0
  5 11  1  0
  7 12  1  0
  4 13  2  0
 13 14  1  0
  7 15  2  0
 16 19  1  0
 12 17  1  0
 18 22  1  0
 19 23  2  0
  5 20  1  0
 16 21  1  0
 17 22  2  0
 17 23  1  0
 24 27  1  0
  6 25  1  0
  8 26  1  0
 20 27  1  0
 21 28  1  0
 21 29  1  0
 25 30  2  0
 26 31  2  0
  6  8  2  0
 10 14  2  0
 30 31  1  0
  9 24  1  0
 16 18  2  0
M  END
>  <MOLFORMULA>  (148) 
C25 H26 N4 O2

>  <MOLWEIGHT>  (148) 
4.145064000000000e+002

>  <IDNUMBER>  (148) 
AT-687/PE16752

>  <PRICE>  (148) 
EUR 80/10 mg

>  <Similarity score>  (148) 
0.19

$$$$

     RDKit          2D

 35 39  0  0  0  0  0  0  0  0999 V2000
   -3.3208    2.1875    0.0000 C   0  0  0  0  0  0  0  0  0  0  0  0
   -3.3125    1.3583    0.0000 C   0  0  0  0  0  0  0  0  0  0  0  0
   -1.8833    2.1875    0.0000 C   0  0  0  0  0  0  0  0  0  0  0  0
   -2.6083    2.6083    0.0000 N   0  0  0  0  0  0  0  0  0  0  0  0
   -1.8833    1.3583    0.0000 N   0  0  0  0  0  0  0  0  0  0  0  0
   -2.6000    0.9458    0.0000 C   0  0  0  0  0  0  0  0  0  0  0  0
   -4.1000    2.4333    0.0000 C   0  0  0  0  0  0  0  0  0  0  0  0
   -4.0958    1.1000    0.0000 S   0  0  0  0  0  0  0  0  0  0  0  0
   -1.1708    2.6000    0.0000 N   0  0  0  0  0  0  0  0  0  0  0  0
   -4.5833    1.7708    0.0000 C   0  0  0  0  0  0  0  0  0  0  0  0
    0.2542    2.5958    0.0000 C   0  0  0  0  0  0  0  0  0  0  0  0
    0.9750    2.1750    0.0000 C   0  0  0  0  0  0  0  0  0  0  0  0
   -0.4583    2.1833    0.0000 C   0  0  0  0  0  0  0  0  0  0  0  0
   -4.3625    3.2208    0.0000 C   0  0  0  0  0  0  0  0  0  0  0  0
    1.6917    2.5875    0.0000 N   0  0  0  0  0  0  0  0  0  0  0  0
   -2.6000    0.1208    0.0000 O   0  0  0  0  0  0  0  0  0  0  0  0
    2.3792   -0.2917    0.0000 C   0  0  0  0  0  0  0  0  0  0  0  0
    0.9667    1.3500    0.0000 O   0  0  0  0  0  0  0  0  0  0  0  0
    1.6667    0.1208    0.0000 C   0  0  0  0  0  0  0  0  0  0  0  0
    3.1042    0.1208    0.0000 C   0  0  0  0  0  0  0  0  0  0  0  0
    2.4000    1.3583    0.0000 C   0  0  0  0  0  0  0  0  0  0  0  0
   -5.1708    3.3958    0.0000 C   0  0  0  0  0  0  0  0  0  0  0  0
   -3.8083    3.8375    0.0000 C   0  0  0  0  0  0  0  0  0  0  0  0
    2.4042    2.1708    0.0000 C   0  0  0  0  0  0  0  0  0  0  0  0
    1.6792    0.9583    0.0000 C   0  0  0  0  0  0  0  0  0  0  0  0
    3.1042    0.9333    0.0000 C   0  0  0  0  0  0  0  0  0  0  0  0
   -1.1708    3.4208    0.0000 C   0  0  0  0  0  0  0  0  0  0  0  0
    3.8250   -0.2917    0.0000 F   0  0  0  0  0  0  0  0  0  0  0  0
    0.9417   -0.2875    0.0000 F   0  0  0  0  0  0  0  0  0  0  0  0
   -4.0708    4.6167    0.0000 C   0  0  0  0  0  0  0  0  0  0  0  0
   -5.4333    4.1667    0.0000 C   0  0  0  0  0  0  0  0  0  0  0  0
   -4.8750    4.7792    0.0000 C   0  0  0  0  0  0  0  0  0  0  0  0
    0.2625    3.4208    0.0000 C   0  0  0  0  0  0  0  0  0  0  0  0
   -0.4583    3.8333    0.0000 C   0  0  0  0  0  0  0  0  0  0  0  0
   -5.1333    5.5667    0.0000 C   0  0  0  0  0  0  0  0  0  0  0  0
  1  2  2  0
  3  4  2  0
  1  4  1  0
  3  5  1  0
  2  6  1  0
  1  7  1  0
  2  8  1  0
  3  9  1  0
  7 10  2  0
 11 13  1  0
 11 12  1  0
  9 13  1  0
  7 14  1  0
 12 15  1  0
  6 16  2  0
 17 20  2  0
 12 18  2  0
 19 25  2  0
 20 26  1  0
 21 24  1  0
 14 22  2  0
 14 23  1  0
 15 24  1  0
 21 25  1  0
 21 26  2  0
  9 27  1  0
 20 28  1  0
 19 29  1  0
 23 30  2  0
 22 31  1  0
 30 32  1  0
 33 34  1  0
 27 34  1  0
 32 35  1  0
  8 10  1  0
  5  6  1  0
 31 32  2  0
 11 33  1  0
 17 19  1  0
M  END
>  <MOLFORMULA>  (149) 
C26 H24 F2 N4 O2 S

>  <MOLWEIGHT>  (149) 
4.945636000000000e+002

>  <IDNUMBER>  (149) 
AT-687/PE25986

>  <PRICE>  (149) 
EUR 80/10 mg

>  <Similarity score>  (149) 
0.19

$$$$

     RDKit          2D

 34 38  0  0  0  0  0  0  0  0999 V2000
   -3.3208    2.1875    0.0000 C   0  0  0  0  0  0  0  0  0  0  0  0
   -3.3125    1.3583    0.0000 C   0  0  0  0  0  0  0  0  0  0  0  0
   -1.8833    2.1875    0.0000 C   0  0  0  0  0  0  0  0  0  0  0  0
   -2.6083    2.6083    0.0000 N   0  0  0  0  0  0  0  0  0  0  0  0
   -1.8833    1.3583    0.0000 N   0  0  0  0  0  0  0  0  0  0  0  0
   -2.6000    0.9458    0.0000 C   0  0  0  0  0  0  0  0  0  0  0  0
   -4.1000    2.4333    0.0000 C   0  0  0  0  0  0  0  0  0  0  0  0
   -4.0958    1.1000    0.0000 S   0  0  0  0  0  0  0  0  0  0  0  0
   -1.1708    2.6000    0.0000 N   0  0  0  0  0  0  0  0  0  0  0  0
   -4.5833    1.7708    0.0000 C   0  0  0  0  0  0  0  0  0  0  0  0
    0.2542    2.5958    0.0000 C   0  0  0  0  0  0  0  0  0  0  0  0
    0.9750    2.1750    0.0000 C   0  0  0  0  0  0  0  0  0  0  0  0
   -0.4583    2.1833    0.0000 C   0  0  0  0  0  0  0  0  0  0  0  0
    1.6917    2.5875    0.0000 N   0  0  0  0  0  0  0  0  0  0  0  0
    2.4000    1.3625    0.0000 C   0  0  0  0  0  0  0  0  0  0  0  0
   -4.3625    3.2208    0.0000 C   0  0  0  0  0  0  0  0  0  0  0  0
   -2.6000    0.1208    0.0000 O   0  0  0  0  0  0  0  0  0  0  0  0
    2.4042    2.1708    0.0000 C   0  0  0  0  0  0  0  0  0  0  0  0
    0.9667    1.3500    0.0000 O   0  0  0  0  0  0  0  0  0  0  0  0
    3.1000    0.9333    0.0000 C   0  0  0  0  0  0  0  0  0  0  0  0
   -1.1708    3.4208    0.0000 C   0  0  0  0  0  0  0  0  0  0  0  0
    0.2625    3.4208    0.0000 C   0  0  0  0  0  0  0  0  0  0  0  0
    3.8292    1.3458    0.0000 O   0  0  0  0  0  0  0  0  0  0  0  0
   -0.4583    3.8333    0.0000 C   0  0  0  0  0  0  0  0  0  0  0  0
    1.6792    0.9583    0.0000 C   0  0  0  0  0  0  0  0  0  0  0  0
   -3.8083    3.8375    0.0000 C   0  0  0  0  0  0  0  0  0  0  0  0
   -5.1708    3.3958    0.0000 C   0  0  0  0  0  0  0  0  0  0  0  0
    3.1000    0.1208    0.0000 C   0  0  0  0  0  0  0  0  0  0  0  0
    4.5417    0.9208    0.0000 C   0  0  0  0  0  0  0  0  0  0  0  0
    1.6667    0.1333    0.0000 C   0  0  0  0  0  0  0  0  0  0  0  0
   -4.0708    4.6167    0.0000 C   0  0  0  0  0  0  0  0  0  0  0  0
   -5.4333    4.1667    0.0000 C   0  0  0  0  0  0  0  0  0  0  0  0
    2.3792   -0.2917    0.0000 C   0  0  0  0  0  0  0  0  0  0  0  0
   -4.8750    4.7792    0.0000 C   0  0  0  0  0  0  0  0  0  0  0  0
  1  2  2  0
  3  4  2  0
  1  4  1  0
  3  5  1  0
  2  6  1  0
  1  7  1  0
  2  8  1  0
  3  9  1  0
  7 10  2  0
 11 13  1  0
 11 12  1  0
  9 13  1  0
 12 14  1  0
 15 18  1  0
  7 16  1  0
  6 17  2  0
 14 18  1  0
 12 19  2  0
 15 20  2  0
  9 21  1  0
 22 24  1  0
 20 23  1  0
 21 24  1  0
 15 25  1  0
 16 26  1  0
 16 27  2  0
 20 28  1  0
 23 29  1  0
 25 30  2  0
 26 31  2  0
 27 32  1  0
 30 33  1  0
 32 34  2  0
  8 10  1  0
  5  6  1  0
 31 34  1  0
 11 22  1  0
 28 33  2  0
M  END
>  <MOLFORMULA>  (150) 
C26 H26 N4 O3 S

>  <MOLWEIGHT>  (150) 
4.745824000000000e+002

>  <IDNUMBER>  (150) 
AT-687/PE25939

>  <PRICE>  (150) 
EUR 80/10 mg

>  <Similarity score>  (150) 
0.19

$$$$

     RDKit          2D

 34 38  0  0  0  0  0  0  0  0999 V2000
   -3.3208    2.1875    0.0000 C   0  0  0  0  0  0  0  0  0  0  0  0
   -3.3125    1.3583    0.0000 C   0  0  0  0  0  0  0  0  0  0  0  0
   -1.8833    2.1875    0.0000 C   0  0  0  0  0  0  0  0  0  0  0  0
   -2.6083    2.6083    0.0000 N   0  0  0  0  0  0  0  0  0  0  0  0
   -1.8833    1.3583    0.0000 N   0  0  0  0  0  0  0  0  0  0  0  0
   -2.6000    0.9458    0.0000 C   0  0  0  0  0  0  0  0  0  0  0  0
   -4.1000    2.4333    0.0000 C   0  0  0  0  0  0  0  0  0  0  0  0
   -4.0958    1.1000    0.0000 S   0  0  0  0  0  0  0  0  0  0  0  0
   -1.1708    2.6000    0.0000 N   0  0  0  0  0  0  0  0  0  0  0  0
   -4.5833    1.7708    0.0000 C   0  0  0  0  0  0  0  0  0  0  0  0
    0.2542    2.5958    0.0000 C   0  0  0  0  0  0  0  0  0  0  0  0
    0.9750    2.1750    0.0000 C   0  0  0  0  0  0  0  0  0  0  0  0
   -0.4583    2.1833    0.0000 C   0  0  0  0  0  0  0  0  0  0  0  0
   -4.3625    3.2208    0.0000 C   0  0  0  0  0  0  0  0  0  0  0  0
    1.6917    2.5875    0.0000 N   0  0  0  0  0  0  0  0  0  0  0  0
   -2.6000    0.1208    0.0000 O   0  0  0  0  0  0  0  0  0  0  0  0
    0.9667    1.3500    0.0000 O   0  0  0  0  0  0  0  0  0  0  0  0
    2.4042    2.1708    0.0000 C   0  0  0  0  0  0  0  0  0  0  0  0
    2.4000    1.3458    0.0000 C   0  0  0  0  0  0  0  0  0  0  0  0
   -5.1708    3.3958    0.0000 C   0  0  0  0  0  0  0  0  0  0  0  0
   -3.8083    3.8375    0.0000 C   0  0  0  0  0  0  0  0  0  0  0  0
    3.1167    0.9333    0.0000 C   0  0  0  0  0  0  0  0  0  0  0  0
   -1.1708    3.4208    0.0000 C   0  0  0  0  0  0  0  0  0  0  0  0
   -4.0708    4.6167    0.0000 C   0  0  0  0  0  0  0  0  0  0  0  0
   -5.4333    4.1667    0.0000 C   0  0  0  0  0  0  0  0  0  0  0  0
   -4.8750    4.7792    0.0000 C   0  0  0  0  0  0  0  0  0  0  0  0
    0.2625    3.4208    0.0000 C   0  0  0  0  0  0  0  0  0  0  0  0
   -0.4583    3.8333    0.0000 C   0  0  0  0  0  0  0  0  0  0  0  0
    1.6875    0.9333    0.0000 C   0  0  0  0  0  0  0  0  0  0  0  0
    3.8292    1.3458    0.0000 C   0  0  0  0  0  0  0  0  0  0  0  0
    3.1167    0.1083    0.0000 C   0  0  0  0  0  0  0  0  0  0  0  0
   -5.1333    5.5667    0.0000 C   0  0  0  0  0  0  0  0  0  0  0  0
    2.4042   -0.3042    0.0000 C   0  0  0  0  0  0  0  0  0  0  0  0
    1.6792    0.1083    0.0000 C   0  0  0  0  0  0  0  0  0  0  0  0
  1  2  2  0
  3  4  2  0
  1  4  1  0
  3  5  1  0
  2  6  1  0
  1  7  1  0
  2  8  1  0
  3  9  1  0
  7 10  2  0
 11 13  1  0
 11 12  1  0
  9 13  1  0
  7 14  1  0
 12 15  1  0
  6 16  2  0
 12 17  2  0
 15 18  1  0
 18 19  1  0
 14 20  2  0
 14 21  1  0
 19 22  2  0
  9 23  1  0
 21 24  2  0
 20 25  1  0
 24 26  1  0
 27 28  1  0
 23 28  1  0
 19 29  1  0
 22 30  1  0
 22 31  1  0
 26 32  1  0
 33 34  1  0
 29 34  2  0
  8 10  1  0
  5  6  1  0
 25 26  2  0
 11 27  1  0
 31 33  2  0
M  END
>  <MOLFORMULA>  (151) 
C27 H28 N4 O2 S

>  <MOLWEIGHT>  (151) 
4.726102000000000e+002

>  <IDNUMBER>  (151) 
AT-687/PE25995

>  <PRICE>  (151) 
EUR 80/10 mg

>  <Similarity score>  (151) 
0.19

$$$$

     RDKit          2D

 35 39  0  0  0  0  0  0  0  0999 V2000
   -3.3208    2.1875    0.0000 C   0  0  0  0  0  0  0  0  0  0  0  0
   -3.3125    1.3583    0.0000 C   0  0  0  0  0  0  0  0  0  0  0  0
   -1.8833    2.1875    0.0000 C   0  0  0  0  0  0  0  0  0  0  0  0
   -2.6083    2.6083    0.0000 N   0  0  0  0  0  0  0  0  0  0  0  0
   -1.8833    1.3583    0.0000 N   0  0  0  0  0  0  0  0  0  0  0  0
   -2.6000    0.9458    0.0000 C   0  0  0  0  0  0  0  0  0  0  0  0
   -4.1000    2.4333    0.0000 C   0  0  0  0  0  0  0  0  0  0  0  0
   -4.0958    1.1000    0.0000 S   0  0  0  0  0  0  0  0  0  0  0  0
   -1.1708    2.6000    0.0000 N   0  0  0  0  0  0  0  0  0  0  0  0
   -4.5833    1.7708    0.0000 C   0  0  0  0  0  0  0  0  0  0  0  0
    0.2542    2.5958    0.0000 C   0  0  0  0  0  0  0  0  0  0  0  0
    0.9750    2.1750    0.0000 C   0  0  0  0  0  0  0  0  0  0  0  0
   -0.4583    2.1833    0.0000 C   0  0  0  0  0  0  0  0  0  0  0  0
    1.6917    2.5875    0.0000 N   0  0  0  0  0  0  0  0  0  0  0  0
   -4.3625    3.2208    0.0000 C   0  0  0  0  0  0  0  0  0  0  0  0
   -2.6000    0.1208    0.0000 O   0  0  0  0  0  0  0  0  0  0  0  0
    0.9667    1.3500    0.0000 O   0  0  0  0  0  0  0  0  0  0  0  0
    2.4042    2.1708    0.0000 C   0  0  0  0  0  0  0  0  0  0  0  0
   -1.1708    3.4208    0.0000 C   0  0  0  0  0  0  0  0  0  0  0  0
    3.1042    0.9375    0.0000 C   0  0  0  0  0  0  0  0  0  0  0  0
    2.4000    1.3583    0.0000 C   0  0  0  0  0  0  0  0  0  0  0  0
    3.1042    0.1208    0.0000 C   0  0  0  0  0  0  0  0  0  0  0  0
    0.2625    3.4208    0.0000 C   0  0  0  0  0  0  0  0  0  0  0  0
    3.8250   -0.2875    0.0000 O   0  0  0  0  0  0  0  0  0  0  0  0
   -0.4583    3.8333    0.0000 C   0  0  0  0  0  0  0  0  0  0  0  0
    1.6792    0.1333    0.0000 C   0  0  0  0  0  0  0  0  0  0  0  0
   -5.1708    3.3958    0.0000 C   0  0  0  0  0  0  0  0  0  0  0  0
   -3.8083    3.8375    0.0000 C   0  0  0  0  0  0  0  0  0  0  0  0
    1.6792    0.9583    0.0000 C   0  0  0  0  0  0  0  0  0  0  0  0
    2.3917   -0.2917    0.0000 C   0  0  0  0  0  0  0  0  0  0  0  0
    3.8250   -1.1167    0.0000 C   0  0  0  0  0  0  0  0  0  0  0  0
    4.5417   -1.5375    0.0000 C   0  0  0  0  0  0  0  0  0  0  0  0
   -5.4333    4.1667    0.0000 C   0  0  0  0  0  0  0  0  0  0  0  0
   -4.0708    4.6167    0.0000 C   0  0  0  0  0  0  0  0  0  0  0  0
   -4.8750    4.7792    0.0000 C   0  0  0  0  0  0  0  0  0  0  0  0
  1  2  2  0
  3  4  2  0
  1  4  1  0
  3  5  1  0
  2  6  1  0
  1  7  1  0
  2  8  1  0
  3  9  1  0
  7 10  2  0
 11 13  1  0
 11 12  1  0
  9 13  1  0
 12 14  1  0
  7 15  1  0
  6 16  2  0
 12 17  2  0
 14 18  1  0
  9 19  1  0
 20 21  2  0
 18 21  1  0
 20 22  1  0
 23 25  1  0
 22 24  1  0
 19 25  1  0
 26 29  2  0
 15 27  2  0
 15 28  1  0
 21 29  1  0
 26 30  1  0
 24 31  1  0
 31 32  1  0
 27 33  1  0
 28 34  2  0
 34 35  1  0
  8 10  1  0
  5  6  1  0
 33 35  2  0
 11 23  1  0
 22 30  2  0
M  END
>  <MOLFORMULA>  (152) 
C27 H28 N4 O3 S

>  <MOLWEIGHT>  (152) 
4.886092000000000e+002

>  <IDNUMBER>  (152) 
AT-687/PE25942

>  <PRICE>  (152) 
EUR 80/10 mg

>  <Similarity score>  (152) 
0.19

$$$$

     RDKit          2D

 29 32  0  0  0  0  0  0  0  0999 V2000
    0.4958   -0.0000    0.0000 C   0  0  0  0  0  0  0  0  0  0  0  0
   -0.0042    0.8667    0.0000 C   0  0  0  0  0  0  0  0  0  0  0  0
    1.4958   -0.0000    0.0000 C   0  0  0  0  0  0  0  0  0  0  0  0
   -0.0042   -0.8625    0.0000 N   0  0  0  0  0  0  0  0  0  0  0  0
    0.4958    1.7333    0.0000 C   0  0  0  0  0  0  0  0  0  0  0  0
    2.0000    0.8667    0.0000 N   0  0  0  0  0  0  0  0  0  0  0  0
    1.4958    1.7333    0.0000 C   0  0  0  0  0  0  0  0  0  0  0  0
   -0.0042   -2.5958    0.0000 C   0  0  0  0  0  0  0  0  0  0  0  0
    0.4958   -1.7292    0.0000 C   0  0  0  0  0  0  0  0  0  0  0  0
    0.4958   -3.4625    0.0000 C   0  0  0  0  0  0  0  0  0  0  0  0
   -0.0042    2.6000    0.0000 C   0  0  0  0  0  0  0  0  0  0  0  0
   -1.0000    0.8667    0.0000 C   0  0  0  0  0  0  0  0  0  0  0  0
    2.0000   -0.8625    0.0000 O   0  0  0  0  0  0  0  0  0  0  0  0
   -0.0042   -4.3292    0.0000 O   0  0  0  0  0  0  0  0  0  0  0  0
    2.0000    2.6000    0.0000 C   0  0  0  0  0  0  0  0  0  0  0  0
   -1.0000   -0.8625    0.0000 C   0  0  0  0  0  0  0  0  0  0  0  0
    0.4958    3.4667    0.0000 C   0  0  0  0  0  0  0  0  0  0  0  0
    1.4958   -3.4625    0.0000 O   0  0  0  0  0  0  0  0  0  0  0  0
    1.4958    3.4667    0.0000 C   0  0  0  0  0  0  0  0  0  0  0  0
   -0.0042    4.3292    0.0000 Cl  0  0  0  0  0  0  0  0  0  0  0  0
   -1.0000   -2.5958    0.0000 C   0  0  0  0  0  0  0  0  0  0  0  0
   -1.5000   -1.7292    0.0000 C   0  0  0  0  0  0  0  0  0  0  0  0
   -1.5000    1.7333    0.0000 C   0  0  0  0  0  0  0  0  0  0  0  0
   -1.5000   -0.0000    0.0000 C   0  0  0  0  0  0  0  0  0  0  0  0
    2.0000   -4.3292    0.0000 C   0  0  0  0  0  0  0  0  0  0  0  0
    3.0000   -4.3292    0.0000 C   0  0  0  0  0  0  0  0  0  0  0  0
   -2.5000    1.7333    0.0000 C   0  0  0  0  0  0  0  0  0  0  0  0
   -2.5000   -0.0000    0.0000 C   0  0  0  0  0  0  0  0  0  0  0  0
   -3.0000    0.8667    0.0000 C   0  0  0  0  0  0  0  0  0  0  0  0
  1  2  2  0
  1  3  1  0
  1  4  1  0
  2  5  1  0
  3  6  1  0
  6  7  1  0
  8  9  1  0
  4  9  1  0
  8 10  1  0
  5 11  2  0
  2 12  1  0
  3 13  2  0
 10 14  2  0
  7 15  2  0
  4 16  1  0
 11 17  1  0
 10 18  1  0
 15 19  1  0
 17 20  1  0
 21 22  1  0
 16 22  1  0
 12 23  1  0
 12 24  2  0
 18 25  1  0
 25 26  1  0
 23 27  2  0
 24 28  1  0
 28 29  2  0
  5  7  1  0
  8 21  1  0
 17 19  2  0
 27 29  1  0
M  END
>  <MOLFORMULA>  (153) 
C23 H23 Cl N2 O3

>  <MOLWEIGHT>  (153) 
4.108987000000000e+002

>  <IDNUMBER>  (153) 
AN-153/I208778

>  <PRICE>  (153) 
EUR 130/10 mg

>  <Similarity score>  (153) 
0.19

$$$$

     RDKit          2D

 31 35  0  0  0  0  0  0  0  0999 V2000
    4.3417   -4.8917    0.0000 C   0  0  0  0  0  0  0  0  0  0  0  0
    5.6250   -4.6167    0.0000 C   0  0  0  0  0  0  0  0  0  0  0  0
    3.2667   -4.1000    0.0000 O   0  0  0  0  0  0  0  0  0  0  0  0
    3.9042   -6.1417    0.0000 C   0  0  0  0  0  0  0  0  0  0  0  0
    6.0542   -3.3500    0.0000 N   0  0  0  0  0  0  0  0  0  0  0  0
    2.5917   -6.1500    0.0000 C   0  0  0  0  0  0  0  0  0  0  0  0
    2.1750   -4.8917    0.0000 C   0  0  0  0  0  0  0  0  0  0  0  0
    7.7750   -1.8000    0.0000 C   0  0  0  0  0  0  0  0  0  0  0  0
    9.0750   -1.5292    0.0000 C   0  0  0  0  0  0  0  0  0  0  0  0
    6.5250   -5.5917    0.0000 N   0  0  0  0  0  0  0  0  0  0  0  0
    7.3500   -3.0750    0.0000 C   0  0  0  0  0  0  0  0  0  0  0  0
    4.8000   -7.1250    0.0000 N   0  0  0  0  0  0  0  0  0  0  0  0
    9.4917   -0.2667    0.0000 N   0  0  0  0  0  0  0  0  0  0  0  0
    6.1000   -6.8750    0.0000 C   0  0  0  0  0  0  0  0  0  0  0  0
    9.9750   -2.5250    0.0000 O   0  0  0  0  0  0  0  0  0  0  0  0
   10.7917   -0.0000    0.0000 C   0  0  0  0  0  0  0  0  0  0  0  0
    5.1542   -2.3500    0.0000 C   0  0  0  0  0  0  0  0  0  0  0  0
   12.9750   -0.7000    0.0000 C   0  0  0  0  0  0  0  0  0  0  0  0
   11.6750   -0.9750    0.0000 C   0  0  0  0  0  0  0  0  0  0  0  0
   13.8500   -1.7000    0.0000 C   0  0  0  0  0  0  0  0  0  0  0  0
    6.8750   -0.8167    0.0000 C   0  0  0  0  0  0  0  0  0  0  0  0
    1.7042   -7.1250    0.0000 C   0  0  0  0  0  0  0  0  0  0  0  0
    0.8750   -4.6167    0.0000 C   0  0  0  0  0  0  0  0  0  0  0  0
   15.1500   -1.4000    0.0000 O   0  0  0  0  0  0  0  0  0  0  0  0
    5.5750   -1.0792    0.0000 C   0  0  0  0  0  0  0  0  0  0  0  0
   12.1292   -3.2292    0.0000 C   0  0  0  0  0  0  0  0  0  0  0  0
   11.2500   -2.2250    0.0000 C   0  0  0  0  0  0  0  0  0  0  0  0
   13.4292   -2.9500    0.0000 C   0  0  0  0  0  0  0  0  0  0  0  0
   16.0292   -2.4000    0.0000 C   0  0  0  0  0  0  0  0  0  0  0  0
    0.4000   -6.8542    0.0000 C   0  0  0  0  0  0  0  0  0  0  0  0
    0.0000   -5.5917    0.0000 C   0  0  0  0  0  0  0  0  0  0  0  0
  1  2  2  0
  1  3  1  0
  1  4  1  0
  2  5  1  0
  4  6  1  0
  3  7  1  0
  8 11  1  0
  8  9  1  0
  2 10  1  0
  5 11  1  0
  4 12  2  0
  9 13  1  0
 12 14  1  0
  9 15  2  0
 13 16  1  0
  5 17  1  0
 18 19  2  0
 16 19  1  0
 18 20  1  0
 21 25  1  0
  6 22  1  0
  7 23  1  0
 20 24  1  0
 17 25  1  0
 26 27  2  0
 19 27  1  0
 26 28  1  0
 24 29  1  0
 22 30  2  0
 23 31  2  0
  6  7  2  0
 10 14  2  0
 30 31  1  0
  8 21  1  0
 20 28  2  0
M  END
>  <MOLFORMULA>  (154) 
C24 H24 N4 O3

>  <MOLWEIGHT>  (154) 
4.164786000000000e+002

>  <IDNUMBER>  (154) 
AT-687/PE16769

>  <PRICE>  (154) 
EUR 80/10 mg

>  <Similarity score>  (154) 
0.19

$$$$

     RDKit          2D

 23 25  0  0  0  0  0  0  0  0999 V2000
    4.8333    6.2500    0.0000 C   0  0  0  0  0  0  0  0  0  0  0  0
    4.8375    7.6500    0.0000 N   0  0  0  0  0  0  0  0  0  0  0  0
    3.6167    5.5583    0.0000 C   0  0  0  0  0  0  0  0  0  0  0  0
    3.6250    8.3500    0.0000 C   0  0  0  0  0  0  0  0  0  0  0  0
    2.4125    7.6500    0.0000 N   0  0  0  0  0  0  0  0  0  0  0  0
    6.0417    5.5458    0.0000 C   0  0  0  0  0  0  0  0  0  0  0  0
    2.4125    6.2542    0.0000 C   0  0  0  0  0  0  0  0  0  0  0  0
    3.6167    4.1708    0.0000 C   0  0  0  0  0  0  0  0  0  0  0  0
    7.2583    6.2417    0.0000 C   0  0  0  0  0  0  0  0  0  0  0  0
    3.6250    9.7500    0.0000 O   0  0  0  0  0  0  0  0  0  0  0  0
    2.4125    3.4792    0.0000 C   0  0  0  0  0  0  0  0  0  0  0  0
    1.2125    5.5583    0.0000 C   0  0  0  0  0  0  0  0  0  0  0  0
    2.4125    2.0833    0.0000 O   0  0  0  0  0  0  0  0  0  0  0  0
    1.2000    1.3958    0.0000 C   0  0  0  0  0  0  0  0  0  0  0  0
    1.2125    4.1708    0.0000 C   0  0  0  0  0  0  0  0  0  0  0  0
    7.2625    7.6417    0.0000 F   0  0  0  0  0  0  0  0  0  0  0  0
    6.0333    4.1458    0.0000 C   0  0  0  0  0  0  0  0  0  0  0  0
    8.4667    5.5333    0.0000 C   0  0  0  0  0  0  0  0  0  0  0  0
    1.2000   -0.0000    0.0000 C   0  0  0  0  0  0  0  0  0  0  0  0
    0.0000    2.0833    0.0000 C   0  0  0  0  0  0  0  0  0  0  0  0
    0.0000    0.7000    0.0000 C   0  0  0  0  0  0  0  0  0  0  0  0
    7.2458    3.4458    0.0000 C   0  0  0  0  0  0  0  0  0  0  0  0
    8.4583    4.1333    0.0000 C   0  0  0  0  0  0  0  0  0  0  0  0
  1  2  2  0
  1  3  1  0
  2  4  1  0
  5  7  1  0
  1  6  1  0
  3  7  2  0
  3  8  1  0
  6  9  1  0
  4 10  2  0
  8 11  2  0
  7 12  1  0
 11 13  1  0
 13 14  1  0
 12 15  2  0
  9 16  1  0
  6 17  2  0
  9 18  2  0
 14 19  1  0
 14 20  1  0
 14 21  1  0
 17 22  1  0
 18 23  1  0
  4  5  1  0
 11 15  1  0
 22 23  2  0
M  END
>  <MOLFORMULA>  (155) 
C18 H17 F N2 O2

>  <MOLWEIGHT>  (155) 
3.123423000000000e+002

>  <IDNUMBER>  (155) 
AT-819/OC12801

>  <PRICE>  (155) 
EUR 192/10 mg

>  <Similarity score>  (155) 
0.19

$$$$

     RDKit          2D

 29 33  0  0  0  0  0  0  0  0999 V2000
    4.3292   -4.6000    0.0000 C   0  0  0  0  0  0  0  0  0  0  0  0
    5.6250   -4.3292    0.0000 C   0  0  0  0  0  0  0  0  0  0  0  0
    3.2542   -3.8167    0.0000 O   0  0  0  0  0  0  0  0  0  0  0  0
    3.9000   -5.8667    0.0000 C   0  0  0  0  0  0  0  0  0  0  0  0
    6.0500   -3.0750    0.0000 N   0  0  0  0  0  0  0  0  0  0  0  0
    2.5917   -5.8667    0.0000 C   0  0  0  0  0  0  0  0  0  0  0  0
    9.0750   -1.2500    0.0000 C   0  0  0  0  0  0  0  0  0  0  0  0
    2.1750   -4.6000    0.0000 C   0  0  0  0  0  0  0  0  0  0  0  0
    7.7750   -1.5250    0.0000 C   0  0  0  0  0  0  0  0  0  0  0  0
    6.5167   -5.3042    0.0000 N   0  0  0  0  0  0  0  0  0  0  0  0
    7.3500   -2.7917    0.0000 C   0  0  0  0  0  0  0  0  0  0  0  0
    9.9500   -2.2417    0.0000 N   0  0  0  0  0  0  0  0  0  0  0  0
    4.7917   -6.8500    0.0000 N   0  0  0  0  0  0  0  0  0  0  0  0
    6.1000   -6.5792    0.0000 C   0  0  0  0  0  0  0  0  0  0  0  0
    9.4750   -0.0000    0.0000 O   0  0  0  0  0  0  0  0  0  0  0  0
   11.2417   -1.9500    0.0000 C   0  0  0  0  0  0  0  0  0  0  0  0
    5.1500   -2.0792    0.0000 C   0  0  0  0  0  0  0  0  0  0  0  0
   12.1250   -2.9750    0.0000 C   0  0  0  0  0  0  0  0  0  0  0  0
    6.8792   -0.5417    0.0000 C   0  0  0  0  0  0  0  0  0  0  0  0
    1.7000   -6.8500    0.0000 C   0  0  0  0  0  0  0  0  0  0  0  0
   13.4250   -2.6917    0.0000 C   0  0  0  0  0  0  0  0  0  0  0  0
    0.8792   -4.3167    0.0000 C   0  0  0  0  0  0  0  0  0  0  0  0
    5.5750   -0.8042    0.0000 C   0  0  0  0  0  0  0  0  0  0  0  0
   12.9500   -0.4417    0.0000 C   0  0  0  0  0  0  0  0  0  0  0  0
   11.6500   -0.7042    0.0000 C   0  0  0  0  0  0  0  0  0  0  0  0
   13.8500   -1.4250    0.0000 C   0  0  0  0  0  0  0  0  0  0  0  0
   14.3167   -3.6917    0.0000 C   0  0  0  0  0  0  0  0  0  0  0  0
    0.4000   -6.5792    0.0000 C   0  0  0  0  0  0  0  0  0  0  0  0
    0.0000   -5.3042    0.0000 C   0  0  0  0  0  0  0  0  0  0  0  0
  1  2  2  0
  1  3  1  0
  1  4  1  0
  2  5  1  0
  4  6  1  0
  7  9  1  0
  3  8  1  0
  9 11  1  0
  2 10  1  0
  5 11  1  0
  7 12  1  0
  4 13  2  0
 13 14  1  0
  7 15  2  0
 12 16  1  0
  5 17  1  0
 16 18  2  0
 19 23  1  0
  6 20  1  0
 18 21  1  0
  8 22  1  0
 17 23  1  0
 24 25  2  0
 16 25  1  0
 24 26  1  0
 21 27  1  0
 20 28  2  0
 22 29  2  0
  6  8  2  0
 10 14  2  0
 28 29  1  0
  9 19  1  0
 21 26  2  0
M  END
>  <MOLFORMULA>  (156) 
C23 H22 N4 O2

>  <MOLWEIGHT>  (156) 
3.864528000000000e+002

>  <IDNUMBER>  (156) 
AT-687/PE16749

>  <PRICE>  (156) 
EUR 80/10 mg

>  <Similarity score>  (156) 
0.19

$$$$

     RDKit          2D

 28 32  0  0  0  0  0  0  0  0999 V2000
    8.0792   -3.3375    0.0000 C   0  0  0  0  0  0  0  0  0  0  0  0
    8.0792   -2.0042    0.0000 C   0  0  0  0  0  0  0  0  0  0  0  0
    5.7667   -3.3250    0.0000 C   0  0  0  0  0  0  0  0  0  0  0  0
    4.6042   -3.9875    0.0000 C   0  0  0  0  0  0  0  0  0  0  0  0
    6.9167   -3.9917    0.0000 N   0  0  0  0  0  0  0  0  0  0  0  0
    6.9292   -1.3292    0.0000 C   0  0  0  0  0  0  0  0  0  0  0  0
    5.7667   -1.9917    0.0000 N   0  0  0  0  0  0  0  0  0  0  0  0
    4.6042   -5.3250    0.0000 C   0  0  0  0  0  0  0  0  0  0  0  0
    9.3250   -3.7542    0.0000 S   0  0  0  0  0  0  0  0  0  0  0  0
    9.3500   -1.6042    0.0000 C   0  0  0  0  0  0  0  0  0  0  0  0
    3.4542   -5.9917    0.0000 O   0  0  0  0  0  0  0  0  0  0  0  0
    3.4542   -3.3167    0.0000 C   0  0  0  0  0  0  0  0  0  0  0  0
   10.1167   -2.6792    0.0000 C   0  0  0  0  0  0  0  0  0  0  0  0
    2.2917   -5.3250    0.0000 C   0  0  0  0  0  0  0  0  0  0  0  0
    2.3042   -3.9875    0.0000 C   0  0  0  0  0  0  0  0  0  0  0  0
    6.9417   -0.0000    0.0000 O   0  0  0  0  0  0  0  0  0  0  0  0
    5.7542   -5.9917    0.0000 O   0  0  0  0  0  0  0  0  0  0  0  0
    1.1417   -5.9917    0.0000 C   0  0  0  0  0  0  0  0  0  0  0  0
    9.8875   -0.4042    0.0000 C   0  0  0  0  0  0  0  0  0  0  0  0
   11.4167   -2.5625    0.0000 C   0  0  0  0  0  0  0  0  0  0  0  0
    1.1542   -7.3125    0.0000 O   0  0  0  0  0  0  0  0  0  0  0  0
    1.1417   -3.3250    0.0000 C   0  0  0  0  0  0  0  0  0  0  0  0
    0.0000   -3.9875    0.0000 C   0  0  0  0  0  0  0  0  0  0  0  0
    0.0000   -5.3250    0.0000 C   0  0  0  0  0  0  0  0  0  0  0  0
    2.3042   -7.9792    0.0000 C   0  0  0  0  0  0  0  0  0  0  0  0
   11.2042   -0.2750    0.0000 C   0  0  0  0  0  0  0  0  0  0  0  0
   11.9667   -1.3500    0.0000 C   0  0  0  0  0  0  0  0  0  0  0  0
    3.4542   -7.3125    0.0000 C   0  0  0  0  0  0  0  0  0  0  0  0
  1  2  2  0
  3  5  2  0
  3  4  1  0
  1  5  1  0
  2  6  1  0
  3  7  1  0
  4  8  1  0
  1  9  1  0
  2 10  1  0
  8 11  1  0
  4 12  2  0
  9 13  1  0
 14 15  1  0
 12 15  1  0
  6 16  2  0
  8 17  2  0
 14 18  2  0
 10 19  1  0
 13 20  1  0
 18 21  1  0
 15 22  2  0
 22 23  1  0
 23 24  2  0
 21 25  1  0
 19 26  1  0
 20 27  1  0
 25 28  1  0
 10 13  2  0
  6  7  1  0
 26 27  1  0
 11 14  1  0
 18 24  1  0
M  END
>  <MOLFORMULA>  (157) 
C21 H18 N2 O4 S

>  <MOLWEIGHT>  (157) 
3.944492000000000e+002

>  <IDNUMBER>  (157) 
AT-687/NB04359

>  <PRICE>  (157) 
EUR 80/10 mg

>  <Similarity score>  (157) 
0.19

$$$$

     RDKit          2D

 36 40  0  0  0  0  0  0  0  0999 V2000
    5.3167   -8.0625    0.0000 S   0  0  0  0  0  0  0  0  0  0  0  0
    6.6500   -8.0625    0.0000 C   0  0  0  0  0  0  0  0  0  0  0  0
    7.3042   -6.9042    0.0000 C   0  0  0  0  0  0  0  0  0  0  0  0
    8.6375   -6.9042    0.0000 C   0  0  0  0  0  0  0  0  0  0  0  0
    6.6500   -5.7542    0.0000 N   0  0  0  0  0  0  0  0  0  0  0  0
    3.9750   -8.0625    0.0000 C   0  0  0  0  0  0  0  0  0  0  0  0
    7.3042   -9.2125    0.0000 C   0  0  0  0  0  0  0  0  0  0  0  0
    8.6375   -9.2125    0.0000 N   0  0  0  0  0  0  0  0  0  0  0  0
    3.3167   -6.9042    0.0000 C   0  0  0  0  0  0  0  0  0  0  0  0
    9.3042   -8.0625    0.0000 C   0  0  0  0  0  0  0  0  0  0  0  0
    1.9917   -6.9042    0.0000 C   0  0  0  0  0  0  0  0  0  0  0  0
    5.3167   -6.7292    0.0000 O   0  0  0  0  0  0  0  0  0  0  0  0
    5.3167   -9.3917    0.0000 O   0  0  0  0  0  0  0  0  0  0  0  0
    8.6375   -2.3000    0.0000 N   0  0  0  0  0  0  0  0  0  0  0  0
    7.3042   -4.6042    0.0000 C   0  0  0  0  0  0  0  0  0  0  0  0
    9.3042   -5.7542    0.0000 C   0  0  0  0  0  0  0  0  0  0  0  0
    8.6375   -4.6042    0.0000 C   0  0  0  0  0  0  0  0  0  0  0  0
    1.3167   -8.0625    0.0000 C   0  0  0  0  0  0  0  0  0  0  0  0
    3.3167   -9.2125    0.0000 C   0  0  0  0  0  0  0  0  0  0  0  0
    1.9917   -9.2125    0.0000 C   0  0  0  0  0  0  0  0  0  0  0  0
    9.3042   -3.4542    0.0000 C   0  0  0  0  0  0  0  0  0  0  0  0
    7.3042   -0.0000    0.0000 O   0  0  0  0  0  0  0  0  0  0  0  0
   10.6250   -8.0625    0.0000 C   0  0  0  0  0  0  0  0  0  0  0  0
   10.6250   -5.7542    0.0000 C   0  0  0  0  0  0  0  0  0  0  0  0
    1.3167   -5.7542    0.0000 F   0  0  0  0  0  0  0  0  0  0  0  0
    5.3167   -5.7542    0.0000 C   0  0  0  0  0  0  0  0  0  0  0  0
    0.0000   -8.0625    0.0000 F   0  0  0  0  0  0  0  0  0  0  0  0
   11.2917   -6.9042    0.0000 C   0  0  0  0  0  0  0  0  0  0  0  0
   11.2917   -4.6042    0.0000 F   0  0  0  0  0  0  0  0  0  0  0  0
    9.3042   -1.1500    0.0000 C   0  0  0  0  0  0  0  0  0  0  0  0
    7.3042   -2.3000    0.0000 C   0  0  0  0  0  0  0  0  0  0  0  0
    6.6375   -1.1500    0.0000 C   0  0  0  0  0  0  0  0  0  0  0  0
    8.6375   -0.0000    0.0000 C   0  0  0  0  0  0  0  0  0  0  0  0
    6.6500   -3.4542    0.0000 C   0  0  0  0  0  0  0  0  0  0  0  0
    4.6375   -4.6042    0.0000 C   0  0  0  0  0  0  0  0  0  0  0  0
    5.3167   -3.4542    0.0000 C   0  0  0  0  0  0  0  0  0  0  0  0
  1  2  1  0
  2  3  2  0
  3  4  1  0
  3  5  1  0
  1  6  1  0
  2  7  1  0
  7  8  2  0
  6  9  1  0
  8 10  1  0
  9 11  2  0
  1 12  2  0
  1 13  2  0
 14 21  1  0
  5 15  1  0
  4 16  2  0
 15 17  1  0
 18 20  2  0
  6 19  2  0
 19 20  1  0
 17 21  1  0
 22 32  1  0
 10 23  2  0
 16 24  1  0
 11 25  1  0
  5 26  1  0
 18 27  1  0
 23 28  1  0
 24 29  1  0
 14 30  1  0
 14 31  1  0
 31 32  1  0
 30 33  1  0
 15 34  1  0
 26 35  1  0
 35 36  1  0
 11 18  1  0
  4 10  1  0
 24 28  2  0
 34 36  1  0
 22 33  1  0
M  END
>  <MOLFORMULA>  (158) 
C26 H28 F3 N3 O3 S

>  <MOLWEIGHT>  (158) 
5.195852000000000e+002

>  <IDNUMBER>  (158) 
AT-687/NB06802

>  <PRICE>  (158) 
EUR 80/10 mg

>  <Similarity score>  (158) 
0.19

$$$$

     RDKit          2D

 29 32  0  0  0  0  0  0  0  0999 V2000
   -0.4333    0.2500    0.0000 S   0  0  0  0  0  0  0  0  0  0  0  0
    0.4292   -0.2417    0.0000 C   0  0  0  0  0  0  0  0  0  0  0  0
    0.4292   -1.2500    0.0000 C   0  0  0  0  0  0  0  0  0  0  0  0
   -1.3000    0.7500    0.0000 C   0  0  0  0  0  0  0  0  0  0  0  0
    1.2917   -1.7500    0.0000 C   0  0  0  0  0  0  0  0  0  0  0  0
    2.1625   -0.2417    0.0000 N   0  0  0  0  0  0  0  0  0  0  0  0
    2.1625   -1.2500    0.0000 C   0  0  0  0  0  0  0  0  0  0  0  0
    1.2917    0.2500    0.0000 C   0  0  0  0  0  0  0  0  0  0  0  0
   -2.1708    0.2500    0.0000 C   0  0  0  0  0  0  0  0  0  0  0  0
   -1.3000    1.7583    0.0000 C   0  0  0  0  0  0  0  0  0  0  0  0
    0.0667    1.1208    0.0000 O   0  0  0  0  0  0  0  0  0  0  0  0
   -0.9333   -0.6125    0.0000 O   0  0  0  0  0  0  0  0  0  0  0  0
   -0.4333   -1.7500    0.0000 C   0  0  0  0  0  0  0  0  0  0  0  0
   -2.1708    2.2500    0.0000 C   0  0  0  0  0  0  0  0  0  0  0  0
   -3.0333    0.7500    0.0000 C   0  0  0  0  0  0  0  0  0  0  0  0
    3.0292   -1.7500    0.0000 C   0  0  0  0  0  0  0  0  0  0  0  0
   -3.0333    1.7583    0.0000 C   0  0  0  0  0  0  0  0  0  0  0  0
   -0.4333   -2.7500    0.0000 C   0  0  0  0  0  0  0  0  0  0  0  0
   -1.3000   -1.2500    0.0000 C   0  0  0  0  0  0  0  0  0  0  0  0
   -2.1708   -2.7500    0.0000 C   0  0  0  0  0  0  0  0  0  0  0  0
   -3.9000    0.2500    0.0000 F   0  0  0  0  0  0  0  0  0  0  0  0
   -2.1708    3.2500    0.0000 F   0  0  0  0  0  0  0  0  0  0  0  0
    3.8917   -1.2500    0.0000 F   0  0  0  0  0  0  0  0  0  0  0  0
    1.2917   -2.7500    0.0000 C   0  0  0  0  0  0  0  0  0  0  0  0
   -2.1708   -1.7500    0.0000 C   0  0  0  0  0  0  0  0  0  0  0  0
   -1.3000   -3.2500    0.0000 C   0  0  0  0  0  0  0  0  0  0  0  0
   -3.0333   -3.2500    0.0000 F   0  0  0  0  0  0  0  0  0  0  0  0
    2.1625   -3.2500    0.0000 C   0  0  0  0  0  0  0  0  0  0  0  0
    3.0292   -2.7500    0.0000 C   0  0  0  0  0  0  0  0  0  0  0  0
  1  2  1  0
  2  3  2  0
  1  4  1  0
  3  5  1  0
  6  8  2  0
  6  7  1  0
  2  8  1  0
  4  9  1  0
  4 10  2  0
  1 11  2  0
  1 12  2  0
  3 13  1  0
 10 14  1  0
  9 15  2  0
  7 16  1  0
 14 17  2  0
 13 18  1  0
 13 19  2  0
 20 25  2  0
 15 21  1  0
 14 22  1  0
 16 23  1  0
  5 24  1  0
 19 25  1  0
 18 26  2  0
 20 27  1  0
 24 28  2  0
 16 29  2  0
 15 17  1  0
  5  7  2  0
 20 26  1  0
 28 29  1  0
M  END
>  <MOLFORMULA>  (159) 
C21 H11 F4 N O2 S

>  <MOLWEIGHT>  (159) 
4.173809000000000e+002

>  <IDNUMBER>  (159) 
AT-687/PE13102

>  <PRICE>  (159) 
EUR 80/10 mg

>  <Similarity score>  (159) 
0.19

$$$$

     RDKit          2D

 29 33  0  0  0  0  0  0  0  0999 V2000
    4.3417   -4.6000    0.0000 C   0  0  0  0  0  0  0  0  0  0  0  0
    5.6250   -4.3167    0.0000 C   0  0  0  0  0  0  0  0  0  0  0  0
    3.2667   -3.8167    0.0000 O   0  0  0  0  0  0  0  0  0  0  0  0
    3.9167   -5.8750    0.0000 C   0  0  0  0  0  0  0  0  0  0  0  0
    6.0500   -3.0667    0.0000 N   0  0  0  0  0  0  0  0  0  0  0  0
    2.6000   -5.8750    0.0000 C   0  0  0  0  0  0  0  0  0  0  0  0
    9.0750   -1.2500    0.0000 C   0  0  0  0  0  0  0  0  0  0  0  0
    2.1750   -4.6000    0.0000 C   0  0  0  0  0  0  0  0  0  0  0  0
    7.7667   -1.5250    0.0000 C   0  0  0  0  0  0  0  0  0  0  0  0
    6.5250   -5.3042    0.0000 N   0  0  0  0  0  0  0  0  0  0  0  0
    7.3500   -2.7750    0.0000 C   0  0  0  0  0  0  0  0  0  0  0  0
    9.9500   -2.2292    0.0000 N   0  0  0  0  0  0  0  0  0  0  0  0
    4.8000   -6.8500    0.0000 N   0  0  0  0  0  0  0  0  0  0  0  0
    6.1167   -6.5792    0.0000 C   0  0  0  0  0  0  0  0  0  0  0  0
    9.4917   -0.0000    0.0000 O   0  0  0  0  0  0  0  0  0  0  0  0
   11.2500   -1.9500    0.0000 C   0  0  0  0  0  0  0  0  0  0  0  0
    5.1542   -2.0667    0.0000 C   0  0  0  0  0  0  0  0  0  0  0  0
   13.8500   -1.4292    0.0000 C   0  0  0  0  0  0  0  0  0  0  0  0
    6.8792   -0.5417    0.0000 C   0  0  0  0  0  0  0  0  0  0  0  0
    1.7000   -6.8500    0.0000 C   0  0  0  0  0  0  0  0  0  0  0  0
   12.1250   -2.9667    0.0000 C   0  0  0  0  0  0  0  0  0  0  0  0
   11.6750   -0.7000    0.0000 C   0  0  0  0  0  0  0  0  0  0  0  0
   12.9542   -0.4292    0.0000 C   0  0  0  0  0  0  0  0  0  0  0  0
   13.4417   -2.6750    0.0000 C   0  0  0  0  0  0  0  0  0  0  0  0
    0.8917   -4.3042    0.0000 C   0  0  0  0  0  0  0  0  0  0  0  0
    5.5792   -0.8000    0.0000 C   0  0  0  0  0  0  0  0  0  0  0  0
   15.1417   -1.1500    0.0000 C   0  0  0  0  0  0  0  0  0  0  0  0
    0.4000   -6.5792    0.0000 C   0  0  0  0  0  0  0  0  0  0  0  0
    0.0000   -5.3042    0.0000 C   0  0  0  0  0  0  0  0  0  0  0  0
  1  2  2  0
  1  3  1  0
  1  4  1  0
  2  5  1  0
  4  6  1  0
  7  9  1  0
  3  8  1  0
  9 11  1  0
  2 10  1  0
  5 11  1  0
  7 12  1  0
  4 13  2  0
 13 14  1  0
  7 15  2  0
 12 16  1  0
  5 17  1  0
 18 23  2  0
 19 26  1  0
  6 20  1  0
 16 21  1  0
 16 22  2  0
 22 23  1  0
 21 24  2  0
  8 25  1  0
 17 26  1  0
 18 27  1  0
 20 28  2  0
 25 29  2  0
  6  8  2  0
 10 14  2  0
 28 29  1  0
  9 19  1  0
 18 24  1  0
M  END
>  <MOLFORMULA>  (160) 
C23 H22 N4 O2

>  <MOLWEIGHT>  (160) 
3.864528000000000e+002

>  <IDNUMBER>  (160) 
AT-687/PE16750

>  <PRICE>  (160) 
EUR 80/10 mg

>  <Similarity score>  (160) 
0.19

$$$$

     RDKit          2D

 27 30  0  0  0  0  0  0  0  0999 V2000
    5.5125   -6.1708    0.0000 C   0  0  0  0  0  0  0  0  0  0  0  0
    5.5125   -6.9958    0.0000 C   0  0  0  0  0  0  0  0  0  0  0  0
    4.8000   -5.7583    0.0000 C   0  0  0  0  0  0  0  0  0  0  0  0
    4.8000   -7.4083    0.0000 N   0  0  0  0  0  0  0  0  0  0  0  0
    6.2250   -7.4083    0.0000 C   0  0  0  0  0  0  0  0  0  0  0  0
    4.0833   -6.1708    0.0000 C   0  0  0  0  0  0  0  0  0  0  0  0
    4.8000   -4.9333    0.0000 N   0  0  0  0  0  0  0  0  0  0  0  0
    4.0833   -6.9958    0.0000 C   0  0  0  0  0  0  0  0  0  0  0  0
    6.9417   -6.9958    0.0000 C   0  0  0  0  0  0  0  0  0  0  0  0
    6.2250   -5.7583    0.0000 C   0  0  0  0  0  0  0  0  0  0  0  0
    6.2250   -8.2375    0.0000 C   0  0  0  0  0  0  0  0  0  0  0  0
    6.9417   -6.1708    0.0000 C   0  0  0  0  0  0  0  0  0  0  0  0
    7.6583   -7.4083    0.0000 C   0  0  0  0  0  0  0  0  0  0  0  0
    5.5125   -4.5208    0.0000 C   0  0  0  0  0  0  0  0  0  0  0  0
    4.0833   -4.5208    0.0000 C   0  0  0  0  0  0  0  0  0  0  0  0
    7.6583   -8.2375    0.0000 C   0  0  0  0  0  0  0  0  0  0  0  0
    6.9375   -8.6500    0.0000 C   0  0  0  0  0  0  0  0  0  0  0  0
    3.3708   -5.7583    0.0000 C   0  0  0  0  0  0  0  0  0  0  0  0
    8.3833   -8.6542    0.0000 O   0  0  0  0  0  0  0  0  0  0  0  0
    3.3708   -7.4083    0.0000 C   0  0  0  0  0  0  0  0  0  0  0  0
    3.3708   -4.9333    0.0000 C   0  0  0  0  0  0  0  0  0  0  0  0
    5.5125   -3.6917    0.0000 C   0  0  0  0  0  0  0  0  0  0  0  0
    6.2292   -4.9333    0.0000 C   0  0  0  0  0  0  0  0  0  0  0  0
    4.0833   -3.6917    0.0000 C   0  0  0  0  0  0  0  0  0  0  0  0
    8.3875   -9.4875    0.0000 C   0  0  0  0  0  0  0  0  0  0  0  0
    2.6542   -6.1708    0.0000 C   0  0  0  0  0  0  0  0  0  0  0  0
    2.6542   -6.9958    0.0000 C   0  0  0  0  0  0  0  0  0  0  0  0
  1  2  2  0
  1  3  1  0
  2  4  1  0
  2  5  1  0
  3  6  2  0
  3  7  1  0
  4  8  2  0
  5  9  2  0
  1 10  1  0
  5 11  1  0
 10 12  1  0
  9 13  1  0
  7 14  1  0
  7 15  1  0
 16 17  1  0
 11 17  2  0
  6 18  1  0
 16 19  1  0
  8 20  1  0
 15 21  1  0
 14 22  1  0
 14 23  1  0
 15 24  1  0
 19 25  1  0
 18 26  2  0
 20 27  2  0
  9 12  1  0
  6  8  1  0
 13 16  2  0
 26 27  1  0
M  END
>  <MOLFORMULA>  (161) 
C24 H28 N2 O

>  <MOLWEIGHT>  (161) 
3.604982000000000e+002

>  <IDNUMBER>  (161) 
AT-225/NB36287

>  <SALTDATA>  (161) 
2 HBr

>  <PRICE>  (161) 
EUR 140/10 mg

>  <Similarity score>  (161) 
0.19

$$$$

     RDKit          2D

 27 30  0  0  0  0  0  0  0  0999 V2000
    5.6625   -5.8417    0.0000 C   0  0  0  0  0  0  0  0  0  0  0  0
    5.6625   -6.6000    0.0000 C   0  0  0  0  0  0  0  0  0  0  0  0
    4.9875   -5.4667    0.0000 C   0  0  0  0  0  0  0  0  0  0  0  0
    5.0042   -6.9750    0.0000 N   0  0  0  0  0  0  0  0  0  0  0  0
    6.3167   -6.9750    0.0000 C   0  0  0  0  0  0  0  0  0  0  0  0
    4.3542   -5.8417    0.0000 C   0  0  0  0  0  0  0  0  0  0  0  0
    4.9875   -4.6792    0.0000 N   0  0  0  0  0  0  0  0  0  0  0  0
    4.3542   -6.6000    0.0000 C   0  0  0  0  0  0  0  0  0  0  0  0
    6.9667   -6.6000    0.0000 C   0  0  0  0  0  0  0  0  0  0  0  0
    6.3167   -5.4667    0.0000 C   0  0  0  0  0  0  0  0  0  0  0  0
    6.3167   -7.7292    0.0000 C   0  0  0  0  0  0  0  0  0  0  0  0
    6.9667   -5.8417    0.0000 C   0  0  0  0  0  0  0  0  0  0  0  0
    7.6167   -6.9750    0.0000 C   0  0  0  0  0  0  0  0  0  0  0  0
    5.6375   -4.3042    0.0000 C   0  0  0  0  0  0  0  0  0  0  0  0
    4.3292   -4.3042    0.0000 C   0  0  0  0  0  0  0  0  0  0  0  0
    7.6167   -7.7292    0.0000 C   0  0  0  0  0  0  0  0  0  0  0  0
    6.9667   -8.1042    0.0000 C   0  0  0  0  0  0  0  0  0  0  0  0
    3.6917   -5.4667    0.0000 C   0  0  0  0  0  0  0  0  0  0  0  0
    8.2667   -8.1042    0.0000 O   0  0  0  0  0  0  0  0  0  0  0  0
    3.6917   -6.9750    0.0000 C   0  0  0  0  0  0  0  0  0  0  0  0
    6.2875   -4.6792    0.0000 C   0  0  0  0  0  0  0  0  0  0  0  0
    4.3292   -3.5542    0.0000 C   0  0  0  0  0  0  0  0  0  0  0  0
    3.6875   -4.6792    0.0000 C   0  0  0  0  0  0  0  0  0  0  0  0
    5.6417   -3.5542    0.0000 C   0  0  0  0  0  0  0  0  0  0  0  0
    8.2667   -8.8542    0.0000 C   0  0  0  0  0  0  0  0  0  0  0  0
    3.0542   -5.8417    0.0000 C   0  0  0  0  0  0  0  0  0  0  0  0
    3.0542   -6.6000    0.0000 C   0  0  0  0  0  0  0  0  0  0  0  0
  1  2  2  0
  1  3  1  0
  2  4  1  0
  2  5  1  0
  3  6  2  0
  3  7  1  0
  4  8  2  0
  5  9  2  0
  1 10  1  0
  5 11  1  0
 10 12  1  0
  9 13  1  0
  7 14  1  0
  7 15  1  0
 16 17  1  0
 11 17  2  0
  6 18  1  0
 16 19  1  0
  8 20  1  0
 14 21  1  0
 15 22  1  0
 15 23  1  0
 14 24  1  0
 19 25  1  0
 18 26  2  0
 20 27  2  0
  9 12  1  0
  6  8  1  0
 13 16  2  0
 26 27  1  0
M  END
>  <MOLFORMULA>  (162) 
C24 H28 N2 O

>  <MOLWEIGHT>  (162) 
3.604982000000000e+002

>  <IDNUMBER>  (162) 
AT-225/NB35457

>  <SALTDATA>  (162) 
2 HBr

>  <PRICE>  (162) 
EUR 140/10 mg

>  <Similarity score>  (162) 
0.19

$$$$

     RDKit          2D

 27 30  0  0  0  0  0  0  0  0999 V2000
    5.6542   -5.8250    0.0000 C   0  0  0  0  0  0  0  0  0  0  0  0
    5.6542   -6.5750    0.0000 C   0  0  0  0  0  0  0  0  0  0  0  0
    5.0125   -5.4542    0.0000 C   0  0  0  0  0  0  0  0  0  0  0  0
    5.0125   -6.9417    0.0000 N   0  0  0  0  0  0  0  0  0  0  0  0
    6.3000   -6.9500    0.0000 C   0  0  0  0  0  0  0  0  0  0  0  0
    4.3667   -5.8292    0.0000 C   0  0  0  0  0  0  0  0  0  0  0  0
    5.0042   -4.7042    0.0000 N   0  0  0  0  0  0  0  0  0  0  0  0
    4.3667   -6.5667    0.0000 C   0  0  0  0  0  0  0  0  0  0  0  0
    6.9542   -6.5750    0.0000 C   0  0  0  0  0  0  0  0  0  0  0  0
    6.3042   -5.4417    0.0000 C   0  0  0  0  0  0  0  0  0  0  0  0
    6.2917   -7.6917    0.0000 C   0  0  0  0  0  0  0  0  0  0  0  0
    6.9542   -5.8250    0.0000 C   0  0  0  0  0  0  0  0  0  0  0  0
    7.5917   -6.9500    0.0000 C   0  0  0  0  0  0  0  0  0  0  0  0
    5.6542   -4.3417    0.0000 C   0  0  0  0  0  0  0  0  0  0  0  0
    4.3667   -4.3417    0.0000 C   0  0  0  0  0  0  0  0  0  0  0  0
    7.5917   -7.7000    0.0000 C   0  0  0  0  0  0  0  0  0  0  0  0
    6.9417   -8.0750    0.0000 C   0  0  0  0  0  0  0  0  0  0  0  0
    3.7250   -5.4542    0.0000 C   0  0  0  0  0  0  0  0  0  0  0  0
    8.2375   -8.0667    0.0000 O   0  0  0  0  0  0  0  0  0  0  0  0
    3.7250   -6.9417    0.0000 C   0  0  0  0  0  0  0  0  0  0  0  0
    5.6542   -3.5917    0.0000 C   0  0  0  0  0  0  0  0  0  0  0  0
    6.2917   -4.7125    0.0000 C   0  0  0  0  0  0  0  0  0  0  0  0
    4.3625   -3.5917    0.0000 C   0  0  0  0  0  0  0  0  0  0  0  0
    3.7167   -4.7125    0.0000 C   0  0  0  0  0  0  0  0  0  0  0  0
    8.2292   -8.8125    0.0000 C   0  0  0  0  0  0  0  0  0  0  0  0
    3.0792   -5.8292    0.0000 C   0  0  0  0  0  0  0  0  0  0  0  0
    3.0792   -6.5667    0.0000 C   0  0  0  0  0  0  0  0  0  0  0  0
  1  2  1  0
  1  3  2  0
  2  4  2  0
  2  5  1  0
  3  6  1  0
  3  7  1  0
  4  8  1  0
  5  9  2  0
  1 10  1  0
  5 11  1  0
 10 12  1  0
  9 13  1  0
  7 14  1  0
  7 15  1  0
 13 16  2  0
 11 17  2  0
  6 18  2  0
 16 19  1  0
  8 20  2  0
 14 21  1  0
 14 22  1  0
 15 23  1  0
 15 24  1  0
 19 25  1  0
 18 26  1  0
 20 27  1  0
  9 12  1  0
  6  8  1  0
 16 17  1  0
 26 27  2  0
M  END
>  <MOLFORMULA>  (163) 
C24 H28 N2 O

>  <MOLWEIGHT>  (163) 
3.604982000000000e+002

>  <IDNUMBER>  (163) 
AT-225/NB47210

>  <SALTDATA>  (163) 
2 HBr/H2O

>  <PRICE>  (163) 
EUR 140/10 mg

>  <Similarity score>  (163) 
0.19

$$$$

     RDKit          2D

 27 30  0  0  0  0  0  0  0  0999 V2000
    5.4167   -5.8583    0.0000 C   0  0  0  0  0  0  0  0  0  0  0  0
    5.4250   -6.5583    0.0000 C   0  0  0  0  0  0  0  0  0  0  0  0
    4.8042   -5.5083    0.0000 C   0  0  0  0  0  0  0  0  0  0  0  0
    4.8125   -6.9083    0.0000 N   0  0  0  0  0  0  0  0  0  0  0  0
    6.0375   -6.9042    0.0000 C   0  0  0  0  0  0  0  0  0  0  0  0
    4.2000   -5.8667    0.0000 C   0  0  0  0  0  0  0  0  0  0  0  0
    4.8000   -4.8083    0.0000 N   0  0  0  0  0  0  0  0  0  0  0  0
    4.2000   -6.5583    0.0000 C   0  0  0  0  0  0  0  0  0  0  0  0
    6.6417   -6.5542    0.0000 C   0  0  0  0  0  0  0  0  0  0  0  0
    6.0250   -5.4958    0.0000 C   0  0  0  0  0  0  0  0  0  0  0  0
    6.0417   -7.6083    0.0000 C   0  0  0  0  0  0  0  0  0  0  0  0
    6.6417   -5.8458    0.0000 C   0  0  0  0  0  0  0  0  0  0  0  0
    7.2542   -6.8958    0.0000 C   0  0  0  0  0  0  0  0  0  0  0  0
    5.4125   -4.4667    0.0000 C   0  0  0  0  0  0  0  0  0  0  0  0
    4.1917   -4.4708    0.0000 C   0  0  0  0  0  0  0  0  0  0  0  0
    7.2625   -7.5958    0.0000 C   0  0  0  0  0  0  0  0  0  0  0  0
    6.6542   -7.9542    0.0000 C   0  0  0  0  0  0  0  0  0  0  0  0
    3.5917   -5.5083    0.0000 C   0  0  0  0  0  0  0  0  0  0  0  0
    7.8667   -7.9417    0.0000 O   0  0  0  0  0  0  0  0  0  0  0  0
    3.5917   -6.9167    0.0000 C   0  0  0  0  0  0  0  0  0  0  0  0
    4.1917   -3.7667    0.0000 C   0  0  0  0  0  0  0  0  0  0  0  0
    3.5875   -4.8125    0.0000 C   0  0  0  0  0  0  0  0  0  0  0  0
    5.4125   -3.7583    0.0000 C   0  0  0  0  0  0  0  0  0  0  0  0
    6.0250   -4.8083    0.0000 C   0  0  0  0  0  0  0  0  0  0  0  0
    7.8667   -8.6458    0.0000 C   0  0  0  0  0  0  0  0  0  0  0  0
    2.9792   -5.8667    0.0000 C   0  0  0  0  0  0  0  0  0  0  0  0
    2.9792   -6.5667    0.0000 C   0  0  0  0  0  0  0  0  0  0  0  0
  1  2  1  0
  1  3  2  0
  2  4  2  0
  2  5  1  0
  3  6  1  0
  3  7  1  0
  4  8  1  0
  5  9  2  0
  1 10  1  0
  5 11  1  0
 10 12  1  0
  9 13  1  0
  7 14  1  0
  7 15  1  0
 13 16  2  0
 11 17  2  0
  6 18  2  0
 16 19  1  0
  8 20  2  0
 15 21  1  0
 15 22  1  0
 14 23  1  0
 14 24  1  0
 19 25  1  0
 18 26  1  0
 20 27  1  0
  9 12  1  0
  6  8  1  0
 16 17  1  0
 26 27  2  0
M  END
>  <MOLFORMULA>  (164) 
C24 H28 N2 O

>  <MOLWEIGHT>  (164) 
3.604982000000000e+002

>  <IDNUMBER>  (164) 
AT-225/NB48358

>  <SALTDATA>  (164) 
2 HBr/2 H2O

>  <PRICE>  (164) 
EUR 140/10 mg

>  <Similarity score>  (164) 
0.19

$$$$

     RDKit          2D

 33 38  0  0  0  0  0  0  0  0999 V2000
    5.2250   -0.9167    0.0000 C   0  0  0  0  0  0  0  0  0  0  0  0
    5.9375    0.3208    0.0000 C   0  0  0  0  0  0  0  0  0  0  0  0
    5.9375   -0.5042    0.0000 C   0  0  0  0  0  0  0  0  0  0  0  0
    4.5167   -0.5042    0.0000 C   0  0  0  0  0  0  0  0  0  0  0  0
    5.2250   -3.3875    0.0000 C   0  0  0  0  0  0  0  0  0  0  0  0
    5.2250    0.7333    0.0000 O   0  0  0  0  0  0  0  0  0  0  0  0
    5.2292   -4.2125    0.0000 C   0  0  0  0  0  0  0  0  0  0  0  0
    5.2250   -1.7375    0.0000 C   0  0  0  0  0  0  0  0  0  0  0  0
    4.5042   -2.9750    0.0000 N   0  0  0  0  0  0  0  0  0  0  0  0
    4.5167    0.3208    0.0000 C   0  0  0  0  0  0  0  0  0  0  0  0
    5.9417   -2.9667    0.0000 C   0  0  0  0  0  0  0  0  0  0  0  0
    5.9375   -2.1500    0.0000 C   0  0  0  0  0  0  0  0  0  0  0  0
    6.6667   -4.2042    0.0000 O   0  0  0  0  0  0  0  0  0  0  0  0
    5.9417   -4.6250    0.0000 C   0  0  0  0  0  0  0  0  0  0  0  0
    4.5042   -2.1500    0.0000 C   0  0  0  0  0  0  0  0  0  0  0  0
    6.6542   -3.3792    0.0000 C   0  0  0  0  0  0  0  0  0  0  0  0
    3.8042   -0.9167    0.0000 C   0  0  0  0  0  0  0  0  0  0  0  0
    6.6542    0.7333    0.0000 O   0  0  0  0  0  0  0  0  0  0  0  0
    4.5167   -4.6250    0.0000 C   0  0  0  0  0  0  0  0  0  0  0  0
    6.6500   -0.9167    0.0000 C   0  0  0  0  0  0  0  0  0  0  0  0
    3.8042    0.7333    0.0000 C   0  0  0  0  0  0  0  0  0  0  0  0
    5.9500   -5.4500    0.0000 C   0  0  0  0  0  0  0  0  0  0  0  0
    3.0917   -0.5042    0.0000 C   0  0  0  0  0  0  0  0  0  0  0  0
    4.5167   -5.4500    0.0000 C   0  0  0  0  0  0  0  0  0  0  0  0
    3.0917    0.3208    0.0000 C   0  0  0  0  0  0  0  0  0  0  0  0
    5.2375   -5.8625    0.0000 C   0  0  0  0  0  0  0  0  0  0  0  0
    2.3792   -0.9167    0.0000 Cl  0  0  0  0  0  0  0  0  0  0  0  0
    3.8042   -5.8667    0.0000 Cl  0  0  0  0  0  0  0  0  0  0  0  0
    7.3625   -0.5042    0.0000 C   0  0  0  0  0  0  0  0  0  0  0  0
    6.6500   -1.7417    0.0000 C   0  0  0  0  0  0  0  0  0  0  0  0
    7.3625   -2.1542    0.0000 C   0  0  0  0  0  0  0  0  0  0  0  0
    8.0750   -0.9167    0.0000 C   0  0  0  0  0  0  0  0  0  0  0  0
    8.0792   -1.7417    0.0000 C   0  0  0  0  0  0  0  0  0  0  0  0
  2  3  1  0
  1  3  2  0
  1  4  1  0
  5  9  2  0
  6 10  1  0
  5  7  1  0
  1  8  1  0
  9 15  1  0
  4 10  2  0
 11 12  2  0
  8 12  1  0
 13 16  1  0
  7 14  1  0
  8 15  2  0
 11 16  1  0
  4 17  1  0
  2 18  2  0
  7 19  2  0
  3 20  1  0
 10 21  1  0
 14 22  2  0
 17 23  2  0
 19 24  1  0
 23 25  1  0
 24 26  2  0
 23 27  1  0
 24 28  1  0
 20 29  1  0
 20 30  2  0
 30 31  1  0
 29 32  2  0
 31 33  2  0
  5 11  1  0
  2  6  1  0
 21 25  2  0
 32 33  1  0
 13 14  1  0
 22 26  1  0
M  END
>  <MOLFORMULA>  (165) 
C27 H15 Cl2 N O3

>  <MOLWEIGHT>  (165) 
4.723255000000000e+002

>  <IDNUMBER>  (165) 
AQ-358/J254344

>  <PRICE>  (165) 
EUR 29.00/10 mg

>  <Similarity score>  (165) 
0.19

$$$$

     RDKit          2D

 36 40  0  0  0  0  0  0  0  0999 V2000
    0.5125    2.4167    0.0000 C   0  0  0  0  0  0  0  0  0  0  0  0
    0.2542    3.3833    0.0000 C   0  0  0  0  0  0  0  0  0  0  0  0
    1.4792    2.1583    0.0000 C   0  0  0  0  0  0  0  0  0  0  0  0
   -0.1958    1.7125    0.0000 N   0  0  0  0  0  0  0  0  0  0  0  0
    0.9625    4.0875    0.0000 C   0  0  0  0  0  0  0  0  0  0  0  0
    2.1875    2.8625    0.0000 N   0  0  0  0  0  0  0  0  0  0  0  0
    1.9292    3.8292    0.0000 C   0  0  0  0  0  0  0  0  0  0  0  0
   -0.3875   -0.9292    0.0000 C   0  0  0  0  0  0  0  0  0  0  0  0
   -0.6458    0.0375    0.0000 C   0  0  0  0  0  0  0  0  0  0  0  0
    0.0625    0.7458    0.0000 C   0  0  0  0  0  0  0  0  0  0  0  0
   -1.0958   -1.6333    0.0000 N   0  0  0  0  0  0  0  0  0  0  0  0
    0.7042    5.0542    0.0000 C   0  0  0  0  0  0  0  0  0  0  0  0
   -0.7083    3.6458    0.0000 C   0  0  0  0  0  0  0  0  0  0  0  0
    1.7375    1.1917    0.0000 O   0  0  0  0  0  0  0  0  0  0  0  0
    0.5792   -1.1875    0.0000 O   0  0  0  0  0  0  0  0  0  0  0  0
    2.6375    4.5333    0.0000 C   0  0  0  0  0  0  0  0  0  0  0  0
   -0.8375   -2.6000    0.0000 C   0  0  0  0  0  0  0  0  0  0  0  0
   -1.1625    1.9708    0.0000 C   0  0  0  0  0  0  0  0  0  0  0  0
    1.4125    5.7583    0.0000 C   0  0  0  0  0  0  0  0  0  0  0  0
   -0.3250   -4.5333    0.0000 C   0  0  0  0  0  0  0  0  0  0  0  0
    2.3792    5.5000    0.0000 C   0  0  0  0  0  0  0  0  0  0  0  0
    1.1583    6.7250    0.0000 Cl  0  0  0  0  0  0  0  0  0  0  0  0
   -1.6125    0.3000    0.0000 C   0  0  0  0  0  0  0  0  0  0  0  0
   -1.5458   -3.3042    0.0000 C   0  0  0  0  0  0  0  0  0  0  0  0
    0.1250   -2.8583    0.0000 C   0  0  0  0  0  0  0  0  0  0  0  0
    0.3833   -3.8250    0.0000 C   0  0  0  0  0  0  0  0  0  0  0  0
   -1.2875   -4.2708    0.0000 C   0  0  0  0  0  0  0  0  0  0  0  0
   -0.0667   -5.5000    0.0000 O   0  0  0  0  0  0  0  0  0  0  0  0
   -1.8708    1.2667    0.0000 C   0  0  0  0  0  0  0  0  0  0  0  0
   -0.9667    4.6083    0.0000 C   0  0  0  0  0  0  0  0  0  0  0  0
   -1.4167    2.9375    0.0000 C   0  0  0  0  0  0  0  0  0  0  0  0
    0.9000   -5.7583    0.0000 C   0  0  0  0  0  0  0  0  0  0  0  0
    1.1583   -6.7250    0.0000 C   0  0  0  0  0  0  0  0  0  0  0  0
   -1.9333    4.8667    0.0000 C   0  0  0  0  0  0  0  0  0  0  0  0
   -2.3833    3.2000    0.0000 C   0  0  0  0  0  0  0  0  0  0  0  0
   -2.6417    4.1625    0.0000 C   0  0  0  0  0  0  0  0  0  0  0  0
  1  2  2  0
  1  3  1  0
  1  4  1  0
  2  5  1  0
  3  6  1  0
  6  7  1  0
  8  9  1  0
  9 10  1  0
  4 10  1  0
  8 11  1  0
  5 12  1  0
  2 13  1  0
  3 14  2  0
  8 15  2  0
  7 16  1  0
 11 17  1  0
  4 18  1  0
 12 19  2  0
 20 26  1  0
 16 21  2  0
 19 22  1  0
 23 29  1  0
 17 24  2  0
 17 25  1  0
 25 26  2  0
 24 27  1  0
 20 28  1  0
 18 29  1  0
 13 30  1  0
 13 31  2  0
 28 32  1  0
 32 33  1  0
 30 34  2  0
 31 35  1  0
 35 36  2  0
  5  7  2  0
  9 23  1  0
 19 21  1  0
 34 36  1  0
 20 27  2  0
M  END
>  <MOLFORMULA>  (166) 
C29 H28 Cl N3 O3

>  <MOLWEIGHT>  (166) 
5.020112000000000e+002

>  <IDNUMBER>  (166) 
AN-153/I261743

>  <PRICE>  (166) 
EUR 130/10 mg

>  <Similarity score>  (166) 
0.19

$$$$

     RDKit          2D

 30 34  0  0  0  0  0  0  0  0999 V2000
   -0.0708   -0.4792    0.0000 C   0  0  0  0  0  0  0  0  0  0  0  0
   -0.7125   -0.1125    0.0000 C   0  0  0  0  0  0  0  0  0  0  0  0
   -0.7125    0.6167    0.0000 N   0  0  0  0  0  0  0  0  0  0  0  0
   -0.0708   -1.2167    0.0000 C   0  0  0  0  0  0  0  0  0  0  0  0
    0.5625   -0.1042    0.0000 C   0  0  0  0  0  0  0  0  0  0  0  0
   -1.3417   -0.4833    0.0000 S   0  0  0  0  0  0  0  0  0  0  0  0
    0.5625   -1.5875    0.0000 O   0  0  0  0  0  0  0  0  0  0  0  0
    4.4083   -1.5750    0.0000 C   0  0  0  0  0  0  0  0  0  0  0  0
    1.1958   -1.2167    0.0000 C   0  0  0  0  0  0  0  0  0  0  0  0
    1.1958   -0.4792    0.0000 C   0  0  0  0  0  0  0  0  0  0  0  0
   -1.9833    0.6167    0.0000 C   0  0  0  0  0  0  0  0  0  0  0  0
   -1.9792   -0.1167    0.0000 C   0  0  0  0  0  0  0  0  0  0  0  0
    3.7542   -1.2042    0.0000 C   0  0  0  0  0  0  0  0  0  0  0  0
    1.8375   -1.5875    0.0000 C   0  0  0  0  0  0  0  0  0  0  0  0
   -0.7208   -1.5958    0.0000 O   0  0  0  0  0  0  0  0  0  0  0  0
    4.4125   -2.3250    0.0000 C   0  0  0  0  0  0  0  0  0  0  0  0
    5.0542   -1.1958    0.0000 C   0  0  0  0  0  0  0  0  0  0  0  0
    3.1125   -1.5875    0.0000 O   0  0  0  0  0  0  0  0  0  0  0  0
    1.8375   -0.1083    0.0000 C   0  0  0  0  0  0  0  0  0  0  0  0
    2.4750   -1.2167    0.0000 C   0  0  0  0  0  0  0  0  0  0  0  0
    3.7667   -2.7042    0.0000 Cl  0  0  0  0  0  0  0  0  0  0  0  0
    5.0500   -0.4458    0.0000 F   0  0  0  0  0  0  0  0  0  0  0  0
    2.4750   -0.4792    0.0000 C   0  0  0  0  0  0  0  0  0  0  0  0
   -2.6167    0.9792    0.0000 C   0  0  0  0  0  0  0  0  0  0  0  0
    5.7125   -2.3167    0.0000 C   0  0  0  0  0  0  0  0  0  0  0  0
   -2.6125   -0.4833    0.0000 C   0  0  0  0  0  0  0  0  0  0  0  0
    5.7083   -1.5667    0.0000 C   0  0  0  0  0  0  0  0  0  0  0  0
    5.0667   -2.6958    0.0000 C   0  0  0  0  0  0  0  0  0  0  0  0
   -3.2500   -0.1167    0.0000 C   0  0  0  0  0  0  0  0  0  0  0  0
   -3.2542    0.6125    0.0000 C   0  0  0  0  0  0  0  0  0  0  0  0
  1  2  1  0
  2  3  2  0
  1  4  1  0
  1  5  2  0
  2  6  1  0
  4  7  1  0
  8 13  1  0
  9 10  2  0
  5 10  1  0
  3 11  1  0
  6 12  1  0
 13 18  1  0
  9 14  1  0
  4 15  2  0
  8 16  1  0
  8 17  2  0
 18 20  1  0
 10 19  1  0
 14 20  2  0
 16 21  1  0
 17 22  1  0
 19 23  2  0
 11 24  1  0
 25 27  2  0
 12 26  1  0
 17 27  1  0
 16 28  2  0
 26 29  2  0
 24 30  2  0
  7  9  1  0
 11 12  2  0
 20 23  1  0
 29 30  1  0
 25 28  1  0
M  END
>  <MOLFORMULA>  (167) 
C23 H13 Cl F N O3 S

>  <MOLWEIGHT>  (167) 
4.378767000000000e+002

>  <IDNUMBER>  (167) 
AT-225/NB53220

>  <PRICE>  (167) 
EUR 140/10 mg

>  <Similarity score>  (167) 
0.19

$$$$

     RDKit          2D

 34 38  0  0  0  0  0  0  0  0999 V2000
    0.5833    1.7083    0.0000 C   0  0  0  0  0  0  0  0  0  0  0  0
    0.6750    2.7042    0.0000 C   0  0  0  0  0  0  0  0  0  0  0  0
    1.4042    1.1333    0.0000 C   0  0  0  0  0  0  0  0  0  0  0  0
   -0.3208    1.2875    0.0000 N   0  0  0  0  0  0  0  0  0  0  0  0
    1.5792    3.1250    0.0000 C   0  0  0  0  0  0  0  0  0  0  0  0
    2.3083    1.5542    0.0000 N   0  0  0  0  0  0  0  0  0  0  0  0
    2.4000    2.5500    0.0000 C   0  0  0  0  0  0  0  0  0  0  0  0
   -1.4083   -1.1292    0.0000 C   0  0  0  0  0  0  0  0  0  0  0  0
   -1.3167   -0.1292    0.0000 C   0  0  0  0  0  0  0  0  0  0  0  0
   -0.4125    0.2875    0.0000 C   0  0  0  0  0  0  0  0  0  0  0  0
   -2.3125   -1.5500    0.0000 N   0  0  0  0  0  0  0  0  0  0  0  0
    1.6708    4.1167    0.0000 C   0  0  0  0  0  0  0  0  0  0  0  0
   -0.1458    3.2792    0.0000 C   0  0  0  0  0  0  0  0  0  0  0  0
    1.3125    0.1375    0.0000 O   0  0  0  0  0  0  0  0  0  0  0  0
   -0.5875   -1.7042    0.0000 O   0  0  0  0  0  0  0  0  0  0  0  0
    3.3042    2.9708    0.0000 C   0  0  0  0  0  0  0  0  0  0  0  0
   -2.4042   -2.5458    0.0000 C   0  0  0  0  0  0  0  0  0  0  0  0
   -1.1417    1.8625    0.0000 C   0  0  0  0  0  0  0  0  0  0  0  0
    2.5750    4.5375    0.0000 C   0  0  0  0  0  0  0  0  0  0  0  0
   -2.5792   -4.5375    0.0000 C   0  0  0  0  0  0  0  0  0  0  0  0
    3.3958    3.9667    0.0000 C   0  0  0  0  0  0  0  0  0  0  0  0
    2.6667    5.5333    0.0000 Cl  0  0  0  0  0  0  0  0  0  0  0  0
   -2.6708   -5.5333    0.0000 F   0  0  0  0  0  0  0  0  0  0  0  0
   -2.1375    0.4417    0.0000 C   0  0  0  0  0  0  0  0  0  0  0  0
   -3.3083   -2.9667    0.0000 C   0  0  0  0  0  0  0  0  0  0  0  0
   -1.5833   -3.1208    0.0000 C   0  0  0  0  0  0  0  0  0  0  0  0
   -3.4000   -3.9625    0.0000 C   0  0  0  0  0  0  0  0  0  0  0  0
   -1.6750   -4.1167    0.0000 C   0  0  0  0  0  0  0  0  0  0  0  0
   -2.0458    1.4417    0.0000 C   0  0  0  0  0  0  0  0  0  0  0  0
   -1.0500    2.8583    0.0000 C   0  0  0  0  0  0  0  0  0  0  0  0
   -0.0542    4.2708    0.0000 C   0  0  0  0  0  0  0  0  0  0  0  0
   -0.8750    4.8458    0.0000 C   0  0  0  0  0  0  0  0  0  0  0  0
   -1.8708    3.4333    0.0000 C   0  0  0  0  0  0  0  0  0  0  0  0
   -1.7792    4.4250    0.0000 C   0  0  0  0  0  0  0  0  0  0  0  0
  1  2  2  0
  1  3  1  0
  1  4  1  0
  2  5  1  0
  3  6  1  0
  6  7  1  0
  8  9  1  0
  9 10  1  0
  4 10  1  0
  8 11  1  0
  5 12  1  0
  2 13  1  0
  3 14  2  0
  8 15  2  0
  7 16  1  0
 11 17  1  0
  4 18  1  0
 12 19  2  0
 20 27  2  0
 16 21  2  0
 19 22  1  0
 20 23  1  0
 24 29  1  0
 17 25  2  0
 17 26  1  0
 25 27  1  0
 26 28  2  0
 18 29  1  0
 13 30  2  0
 13 31  1  0
 31 32  2  0
 30 33  1  0
 32 34  1  0
  5  7  2  0
  9 24  1  0
 19 21  1  0
 33 34  2  0
 20 28  1  0
M  END
>  <MOLFORMULA>  (168) 
C27 H23 Cl F N3 O2

>  <MOLWEIGHT>  (168) 
4.759487000000000e+002

>  <IDNUMBER>  (168) 
AN-153/MD17196

>  <SALTDATA>  (168) 
HCl

>  <PRICE>  (168) 
EUR 130/10 mg

>  <Similarity score>  (168) 
0.19

$$$$

     RDKit          2D

 34 38  0  0  0  0  0  0  0  0999 V2000
   -3.3208    2.1875    0.0000 C   0  0  0  0  0  0  0  0  0  0  0  0
   -3.3125    1.3583    0.0000 C   0  0  0  0  0  0  0  0  0  0  0  0
   -1.8833    2.1875    0.0000 C   0  0  0  0  0  0  0  0  0  0  0  0
   -2.6083    2.6083    0.0000 N   0  0  0  0  0  0  0  0  0  0  0  0
   -1.8833    1.3583    0.0000 N   0  0  0  0  0  0  0  0  0  0  0  0
   -2.6000    0.9458    0.0000 C   0  0  0  0  0  0  0  0  0  0  0  0
   -4.1000    2.4333    0.0000 C   0  0  0  0  0  0  0  0  0  0  0  0
   -4.0958    1.1000    0.0000 S   0  0  0  0  0  0  0  0  0  0  0  0
   -1.1708    2.6000    0.0000 N   0  0  0  0  0  0  0  0  0  0  0  0
   -4.5833    1.7708    0.0000 C   0  0  0  0  0  0  0  0  0  0  0  0
    0.2542    2.5958    0.0000 C   0  0  0  0  0  0  0  0  0  0  0  0
    0.9750    2.1750    0.0000 C   0  0  0  0  0  0  0  0  0  0  0  0
   -0.4583    2.1833    0.0000 C   0  0  0  0  0  0  0  0  0  0  0  0
    1.6917    2.5875    0.0000 N   0  0  0  0  0  0  0  0  0  0  0  0
   -4.3625    3.2208    0.0000 C   0  0  0  0  0  0  0  0  0  0  0  0
   -2.6000    0.1208    0.0000 O   0  0  0  0  0  0  0  0  0  0  0  0
    2.3792   -0.2917    0.0000 C   0  0  0  0  0  0  0  0  0  0  0  0
    0.9667    1.3500    0.0000 O   0  0  0  0  0  0  0  0  0  0  0  0
    1.6667    0.1208    0.0000 C   0  0  0  0  0  0  0  0  0  0  0  0
    3.1042    0.1208    0.0000 C   0  0  0  0  0  0  0  0  0  0  0  0
    2.4000    1.3583    0.0000 C   0  0  0  0  0  0  0  0  0  0  0  0
    2.4042    2.1708    0.0000 C   0  0  0  0  0  0  0  0  0  0  0  0
    1.6792    0.9583    0.0000 C   0  0  0  0  0  0  0  0  0  0  0  0
    3.1042    0.9333    0.0000 C   0  0  0  0  0  0  0  0  0  0  0  0
   -1.1708    3.4208    0.0000 C   0  0  0  0  0  0  0  0  0  0  0  0
    3.8250   -0.2917    0.0000 F   0  0  0  0  0  0  0  0  0  0  0  0
    0.9417   -0.2875    0.0000 F   0  0  0  0  0  0  0  0  0  0  0  0
    0.2625    3.4208    0.0000 C   0  0  0  0  0  0  0  0  0  0  0  0
   -0.4583    3.8333    0.0000 C   0  0  0  0  0  0  0  0  0  0  0  0
   -3.8083    3.8375    0.0000 C   0  0  0  0  0  0  0  0  0  0  0  0
   -5.1708    3.3958    0.0000 C   0  0  0  0  0  0  0  0  0  0  0  0
   -4.0708    4.6167    0.0000 C   0  0  0  0  0  0  0  0  0  0  0  0
   -5.4333    4.1667    0.0000 C   0  0  0  0  0  0  0  0  0  0  0  0
   -4.8750    4.7792    0.0000 C   0  0  0  0  0  0  0  0  0  0  0  0
  1  2  2  0
  3  4  2  0
  1  4  1  0
  3  5  1  0
  2  6  1  0
  1  7  1  0
  2  8  1  0
  3  9  1  0
  7 10  2  0
 11 13  1  0
 11 12  1  0
  9 13  1  0
 12 14  1  0
  7 15  1  0
  6 16  2  0
 17 20  2  0
 12 18  2  0
 19 23  2  0
 20 24  1  0
 21 22  1  0
 14 22  1  0
 21 23  1  0
 21 24  2  0
  9 25  1  0
 20 26  1  0
 19 27  1  0
 28 29  1  0
 25 29  1  0
 15 30  1  0
 15 31  2  0
 30 32  2  0
 31 33  1  0
 33 34  2  0
  8 10  1  0
  5  6  1  0
 32 34  1  0
 11 28  1  0
 17 19  1  0
M  END
>  <MOLFORMULA>  (169) 
C25 H22 F2 N4 O2 S

>  <MOLWEIGHT>  (169) 
4.805368000000000e+002

>  <IDNUMBER>  (169) 
AT-687/PE25946

>  <PRICE>  (169) 
EUR 80/10 mg

>  <Similarity score>  (169) 
0.19

$$$$

     RDKit          2D

 35 39  0  0  0  0  0  0  0  0999 V2000
   -3.3208    2.1875    0.0000 C   0  0  0  0  0  0  0  0  0  0  0  0
   -3.3125    1.3583    0.0000 C   0  0  0  0  0  0  0  0  0  0  0  0
   -1.8833    2.1875    0.0000 C   0  0  0  0  0  0  0  0  0  0  0  0
   -2.6083    2.6083    0.0000 N   0  0  0  0  0  0  0  0  0  0  0  0
   -1.8833    1.3583    0.0000 N   0  0  0  0  0  0  0  0  0  0  0  0
   -2.6000    0.9458    0.0000 C   0  0  0  0  0  0  0  0  0  0  0  0
   -4.1000    2.4333    0.0000 C   0  0  0  0  0  0  0  0  0  0  0  0
   -4.0958    1.1000    0.0000 S   0  0  0  0  0  0  0  0  0  0  0  0
   -1.1708    2.6000    0.0000 N   0  0  0  0  0  0  0  0  0  0  0  0
   -4.5833    1.7708    0.0000 C   0  0  0  0  0  0  0  0  0  0  0  0
    0.2542    2.5958    0.0000 C   0  0  0  0  0  0  0  0  0  0  0  0
    0.9750    2.1750    0.0000 C   0  0  0  0  0  0  0  0  0  0  0  0
   -0.4583    2.1833    0.0000 C   0  0  0  0  0  0  0  0  0  0  0  0
    1.6917    2.5875    0.0000 N   0  0  0  0  0  0  0  0  0  0  0  0
   -4.3625    3.2208    0.0000 C   0  0  0  0  0  0  0  0  0  0  0  0
   -2.6000    0.1208    0.0000 O   0  0  0  0  0  0  0  0  0  0  0  0
    0.9667    1.3500    0.0000 O   0  0  0  0  0  0  0  0  0  0  0  0
    2.4042    2.1708    0.0000 C   0  0  0  0  0  0  0  0  0  0  0  0
   -1.1708    3.4208    0.0000 C   0  0  0  0  0  0  0  0  0  0  0  0
    2.4000    1.3583    0.0000 C   0  0  0  0  0  0  0  0  0  0  0  0
    2.3917   -0.3000    0.0000 C   0  0  0  0  0  0  0  0  0  0  0  0
    0.2625    3.4208    0.0000 C   0  0  0  0  0  0  0  0  0  0  0  0
    1.6792    0.9583    0.0000 C   0  0  0  0  0  0  0  0  0  0  0  0
    3.1042    0.9333    0.0000 C   0  0  0  0  0  0  0  0  0  0  0  0
    1.6667    0.1208    0.0000 C   0  0  0  0  0  0  0  0  0  0  0  0
    3.1042    0.1125    0.0000 C   0  0  0  0  0  0  0  0  0  0  0  0
    2.3792   -1.1167    0.0000 O   0  0  0  0  0  0  0  0  0  0  0  0
   -0.4583    3.8333    0.0000 C   0  0  0  0  0  0  0  0  0  0  0  0
   -5.1708    3.3958    0.0000 C   0  0  0  0  0  0  0  0  0  0  0  0
   -3.8083    3.8375    0.0000 C   0  0  0  0  0  0  0  0  0  0  0  0
    3.1042   -1.5417    0.0000 C   0  0  0  0  0  0  0  0  0  0  0  0
    3.1000   -2.3667    0.0000 C   0  0  0  0  0  0  0  0  0  0  0  0
   -5.4333    4.1667    0.0000 C   0  0  0  0  0  0  0  0  0  0  0  0
   -4.0708    4.6167    0.0000 C   0  0  0  0  0  0  0  0  0  0  0  0
   -4.8750    4.7792    0.0000 C   0  0  0  0  0  0  0  0  0  0  0  0
  1  2  2  0
  3  4  2  0
  1  4  1  0
  3  5  1  0
  2  6  1  0
  1  7  1  0
  2  8  1  0
  3  9  1  0
  7 10  2  0
 11 13  1  0
 11 12  1  0
  9 13  1  0
 12 14  1  0
  7 15  1  0
  6 16  2  0
 12 17  2  0
 14 18  1  0
  9 19  1  0
 18 20  1  0
 21 26  2  0
 22 28  1  0
 20 23  1  0
 20 24  2  0
 23 25  2  0
 24 26  1  0
 21 27  1  0
 19 28  1  0
 15 29  2  0
 15 30  1  0
 27 31  1  0
 31 32  1  0
 29 33  1  0
 30 34  2  0
 34 35  1  0
  8 10  1  0
  5  6  1  0
 33 35  2  0
 11 22  1  0
 21 25  1  0
M  END
>  <MOLFORMULA>  (170) 
C27 H28 N4 O3 S

>  <MOLWEIGHT>  (170) 
4.886092000000000e+002

>  <IDNUMBER>  (170) 
AT-687/PE25943

>  <PRICE>  (170) 
EUR 80/10 mg

>  <Similarity score>  (170) 
0.19

$$$$

     RDKit          2D

 25 29  0  0  0  0  0  0  0  0999 V2000
    5.3375   -5.5167    0.0000 C   0  0  0  0  0  0  0  0  0  0  0  0
    5.6250   -4.2042    0.0000 N   0  0  0  0  0  0  0  0  0  0  0  0
    4.6167   -5.1000    0.0000 C   0  0  0  0  0  0  0  0  0  0  0  0
    5.9542   -4.9667    0.0000 C   0  0  0  0  0  0  0  0  0  0  0  0
    4.8000   -4.2875    0.0000 N   0  0  0  0  0  0  0  0  0  0  0  0
    3.9042   -5.5167    0.0000 C   0  0  0  0  0  0  0  0  0  0  0  0
    3.9000   -6.3542    0.0000 C   0  0  0  0  0  0  0  0  0  0  0  0
    4.6167   -6.7667    0.0000 N   0  0  0  0  0  0  0  0  0  0  0  0
    3.1875   -5.1042    0.0000 C   0  0  0  0  0  0  0  0  0  0  0  0
    6.7625   -5.1417    0.0000 C   0  0  0  0  0  0  0  0  0  0  0  0
    5.3417   -6.3542    0.0000 C   0  0  0  0  0  0  0  0  0  0  0  0
    3.1875   -6.7625    0.0000 C   0  0  0  0  0  0  0  0  0  0  0  0
    2.4750   -5.5250    0.0000 C   0  0  0  0  0  0  0  0  0  0  0  0
    2.4750   -6.3500    0.0000 C   0  0  0  0  0  0  0  0  0  0  0  0
    7.3167   -4.5375    0.0000 C   0  0  0  0  0  0  0  0  0  0  0  0
    8.1167   -4.7042    0.0000 C   0  0  0  0  0  0  0  0  0  0  0  0
    1.7625   -5.1042    0.0000 O   0  0  0  0  0  0  0  0  0  0  0  0
    1.7625   -6.7625    0.0000 O   0  0  0  0  0  0  0  0  0  0  0  0
    8.3750   -5.5000    0.0000 C   0  0  0  0  0  0  0  0  0  0  0  0
    7.0125   -5.9292    0.0000 C   0  0  0  0  0  0  0  0  0  0  0  0
    7.8167   -6.1042    0.0000 C   0  0  0  0  0  0  0  0  0  0  0  0
    8.6750   -4.0917    0.0000 C   0  0  0  0  0  0  0  0  0  0  0  0
    1.0417   -5.5167    0.0000 C   0  0  0  0  0  0  0  0  0  0  0  0
    1.0417   -6.3417    0.0000 C   0  0  0  0  0  0  0  0  0  0  0  0
    9.1792   -5.6750    0.0000 C   0  0  0  0  0  0  0  0  0  0  0  0
  2  4  2  0
  1  3  2  0
  1  4  1  0
  3  5  1  0
  3  6  1  0
  7  8  1  0
  8 11  2  0
  6  9  2  0
  4 10  1  0
  1 11  1  0
  7 12  2  0
  9 13  1  0
 12 14  1  0
 10 15  1  0
 15 16  2  0
 13 17  1  0
 14 18  1  0
 19 21  2  0
 10 20  2  0
 20 21  1  0
 16 22  1  0
 17 23  1  0
 18 24  1  0
 19 25  1  0
  2  5  1  0
  6  7  1  0
 13 14  2  0
 16 19  1  0
 23 24  1  0
M  END
>  <MOLFORMULA>  (171) 
C20 H17 N3 O2

>  <MOLWEIGHT>  (171) 
3.313733000000000e+002

>  <IDNUMBER>  (171) 
AT-687/SK17479

>  <PRICE>  (171) 
EUR 80/10 mg

>  <Similarity score>  (171) 
0.19

$$$$

     RDKit          2D

 36 41  0  0  0  0  0  0  0  0999 V2000
    1.0000    1.3000    0.0000 C   0  0  0  0  0  0  0  0  0  0  0  0
    0.5000    2.1667    0.0000 C   0  0  0  0  0  0  0  0  0  0  0  0
    2.0000    1.3000    0.0000 C   0  0  0  0  0  0  0  0  0  0  0  0
    0.5000    0.4333    0.0000 N   0  0  0  0  0  0  0  0  0  0  0  0
    1.0000    3.0333    0.0000 C   0  0  0  0  0  0  0  0  0  0  0  0
    0.5000   -3.0292    0.0000 N   0  0  0  0  0  0  0  0  0  0  0  0
    2.5000    2.1667    0.0000 N   0  0  0  0  0  0  0  0  0  0  0  0
    1.0000   -2.1625    0.0000 C   0  0  0  0  0  0  0  0  0  0  0  0
    0.5000   -1.2958    0.0000 C   0  0  0  0  0  0  0  0  0  0  0  0
    2.0000    3.0333    0.0000 C   0  0  0  0  0  0  0  0  0  0  0  0
    1.0000   -0.4292    0.0000 C   0  0  0  0  0  0  0  0  0  0  0  0
   -0.5000   -3.0292    0.0000 C   0  0  0  0  0  0  0  0  0  0  0  0
   -1.0000   -3.8958    0.0000 C   0  0  0  0  0  0  0  0  0  0  0  0
    0.5000    3.9000    0.0000 C   0  0  0  0  0  0  0  0  0  0  0  0
   -0.5000    2.1667    0.0000 C   0  0  0  0  0  0  0  0  0  0  0  0
    2.5000    0.4333    0.0000 O   0  0  0  0  0  0  0  0  0  0  0  0
    1.0000   -3.8958    0.0000 C   0  0  0  0  0  0  0  0  0  0  0  0
    2.0000   -2.1625    0.0000 O   0  0  0  0  0  0  0  0  0  0  0  0
   -0.5000   -4.7625    0.0000 C   0  0  0  0  0  0  0  0  0  0  0  0
    2.5000    3.9000    0.0000 C   0  0  0  0  0  0  0  0  0  0  0  0
    0.5000   -4.7625    0.0000 C   0  0  0  0  0  0  0  0  0  0  0  0
   -0.5000    0.4333    0.0000 C   0  0  0  0  0  0  0  0  0  0  0  0
    1.0000    4.7625    0.0000 C   0  0  0  0  0  0  0  0  0  0  0  0
   -0.5000   -1.2958    0.0000 C   0  0  0  0  0  0  0  0  0  0  0  0
    2.0000    4.7625    0.0000 C   0  0  0  0  0  0  0  0  0  0  0  0
    0.5000    5.6250    0.0000 Cl  0  0  0  0  0  0  0  0  0  0  0  0
   -1.0000   -0.4292    0.0000 C   0  0  0  0  0  0  0  0  0  0  0  0
   -2.0000   -3.8958    0.0000 C   0  0  0  0  0  0  0  0  0  0  0  0
   -1.0000    1.3000    0.0000 C   0  0  0  0  0  0  0  0  0  0  0  0
   -1.0000    3.0333    0.0000 C   0  0  0  0  0  0  0  0  0  0  0  0
   -1.0000   -5.6250    0.0000 C   0  0  0  0  0  0  0  0  0  0  0  0
   -2.5000   -4.7625    0.0000 C   0  0  0  0  0  0  0  0  0  0  0  0
   -2.0000   -5.6250    0.0000 C   0  0  0  0  0  0  0  0  0  0  0  0
   -2.0000    1.3000    0.0000 C   0  0  0  0  0  0  0  0  0  0  0  0
   -2.0000    3.0333    0.0000 C   0  0  0  0  0  0  0  0  0  0  0  0
   -2.5000    2.1667    0.0000 C   0  0  0  0  0  0  0  0  0  0  0  0
  1  2  2  0
  1  3  1  0
  1  4  1  0
  2  5  1  0
  6  8  1  0
  3  7  1  0
  8  9  1  0
  9 11  1  0
  7 10  1  0
  4 11  1  0
  6 12  1  0
 12 13  1  0
  5 14  1  0
  2 15  1  0
  3 16  2  0
  6 17  1  0
  8 18  2  0
 19 21  1  0
 10 20  1  0
 17 21  1  0
  4 22  1  0
 14 23  2  0
 24 27  1  0
 20 25  2  0
 23 26  1  0
 22 27  1  0
 13 28  1  0
 15 29  1  0
 15 30  2  0
 19 31  1  0
 28 32  2  0
 31 33  2  0
 29 34  2  0
 30 35  1  0
 35 36  2  0
  5 10  2  0
  9 24  1  0
 23 25  1  0
 34 36  1  0
 13 19  2  0
 32 33  1  0
M  END
>  <MOLFORMULA>  (172) 
C30 H28 Cl N3 O2

>  <MOLWEIGHT>  (172) 
4.980232000000000e+002

>  <IDNUMBER>  (172) 
AN-153/I262635

>  <PRICE>  (172) 
EUR 130/10 mg

>  <Similarity score>  (172) 
0.19

$$$$

     RDKit          2D

 33 37  0  0  0  0  0  0  0  0999 V2000
   -3.3208    2.1875    0.0000 C   0  0  0  0  0  0  0  0  0  0  0  0
   -3.3125    1.3583    0.0000 C   0  0  0  0  0  0  0  0  0  0  0  0
   -1.8833    2.1875    0.0000 C   0  0  0  0  0  0  0  0  0  0  0  0
   -2.6083    2.6083    0.0000 N   0  0  0  0  0  0  0  0  0  0  0  0
   -1.8833    1.3583    0.0000 N   0  0  0  0  0  0  0  0  0  0  0  0
   -2.6000    0.9458    0.0000 C   0  0  0  0  0  0  0  0  0  0  0  0
   -4.1000    2.4333    0.0000 C   0  0  0  0  0  0  0  0  0  0  0  0
   -4.0958    1.1000    0.0000 S   0  0  0  0  0  0  0  0  0  0  0  0
   -1.1708    2.6000    0.0000 N   0  0  0  0  0  0  0  0  0  0  0  0
   -4.5833    1.7708    0.0000 C   0  0  0  0  0  0  0  0  0  0  0  0
    0.2542    2.5958    0.0000 C   0  0  0  0  0  0  0  0  0  0  0  0
    0.9750    2.1750    0.0000 C   0  0  0  0  0  0  0  0  0  0  0  0
   -0.4583    2.1833    0.0000 C   0  0  0  0  0  0  0  0  0  0  0  0
    1.6917    2.5875    0.0000 N   0  0  0  0  0  0  0  0  0  0  0  0
   -4.3625    3.2208    0.0000 C   0  0  0  0  0  0  0  0  0  0  0  0
   -2.6000    0.1208    0.0000 O   0  0  0  0  0  0  0  0  0  0  0  0
    0.9667    1.3500    0.0000 O   0  0  0  0  0  0  0  0  0  0  0  0
    2.4042    2.1708    0.0000 C   0  0  0  0  0  0  0  0  0  0  0  0
    2.4000    1.3458    0.0000 C   0  0  0  0  0  0  0  0  0  0  0  0
    3.1167    0.9333    0.0000 C   0  0  0  0  0  0  0  0  0  0  0  0
   -1.1708    3.4208    0.0000 C   0  0  0  0  0  0  0  0  0  0  0  0
    0.2625    3.4208    0.0000 C   0  0  0  0  0  0  0  0  0  0  0  0
   -0.4583    3.8333    0.0000 C   0  0  0  0  0  0  0  0  0  0  0  0
   -3.8083    3.8375    0.0000 C   0  0  0  0  0  0  0  0  0  0  0  0
   -5.1708    3.3958    0.0000 C   0  0  0  0  0  0  0  0  0  0  0  0
    1.6875    0.9333    0.0000 C   0  0  0  0  0  0  0  0  0  0  0  0
    3.8292    1.3458    0.0000 C   0  0  0  0  0  0  0  0  0  0  0  0
    3.1167    0.1083    0.0000 C   0  0  0  0  0  0  0  0  0  0  0  0
    2.4042   -0.3042    0.0000 C   0  0  0  0  0  0  0  0  0  0  0  0
   -4.0708    4.6167    0.0000 C   0  0  0  0  0  0  0  0  0  0  0  0
   -5.4333    4.1667    0.0000 C   0  0  0  0  0  0  0  0  0  0  0  0
    1.6792    0.1083    0.0000 C   0  0  0  0  0  0  0  0  0  0  0  0
   -4.8750    4.7792    0.0000 C   0  0  0  0  0  0  0  0  0  0  0  0
  1  2  2  0
  3  4  2  0
  1  4  1  0
  3  5  1  0
  2  6  1  0
  1  7  1  0
  2  8  1  0
  3  9  1  0
  7 10  2  0
 11 13  1  0
 11 12  1  0
  9 13  1  0
 12 14  1  0
  7 15  1  0
  6 16  2  0
 12 17  2  0
 14 18  1  0
 18 19  1  0
 19 20  2  0
  9 21  1  0
 22 23  1  0
 21 23  1  0
 15 24  1  0
 15 25  2  0
 19 26  1  0
 20 27  1  0
 20 28  1  0
 29 32  1  0
 24 30  2  0
 25 31  1  0
 26 32  2  0
 31 33  2  0
  8 10  1  0
  5  6  1  0
 30 33  1  0
 11 22  1  0
 28 29  2  0
M  END
>  <MOLFORMULA>  (173) 
C26 H26 N4 O2 S

>  <MOLWEIGHT>  (173) 
4.585834000000000e+002

>  <IDNUMBER>  (173) 
AT-687/PE25959

>  <PRICE>  (173) 
EUR 80/10 mg

>  <Similarity score>  (173) 
0.19

$$$$

     RDKit          2D

 31 35  0  0  0  0  0  0  0  0999 V2000
    4.3417   -4.8917    0.0000 C   0  0  0  0  0  0  0  0  0  0  0  0
    5.6250   -4.6250    0.0000 C   0  0  0  0  0  0  0  0  0  0  0  0
    3.2667   -4.1000    0.0000 O   0  0  0  0  0  0  0  0  0  0  0  0
    3.9167   -6.1500    0.0000 C   0  0  0  0  0  0  0  0  0  0  0  0
    6.0542   -3.3500    0.0000 N   0  0  0  0  0  0  0  0  0  0  0  0
    2.5917   -6.1750    0.0000 C   0  0  0  0  0  0  0  0  0  0  0  0
    2.1792   -4.9000    0.0000 C   0  0  0  0  0  0  0  0  0  0  0  0
    7.7667   -1.8250    0.0000 C   0  0  0  0  0  0  0  0  0  0  0  0
    9.0750   -1.5417    0.0000 C   0  0  0  0  0  0  0  0  0  0  0  0
    6.5167   -5.6042    0.0000 N   0  0  0  0  0  0  0  0  0  0  0  0
    7.3542   -3.0750    0.0000 C   0  0  0  0  0  0  0  0  0  0  0  0
    4.7917   -7.1417    0.0000 N   0  0  0  0  0  0  0  0  0  0  0  0
    9.4792   -0.2750    0.0000 N   0  0  0  0  0  0  0  0  0  0  0  0
    6.1042   -6.8750    0.0000 C   0  0  0  0  0  0  0  0  0  0  0  0
    9.9667   -2.5250    0.0000 O   0  0  0  0  0  0  0  0  0  0  0  0
   10.7667   -0.0000    0.0000 C   0  0  0  0  0  0  0  0  0  0  0  0
    5.1500   -2.3750    0.0000 C   0  0  0  0  0  0  0  0  0  0  0  0
   13.4250   -2.9667    0.0000 C   0  0  0  0  0  0  0  0  0  0  0  0
   11.6542   -0.9750    0.0000 C   0  0  0  0  0  0  0  0  0  0  0  0
   14.3167   -3.9500    0.0000 S   0  0  0  0  0  0  0  0  0  0  0  0
    6.8917   -0.8250    0.0000 C   0  0  0  0  0  0  0  0  0  0  0  0
    1.7000   -7.1417    0.0000 C   0  0  0  0  0  0  0  0  0  0  0  0
   12.1250   -3.2500    0.0000 C   0  0  0  0  0  0  0  0  0  0  0  0
   13.8500   -1.7000    0.0000 C   0  0  0  0  0  0  0  0  0  0  0  0
   11.2500   -2.2250    0.0000 C   0  0  0  0  0  0  0  0  0  0  0  0
   12.9500   -0.7167    0.0000 C   0  0  0  0  0  0  0  0  0  0  0  0
    0.8792   -4.6250    0.0000 C   0  0  0  0  0  0  0  0  0  0  0  0
    5.5750   -1.0917    0.0000 C   0  0  0  0  0  0  0  0  0  0  0  0
   15.6250   -3.6667    0.0000 C   0  0  0  0  0  0  0  0  0  0  0  0
    0.4000   -6.8750    0.0000 C   0  0  0  0  0  0  0  0  0  0  0  0
    0.0000   -5.6042    0.0000 C   0  0  0  0  0  0  0  0  0  0  0  0
  1  2  2  0
  1  3  1  0
  1  4  1  0
  2  5  1  0
  4  6  1  0
  3  7  1  0
  8 11  1  0
  8  9  1  0
  2 10  1  0
  5 11  1  0
  4 12  2  0
  9 13  1  0
 12 14  1  0
  9 15  2  0
 13 16  1  0
  5 17  1  0
 18 24  2  0
 16 19  1  0
 18 20  1  0
 21 28  1  0
  6 22  1  0
 23 25  2  0
 24 26  1  0
 19 25  1  0
 19 26  2  0
  7 27  1  0
 17 28  1  0
 20 29  1  0
 22 30  2  0
 27 31  2  0
  6  7  2  0
 10 14  2  0
 30 31  1  0
  8 21  1  0
 18 23  1  0
M  END
>  <MOLFORMULA>  (174) 
C24 H24 N4 O2 S

>  <MOLWEIGHT>  (174) 
4.325456000000000e+002

>  <IDNUMBER>  (174) 
AT-687/PE16775

>  <PRICE>  (174) 
EUR 80/10 mg

>  <Similarity score>  (174) 
0.19

$$$$

     RDKit          2D

 30 34  0  0  0  0  0  0  0  0999 V2000
    4.3417   -4.8792    0.0000 C   0  0  0  0  0  0  0  0  0  0  0  0
    5.6250   -4.6042    0.0000 C   0  0  0  0  0  0  0  0  0  0  0  0
    3.2667   -4.1042    0.0000 O   0  0  0  0  0  0  0  0  0  0  0  0
    3.9042   -6.1500    0.0000 C   0  0  0  0  0  0  0  0  0  0  0  0
    6.0542   -3.3500    0.0000 N   0  0  0  0  0  0  0  0  0  0  0  0
    2.5917   -6.1542    0.0000 C   0  0  0  0  0  0  0  0  0  0  0  0
    2.1750   -4.9000    0.0000 C   0  0  0  0  0  0  0  0  0  0  0  0
    7.7750   -1.8167    0.0000 C   0  0  0  0  0  0  0  0  0  0  0  0
    9.0792   -1.5417    0.0000 C   0  0  0  0  0  0  0  0  0  0  0  0
    6.5167   -5.6000    0.0000 N   0  0  0  0  0  0  0  0  0  0  0  0
    7.3667   -3.0750    0.0000 C   0  0  0  0  0  0  0  0  0  0  0  0
    4.8000   -7.1292    0.0000 N   0  0  0  0  0  0  0  0  0  0  0  0
    9.4792   -0.2667    0.0000 N   0  0  0  0  0  0  0  0  0  0  0  0
    6.1000   -6.8750    0.0000 C   0  0  0  0  0  0  0  0  0  0  0  0
    9.9750   -2.5292    0.0000 O   0  0  0  0  0  0  0  0  0  0  0  0
   10.7667   -0.0000    0.0000 C   0  0  0  0  0  0  0  0  0  0  0  0
    5.1500   -2.3542    0.0000 C   0  0  0  0  0  0  0  0  0  0  0  0
   11.6667   -0.9667    0.0000 C   0  0  0  0  0  0  0  0  0  0  0  0
   13.4250   -2.9500    0.0000 C   0  0  0  0  0  0  0  0  0  0  0  0
    6.8917   -0.8167    0.0000 C   0  0  0  0  0  0  0  0  0  0  0  0
    1.7000   -7.1292    0.0000 C   0  0  0  0  0  0  0  0  0  0  0  0
   12.9750   -0.7167    0.0000 C   0  0  0  0  0  0  0  0  0  0  0  0
   11.2500   -2.2250    0.0000 C   0  0  0  0  0  0  0  0  0  0  0  0
   12.1417   -3.2292    0.0000 C   0  0  0  0  0  0  0  0  0  0  0  0
   13.8417   -1.6917    0.0000 C   0  0  0  0  0  0  0  0  0  0  0  0
    0.8792   -4.6042    0.0000 C   0  0  0  0  0  0  0  0  0  0  0  0
    5.5792   -1.0792    0.0000 C   0  0  0  0  0  0  0  0  0  0  0  0
   14.3250   -3.9417    0.0000 C   0  0  0  0  0  0  0  0  0  0  0  0
    0.4000   -6.8667    0.0000 C   0  0  0  0  0  0  0  0  0  0  0  0
    0.0000   -5.6000    0.0000 C   0  0  0  0  0  0  0  0  0  0  0  0
  1  2  2  0
  1  3  1  0
  1  4  1  0
  2  5  1  0
  4  6  1  0
  3  7  1  0
  8 11  1  0
  8  9  1  0
  2 10  1  0
  5 11  1  0
  4 12  2  0
  9 13  1  0
 12 14  1  0
  9 15  2  0
 13 16  1  0
  5 17  1  0
 16 18  1  0
 19 24  2  0
 20 27  1  0
  6 21  1  0
 18 22  1  0
 18 23  2  0
 23 24  1  0
 22 25  2  0
  7 26  1  0
 17 27  1  0
 19 28  1  0
 21 29  2  0
 26 30  2  0
  6  7  2  0
 10 14  2  0
 29 30  1  0
  8 20  1  0
 19 25  1  0
M  END
>  <MOLFORMULA>  (175) 
C24 H24 N4 O2

>  <MOLWEIGHT>  (175) 
4.004796000000000e+002

>  <IDNUMBER>  (175) 
AT-687/PE16766

>  <PRICE>  (175) 
EUR 80/10 mg

>  <Similarity score>  (175) 
0.19

$$$$

     RDKit          2D

 27 31  0  0  0  0  0  0  0  0999 V2000
   -0.8625   -0.4667    0.0000 C   0  0  0  0  0  0  0  0  0  0  0  0
   -0.8750   -1.4667    0.0000 C   0  0  0  0  0  0  0  0  0  0  0  0
    0.8667   -0.4792    0.0000 C   0  0  0  0  0  0  0  0  0  0  0  0
    0.0042    0.0333    0.0000 N   0  0  0  0  0  0  0  0  0  0  0  0
    0.8625   -1.4792    0.0000 N   0  0  0  0  0  0  0  0  0  0  0  0
   -1.8208   -0.1500    0.0000 C   0  0  0  0  0  0  0  0  0  0  0  0
   -0.0125   -1.9792    0.0000 C   0  0  0  0  0  0  0  0  0  0  0  0
   -1.8208   -1.7667    0.0000 S   0  0  0  0  0  0  0  0  0  0  0  0
    1.7417    0.0083    0.0000 N   0  0  0  0  0  0  0  0  0  0  0  0
   -2.4083   -0.9542    0.0000 C   0  0  0  0  0  0  0  0  0  0  0  0
   -2.1208    0.7958    0.0000 C   0  0  0  0  0  0  0  0  0  0  0  0
    1.7542    1.0208    0.0000 C   0  0  0  0  0  0  0  0  0  0  0  0
    2.6250    1.4958    0.0000 C   0  0  0  0  0  0  0  0  0  0  0  0
   -0.0333   -2.9792    0.0000 O   0  0  0  0  0  0  0  0  0  0  0  0
    2.6042   -0.4917    0.0000 C   0  0  0  0  0  0  0  0  0  0  0  0
   -3.1083    1.0208    0.0000 C   0  0  0  0  0  0  0  0  0  0  0  0
    3.4875    0.9958    0.0000 C   0  0  0  0  0  0  0  0  0  0  0  0
    3.4750   -0.0125    0.0000 C   0  0  0  0  0  0  0  0  0  0  0  0
   -3.4083    1.9583    0.0000 C   0  0  0  0  0  0  0  0  0  0  0  0
   -4.3708    2.1750    0.0000 Cl  0  0  0  0  0  0  0  0  0  0  0  0
   -1.4458    1.5333    0.0000 C   0  0  0  0  0  0  0  0  0  0  0  0
   -1.7583    2.4833    0.0000 C   0  0  0  0  0  0  0  0  0  0  0  0
    2.6250    2.4833    0.0000 C   0  0  0  0  0  0  0  0  0  0  0  0
    4.3625    1.4958    0.0000 C   0  0  0  0  0  0  0  0  0  0  0  0
   -2.7250    2.6958    0.0000 C   0  0  0  0  0  0  0  0  0  0  0  0
    3.4875    2.9833    0.0000 C   0  0  0  0  0  0  0  0  0  0  0  0
    4.3667    2.4958    0.0000 C   0  0  0  0  0  0  0  0  0  0  0  0
  1  2  2  0
  3  4  2  0
  1  4  1  0
  3  5  1  0
  1  6  1  0
  2  7  1  0
  2  8  1  0
  3  9  1  0
  6 10  2  0
  6 11  1  0
  9 12  1  0
 12 13  1  0
  7 14  2  0
  9 15  1  0
 11 16  2  0
 17 18  1  0
 15 18  1  0
 16 19  1  0
 19 20  1  0
 11 21  1  0
 21 22  2  0
 13 23  1  0
 17 24  1  0
 22 25  1  0
 23 26  2  0
 24 27  2  0
  8 10  1  0
  5  7  1  0
 19 25  2  0
 13 17  2  0
 26 27  1  0
M  END
>  <MOLFORMULA>  (176) 
C21 H16 Cl N3 O S

>  <MOLWEIGHT>  (176) 
3.938964000000000e+002

>  <IDNUMBER>  (176) 
AT-687/PE25881

>  <PRICE>  (176) 
EUR 80/10 mg

>  <Similarity score>  (176) 
0.18

$$$$

     RDKit          2D

 27 31  0  0  0  0  0  0  0  0999 V2000
    5.3958   -7.8167    0.0000 C   0  0  0  0  0  0  0  0  0  0  0  0
    5.3958   -6.9875    0.0000 C   0  0  0  0  0  0  0  0  0  0  0  0
    4.6833   -8.2292    0.0000 N   0  0  0  0  0  0  0  0  0  0  0  0
    4.6833   -6.5750    0.0000 C   0  0  0  0  0  0  0  0  0  0  0  0
    6.1083   -8.2292    0.0000 C   0  0  0  0  0  0  0  0  0  0  0  0
    4.6833   -5.7458    0.0000 N   0  0  0  0  0  0  0  0  0  0  0  0
    3.9667   -6.9875    0.0000 C   0  0  0  0  0  0  0  0  0  0  0  0
    3.9667   -7.8167    0.0000 C   0  0  0  0  0  0  0  0  0  0  0  0
    6.8250   -7.8167    0.0000 C   0  0  0  0  0  0  0  0  0  0  0  0
    6.1083   -6.5750    0.0000 C   0  0  0  0  0  0  0  0  0  0  0  0
    4.6833   -4.0917    0.0000 N   0  0  0  0  0  0  0  0  0  0  0  0
    6.1083   -9.0583    0.0000 C   0  0  0  0  0  0  0  0  0  0  0  0
    6.8250   -6.9875    0.0000 C   0  0  0  0  0  0  0  0  0  0  0  0
    7.5417   -8.2292    0.0000 C   0  0  0  0  0  0  0  0  0  0  0  0
    5.4000   -5.3333    0.0000 C   0  0  0  0  0  0  0  0  0  0  0  0
    3.9708   -5.3333    0.0000 C   0  0  0  0  0  0  0  0  0  0  0  0
    3.9708   -4.5042    0.0000 C   0  0  0  0  0  0  0  0  0  0  0  0
    5.4000   -4.5042    0.0000 C   0  0  0  0  0  0  0  0  0  0  0  0
    7.5417   -9.0583    0.0000 C   0  0  0  0  0  0  0  0  0  0  0  0
    6.8208   -9.4708    0.0000 C   0  0  0  0  0  0  0  0  0  0  0  0
    3.2542   -6.5750    0.0000 C   0  0  0  0  0  0  0  0  0  0  0  0
    8.2667   -9.4750    0.0000 O   0  0  0  0  0  0  0  0  0  0  0  0
    4.6750   -3.2667    0.0000 C   0  0  0  0  0  0  0  0  0  0  0  0
    3.2542   -8.2292    0.0000 C   0  0  0  0  0  0  0  0  0  0  0  0
    8.9875   -9.0583    0.0000 C   0  0  0  0  0  0  0  0  0  0  0  0
    2.5375   -6.9875    0.0000 C   0  0  0  0  0  0  0  0  0  0  0  0
    2.5375   -7.8167    0.0000 C   0  0  0  0  0  0  0  0  0  0  0  0
  1  2  1  0
  1  3  2  0
  2  4  2  0
  1  5  1  0
  4  6  1  0
  7  8  1  0
  3  8  1  0
  5  9  2  0
  2 10  1  0
 11 17  1  0
  5 12  1  0
  9 13  1  0
  9 14  1  0
  6 15  1  0
  6 16  1  0
 16 17  1  0
 15 18  1  0
 19 20  1  0
 12 20  2  0
  7 21  2  0
 19 22  1  0
 11 23  1  0
  8 24  2  0
 22 25  1  0
 26 27  2  0
 24 27  1  0
 10 13  1  0
  4  7  1  0
 14 19  2  0
 21 26  1  0
 11 18  1  0
M  END
>  <MOLFORMULA>  (177) 
C23 H25 N3 O

>  <MOLWEIGHT>  (177) 
3.594705000000000e+002

>  <IDNUMBER>  (177) 
AT-225/NB48355

>  <SALTDATA>  (177) 
H2O

>  <PRICE>  (177) 
EUR 140/10 mg

>  <Similarity score>  (177) 
0.18

$$$$

     RDKit          2D

 27 31  0  0  0  0  0  0  0  0999 V2000
   -2.9375   -6.7125    0.0000 C   0  0  0  0  0  0  0  0  0  0  0  0
   -2.9375   -5.9542    0.0000 C   0  0  0  0  0  0  0  0  0  0  0  0
   -3.5958   -7.0875    0.0000 N   0  0  0  0  0  0  0  0  0  0  0  0
   -3.6125   -5.5792    0.0000 C   0  0  0  0  0  0  0  0  0  0  0  0
   -2.2833   -7.0875    0.0000 C   0  0  0  0  0  0  0  0  0  0  0  0
   -3.6125   -4.7917    0.0000 N   0  0  0  0  0  0  0  0  0  0  0  0
   -4.2458   -5.9542    0.0000 C   0  0  0  0  0  0  0  0  0  0  0  0
   -4.2458   -6.7125    0.0000 C   0  0  0  0  0  0  0  0  0  0  0  0
   -1.6333   -6.7125    0.0000 C   0  0  0  0  0  0  0  0  0  0  0  0
   -2.2833   -5.5792    0.0000 C   0  0  0  0  0  0  0  0  0  0  0  0
   -3.6125   -3.2875    0.0000 N   0  0  0  0  0  0  0  0  0  0  0  0
   -2.2833   -7.8417    0.0000 C   0  0  0  0  0  0  0  0  0  0  0  0
   -1.6333   -5.9542    0.0000 C   0  0  0  0  0  0  0  0  0  0  0  0
   -0.9833   -7.0875    0.0000 C   0  0  0  0  0  0  0  0  0  0  0  0
   -2.9625   -4.4167    0.0000 C   0  0  0  0  0  0  0  0  0  0  0  0
   -4.2708   -4.4167    0.0000 C   0  0  0  0  0  0  0  0  0  0  0  0
   -4.2708   -3.6625    0.0000 C   0  0  0  0  0  0  0  0  0  0  0  0
   -2.9583   -3.6667    0.0000 C   0  0  0  0  0  0  0  0  0  0  0  0
   -0.9833   -7.8417    0.0000 C   0  0  0  0  0  0  0  0  0  0  0  0
   -1.6333   -8.2167    0.0000 C   0  0  0  0  0  0  0  0  0  0  0  0
   -4.9083   -5.5792    0.0000 C   0  0  0  0  0  0  0  0  0  0  0  0
   -0.3333   -8.2167    0.0000 O   0  0  0  0  0  0  0  0  0  0  0  0
   -3.6083   -2.5375    0.0000 C   0  0  0  0  0  0  0  0  0  0  0  0
   -4.9083   -7.0875    0.0000 C   0  0  0  0  0  0  0  0  0  0  0  0
   -0.3333   -8.9667    0.0000 C   0  0  0  0  0  0  0  0  0  0  0  0
   -5.5458   -5.9542    0.0000 C   0  0  0  0  0  0  0  0  0  0  0  0
   -5.5458   -6.7125    0.0000 C   0  0  0  0  0  0  0  0  0  0  0  0
  1  2  2  0
  1  3  1  0
  2  4  1  0
  1  5  1  0
  4  6  1  0
  7  8  1  0
  3  8  2  0
  5  9  2  0
  2 10  1  0
 11 17  1  0
  5 12  1  0
  9 13  1  0
  9 14  1  0
  6 15  1  0
  6 16  1  0
 16 17  1  0
 15 18  1  0
 19 20  1  0
 12 20  2  0
  7 21  1  0
 19 22  1  0
 11 23  1  0
  8 24  1  0
 22 25  1  0
 26 27  1  0
 24 27  2  0
 10 13  1  0
  4  7  2  0
 14 19  2  0
 21 26  2  0
 11 18  1  0
M  END
>  <MOLFORMULA>  (178) 
C23 H25 N3 O

>  <MOLWEIGHT>  (178) 
3.594705000000000e+002

>  <IDNUMBER>  (178) 
AT-225/JK06945

>  <PRICE>  (178) 
EUR 140/10 mg

>  <Similarity score>  (178) 
0.18

$$$$

     RDKit          2D

 29 32  0  0  0  0  0  0  0  0999 V2000
    0.2500   -1.6625    0.0000 S   0  0  0  0  0  0  0  0  0  0  0  0
   -0.7583   -1.6625    0.0000 C   0  0  0  0  0  0  0  0  0  0  0  0
   -1.2583   -0.7917    0.0000 C   0  0  0  0  0  0  0  0  0  0  0  0
   -2.2500   -0.7917    0.0000 C   0  0  0  0  0  0  0  0  0  0  0  0
   -2.2500   -2.5292    0.0000 N   0  0  0  0  0  0  0  0  0  0  0  0
   -2.7583   -1.6625    0.0000 C   0  0  0  0  0  0  0  0  0  0  0  0
   -0.7583    0.0708    0.0000 C   0  0  0  0  0  0  0  0  0  0  0  0
   -1.2583   -2.5292    0.0000 C   0  0  0  0  0  0  0  0  0  0  0  0
   -3.7500   -1.6625    0.0000 C   0  0  0  0  0  0  0  0  0  0  0  0
    1.2417   -1.6625    0.0000 C   0  0  0  0  0  0  0  0  0  0  0  0
   -4.2500   -0.7917    0.0000 C   0  0  0  0  0  0  0  0  0  0  0  0
    0.2500   -0.6625    0.0000 O   0  0  0  0  0  0  0  0  0  0  0  0
    0.2500   -2.6625    0.0000 O   0  0  0  0  0  0  0  0  0  0  0  0
   -2.7583    0.0708    0.0000 C   0  0  0  0  0  0  0  0  0  0  0  0
   -3.7500    0.0708    0.0000 C   0  0  0  0  0  0  0  0  0  0  0  0
   -1.2583    0.9333    0.0000 C   0  0  0  0  0  0  0  0  0  0  0  0
    1.7417   -2.5292    0.0000 C   0  0  0  0  0  0  0  0  0  0  0  0
    1.7417   -0.7917    0.0000 C   0  0  0  0  0  0  0  0  0  0  0  0
   -4.2500   -2.5292    0.0000 F   0  0  0  0  0  0  0  0  0  0  0  0
   -0.7583    1.8000    0.0000 C   0  0  0  0  0  0  0  0  0  0  0  0
    3.2417   -1.6625    0.0000 C   0  0  0  0  0  0  0  0  0  0  0  0
   -4.2500    0.9333    0.0000 Cl  0  0  0  0  0  0  0  0  0  0  0  0
    2.7500   -0.7917    0.0000 C   0  0  0  0  0  0  0  0  0  0  0  0
    2.7500   -2.5292    0.0000 C   0  0  0  0  0  0  0  0  0  0  0  0
   -1.2583    2.6708    0.0000 F   0  0  0  0  0  0  0  0  0  0  0  0
    4.2500   -1.6625    0.0000 F   0  0  0  0  0  0  0  0  0  0  0  0
    0.2500    0.0708    0.0000 C   0  0  0  0  0  0  0  0  0  0  0  0
    0.7500    0.9333    0.0000 C   0  0  0  0  0  0  0  0  0  0  0  0
    0.2500    1.8000    0.0000 C   0  0  0  0  0  0  0  0  0  0  0  0
  1  2  1  0
  2  3  2  0
  3  4  1  0
  5  8  2  0
  5  6  1  0
  3  7  1  0
  2  8  1  0
  6  9  2  0
  1 10  1  0
  9 11  1  0
  1 12  2  0
  1 13  2  0
  4 14  2  0
 14 15  1  0
  7 16  2  0
 10 17  2  0
 10 18  1  0
  9 19  1  0
 16 20  1  0
 21 23  1  0
 15 22  1  0
 18 23  2  0
 17 24  1  0
 20 25  1  0
 21 26  1  0
  7 27  1  0
 27 28  2  0
 28 29  1  0
 21 24  2  0
  4  6  1  0
 11 15  2  0
 20 29  2  0
M  END
>  <MOLFORMULA>  (179) 
C21 H11 Cl F3 N O2 S

>  <MOLWEIGHT>  (179) 
4.338359000000000e+002

>  <IDNUMBER>  (179) 
AT-687/PE25811

>  <PRICE>  (179) 
EUR 80/10 mg

>  <Similarity score>  (179) 
0.18

$$$$

     RDKit          2D

 32 36  0  0  0  0  0  0  0  0999 V2000
    0.9958    0.8667    0.0000 C   0  0  0  0  0  0  0  0  0  0  0  0
    0.4958    1.7333    0.0000 C   0  0  0  0  0  0  0  0  0  0  0  0
    2.0000    0.8667    0.0000 C   0  0  0  0  0  0  0  0  0  0  0  0
    0.4958   -0.0000    0.0000 N   0  0  0  0  0  0  0  0  0  0  0  0
    0.9958    2.6000    0.0000 C   0  0  0  0  0  0  0  0  0  0  0  0
    2.5000    1.7333    0.0000 N   0  0  0  0  0  0  0  0  0  0  0  0
    0.9958   -2.5958    0.0000 C   0  0  0  0  0  0  0  0  0  0  0  0
    0.4958   -1.7292    0.0000 C   0  0  0  0  0  0  0  0  0  0  0  0
    2.0000    2.6000    0.0000 C   0  0  0  0  0  0  0  0  0  0  0  0
    0.9958   -0.8625    0.0000 C   0  0  0  0  0  0  0  0  0  0  0  0
    0.4958   -3.4625    0.0000 N   0  0  0  0  0  0  0  0  0  0  0  0
    0.4958    3.4667    0.0000 C   0  0  0  0  0  0  0  0  0  0  0  0
   -0.5000    1.7333    0.0000 C   0  0  0  0  0  0  0  0  0  0  0  0
    2.5000   -0.0000    0.0000 O   0  0  0  0  0  0  0  0  0  0  0  0
    2.0000   -2.5958    0.0000 O   0  0  0  0  0  0  0  0  0  0  0  0
    2.5000    3.4667    0.0000 C   0  0  0  0  0  0  0  0  0  0  0  0
   -0.5000   -5.1958    0.0000 O   0  0  0  0  0  0  0  0  0  0  0  0
   -0.5000   -0.0000    0.0000 C   0  0  0  0  0  0  0  0  0  0  0  0
    0.9958    4.3292    0.0000 C   0  0  0  0  0  0  0  0  0  0  0  0
   -0.5000   -1.7292    0.0000 C   0  0  0  0  0  0  0  0  0  0  0  0
    2.0000    4.3292    0.0000 C   0  0  0  0  0  0  0  0  0  0  0  0
    0.4958    5.1958    0.0000 Cl  0  0  0  0  0  0  0  0  0  0  0  0
    0.9958   -4.3292    0.0000 C   0  0  0  0  0  0  0  0  0  0  0  0
   -0.5000   -3.4625    0.0000 C   0  0  0  0  0  0  0  0  0  0  0  0
   -1.0042   -0.8625    0.0000 C   0  0  0  0  0  0  0  0  0  0  0  0
   -1.0042   -4.3292    0.0000 C   0  0  0  0  0  0  0  0  0  0  0  0
    0.4958   -5.1958    0.0000 C   0  0  0  0  0  0  0  0  0  0  0  0
   -1.0042    0.8667    0.0000 C   0  0  0  0  0  0  0  0  0  0  0  0
   -1.0042    2.6000    0.0000 C   0  0  0  0  0  0  0  0  0  0  0  0
   -2.0042    2.6000    0.0000 C   0  0  0  0  0  0  0  0  0  0  0  0
   -2.0042    0.8667    0.0000 C   0  0  0  0  0  0  0  0  0  0  0  0
   -2.5000    1.7333    0.0000 C   0  0  0  0  0  0  0  0  0  0  0  0
  1  2  2  0
  1  3  1  0
  1  4  1  0
  2  5  1  0
  3  6  1  0
  7  8  1  0
  8 10  1  0
  6  9  1  0
  4 10  1  0
  7 11  1  0
  5 12  1  0
  2 13  1  0
  3 14  2  0
  7 15  2  0
  9 16  1  0
 17 26  1  0
  4 18  1  0
 12 19  2  0
 20 25  1  0
 16 21  2  0
 19 22  1  0
 11 23  1  0
 11 24  1  0
 18 25  1  0
 24 26  1  0
 23 27  1  0
 13 28  1  0
 13 29  2  0
 29 30  1  0
 28 31  2  0
 30 32  2  0
  5  9  2  0
  8 20  1  0
 19 21  1  0
 31 32  1  0
 17 27  1  0
M  END
>  <MOLFORMULA>  (180) 
C25 H26 Cl N3 O3

>  <MOLWEIGHT>  (180) 
4.519514000000000e+002

>  <IDNUMBER>  (180) 
AN-153/I262613

>  <PRICE>  (180) 
EUR 130/10 mg

>  <Similarity score>  (180) 
0.18

$$$$

     RDKit          2D

 27 30  0  0  0  0  0  0  0  0999 V2000
    2.5083  -11.6167    0.0000 N   0  0  0  0  0  0  0  0  0  0  0  0
    1.8542  -12.7417    0.0000 C   0  0  0  0  0  0  0  0  0  0  0  0
    2.5042  -12.3667    0.0000 C   0  0  0  0  0  0  0  0  0  0  0  0
    1.2000  -14.6125    0.0000 N   0  0  0  0  0  0  0  0  0  0  0  0
    1.2042   -9.3542    0.0000 N   0  0  0  0  0  0  0  0  0  0  0  0
    1.8542  -11.2417    0.0000 C   0  0  0  0  0  0  0  0  0  0  0  0
    1.2042  -12.3667    0.0000 C   0  0  0  0  0  0  0  0  0  0  0  0
    1.2042  -11.6167    0.0000 C   0  0  0  0  0  0  0  0  0  0  0  0
    1.8542  -13.4917    0.0000 C   0  0  0  0  0  0  0  0  0  0  0  0
    1.2042  -13.8625    0.0000 C   0  0  0  0  0  0  0  0  0  0  0  0
    1.2042  -10.1042    0.0000 C   0  0  0  0  0  0  0  0  0  0  0  0
    1.8542  -10.4875    0.0000 C   0  0  0  0  0  0  0  0  0  0  0  0
    3.1542  -12.7500    0.0000 C   0  0  0  0  0  0  0  0  0  0  0  0
    0.5542  -12.7375    0.0000 C   0  0  0  0  0  0  0  0  0  0  0  0
    0.5542  -11.2375    0.0000 C   0  0  0  0  0  0  0  0  0  0  0  0
    0.5500  -14.9875    0.0000 O   0  0  0  0  0  0  0  0  0  0  0  0
    1.8542   -8.9792    0.0000 O   0  0  0  0  0  0  0  0  0  0  0  0
    1.8500  -14.9917    0.0000 O   0  0  0  0  0  0  0  0  0  0  0  0
    0.5542   -8.9792    0.0000 O   0  0  0  0  0  0  0  0  0  0  0  0
    0.5542  -13.4875    0.0000 C   0  0  0  0  0  0  0  0  0  0  0  0
    3.1542  -13.5000    0.0000 C   0  0  0  0  0  0  0  0  0  0  0  0
    0.5542  -10.4875    0.0000 C   0  0  0  0  0  0  0  0  0  0  0  0
    3.8042  -13.8750    0.0000 C   0  0  0  0  0  0  0  0  0  0  0  0
    3.8000  -14.6250    0.0000 O   0  0  0  0  0  0  0  0  0  0  0  0
    3.8042  -12.3750    0.0000 C   0  0  0  0  0  0  0  0  0  0  0  0
    4.4542  -12.7542    0.0000 C   0  0  0  0  0  0  0  0  0  0  0  0
    4.4542  -13.5042    0.0000 C   0  0  0  0  0  0  0  0  0  0  0  0
  2  3  1  0
  1  3  2  0
  4 10  1  0
  5 11  1  0
  1  6  1  0
  7  8  1  0
  6  8  1  0
  2  9  1  0
  9 10  2  0
 11 12  1  0
  6 12  2  0
  3 13  1  0
  7 14  1  0
  8 15  2  0
  4 16  1  0
  5 17  1  0
  4 18  2  0
  5 19  2  0
 14 20  2  0
 13 21  1  0
 11 22  2  0
 21 23  2  0
 23 24  1  0
 13 25  2  0
 25 26  1  0
 26 27  2  0
  2  7  2  0
 15 22  1  0
 10 20  1  0
 23 27  1  0
M  CHG  4   4   1   5   1  16  -1  17  -1
M  END
>  <MOLFORMULA>  (181) 
C19 H11 N3 O5

>  <MOLWEIGHT>  (181) 
3.613119000000000e+002

>  <IDNUMBER>  (181) 
AT-225/NB32526

>  <PRICE>  (181) 
EUR 140/10 mg

>  <Similarity score>  (181) 
0.18

$$$$

     RDKit          2D

 37 41  0  0  0  0  0  0  0  0999 V2000
    0.9958    2.6000    0.0000 C   0  0  0  0  0  0  0  0  0  0  0  0
    0.4958    3.4667    0.0000 C   0  0  0  0  0  0  0  0  0  0  0  0
    2.0000    2.6000    0.0000 C   0  0  0  0  0  0  0  0  0  0  0  0
    0.4958    1.7333    0.0000 N   0  0  0  0  0  0  0  0  0  0  0  0
    0.9958    4.3292    0.0000 C   0  0  0  0  0  0  0  0  0  0  0  0
    2.5000    3.4667    0.0000 N   0  0  0  0  0  0  0  0  0  0  0  0
    0.9958   -0.8625    0.0000 C   0  0  0  0  0  0  0  0  0  0  0  0
    0.4958    0.0042    0.0000 C   0  0  0  0  0  0  0  0  0  0  0  0
    2.0000    4.3292    0.0000 C   0  0  0  0  0  0  0  0  0  0  0  0
    0.4958   -1.7292    0.0000 N   0  0  0  0  0  0  0  0  0  0  0  0
   -0.5042   -3.4625    0.0000 N   0  0  0  0  0  0  0  0  0  0  0  0
   -1.0042   -4.3292    0.0000 C   0  0  0  0  0  0  0  0  0  0  0  0
    0.9958    0.8667    0.0000 C   0  0  0  0  0  0  0  0  0  0  0  0
    0.4958    5.1958    0.0000 C   0  0  0  0  0  0  0  0  0  0  0  0
   -0.5042    3.4667    0.0000 C   0  0  0  0  0  0  0  0  0  0  0  0
    2.5000    1.7333    0.0000 O   0  0  0  0  0  0  0  0  0  0  0  0
   -1.0042   -2.5958    0.0000 C   0  0  0  0  0  0  0  0  0  0  0  0
    0.4958   -3.4625    0.0000 C   0  0  0  0  0  0  0  0  0  0  0  0
   -0.5042   -1.7292    0.0000 C   0  0  0  0  0  0  0  0  0  0  0  0
    0.9958   -2.5958    0.0000 C   0  0  0  0  0  0  0  0  0  0  0  0
    2.0000   -0.8625    0.0000 O   0  0  0  0  0  0  0  0  0  0  0  0
   -2.0000   -4.3292    0.0000 O   0  0  0  0  0  0  0  0  0  0  0  0
    2.5000    5.1958    0.0000 C   0  0  0  0  0  0  0  0  0  0  0  0
   -0.5042    1.7333    0.0000 C   0  0  0  0  0  0  0  0  0  0  0  0
    0.9958    6.0583    0.0000 C   0  0  0  0  0  0  0  0  0  0  0  0
   -0.5042   -5.1958    0.0000 O   0  0  0  0  0  0  0  0  0  0  0  0
   -0.5042    0.0042    0.0000 C   0  0  0  0  0  0  0  0  0  0  0  0
    2.0000    6.0583    0.0000 C   0  0  0  0  0  0  0  0  0  0  0  0
    0.4958    6.9250    0.0000 Cl  0  0  0  0  0  0  0  0  0  0  0  0
   -1.0042    0.8667    0.0000 C   0  0  0  0  0  0  0  0  0  0  0  0
   -1.0042    2.6000    0.0000 C   0  0  0  0  0  0  0  0  0  0  0  0
   -1.0042    4.3292    0.0000 C   0  0  0  0  0  0  0  0  0  0  0  0
   -1.0042   -6.0583    0.0000 C   0  0  0  0  0  0  0  0  0  0  0  0
   -0.5042   -6.9250    0.0000 C   0  0  0  0  0  0  0  0  0  0  0  0
   -2.0000    4.3292    0.0000 C   0  0  0  0  0  0  0  0  0  0  0  0
   -2.0000    2.6000    0.0000 C   0  0  0  0  0  0  0  0  0  0  0  0
   -2.5000    3.4667    0.0000 C   0  0  0  0  0  0  0  0  0  0  0  0
  1  2  2  0
  1  3  1  0
  1  4  1  0
  2  5  1  0
  3  6  1  0
  7  8  1  0
  8 13  1  0
  6  9  1  0
  7 10  1  0
 11 18  1  0
 11 12  1  0
  4 13  1  0
  5 14  1  0
  2 15  1  0
  3 16  2  0
 17 19  1  0
 18 20  1  0
 10 19  1  0
 10 20  1  0
  7 21  2  0
 12 22  2  0
  9 23  1  0
  4 24  1  0
 14 25  2  0
 12 26  1  0
 27 30  1  0
 23 28  2  0
 25 29  1  0
 24 30  1  0
 15 31  2  0
 15 32  1  0
 26 33  1  0
 33 34  1  0
 32 35  2  0
 31 36  1  0
 35 37  1  0
  5  9  2  0
  8 27  1  0
 25 28  1  0
 36 37  2  0
 11 17  1  0
M  END
>  <MOLFORMULA>  (182) 
C28 H31 Cl N4 O4

>  <MOLWEIGHT>  (182) 
5.230299000000000e+002

>  <IDNUMBER>  (182) 
AN-153/I262625

>  <PRICE>  (182) 
EUR 130/10 mg

>  <Similarity score>  (182) 
0.18

$$$$

     RDKit          2D

 34 38  0  0  0  0  0  0  0  0999 V2000
   -3.3208    2.1875    0.0000 C   0  0  0  0  0  0  0  0  0  0  0  0
   -3.3125    1.3583    0.0000 C   0  0  0  0  0  0  0  0  0  0  0  0
   -1.8833    2.1875    0.0000 C   0  0  0  0  0  0  0  0  0  0  0  0
   -2.6083    2.6083    0.0000 N   0  0  0  0  0  0  0  0  0  0  0  0
   -1.8833    1.3583    0.0000 N   0  0  0  0  0  0  0  0  0  0  0  0
   -4.1000    2.4333    0.0000 C   0  0  0  0  0  0  0  0  0  0  0  0
   -2.6000    0.9458    0.0000 C   0  0  0  0  0  0  0  0  0  0  0  0
   -4.0958    1.1000    0.0000 S   0  0  0  0  0  0  0  0  0  0  0  0
   -1.1708    2.6000    0.0000 N   0  0  0  0  0  0  0  0  0  0  0  0
   -4.5833    1.7708    0.0000 C   0  0  0  0  0  0  0  0  0  0  0  0
    0.9750    2.1750    0.0000 C   0  0  0  0  0  0  0  0  0  0  0  0
    0.2542    2.5958    0.0000 C   0  0  0  0  0  0  0  0  0  0  0  0
   -4.3625    3.2208    0.0000 C   0  0  0  0  0  0  0  0  0  0  0  0
   -0.4583    2.1833    0.0000 C   0  0  0  0  0  0  0  0  0  0  0  0
    1.6917    2.5875    0.0000 N   0  0  0  0  0  0  0  0  0  0  0  0
   -2.6000    0.1208    0.0000 O   0  0  0  0  0  0  0  0  0  0  0  0
    0.9667    1.3500    0.0000 O   0  0  0  0  0  0  0  0  0  0  0  0
   -5.1708    3.3958    0.0000 C   0  0  0  0  0  0  0  0  0  0  0  0
    2.4042    2.1708    0.0000 C   0  0  0  0  0  0  0  0  0  0  0  0
   -5.4333    4.1667    0.0000 C   0  0  0  0  0  0  0  0  0  0  0  0
   -1.1708    3.4208    0.0000 C   0  0  0  0  0  0  0  0  0  0  0  0
    0.2625    3.4208    0.0000 C   0  0  0  0  0  0  0  0  0  0  0  0
    2.4000    1.3458    0.0000 C   0  0  0  0  0  0  0  0  0  0  0  0
    3.1250    2.5833    0.0000 C   0  0  0  0  0  0  0  0  0  0  0  0
    3.8375    2.1708    0.0000 C   0  0  0  0  0  0  0  0  0  0  0  0
    3.1125    0.9333    0.0000 C   0  0  0  0  0  0  0  0  0  0  0  0
   -3.8083    3.8375    0.0000 C   0  0  0  0  0  0  0  0  0  0  0  0
    3.8375    1.3375    0.0000 C   0  0  0  0  0  0  0  0  0  0  0  0
   -6.2167    4.3375    0.0000 O   0  0  0  0  0  0  0  0  0  0  0  0
   -0.4583    3.8333    0.0000 C   0  0  0  0  0  0  0  0  0  0  0  0
   -4.0708    4.6167    0.0000 C   0  0  0  0  0  0  0  0  0  0  0  0
   -4.8750    4.7792    0.0000 C   0  0  0  0  0  0  0  0  0  0  0  0
   -6.7792    3.7333    0.0000 C   0  0  0  0  0  0  0  0  0  0  0  0
    4.5500    0.9208    0.0000 C   0  0  0  0  0  0  0  0  0  0  0  0
  1  2  2  0
  3  4  2  0
  1  4  1  0
  3  5  1  0
  1  6  1  0
  2  7  1  0
  2  8  1  0
  3  9  1  0
  6 10  2  0
 11 12  1  0
 12 14  1  0
  6 13  1  0
  9 14  1  0
 11 15  1  0
  7 16  2  0
 11 17  2  0
 13 18  2  0
 15 19  1  0
 18 20  1  0
  9 21  1  0
 22 30  1  0
 19 23  1  0
 19 24  1  0
 24 25  1  0
 23 26  1  0
 13 27  1  0
 25 28  1  0
 20 29  1  0
 21 30  1  0
 27 31  2  0
 31 32  1  0
 29 33  1  0
 28 34  1  0
  8 10  1  0
  5  7  1  0
 20 32  2  0
 12 22  1  0
 26 28  1  0
M  END
>  <MOLFORMULA>  (183) 
C26 H32 N4 O3 S

>  <MOLWEIGHT>  (183) 
4.806298000000000e+002

>  <IDNUMBER>  (183) 
AT-687/PE26004

>  <PRICE>  (183) 
EUR 80/10 mg

>  <Similarity score>  (183) 
0.18

$$$$

     RDKit          2D

 38 43  0  0  0  0  0  0  0  0999 V2000
    1.0000    2.1667    0.0000 C   0  0  0  0  0  0  0  0  0  0  0  0
    0.5000    3.0333    0.0000 C   0  0  0  0  0  0  0  0  0  0  0  0
    2.0000    2.1667    0.0000 C   0  0  0  0  0  0  0  0  0  0  0  0
    0.5000    1.3000    0.0000 N   0  0  0  0  0  0  0  0  0  0  0  0
    1.0000    3.9000    0.0000 C   0  0  0  0  0  0  0  0  0  0  0  0
    2.5000    3.0333    0.0000 N   0  0  0  0  0  0  0  0  0  0  0  0
    1.0000   -1.2958    0.0000 C   0  0  0  0  0  0  0  0  0  0  0  0
    0.5000   -0.4292    0.0000 C   0  0  0  0  0  0  0  0  0  0  0  0
    2.0000    3.9000    0.0000 C   0  0  0  0  0  0  0  0  0  0  0  0
   -1.0000   -4.7625    0.0000 C   0  0  0  0  0  0  0  0  0  0  0  0
    0.5000   -2.1625    0.0000 N   0  0  0  0  0  0  0  0  0  0  0  0
   -0.5000   -3.8958    0.0000 N   0  0  0  0  0  0  0  0  0  0  0  0
    1.0000    0.4333    0.0000 C   0  0  0  0  0  0  0  0  0  0  0  0
   -2.0042   -4.7625    0.0000 N   0  0  0  0  0  0  0  0  0  0  0  0
   -0.5000   -5.6292    0.0000 N   0  0  0  0  0  0  0  0  0  0  0  0
    0.5000    4.7625    0.0000 C   0  0  0  0  0  0  0  0  0  0  0  0
   -0.5000    3.0333    0.0000 C   0  0  0  0  0  0  0  0  0  0  0  0
    2.5000    1.3000    0.0000 O   0  0  0  0  0  0  0  0  0  0  0  0
   -0.5000   -2.1625    0.0000 C   0  0  0  0  0  0  0  0  0  0  0  0
    1.0000   -3.0292    0.0000 C   0  0  0  0  0  0  0  0  0  0  0  0
    0.5000   -3.8958    0.0000 C   0  0  0  0  0  0  0  0  0  0  0  0
   -1.0000   -3.0292    0.0000 C   0  0  0  0  0  0  0  0  0  0  0  0
    2.0000   -1.2958    0.0000 O   0  0  0  0  0  0  0  0  0  0  0  0
    2.5000    4.7625    0.0000 C   0  0  0  0  0  0  0  0  0  0  0  0
   -0.5000    1.3000    0.0000 C   0  0  0  0  0  0  0  0  0  0  0  0
    1.0000    5.6250    0.0000 C   0  0  0  0  0  0  0  0  0  0  0  0
   -0.5000   -0.4292    0.0000 C   0  0  0  0  0  0  0  0  0  0  0  0
    2.0000    5.6250    0.0000 C   0  0  0  0  0  0  0  0  0  0  0  0
    0.5000    6.4917    0.0000 Cl  0  0  0  0  0  0  0  0  0  0  0  0
   -2.0042   -6.4917    0.0000 C   0  0  0  0  0  0  0  0  0  0  0  0
   -2.5000   -5.6292    0.0000 C   0  0  0  0  0  0  0  0  0  0  0  0
   -1.0000   -6.4917    0.0000 C   0  0  0  0  0  0  0  0  0  0  0  0
   -1.0000    0.4333    0.0000 C   0  0  0  0  0  0  0  0  0  0  0  0
   -1.0000    3.9000    0.0000 C   0  0  0  0  0  0  0  0  0  0  0  0
   -1.0000    2.1667    0.0000 C   0  0  0  0  0  0  0  0  0  0  0  0
   -2.0042    3.9000    0.0000 C   0  0  0  0  0  0  0  0  0  0  0  0
   -2.0042    2.1667    0.0000 C   0  0  0  0  0  0  0  0  0  0  0  0
   -2.5000    3.0333    0.0000 C   0  0  0  0  0  0  0  0  0  0  0  0
  1  2  2  0
  1  3  1  0
  1  4  1  0
  2  5  1  0
  3  6  1  0
  7  8  1  0
  8 13  1  0
  6  9  1  0
 10 12  1  0
  7 11  1  0
 12 21  1  0
  4 13  1  0
 10 14  1  0
 10 15  2  0
  5 16  1  0
  2 17  1  0
  3 18  2  0
 11 19  1  0
 11 20  1  0
 20 21  1  0
 19 22  1  0
  7 23  2  0
  9 24  1  0
  4 25  1  0
 16 26  2  0
 27 33  1  0
 24 28  2  0
 26 29  1  0
 30 32  2  0
 14 31  2  0
 15 32  1  0
 25 33  1  0
 17 34  2  0
 17 35  1  0
 34 36  1  0
 35 37  2  0
 37 38  1  0
  5  9  2  0
  8 27  1  0
 26 28  1  0
 36 38  2  0
 12 22  1  0
 30 31  1  0
M  END
>  <MOLFORMULA>  (184) 
C29 H29 Cl N6 O2

>  <MOLWEIGHT>  (184) 
5.290411000000000e+002

>  <IDNUMBER>  (184) 
AN-153/I262620

>  <PRICE>  (184) 
EUR 130/10 mg

>  <Similarity score>  (184) 
0.18

$$$$

     RDKit          2D

 26 29  0  0  0  0  0  0  0  0999 V2000
   -1.7083   -1.4750    0.0000 C   0  0  0  0  0  0  0  0  0  0  0  0
   -0.9875   -1.0625    0.0000 C   0  0  0  0  0  0  0  0  0  0  0  0
   -0.2333   -1.3917    0.0000 N   0  0  0  0  0  0  0  0  0  0  0  0
   -1.7083   -2.3042    0.0000 C   0  0  0  0  0  0  0  0  0  0  0  0
   -2.4333   -2.7167    0.0000 O   0  0  0  0  0  0  0  0  0  0  0  0
   -2.4250   -1.0542    0.0000 C   0  0  0  0  0  0  0  0  0  0  0  0
   -0.9000   -0.2375    0.0000 N   0  0  0  0  0  0  0  0  0  0  0  0
   -3.1458   -1.4750    0.0000 C   0  0  0  0  0  0  0  0  0  0  0  0
   -3.1458   -2.3042    0.0000 C   0  0  0  0  0  0  0  0  0  0  0  0
    0.3167   -0.7792    0.0000 C   0  0  0  0  0  0  0  0  0  0  0  0
   -0.0958   -0.0667    0.0000 C   0  0  0  0  0  0  0  0  0  0  0  0
   -4.5708   -2.3042    0.0000 N   0  0  0  0  0  0  0  0  0  0  0  0
    2.3792   -0.0792    0.0000 C   0  0  0  0  0  0  0  0  0  0  0  0
    1.5542   -0.0750    0.0000 C   0  0  0  0  0  0  0  0  0  0  0  0
   -3.8583   -1.0625    0.0000 C   0  0  0  0  0  0  0  0  0  0  0  0
    1.1375   -0.7875    0.0000 C   0  0  0  0  0  0  0  0  0  0  0  0
   -3.8583   -2.7167    0.0000 C   0  0  0  0  0  0  0  0  0  0  0  0
   -0.9958   -2.7250    0.0000 O   0  0  0  0  0  0  0  0  0  0  0  0
   -4.5708   -1.4750    0.0000 C   0  0  0  0  0  0  0  0  0  0  0  0
    2.7917    0.6375    0.0000 O   0  0  0  0  0  0  0  0  0  0  0  0
    0.3167    0.6458    0.0000 C   0  0  0  0  0  0  0  0  0  0  0  0
    1.1417    0.6458    0.0000 C   0  0  0  0  0  0  0  0  0  0  0  0
    2.7917   -0.7917    0.0000 O   0  0  0  0  0  0  0  0  0  0  0  0
   -3.8625   -0.2375    0.0000 C   0  0  0  0  0  0  0  0  0  0  0  0
   -3.1458    0.1750    0.0000 O   0  0  0  0  0  0  0  0  0  0  0  0
   -3.8583   -3.5417    0.0000 C   0  0  0  0  0  0  0  0  0  0  0  0
  1  2  1  0
  2  3  2  0
  1  4  1  0
  4  5  1  0
  1  6  2  0
  2  7  1  0
  6  8  1  0
  8  9  1  0
  3 10  1  0
  7 11  1  0
 12 19  2  0
 13 14  1  0
 14 16  2  0
  8 15  2  0
 10 16  1  0
  9 17  2  0
  4 18  2  0
 15 19  1  0
 13 20  2  0
 11 21  1  0
 21 22  2  0
 13 23  1  0
 15 24  1  0
 24 25  1  0
 17 26  1  0
  5  9  1  0
 10 11  2  0
 12 17  1  0
 14 22  1  0
M  END
>  <MOLFORMULA>  (185) 
C18 H13 N3 O5

>  <MOLWEIGHT>  (185) 
3.513167000000000e+002

>  <IDNUMBER>  (185) 
AT-687/SK15767

>  <PRICE>  (185) 
EUR 80/10 mg

>  <Similarity score>  (185) 
0.18

$$$$

     RDKit          2D

 35 39  0  0  0  0  0  0  0  0999 V2000
    0.7000    1.9750    0.0000 C   0  0  0  0  0  0  0  0  0  0  0  0
    0.8583    2.9667    0.0000 C   0  0  0  0  0  0  0  0  0  0  0  0
    1.4750    1.3458    0.0000 C   0  0  0  0  0  0  0  0  0  0  0  0
   -0.2333    1.6208    0.0000 N   0  0  0  0  0  0  0  0  0  0  0  0
    1.7917    3.3208    0.0000 C   0  0  0  0  0  0  0  0  0  0  0  0
    2.4125    1.7042    0.0000 N   0  0  0  0  0  0  0  0  0  0  0  0
    2.5667    2.6917    0.0000 C   0  0  0  0  0  0  0  0  0  0  0  0
   -1.4792   -0.7125    0.0000 C   0  0  0  0  0  0  0  0  0  0  0  0
   -1.3250    0.2750    0.0000 C   0  0  0  0  0  0  0  0  0  0  0  0
   -0.3917    0.6333    0.0000 C   0  0  0  0  0  0  0  0  0  0  0  0
   -2.4167   -1.0708    0.0000 N   0  0  0  0  0  0  0  0  0  0  0  0
    1.9458    4.3042    0.0000 C   0  0  0  0  0  0  0  0  0  0  0  0
    0.0792    3.5958    0.0000 C   0  0  0  0  0  0  0  0  0  0  0  0
    1.3208    0.3583    0.0000 O   0  0  0  0  0  0  0  0  0  0  0  0
   -0.7042   -1.3458    0.0000 O   0  0  0  0  0  0  0  0  0  0  0  0
    3.5000    3.0500    0.0000 C   0  0  0  0  0  0  0  0  0  0  0  0
   -2.5708   -2.0583    0.0000 C   0  0  0  0  0  0  0  0  0  0  0  0
   -1.0125    2.2500    0.0000 C   0  0  0  0  0  0  0  0  0  0  0  0
    2.8792    4.6625    0.0000 C   0  0  0  0  0  0  0  0  0  0  0  0
    3.6583    4.0333    0.0000 C   0  0  0  0  0  0  0  0  0  0  0  0
    3.0375    5.6542    0.0000 Cl  0  0  0  0  0  0  0  0  0  0  0  0
   -2.8833   -4.0333    0.0000 C   0  0  0  0  0  0  0  0  0  0  0  0
   -2.1000    0.9042    0.0000 C   0  0  0  0  0  0  0  0  0  0  0  0
   -3.5042   -2.4167    0.0000 C   0  0  0  0  0  0  0  0  0  0  0  0
   -1.7958   -2.6875    0.0000 C   0  0  0  0  0  0  0  0  0  0  0  0
   -1.9500   -3.6750    0.0000 C   0  0  0  0  0  0  0  0  0  0  0  0
   -3.6625   -3.4042    0.0000 C   0  0  0  0  0  0  0  0  0  0  0  0
   -1.9458    1.8917    0.0000 C   0  0  0  0  0  0  0  0  0  0  0  0
    0.2375    4.5792    0.0000 C   0  0  0  0  0  0  0  0  0  0  0  0
   -0.8542    3.2375    0.0000 C   0  0  0  0  0  0  0  0  0  0  0  0
   -3.0417   -5.0208    0.0000 C   0  0  0  0  0  0  0  0  0  0  0  0
   -2.2667   -5.6542    0.0000 C   0  0  0  0  0  0  0  0  0  0  0  0
   -1.6292    3.8667    0.0000 C   0  0  0  0  0  0  0  0  0  0  0  0
   -0.5417    5.2083    0.0000 C   0  0  0  0  0  0  0  0  0  0  0  0
   -1.4750    4.8500    0.0000 C   0  0  0  0  0  0  0  0  0  0  0  0
  1  2  2  0
  1  3  1  0
  1  4  1  0
  2  5  1  0
  3  6  1  0
  6  7  1  0
  8  9  1  0
  9 10  1  0
  4 10  1  0
  8 11  1  0
  5 12  1  0
  2 13  1  0
  3 14  2  0
  8 15  2  0
  7 16  1  0
 11 17  1  0
  4 18  1  0
 12 19  2  0
 16 20  2  0
 19 21  1  0
 22 26  1  0
 23 28  1  0
 17 24  2  0
 17 25  1  0
 25 26  2  0
 24 27  1  0
 18 28  1  0
 13 29  2  0
 13 30  1  0
 22 31  1  0
 31 32  1  0
 30 33  2  0
 29 34  1  0
 34 35  2  0
  5  7  2  0
  9 23  1  0
 19 20  1  0
 33 35  1  0
 22 27  2  0
M  END
>  <MOLFORMULA>  (186) 
C29 H28 Cl N3 O2

>  <MOLWEIGHT>  (186) 
4.860122000000000e+002

>  <IDNUMBER>  (186) 
AN-153/MD17197

>  <SALTDATA>  (186) 
HCl

>  <PRICE>  (186) 
EUR 130/10 mg

>  <Similarity score>  (186) 
0.18

$$$$

     RDKit          2D

 31 35  0  0  0  0  0  0  0  0999 V2000
   -1.8958    0.7750    0.0000 C   0  0  0  0  0  0  0  0  0  0  0  0
   -1.0958    0.9458    0.0000 C   0  0  0  0  0  0  0  0  0  0  0  0
   -2.5625    1.2583    0.0000 O   0  0  0  0  0  0  0  0  0  0  0  0
   -2.1583   -0.0042    0.0000 C   0  0  0  0  0  0  0  0  0  0  0  0
   -0.8333    1.7250    0.0000 N   0  0  0  0  0  0  0  0  0  0  0  0
   -2.9750   -0.0125    0.0000 C   0  0  0  0  0  0  0  0  0  0  0  0
   -3.2333    0.7708    0.0000 C   0  0  0  0  0  0  0  0  0  0  0  0
    0.2292    2.6750    0.0000 C   0  0  0  0  0  0  0  0  0  0  0  0
   -0.5458    0.3333    0.0000 N   0  0  0  0  0  0  0  0  0  0  0  0
   -0.0250    1.8958    0.0000 C   0  0  0  0  0  0  0  0  0  0  0  0
    1.0375    2.8458    0.0000 C   0  0  0  0  0  0  0  0  0  0  0  0
   -1.6083   -0.6167    0.0000 N   0  0  0  0  0  0  0  0  0  0  0  0
   -0.8000   -0.4542    0.0000 C   0  0  0  0  0  0  0  0  0  0  0  0
    1.5875    2.2333    0.0000 O   0  0  0  0  0  0  0  0  0  0  0  0
    1.2917    3.6333    0.0000 N   0  0  0  0  0  0  0  0  0  0  0  0
   -1.3875    2.3375    0.0000 C   0  0  0  0  0  0  0  0  0  0  0  0
   -0.3208    3.2958    0.0000 C   0  0  0  0  0  0  0  0  0  0  0  0
   -3.5250   -0.6167    0.0000 C   0  0  0  0  0  0  0  0  0  0  0  0
   -4.0333    0.9458    0.0000 C   0  0  0  0  0  0  0  0  0  0  0  0
    4.0000    2.7375    0.0000 C   0  0  0  0  0  0  0  0  0  0  0  0
   -1.1250    3.1250    0.0000 C   0  0  0  0  0  0  0  0  0  0  0  0
    2.0917    3.8000    0.0000 C   0  0  0  0  0  0  0  0  0  0  0  0
    3.4500    3.3458    0.0000 C   0  0  0  0  0  0  0  0  0  0  0  0
    4.8042    2.8958    0.0000 C   0  0  0  0  0  0  0  0  0  0  0  0
    3.7375    1.9583    0.0000 C   0  0  0  0  0  0  0  0  0  0  0  0
    2.6417    3.1875    0.0000 C   0  0  0  0  0  0  0  0  0  0  0  0
   -4.3333   -0.4500    0.0000 C   0  0  0  0  0  0  0  0  0  0  0  0
   -4.5833    0.3333    0.0000 C   0  0  0  0  0  0  0  0  0  0  0  0
    4.2792    1.3458    0.0000 C   0  0  0  0  0  0  0  0  0  0  0  0
    5.3500    2.2833    0.0000 C   0  0  0  0  0  0  0  0  0  0  0  0
    5.0875    1.5083    0.0000 C   0  0  0  0  0  0  0  0  0  0  0  0
  1  2  1  0
  1  3  1  0
  1  4  2  0
  2  5  1  0
  4  6  1  0
  3  7  1  0
  8 10  1  0
  2  9  2  0
  5 10  1  0
  8 11  1  0
  4 12  1  0
 12 13  2  0
 11 14  2  0
 11 15  1  0
  5 16  1  0
 17 21  1  0
  6 18  1  0
  7 19  1  0
 20 23  1  0
 16 21  1  0
 15 22  1  0
 23 26  1  0
 20 24  2  0
 20 25  1  0
 22 26  1  0
 18 27  2  0
 19 28  2  0
 25 29  2  0
 24 30  1  0
 29 31  1  0
  6  7  2  0
  9 13  1  0
 27 28  1  0
  8 17  1  0
 30 31  2  0
M  END
>  <MOLFORMULA>  (187) 
C25 H26 N4 O2

>  <MOLWEIGHT>  (187) 
4.145064000000000e+002

>  <IDNUMBER>  (187) 
AT-687/PE16784

>  <PRICE>  (187) 
EUR 80/10 mg

>  <Similarity score>  (187) 
0.18

$$$$

     RDKit          2D

 32 36  0  0  0  0  0  0  0  0999 V2000
   -3.3208    2.1875    0.0000 C   0  0  0  0  0  0  0  0  0  0  0  0
   -3.3125    1.3583    0.0000 C   0  0  0  0  0  0  0  0  0  0  0  0
   -1.8833    2.1875    0.0000 C   0  0  0  0  0  0  0  0  0  0  0  0
   -2.6083    2.6083    0.0000 N   0  0  0  0  0  0  0  0  0  0  0  0
   -1.8833    1.3583    0.0000 N   0  0  0  0  0  0  0  0  0  0  0  0
   -4.1000    2.4333    0.0000 C   0  0  0  0  0  0  0  0  0  0  0  0
   -2.6000    0.9458    0.0000 C   0  0  0  0  0  0  0  0  0  0  0  0
   -4.0958    1.1000    0.0000 S   0  0  0  0  0  0  0  0  0  0  0  0
   -1.1708    2.6000    0.0000 N   0  0  0  0  0  0  0  0  0  0  0  0
   -4.5833    1.7708    0.0000 C   0  0  0  0  0  0  0  0  0  0  0  0
    0.9750    2.1750    0.0000 C   0  0  0  0  0  0  0  0  0  0  0  0
    0.2542    2.5958    0.0000 C   0  0  0  0  0  0  0  0  0  0  0  0
   -4.3625    3.2208    0.0000 C   0  0  0  0  0  0  0  0  0  0  0  0
   -0.4583    2.1833    0.0000 C   0  0  0  0  0  0  0  0  0  0  0  0
    1.6917    2.5875    0.0000 N   0  0  0  0  0  0  0  0  0  0  0  0
   -2.6000    0.1208    0.0000 O   0  0  0  0  0  0  0  0  0  0  0  0
    0.9667    1.3500    0.0000 O   0  0  0  0  0  0  0  0  0  0  0  0
   -5.1708    3.3958    0.0000 C   0  0  0  0  0  0  0  0  0  0  0  0
   -5.4333    4.1667    0.0000 C   0  0  0  0  0  0  0  0  0  0  0  0
   -1.1708    3.4208    0.0000 C   0  0  0  0  0  0  0  0  0  0  0  0
    2.4042    2.1708    0.0000 C   0  0  0  0  0  0  0  0  0  0  0  0
    0.2625    3.4208    0.0000 C   0  0  0  0  0  0  0  0  0  0  0  0
   -3.8083    3.8375    0.0000 C   0  0  0  0  0  0  0  0  0  0  0  0
   -6.2167    4.3375    0.0000 O   0  0  0  0  0  0  0  0  0  0  0  0
   -0.4583    3.8333    0.0000 C   0  0  0  0  0  0  0  0  0  0  0  0
   -4.0708    4.6167    0.0000 C   0  0  0  0  0  0  0  0  0  0  0  0
   -4.8750    4.7792    0.0000 C   0  0  0  0  0  0  0  0  0  0  0  0
   -6.7792    3.7333    0.0000 C   0  0  0  0  0  0  0  0  0  0  0  0
    2.4917    1.3458    0.0000 C   0  0  0  0  0  0  0  0  0  0  0  0
    3.1625    2.5083    0.0000 C   0  0  0  0  0  0  0  0  0  0  0  0
    3.7125    1.8833    0.0000 C   0  0  0  0  0  0  0  0  0  0  0  0
    3.3042    1.1750    0.0000 C   0  0  0  0  0  0  0  0  0  0  0  0
  1  2  2  0
  3  4  2  0
  1  4  1  0
  3  5  1  0
  1  6  1  0
  2  7  1  0
  2  8  1  0
  3  9  1  0
  6 10  2  0
 11 12  1  0
 12 14  1  0
  6 13  1  0
  9 14  1  0
 11 15  1  0
  7 16  2  0
 11 17  2  0
 13 18  2  0
 18 19  1  0
  9 20  1  0
 15 21  1  0
 22 25  1  0
 13 23  1  0
 19 24  1  0
 20 25  1  0
 23 26  2  0
 26 27  1  0
 24 28  1  0
 21 29  1  0
 21 30  1  0
 30 31  1  0
 29 32  1  0
  8 10  1  0
  5  7  1  0
 19 27  2  0
 12 22  1  0
 31 32  1  0
M  END
>  <MOLFORMULA>  (188) 
C24 H28 N4 O3 S

>  <MOLWEIGHT>  (188) 
4.525762000000000e+002

>  <IDNUMBER>  (188) 
AT-687/PE26002

>  <PRICE>  (188) 
EUR 80/10 mg

>  <Similarity score>  (188) 
0.18

$$$$

     RDKit          2D

 26 30  0  0  0  0  0  0  0  0999 V2000
    3.8750   -0.1042    0.0000 C   0  0  0  0  0  0  0  0  0  0  0  0
    4.9125   -0.1042    0.0000 N   0  0  0  0  0  0  0  0  0  0  0  0
    4.9125    0.4958    0.0000 C   0  0  0  0  0  0  0  0  0  0  0  0
    4.3917    0.7958    0.0000 C   0  0  0  0  0  0  0  0  0  0  0  0
    3.8750    0.4958    0.0000 C   0  0  0  0  0  0  0  0  0  0  0  0
    5.4292    0.7958    0.0000 C   0  0  0  0  0  0  0  0  0  0  0  0
    4.3917   -0.4042    0.0000 C   0  0  0  0  0  0  0  0  0  0  0  0
    3.3542   -0.4042    0.0000 C   0  0  0  0  0  0  0  0  0  0  0  0
    5.9542    0.4958    0.0000 C   0  0  0  0  0  0  0  0  0  0  0  0
    5.4292    1.3958    0.0000 C   0  0  0  0  0  0  0  0  0  0  0  0
    6.4667    0.7958    0.0000 C   0  0  0  0  0  0  0  0  0  0  0  0
    6.4667    1.3958    0.0000 C   0  0  0  0  0  0  0  0  0  0  0  0
    4.3917    1.3958    0.0000 C   0  0  0  0  0  0  0  0  0  0  0  0
    3.3542    0.7958    0.0000 C   0  0  0  0  0  0  0  0  0  0  0  0
    5.9542    1.6958    0.0000 C   0  0  0  0  0  0  0  0  0  0  0  0
    7.0417    0.6083    0.0000 O   0  0  0  0  0  0  0  0  0  0  0  0
    7.0417    1.5833    0.0000 O   0  0  0  0  0  0  0  0  0  0  0  0
    2.8375   -0.1042    0.0000 C   0  0  0  0  0  0  0  0  0  0  0  0
    7.3917    1.0958    0.0000 C   0  0  0  0  0  0  0  0  0  0  0  0
    4.9125    1.6958    0.0000 C   0  0  0  0  0  0  0  0  0  0  0  0
    2.8375    0.4958    0.0000 C   0  0  0  0  0  0  0  0  0  0  0  0
    5.4292   -0.4042    0.0000 C   0  0  0  0  0  0  0  0  0  0  0  0
    3.3542   -1.0042    0.0000 O   0  0  0  0  0  0  0  0  0  0  0  0
    2.3167   -0.4042    0.0000 O   0  0  0  0  0  0  0  0  0  0  0  0
    2.8375   -1.3042    0.0000 C   0  0  0  0  0  0  0  0  0  0  0  0
    2.3167   -1.0042    0.0000 C   0  0  0  0  0  0  0  0  0  0  0  0
  2  7  1  0
  2  3  1  0
  4  5  1  0
  1  5  2  0
  3  6  1  0
  1  7  1  0
  1  8  1  0
  6  9  1  0
  6 10  2  0
  9 11  2  0
 12 15  2  0
  4 13  1  0
  5 14  1  0
 10 15  1  0
 11 16  1  0
 12 17  1  0
  8 18  2  0
 16 19  1  0
 13 20  2  0
 18 21  1  0
  2 22  1  0
  8 23  1  0
 18 24  1  0
 23 25  1  0
 24 26  1  0
  3  4  2  0
 14 21  2  0
 10 20  1  0
 11 12  1  0
 17 19  1  0
M  END
>  <MOLFORMULA>  (189) 
C21 H19 N O4

>  <MOLWEIGHT>  (189) 
3.493841000000000e+002

>  <IDNUMBER>  (189) 
AT-358/MD21393

>  <Similarity score>  (189) 
0.18

$$$$

     RDKit          2D

 35 39  0  0  0  0  0  0  0  0999 V2000
    0.5542    1.9250    0.0000 C   0  0  0  0  0  0  0  0  0  0  0  0
    0.2750    2.8833    0.0000 C   0  0  0  0  0  0  0  0  0  0  0  0
    1.5250    1.6833    0.0000 C   0  0  0  0  0  0  0  0  0  0  0  0
   -0.1417    1.2042    0.0000 N   0  0  0  0  0  0  0  0  0  0  0  0
    0.9708    3.6042    0.0000 C   0  0  0  0  0  0  0  0  0  0  0  0
    2.2167    2.4042    0.0000 N   0  0  0  0  0  0  0  0  0  0  0  0
    1.9375    3.3667    0.0000 C   0  0  0  0  0  0  0  0  0  0  0  0
   -0.2792   -1.4375    0.0000 C   0  0  0  0  0  0  0  0  0  0  0  0
   -0.5583   -0.4792    0.0000 C   0  0  0  0  0  0  0  0  0  0  0  0
    0.1375    0.2417    0.0000 C   0  0  0  0  0  0  0  0  0  0  0  0
   -0.9708   -2.1583    0.0000 N   0  0  0  0  0  0  0  0  0  0  0  0
    0.6917    4.5625    0.0000 C   0  0  0  0  0  0  0  0  0  0  0  0
   -0.6958    3.1250    0.0000 C   0  0  0  0  0  0  0  0  0  0  0  0
    1.8000    0.7208    0.0000 O   0  0  0  0  0  0  0  0  0  0  0  0
    0.6917   -1.6792    0.0000 O   0  0  0  0  0  0  0  0  0  0  0  0
    2.6333    4.0792    0.0000 C   0  0  0  0  0  0  0  0  0  0  0  0
   -0.6958   -3.1208    0.0000 C   0  0  0  0  0  0  0  0  0  0  0  0
   -1.1125    1.4417    0.0000 C   0  0  0  0  0  0  0  0  0  0  0  0
    1.3833    5.2833    0.0000 C   0  0  0  0  0  0  0  0  0  0  0  0
   -0.1417   -5.0417    0.0000 C   0  0  0  0  0  0  0  0  0  0  0  0
    2.3542    5.0417    0.0000 C   0  0  0  0  0  0  0  0  0  0  0  0
    1.1083    6.2417    0.0000 Cl  0  0  0  0  0  0  0  0  0  0  0  0
   -1.5292   -0.2375    0.0000 C   0  0  0  0  0  0  0  0  0  0  0  0
   -1.3875   -3.8417    0.0000 C   0  0  0  0  0  0  0  0  0  0  0  0
    0.2750   -3.3625    0.0000 C   0  0  0  0  0  0  0  0  0  0  0  0
    0.5542   -4.3208    0.0000 C   0  0  0  0  0  0  0  0  0  0  0  0
   -1.1125   -4.8000    0.0000 C   0  0  0  0  0  0  0  0  0  0  0  0
    0.1375   -6.0042    0.0000 O   0  0  0  0  0  0  0  0  0  0  0  0
   -1.8042    0.7208    0.0000 C   0  0  0  0  0  0  0  0  0  0  0  0
   -1.3875    2.4042    0.0000 C   0  0  0  0  0  0  0  0  0  0  0  0
   -0.9708    4.0792    0.0000 C   0  0  0  0  0  0  0  0  0  0  0  0
    1.1083   -6.2417    0.0000 C   0  0  0  0  0  0  0  0  0  0  0  0
   -1.9417    4.3208    0.0000 C   0  0  0  0  0  0  0  0  0  0  0  0
   -2.3583    2.6458    0.0000 C   0  0  0  0  0  0  0  0  0  0  0  0
   -2.6375    3.6042    0.0000 C   0  0  0  0  0  0  0  0  0  0  0  0
  1  2  2  0
  1  3  1  0
  1  4  1  0
  2  5  1  0
  3  6  1  0
  6  7  1  0
  8  9  1  0
  9 10  1  0
  4 10  1  0
  8 11  1  0
  5 12  1  0
  2 13  1  0
  3 14  2  0
  8 15  2  0
  7 16  1  0
 11 17  1  0
  4 18  1  0
 12 19  2  0
 20 26  1  0
 16 21  2  0
 19 22  1  0
 23 29  1  0
 17 24  2  0
 17 25  1  0
 25 26  2  0
 24 27  1  0
 20 28  1  0
 18 29  1  0
 13 30  2  0
 13 31  1  0
 28 32  1  0
 31 33  2  0
 30 34  1  0
 33 35  1  0
  5  7  2  0
  9 23  1  0
 19 21  1  0
 34 35  2  0
 20 27  2  0
M  END
>  <MOLFORMULA>  (190) 
C28 H26 Cl N3 O3

>  <MOLWEIGHT>  (190) 
4.879844000000000e+002

>  <IDNUMBER>  (190) 
AN-153/I261742

>  <PRICE>  (190) 
EUR 130/10 mg

>  <Similarity score>  (190) 
0.18

$$$$

     RDKit          2D

 28 31  0  0  0  0  0  0  0  0999 V2000
    0.9958   -0.0000    0.0000 C   0  0  0  0  0  0  0  0  0  0  0  0
    0.5000    0.8667    0.0000 C   0  0  0  0  0  0  0  0  0  0  0  0
    2.0000   -0.0000    0.0000 C   0  0  0  0  0  0  0  0  0  0  0  0
    0.5000   -0.8625    0.0000 N   0  0  0  0  0  0  0  0  0  0  0  0
    0.9958    1.7333    0.0000 C   0  0  0  0  0  0  0  0  0  0  0  0
    2.5000    0.8667    0.0000 N   0  0  0  0  0  0  0  0  0  0  0  0
    2.0000    1.7333    0.0000 C   0  0  0  0  0  0  0  0  0  0  0  0
    0.5000   -2.5958    0.0000 C   0  0  0  0  0  0  0  0  0  0  0  0
    0.9958   -1.7292    0.0000 C   0  0  0  0  0  0  0  0  0  0  0  0
    0.9958   -3.4625    0.0000 C   0  0  0  0  0  0  0  0  0  0  0  0
    0.5000    2.6000    0.0000 C   0  0  0  0  0  0  0  0  0  0  0  0
   -0.5000    0.8667    0.0000 C   0  0  0  0  0  0  0  0  0  0  0  0
    2.5000   -0.8625    0.0000 O   0  0  0  0  0  0  0  0  0  0  0  0
    0.5000   -4.3292    0.0000 O   0  0  0  0  0  0  0  0  0  0  0  0
    2.5000    2.6000    0.0000 C   0  0  0  0  0  0  0  0  0  0  0  0
   -0.5000   -0.8625    0.0000 C   0  0  0  0  0  0  0  0  0  0  0  0
    0.9958    3.4667    0.0000 C   0  0  0  0  0  0  0  0  0  0  0  0
    2.0000   -3.4625    0.0000 O   0  0  0  0  0  0  0  0  0  0  0  0
    2.0000    3.4667    0.0000 C   0  0  0  0  0  0  0  0  0  0  0  0
    0.5000    4.3292    0.0000 Cl  0  0  0  0  0  0  0  0  0  0  0  0
   -0.5000   -2.5958    0.0000 C   0  0  0  0  0  0  0  0  0  0  0  0
   -1.0042   -1.7292    0.0000 C   0  0  0  0  0  0  0  0  0  0  0  0
   -1.0042    1.7333    0.0000 C   0  0  0  0  0  0  0  0  0  0  0  0
   -1.0042   -0.0000    0.0000 C   0  0  0  0  0  0  0  0  0  0  0  0
    2.5000   -4.3292    0.0000 C   0  0  0  0  0  0  0  0  0  0  0  0
   -2.0000   -0.0000    0.0000 C   0  0  0  0  0  0  0  0  0  0  0  0
   -2.0000    1.7333    0.0000 C   0  0  0  0  0  0  0  0  0  0  0  0
   -2.5000    0.8667    0.0000 C   0  0  0  0  0  0  0  0  0  0  0  0
  1  2  2  0
  1  3  1  0
  1  4  1  0
  2  5  1  0
  3  6  1  0
  6  7  1  0
  8  9  1  0
  4  9  1  0
  8 10  1  0
  5 11  1  0
  2 12  1  0
  3 13  2  0
 10 14  2  0
  7 15  1  0
  4 16  1  0
 11 17  2  0
 10 18  1  0
 15 19  2  0
 17 20  1  0
 21 22  1  0
 16 22  1  0
 12 23  2  0
 12 24  1  0
 18 25  1  0
 24 26  2  0
 23 27  1  0
 26 28  1  0
  5  7  2  0
  8 21  1  0
 17 19  1  0
 27 28  2  0
M  END
>  <MOLFORMULA>  (191) 
C22 H21 Cl N2 O3

>  <MOLWEIGHT>  (191) 
3.968719000000000e+002

>  <IDNUMBER>  (191) 
AN-153/I261734

>  <PRICE>  (191) 
EUR 130/10 mg

>  <Similarity score>  (191) 
0.18

$$$$

     RDKit          2D

 34 38  0  0  0  0  0  0  0  0999 V2000
   -3.3208    2.1875    0.0000 C   0  0  0  0  0  0  0  0  0  0  0  0
   -3.3125    1.3583    0.0000 C   0  0  0  0  0  0  0  0  0  0  0  0
   -1.8833    2.1875    0.0000 C   0  0  0  0  0  0  0  0  0  0  0  0
   -2.6083    2.6083    0.0000 N   0  0  0  0  0  0  0  0  0  0  0  0
   -1.8833    1.3583    0.0000 N   0  0  0  0  0  0  0  0  0  0  0  0
   -2.6000    0.9458    0.0000 C   0  0  0  0  0  0  0  0  0  0  0  0
   -4.1000    2.4333    0.0000 C   0  0  0  0  0  0  0  0  0  0  0  0
   -4.0958    1.1000    0.0000 S   0  0  0  0  0  0  0  0  0  0  0  0
   -1.1708    2.6000    0.0000 N   0  0  0  0  0  0  0  0  0  0  0  0
   -4.5833    1.7708    0.0000 C   0  0  0  0  0  0  0  0  0  0  0  0
    0.2542    2.5958    0.0000 C   0  0  0  0  0  0  0  0  0  0  0  0
    0.9750    2.1750    0.0000 C   0  0  0  0  0  0  0  0  0  0  0  0
   -0.4583    2.1833    0.0000 C   0  0  0  0  0  0  0  0  0  0  0  0
    1.6917    2.5875    0.0000 N   0  0  0  0  0  0  0  0  0  0  0  0
   -4.3625    3.2208    0.0000 C   0  0  0  0  0  0  0  0  0  0  0  0
   -2.6000    0.1208    0.0000 O   0  0  0  0  0  0  0  0  0  0  0  0
    0.9667    1.3500    0.0000 O   0  0  0  0  0  0  0  0  0  0  0  0
    2.4042    2.1708    0.0000 C   0  0  0  0  0  0  0  0  0  0  0  0
   -1.1708    3.4208    0.0000 C   0  0  0  0  0  0  0  0  0  0  0  0
    3.1042    0.9333    0.0000 C   0  0  0  0  0  0  0  0  0  0  0  0
    2.4000    1.3583    0.0000 C   0  0  0  0  0  0  0  0  0  0  0  0
    3.1042    0.1125    0.0000 C   0  0  0  0  0  0  0  0  0  0  0  0
    0.2625    3.4208    0.0000 C   0  0  0  0  0  0  0  0  0  0  0  0
    3.8250   -0.3000    0.0000 O   0  0  0  0  0  0  0  0  0  0  0  0
   -0.4583    3.8333    0.0000 C   0  0  0  0  0  0  0  0  0  0  0  0
    1.6667    0.1208    0.0000 C   0  0  0  0  0  0  0  0  0  0  0  0
   -5.1708    3.3958    0.0000 C   0  0  0  0  0  0  0  0  0  0  0  0
   -3.8083    3.8375    0.0000 C   0  0  0  0  0  0  0  0  0  0  0  0
    1.6792    0.9583    0.0000 C   0  0  0  0  0  0  0  0  0  0  0  0
    2.3917   -0.3000    0.0000 C   0  0  0  0  0  0  0  0  0  0  0  0
    3.8167   -1.1292    0.0000 C   0  0  0  0  0  0  0  0  0  0  0  0
   -4.0708    4.6167    0.0000 C   0  0  0  0  0  0  0  0  0  0  0  0
   -5.4333    4.1667    0.0000 C   0  0  0  0  0  0  0  0  0  0  0  0
   -4.8750    4.7792    0.0000 C   0  0  0  0  0  0  0  0  0  0  0  0
  1  2  2  0
  3  4  2  0
  1  4  1  0
  3  5  1  0
  2  6  1  0
  1  7  1  0
  2  8  1  0
  3  9  1  0
  7 10  2  0
 11 13  1  0
 11 12  1  0
  9 13  1  0
 12 14  1  0
  7 15  1  0
  6 16  2  0
 12 17  2  0
 14 18  1  0
  9 19  1  0
 20 21  2  0
 18 21  1  0
 20 22  1  0
 23 25  1  0
 22 24  1  0
 19 25  1  0
 26 29  2  0
 15 27  2  0
 15 28  1  0
 21 29  1  0
 26 30  1  0
 24 31  1  0
 28 32  2  0
 27 33  1  0
 32 34  1  0
  8 10  1  0
  5  6  1  0
 33 34  2  0
 11 23  1  0
 22 30  2  0
M  END
>  <MOLFORMULA>  (192) 
C26 H26 N4 O3 S

>  <MOLWEIGHT>  (192) 
4.745824000000000e+002

>  <IDNUMBER>  (192) 
AT-687/PE25940

>  <PRICE>  (192) 
EUR 80/10 mg

>  <Similarity score>  (192) 
0.18

$$$$

     RDKit          2D

 21 25  0  0  0  0  0  0  0  0999 V2000
    0.4750    0.2833    0.0000 C   0  0  0  0  0  0  0  0  0  0  0  0
    0.4750    1.7833    0.0000 C   0  0  0  0  0  0  0  0  0  0  0  0
    1.7667   -0.4667    0.0000 N   0  0  0  0  0  0  0  0  0  0  0  0
   -0.8250   -0.4667    0.0000 C   0  0  0  0  0  0  0  0  0  0  0  0
   -2.1250    0.2833    0.0000 C   0  0  0  0  0  0  0  0  0  0  0  0
    3.0667    1.7833    0.0000 C   0  0  0  0  0  0  0  0  0  0  0  0
    3.0667    0.2833    0.0000 C   0  0  0  0  0  0  0  0  0  0  0  0
   -0.8250    2.5333    0.0000 C   0  0  0  0  0  0  0  0  0  0  0  0
   -3.4250   -0.4667    0.0000 C   0  0  0  0  0  0  0  0  0  0  0  0
   -2.1250    1.7833    0.0000 C   0  0  0  0  0  0  0  0  0  0  0  0
   -0.8250   -1.9667    0.0000 C   0  0  0  0  0  0  0  0  0  0  0  0
   -3.4250   -1.9667    0.0000 C   0  0  0  0  0  0  0  0  0  0  0  0
   -2.1250   -2.7167    0.0000 C   0  0  0  0  0  0  0  0  0  0  0  0
    4.3667    2.5333    0.0000 C   0  0  0  0  0  0  0  0  0  0  0  0
    4.3667   -0.4667    0.0000 C   0  0  0  0  0  0  0  0  0  0  0  0
   -4.7208    0.2833    0.0000 C   0  0  0  0  0  0  0  0  0  0  0  0
   -4.7208   -2.7167    0.0000 C   0  0  0  0  0  0  0  0  0  0  0  0
    5.6667    1.7833    0.0000 C   0  0  0  0  0  0  0  0  0  0  0  0
    5.6667    0.2833    0.0000 C   0  0  0  0  0  0  0  0  0  0  0  0
   -6.0167   -0.4667    0.0000 C   0  0  0  0  0  0  0  0  0  0  0  0
   -6.0167   -1.9667    0.0000 C   0  0  0  0  0  0  0  0  0  0  0  0
  1  2  2  0
  1  3  1  0
  1  4  1  0
  4  5  2  0
  2  6  1  0
  3  7  1  0
  2  8  1  0
  5  9  1  0
  5 10  1  0
  4 11  1  0
 12 13  1  0
 11 13  2  0
  6 14  1  0
  7 15  1  0
  9 16  1  0
 12 17  1  0
 14 18  2  0
 15 19  2  0
 16 20  2  0
 17 21  2  0
  6  7  2  0
  8 10  1  0
  9 12  2  0
 18 19  1  0
 20 21  1  0
M  END
>  <MOLFORMULA>  (193) 
C20 H15 N

>  <MOLWEIGHT>  (193) 
2.693455000000000e+002

>  <IDNUMBER>  (193) 
AT-225/NB98225

>  <PRICE>  (193) 
EUR 140/10 mg

>  <Similarity score>  (193) 
0.18

$$$$

     RDKit          2D

 27 30  0  0  0  0  0  0  0  0999 V2000
    1.0000   -0.0000    0.0000 C   0  0  0  0  0  0  0  0  0  0  0  0
    0.5000    0.8667    0.0000 C   0  0  0  0  0  0  0  0  0  0  0  0
    2.0000   -0.0000    0.0000 C   0  0  0  0  0  0  0  0  0  0  0  0
    0.5000   -0.8625    0.0000 N   0  0  0  0  0  0  0  0  0  0  0  0
    1.0000    1.7333    0.0000 C   0  0  0  0  0  0  0  0  0  0  0  0
    2.5000    0.8667    0.0000 N   0  0  0  0  0  0  0  0  0  0  0  0
    2.0000    1.7333    0.0000 C   0  0  0  0  0  0  0  0  0  0  0  0
    0.5000   -2.5958    0.0000 C   0  0  0  0  0  0  0  0  0  0  0  0
    1.0000   -1.7292    0.0000 C   0  0  0  0  0  0  0  0  0  0  0  0
    1.0000   -3.4625    0.0000 C   0  0  0  0  0  0  0  0  0  0  0  0
    0.5000    2.6000    0.0000 C   0  0  0  0  0  0  0  0  0  0  0  0
   -0.5000    0.8667    0.0000 C   0  0  0  0  0  0  0  0  0  0  0  0
    2.5000   -0.8625    0.0000 O   0  0  0  0  0  0  0  0  0  0  0  0
    0.5000   -4.3292    0.0000 O   0  0  0  0  0  0  0  0  0  0  0  0
    2.5000    2.6000    0.0000 C   0  0  0  0  0  0  0  0  0  0  0  0
   -0.5000   -0.8625    0.0000 C   0  0  0  0  0  0  0  0  0  0  0  0
    1.0000    3.4667    0.0000 C   0  0  0  0  0  0  0  0  0  0  0  0
    2.0000   -3.4625    0.0000 O   0  0  0  0  0  0  0  0  0  0  0  0
    2.0000    3.4667    0.0000 C   0  0  0  0  0  0  0  0  0  0  0  0
    0.5000    4.3292    0.0000 Cl  0  0  0  0  0  0  0  0  0  0  0  0
   -0.5000   -2.5958    0.0000 C   0  0  0  0  0  0  0  0  0  0  0  0
   -1.0000   -1.7292    0.0000 C   0  0  0  0  0  0  0  0  0  0  0  0
   -1.0000   -0.0000    0.0000 C   0  0  0  0  0  0  0  0  0  0  0  0
   -1.0000    1.7333    0.0000 C   0  0  0  0  0  0  0  0  0  0  0  0
   -2.0000    1.7333    0.0000 C   0  0  0  0  0  0  0  0  0  0  0  0
   -2.0000   -0.0000    0.0000 C   0  0  0  0  0  0  0  0  0  0  0  0
   -2.5000    0.8667    0.0000 C   0  0  0  0  0  0  0  0  0  0  0  0
  1  2  2  0
  1  3  1  0
  1  4  1  0
  2  5  1  0
  3  6  1  0
  6  7  1  0
  8  9  1  0
  4  9  1  0
  8 10  1  0
  5 11  2  0
  2 12  1  0
  3 13  2  0
 10 14  2  0
  7 15  2  0
  4 16  1  0
 11 17  1  0
 10 18  1  0
 15 19  1  0
 17 20  1  0
 21 22  1  0
 16 22  1  0
 12 23  2  0
 12 24  1  0
 24 25  2  0
 23 26  1  0
 25 27  1  0
  5  7  1  0
  8 21  1  0
 17 19  2  0
 26 27  2  0
M  END
>  <MOLFORMULA>  (194) 
C21 H19 Cl N2 O3

>  <MOLWEIGHT>  (194) 
3.828451000000000e+002

>  <IDNUMBER>  (194) 
AN-153/I208779

>  <PRICE>  (194) 
EUR 130/10 mg

>  <Similarity score>  (194) 
0.18

$$$$

     RDKit          2D

 29 32  0  0  0  0  0  0  0  0999 V2000
    0.4292   -0.2417    0.0000 S   0  0  0  0  0  0  0  0  0  0  0  0
   -0.4333    0.2500    0.0000 C   0  0  0  0  0  0  0  0  0  0  0  0
   -0.4333    1.2500    0.0000 C   0  0  0  0  0  0  0  0  0  0  0  0
    1.2917   -0.7500    0.0000 C   0  0  0  0  0  0  0  0  0  0  0  0
   -1.3000    1.7583    0.0000 C   0  0  0  0  0  0  0  0  0  0  0  0
   -2.1708    0.2500    0.0000 N   0  0  0  0  0  0  0  0  0  0  0  0
   -2.1708    1.2500    0.0000 C   0  0  0  0  0  0  0  0  0  0  0  0
   -1.3000   -0.2417    0.0000 C   0  0  0  0  0  0  0  0  0  0  0  0
    2.1625   -0.2417    0.0000 C   0  0  0  0  0  0  0  0  0  0  0  0
    1.2917   -1.7500    0.0000 C   0  0  0  0  0  0  0  0  0  0  0  0
    0.9292    0.6208    0.0000 O   0  0  0  0  0  0  0  0  0  0  0  0
   -0.0708   -1.1125    0.0000 O   0  0  0  0  0  0  0  0  0  0  0  0
    0.4292    1.7583    0.0000 C   0  0  0  0  0  0  0  0  0  0  0  0
    2.1625   -2.2500    0.0000 C   0  0  0  0  0  0  0  0  0  0  0  0
    3.0292   -0.7500    0.0000 C   0  0  0  0  0  0  0  0  0  0  0  0
   -3.0333    1.7583    0.0000 C   0  0  0  0  0  0  0  0  0  0  0  0
    3.0292   -1.7500    0.0000 C   0  0  0  0  0  0  0  0  0  0  0  0
    0.4292    2.7583    0.0000 C   0  0  0  0  0  0  0  0  0  0  0  0
    1.2917    1.2500    0.0000 C   0  0  0  0  0  0  0  0  0  0  0  0
    2.1625    2.7583    0.0000 C   0  0  0  0  0  0  0  0  0  0  0  0
    3.8917   -0.2417    0.0000 Cl  0  0  0  0  0  0  0  0  0  0  0  0
    2.1625   -3.2500    0.0000 Cl  0  0  0  0  0  0  0  0  0  0  0  0
   -3.9000    1.2500    0.0000 F   0  0  0  0  0  0  0  0  0  0  0  0
   -1.3000    2.7583    0.0000 C   0  0  0  0  0  0  0  0  0  0  0  0
    2.1625    1.7583    0.0000 C   0  0  0  0  0  0  0  0  0  0  0  0
    1.2917    3.2500    0.0000 C   0  0  0  0  0  0  0  0  0  0  0  0
    3.0292    3.2500    0.0000 F   0  0  0  0  0  0  0  0  0  0  0  0
   -2.1708    3.2500    0.0000 C   0  0  0  0  0  0  0  0  0  0  0  0
   -3.0333    2.7583    0.0000 C   0  0  0  0  0  0  0  0  0  0  0  0
  1  2  1  0
  2  3  2  0
  1  4  1  0
  3  5  1  0
  6  8  2  0
  6  7  1  0
  2  8  1  0
  4  9  2  0
  4 10  1  0
  1 11  2  0
  1 12  2  0
  3 13  1  0
 10 14  2  0
  9 15  1  0
  7 16  1  0
 14 17  1  0
 13 18  1  0
 13 19  2  0
 20 25  2  0
 15 21  1  0
 14 22  1  0
 16 23  1  0
  5 24  1  0
 19 25  1  0
 18 26  2  0
 20 27  1  0
 24 28  2  0
 16 29  2  0
 15 17  2  0
  5  7  2  0
 20 26  1  0
 28 29  1  0
M  END
>  <MOLFORMULA>  (195) 
C21 H11 Cl2 F2 N O2 S

>  <MOLWEIGHT>  (195) 
4.502909000000000e+002

>  <IDNUMBER>  (195) 
AT-687/PE13101

>  <PRICE>  (195) 
EUR 80/10 mg

>  <Similarity score>  (195) 
0.18

$$$$

     RDKit          2D

 28 32  0  0  0  0  0  0  0  0999 V2000
    4.3250   -4.6042    0.0000 C   0  0  0  0  0  0  0  0  0  0  0  0
    5.6292   -4.3417    0.0000 C   0  0  0  0  0  0  0  0  0  0  0  0
    3.2667   -3.8167    0.0000 O   0  0  0  0  0  0  0  0  0  0  0  0
    3.9167   -5.8750    0.0000 C   0  0  0  0  0  0  0  0  0  0  0  0
    6.0500   -3.0750    0.0000 N   0  0  0  0  0  0  0  0  0  0  0  0
    2.6000   -5.8750    0.0000 C   0  0  0  0  0  0  0  0  0  0  0  0
    9.0667   -1.2500    0.0000 C   0  0  0  0  0  0  0  0  0  0  0  0
    2.1667   -4.6042    0.0000 C   0  0  0  0  0  0  0  0  0  0  0  0
    7.7667   -1.5500    0.0000 C   0  0  0  0  0  0  0  0  0  0  0  0
    6.5167   -5.3167    0.0000 N   0  0  0  0  0  0  0  0  0  0  0  0
    7.3667   -2.7917    0.0000 C   0  0  0  0  0  0  0  0  0  0  0  0
    9.9500   -2.2500    0.0000 N   0  0  0  0  0  0  0  0  0  0  0  0
    4.8000   -6.8667    0.0000 N   0  0  0  0  0  0  0  0  0  0  0  0
    6.1000   -6.5917    0.0000 C   0  0  0  0  0  0  0  0  0  0  0  0
    9.4792   -0.0000    0.0000 O   0  0  0  0  0  0  0  0  0  0  0  0
   11.2417   -1.9667    0.0000 C   0  0  0  0  0  0  0  0  0  0  0  0
    5.1667   -2.0917    0.0000 C   0  0  0  0  0  0  0  0  0  0  0  0
    6.8750   -0.5500    0.0000 C   0  0  0  0  0  0  0  0  0  0  0  0
    1.7000   -6.8667    0.0000 C   0  0  0  0  0  0  0  0  0  0  0  0
    0.8750   -4.3167    0.0000 C   0  0  0  0  0  0  0  0  0  0  0  0
    5.5750   -0.8167    0.0000 C   0  0  0  0  0  0  0  0  0  0  0  0
   11.6750   -0.7167    0.0000 C   0  0  0  0  0  0  0  0  0  0  0  0
   12.1250   -2.9750    0.0000 C   0  0  0  0  0  0  0  0  0  0  0  0
    0.4000   -6.5917    0.0000 C   0  0  0  0  0  0  0  0  0  0  0  0
    0.0000   -5.3167    0.0000 C   0  0  0  0  0  0  0  0  0  0  0  0
   13.4250   -2.7000    0.0000 C   0  0  0  0  0  0  0  0  0  0  0  0
   12.9542   -0.4500    0.0000 C   0  0  0  0  0  0  0  0  0  0  0  0
   13.8500   -1.4292    0.0000 C   0  0  0  0  0  0  0  0  0  0  0  0
  1  2  2  0
  1  3  1  0
  1  4  1  0
  2  5  1  0
  4  6  1  0
  7  9  1  0
  3  8  1  0
  9 11  1  0
  2 10  1  0
  5 11  1  0
  7 12  1  0
  4 13  2  0
 13 14  1  0
  7 15  2  0
 12 16  1  0
  5 17  1  0
 18 21  1  0
  6 19  1  0
  8 20  1  0
 17 21  1  0
 16 22  1  0
 16 23  2  0
 19 24  2  0
 20 25  2  0
 23 26  1  0
 22 27  2  0
 26 28  2  0
  6  8  2  0
 10 14  2  0
 24 25  1  0
  9 18  1  0
 27 28  1  0
M  END
>  <MOLFORMULA>  (196) 
C22 H20 N4 O2

>  <MOLWEIGHT>  (196) 
3.724260000000000e+002

>  <IDNUMBER>  (196) 
AT-687/PE16748

>  <PRICE>  (196) 
EUR 80/10 mg

>  <Similarity score>  (196) 
0.18

$$$$

     RDKit          2D

 37 41  0  0  0  0  0  0  0  0999 V2000
    8.6375   -5.7625    0.0000 S   0  0  0  0  0  0  0  0  0  0  0  0
    7.3125   -5.7625    0.0000 C   0  0  0  0  0  0  0  0  0  0  0  0
    6.6292   -4.6042    0.0000 C   0  0  0  0  0  0  0  0  0  0  0  0
    7.3125   -3.4542    0.0000 N   0  0  0  0  0  0  0  0  0  0  0  0
    5.3000   -4.6042    0.0000 C   0  0  0  0  0  0  0  0  0  0  0  0
    9.9625   -5.7625    0.0000 C   0  0  0  0  0  0  0  0  0  0  0  0
    5.3000   -6.9042    0.0000 N   0  0  0  0  0  0  0  0  0  0  0  0
    6.6292   -6.9042    0.0000 C   0  0  0  0  0  0  0  0  0  0  0  0
    4.6417   -5.7625    0.0000 C   0  0  0  0  0  0  0  0  0  0  0  0
   10.6167   -4.6042    0.0000 C   0  0  0  0  0  0  0  0  0  0  0  0
    0.0000   -4.6042    0.0000 N   0  0  0  0  0  0  0  0  0  0  0  0
   11.9417   -4.6042    0.0000 C   0  0  0  0  0  0  0  0  0  0  0  0
    8.6375   -4.4375    0.0000 O   0  0  0  0  0  0  0  0  0  0  0  0
    8.6375   -7.0875    0.0000 O   0  0  0  0  0  0  0  0  0  0  0  0
    4.6417   -3.4542    0.0000 C   0  0  0  0  0  0  0  0  0  0  0  0
    1.3250   -4.6042    0.0000 C   0  0  0  0  0  0  0  0  0  0  0  0
    3.3042   -1.1542    0.0000 N   0  0  0  0  0  0  0  0  0  0  0  0
    6.6292   -2.3167    0.0000 C   0  0  0  0  0  0  0  0  0  0  0  0
    5.3000   -2.3167    0.0000 C   0  0  0  0  0  0  0  0  0  0  0  0
   12.6292   -5.7625    0.0000 C   0  0  0  0  0  0  0  0  0  0  0  0
    3.3042   -5.7625    0.0000 C   0  0  0  0  0  0  0  0  0  0  0  0
   10.6167   -6.9042    0.0000 C   0  0  0  0  0  0  0  0  0  0  0  0
   11.9417   -6.9042    0.0000 C   0  0  0  0  0  0  0  0  0  0  0  0
    2.6500   -4.6042    0.0000 C   0  0  0  0  0  0  0  0  0  0  0  0
    4.6417   -1.1542    0.0000 C   0  0  0  0  0  0  0  0  0  0  0  0
    0.6542   -1.1542    0.0000 O   0  0  0  0  0  0  0  0  0  0  0  0
   12.6292   -3.4542    0.0000 Cl  0  0  0  0  0  0  0  0  0  0  0  0
    3.3042   -3.4542    0.0000 C   0  0  0  0  0  0  0  0  0  0  0  0
    8.6375   -3.4542    0.0000 C   0  0  0  0  0  0  0  0  0  0  0  0
   13.9542   -5.7625    0.0000 F   0  0  0  0  0  0  0  0  0  0  0  0
    2.6500   -0.0000    0.0000 C   0  0  0  0  0  0  0  0  0  0  0  0
    2.6500   -2.3167    0.0000 C   0  0  0  0  0  0  0  0  0  0  0  0
    1.3250   -2.3167    0.0000 C   0  0  0  0  0  0  0  0  0  0  0  0
    1.3250   -0.0000    0.0000 C   0  0  0  0  0  0  0  0  0  0  0  0
    7.3125   -1.1542    0.0000 C   0  0  0  0  0  0  0  0  0  0  0  0
    9.2917   -2.3167    0.0000 C   0  0  0  0  0  0  0  0  0  0  0  0
    8.6375   -1.1542    0.0000 C   0  0  0  0  0  0  0  0  0  0  0  0
  1  2  1  0
  2  3  2  0
  3  4  1  0
  3  5  1  0
  1  6  1  0
  7  8  2  0
  2  8  1  0
  7  9  1  0
  6 10  1  0
 11 16  3  0
 10 12  2  0
  1 13  2  0
  1 14  2  0
  5 15  2  0
 16 24  1  0
 17 25  1  0
  4 18  1  0
 18 19  1  0
 20 23  2  0
  9 21  2  0
  6 22  2  0
 22 23  1  0
 21 24  1  0
 19 25  1  0
 26 33  1  0
 12 27  1  0
 15 28  1  0
  4 29  1  0
 20 30  1  0
 17 31  1  0
 17 32  1  0
 32 33  1  0
 31 34  1  0
 18 35  1  0
 29 36  1  0
 36 37  1  0
 12 20  1  0
  5  9  1  0
 24 28  2  0
 35 37  1  0
 26 34  1  0
M  END
>  <MOLFORMULA>  (197) 
C27 H28 Cl F N4 O3 S

>  <MOLWEIGHT>  (197) 
5.430602000000000e+002

>  <IDNUMBER>  (197) 
AT-687/NB06789

>  <PRICE>  (197) 
EUR 80/10 mg

>  <Similarity score>  (197) 
0.18

$$$$

     RDKit          2D

 33 37  0  0  0  0  0  0  0  0999 V2000
   -3.3208    2.1875    0.0000 C   0  0  0  0  0  0  0  0  0  0  0  0
   -3.3125    1.3583    0.0000 C   0  0  0  0  0  0  0  0  0  0  0  0
   -1.8833    2.1875    0.0000 C   0  0  0  0  0  0  0  0  0  0  0  0
   -2.6083    2.6083    0.0000 N   0  0  0  0  0  0  0  0  0  0  0  0
   -1.8833    1.3583    0.0000 N   0  0  0  0  0  0  0  0  0  0  0  0
   -4.1000    2.4333    0.0000 C   0  0  0  0  0  0  0  0  0  0  0  0
   -2.6000    0.9458    0.0000 C   0  0  0  0  0  0  0  0  0  0  0  0
   -4.0958    1.1000    0.0000 S   0  0  0  0  0  0  0  0  0  0  0  0
   -1.1708    2.6000    0.0000 N   0  0  0  0  0  0  0  0  0  0  0  0
   -4.5833    1.7708    0.0000 C   0  0  0  0  0  0  0  0  0  0  0  0
    0.9750    2.1750    0.0000 C   0  0  0  0  0  0  0  0  0  0  0  0
    0.2542    2.5958    0.0000 C   0  0  0  0  0  0  0  0  0  0  0  0
   -4.3625    3.2208    0.0000 C   0  0  0  0  0  0  0  0  0  0  0  0
   -0.4583    2.1833    0.0000 C   0  0  0  0  0  0  0  0  0  0  0  0
    1.6917    2.5875    0.0000 N   0  0  0  0  0  0  0  0  0  0  0  0
   -2.6000    0.1208    0.0000 O   0  0  0  0  0  0  0  0  0  0  0  0
    0.9667    1.3500    0.0000 O   0  0  0  0  0  0  0  0  0  0  0  0
   -5.1708    3.3958    0.0000 C   0  0  0  0  0  0  0  0  0  0  0  0
   -5.4333    4.1667    0.0000 C   0  0  0  0  0  0  0  0  0  0  0  0
   -1.1708    3.4208    0.0000 C   0  0  0  0  0  0  0  0  0  0  0  0
    2.4042    2.1708    0.0000 C   0  0  0  0  0  0  0  0  0  0  0  0
    0.2625    3.4208    0.0000 C   0  0  0  0  0  0  0  0  0  0  0  0
   -3.8083    3.8375    0.0000 C   0  0  0  0  0  0  0  0  0  0  0  0
   -6.2167    4.3375    0.0000 O   0  0  0  0  0  0  0  0  0  0  0  0
   -0.4583    3.8333    0.0000 C   0  0  0  0  0  0  0  0  0  0  0  0
   -4.0708    4.6167    0.0000 C   0  0  0  0  0  0  0  0  0  0  0  0
   -4.8750    4.7792    0.0000 C   0  0  0  0  0  0  0  0  0  0  0  0
   -6.7792    3.7333    0.0000 C   0  0  0  0  0  0  0  0  0  0  0  0
    2.4042    1.3458    0.0000 C   0  0  0  0  0  0  0  0  0  0  0  0
    3.1292    2.5833    0.0000 C   0  0  0  0  0  0  0  0  0  0  0  0
    3.8375    2.1583    0.0000 C   0  0  0  0  0  0  0  0  0  0  0  0
    3.1125    0.9250    0.0000 C   0  0  0  0  0  0  0  0  0  0  0  0
    3.8375    1.3333    0.0000 C   0  0  0  0  0  0  0  0  0  0  0  0
  1  2  2  0
  3  4  2  0
  1  4  1  0
  3  5  1  0
  1  6  1  0
  2  7  1  0
  2  8  1  0
  3  9  1  0
  6 10  2  0
 11 12  1  0
 12 14  1  0
  6 13  1  0
  9 14  1  0
 11 15  1  0
  7 16  2  0
 11 17  2  0
 13 18  2  0
 18 19  1  0
  9 20  1  0
 15 21  1  0
 22 25  1  0
 13 23  1  0
 19 24  1  0
 20 25  1  0
 23 26  2  0
 26 27  1  0
 24 28  1  0
 21 29  1  0
 21 30  1  0
 30 31  1  0
 29 32  1  0
 31 33  1  0
  8 10  1  0
  5  7  1  0
 19 27  2  0
 12 22  1  0
 32 33  1  0
M  END
>  <MOLFORMULA>  (198) 
C25 H30 N4 O3 S

>  <MOLWEIGHT>  (198) 
4.666030000000000e+002

>  <IDNUMBER>  (198) 
AT-687/PE26003

>  <PRICE>  (198) 
EUR 80/10 mg

>  <Similarity score>  (198) 
0.18

$$$$

     RDKit          2D

 27 30  0  0  0  0  0  0  0  0999 V2000
   -0.2125   -0.2875    0.0000 C   0  0  0  0  0  0  0  0  0  0  0  0
   -0.3833   -1.2708    0.0000 C   0  0  0  0  0  0  0  0  0  0  0  0
    0.6833    0.1583    0.0000 C   0  0  0  0  0  0  0  0  0  0  0  0
   -1.0958    0.1792    0.0000 C   0  0  0  0  0  0  0  0  0  0  0  0
    0.7500    1.1542    0.0000 C   0  0  0  0  0  0  0  0  0  0  0  0
   -1.3708   -1.4167    0.0000 C   0  0  0  0  0  0  0  0  0  0  0  0
   -1.8125   -0.5167    0.0000 N   0  0  0  0  0  0  0  0  0  0  0  0
    0.2375   -2.0583    0.0000 C   0  0  0  0  0  0  0  0  0  0  0  0
   -0.0792    1.7083    0.0000 C   0  0  0  0  0  0  0  0  0  0  0  0
   -1.7417   -2.3417    0.0000 C   0  0  0  0  0  0  0  0  0  0  0  0
    1.6458    1.5958    0.0000 C   0  0  0  0  0  0  0  0  0  0  0  0
   -0.1333   -2.9875    0.0000 C   0  0  0  0  0  0  0  0  0  0  0  0
   -0.0167    2.7083    0.0000 C   0  0  0  0  0  0  0  0  0  0  0  0
   -1.1208   -3.1292    0.0000 C   0  0  0  0  0  0  0  0  0  0  0  0
    0.8833    3.1500    0.0000 C   0  0  0  0  0  0  0  0  0  0  0  0
    1.5167   -0.4000    0.0000 N   0  0  0  0  0  0  0  0  0  0  0  0
    1.7125    2.5958    0.0000 C   0  0  0  0  0  0  0  0  0  0  0  0
    2.4125    0.0417    0.0000 C   0  0  0  0  0  0  0  0  0  0  0  0
    0.4875   -3.7708    0.0000 O   0  0  0  0  0  0  0  0  0  0  0  0
   -0.8458    3.2625    0.0000 O   0  0  0  0  0  0  0  0  0  0  0  0
   -1.4917   -4.0583    0.0000 O   0  0  0  0  0  0  0  0  0  0  0  0
    0.9458    4.1458    0.0000 O   0  0  0  0  0  0  0  0  0  0  0  0
    2.4792    1.0417    0.0000 C   0  0  0  0  0  0  0  0  0  0  0  0
    0.1167    4.7000    0.0000 C   0  0  0  0  0  0  0  0  0  0  0  0
   -2.4833   -4.2000    0.0000 C   0  0  0  0  0  0  0  0  0  0  0  0
   -1.7458    2.8208    0.0000 C   0  0  0  0  0  0  0  0  0  0  0  0
    0.1167   -4.7000    0.0000 C   0  0  0  0  0  0  0  0  0  0  0  0
  1  2  1  0
  1  3  1  0
  1  4  2  0
  3  5  1  0
  2  6  2  0
  4  7  1  0
  2  8  1  0
  5  9  1  0
  6 10  1  0
  5 11  2  0
  8 12  2  0
  9 13  2  0
 12 14  1  0
 15 17  2  0
  3 16  2  0
 11 17  1  0
 16 18  1  0
 12 19  1  0
 13 20  1  0
 14 21  1  0
 15 22  1  0
 18 23  2  0
 22 24  1  0
 21 25  1  0
 20 26  1  0
 19 27  1  0
  6  7  1  0
 11 23  1  0
 10 14  2  0
 13 15  1  0
M  END
>  <MOLFORMULA>  (199) 
C21 H20 N2 O4

>  <MOLWEIGHT>  (199) 
3.643990000000000e+002

>  <IDNUMBER>  (199) 
AN-153/I289756

>  <PRICE>  (199) 
EUR 130/10 mg

>  <Similarity score>  (199) 
0.18

$$$$

     RDKit          2D

 35 39  0  0  0  0  0  0  0  0999 V2000
   -3.3208    2.1875    0.0000 C   0  0  0  0  0  0  0  0  0  0  0  0
   -3.3125    1.3583    0.0000 C   0  0  0  0  0  0  0  0  0  0  0  0
   -1.8833    2.1875    0.0000 C   0  0  0  0  0  0  0  0  0  0  0  0
   -2.6083    2.6083    0.0000 N   0  0  0  0  0  0  0  0  0  0  0  0
   -1.8833    1.3583    0.0000 N   0  0  0  0  0  0  0  0  0  0  0  0
   -4.1000    2.4333    0.0000 C   0  0  0  0  0  0  0  0  0  0  0  0
   -2.6000    0.9458    0.0000 C   0  0  0  0  0  0  0  0  0  0  0  0
   -4.0958    1.1000    0.0000 S   0  0  0  0  0  0  0  0  0  0  0  0
   -1.1708    2.6000    0.0000 N   0  0  0  0  0  0  0  0  0  0  0  0
   -4.5833    1.7708    0.0000 C   0  0  0  0  0  0  0  0  0  0  0  0
    0.9750    2.1750    0.0000 C   0  0  0  0  0  0  0  0  0  0  0  0
    0.2542    2.5958    0.0000 C   0  0  0  0  0  0  0  0  0  0  0  0
   -4.3625    3.2208    0.0000 C   0  0  0  0  0  0  0  0  0  0  0  0
   -0.4583    2.1833    0.0000 C   0  0  0  0  0  0  0  0  0  0  0  0
    1.6917    2.5875    0.0000 N   0  0  0  0  0  0  0  0  0  0  0  0
   -2.6000    0.1208    0.0000 O   0  0  0  0  0  0  0  0  0  0  0  0
    0.9667    1.3500    0.0000 O   0  0  0  0  0  0  0  0  0  0  0  0
   -5.1708    3.3958    0.0000 C   0  0  0  0  0  0  0  0  0  0  0  0
   -5.4333    4.1667    0.0000 C   0  0  0  0  0  0  0  0  0  0  0  0
   -1.1708    3.4208    0.0000 C   0  0  0  0  0  0  0  0  0  0  0  0
    2.4042    2.1708    0.0000 C   0  0  0  0  0  0  0  0  0  0  0  0
    0.2625    3.4208    0.0000 C   0  0  0  0  0  0  0  0  0  0  0  0
   -3.8083    3.8375    0.0000 C   0  0  0  0  0  0  0  0  0  0  0  0
   -6.2167    4.3375    0.0000 O   0  0  0  0  0  0  0  0  0  0  0  0
   -0.4583    3.8333    0.0000 C   0  0  0  0  0  0  0  0  0  0  0  0
   -4.0708    4.6167    0.0000 C   0  0  0  0  0  0  0  0  0  0  0  0
   -4.8750    4.7792    0.0000 C   0  0  0  0  0  0  0  0  0  0  0  0
   -6.7792    3.7333    0.0000 C   0  0  0  0  0  0  0  0  0  0  0  0
    2.2917    1.3583    0.0000 C   0  0  0  0  0  0  0  0  0  0  0  0
    3.0667    2.6708    0.0000 C   0  0  0  0  0  0  0  0  0  0  0  0
    2.7917    0.6958    0.0000 C   0  0  0  0  0  0  0  0  0  0  0  0
    3.8875    2.5583    0.0000 C   0  0  0  0  0  0  0  0  0  0  0  0
    4.2667    1.0833    0.0000 C   0  0  0  0  0  0  0  0  0  0  0  0
    3.6167    0.5833    0.0000 C   0  0  0  0  0  0  0  0  0  0  0  0
    4.3875    1.9000    0.0000 C   0  0  0  0  0  0  0  0  0  0  0  0
  1  2  2  0
  3  4  2  0
  1  4  1  0
  3  5  1  0
  1  6  1  0
  2  7  1  0
  2  8  1  0
  3  9  1  0
  6 10  2  0
 11 12  1  0
 12 14  1  0
  6 13  1  0
  9 14  1  0
 11 15  1  0
  7 16  2  0
 11 17  2  0
 13 18  2  0
 18 19  1  0
  9 20  1  0
 15 21  1  0
 22 25  1  0
 13 23  1  0
 19 24  1  0
 20 25  1  0
 23 26  2  0
 26 27  1  0
 24 28  1  0
 21 29  1  0
 21 30  1  0
 29 31  1  0
 30 32  1  0
 33 35  1  0
 31 34  1  0
 32 35  1  0
  8 10  1  0
  5  7  1  0
 19 27  2  0
 12 22  1  0
 33 34  1  0
M  END
>  <MOLFORMULA>  (200) 
C27 H34 N4 O3 S

>  <MOLWEIGHT>  (200) 
4.946566000000000e+002

>  <IDNUMBER>  (200) 
AT-687/PE26005

>  <PRICE>  (200) 
EUR 80/10 mg

>  <Similarity score>  (200) 
0.18

$$$$

     RDKit          2D

 29 32  0  0  0  0  0  0  0  0999 V2000
    1.8542   -2.8875    0.0000 C   0  0  0  0  0  0  0  0  0  0  0  0
    2.5750   -3.3000    0.0000 C   0  0  0  0  0  0  0  0  0  0  0  0
    1.1417   -3.3000    0.0000 N   0  0  0  0  0  0  0  0  0  0  0  0
    1.8667   -2.0625    0.0000 N   0  0  0  0  0  0  0  0  0  0  0  0
    1.8542   -4.5375    0.0000 N   0  0  0  0  0  0  0  0  0  0  0  0
    2.5667   -4.1292    0.0000 C   0  0  0  0  0  0  0  0  0  0  0  0
    1.1667    0.8250    0.0000 C   0  0  0  0  0  0  0  0  0  0  0  0
    1.1375   -4.1167    0.0000 C   0  0  0  0  0  0  0  0  0  0  0  0
    1.1667    1.6500    0.0000 C   0  0  0  0  0  0  0  0  0  0  0  0
    1.8750    0.4125    0.0000 N   0  0  0  0  0  0  0  0  0  0  0  0
    1.8875    2.8958    0.0000 C   0  0  0  0  0  0  0  0  0  0  0  0
    1.8875    2.0625    0.0000 C   0  0  0  0  0  0  0  0  0  0  0  0
    1.1542   -1.6500    0.0000 C   0  0  0  0  0  0  0  0  0  0  0  0
    2.5750   -1.6542    0.0000 C   0  0  0  0  0  0  0  0  0  0  0  0
    1.1667    3.3000    0.0000 C   0  0  0  0  0  0  0  0  0  0  0  0
    0.4500    0.4125    0.0000 O   0  0  0  0  0  0  0  0  0  0  0  0
    0.4542    2.0625    0.0000 C   0  0  0  0  0  0  0  0  0  0  0  0
    0.4542    2.8958    0.0000 C   0  0  0  0  0  0  0  0  0  0  0  0
    1.8750   -0.4125    0.0000 C   0  0  0  0  0  0  0  0  0  0  0  0
    2.5792   -0.8250    0.0000 C   0  0  0  0  0  0  0  0  0  0  0  0
    1.1542   -0.8250    0.0000 C   0  0  0  0  0  0  0  0  0  0  0  0
    2.5917    3.3000    0.0000 F   0  0  0  0  0  0  0  0  0  0  0  0
    3.3000   -2.9000    0.0000 C   0  0  0  0  0  0  0  0  0  0  0  0
    1.1667    4.1167    0.0000 O   0  0  0  0  0  0  0  0  0  0  0  0
    3.2792   -4.5500    0.0000 C   0  0  0  0  0  0  0  0  0  0  0  0
    0.4250   -4.5292    0.0000 C   0  0  0  0  0  0  0  0  0  0  0  0
    1.8750    4.5292    0.0000 C   0  0  0  0  0  0  0  0  0  0  0  0
    4.0000   -3.3167    0.0000 C   0  0  0  0  0  0  0  0  0  0  0  0
    3.9917   -4.1417    0.0000 C   0  0  0  0  0  0  0  0  0  0  0  0
  1  2  1  0
  1  3  2  0
  1  4  1  0
  5  8  2  0
  2  6  2  0
  7 10  1  0
  3  8  1  0
  7  9  1  0
 10 19  1  0
 11 12  1  0
  9 12  2  0
  4 13  1  0
  4 14  1  0
 15 18  1  0
  7 16  2  0
  9 17  1  0
 17 18  2  0
 19 20  1  0
 14 20  1  0
 13 21  1  0
 11 22  1  0
  2 23  1  0
 15 24  1  0
  6 25  1  0
  8 26  1  0
 24 27  1  0
 23 28  1  0
 28 29  1  0
  5  6  1  0
 19 21  1  0
 25 29  1  0
 11 15  2  0
M  END
>  <MOLFORMULA>  (201) 
C22 H27 F N4 O2

>  <MOLWEIGHT>  (201) 
3.984793000000000e+002

>  <IDNUMBER>  (201) 
AT-687/SK01695

>  <PRICE>  (201) 
EUR 80/10 mg

>  <Similarity score>  (201) 
0.26

$$$$

     RDKit          2D

 28 31  0  0  0  0  0  0  0  0999 V2000
    2.6250    2.3125    0.0000 C   0  0  0  0  0  0  0  0  0  0  0  0
    3.3375   -1.4000    0.0000 C   0  0  0  0  0  0  0  0  0  0  0  0
    1.9042    2.7250    0.0000 C   0  0  0  0  0  0  0  0  0  0  0  0
    3.3375    2.7250    0.0000 N   0  0  0  0  0  0  0  0  0  0  0  0
    3.3375   -2.2250    0.0000 C   0  0  0  0  0  0  0  0  0  0  0  0
    2.6250    1.4875    0.0000 N   0  0  0  0  0  0  0  0  0  0  0  0
    2.6250    3.9458    0.0000 N   0  0  0  0  0  0  0  0  0  0  0  0
    1.9042    3.5458    0.0000 C   0  0  0  0  0  0  0  0  0  0  0  0
    3.3375    3.5333    0.0000 C   0  0  0  0  0  0  0  0  0  0  0  0
    2.6292   -0.9875    0.0000 N   0  0  0  0  0  0  0  0  0  0  0  0
    4.0542   -0.9875    0.0000 O   0  0  0  0  0  0  0  0  0  0  0  0
    2.6292   -2.6375    0.0000 C   0  0  0  0  0  0  0  0  0  0  0  0
    4.0625   -2.6375    0.0000 C   0  0  0  0  0  0  0  0  0  0  0  0
    3.3375    1.0750    0.0000 C   0  0  0  0  0  0  0  0  0  0  0  0
    1.9042    1.0750    0.0000 C   0  0  0  0  0  0  0  0  0  0  0  0
    2.6292   -0.1542    0.0000 C   0  0  0  0  0  0  0  0  0  0  0  0
    1.9042    0.2500    0.0000 C   0  0  0  0  0  0  0  0  0  0  0  0
    3.3375    0.2500    0.0000 C   0  0  0  0  0  0  0  0  0  0  0  0
    1.9167   -2.2250    0.0000 F   0  0  0  0  0  0  0  0  0  0  0  0
    4.7750   -2.2250    0.0000 F   0  0  0  0  0  0  0  0  0  0  0  0
    1.1917    2.3125    0.0000 C   0  0  0  0  0  0  0  0  0  0  0  0
    1.2000    3.9583    0.0000 C   0  0  0  0  0  0  0  0  0  0  0  0
    4.0542    3.9458    0.0000 C   0  0  0  0  0  0  0  0  0  0  0  0
    3.3375   -3.8750    0.0000 C   0  0  0  0  0  0  0  0  0  0  0  0
    2.6292   -3.4625    0.0000 C   0  0  0  0  0  0  0  0  0  0  0  0
    4.0625   -3.4625    0.0000 C   0  0  0  0  0  0  0  0  0  0  0  0
    0.4792    2.7333    0.0000 C   0  0  0  0  0  0  0  0  0  0  0  0
    0.4875    3.5500    0.0000 C   0  0  0  0  0  0  0  0  0  0  0  0
  2 10  1  0
  1  3  1  0
  1  4  2  0
  2  5  1  0
  1  6  1  0
  7  9  2  0
  3  8  2  0
  4  9  1  0
 10 16  1  0
  2 11  2  0
  5 12  1  0
  5 13  2  0
  6 14  1  0
  6 15  1  0
 16 17  1  0
 15 17  1  0
 14 18  1  0
 12 19  1  0
 13 20  1  0
  3 21  1  0
  8 22  1  0
  9 23  1  0
 24 26  2  0
 12 25  2  0
 13 26  1  0
 21 27  1  0
 27 28  1  0
  7  8  1  0
 16 18  1  0
 22 28  1  0
 24 25  1  0
M  END
>  <MOLFORMULA>  (202) 
C21 H24 F2 N4 O

>  <MOLWEIGHT>  (202) 
3.864436000000000e+002

>  <IDNUMBER>  (202) 
AT-687/SK01679

>  <PRICE>  (202) 
EUR 80/10 mg

>  <Similarity score>  (202) 
0.25

$$$$

     RDKit          2D

 33 37  0  0  0  0  0  0  0  0999 V2000
    3.9917   -1.3792    0.0000 C   0  0  0  0  0  0  0  0  0  0  0  0
    7.5625    1.5083    0.0000 C   0  0  0  0  0  0  0  0  0  0  0  0
    3.2750   -0.9667    0.0000 C   0  0  0  0  0  0  0  0  0  0  0  0
    2.5625   -1.3792    0.0000 O   0  0  0  0  0  0  0  0  0  0  0  0
    7.5625    2.3333    0.0000 C   0  0  0  0  0  0  0  0  0  0  0  0
    3.9917   -2.2042    0.0000 C   0  0  0  0  0  0  0  0  0  0  0  0
    4.7042   -0.9667    0.0000 C   0  0  0  0  0  0  0  0  0  0  0  0
    8.2792    1.0958    0.0000 N   0  0  0  0  0  0  0  0  0  0  0  0
    6.8500    1.0958    0.0000 N   0  0  0  0  0  0  0  0  0  0  0  0
    2.5667   -2.2042    0.0000 C   0  0  0  0  0  0  0  0  0  0  0  0
    8.9875    2.3333    0.0000 N   0  0  0  0  0  0  0  0  0  0  0  0
    8.2792    2.7458    0.0000 C   0  0  0  0  0  0  0  0  0  0  0  0
    3.2750   -2.6167    0.0000 C   0  0  0  0  0  0  0  0  0  0  0  0
    8.9875    1.5083    0.0000 C   0  0  0  0  0  0  0  0  0  0  0  0
    4.7042   -0.1417    0.0000 N   0  0  0  0  0  0  0  0  0  0  0  0
    3.2750   -0.1417    0.0000 O   0  0  0  0  0  0  0  0  0  0  0  0
    5.4167   -1.3792    0.0000 O   0  0  0  0  0  0  0  0  0  0  0  0
    6.8500    0.2708    0.0000 C   0  0  0  0  0  0  0  0  0  0  0  0
    6.1292    1.5083    0.0000 C   0  0  0  0  0  0  0  0  0  0  0  0
    1.8542   -2.6167    0.0000 C   0  0  0  0  0  0  0  0  0  0  0  0
    5.4167    0.2708    0.0000 C   0  0  0  0  0  0  0  0  0  0  0  0
    6.1292   -0.1417    0.0000 C   0  0  0  0  0  0  0  0  0  0  0  0
    5.4167    1.0958    0.0000 C   0  0  0  0  0  0  0  0  0  0  0  0
    6.8500    2.7500    0.0000 C   0  0  0  0  0  0  0  0  0  0  0  0
    1.1292   -2.2125    0.0000 O   0  0  0  0  0  0  0  0  0  0  0  0
    3.2750   -3.4417    0.0000 C   0  0  0  0  0  0  0  0  0  0  0  0
    8.2792    3.5583    0.0000 C   0  0  0  0  0  0  0  0  0  0  0  0
    9.7042    1.0958    0.0000 C   0  0  0  0  0  0  0  0  0  0  0  0
    2.5750   -3.8542    0.0000 C   0  0  0  0  0  0  0  0  0  0  0  0
    1.8542   -3.4417    0.0000 C   0  0  0  0  0  0  0  0  0  0  0  0
    0.4250   -2.6167    0.0000 C   0  0  0  0  0  0  0  0  0  0  0  0
    6.8542    3.5708    0.0000 C   0  0  0  0  0  0  0  0  0  0  0  0
    7.5792    3.9833    0.0000 C   0  0  0  0  0  0  0  0  0  0  0  0
  2  9  1  0
  1  3  1  0
  3  4  1  0
  2  5  1  0
  1  6  2  0
  1  7  1  0
  2  8  2  0
  9 19  1  0
 10 13  2  0
 11 14  2  0
  5 12  2  0
  6 13  1  0
  8 14  1  0
  7 15  1  0
  3 16  2  0
  7 17  2  0
 18 22  1  0
 19 23  1  0
 10 20  1  0
 15 21  1  0
 21 22  1  0
 21 23  1  0
  5 24  1  0
 20 25  1  0
 13 26  1  0
 12 27  1  0
 14 28  1  0
 26 29  2  0
 29 30  1  0
 25 31  1  0
 24 32  1  0
 32 33  1  0
  4 10  1  0
  9 18  1  0
 20 30  2  0
 11 12  1  0
 27 33  1  0
M  END
>  <MOLFORMULA>  (203) 
C25 H28 N4 O4

>  <MOLWEIGHT>  (203) 
4.485202000000000e+002

>  <IDNUMBER>  (203) 
AT-687/SK01662

>  <PRICE>  (203) 
EUR 80/10 mg

>  <Similarity score>  (203) 
0.25

$$$$

     RDKit          2D

 29 32  0  0  0  0  0  0  0  0999 V2000
    6.1375    0.8583    0.0000 C   0  0  0  0  0  0  0  0  0  0  0  0
    6.1375    1.6833    0.0000 C   0  0  0  0  0  0  0  0  0  0  0  0
    6.8542    0.4458    0.0000 N   0  0  0  0  0  0  0  0  0  0  0  0
    5.4167    0.4458    0.0000 N   0  0  0  0  0  0  0  0  0  0  0  0
    3.2792   -1.6292    0.0000 C   0  0  0  0  0  0  0  0  0  0  0  0
    7.5667    1.6833    0.0000 N   0  0  0  0  0  0  0  0  0  0  0  0
    6.8542    2.0958    0.0000 C   0  0  0  0  0  0  0  0  0  0  0  0
    7.5667    0.8583    0.0000 C   0  0  0  0  0  0  0  0  0  0  0  0
    3.2792   -0.7917    0.0000 N   0  0  0  0  0  0  0  0  0  0  0  0
    2.5667   -2.0292    0.0000 C   0  0  0  0  0  0  0  0  0  0  0  0
    3.9917   -2.0417    0.0000 O   0  0  0  0  0  0  0  0  0  0  0  0
    4.7000    0.8583    0.0000 C   0  0  0  0  0  0  0  0  0  0  0  0
    5.4167   -0.3792    0.0000 C   0  0  0  0  0  0  0  0  0  0  0  0
    4.0000   -0.3792    0.0000 C   0  0  0  0  0  0  0  0  0  0  0  0
    4.7000   -0.7917    0.0000 C   0  0  0  0  0  0  0  0  0  0  0  0
    4.0000    0.4458    0.0000 C   0  0  0  0  0  0  0  0  0  0  0  0
    1.8542   -1.6167    0.0000 C   0  0  0  0  0  0  0  0  0  0  0  0
    5.4167    2.0958    0.0000 C   0  0  0  0  0  0  0  0  0  0  0  0
    6.8542    2.9083    0.0000 C   0  0  0  0  0  0  0  0  0  0  0  0
    8.2792    0.4458    0.0000 C   0  0  0  0  0  0  0  0  0  0  0  0
    2.5667   -2.8667    0.0000 C   0  0  0  0  0  0  0  0  0  0  0  0
    1.1375   -2.0292    0.0000 C   0  0  0  0  0  0  0  0  0  0  0  0
    1.8542   -0.7917    0.0000 C   0  0  0  0  0  0  0  0  0  0  0  0
    5.4292    2.9208    0.0000 C   0  0  0  0  0  0  0  0  0  0  0  0
    1.8542   -3.2667    0.0000 C   0  0  0  0  0  0  0  0  0  0  0  0
    6.1417    3.3208    0.0000 C   0  0  0  0  0  0  0  0  0  0  0  0
    0.4250   -1.6042    0.0000 C   0  0  0  0  0  0  0  0  0  0  0  0
    1.1417   -0.3792    0.0000 C   0  0  0  0  0  0  0  0  0  0  0  0
    0.4292   -0.7875    0.0000 C   0  0  0  0  0  0  0  0  0  0  0  0
  1  2  1  0
  1  3  2  0
  1  4  1  0
  5  9  1  0
  6  8  2  0
  2  7  2  0
  3  8  1  0
  9 14  1  0
  5 10  1  0
  5 11  2  0
  4 12  1  0
  4 13  1  0
 14 15  1  0
 13 15  1  0
 12 16  1  0
 10 17  1  0
  2 18  1  0
  7 19  1  0
  8 20  1  0
 10 21  1  0
 17 22  2  0
 17 23  1  0
 18 24  1  0
 21 25  1  0
 24 26  1  0
 22 27  1  0
 23 28  2  0
 28 29  1  0
  6  7  1  0
 14 16  1  0
 19 26  1  0
 27 29  2  0
M  END
>  <MOLFORMULA>  (204) 
C24 H32 N4 O

>  <MOLWEIGHT>  (204) 
3.925438000000000e+002

>  <IDNUMBER>  (204) 
AT-687/SK01690

>  <PRICE>  (204) 
EUR 80/10 mg

>  <Similarity score>  (204) 
0.24

$$$$

     RDKit          2D

 31 35  0  0  0  0  0  0  0  0999 V2000
    0.1667   -1.4583    0.0000 N   0  0  0  0  0  0  0  0  0  0  0  0
   -0.2417   -0.5458    0.0000 C   0  0  0  0  0  0  0  0  0  0  0  0
    1.1625   -1.3542    0.0000 C   0  0  0  0  0  0  0  0  0  0  0  0
   -0.6208    2.5208    0.0000 C   0  0  0  0  0  0  0  0  0  0  0  0
    0.5042    0.1250    0.0000 C   0  0  0  0  0  0  0  0  0  0  0  0
    0.1875    3.1083    0.0000 C   0  0  0  0  0  0  0  0  0  0  0  0
    1.3667   -0.3750    0.0000 C   0  0  0  0  0  0  0  0  0  0  0  0
    0.4000    1.1208    0.0000 N   0  0  0  0  0  0  0  0  0  0  0  0
   -1.4292    3.1083    0.0000 N   0  0  0  0  0  0  0  0  0  0  0  0
   -0.1208    4.0542    0.0000 C   0  0  0  0  0  0  0  0  0  0  0  0
   -1.1208    4.0542    0.0000 C   0  0  0  0  0  0  0  0  0  0  0  0
   -0.5167    1.5250    0.0000 C   0  0  0  0  0  0  0  0  0  0  0  0
   -0.3333   -2.3250    0.0000 C   0  0  0  0  0  0  0  0  0  0  0  0
    1.1042    2.7000    0.0000 C   0  0  0  0  0  0  0  0  0  0  0  0
   -1.2208   -0.3375    0.0000 O   0  0  0  0  0  0  0  0  0  0  0  0
    1.2083    1.7083    0.0000 C   0  0  0  0  0  0  0  0  0  0  0  0
    1.8292   -2.0958    0.0000 O   0  0  0  0  0  0  0  0  0  0  0  0
   -1.3333   -5.7875    0.0000 C   0  0  0  0  0  0  0  0  0  0  0  0
    0.3792    4.9208    0.0000 C   0  0  0  0  0  0  0  0  0  0  0  0
   -1.8333   -4.9208    0.0000 N   0  0  0  0  0  0  0  0  0  0  0  0
   -1.6208    4.9208    0.0000 C   0  0  0  0  0  0  0  0  0  0  0  0
   -1.8333   -6.6542    0.0000 O   0  0  0  0  0  0  0  0  0  0  0  0
    0.1667   -3.1917    0.0000 C   0  0  0  0  0  0  0  0  0  0  0  0
   -1.3333   -2.3250    0.0000 C   0  0  0  0  0  0  0  0  0  0  0  0
   -1.3333   -4.0542    0.0000 C   0  0  0  0  0  0  0  0  0  0  0  0
   -0.1208    5.7875    0.0000 C   0  0  0  0  0  0  0  0  0  0  0  0
   -1.1208    5.7875    0.0000 C   0  0  0  0  0  0  0  0  0  0  0  0
   -1.8333   -3.1917    0.0000 C   0  0  0  0  0  0  0  0  0  0  0  0
   -0.3333   -4.0542    0.0000 C   0  0  0  0  0  0  0  0  0  0  0  0
    0.3792    6.6542    0.0000 F   0  0  0  0  0  0  0  0  0  0  0  0
   -0.3333   -5.7875    0.0000 C   0  0  0  0  0  0  0  0  0  0  0  0
  1  2  1  0
  1  3  1  0
  4 12  1  0
  2  5  1  0
  6 14  1  0
  3  7  1  0
  5  8  1  0
  4  9  1  0
  6 10  1  0
  9 11  1  0
  8 12  1  0
  1 13  1  0
 14 16  1  0
  2 15  2  0
  8 16  1  0
  3 17  2  0
 18 20  1  0
 10 19  2  0
 20 25  1  0
 11 21  2  0
 18 22  2  0
 13 23  1  0
 13 24  2  0
 25 28  2  0
 19 26  1  0
 21 27  1  0
 24 28  1  0
 23 29  2  0
 26 30  1  0
 18 31  1  0
  5  7  1  0
 25 29  1  0
  4  6  2  0
 10 11  1  0
 26 27  2  0
M  END
>  <MOLFORMULA>  (205) 
C23 H21 F N4 O3

>  <MOLWEIGHT>  (205) 
4.204419000000000e+002

>  <IDNUMBER>  (205) 
AN-153/NB21468

>  <PRICE>  (205) 
EUR 130/10 mg

>  <Similarity score>  (205) 
0.24

$$$$

     RDKit          2D

 31 35  0  0  0  0  0  0  0  0999 V2000
    2.6125   -2.1250    0.0000 C   0  0  0  0  0  0  0  0  0  0  0  0
    4.7167    1.9625    0.0000 C   0  0  0  0  0  0  0  0  0  0  0  0
    2.9500   -2.8792    0.0000 C   0  0  0  0  0  0  0  0  0  0  0  0
    1.7917   -2.0292    0.0000 N   0  0  0  0  0  0  0  0  0  0  0  0
    5.5417    1.9625    0.0000 N   0  0  0  0  0  0  0  0  0  0  0  0
    3.1042   -1.4625    0.0000 N   0  0  0  0  0  0  0  0  0  0  0  0
    4.2292    1.2875    0.0000 C   0  0  0  0  0  0  0  0  0  0  0  0
    4.4542    2.7583    0.0000 C   0  0  0  0  0  0  0  0  0  0  0  0
    5.8000    2.7583    0.0000 C   0  0  0  0  0  0  0  0  0  0  0  0
    1.6417   -3.4542    0.0000 N   0  0  0  0  0  0  0  0  0  0  0  0
    2.4542   -3.5500    0.0000 C   0  0  0  0  0  0  0  0  0  0  0  0
    1.3042   -2.7042    0.0000 C   0  0  0  0  0  0  0  0  0  0  0  0
    5.1292    3.2333    0.0000 C   0  0  0  0  0  0  0  0  0  0  0  0
    4.5625    0.5375    0.0000 N   0  0  0  0  0  0  0  0  0  0  0  0
    6.5500    3.0875    0.0000 C   0  0  0  0  0  0  0  0  0  0  0  0
    3.9167   -1.5417    0.0000 C   0  0  0  0  0  0  0  0  0  0  0  0
    2.7667   -0.7000    0.0000 C   0  0  0  0  0  0  0  0  0  0  0  0
    3.4042    1.3750    0.0000 O   0  0  0  0  0  0  0  0  0  0  0  0
    5.2167    4.0417    0.0000 C   0  0  0  0  0  0  0  0  0  0  0  0
    4.0792   -0.1167    0.0000 C   0  0  0  0  0  0  0  0  0  0  0  0
    3.2542   -0.0292    0.0000 C   0  0  0  0  0  0  0  0  0  0  0  0
    4.4042   -0.8875    0.0000 C   0  0  0  0  0  0  0  0  0  0  0  0
    6.6417    3.9000    0.0000 C   0  0  0  0  0  0  0  0  0  0  0  0
    3.7667   -2.9792    0.0000 C   0  0  0  0  0  0  0  0  0  0  0  0
    5.9667    4.3792    0.0000 C   0  0  0  0  0  0  0  0  0  0  0  0
    7.3917    4.2292    0.0000 O   0  0  0  0  0  0  0  0  0  0  0  0
    2.7875   -4.3042    0.0000 C   0  0  0  0  0  0  0  0  0  0  0  0
    0.4875   -2.6125    0.0000 C   0  0  0  0  0  0  0  0  0  0  0  0
    8.0542    3.7583    0.0000 C   0  0  0  0  0  0  0  0  0  0  0  0
    4.1000   -3.7375    0.0000 C   0  0  0  0  0  0  0  0  0  0  0  0
    3.6042   -4.3917    0.0000 C   0  0  0  0  0  0  0  0  0  0  0  0
  2  7  1  0
  1  3  1  0
  1  4  2  0
  2  5  1  0
  1  6  1  0
  7 14  1  0
  2  8  2  0
  5  9  1  0
 10 12  2  0
  3 11  2  0
  4 12  1  0
  8 13  1  0
 14 20  1  0
  9 15  1  0
  6 16  1  0
  6 17  1  0
  7 18  2  0
 13 19  1  0
 20 21  1  0
 17 21  1  0
 16 22  1  0
 15 23  2  0
  3 24  1  0
 19 25  2  0
 23 26  1  0
 11 27  1  0
 12 28  1  0
 26 29  1  0
 24 30  1  0
 30 31  1  0
 10 11  1  0
 20 22  1  0
 27 31  1  0
  9 13  2  0
 23 25  1  0
M  END
>  <MOLFORMULA>  (206) 
C24 H29 N5 O2

>  <MOLWEIGHT>  (206) 
4.195261000000000e+002

>  <IDNUMBER>  (206) 
AT-687/SK01665

>  <PRICE>  (206) 
EUR 80/10 mg

>  <Similarity score>  (206) 
0.24

$$$$

     RDKit          2D

 29 33  0  0  0  0  0  0  0  0999 V2000
    2.3625    0.1250    0.0000 C   0  0  0  0  0  0  0  0  0  0  0  0
    1.8000   -0.4875    0.0000 C   0  0  0  0  0  0  0  0  0  0  0  0
    2.1042    0.9083    0.0000 N   0  0  0  0  0  0  0  0  0  0  0  0
    3.1667   -0.0542    0.0000 N   0  0  0  0  0  0  0  0  0  0  0  0
    0.7542    0.4833    0.0000 N   0  0  0  0  0  0  0  0  0  0  0  0
    0.9875   -0.3000    0.0000 C   0  0  0  0  0  0  0  0  0  0  0  0
    6.1375    0.0083    0.0000 C   0  0  0  0  0  0  0  0  0  0  0  0
    1.3125    1.0833    0.0000 C   0  0  0  0  0  0  0  0  0  0  0  0
    8.9667    0.7500    0.0000 N   0  0  0  0  0  0  0  0  0  0  0  0
    8.2917    0.2708    0.0000 C   0  0  0  0  0  0  0  0  0  0  0  0
    6.9375   -0.1542    0.0000 C   0  0  0  0  0  0  0  0  0  0  0  0
    9.6250    0.2708    0.0000 C   0  0  0  0  0  0  0  0  0  0  0  0
    5.5792   -0.5917    0.0000 N   0  0  0  0  0  0  0  0  0  0  0  0
    9.3792   -0.5167    0.0000 N   0  0  0  0  0  0  0  0  0  0  0  0
    7.4875    0.4458    0.0000 C   0  0  0  0  0  0  0  0  0  0  0  0
    8.5542   -0.5167    0.0000 C   0  0  0  0  0  0  0  0  0  0  0  0
    3.7250    0.5500    0.0000 C   0  0  0  0  0  0  0  0  0  0  0  0
    3.4042   -0.8417    0.0000 C   0  0  0  0  0  0  0  0  0  0  0  0
    5.8792    0.8083    0.0000 O   0  0  0  0  0  0  0  0  0  0  0  0
    7.1875   -0.9542    0.0000 C   0  0  0  0  0  0  0  0  0  0  0  0
    7.9917   -1.1292    0.0000 C   0  0  0  0  0  0  0  0  0  0  0  0
    4.7750   -0.4042    0.0000 C   0  0  0  0  0  0  0  0  0  0  0  0
    4.2167   -1.0167    0.0000 C   0  0  0  0  0  0  0  0  0  0  0  0
    4.5167    0.3750    0.0000 C   0  0  0  0  0  0  0  0  0  0  0  0
    2.0375   -1.2750    0.0000 C   0  0  0  0  0  0  0  0  0  0  0  0
    0.4292   -0.9042    0.0000 C   0  0  0  0  0  0  0  0  0  0  0  0
    1.0625    1.8833    0.0000 C   0  0  0  0  0  0  0  0  0  0  0  0
    1.4792   -1.8750    0.0000 C   0  0  0  0  0  0  0  0  0  0  0  0
    0.6667   -1.6875    0.0000 C   0  0  0  0  0  0  0  0  0  0  0  0
  1  2  1  0
  1  3  2  0
  1  4  1  0
  5  8  2  0
  2  6  2  0
  7 13  1  0
  3  8  1  0
  9 10  1  0
 10 15  1  0
  7 11  1  0
  9 12  2  0
 13 22  1  0
 14 16  1  0
 11 15  2  0
 16 21  1  0
  4 17  1  0
  4 18  1  0
  7 19  2  0
 11 20  1  0
 20 21  2  0
 22 23  1  0
 18 23  1  0
 17 24  1  0
  2 25  1  0
  6 26  1  0
  8 27  1  0
 25 28  1  0
 28 29  1  0
  5  6  1  0
 22 24  1  0
 26 29  1  0
 10 16  2  0
 12 14  1  0
M  END
>  <MOLFORMULA>  (207) 
C22 H26 N6 O

>  <MOLWEIGHT>  (207) 
3.904884000000000e+002

>  <IDNUMBER>  (207) 
AT-687/SK01696

>  <PRICE>  (207) 
EUR 80/10 mg

>  <Similarity score>  (207) 
0.24

$$$$

     RDKit          2D

 32 36  0  0  0  0  0  0  0  0999 V2000
    0.1667   -1.4583    0.0000 N   0  0  0  0  0  0  0  0  0  0  0  0
   -0.2417   -0.5458    0.0000 C   0  0  0  0  0  0  0  0  0  0  0  0
    1.1625   -1.3542    0.0000 C   0  0  0  0  0  0  0  0  0  0  0  0
   -0.6208    2.5208    0.0000 C   0  0  0  0  0  0  0  0  0  0  0  0
    0.5042    0.1250    0.0000 C   0  0  0  0  0  0  0  0  0  0  0  0
    0.1875    3.1083    0.0000 C   0  0  0  0  0  0  0  0  0  0  0  0
    1.3667   -0.3750    0.0000 C   0  0  0  0  0  0  0  0  0  0  0  0
    0.4000    1.1208    0.0000 N   0  0  0  0  0  0  0  0  0  0  0  0
   -1.4292    3.1083    0.0000 N   0  0  0  0  0  0  0  0  0  0  0  0
   -0.1208    4.0542    0.0000 C   0  0  0  0  0  0  0  0  0  0  0  0
   -1.1208    4.0542    0.0000 C   0  0  0  0  0  0  0  0  0  0  0  0
   -0.5167    1.5250    0.0000 C   0  0  0  0  0  0  0  0  0  0  0  0
   -0.3333   -2.3250    0.0000 C   0  0  0  0  0  0  0  0  0  0  0  0
    1.1042    2.7042    0.0000 C   0  0  0  0  0  0  0  0  0  0  0  0
   -1.2167   -0.3375    0.0000 O   0  0  0  0  0  0  0  0  0  0  0  0
    1.2083    1.7083    0.0000 C   0  0  0  0  0  0  0  0  0  0  0  0
    1.8292   -2.0958    0.0000 O   0  0  0  0  0  0  0  0  0  0  0  0
   -1.3333   -5.7875    0.0000 C   0  0  0  0  0  0  0  0  0  0  0  0
    0.3792    4.9208    0.0000 C   0  0  0  0  0  0  0  0  0  0  0  0
   -1.8333   -4.9208    0.0000 N   0  0  0  0  0  0  0  0  0  0  0  0
   -1.6208    4.9208    0.0000 C   0  0  0  0  0  0  0  0  0  0  0  0
   -0.3333   -5.7875    0.0000 O   0  0  0  0  0  0  0  0  0  0  0  0
   -1.3333   -2.3250    0.0000 C   0  0  0  0  0  0  0  0  0  0  0  0
    0.1667   -3.1875    0.0000 C   0  0  0  0  0  0  0  0  0  0  0  0
   -1.3333   -4.0542    0.0000 C   0  0  0  0  0  0  0  0  0  0  0  0
   -0.1208    5.7875    0.0000 C   0  0  0  0  0  0  0  0  0  0  0  0
   -1.1208    5.7875    0.0000 C   0  0  0  0  0  0  0  0  0  0  0  0
   -0.3333   -4.0542    0.0000 C   0  0  0  0  0  0  0  0  0  0  0  0
   -1.8333   -3.1875    0.0000 C   0  0  0  0  0  0  0  0  0  0  0  0
    0.3792    6.6542    0.0000 O   0  0  0  0  0  0  0  0  0  0  0  0
   -1.8333   -6.6542    0.0000 C   0  0  0  0  0  0  0  0  0  0  0  0
    1.3792    6.6542    0.0000 C   0  0  0  0  0  0  0  0  0  0  0  0
  1  2  1  0
  1  3  1  0
  4 12  1  0
  2  5  1  0
  6 14  1  0
  3  7  1  0
  5  8  1  0
  4  9  1  0
  6 10  1  0
  9 11  1  0
  8 12  1  0
  1 13  1  0
 14 16  1  0
  2 15  2  0
  8 16  1  0
  3 17  2  0
 18 20  1  0
 10 19  2  0
 20 25  1  0
 11 21  2  0
 18 22  2  0
 13 23  2  0
 13 24  1  0
 25 29  2  0
 19 26  1  0
 21 27  1  0
 24 28  2  0
 23 29  1  0
 26 30  1  0
 18 31  1  0
 30 32  1  0
  5  7  1  0
 25 28  1  0
  4  6  2  0
 10 11  1  0
 26 27  2  0
M  END
>  <MOLFORMULA>  (208) 
C24 H24 N4 O4

>  <MOLWEIGHT>  (208) 
4.324776000000000e+002

>  <IDNUMBER>  (208) 
AN-153/NB21451

>  <PRICE>  (208) 
EUR 130/10 mg

>  <Similarity score>  (208) 
0.24

$$$$

     RDKit          2D

 33 37  0  0  0  0  0  0  0  0999 V2000
    3.9417   -3.2000    0.0000 C   0  0  0  0  0  0  0  0  0  0  0  0
    1.4417    2.1708    0.0000 N   0  0  0  0  0  0  0  0  0  0  0  0
    3.6042   -3.9542    0.0000 C   0  0  0  0  0  0  0  0  0  0  0  0
    0.7750    1.6833    0.0000 C   0  0  0  0  0  0  0  0  0  0  0  0
    1.8542    0.8875    0.0000 C   0  0  0  0  0  0  0  0  0  0  0  0
    4.7667   -3.1125    0.0000 N   0  0  0  0  0  0  0  0  0  0  0  0
    3.4625   -2.5292    0.0000 N   0  0  0  0  0  0  0  0  0  0  0  0
    2.3417    0.2333    0.0000 C   0  0  0  0  0  0  0  0  0  0  0  0
    2.1167    1.6833    0.0000 C   0  0  0  0  0  0  0  0  0  0  0  0
    4.9125   -4.5375    0.0000 N   0  0  0  0  0  0  0  0  0  0  0  0
    4.1042   -4.6167    0.0000 C   0  0  0  0  0  0  0  0  0  0  0  0
    5.2500   -3.7792    0.0000 C   0  0  0  0  0  0  0  0  0  0  0  0
    1.0292    0.8875    0.0000 C   0  0  0  0  0  0  0  0  0  0  0  0
    2.0042   -0.5292    0.0000 N   0  0  0  0  0  0  0  0  0  0  0  0
    1.4417    2.9958    0.0000 C   0  0  0  0  0  0  0  0  0  0  0  0
    0.0000    1.9458    0.0000 O   0  0  0  0  0  0  0  0  0  0  0  0
    3.7917   -1.7792    0.0000 C   0  0  0  0  0  0  0  0  0  0  0  0
    2.6375   -2.6167    0.0000 C   0  0  0  0  0  0  0  0  0  0  0  0
    3.1625    0.3125    0.0000 O   0  0  0  0  0  0  0  0  0  0  0  0
    2.4917   -1.1917    0.0000 C   0  0  0  0  0  0  0  0  0  0  0  0
    2.1542   -1.9500    0.0000 C   0  0  0  0  0  0  0  0  0  0  0  0
    3.3125   -1.1125    0.0000 C   0  0  0  0  0  0  0  0  0  0  0  0
    0.7292    3.3833    0.0000 C   0  0  0  0  0  0  0  0  0  0  0  0
    2.1625    3.3833    0.0000 C   0  0  0  0  0  0  0  0  0  0  0  0
    2.7875   -4.0417    0.0000 C   0  0  0  0  0  0  0  0  0  0  0  0
    2.1625    4.2042    0.0000 C   0  0  0  0  0  0  0  0  0  0  0  0
    0.7292    4.2167    0.0000 C   0  0  0  0  0  0  0  0  0  0  0  0
    1.4417    4.6167    0.0000 C   0  0  0  0  0  0  0  0  0  0  0  0
    3.7667   -5.3750    0.0000 C   0  0  0  0  0  0  0  0  0  0  0  0
    6.0667   -3.6917    0.0000 C   0  0  0  0  0  0  0  0  0  0  0  0
    1.4500    5.4417    0.0000 C   0  0  0  0  0  0  0  0  0  0  0  0
    2.4542   -4.8042    0.0000 C   0  0  0  0  0  0  0  0  0  0  0  0
    2.9417   -5.4625    0.0000 C   0  0  0  0  0  0  0  0  0  0  0  0
  2  9  1  0
  1  3  1  0
  4 13  1  0
  5  8  1  0
  1  6  2  0
  1  7  1  0
  8 14  1  0
  5  9  1  0
 10 12  2  0
  3 11  2  0
  6 12  1  0
  5 13  1  0
 14 20  1  0
  2 15  1  0
  4 16  2  0
  7 17  1  0
  7 18  1  0
  8 19  2  0
 20 21  1  0
 18 21  1  0
 17 22  1  0
 15 23  1  0
 15 24  2  0
  3 25  1  0
 24 26  1  0
 23 27  2  0
 26 28  2  0
 11 29  1  0
 12 30  1  0
 28 31  1  0
 25 32  1  0
 32 33  1  0
 10 11  1  0
 20 22  1  0
 29 33  1  0
  2  4  1  0
 27 28  1  0
M  END
>  <MOLFORMULA>  (209) 
C26 H33 N5 O2

>  <MOLWEIGHT>  (209) 
4.475797000000000e+002

>  <IDNUMBER>  (209) 
AT-687/SK01650

>  <PRICE>  (209) 
EUR 80/10 mg

>  <Similarity score>  (209) 
0.24

$$$$

     RDKit          2D

 31 34  0  0  0  0  0  0  0  0999 V2000
    2.6375    0.4125    0.0000 C   0  0  0  0  0  0  0  0  0  0  0  0
    1.9167    0.0083    0.0000 C   0  0  0  0  0  0  0  0  0  0  0  0
    2.6375    1.2458    0.0000 N   0  0  0  0  0  0  0  0  0  0  0  0
    3.3417   -0.0000    0.0000 N   0  0  0  0  0  0  0  0  0  0  0  0
    1.2042    1.2458    0.0000 N   0  0  0  0  0  0  0  0  0  0  0  0
    1.2000    0.4208    0.0000 C   0  0  0  0  0  0  0  0  0  0  0  0
    6.1917   -0.8167    0.0000 C   0  0  0  0  0  0  0  0  0  0  0  0
    9.1167    0.0500    0.0000 C   0  0  0  0  0  0  0  0  0  0  0  0
    1.9167    1.6500    0.0000 C   0  0  0  0  0  0  0  0  0  0  0  0
    5.4875   -1.2292    0.0000 N   0  0  0  0  0  0  0  0  0  0  0  0
    6.9042   -1.2292    0.0000 C   0  0  0  0  0  0  0  0  0  0  0  0
    9.1167   -0.7750    0.0000 O   0  0  0  0  0  0  0  0  0  0  0  0
    4.0542    0.4125    0.0000 C   0  0  0  0  0  0  0  0  0  0  0  0
    3.3417   -0.8167    0.0000 C   0  0  0  0  0  0  0  0  0  0  0  0
    6.1917    0.0083    0.0000 O   0  0  0  0  0  0  0  0  0  0  0  0
    7.6250   -0.8167    0.0000 C   0  0  0  0  0  0  0  0  0  0  0  0
    8.3375   -1.2292    0.0000 C   0  0  0  0  0  0  0  0  0  0  0  0
    4.7750   -0.8167    0.0000 C   0  0  0  0  0  0  0  0  0  0  0  0
    4.0542   -1.2292    0.0000 C   0  0  0  0  0  0  0  0  0  0  0  0
    4.7750    0.0083    0.0000 C   0  0  0  0  0  0  0  0  0  0  0  0
    9.9417    0.0500    0.0000 F   0  0  0  0  0  0  0  0  0  0  0  0
    8.3000    0.0500    0.0000 F   0  0  0  0  0  0  0  0  0  0  0  0
    9.1167    0.8750    0.0000 F   0  0  0  0  0  0  0  0  0  0  0  0
    1.9042   -0.8167    0.0000 C   0  0  0  0  0  0  0  0  0  0  0  0
    0.4917    0.0125    0.0000 C   0  0  0  0  0  0  0  0  0  0  0  0
    6.9042   -2.0542    0.0000 C   0  0  0  0  0  0  0  0  0  0  0  0
    1.9167    2.4750    0.0000 C   0  0  0  0  0  0  0  0  0  0  0  0
    7.6250   -2.4667    0.0000 C   0  0  0  0  0  0  0  0  0  0  0  0
    8.3375   -2.0542    0.0000 C   0  0  0  0  0  0  0  0  0  0  0  0
    1.1917   -1.2292    0.0000 C   0  0  0  0  0  0  0  0  0  0  0  0
    0.4792   -0.8000    0.0000 C   0  0  0  0  0  0  0  0  0  0  0  0
  1  2  1  0
  1  3  2  0
  1  4  1  0
  5  9  2  0
  2  6  2  0
  7 10  1  0
  8 12  1  0
  3  9  1  0
 10 18  1  0
  7 11  1  0
 12 17  1  0
  4 13  1  0
  4 14  1  0
  7 15  2  0
 11 16  2  0
 16 17  1  0
 18 19  1  0
 14 19  1  0
 13 20  1  0
  8 21  1  0
  8 22  1  0
  8 23  1  0
  2 24  1  0
  6 25  1  0
 11 26  1  0
  9 27  1  0
 26 28  2  0
 28 29  1  0
 24 30  1  0
 30 31  1  0
  5  6  1  0
 18 20  1  0
 25 31  1  0
 17 29  2  0
M  END
>  <MOLFORMULA>  (210) 
C22 H25 F3 N4 O2

>  <MOLWEIGHT>  (210) 
4.344595000000000e+002

>  <IDNUMBER>  (210) 
AT-687/SK01699

>  <PRICE>  (210) 
EUR 80/10 mg

>  <Similarity score>  (210) 
0.24

$$$$

     RDKit          2D

 32 36  0  0  0  0  0  0  0  0999 V2000
   -1.9833    3.2583    0.0000 C   0  0  0  0  0  0  0  0  0  0  0  0
   -1.9833    4.2542    0.0000 N   0  0  0  0  0  0  0  0  0  0  0  0
   -1.1208    2.7708    0.0000 C   0  0  0  0  0  0  0  0  0  0  0  0
   -2.9375    4.5625    0.0000 N   0  0  0  0  0  0  0  0  0  0  0  0
   -2.9375    2.9375    0.0000 C   0  0  0  0  0  0  0  0  0  0  0  0
   -1.1208    1.7583    0.0000 N   0  0  0  0  0  0  0  0  0  0  0  0
   -3.5208    3.7583    0.0000 C   0  0  0  0  0  0  0  0  0  0  0  0
    0.6042   -0.2417    0.0000 C   0  0  0  0  0  0  0  0  0  0  0  0
   -0.2500    3.2583    0.0000 N   0  0  0  0  0  0  0  0  0  0  0  0
   -0.2583    0.2583    0.0000 C   0  0  0  0  0  0  0  0  0  0  0  0
   -0.2500    1.2625    0.0000 C   0  0  0  0  0  0  0  0  0  0  0  0
   -1.1208    4.7542    0.0000 C   0  0  0  0  0  0  0  0  0  0  0  0
    0.6042   -1.2500    0.0000 N   0  0  0  0  0  0  0  0  0  0  0  0
   -0.2500    4.2542    0.0000 C   0  0  0  0  0  0  0  0  0  0  0  0
    1.4542   -2.7417    0.0000 C   0  0  0  0  0  0  0  0  0  0  0  0
    2.3167   -3.2500    0.0000 C   0  0  0  0  0  0  0  0  0  0  0  0
    1.4667   -1.7417    0.0000 C   0  0  0  0  0  0  0  0  0  0  0  0
    1.4750    0.2500    0.0000 O   0  0  0  0  0  0  0  0  0  0  0  0
    3.2000   -2.7542    0.0000 C   0  0  0  0  0  0  0  0  0  0  0  0
    3.2000   -1.7625    0.0000 C   0  0  0  0  0  0  0  0  0  0  0  0
   -1.9833    1.2625    0.0000 C   0  0  0  0  0  0  0  0  0  0  0  0
   -3.3458    2.0333    0.0000 C   0  0  0  0  0  0  0  0  0  0  0  0
    2.3417   -1.2500    0.0000 C   0  0  0  0  0  0  0  0  0  0  0  0
    2.3125   -4.2542    0.0000 O   0  0  0  0  0  0  0  0  0  0  0  0
   -1.1250   -0.2292    0.0000 C   0  0  0  0  0  0  0  0  0  0  0  0
    4.0542   -3.2542    0.0000 O   0  0  0  0  0  0  0  0  0  0  0  0
   -4.5208    3.6500    0.0000 C   0  0  0  0  0  0  0  0  0  0  0  0
   -1.9833    0.2708    0.0000 C   0  0  0  0  0  0  0  0  0  0  0  0
    3.1667   -4.7542    0.0000 C   0  0  0  0  0  0  0  0  0  0  0  0
    4.9250   -2.7667    0.0000 C   0  0  0  0  0  0  0  0  0  0  0  0
   -4.3458    1.9333    0.0000 C   0  0  0  0  0  0  0  0  0  0  0  0
   -4.9333    2.7458    0.0000 C   0  0  0  0  0  0  0  0  0  0  0  0
  1  2  1  0
  1  3  1  0
  2  4  1  0
  1  5  2  0
  3  6  1  0
  5  7  1  0
  8 10  1  0
  3  9  2  0
 10 11  1  0
  6 11  1  0
  2 12  1  0
  8 13  1  0
  9 14  1  0
 15 17  1  0
 15 16  2  0
 13 17  1  0
  8 18  2  0
 19 20  2  0
 20 23  1  0
  6 21  1  0
  5 22  1  0
 17 23  2  0
 16 24  1  0
 25 28  1  0
 19 26  1  0
  7 27  1  0
 21 28  1  0
 24 29  1  0
 26 30  1  0
 22 31  1  0
 31 32  1  0
  4  7  2  0
 12 14  2  0
 27 32  1  0
 10 25  1  0
 16 19  1  0
M  END
>  <MOLFORMULA>  (211) 
C24 H29 N5 O3

>  <MOLWEIGHT>  (211) 
4.355251000000000e+002

>  <IDNUMBER>  (211) 
AT-687/PE21868

>  <PRICE>  (211) 
EUR 80/10 mg

>  <Similarity score>  (211) 
0.23

$$$$

     RDKit          2D

 29 32  0  0  0  0  0  0  0  0999 V2000
    3.5667    1.5083    0.0000 C   0  0  0  0  0  0  0  0  0  0  0  0
    3.5667    2.3333    0.0000 C   0  0  0  0  0  0  0  0  0  0  0  0
    4.2792    1.0958    0.0000 N   0  0  0  0  0  0  0  0  0  0  0  0
    2.8417    1.0958    0.0000 N   0  0  0  0  0  0  0  0  0  0  0  0
    4.9875    2.3333    0.0000 N   0  0  0  0  0  0  0  0  0  0  0  0
    4.2792    2.7458    0.0000 C   0  0  0  0  0  0  0  0  0  0  0  0
    4.9875    1.5083    0.0000 C   0  0  0  0  0  0  0  0  0  0  0  0
    0.7042   -0.9667    0.0000 C   0  0  0  0  0  0  0  0  0  0  0  0
    1.4167   -2.2042    0.0000 C   0  0  0  0  0  0  0  0  0  0  0  0
    0.7042   -0.1417    0.0000 N   0  0  0  0  0  0  0  0  0  0  0  0
    1.4167   -1.3792    0.0000 C   0  0  0  0  0  0  0  0  0  0  0  0
    2.1292    1.5083    0.0000 C   0  0  0  0  0  0  0  0  0  0  0  0
    2.8417    0.2708    0.0000 C   0  0  0  0  0  0  0  0  0  0  0  0
    0.0000   -1.3792    0.0000 O   0  0  0  0  0  0  0  0  0  0  0  0
    2.1292   -2.6250    0.0000 C   0  0  0  0  0  0  0  0  0  0  0  0
    2.1292   -0.1417    0.0000 C   0  0  0  0  0  0  0  0  0  0  0  0
    1.4167    1.0958    0.0000 C   0  0  0  0  0  0  0  0  0  0  0  0
    1.4167    0.2708    0.0000 C   0  0  0  0  0  0  0  0  0  0  0  0
    2.8500    2.7500    0.0000 C   0  0  0  0  0  0  0  0  0  0  0  0
    2.8417   -2.2167    0.0000 O   0  0  0  0  0  0  0  0  0  0  0  0
    4.2792    3.5625    0.0000 C   0  0  0  0  0  0  0  0  0  0  0  0
    5.7042    1.0958    0.0000 C   0  0  0  0  0  0  0  0  0  0  0  0
    0.7000   -2.6167    0.0000 C   0  0  0  0  0  0  0  0  0  0  0  0
    2.1292   -3.4417    0.0000 C   0  0  0  0  0  0  0  0  0  0  0  0
    3.5667   -2.6292    0.0000 C   0  0  0  0  0  0  0  0  0  0  0  0
    2.8542    3.5708    0.0000 C   0  0  0  0  0  0  0  0  0  0  0  0
    3.5750    3.9833    0.0000 C   0  0  0  0  0  0  0  0  0  0  0  0
    0.7000   -3.4500    0.0000 C   0  0  0  0  0  0  0  0  0  0  0  0
    1.4125   -3.8542    0.0000 C   0  0  0  0  0  0  0  0  0  0  0  0
  1  2  1  0
  1  3  2  0
  1  4  1  0
  5  7  2  0
  2  6  2  0
  3  7  1  0
  8 10  1  0
  9 11  1  0
 10 18  1  0
  8 11  1  0
  4 12  1  0
  4 13  1  0
  8 14  2  0
  9 15  2  0
 13 16  1  0
 12 17  1  0
 16 18  1  0
  2 19  1  0
 15 20  1  0
  6 21  1  0
  7 22  1  0
  9 23  1  0
 15 24  1  0
 20 25  1  0
 19 26  1  0
 26 27  1  0
 23 28  2  0
 28 29  1  0
  5  6  1  0
 17 18  1  0
 21 27  1  0
 24 29  2  0
M  END
>  <MOLFORMULA>  (212) 
C23 H30 N4 O2

>  <MOLWEIGHT>  (212) 
3.945160000000000e+002

>  <IDNUMBER>  (212) 
AT-687/SK01677

>  <PRICE>  (212) 
EUR 80/10 mg

>  <Similarity score>  (212) 
0.23

$$$$

     RDKit          2D

 30 34  0  0  0  0  0  0  0  0999 V2000
   -1.5500    2.5208    0.0000 C   0  0  0  0  0  0  0  0  0  0  0  0
   -1.5500    3.5083    0.0000 N   0  0  0  0  0  0  0  0  0  0  0  0
   -0.6875    2.0083    0.0000 C   0  0  0  0  0  0  0  0  0  0  0  0
   -2.5083    3.8208    0.0000 N   0  0  0  0  0  0  0  0  0  0  0  0
   -2.5083    2.1958    0.0000 C   0  0  0  0  0  0  0  0  0  0  0  0
   -0.6875    1.0000    0.0000 N   0  0  0  0  0  0  0  0  0  0  0  0
   -3.0958    3.0083    0.0000 C   0  0  0  0  0  0  0  0  0  0  0  0
    1.0417   -0.9917    0.0000 C   0  0  0  0  0  0  0  0  0  0  0  0
    0.1792    2.5208    0.0000 N   0  0  0  0  0  0  0  0  0  0  0  0
    0.1792   -0.4917    0.0000 C   0  0  0  0  0  0  0  0  0  0  0  0
    1.0417   -1.9917    0.0000 N   0  0  0  0  0  0  0  0  0  0  0  0
    0.1792    0.5208    0.0000 C   0  0  0  0  0  0  0  0  0  0  0  0
   -0.6875    4.0042    0.0000 C   0  0  0  0  0  0  0  0  0  0  0  0
    1.9042   -2.5000    0.0000 C   0  0  0  0  0  0  0  0  0  0  0  0
    0.1792    3.5083    0.0000 C   0  0  0  0  0  0  0  0  0  0  0  0
    2.7750   -2.0042    0.0000 C   0  0  0  0  0  0  0  0  0  0  0  0
    1.9125   -0.5000    0.0000 O   0  0  0  0  0  0  0  0  0  0  0  0
    3.6417   -2.5042    0.0000 C   0  0  0  0  0  0  0  0  0  0  0  0
    1.8917   -3.4917    0.0000 C   0  0  0  0  0  0  0  0  0  0  0  0
    2.7875   -1.0042    0.0000 F   0  0  0  0  0  0  0  0  0  0  0  0
   -1.5500    0.5208    0.0000 C   0  0  0  0  0  0  0  0  0  0  0  0
   -2.9083    1.2833    0.0000 C   0  0  0  0  0  0  0  0  0  0  0  0
    3.6292   -3.5042    0.0000 C   0  0  0  0  0  0  0  0  0  0  0  0
    2.7542   -4.0000    0.0000 C   0  0  0  0  0  0  0  0  0  0  0  0
   -0.6958   -0.9875    0.0000 C   0  0  0  0  0  0  0  0  0  0  0  0
   -4.0833    2.9000    0.0000 C   0  0  0  0  0  0  0  0  0  0  0  0
   -1.5500   -0.4792    0.0000 C   0  0  0  0  0  0  0  0  0  0  0  0
    4.4917   -4.0042    0.0000 C   0  0  0  0  0  0  0  0  0  0  0  0
   -3.9083    1.1833    0.0000 C   0  0  0  0  0  0  0  0  0  0  0  0
   -4.5000    1.9958    0.0000 C   0  0  0  0  0  0  0  0  0  0  0  0
  1  2  1  0
  1  3  1  0
  2  4  1  0
  1  5  2  0
  3  6  1  0
  5  7  1  0
  8 10  1  0
  3  9  2  0
 10 12  1  0
  8 11  1  0
  6 12  1  0
  2 13  1  0
 11 14  1  0
  9 15  1  0
 14 16  2  0
  8 17  2  0
 16 18  1  0
 14 19  1  0
 16 20  1  0
  6 21  1  0
  5 22  1  0
 23 24  1  0
 19 24  2  0
 25 27  1  0
  7 26  1  0
 21 27  1  0
 23 28  1  0
 22 29  1  0
 29 30  1  0
  4  7  2  0
 13 15  2  0
 26 30  1  0
 10 25  1  0
 18 23  2  0
M  END
>  <MOLFORMULA>  (213) 
C23 H26 F N5 O

>  <MOLWEIGHT>  (213) 
4.074904000000000e+002

>  <IDNUMBER>  (213) 
AT-687/PE21874

>  <PRICE>  (213) 
EUR 80/10 mg

>  <Similarity score>  (213) 
0.23

$$$$

     RDKit          2D

 25 28  0  0  0  0  0  0  0  0999 V2000
    3.6167   -1.3042    0.0000 C   0  0  0  0  0  0  0  0  0  0  0  0
    3.2792   -2.0625    0.0000 C   0  0  0  0  0  0  0  0  0  0  0  0
    4.4417   -1.2167    0.0000 N   0  0  0  0  0  0  0  0  0  0  0  0
    3.1375   -0.6375    0.0000 N   0  0  0  0  0  0  0  0  0  0  0  0
    4.5875   -2.6417    0.0000 N   0  0  0  0  0  0  0  0  0  0  0  0
    2.0167    2.1333    0.0000 C   0  0  0  0  0  0  0  0  0  0  0  0
    3.7667   -2.7292    0.0000 C   0  0  0  0  0  0  0  0  0  0  0  0
    4.9250   -1.8917    0.0000 C   0  0  0  0  0  0  0  0  0  0  0  0
    1.5250    2.7958    0.0000 C   0  0  0  0  0  0  0  0  0  0  0  0
    1.6792    1.3708    0.0000 N   0  0  0  0  0  0  0  0  0  0  0  0
    3.4667    0.1208    0.0000 C   0  0  0  0  0  0  0  0  0  0  0  0
    2.3125   -0.7167    0.0000 C   0  0  0  0  0  0  0  0  0  0  0  0
    2.8250    2.2125    0.0000 O   0  0  0  0  0  0  0  0  0  0  0  0
    2.1667    0.7083    0.0000 C   0  0  0  0  0  0  0  0  0  0  0  0
    1.8292   -0.0542    0.0000 C   0  0  0  0  0  0  0  0  0  0  0  0
    2.9792    0.7875    0.0000 C   0  0  0  0  0  0  0  0  0  0  0  0
    1.1125    4.0417    0.0000 O   0  0  0  0  0  0  0  0  0  0  0  0
    2.4625   -2.1542    0.0000 C   0  0  0  0  0  0  0  0  0  0  0  0
    1.7875    3.5833    0.0000 C   0  0  0  0  0  0  0  0  0  0  0  0
    3.4417   -3.4792    0.0000 C   0  0  0  0  0  0  0  0  0  0  0  0
    0.7000    2.7958    0.0000 C   0  0  0  0  0  0  0  0  0  0  0  0
    5.7417   -1.8000    0.0000 C   0  0  0  0  0  0  0  0  0  0  0  0
    0.4417    3.5833    0.0000 C   0  0  0  0  0  0  0  0  0  0  0  0
    2.1250   -2.9042    0.0000 C   0  0  0  0  0  0  0  0  0  0  0  0
    2.6167   -3.5667    0.0000 C   0  0  0  0  0  0  0  0  0  0  0  0
  1  2  1  0
  1  3  2  0
  1  4  1  0
  5  8  2  0
  6 10  1  0
  2  7  2  0
  3  8  1  0
  6  9  1  0
 10 14  1  0
  4 11  1  0
  4 12  1  0
  6 13  2  0
 14 15  1  0
 12 15  1  0
 11 16  1  0
 17 19  1  0
  2 18  1  0
  9 19  1  0
  7 20  1  0
  9 21  1  0
  8 22  1  0
 21 23  1  0
 18 24  1  0
 24 25  1  0
  5  7  1  0
 14 16  1  0
 20 25  1  0
 17 23  1  0
M  END
>  <MOLFORMULA>  (214) 
C19 H28 N4 O2

>  <MOLWEIGHT>  (214) 
3.444562000000000e+002

>  <IDNUMBER>  (214) 
AT-687/SK01670

>  <PRICE>  (214) 
EUR 80/10 mg

>  <Similarity score>  (214) 
0.23

$$$$

     RDKit          2D

 32 36  0  0  0  0  0  0  0  0999 V2000
    5.0500   -1.2917    0.0000 C   0  0  0  0  0  0  0  0  0  0  0  0
    3.9667   -2.0750    0.0000 C   0  0  0  0  0  0  0  0  0  0  0  0
    3.7167   -1.2792    0.0000 C   0  0  0  0  0  0  0  0  0  0  0  0
    4.7917   -2.0750    0.0000 C   0  0  0  0  0  0  0  0  0  0  0  0
    4.3792   -0.8000    0.0000 S   0  0  0  0  0  0  0  0  0  0  0  0
    3.4167   -2.6750    0.0000 C   0  0  0  0  0  0  0  0  0  0  0  0
    2.9042   -1.1042    0.0000 N   0  0  0  0  0  0  0  0  0  0  0  0
    2.6042   -2.5000    0.0000 N   0  0  0  0  0  0  0  0  0  0  0  0
    5.8500   -1.0500    0.0000 C   0  0  0  0  0  0  0  0  0  0  0  0
    1.3000   -0.7542    0.0000 N   0  0  0  0  0  0  0  0  0  0  0  0
    2.3500   -1.7250    0.0000 C   0  0  0  0  0  0  0  0  0  0  0  0
    6.0417   -0.2667    0.0000 N   0  0  0  0  0  0  0  0  0  0  0  0
    0.5167   -0.5000    0.0000 C   0  0  0  0  0  0  0  0  0  0  0  0
    6.8250   -0.0250    0.0000 C   0  0  0  0  0  0  0  0  0  0  0  0
    1.5500   -1.5500    0.0000 C   0  0  0  0  0  0  0  0  0  0  0  0
    7.4250   -0.6000    0.0000 C   0  0  0  0  0  0  0  0  0  0  0  0
    1.7750   -0.0917    0.0000 C   0  0  0  0  0  0  0  0  0  0  0  0
    6.4500   -1.6250    0.0000 O   0  0  0  0  0  0  0  0  0  0  0  0
    0.5167    0.3250    0.0000 C   0  0  0  0  0  0  0  0  0  0  0  0
    8.2042   -0.3667    0.0000 C   0  0  0  0  0  0  0  0  0  0  0  0
    1.3000    0.5750    0.0000 C   0  0  0  0  0  0  0  0  0  0  0  0
    7.0167    0.7583    0.0000 C   0  0  0  0  0  0  0  0  0  0  0  0
    3.6667   -3.4667    0.0000 O   0  0  0  0  0  0  0  0  0  0  0  0
    5.2750   -2.7500    0.0000 C   0  0  0  0  0  0  0  0  0  0  0  0
    8.4000    0.4333    0.0000 C   0  0  0  0  0  0  0  0  0  0  0  0
    7.8000    1.0000    0.0000 C   0  0  0  0  0  0  0  0  0  0  0  0
   -0.2000   -0.9167    0.0000 C   0  0  0  0  0  0  0  0  0  0  0  0
    7.2500   -1.4042    0.0000 C   0  0  0  0  0  0  0  0  0  0  0  0
   -0.2000    0.7333    0.0000 C   0  0  0  0  0  0  0  0  0  0  0  0
    9.2000    0.6750    0.0000 C   0  0  0  0  0  0  0  0  0  0  0  0
   -0.9125   -0.5000    0.0000 C   0  0  0  0  0  0  0  0  0  0  0  0
   -0.9125    0.3250    0.0000 C   0  0  0  0  0  0  0  0  0  0  0  0
  2  4  1  0
  3  5  1  0
  1  4  2  0
  1  5  1  0
  2  6  1  0
  3  7  1  0
  6  8  2  0
  1  9  1  0
 10 15  1  0
  7 11  2  0
  9 12  1  0
 10 13  1  0
 12 14  1  0
 11 15  1  0
 14 16  2  0
 10 17  1  0
  9 18  2  0
 13 19  2  0
 16 20  1  0
 17 21  1  0
 14 22  1  0
  6 23  1  0
  4 24  1  0
 25 26  1  0
 22 26  2  0
 13 27  1  0
 16 28  1  0
 19 29  1  0
 25 30  1  0
 27 31  2  0
 31 32  1  0
  2  3  2  0
  8 11  1  0
 20 25  2  0
 19 21  1  0
 29 32  2  0
M  END
>  <MOLFORMULA>  (215) 
C25 H24 N4 O2 S

>  <MOLWEIGHT>  (215) 
4.445566000000000e+002

>  <IDNUMBER>  (215) 
AT-687/SK06282

>  <PRICE>  (215) 
EUR 80/10 mg

>  <Similarity score>  (215) 
0.23

$$$$

     RDKit          2D

 30 34  0  0  0  0  0  0  0  0999 V2000
   -1.5458    2.5208    0.0000 C   0  0  0  0  0  0  0  0  0  0  0  0
   -1.5458    3.5208    0.0000 N   0  0  0  0  0  0  0  0  0  0  0  0
   -0.6833    2.0083    0.0000 C   0  0  0  0  0  0  0  0  0  0  0  0
   -2.5000    3.8333    0.0000 N   0  0  0  0  0  0  0  0  0  0  0  0
   -2.5000    2.2083    0.0000 C   0  0  0  0  0  0  0  0  0  0  0  0
   -0.6833    1.0083    0.0000 N   0  0  0  0  0  0  0  0  0  0  0  0
   -3.0833    3.0083    0.0000 C   0  0  0  0  0  0  0  0  0  0  0  0
    1.0500   -0.9917    0.0000 C   0  0  0  0  0  0  0  0  0  0  0  0
    0.1875    2.5208    0.0000 N   0  0  0  0  0  0  0  0  0  0  0  0
    0.1792   -0.4875    0.0000 C   0  0  0  0  0  0  0  0  0  0  0  0
    1.0417   -1.9917    0.0000 N   0  0  0  0  0  0  0  0  0  0  0  0
    0.1875    0.5083    0.0000 C   0  0  0  0  0  0  0  0  0  0  0  0
   -0.6833    4.0042    0.0000 C   0  0  0  0  0  0  0  0  0  0  0  0
    1.9042   -2.4917    0.0000 C   0  0  0  0  0  0  0  0  0  0  0  0
    0.1875    3.5208    0.0000 C   0  0  0  0  0  0  0  0  0  0  0  0
    2.7750   -1.9917    0.0000 C   0  0  0  0  0  0  0  0  0  0  0  0
    1.9125   -0.4917    0.0000 O   0  0  0  0  0  0  0  0  0  0  0  0
    3.6375   -2.5042    0.0000 C   0  0  0  0  0  0  0  0  0  0  0  0
    1.8917   -3.4875    0.0000 C   0  0  0  0  0  0  0  0  0  0  0  0
    3.6375   -3.4917    0.0000 C   0  0  0  0  0  0  0  0  0  0  0  0
   -1.5458    0.5083    0.0000 C   0  0  0  0  0  0  0  0  0  0  0  0
   -2.9083    1.2833    0.0000 C   0  0  0  0  0  0  0  0  0  0  0  0
    2.7542   -4.0000    0.0000 C   0  0  0  0  0  0  0  0  0  0  0  0
    4.4917   -4.0042    0.0000 F   0  0  0  0  0  0  0  0  0  0  0  0
   -0.6833   -0.9792    0.0000 C   0  0  0  0  0  0  0  0  0  0  0  0
   -4.0833    2.9000    0.0000 C   0  0  0  0  0  0  0  0  0  0  0  0
   -1.5458   -0.4792    0.0000 C   0  0  0  0  0  0  0  0  0  0  0  0
    2.7792   -1.0000    0.0000 C   0  0  0  0  0  0  0  0  0  0  0  0
   -3.9000    1.1833    0.0000 C   0  0  0  0  0  0  0  0  0  0  0  0
   -4.4958    1.9958    0.0000 C   0  0  0  0  0  0  0  0  0  0  0  0
  1  2  1  0
  1  3  1  0
  2  4  1  0
  1  5  2  0
  3  6  1  0
  5  7  1  0
  8 10  1  0
  3  9  2  0
 10 12  1  0
  8 11  1  0
  6 12  1  0
  2 13  1  0
 11 14  1  0
  9 15  1  0
 14 16  2  0
  8 17  2  0
 16 18  1  0
 14 19  1  0
 20 23  1  0
  6 21  1  0
  5 22  1  0
 19 23  2  0
 20 24  1  0
 25 27  1  0
  7 26  1  0
 21 27  1  0
 16 28  1  0
 22 29  1  0
 29 30  1  0
  4  7  2  0
 13 15  2  0
 26 30  1  0
 10 25  1  0
 18 20  2  0
M  END
>  <MOLFORMULA>  (216) 
C23 H26 F N5 O

>  <MOLWEIGHT>  (216) 
4.074904000000000e+002

>  <IDNUMBER>  (216) 
AT-687/PE21875

>  <PRICE>  (216) 
EUR 80/10 mg

>  <Similarity score>  (216) 
0.23

$$$$

     RDKit          2D

 29 33  0  0  0  0  0  0  0  0999 V2000
    0.1667   -2.7583    0.0000 N   0  0  0  0  0  0  0  0  0  0  0  0
   -0.2417   -1.8417    0.0000 C   0  0  0  0  0  0  0  0  0  0  0  0
    1.1625   -2.6500    0.0000 C   0  0  0  0  0  0  0  0  0  0  0  0
   -0.6208    1.2208    0.0000 C   0  0  0  0  0  0  0  0  0  0  0  0
    0.5042   -1.1750    0.0000 C   0  0  0  0  0  0  0  0  0  0  0  0
    0.1875    1.8083    0.0000 C   0  0  0  0  0  0  0  0  0  0  0  0
    1.3667   -1.6750    0.0000 C   0  0  0  0  0  0  0  0  0  0  0  0
    0.4000   -0.1792    0.0000 N   0  0  0  0  0  0  0  0  0  0  0  0
   -1.4292    1.8083    0.0000 N   0  0  0  0  0  0  0  0  0  0  0  0
   -0.1208    2.7625    0.0000 C   0  0  0  0  0  0  0  0  0  0  0  0
   -1.1208    2.7625    0.0000 C   0  0  0  0  0  0  0  0  0  0  0  0
   -0.3333   -3.6208    0.0000 C   0  0  0  0  0  0  0  0  0  0  0  0
   -0.5167    0.2292    0.0000 C   0  0  0  0  0  0  0  0  0  0  0  0
    1.1042    1.4042    0.0000 C   0  0  0  0  0  0  0  0  0  0  0  0
   -1.2208   -1.6333    0.0000 O   0  0  0  0  0  0  0  0  0  0  0  0
    1.2083    0.4083    0.0000 C   0  0  0  0  0  0  0  0  0  0  0  0
    1.8292   -3.3958    0.0000 O   0  0  0  0  0  0  0  0  0  0  0  0
    0.3792    3.6250    0.0000 C   0  0  0  0  0  0  0  0  0  0  0  0
    0.1667   -4.4875    0.0000 C   0  0  0  0  0  0  0  0  0  0  0  0
   -1.6208    3.6250    0.0000 C   0  0  0  0  0  0  0  0  0  0  0  0
   -0.1208    4.4875    0.0000 C   0  0  0  0  0  0  0  0  0  0  0  0
    1.1667   -4.4875    0.0000 F   0  0  0  0  0  0  0  0  0  0  0  0
   -1.1208    4.4875    0.0000 C   0  0  0  0  0  0  0  0  0  0  0  0
   -1.3333   -3.6208    0.0000 C   0  0  0  0  0  0  0  0  0  0  0  0
    0.3792    5.3542    0.0000 O   0  0  0  0  0  0  0  0  0  0  0  0
   -0.3333   -5.3542    0.0000 C   0  0  0  0  0  0  0  0  0  0  0  0
    1.3792    5.3542    0.0000 C   0  0  0  0  0  0  0  0  0  0  0  0
   -1.8333   -4.4875    0.0000 C   0  0  0  0  0  0  0  0  0  0  0  0
   -1.3333   -5.3542    0.0000 C   0  0  0  0  0  0  0  0  0  0  0  0
  1  2  1  0
  1  3  1  0
  4 13  1  0
  2  5  1  0
  6 14  1  0
  3  7  1  0
  5  8  1  0
  4  9  1  0
  6 10  1  0
  9 11  1  0
  1 12  1  0
  8 13  1  0
 14 16  1  0
  2 15  2  0
  8 16  1  0
  3 17  2  0
 10 18  2  0
 12 19  2  0
 11 20  2  0
 18 21  1  0
 19 22  1  0
 20 23  1  0
 12 24  1  0
 21 25  1  0
 19 26  1  0
 25 27  1  0
 24 28  2  0
 28 29  1  0
  5  7  1  0
 26 29  2  0
  4  6  2  0
 10 11  1  0
 21 23  2  0
M  END
>  <MOLFORMULA>  (217) 
C22 H20 F N3 O3

>  <MOLWEIGHT>  (217) 
3.934160000000000e+002

>  <IDNUMBER>  (217) 
AN-153/NB21458

>  <PRICE>  (217) 
EUR 130/10 mg

>  <Similarity score>  (217) 
0.23

$$$$

     RDKit          2D

 23 26  0  0  0  0  0  0  0  0999 V2000
    0.0583   -3.6208    0.0000 N   0  0  0  0  0  0  0  0  0  0  0  0
   -0.3458   -2.7083    0.0000 C   0  0  0  0  0  0  0  0  0  0  0  0
   -0.7250    0.3542    0.0000 C   0  0  0  0  0  0  0  0  0  0  0  0
    1.0542   -3.5167    0.0000 C   0  0  0  0  0  0  0  0  0  0  0  0
    0.3958   -2.0417    0.0000 C   0  0  0  0  0  0  0  0  0  0  0  0
    0.0833    0.9417    0.0000 C   0  0  0  0  0  0  0  0  0  0  0  0
    0.2917   -1.0458    0.0000 N   0  0  0  0  0  0  0  0  0  0  0  0
    1.2625   -2.5417    0.0000 C   0  0  0  0  0  0  0  0  0  0  0  0
   -1.5375    0.9417    0.0000 N   0  0  0  0  0  0  0  0  0  0  0  0
   -0.2250    1.8958    0.0000 C   0  0  0  0  0  0  0  0  0  0  0  0
   -1.2292    1.8958    0.0000 C   0  0  0  0  0  0  0  0  0  0  0  0
   -0.6208   -0.6375    0.0000 C   0  0  0  0  0  0  0  0  0  0  0  0
    0.9958    0.5375    0.0000 C   0  0  0  0  0  0  0  0  0  0  0  0
    1.1000   -0.4583    0.0000 C   0  0  0  0  0  0  0  0  0  0  0  0
   -1.3250   -2.5000    0.0000 O   0  0  0  0  0  0  0  0  0  0  0  0
    1.7250   -4.2625    0.0000 O   0  0  0  0  0  0  0  0  0  0  0  0
    0.2750    2.7625    0.0000 C   0  0  0  0  0  0  0  0  0  0  0  0
   -1.7250    2.7625    0.0000 C   0  0  0  0  0  0  0  0  0  0  0  0
   -0.4417   -4.4875    0.0000 C   0  0  0  0  0  0  0  0  0  0  0  0
   -0.2250    3.6250    0.0000 C   0  0  0  0  0  0  0  0  0  0  0  0
   -1.2292    3.6250    0.0000 C   0  0  0  0  0  0  0  0  0  0  0  0
    0.2750    4.4875    0.0000 O   0  0  0  0  0  0  0  0  0  0  0  0
    1.2750    4.4875    0.0000 C   0  0  0  0  0  0  0  0  0  0  0  0
  1  2  1  0
  3 12  1  0
  1  4  1  0
  2  5  1  0
  6 13  1  0
  5  7  1  0
  4  8  1  0
  3  9  1  0
  6 10  1  0
  9 11  1  0
  7 12  1  0
 13 14  1  0
  7 14  1  0
  2 15  2  0
  4 16  2  0
 10 17  2  0
 11 18  2  0
  1 19  1  0
 17 20  1  0
 18 21  1  0
 20 22  1  0
 22 23  1  0
  5  8  1  0
  3  6  2  0
 10 11  1  0
 20 21  2  0
M  END
>  <MOLFORMULA>  (218) 
C17 H19 N3 O3

>  <MOLWEIGHT>  (218) 
3.133551000000000e+002

>  <IDNUMBER>  (218) 
AN-153/NB26453

>  <PRICE>  (218) 
EUR 130/10 mg

>  <Similarity score>  (218) 
0.23

$$$$

     RDKit          2D

 31 35  0  0  0  0  0  0  0  0999 V2000
   -1.5458    2.9875    0.0000 C   0  0  0  0  0  0  0  0  0  0  0  0
   -1.5458    3.9875    0.0000 N   0  0  0  0  0  0  0  0  0  0  0  0
   -0.6833    2.4958    0.0000 C   0  0  0  0  0  0  0  0  0  0  0  0
   -2.5083    4.2917    0.0000 N   0  0  0  0  0  0  0  0  0  0  0  0
   -2.5083    2.6833    0.0000 C   0  0  0  0  0  0  0  0  0  0  0  0
   -0.6833    1.4958    0.0000 N   0  0  0  0  0  0  0  0  0  0  0  0
   -3.0958    3.4958    0.0000 C   0  0  0  0  0  0  0  0  0  0  0  0
    0.1792    2.9875    0.0000 N   0  0  0  0  0  0  0  0  0  0  0  0
    0.1750   -0.0042    0.0000 C   0  0  0  0  0  0  0  0  0  0  0  0
    1.0417   -0.5125    0.0000 C   0  0  0  0  0  0  0  0  0  0  0  0
   -0.6833    4.4917    0.0000 C   0  0  0  0  0  0  0  0  0  0  0  0
    0.1792    1.0000    0.0000 C   0  0  0  0  0  0  0  0  0  0  0  0
    3.6167   -2.0125    0.0000 C   0  0  0  0  0  0  0  0  0  0  0  0
    0.1792    3.9875    0.0000 C   0  0  0  0  0  0  0  0  0  0  0  0
    2.7667   -1.5000    0.0000 C   0  0  0  0  0  0  0  0  0  0  0  0
    1.9042   -0.0042    0.0000 N   0  0  0  0  0  0  0  0  0  0  0  0
    3.6125   -3.0042    0.0000 C   0  0  0  0  0  0  0  0  0  0  0  0
    2.7750   -0.5125    0.0000 C   0  0  0  0  0  0  0  0  0  0  0  0
    1.0375   -1.5042    0.0000 O   0  0  0  0  0  0  0  0  0  0  0  0
    1.8917   -1.9875    0.0000 C   0  0  0  0  0  0  0  0  0  0  0  0
    2.7542   -3.5000    0.0000 C   0  0  0  0  0  0  0  0  0  0  0  0
    4.4917   -1.5042    0.0000 F   0  0  0  0  0  0  0  0  0  0  0  0
   -1.5458    1.0000    0.0000 C   0  0  0  0  0  0  0  0  0  0  0  0
   -2.9125    1.7708    0.0000 C   0  0  0  0  0  0  0  0  0  0  0  0
    1.8792   -2.9917    0.0000 C   0  0  0  0  0  0  0  0  0  0  0  0
    2.7292   -4.4917    0.0000 F   0  0  0  0  0  0  0  0  0  0  0  0
   -0.6958   -0.5000    0.0000 C   0  0  0  0  0  0  0  0  0  0  0  0
   -4.0833    3.3833    0.0000 C   0  0  0  0  0  0  0  0  0  0  0  0
   -1.5583   -0.0000    0.0000 C   0  0  0  0  0  0  0  0  0  0  0  0
   -3.9083    1.6708    0.0000 C   0  0  0  0  0  0  0  0  0  0  0  0
   -4.4958    2.4750    0.0000 C   0  0  0  0  0  0  0  0  0  0  0  0
  1  2  1  0
  1  3  1  0
  2  4  1  0
  1  5  2  0
  3  6  1  0
  5  7  1  0
  3  8  2  0
  9 12  1  0
  9 10  1  0
  2 11  1  0
  6 12  1  0
 13 15  2  0
  8 14  1  0
 15 18  1  0
 10 16  1  0
 13 17  1  0
 16 18  1  0
 10 19  2  0
 15 20  1  0
 21 25  1  0
 13 22  1  0
  6 23  1  0
  5 24  1  0
 20 25  2  0
 21 26  1  0
 27 29  1  0
  7 28  1  0
 23 29  1  0
 24 30  1  0
 30 31  1  0
  4  7  2  0
 11 14  2  0
 28 31  1  0
  9 27  1  0
 17 21  2  0
M  END
>  <MOLFORMULA>  (219) 
C23 H25 F2 N5 O

>  <MOLWEIGHT>  (219) 
4.254805000000000e+002

>  <IDNUMBER>  (219) 
AT-687/PE21892

>  <PRICE>  (219) 
EUR 80/10 mg

>  <Similarity score>  (219) 
0.23

$$$$

     RDKit          2D

 31 35  0  0  0  0  0  0  0  0999 V2000
    0.1667   -1.4583    0.0000 N   0  0  0  0  0  0  0  0  0  0  0  0
   -0.2417   -0.5458    0.0000 C   0  0  0  0  0  0  0  0  0  0  0  0
    1.1625   -1.3542    0.0000 C   0  0  0  0  0  0  0  0  0  0  0  0
   -0.6208    2.5208    0.0000 C   0  0  0  0  0  0  0  0  0  0  0  0
    0.5042    0.1250    0.0000 C   0  0  0  0  0  0  0  0  0  0  0  0
    0.1875    3.1083    0.0000 C   0  0  0  0  0  0  0  0  0  0  0  0
    1.3667   -0.3750    0.0000 C   0  0  0  0  0  0  0  0  0  0  0  0
    0.3958    1.1208    0.0000 N   0  0  0  0  0  0  0  0  0  0  0  0
   -1.4292    3.1083    0.0000 N   0  0  0  0  0  0  0  0  0  0  0  0
   -0.1208    4.0542    0.0000 C   0  0  0  0  0  0  0  0  0  0  0  0
   -1.1208    4.0542    0.0000 C   0  0  0  0  0  0  0  0  0  0  0  0
   -0.5167    1.5250    0.0000 C   0  0  0  0  0  0  0  0  0  0  0  0
   -0.3333   -2.3250    0.0000 C   0  0  0  0  0  0  0  0  0  0  0  0
    1.1042    2.7000    0.0000 C   0  0  0  0  0  0  0  0  0  0  0  0
   -1.2208   -0.3375    0.0000 O   0  0  0  0  0  0  0  0  0  0  0  0
    1.2083    1.7083    0.0000 C   0  0  0  0  0  0  0  0  0  0  0  0
    1.8292   -2.0958    0.0000 O   0  0  0  0  0  0  0  0  0  0  0  0
   -1.3333   -5.7875    0.0000 C   0  0  0  0  0  0  0  0  0  0  0  0
    0.3792    4.9208    0.0000 C   0  0  0  0  0  0  0  0  0  0  0  0
   -1.8333   -4.9208    0.0000 N   0  0  0  0  0  0  0  0  0  0  0  0
   -1.6208    4.9208    0.0000 C   0  0  0  0  0  0  0  0  0  0  0  0
   -1.8333   -6.6542    0.0000 O   0  0  0  0  0  0  0  0  0  0  0  0
    0.1667   -3.1917    0.0000 C   0  0  0  0  0  0  0  0  0  0  0  0
   -1.3333   -2.3250    0.0000 C   0  0  0  0  0  0  0  0  0  0  0  0
   -1.3333   -4.0542    0.0000 C   0  0  0  0  0  0  0  0  0  0  0  0
   -0.1208    5.7875    0.0000 C   0  0  0  0  0  0  0  0  0  0  0  0
   -1.1208    5.7875    0.0000 C   0  0  0  0  0  0  0  0  0  0  0  0
   -1.8333   -3.1917    0.0000 C   0  0  0  0  0  0  0  0  0  0  0  0
   -0.3333   -4.0542    0.0000 C   0  0  0  0  0  0  0  0  0  0  0  0
    0.3792    6.6542    0.0000 Cl  0  0  0  0  0  0  0  0  0  0  0  0
   -0.3333   -5.7875    0.0000 C   0  0  0  0  0  0  0  0  0  0  0  0
  1  2  1  0
  1  3  1  0
  4 12  1  0
  2  5  1  0
  6 14  1  0
  3  7  1  0
  5  8  1  0
  4  9  1  0
  6 10  1  0
  9 11  1  0
  8 12  1  0
  1 13  1  0
 14 16  1  0
  2 15  2  0
  8 16  1  0
  3 17  2  0
 18 20  1  0
 10 19  2  0
 20 25  1  0
 11 21  2  0
 18 22  2  0
 13 23  1  0
 13 24  2  0
 25 28  2  0
 19 26  1  0
 21 27  1  0
 24 28  1  0
 23 29  2  0
 26 30  1  0
 18 31  1  0
  5  7  1  0
 25 29  1  0
  4  6  2  0
 10 11  1  0
 26 27  2  0
M  END
>  <MOLFORMULA>  (220) 
C23 H21 Cl N4 O3

>  <MOLWEIGHT>  (220) 
4.368969000000000e+002

>  <IDNUMBER>  (220) 
AN-153/NB21472

>  <PRICE>  (220) 
EUR 130/10 mg

>  <Similarity score>  (220) 
0.23

$$$$

     RDKit          2D

 30 34  0  0  0  0  0  0  0  0999 V2000
    0.6667   -2.3250    0.0000 N   0  0  0  0  0  0  0  0  0  0  0  0
    0.2583   -1.4083    0.0000 C   0  0  0  0  0  0  0  0  0  0  0  0
    1.6625   -2.2208    0.0000 C   0  0  0  0  0  0  0  0  0  0  0  0
   -0.1208    1.6542    0.0000 C   0  0  0  0  0  0  0  0  0  0  0  0
    1.0042   -0.7417    0.0000 C   0  0  0  0  0  0  0  0  0  0  0  0
    0.6875    2.2417    0.0000 C   0  0  0  0  0  0  0  0  0  0  0  0
    1.8667   -1.2417    0.0000 C   0  0  0  0  0  0  0  0  0  0  0  0
    0.8958    0.2542    0.0000 N   0  0  0  0  0  0  0  0  0  0  0  0
   -0.9292    2.2417    0.0000 N   0  0  0  0  0  0  0  0  0  0  0  0
    0.1667   -3.1917    0.0000 C   0  0  0  0  0  0  0  0  0  0  0  0
    0.3792    3.1917    0.0000 C   0  0  0  0  0  0  0  0  0  0  0  0
   -0.6208    3.1917    0.0000 C   0  0  0  0  0  0  0  0  0  0  0  0
   -0.0167    0.6583    0.0000 C   0  0  0  0  0  0  0  0  0  0  0  0
   -0.8333   -3.1917    0.0000 C   0  0  0  0  0  0  0  0  0  0  0  0
    1.6042    1.8375    0.0000 C   0  0  0  0  0  0  0  0  0  0  0  0
   -1.3333   -4.0542    0.0000 C   0  0  0  0  0  0  0  0  0  0  0  0
   -0.7208   -1.2042    0.0000 O   0  0  0  0  0  0  0  0  0  0  0  0
    1.7083    0.8417    0.0000 C   0  0  0  0  0  0  0  0  0  0  0  0
    2.3292   -2.9625    0.0000 O   0  0  0  0  0  0  0  0  0  0  0  0
    0.8792    4.0542    0.0000 C   0  0  0  0  0  0  0  0  0  0  0  0
    0.6667   -4.0542    0.0000 C   0  0  0  0  0  0  0  0  0  0  0  0
   -0.8333   -4.9208    0.0000 C   0  0  0  0  0  0  0  0  0  0  0  0
   -1.1208    4.0542    0.0000 C   0  0  0  0  0  0  0  0  0  0  0  0
    0.1667   -4.9208    0.0000 C   0  0  0  0  0  0  0  0  0  0  0  0
    0.3792    4.9208    0.0000 C   0  0  0  0  0  0  0  0  0  0  0  0
   -2.3333   -4.0542    0.0000 Cl  0  0  0  0  0  0  0  0  0  0  0  0
   -1.3333   -5.7875    0.0000 F   0  0  0  0  0  0  0  0  0  0  0  0
   -0.6208    4.9208    0.0000 C   0  0  0  0  0  0  0  0  0  0  0  0
    0.8792    5.7875    0.0000 O   0  0  0  0  0  0  0  0  0  0  0  0
    1.8792    5.7875    0.0000 C   0  0  0  0  0  0  0  0  0  0  0  0
  1  2  1  0
  1  3  1  0
  4 13  1  0
  2  5  1  0
  6 15  1  0
  3  7  1  0
  5  8  1  0
  4  9  1  0
  1 10  1  0
  6 11  1  0
  9 12  1  0
  8 13  1  0
 10 14  2  0
 15 18  1  0
 14 16  1  0
  2 17  2  0
  8 18  1  0
  3 19  2  0
 11 20  2  0
 10 21  1  0
 22 24  1  0
 12 23  2  0
 21 24  2  0
 20 25  1  0
 16 26  1  0
 22 27  1  0
 23 28  1  0
 25 29  1  0
 29 30  1  0
  5  7  1  0
 16 22  2  0
  4  6  2  0
 11 12  1  0
 25 28  2  0
M  END
>  <MOLFORMULA>  (221) 
C22 H19 Cl F N3 O3

>  <MOLWEIGHT>  (221) 
4.278611000000000e+002

>  <IDNUMBER>  (221) 
AN-153/NB21461

>  <PRICE>  (221) 
EUR 130/10 mg

>  <Similarity score>  (221) 
0.23

$$$$

     RDKit          2D

 28 31  0  0  0  0  0  0  0  0999 V2000
    6.1375    1.5083    0.0000 C   0  0  0  0  0  0  0  0  0  0  0  0
    6.1375    2.3333    0.0000 C   0  0  0  0  0  0  0  0  0  0  0  0
    6.8542    1.0958    0.0000 N   0  0  0  0  0  0  0  0  0  0  0  0
    5.4167    1.0958    0.0000 N   0  0  0  0  0  0  0  0  0  0  0  0
    7.5667    2.3333    0.0000 N   0  0  0  0  0  0  0  0  0  0  0  0
    6.8542    2.7458    0.0000 C   0  0  0  0  0  0  0  0  0  0  0  0
    7.5667    1.5083    0.0000 C   0  0  0  0  0  0  0  0  0  0  0  0
    3.2792   -0.9667    0.0000 C   0  0  0  0  0  0  0  0  0  0  0  0
    3.2792   -0.1417    0.0000 N   0  0  0  0  0  0  0  0  0  0  0  0
    4.7042    1.5083    0.0000 C   0  0  0  0  0  0  0  0  0  0  0  0
    5.4167    0.2708    0.0000 C   0  0  0  0  0  0  0  0  0  0  0  0
    3.9917   -1.3875    0.0000 O   0  0  0  0  0  0  0  0  0  0  0  0
    2.5667   -1.3792    0.0000 O   0  0  0  0  0  0  0  0  0  0  0  0
    4.7042   -0.1417    0.0000 C   0  0  0  0  0  0  0  0  0  0  0  0
    4.0000    1.0958    0.0000 C   0  0  0  0  0  0  0  0  0  0  0  0
    4.0000    0.2708    0.0000 C   0  0  0  0  0  0  0  0  0  0  0  0
    5.4167    2.7500    0.0000 C   0  0  0  0  0  0  0  0  0  0  0  0
    2.5667   -2.2042    0.0000 C   0  0  0  0  0  0  0  0  0  0  0  0
    1.8542   -2.6167    0.0000 C   0  0  0  0  0  0  0  0  0  0  0  0
    6.8542    3.5583    0.0000 C   0  0  0  0  0  0  0  0  0  0  0  0
    8.2792    1.0958    0.0000 C   0  0  0  0  0  0  0  0  0  0  0  0
    1.8542   -3.4417    0.0000 C   0  0  0  0  0  0  0  0  0  0  0  0
    1.1292   -2.2042    0.0000 C   0  0  0  0  0  0  0  0  0  0  0  0
    5.4292    3.5625    0.0000 C   0  0  0  0  0  0  0  0  0  0  0  0
    6.1417    3.9833    0.0000 C   0  0  0  0  0  0  0  0  0  0  0  0
    0.4250   -2.6167    0.0000 C   0  0  0  0  0  0  0  0  0  0  0  0
    1.1292   -3.8542    0.0000 C   0  0  0  0  0  0  0  0  0  0  0  0
    0.4250   -3.4417    0.0000 C   0  0  0  0  0  0  0  0  0  0  0  0
  1  2  1  0
  1  3  2  0
  1  4  1  0
  5  7  2  0
  2  6  2  0
  3  7  1  0
  8  9  1  0
  9 16  1  0
  4 10  1  0
  4 11  1  0
  8 12  2  0
  8 13  1  0
 11 14  1  0
 10 15  1  0
 14 16  1  0
  2 17  1  0
 13 18  1  0
 18 19  1  0
  6 20  1  0
  7 21  1  0
 19 22  2  0
 19 23  1  0
 17 24  1  0
 24 25  1  0
 23 26  2  0
 22 27  1  0
 26 28  1  0
  5  6  1  0
 15 16  1  0
 20 25  1  0
 27 28  2  0
M  END
>  <MOLFORMULA>  (222) 
C22 H28 N4 O2

>  <MOLWEIGHT>  (222) 
3.804892000000000e+002

>  <IDNUMBER>  (222) 
AT-687/SK01669

>  <PRICE>  (222) 
EUR 80/10 mg

>  <Similarity score>  (222) 
0.23

$$$$

     RDKit          2D

 29 33  0  0  0  0  0  0  0  0999 V2000
    0.1667   -2.7583    0.0000 N   0  0  0  0  0  0  0  0  0  0  0  0
   -0.2417   -1.8417    0.0000 C   0  0  0  0  0  0  0  0  0  0  0  0
    1.1625   -2.6500    0.0000 C   0  0  0  0  0  0  0  0  0  0  0  0
   -0.6208    1.2208    0.0000 C   0  0  0  0  0  0  0  0  0  0  0  0
    0.5042   -1.1750    0.0000 C   0  0  0  0  0  0  0  0  0  0  0  0
    0.1875    1.8083    0.0000 C   0  0  0  0  0  0  0  0  0  0  0  0
    1.3667   -1.6750    0.0000 C   0  0  0  0  0  0  0  0  0  0  0  0
    0.3958   -0.1792    0.0000 N   0  0  0  0  0  0  0  0  0  0  0  0
   -1.4292    1.8083    0.0000 N   0  0  0  0  0  0  0  0  0  0  0  0
   -0.1208    2.7625    0.0000 C   0  0  0  0  0  0  0  0  0  0  0  0
   -1.1208    2.7625    0.0000 C   0  0  0  0  0  0  0  0  0  0  0  0
   -0.3333   -3.6208    0.0000 C   0  0  0  0  0  0  0  0  0  0  0  0
   -0.5167    0.2292    0.0000 C   0  0  0  0  0  0  0  0  0  0  0  0
    1.1042    1.4042    0.0000 C   0  0  0  0  0  0  0  0  0  0  0  0
   -1.2208   -1.6333    0.0000 O   0  0  0  0  0  0  0  0  0  0  0  0
    1.2083    0.4083    0.0000 C   0  0  0  0  0  0  0  0  0  0  0  0
    1.8292   -3.3958    0.0000 O   0  0  0  0  0  0  0  0  0  0  0  0
    0.3792    3.6250    0.0000 C   0  0  0  0  0  0  0  0  0  0  0  0
    0.1667   -4.4875    0.0000 C   0  0  0  0  0  0  0  0  0  0  0  0
   -1.6208    3.6250    0.0000 C   0  0  0  0  0  0  0  0  0  0  0  0
   -0.1208    4.4875    0.0000 C   0  0  0  0  0  0  0  0  0  0  0  0
   -1.1208    4.4875    0.0000 C   0  0  0  0  0  0  0  0  0  0  0  0
    0.3792    5.3542    0.0000 F   0  0  0  0  0  0  0  0  0  0  0  0
    1.1667   -4.4875    0.0000 O   0  0  0  0  0  0  0  0  0  0  0  0
   -1.3333   -3.6208    0.0000 C   0  0  0  0  0  0  0  0  0  0  0  0
   -0.3333   -5.3542    0.0000 C   0  0  0  0  0  0  0  0  0  0  0  0
    1.6667   -5.3542    0.0000 C   0  0  0  0  0  0  0  0  0  0  0  0
   -1.8333   -4.4875    0.0000 C   0  0  0  0  0  0  0  0  0  0  0  0
   -1.3333   -5.3542    0.0000 C   0  0  0  0  0  0  0  0  0  0  0  0
  1  2  1  0
  1  3  1  0
  4 13  1  0
  2  5  1  0
  6 14  1  0
  3  7  1  0
  5  8  1  0
  4  9  1  0
  6 10  1  0
  9 11  1  0
  1 12  1  0
  8 13  1  0
 14 16  1  0
  2 15  2  0
  8 16  1  0
  3 17  2  0
 10 18  2  0
 12 19  2  0
 11 20  2  0
 18 21  1  0
 20 22  1  0
 21 23  1  0
 19 24  1  0
 12 25  1  0
 19 26  1  0
 24 27  1  0
 25 28  2  0
 28 29  1  0
  5  7  1  0
 26 29  2  0
  4  6  2  0
 10 11  1  0
 21 22  2  0
M  END
>  <MOLFORMULA>  (223) 
C22 H20 F N3 O3

>  <MOLWEIGHT>  (223) 
3.934160000000000e+002

>  <IDNUMBER>  (223) 
AN-153/NB21470

>  <PRICE>  (223) 
EUR 130/10 mg

>  <Similarity score>  (223) 
0.23

$$$$

     RDKit          2D

 32 36  0  0  0  0  0  0  0  0999 V2000
   -1.9833    2.5083    0.0000 C   0  0  0  0  0  0  0  0  0  0  0  0
   -1.9833    3.5208    0.0000 N   0  0  0  0  0  0  0  0  0  0  0  0
   -1.1208    2.0208    0.0000 C   0  0  0  0  0  0  0  0  0  0  0  0
   -2.9375    3.8208    0.0000 N   0  0  0  0  0  0  0  0  0  0  0  0
   -2.9375    2.1958    0.0000 C   0  0  0  0  0  0  0  0  0  0  0  0
   -1.1208    1.0083    0.0000 N   0  0  0  0  0  0  0  0  0  0  0  0
   -3.5208    3.0083    0.0000 C   0  0  0  0  0  0  0  0  0  0  0  0
    0.6042   -0.9917    0.0000 C   0  0  0  0  0  0  0  0  0  0  0  0
   -0.2500    2.5083    0.0000 N   0  0  0  0  0  0  0  0  0  0  0  0
   -0.2583   -0.4917    0.0000 C   0  0  0  0  0  0  0  0  0  0  0  0
    0.6042   -2.0000    0.0000 N   0  0  0  0  0  0  0  0  0  0  0  0
   -0.2500    0.5125    0.0000 C   0  0  0  0  0  0  0  0  0  0  0  0
   -1.1208    4.0042    0.0000 C   0  0  0  0  0  0  0  0  0  0  0  0
    1.4667   -2.4917    0.0000 C   0  0  0  0  0  0  0  0  0  0  0  0
   -0.2500    3.5208    0.0000 C   0  0  0  0  0  0  0  0  0  0  0  0
    2.3417   -2.0000    0.0000 C   0  0  0  0  0  0  0  0  0  0  0  0
    3.2000   -2.5125    0.0000 C   0  0  0  0  0  0  0  0  0  0  0  0
    1.4750   -0.5000    0.0000 O   0  0  0  0  0  0  0  0  0  0  0  0
    1.4542   -3.4917    0.0000 C   0  0  0  0  0  0  0  0  0  0  0  0
    3.2000   -3.5042    0.0000 C   0  0  0  0  0  0  0  0  0  0  0  0
   -1.9833    0.5125    0.0000 C   0  0  0  0  0  0  0  0  0  0  0  0
   -3.3458    1.2833    0.0000 C   0  0  0  0  0  0  0  0  0  0  0  0
    2.3167   -4.0000    0.0000 C   0  0  0  0  0  0  0  0  0  0  0  0
    2.3542   -1.0042    0.0000 O   0  0  0  0  0  0  0  0  0  0  0  0
   -1.1250   -0.9792    0.0000 C   0  0  0  0  0  0  0  0  0  0  0  0
   -4.5208    2.9000    0.0000 C   0  0  0  0  0  0  0  0  0  0  0  0
    4.0542   -4.0042    0.0000 O   0  0  0  0  0  0  0  0  0  0  0  0
   -1.9833   -0.4792    0.0000 C   0  0  0  0  0  0  0  0  0  0  0  0
    3.2292   -0.5167    0.0000 C   0  0  0  0  0  0  0  0  0  0  0  0
    4.9250   -3.5167    0.0000 C   0  0  0  0  0  0  0  0  0  0  0  0
   -4.3458    1.1833    0.0000 C   0  0  0  0  0  0  0  0  0  0  0  0
   -4.9333    1.9958    0.0000 C   0  0  0  0  0  0  0  0  0  0  0  0
  1  2  1  0
  1  3  1  0
  2  4  1  0
  1  5  2  0
  3  6  1  0
  5  7  1  0
  8 10  1  0
  3  9  2  0
 10 12  1  0
  8 11  1  0
  6 12  1  0
  2 13  1  0
 11 14  1  0
  9 15  1  0
 14 16  2  0
 16 17  1  0
  8 18  2  0
 14 19  1  0
 20 23  1  0
  6 21  1  0
  5 22  1  0
 19 23  2  0
 16 24  1  0
 25 28  1  0
  7 26  1  0
 20 27  1  0
 21 28  1  0
 24 29  1  0
 27 30  1  0
 22 31  1  0
 31 32  1  0
  4  7  2  0
 13 15  2  0
 26 32  1  0
 10 25  1  0
 17 20  2  0
M  END
>  <MOLFORMULA>  (224) 
C24 H29 N5 O3

>  <MOLWEIGHT>  (224) 
4.355251000000000e+002

>  <IDNUMBER>  (224) 
AT-687/PE21866

>  <PRICE>  (224) 
EUR 80/10 mg

>  <Similarity score>  (224) 
0.23

$$$$

     RDKit          2D

 33 37  0  0  0  0  0  0  0  0999 V2000
    1.2500   -1.0333    0.0000 N   0  0  0  0  0  0  0  0  0  0  0  0
    0.5000   -0.3708    0.0000 C   0  0  0  0  0  0  0  0  0  0  0  0
    2.1125   -0.5208    0.0000 C   0  0  0  0  0  0  0  0  0  0  0  0
   -1.1208    2.2542    0.0000 C   0  0  0  0  0  0  0  0  0  0  0  0
    0.8958    0.5458    0.0000 C   0  0  0  0  0  0  0  0  0  0  0  0
   -0.6333    3.1250    0.0000 C   0  0  0  0  0  0  0  0  0  0  0  0
    1.8917    0.4542    0.0000 C   0  0  0  0  0  0  0  0  0  0  0  0
    0.3875    1.4083    0.0000 N   0  0  0  0  0  0  0  0  0  0  0  0
   -2.1042    2.4500    0.0000 N   0  0  0  0  0  0  0  0  0  0  0  0
   -1.3083    3.8625    0.0000 C   0  0  0  0  0  0  0  0  0  0  0  0
   -2.2208    3.4458    0.0000 C   0  0  0  0  0  0  0  0  0  0  0  0
   -0.6125    1.3958    0.0000 C   0  0  0  0  0  0  0  0  0  0  0  0
    1.1583   -2.0292    0.0000 C   0  0  0  0  0  0  0  0  0  0  0  0
    0.3667    3.1375    0.0000 C   0  0  0  0  0  0  0  0  0  0  0  0
    0.8792   -5.0167    0.0000 C   0  0  0  0  0  0  0  0  0  0  0  0
   -0.4750   -0.5917    0.0000 O   0  0  0  0  0  0  0  0  0  0  0  0
    0.8792    2.2792    0.0000 C   0  0  0  0  0  0  0  0  0  0  0  0
    3.0292   -0.9167    0.0000 O   0  0  0  0  0  0  0  0  0  0  0  0
    0.9708   -4.0208    0.0000 C   0  0  0  0  0  0  0  0  0  0  0  0
   -1.2167    4.8542    0.0000 C   0  0  0  0  0  0  0  0  0  0  0  0
    1.6958   -5.5917    0.0000 O   0  0  0  0  0  0  0  0  0  0  0  0
   -3.0333    4.0208    0.0000 C   0  0  0  0  0  0  0  0  0  0  0  0
    0.2500   -2.4458    0.0000 C   0  0  0  0  0  0  0  0  0  0  0  0
    1.9750   -2.6083    0.0000 C   0  0  0  0  0  0  0  0  0  0  0  0
    0.1583   -3.4417    0.0000 C   0  0  0  0  0  0  0  0  0  0  0  0
    1.8833   -3.6042    0.0000 C   0  0  0  0  0  0  0  0  0  0  0  0
   -2.0333    5.4333    0.0000 C   0  0  0  0  0  0  0  0  0  0  0  0
   -0.0292   -5.4333    0.0000 O   0  0  0  0  0  0  0  0  0  0  0  0
   -2.9417    5.0167    0.0000 C   0  0  0  0  0  0  0  0  0  0  0  0
   -1.9417    6.4292    0.0000 O   0  0  0  0  0  0  0  0  0  0  0  0
   -0.1208   -6.4292    0.0000 C   0  0  0  0  0  0  0  0  0  0  0  0
   -1.0292    6.8458    0.0000 C   0  0  0  0  0  0  0  0  0  0  0  0
   -1.0292   -6.8458    0.0000 C   0  0  0  0  0  0  0  0  0  0  0  0
  1  2  1  0
  1  3  1  0
  4 12  1  0
  2  5  1  0
  6 14  1  0
  3  7  1  0
  5  8  1  0
  4  9  1  0
  6 10  1  0
  9 11  1  0
  8 12  1  0
  1 13  1  0
 14 17  1  0
 15 19  1  0
  2 16  2  0
  8 17  1  0
  3 18  2  0
 19 26  1  0
 10 20  2  0
 15 21  2  0
 11 22  2  0
 13 23  2  0
 13 24  1  0
 23 25  1  0
 24 26  2  0
 20 27  1  0
 15 28  1  0
 22 29  1  0
 27 30  1  0
 28 31  1  0
 30 32  1  0
 31 33  1  0
  5  7  1  0
 19 25  2  0
  4  6  2  0
 10 11  1  0
 27 29  2  0
M  END
>  <MOLFORMULA>  (225) 
C25 H25 N3 O5

>  <MOLWEIGHT>  (225) 
4.474885000000000e+002

>  <IDNUMBER>  (225) 
AN-153/NB21450

>  <PRICE>  (225) 
EUR 130/10 mg

>  <Similarity score>  (225) 
0.22

$$$$

     RDKit          2D

 33 37  0  0  0  0  0  0  0  0999 V2000
    4.7125    1.3000    0.0000 C   0  0  0  0  0  0  0  0  0  0  0  0
    2.6042   -2.7792    0.0000 C   0  0  0  0  0  0  0  0  0  0  0  0
    2.9417   -3.5375    0.0000 C   0  0  0  0  0  0  0  0  0  0  0  0
    4.4542    2.0958    0.0000 C   0  0  0  0  0  0  0  0  0  0  0  0
    5.1250    2.5708    0.0000 C   0  0  0  0  0  0  0  0  0  0  0  0
    5.7917    2.0958    0.0000 N   0  0  0  0  0  0  0  0  0  0  0  0
    1.7917   -2.6917    0.0000 N   0  0  0  0  0  0  0  0  0  0  0  0
    5.5375    1.3000    0.0000 N   0  0  0  0  0  0  0  0  0  0  0  0
    4.2250    0.6333    0.0000 C   0  0  0  0  0  0  0  0  0  0  0  0
    3.1000   -2.1167    0.0000 N   0  0  0  0  0  0  0  0  0  0  0  0
    1.6417   -4.1042    0.0000 N   0  0  0  0  0  0  0  0  0  0  0  0
    2.4417   -4.2042    0.0000 C   0  0  0  0  0  0  0  0  0  0  0  0
    5.1250    3.3833    0.0000 C   0  0  0  0  0  0  0  0  0  0  0  0
    1.3042   -3.3542    0.0000 C   0  0  0  0  0  0  0  0  0  0  0  0
    4.5542   -0.1167    0.0000 N   0  0  0  0  0  0  0  0  0  0  0  0
    3.9167   -2.2042    0.0000 C   0  0  0  0  0  0  0  0  0  0  0  0
    5.8292    3.7958    0.0000 C   0  0  0  0  0  0  0  0  0  0  0  0
    2.7625   -1.3542    0.0000 C   0  0  0  0  0  0  0  0  0  0  0  0
    4.4125    3.7958    0.0000 C   0  0  0  0  0  0  0  0  0  0  0  0
    3.4000    0.7250    0.0000 O   0  0  0  0  0  0  0  0  0  0  0  0
    4.0750   -0.7792    0.0000 C   0  0  0  0  0  0  0  0  0  0  0  0
    3.2500   -0.7000    0.0000 C   0  0  0  0  0  0  0  0  0  0  0  0
    4.4042   -1.5375    0.0000 C   0  0  0  0  0  0  0  0  0  0  0  0
    5.8292    4.6167    0.0000 C   0  0  0  0  0  0  0  0  0  0  0  0
    4.4125    4.6167    0.0000 C   0  0  0  0  0  0  0  0  0  0  0  0
    3.7667   -3.6292    0.0000 C   0  0  0  0  0  0  0  0  0  0  0  0
    5.1250    5.0292    0.0000 C   0  0  0  0  0  0  0  0  0  0  0  0
    2.7792   -4.9542    0.0000 C   0  0  0  0  0  0  0  0  0  0  0  0
    0.4875   -3.2625    0.0000 C   0  0  0  0  0  0  0  0  0  0  0  0
    6.5542    3.3833    0.0000 C   0  0  0  0  0  0  0  0  0  0  0  0
    3.6917    5.0292    0.0000 C   0  0  0  0  0  0  0  0  0  0  0  0
    4.0917   -4.3917    0.0000 C   0  0  0  0  0  0  0  0  0  0  0  0
    3.6000   -5.0500    0.0000 C   0  0  0  0  0  0  0  0  0  0  0  0
  2 10  1  0
  2  3  1  0
  1  4  2  0
  4  5  1  0
  6  8  1  0
  2  7  2  0
  1  8  1  0
  1  9  1  0
 10 16  1  0
 11 14  2  0
  3 12  2  0
  5 13  1  0
  7 14  1  0
  9 15  1  0
 16 23  1  0
 13 17  2  0
 18 22  1  0
 13 19  1  0
  9 20  2  0
 15 21  1  0
 21 22  1  0
 21 23  1  0
 17 24  1  0
 19 25  2  0
  3 26  1  0
 25 27  1  0
 12 28  1  0
 14 29  1  0
 17 30  1  0
 25 31  1  0
 26 32  1  0
 32 33  1  0
  5  6  2  0
 10 18  1  0
 24 27  2  0
 11 12  1  0
 28 33  1  0
M  END
>  <MOLFORMULA>  (226) 
C26 H32 N6 O

>  <MOLWEIGHT>  (226) 
4.445798000000000e+002

>  <IDNUMBER>  (226) 
AT-687/SK01688

>  <PRICE>  (226) 
EUR 80/10 mg

>  <Similarity score>  (226) 
0.22

$$$$

     RDKit          2D

 34 38  0  0  0  0  0  0  0  0999 V2000
    0.9167   -1.8917    0.0000 N   0  0  0  0  0  0  0  0  0  0  0  0
    0.5083   -0.9750    0.0000 C   0  0  0  0  0  0  0  0  0  0  0  0
    1.9125   -1.7875    0.0000 C   0  0  0  0  0  0  0  0  0  0  0  0
    0.1292    2.0875    0.0000 C   0  0  0  0  0  0  0  0  0  0  0  0
    1.2542   -0.3083    0.0000 C   0  0  0  0  0  0  0  0  0  0  0  0
    0.9375    2.6750    0.0000 C   0  0  0  0  0  0  0  0  0  0  0  0
    2.1167   -0.8083    0.0000 C   0  0  0  0  0  0  0  0  0  0  0  0
    1.1500    0.6875    0.0000 N   0  0  0  0  0  0  0  0  0  0  0  0
    0.4167   -2.7583    0.0000 C   0  0  0  0  0  0  0  0  0  0  0  0
   -0.6792    2.6750    0.0000 N   0  0  0  0  0  0  0  0  0  0  0  0
    0.6292    3.6250    0.0000 C   0  0  0  0  0  0  0  0  0  0  0  0
   -0.3708    3.6250    0.0000 C   0  0  0  0  0  0  0  0  0  0  0  0
    0.2333    1.0917    0.0000 C   0  0  0  0  0  0  0  0  0  0  0  0
   -0.5833   -4.4875    0.0000 C   0  0  0  0  0  0  0  0  0  0  0  0
    0.9167   -3.6208    0.0000 C   0  0  0  0  0  0  0  0  0  0  0  0
   -0.5833   -2.7583    0.0000 C   0  0  0  0  0  0  0  0  0  0  0  0
   -1.0833   -3.6208    0.0000 C   0  0  0  0  0  0  0  0  0  0  0  0
    0.4167   -4.4875    0.0000 C   0  0  0  0  0  0  0  0  0  0  0  0
    1.8542    2.2708    0.0000 C   0  0  0  0  0  0  0  0  0  0  0  0
   -0.4708   -0.7708    0.0000 O   0  0  0  0  0  0  0  0  0  0  0  0
    1.9583    1.2750    0.0000 C   0  0  0  0  0  0  0  0  0  0  0  0
    2.5792   -2.5292    0.0000 O   0  0  0  0  0  0  0  0  0  0  0  0
    1.1292    4.4875    0.0000 C   0  0  0  0  0  0  0  0  0  0  0  0
   -0.8708    4.4875    0.0000 C   0  0  0  0  0  0  0  0  0  0  0  0
    0.6292    5.3542    0.0000 C   0  0  0  0  0  0  0  0  0  0  0  0
   -1.0833   -5.3542    0.0000 O   0  0  0  0  0  0  0  0  0  0  0  0
    0.9167   -5.3542    0.0000 O   0  0  0  0  0  0  0  0  0  0  0  0
   -2.0833   -3.6208    0.0000 O   0  0  0  0  0  0  0  0  0  0  0  0
   -0.3708    5.3542    0.0000 C   0  0  0  0  0  0  0  0  0  0  0  0
    1.1292    6.2208    0.0000 O   0  0  0  0  0  0  0  0  0  0  0  0
   -0.5833   -6.2208    0.0000 C   0  0  0  0  0  0  0  0  0  0  0  0
    1.9167   -5.3542    0.0000 C   0  0  0  0  0  0  0  0  0  0  0  0
   -2.5833   -4.4875    0.0000 C   0  0  0  0  0  0  0  0  0  0  0  0
    2.1292    6.2208    0.0000 C   0  0  0  0  0  0  0  0  0  0  0  0
  1  2  1  0
  1  3  1  0
  4 13  1  0
  2  5  1  0
  6 19  1  0
  3  7  1  0
  5  8  1  0
  1  9  1  0
  4 10  1  0
  6 11  1  0
 10 12  1  0
  8 13  1  0
 14 18  1  0
  9 15  1  0
  9 16  2  0
 16 17  1  0
 15 18  2  0
 19 21  1  0
  2 20  2  0
  8 21  1  0
  3 22  2  0
 11 23  2  0
 12 24  2  0
 23 25  1  0
 14 26  1  0
 18 27  1  0
 17 28  1  0
 24 29  1  0
 25 30  1  0
 26 31  1  0
 27 32  1  0
 28 33  1  0
 30 34  1  0
  5  7  1  0
 14 17  2  0
  4  6  2  0
 11 12  1  0
 25 29  2  0
M  END
>  <MOLFORMULA>  (227) 
C25 H27 N3 O6

>  <MOLWEIGHT>  (227) 
4.655033000000000e+002

>  <IDNUMBER>  (227) 
AN-153/NB21467

>  <PRICE>  (227) 
EUR 130/10 mg

>  <Similarity score>  (227) 
0.22

$$$$

     RDKit          2D

 30 34  0  0  0  0  0  0  0  0999 V2000
    0.1667   -1.8917    0.0000 N   0  0  0  0  0  0  0  0  0  0  0  0
   -0.2417   -0.9750    0.0000 C   0  0  0  0  0  0  0  0  0  0  0  0
    1.1625   -1.7875    0.0000 C   0  0  0  0  0  0  0  0  0  0  0  0
   -0.6208    2.0875    0.0000 C   0  0  0  0  0  0  0  0  0  0  0  0
    0.5042   -0.3083    0.0000 C   0  0  0  0  0  0  0  0  0  0  0  0
    0.1875    2.6750    0.0000 C   0  0  0  0  0  0  0  0  0  0  0  0
    1.3667   -0.8083    0.0000 C   0  0  0  0  0  0  0  0  0  0  0  0
    0.3958    0.6875    0.0000 N   0  0  0  0  0  0  0  0  0  0  0  0
   -1.4292    2.6750    0.0000 N   0  0  0  0  0  0  0  0  0  0  0  0
   -0.1208    3.6250    0.0000 C   0  0  0  0  0  0  0  0  0  0  0  0
   -1.1208    3.6250    0.0000 C   0  0  0  0  0  0  0  0  0  0  0  0
   -0.5167    1.0917    0.0000 C   0  0  0  0  0  0  0  0  0  0  0  0
   -0.3333   -2.7583    0.0000 C   0  0  0  0  0  0  0  0  0  0  0  0
    1.1042    2.2708    0.0000 C   0  0  0  0  0  0  0  0  0  0  0  0
   -1.2208   -0.7708    0.0000 O   0  0  0  0  0  0  0  0  0  0  0  0
    1.2083    1.2750    0.0000 C   0  0  0  0  0  0  0  0  0  0  0  0
    1.8292   -2.5292    0.0000 O   0  0  0  0  0  0  0  0  0  0  0  0
    0.3792    4.4875    0.0000 C   0  0  0  0  0  0  0  0  0  0  0  0
   -1.6208    4.4875    0.0000 C   0  0  0  0  0  0  0  0  0  0  0  0
   -1.3333   -2.7583    0.0000 C   0  0  0  0  0  0  0  0  0  0  0  0
    0.1667   -3.6208    0.0000 C   0  0  0  0  0  0  0  0  0  0  0  0
   -0.1208    5.3542    0.0000 C   0  0  0  0  0  0  0  0  0  0  0  0
   -1.3333   -4.4875    0.0000 C   0  0  0  0  0  0  0  0  0  0  0  0
   -1.1208    5.3542    0.0000 C   0  0  0  0  0  0  0  0  0  0  0  0
   -1.8333   -3.6208    0.0000 C   0  0  0  0  0  0  0  0  0  0  0  0
   -0.3333   -4.4875    0.0000 C   0  0  0  0  0  0  0  0  0  0  0  0
    0.3792    6.2208    0.0000 O   0  0  0  0  0  0  0  0  0  0  0  0
   -1.8333   -5.3542    0.0000 O   0  0  0  0  0  0  0  0  0  0  0  0
    1.3792    6.2208    0.0000 C   0  0  0  0  0  0  0  0  0  0  0  0
   -1.3333   -6.2208    0.0000 C   0  0  0  0  0  0  0  0  0  0  0  0
  1  2  1  0
  1  3  1  0
  4 12  1  0
  2  5  1  0
  6 14  1  0
  3  7  1  0
  5  8  1  0
  4  9  1  0
  6 10  1  0
  9 11  1  0
  8 12  1  0
  1 13  1  0
 14 16  1  0
  2 15  2  0
  8 16  1  0
  3 17  2  0
 10 18  2  0
 11 19  2  0
 13 20  1  0
 13 21  2  0
 18 22  1  0
 23 25  1  0
 19 24  1  0
 20 25  2  0
 21 26  1  0
 22 27  1  0
 23 28  1  0
 27 29  1  0
 28 30  1  0
  5  7  1  0
 23 26  2  0
  4  6  2  0
 10 11  1  0
 22 24  2  0
M  END
>  <MOLFORMULA>  (228) 
C23 H23 N3 O4

>  <MOLWEIGHT>  (228) 
4.054517000000000e+002

>  <IDNUMBER>  (228) 
AN-153/NB21448

>  <PRICE>  (228) 
EUR 130/10 mg

>  <Similarity score>  (228) 
0.22

$$$$

     RDKit          2D

 32 36  0  0  0  0  0  0  0  0999 V2000
   -1.1250    3.2583    0.0000 C   0  0  0  0  0  0  0  0  0  0  0  0
   -1.1250    4.2417    0.0000 N   0  0  0  0  0  0  0  0  0  0  0  0
   -0.2708    2.7583    0.0000 C   0  0  0  0  0  0  0  0  0  0  0  0
   -2.0875    4.5542    0.0000 N   0  0  0  0  0  0  0  0  0  0  0  0
   -2.0875    2.9458    0.0000 C   0  0  0  0  0  0  0  0  0  0  0  0
   -0.2708    1.7583    0.0000 N   0  0  0  0  0  0  0  0  0  0  0  0
   -2.6708    3.7583    0.0000 C   0  0  0  0  0  0  0  0  0  0  0  0
    1.4625   -0.2417    0.0000 C   0  0  0  0  0  0  0  0  0  0  0  0
    0.6042    3.2583    0.0000 N   0  0  0  0  0  0  0  0  0  0  0  0
    0.5917    0.2500    0.0000 C   0  0  0  0  0  0  0  0  0  0  0  0
    1.4625   -1.2417    0.0000 N   0  0  0  0  0  0  0  0  0  0  0  0
    2.3167   -1.7500    0.0000 C   0  0  0  0  0  0  0  0  0  0  0  0
    0.6042    1.2583    0.0000 C   0  0  0  0  0  0  0  0  0  0  0  0
   -0.2708    4.7542    0.0000 C   0  0  0  0  0  0  0  0  0  0  0  0
    0.6042    4.2417    0.0000 C   0  0  0  0  0  0  0  0  0  0  0  0
    2.3125   -2.7500    0.0000 C   0  0  0  0  0  0  0  0  0  0  0  0
    3.1917   -1.2542    0.0000 C   0  0  0  0  0  0  0  0  0  0  0  0
    2.3292    0.2500    0.0000 O   0  0  0  0  0  0  0  0  0  0  0  0
    4.0542   -1.7542    0.0000 C   0  0  0  0  0  0  0  0  0  0  0  0
    3.1792   -3.2542    0.0000 C   0  0  0  0  0  0  0  0  0  0  0  0
   -1.1250    1.2583    0.0000 C   0  0  0  0  0  0  0  0  0  0  0  0
   -2.4875    2.0333    0.0000 C   0  0  0  0  0  0  0  0  0  0  0  0
    4.0542   -2.7542    0.0000 C   0  0  0  0  0  0  0  0  0  0  0  0
   -0.2708   -0.2375    0.0000 C   0  0  0  0  0  0  0  0  0  0  0  0
    3.2042   -0.2625    0.0000 O   0  0  0  0  0  0  0  0  0  0  0  0
   -3.6708    3.6500    0.0000 C   0  0  0  0  0  0  0  0  0  0  0  0
    3.1667   -4.2542    0.0000 O   0  0  0  0  0  0  0  0  0  0  0  0
   -1.1333    0.2708    0.0000 C   0  0  0  0  0  0  0  0  0  0  0  0
    4.0750    0.2333    0.0000 C   0  0  0  0  0  0  0  0  0  0  0  0
    4.0250   -4.7542    0.0000 C   0  0  0  0  0  0  0  0  0  0  0  0
   -3.4875    1.9250    0.0000 C   0  0  0  0  0  0  0  0  0  0  0  0
   -4.0833    2.7333    0.0000 C   0  0  0  0  0  0  0  0  0  0  0  0
  1  2  1  0
  1  3  1  0
  2  4  1  0
  1  5  2  0
  3  6  1  0
  5  7  1  0
  8 10  1  0
  3  9  2  0
 10 13  1  0
  8 11  1  0
 11 12  1  0
  6 13  1  0
  2 14  1  0
  9 15  1  0
 12 16  1  0
 12 17  2  0
  8 18  2  0
 17 19  1  0
 16 20  2  0
  6 21  1  0
  5 22  1  0
 19 23  2  0
 24 28  1  0
 17 25  1  0
  7 26  1  0
 20 27  1  0
 21 28  1  0
 25 29  1  0
 27 30  1  0
 22 31  1  0
 31 32  1  0
  4  7  2  0
 14 15  2  0
 26 32  1  0
 10 24  1  0
 20 23  1  0
M  END
>  <MOLFORMULA>  (229) 
C24 H29 N5 O3

>  <MOLWEIGHT>  (229) 
4.355251000000000e+002

>  <IDNUMBER>  (229) 
AT-687/PE21867

>  <PRICE>  (229) 
EUR 80/10 mg

>  <Similarity score>  (229) 
0.22

$$$$

     RDKit          2D

 31 35  0  0  0  0  0  0  0  0999 V2000
    0.6667   -1.8917    0.0000 N   0  0  0  0  0  0  0  0  0  0  0  0
    0.2583   -0.9750    0.0000 C   0  0  0  0  0  0  0  0  0  0  0  0
    1.6625   -1.7875    0.0000 C   0  0  0  0  0  0  0  0  0  0  0  0
   -0.1208    2.0875    0.0000 C   0  0  0  0  0  0  0  0  0  0  0  0
    1.0042   -0.3083    0.0000 C   0  0  0  0  0  0  0  0  0  0  0  0
    0.6875    2.6750    0.0000 C   0  0  0  0  0  0  0  0  0  0  0  0
    1.8667   -0.8083    0.0000 C   0  0  0  0  0  0  0  0  0  0  0  0
    0.9000    0.6875    0.0000 N   0  0  0  0  0  0  0  0  0  0  0  0
   -0.9292    2.6750    0.0000 N   0  0  0  0  0  0  0  0  0  0  0  0
    0.3792    3.6250    0.0000 C   0  0  0  0  0  0  0  0  0  0  0  0
   -0.6208    3.6250    0.0000 C   0  0  0  0  0  0  0  0  0  0  0  0
   -0.0167    1.0917    0.0000 C   0  0  0  0  0  0  0  0  0  0  0  0
    0.1667   -2.7583    0.0000 C   0  0  0  0  0  0  0  0  0  0  0  0
    1.6042    2.2708    0.0000 C   0  0  0  0  0  0  0  0  0  0  0  0
   -0.7208   -0.7708    0.0000 O   0  0  0  0  0  0  0  0  0  0  0  0
    1.7083    1.2750    0.0000 C   0  0  0  0  0  0  0  0  0  0  0  0
    2.3292   -2.5292    0.0000 O   0  0  0  0  0  0  0  0  0  0  0  0
    0.8792    4.4875    0.0000 C   0  0  0  0  0  0  0  0  0  0  0  0
   -0.8333   -4.4875    0.0000 C   0  0  0  0  0  0  0  0  0  0  0  0
   -1.3333   -5.3542    0.0000 C   0  0  0  0  0  0  0  0  0  0  0  0
   -1.1208    4.4875    0.0000 C   0  0  0  0  0  0  0  0  0  0  0  0
    0.6667   -3.6208    0.0000 C   0  0  0  0  0  0  0  0  0  0  0  0
   -0.8333   -2.7583    0.0000 C   0  0  0  0  0  0  0  0  0  0  0  0
   -2.3333   -5.3542    0.0000 O   0  0  0  0  0  0  0  0  0  0  0  0
    0.1667   -4.4875    0.0000 C   0  0  0  0  0  0  0  0  0  0  0  0
   -1.3333   -3.6208    0.0000 C   0  0  0  0  0  0  0  0  0  0  0  0
    0.3792    5.3542    0.0000 C   0  0  0  0  0  0  0  0  0  0  0  0
   -0.6208    5.3542    0.0000 C   0  0  0  0  0  0  0  0  0  0  0  0
    0.8792    6.2208    0.0000 O   0  0  0  0  0  0  0  0  0  0  0  0
   -0.8333   -6.2208    0.0000 C   0  0  0  0  0  0  0  0  0  0  0  0
    1.8792    6.2208    0.0000 C   0  0  0  0  0  0  0  0  0  0  0  0
  1  2  1  0
  1  3  1  0
  4 12  1  0
  2  5  1  0
  6 14  1  0
  3  7  1  0
  5  8  1  0
  4  9  1  0
  6 10  1  0
  9 11  1  0
  8 12  1  0
  1 13  1  0
 14 16  1  0
  2 15  2  0
  8 16  1  0
  3 17  2  0
 10 18  2  0
 19 25  2  0
 19 20  1  0
 11 21  2  0
 13 22  2  0
 13 23  1  0
 20 24  2  0
 22 25  1  0
 23 26  2  0
 18 27  1  0
 21 28  1  0
 27 29  1  0
 20 30  1  0
 29 31  1  0
  5  7  1  0
 19 26  1  0
  4  6  2  0
 10 11  1  0
 27 28  2  0
M  END
>  <MOLFORMULA>  (230) 
C24 H23 N3 O4

>  <MOLWEIGHT>  (230) 
4.174627000000000e+002

>  <IDNUMBER>  (230) 
AN-153/NB21449

>  <PRICE>  (230) 
EUR 130/10 mg

>  <Similarity score>  (230) 
0.22

$$$$

     RDKit          2D

 33 37  0  0  0  0  0  0  0  0999 V2000
   -1.9708    3.2458    0.0000 C   0  0  0  0  0  0  0  0  0  0  0  0
   -1.9708    4.2417    0.0000 N   0  0  0  0  0  0  0  0  0  0  0  0
   -1.1208    2.7500    0.0000 C   0  0  0  0  0  0  0  0  0  0  0  0
   -2.9375    4.5542    0.0000 N   0  0  0  0  0  0  0  0  0  0  0  0
   -2.9375    2.9375    0.0000 C   0  0  0  0  0  0  0  0  0  0  0  0
   -1.1208    1.7458    0.0000 N   0  0  0  0  0  0  0  0  0  0  0  0
   -3.5208    3.7458    0.0000 C   0  0  0  0  0  0  0  0  0  0  0  0
   -0.2500    3.2458    0.0000 N   0  0  0  0  0  0  0  0  0  0  0  0
   -0.2500    0.2500    0.0000 C   0  0  0  0  0  0  0  0  0  0  0  0
    0.6167   -0.2625    0.0000 C   0  0  0  0  0  0  0  0  0  0  0  0
   -1.1208    4.7542    0.0000 C   0  0  0  0  0  0  0  0  0  0  0  0
   -0.2500    1.2583    0.0000 C   0  0  0  0  0  0  0  0  0  0  0  0
   -0.2500    4.2417    0.0000 C   0  0  0  0  0  0  0  0  0  0  0  0
    1.4792    0.2375    0.0000 N   0  0  0  0  0  0  0  0  0  0  0  0
    3.1875   -2.7542    0.0000 C   0  0  0  0  0  0  0  0  0  0  0  0
    2.3125   -3.2417    0.0000 C   0  0  0  0  0  0  0  0  0  0  0  0
    0.6167   -1.2542    0.0000 O   0  0  0  0  0  0  0  0  0  0  0  0
    3.1875   -1.7667    0.0000 C   0  0  0  0  0  0  0  0  0  0  0  0
    1.4542   -2.7375    0.0000 C   0  0  0  0  0  0  0  0  0  0  0  0
    2.3417   -1.2500    0.0000 C   0  0  0  0  0  0  0  0  0  0  0  0
    2.3500   -0.2625    0.0000 C   0  0  0  0  0  0  0  0  0  0  0  0
   -1.9708    1.2583    0.0000 C   0  0  0  0  0  0  0  0  0  0  0  0
   -3.3458    2.0208    0.0000 C   0  0  0  0  0  0  0  0  0  0  0  0
    1.4667   -1.7292    0.0000 C   0  0  0  0  0  0  0  0  0  0  0  0
    4.0417   -3.2667    0.0000 O   0  0  0  0  0  0  0  0  0  0  0  0
   -1.1208   -0.2542    0.0000 C   0  0  0  0  0  0  0  0  0  0  0  0
    2.3042   -4.2417    0.0000 O   0  0  0  0  0  0  0  0  0  0  0  0
   -4.5208    3.6458    0.0000 C   0  0  0  0  0  0  0  0  0  0  0  0
   -1.9833    0.2583    0.0000 C   0  0  0  0  0  0  0  0  0  0  0  0
    4.9167   -2.7750    0.0000 C   0  0  0  0  0  0  0  0  0  0  0  0
    3.1667   -4.7542    0.0000 C   0  0  0  0  0  0  0  0  0  0  0  0
   -4.3333    1.9208    0.0000 C   0  0  0  0  0  0  0  0  0  0  0  0
   -4.9250    2.7333    0.0000 C   0  0  0  0  0  0  0  0  0  0  0  0
  1  2  1  0
  1  3  1  0
  2  4  1  0
  1  5  2  0
  3  6  1  0
  5  7  1  0
  3  8  2  0
  9 12  1  0
  9 10  1  0
  2 11  1  0
  6 12  1  0
  8 13  1  0
 10 14  1  0
 15 18  1  0
 16 19  1  0
 10 17  2  0
 18 20  2  0
 19 24  2  0
 20 21  1  0
 14 21  1  0
  6 22  1  0
  5 23  1  0
 20 24  1  0
 15 25  1  0
 26 29  1  0
 16 27  1  0
  7 28  1  0
 22 29  1  0
 25 30  1  0
 27 31  1  0
 23 32  1  0
 32 33  1  0
  4  7  2  0
 11 13  2  0
 28 33  1  0
  9 26  1  0
 15 16  2  0
M  END
>  <MOLFORMULA>  (231) 
C25 H31 N5 O3

>  <MOLWEIGHT>  (231) 
4.495519000000000e+002

>  <IDNUMBER>  (231) 
AT-687/PE21889

>  <PRICE>  (231) 
EUR 80/10 mg

>  <Similarity score>  (231) 
0.22

$$$$

     RDKit          2D

 30 34  0  0  0  0  0  0  0  0999 V2000
    0.9167   -2.7583    0.0000 N   0  0  0  0  0  0  0  0  0  0  0  0
    0.5083   -1.8417    0.0000 C   0  0  0  0  0  0  0  0  0  0  0  0
    0.1292    1.2208    0.0000 C   0  0  0  0  0  0  0  0  0  0  0  0
    1.9125   -2.6500    0.0000 C   0  0  0  0  0  0  0  0  0  0  0  0
    1.2542   -1.1750    0.0000 C   0  0  0  0  0  0  0  0  0  0  0  0
    0.9375    1.8083    0.0000 C   0  0  0  0  0  0  0  0  0  0  0  0
    1.1500   -0.1792    0.0000 N   0  0  0  0  0  0  0  0  0  0  0  0
    2.1167   -1.6750    0.0000 C   0  0  0  0  0  0  0  0  0  0  0  0
   -0.6792    1.8083    0.0000 N   0  0  0  0  0  0  0  0  0  0  0  0
    0.6292    2.7625    0.0000 C   0  0  0  0  0  0  0  0  0  0  0  0
   -0.3708    2.7625    0.0000 C   0  0  0  0  0  0  0  0  0  0  0  0
    0.2333    0.2292    0.0000 C   0  0  0  0  0  0  0  0  0  0  0  0
    0.4167   -3.6208    0.0000 C   0  0  0  0  0  0  0  0  0  0  0  0
    1.8542    1.4042    0.0000 C   0  0  0  0  0  0  0  0  0  0  0  0
    1.9583    0.4083    0.0000 C   0  0  0  0  0  0  0  0  0  0  0  0
   -0.4708   -1.6333    0.0000 O   0  0  0  0  0  0  0  0  0  0  0  0
    2.5792   -3.3958    0.0000 O   0  0  0  0  0  0  0  0  0  0  0  0
    1.1292    3.6250    0.0000 C   0  0  0  0  0  0  0  0  0  0  0  0
   -0.8708    3.6250    0.0000 C   0  0  0  0  0  0  0  0  0  0  0  0
    0.6292    4.4875    0.0000 C   0  0  0  0  0  0  0  0  0  0  0  0
   -0.5833   -3.6208    0.0000 C   0  0  0  0  0  0  0  0  0  0  0  0
   -0.3708    4.4875    0.0000 C   0  0  0  0  0  0  0  0  0  0  0  0
   -1.0833   -4.4875    0.0000 C   0  0  0  0  0  0  0  0  0  0  0  0
    1.1292    5.3542    0.0000 O   0  0  0  0  0  0  0  0  0  0  0  0
   -2.0833   -4.4875    0.0000 C   0  0  0  0  0  0  0  0  0  0  0  0
   -0.5833   -5.3542    0.0000 C   0  0  0  0  0  0  0  0  0  0  0  0
    0.6292    6.2208    0.0000 C   0  0  0  0  0  0  0  0  0  0  0  0
   -1.0833   -6.2208    0.0000 C   0  0  0  0  0  0  0  0  0  0  0  0
   -2.5833   -5.3542    0.0000 C   0  0  0  0  0  0  0  0  0  0  0  0
   -2.0833   -6.2208    0.0000 C   0  0  0  0  0  0  0  0  0  0  0  0
  1  2  1  0
  3 12  1  0
  1  4  1  0
  2  5  1  0
  6 14  1  0
  5  7  1  0
  4  8  1  0
  3  9  1  0
  6 10  1  0
  9 11  1  0
  7 12  1  0
  1 13  1  0
 14 15  1  0
  7 15  1  0
  2 16  2  0
  4 17  2  0
 10 18  2  0
 11 19  2  0
 18 20  1  0
 13 21  1  0
 19 22  1  0
 21 23  1  0
 20 24  1  0
 23 25  2  0
 23 26  1  0
 24 27  1  0
 26 28  2  0
 25 29  1  0
 29 30  2  0
  5  8  1  0
 28 30  1  0
  3  6  2  0
 10 11  1  0
 20 22  2  0
M  END
>  <MOLFORMULA>  (232) 
C24 H25 N3 O3

>  <MOLWEIGHT>  (232) 
4.034795000000000e+002

>  <IDNUMBER>  (232) 
AN-153/NB21466

>  <PRICE>  (232) 
EUR 130/10 mg

>  <Similarity score>  (232) 
0.22

$$$$

     RDKit          2D

 31 35  0  0  0  0  0  0  0  0999 V2000
    0.6667   -1.8917    0.0000 N   0  0  0  0  0  0  0  0  0  0  0  0
    0.2583   -0.9750    0.0000 C   0  0  0  0  0  0  0  0  0  0  0  0
    1.6625   -1.7875    0.0000 C   0  0  0  0  0  0  0  0  0  0  0  0
   -0.1208    2.0875    0.0000 C   0  0  0  0  0  0  0  0  0  0  0  0
    1.0042   -0.3083    0.0000 C   0  0  0  0  0  0  0  0  0  0  0  0
    0.6875    2.6750    0.0000 C   0  0  0  0  0  0  0  0  0  0  0  0
    1.8667   -0.8083    0.0000 C   0  0  0  0  0  0  0  0  0  0  0  0
    0.9000    0.6875    0.0000 N   0  0  0  0  0  0  0  0  0  0  0  0
   -0.9292    2.6750    0.0000 N   0  0  0  0  0  0  0  0  0  0  0  0
    0.3792    3.6250    0.0000 C   0  0  0  0  0  0  0  0  0  0  0  0
   -0.6208    3.6250    0.0000 C   0  0  0  0  0  0  0  0  0  0  0  0
   -0.0167    1.0917    0.0000 C   0  0  0  0  0  0  0  0  0  0  0  0
    0.1667   -2.7583    0.0000 C   0  0  0  0  0  0  0  0  0  0  0  0
    1.6042    2.2708    0.0000 C   0  0  0  0  0  0  0  0  0  0  0  0
   -0.7167   -0.7708    0.0000 O   0  0  0  0  0  0  0  0  0  0  0  0
    1.7083    1.2750    0.0000 C   0  0  0  0  0  0  0  0  0  0  0  0
    2.3292   -2.5292    0.0000 O   0  0  0  0  0  0  0  0  0  0  0  0
    0.8792    4.4875    0.0000 C   0  0  0  0  0  0  0  0  0  0  0  0
   -0.8333   -4.4875    0.0000 C   0  0  0  0  0  0  0  0  0  0  0  0
   -1.1208    4.4875    0.0000 C   0  0  0  0  0  0  0  0  0  0  0  0
    0.6667   -3.6208    0.0000 C   0  0  0  0  0  0  0  0  0  0  0  0
   -0.8333   -2.7583    0.0000 C   0  0  0  0  0  0  0  0  0  0  0  0
   -1.3333   -3.6208    0.0000 C   0  0  0  0  0  0  0  0  0  0  0  0
    0.1667   -4.4875    0.0000 C   0  0  0  0  0  0  0  0  0  0  0  0
    0.3792    5.3542    0.0000 C   0  0  0  0  0  0  0  0  0  0  0  0
   -1.3333   -5.3542    0.0000 C   0  0  0  0  0  0  0  0  0  0  0  0
   -0.6208    5.3542    0.0000 C   0  0  0  0  0  0  0  0  0  0  0  0
    0.8792    6.2208    0.0000 O   0  0  0  0  0  0  0  0  0  0  0  0
   -0.8333   -6.2208    0.0000 C   0  0  0  0  0  0  0  0  0  0  0  0
   -2.3333   -5.3542    0.0000 C   0  0  0  0  0  0  0  0  0  0  0  0
    1.8792    6.2208    0.0000 C   0  0  0  0  0  0  0  0  0  0  0  0
  1  2  1  0
  1  3  1  0
  4 12  1  0
  2  5  1  0
  6 14  1  0
  3  7  1  0
  5  8  1  0
  4  9  1  0
  6 10  1  0
  9 11  1  0
  8 12  1  0
  1 13  1  0
 14 16  1  0
  2 15  2  0
  8 16  1  0
  3 17  2  0
 10 18  2  0
 19 24  1  0
 11 20  2  0
 13 21  1  0
 13 22  2  0
 22 23  1  0
 21 24  2  0
 18 25  1  0
 19 26  1  0
 20 27  1  0
 25 28  1  0
 26 29  1  0
 26 30  1  0
 28 31  1  0
  5  7  1  0
 19 23  2  0
  4  6  2  0
 10 11  1  0
 25 27  2  0
M  END
>  <MOLFORMULA>  (233) 
C25 H27 N3 O3

>  <MOLWEIGHT>  (233) 
4.175063000000000e+002

>  <IDNUMBER>  (233) 
AN-153/NB21446

>  <PRICE>  (233) 
EUR 130/10 mg

>  <Similarity score>  (233) 
0.22

$$$$

     RDKit          2D

 28 32  0  0  0  0  0  0  0  0999 V2000
    0.6667   -1.8917    0.0000 N   0  0  0  0  0  0  0  0  0  0  0  0
    0.2583   -0.9750    0.0000 C   0  0  0  0  0  0  0  0  0  0  0  0
    1.6625   -1.7875    0.0000 C   0  0  0  0  0  0  0  0  0  0  0  0
   -0.1208    2.0875    0.0000 C   0  0  0  0  0  0  0  0  0  0  0  0
    1.0042   -0.3083    0.0000 C   0  0  0  0  0  0  0  0  0  0  0  0
    1.8667   -0.8083    0.0000 C   0  0  0  0  0  0  0  0  0  0  0  0
    0.6875    2.6750    0.0000 C   0  0  0  0  0  0  0  0  0  0  0  0
    0.8958    0.6875    0.0000 N   0  0  0  0  0  0  0  0  0  0  0  0
   -0.9292    2.6750    0.0000 N   0  0  0  0  0  0  0  0  0  0  0  0
    0.1667   -2.7583    0.0000 C   0  0  0  0  0  0  0  0  0  0  0  0
    0.3792    3.6250    0.0000 C   0  0  0  0  0  0  0  0  0  0  0  0
   -0.6208    3.6250    0.0000 C   0  0  0  0  0  0  0  0  0  0  0  0
   -0.0167    1.0917    0.0000 C   0  0  0  0  0  0  0  0  0  0  0  0
   -0.8333   -2.7583    0.0000 C   0  0  0  0  0  0  0  0  0  0  0  0
    1.6042    2.2708    0.0000 C   0  0  0  0  0  0  0  0  0  0  0  0
   -1.3333   -3.6208    0.0000 C   0  0  0  0  0  0  0  0  0  0  0  0
   -0.7167   -0.7708    0.0000 O   0  0  0  0  0  0  0  0  0  0  0  0
    1.7083    1.2750    0.0000 C   0  0  0  0  0  0  0  0  0  0  0  0
    2.3292   -2.5292    0.0000 O   0  0  0  0  0  0  0  0  0  0  0  0
    0.6667   -3.6208    0.0000 C   0  0  0  0  0  0  0  0  0  0  0  0
   -0.8333   -4.4875    0.0000 C   0  0  0  0  0  0  0  0  0  0  0  0
    0.1667   -4.4875    0.0000 C   0  0  0  0  0  0  0  0  0  0  0  0
   -2.3333   -3.6208    0.0000 Cl  0  0  0  0  0  0  0  0  0  0  0  0
   -1.3333   -5.3542    0.0000 F   0  0  0  0  0  0  0  0  0  0  0  0
    0.8792    4.4875    0.0000 C   0  0  0  0  0  0  0  0  0  0  0  0
   -1.1208    4.4875    0.0000 C   0  0  0  0  0  0  0  0  0  0  0  0
    0.3792    5.3542    0.0000 C   0  0  0  0  0  0  0  0  0  0  0  0
   -0.6208    5.3542    0.0000 C   0  0  0  0  0  0  0  0  0  0  0  0
  1  2  1  0
  1  3  1  0
  4 13  1  0
  2  5  1  0
  3  6  1  0
  7 15  1  0
  5  8  1  0
  4  9  1  0
  1 10  1  0
  7 11  1  0
  9 12  1  0
  8 13  1  0
 10 14  2  0
 15 18  1  0
 14 16  1  0
  2 17  2  0
  8 18  1  0
  3 19  2  0
 10 20  1  0
 21 22  1  0
 20 22  2  0
 16 23  1  0
 21 24  1  0
 11 25  2  0
 12 26  2  0
 25 27  1  0
 26 28  1  0
  5  6  1  0
 16 21  2  0
  4  7  2  0
 11 12  1  0
 27 28  2  0
M  END
>  <MOLFORMULA>  (234) 
C21 H17 Cl F N3 O2

>  <MOLWEIGHT>  (234) 
3.978353000000000e+002

>  <IDNUMBER>  (234) 
AN-153/NB21438

>  <PRICE>  (234) 
EUR 130/10 mg

>  <Similarity score>  (234) 
0.22

$$$$

     RDKit          2D

 28 31  0  0  0  0  0  0  0  0999 V2000
    5.4167    1.3000    0.0000 C   0  0  0  0  0  0  0  0  0  0  0  0
    5.4167    2.1333    0.0000 C   0  0  0  0  0  0  0  0  0  0  0  0
    6.1417    0.8875    0.0000 N   0  0  0  0  0  0  0  0  0  0  0  0
    2.5667   -1.1750    0.0000 C   0  0  0  0  0  0  0  0  0  0  0  0
    4.7125    0.8875    0.0000 N   0  0  0  0  0  0  0  0  0  0  0  0
    1.8542   -1.5875    0.0000 C   0  0  0  0  0  0  0  0  0  0  0  0
    6.8542    2.1333    0.0000 N   0  0  0  0  0  0  0  0  0  0  0  0
    6.1417    2.5458    0.0000 C   0  0  0  0  0  0  0  0  0  0  0  0
    6.8542    1.3000    0.0000 C   0  0  0  0  0  0  0  0  0  0  0  0
    2.5667   -0.3500    0.0000 N   0  0  0  0  0  0  0  0  0  0  0  0
    3.2792   -1.5875    0.0000 O   0  0  0  0  0  0  0  0  0  0  0  0
    1.8542   -2.4125    0.0000 C   0  0  0  0  0  0  0  0  0  0  0  0
    4.7125    0.0625    0.0000 C   0  0  0  0  0  0  0  0  0  0  0  0
    3.9917    1.3000    0.0000 C   0  0  0  0  0  0  0  0  0  0  0  0
    3.2792    0.0625    0.0000 C   0  0  0  0  0  0  0  0  0  0  0  0
    3.2792    0.8875    0.0000 C   0  0  0  0  0  0  0  0  0  0  0  0
    3.9917   -0.3500    0.0000 C   0  0  0  0  0  0  0  0  0  0  0  0
    4.7125    2.5458    0.0000 C   0  0  0  0  0  0  0  0  0  0  0  0
    1.1375   -1.1750    0.0000 C   0  0  0  0  0  0  0  0  0  0  0  0
    2.5667   -2.8250    0.0000 O   0  0  0  0  0  0  0  0  0  0  0  0
    6.1417    3.3583    0.0000 C   0  0  0  0  0  0  0  0  0  0  0  0
    7.5667    0.8875    0.0000 C   0  0  0  0  0  0  0  0  0  0  0  0
    1.1375   -2.8250    0.0000 C   0  0  0  0  0  0  0  0  0  0  0  0
    2.5625   -3.6500    0.0000 C   0  0  0  0  0  0  0  0  0  0  0  0
    4.7167    3.3625    0.0000 C   0  0  0  0  0  0  0  0  0  0  0  0
    0.4250   -1.5875    0.0000 C   0  0  0  0  0  0  0  0  0  0  0  0
    5.4375    3.7708    0.0000 C   0  0  0  0  0  0  0  0  0  0  0  0
    0.4250   -2.4125    0.0000 C   0  0  0  0  0  0  0  0  0  0  0  0
  1  2  1  0
  1  3  2  0
  4 10  1  0
  1  5  1  0
  4  6  1  0
  7  9  2  0
  2  8  2  0
  3  9  1  0
 10 15  1  0
  4 11  2  0
  6 12  2  0
  5 13  1  0
  5 14  1  0
 15 16  1  0
 14 16  1  0
 13 17  1  0
  2 18  1  0
  6 19  1  0
 12 20  1  0
  8 21  1  0
  9 22  1  0
 12 23  1  0
 20 24  1  0
 18 25  1  0
 19 26  2  0
 25 27  1  0
 26 28  1  0
  7  8  1  0
 15 17  1  0
 21 27  1  0
 23 28  2  0
M  END
>  <MOLFORMULA>  (235) 
C22 H28 N4 O2

>  <MOLWEIGHT>  (235) 
3.804892000000000e+002

>  <IDNUMBER>  (235) 
AT-687/SK01685

>  <PRICE>  (235) 
EUR 80/10 mg

>  <Similarity score>  (235) 
0.22

$$$$

     RDKit          2D

 28 31  0  0  0  0  0  0  0  0999 V2000
    2.8500   -1.4167    0.0000 C   0  0  0  0  0  0  0  0  0  0  0  0
    2.0250   -1.4167    0.0000 C   0  0  0  0  0  0  0  0  0  0  0  0
    3.2625   -2.1417    0.0000 N   0  0  0  0  0  0  0  0  0  0  0  0
    3.2625   -0.7042    0.0000 N   0  0  0  0  0  0  0  0  0  0  0  0
    2.0167   -2.8417    0.0000 N   0  0  0  0  0  0  0  0  0  0  0  0
    1.6125   -2.1375    0.0000 C   0  0  0  0  0  0  0  0  0  0  0  0
    5.3292    1.4333    0.0000 C   0  0  0  0  0  0  0  0  0  0  0  0
    2.8417   -2.8417    0.0000 C   0  0  0  0  0  0  0  0  0  0  0  0
    8.6292    2.8583    0.0000 N   0  0  0  0  0  0  0  0  0  0  0  0
    4.5042    1.4333    0.0000 N   0  0  0  0  0  0  0  0  0  0  0  0
    5.7417    2.1458    0.0000 C   0  0  0  0  0  0  0  0  0  0  0  0
    7.8042    2.8583    0.0000 C   0  0  0  0  0  0  0  0  0  0  0  0
    4.0875   -0.7125    0.0000 C   0  0  0  0  0  0  0  0  0  0  0  0
    2.8542    0.0083    0.0000 C   0  0  0  0  0  0  0  0  0  0  0  0
    5.7417    0.7250    0.0000 O   0  0  0  0  0  0  0  0  0  0  0  0
    6.5750    2.1458    0.0000 C   0  0  0  0  0  0  0  0  0  0  0  0
    4.0917    0.7125    0.0000 C   0  0  0  0  0  0  0  0  0  0  0  0
    3.2667    0.7250    0.0000 C   0  0  0  0  0  0  0  0  0  0  0  0
    4.5042    0.0083    0.0000 C   0  0  0  0  0  0  0  0  0  0  0  0
    6.9792    2.8583    0.0000 C   0  0  0  0  0  0  0  0  0  0  0  0
    1.6042   -0.7042    0.0000 C   0  0  0  0  0  0  0  0  0  0  0  0
    0.7875   -2.1375    0.0000 C   0  0  0  0  0  0  0  0  0  0  0  0
    5.3292    2.8583    0.0000 C   0  0  0  0  0  0  0  0  0  0  0  0
    3.2542   -3.5542    0.0000 C   0  0  0  0  0  0  0  0  0  0  0  0
    5.7542    3.5708    0.0000 C   0  0  0  0  0  0  0  0  0  0  0  0
    6.5667    3.5625    0.0000 C   0  0  0  0  0  0  0  0  0  0  0  0
    0.7792   -0.7125    0.0000 C   0  0  0  0  0  0  0  0  0  0  0  0
    0.3667   -1.4292    0.0000 C   0  0  0  0  0  0  0  0  0  0  0  0
  1  2  1  0
  1  3  2  0
  1  4  1  0
  5  8  2  0
  2  6  2  0
  7 10  1  0
  3  8  1  0
  9 12  3  0
 10 17  1  0
  7 11  1  0
 12 20  1  0
  4 13  1  0
  4 14  1  0
  7 15  2  0
 11 16  2  0
 17 18  1  0
 14 18  1  0
 13 19  1  0
 16 20  1  0
  2 21  1  0
  6 22  1  0
 11 23  1  0
  8 24  1  0
 23 25  2  0
 25 26  1  0
 21 27  1  0
 27 28  1  0
  5  6  1  0
 17 19  1  0
 22 28  1  0
 20 26  2  0
M  END
>  <MOLFORMULA>  (236) 
C22 H25 N5 O

>  <MOLWEIGHT>  (236) 
3.754735000000000e+002

>  <IDNUMBER>  (236) 
AT-687/SK01691

>  <PRICE>  (236) 
EUR 80/10 mg

>  <Similarity score>  (236) 
0.22

$$$$

     RDKit          2D

 25 28  0  0  0  0  0  0  0  0999 V2000
    0.7042   -2.6250    0.0000 C   0  0  0  0  0  0  0  0  0  0  0  0
    1.6250   -3.0208    0.0000 C   0  0  0  0  0  0  0  0  0  0  0  0
    0.8000   -1.6292    0.0000 C   0  0  0  0  0  0  0  0  0  0  0  0
    2.2833   -2.2708    0.0000 O   0  0  0  0  0  0  0  0  0  0  0  0
    0.0417    1.7500    0.0000 C   0  0  0  0  0  0  0  0  0  0  0  0
    1.7750   -1.4083    0.0000 C   0  0  0  0  0  0  0  0  0  0  0  0
   -0.6333    2.4875    0.0000 C   0  0  0  0  0  0  0  0  0  0  0  0
   -0.3375    3.4417    0.0000 C   0  0  0  0  0  0  0  0  0  0  0  0
   -0.2583    0.7958    0.0000 N   0  0  0  0  0  0  0  0  0  0  0  0
    0.6375    3.6625    0.0000 C   0  0  0  0  0  0  0  0  0  0  0  0
    0.1208   -0.8917    0.0000 C   0  0  0  0  0  0  0  0  0  0  0  0
    0.4208    0.0625    0.0000 C   0  0  0  0  0  0  0  0  0  0  0  0
    1.0167    1.9708    0.0000 O   0  0  0  0  0  0  0  0  0  0  0  0
    1.3167    2.9250    0.0000 O   0  0  0  0  0  0  0  0  0  0  0  0
    2.0750   -0.4583    0.0000 C   0  0  0  0  0  0  0  0  0  0  0  0
    0.9375    4.6125    0.0000 O   0  0  0  0  0  0  0  0  0  0  0  0
    1.3958    0.2792    0.0000 C   0  0  0  0  0  0  0  0  0  0  0  0
   -0.0958   -3.2208    0.0000 C   0  0  0  0  0  0  0  0  0  0  0  0
    1.7375   -4.0167    0.0000 C   0  0  0  0  0  0  0  0  0  0  0  0
   -1.6125    2.2667    0.0000 C   0  0  0  0  0  0  0  0  0  0  0  0
   -1.0167    4.1708    0.0000 C   0  0  0  0  0  0  0  0  0  0  0  0
    0.0167   -4.2125    0.0000 C   0  0  0  0  0  0  0  0  0  0  0  0
    0.9375   -4.6125    0.0000 C   0  0  0  0  0  0  0  0  0  0  0  0
   -2.2875    3.0042    0.0000 C   0  0  0  0  0  0  0  0  0  0  0  0
   -1.9917    3.9583    0.0000 C   0  0  0  0  0  0  0  0  0  0  0  0
  1  2  2  0
  1  3  1  0
  2  4  1  0
  5  9  1  0
  3  6  1  0
  5  7  1  0
  7  8  1  0
  9 12  1  0
  8 10  1  0
  3 11  2  0
 11 12  1  0
  5 13  2  0
 10 14  2  0
  6 15  2  0
 10 16  1  0
 12 17  2  0
  1 18  1  0
  2 19  1  0
  7 20  1  0
  8 21  1  0
 18 22  1  0
 22 23  1  0
 20 24  1  0
 24 25  1  0
  4  6  1  0
 19 23  1  0
 15 17  1  0
 21 25  1  0
M  END
>  <MOLFORMULA>  (237) 
C20 H23 N O4

>  <MOLWEIGHT>  (237) 
3.414047000000000e+002

>  <IDNUMBER>  (237) 
AN-153/I294852

>  <PRICE>  (237) 
EUR 130/10 mg

>  <Similarity score>  (237) 
0.22

$$$$

     RDKit          2D

 34 38  0  0  0  0  0  0  0  0999 V2000
   -1.9833    3.2458    0.0000 C   0  0  0  0  0  0  0  0  0  0  0  0
   -1.9833    4.2292    0.0000 N   0  0  0  0  0  0  0  0  0  0  0  0
   -1.1208    2.7458    0.0000 C   0  0  0  0  0  0  0  0  0  0  0  0
   -2.9375    4.5417    0.0000 N   0  0  0  0  0  0  0  0  0  0  0  0
   -2.9375    2.9333    0.0000 C   0  0  0  0  0  0  0  0  0  0  0  0
   -1.1208    1.7375    0.0000 N   0  0  0  0  0  0  0  0  0  0  0  0
   -3.5208    3.7375    0.0000 C   0  0  0  0  0  0  0  0  0  0  0  0
    0.6042   -0.2625    0.0000 C   0  0  0  0  0  0  0  0  0  0  0  0
   -0.2500    3.2458    0.0000 N   0  0  0  0  0  0  0  0  0  0  0  0
   -0.2583    0.2375    0.0000 C   0  0  0  0  0  0  0  0  0  0  0  0
    1.4750    0.2375    0.0000 N   0  0  0  0  0  0  0  0  0  0  0  0
   -0.2500    1.2458    0.0000 C   0  0  0  0  0  0  0  0  0  0  0  0
   -1.1208    4.7417    0.0000 C   0  0  0  0  0  0  0  0  0  0  0  0
   -0.2500    4.2292    0.0000 C   0  0  0  0  0  0  0  0  0  0  0  0
    2.3417   -1.2500    0.0000 C   0  0  0  0  0  0  0  0  0  0  0  0
    3.1917   -1.7625    0.0000 C   0  0  0  0  0  0  0  0  0  0  0  0
    3.1917   -2.7417    0.0000 C   0  0  0  0  0  0  0  0  0  0  0  0
    2.3417   -0.2625    0.0000 C   0  0  0  0  0  0  0  0  0  0  0  0
    0.6042   -1.2542    0.0000 O   0  0  0  0  0  0  0  0  0  0  0  0
    2.3167   -3.2500    0.0000 C   0  0  0  0  0  0  0  0  0  0  0  0
    1.4667   -1.7417    0.0000 C   0  0  0  0  0  0  0  0  0  0  0  0
    1.4542   -2.7375    0.0000 C   0  0  0  0  0  0  0  0  0  0  0  0
   -1.9833    1.2458    0.0000 C   0  0  0  0  0  0  0  0  0  0  0  0
   -3.3458    2.0208    0.0000 C   0  0  0  0  0  0  0  0  0  0  0  0
    4.0542   -3.2542    0.0000 O   0  0  0  0  0  0  0  0  0  0  0  0
   -1.1250   -0.2542    0.0000 C   0  0  0  0  0  0  0  0  0  0  0  0
    2.3125   -4.2417    0.0000 O   0  0  0  0  0  0  0  0  0  0  0  0
   -4.5208    3.6458    0.0000 C   0  0  0  0  0  0  0  0  0  0  0  0
   -1.9833    0.2500    0.0000 C   0  0  0  0  0  0  0  0  0  0  0  0
    3.2042    0.2333    0.0000 C   0  0  0  0  0  0  0  0  0  0  0  0
    4.9250   -2.7542    0.0000 C   0  0  0  0  0  0  0  0  0  0  0  0
    3.1917   -4.7417    0.0000 C   0  0  0  0  0  0  0  0  0  0  0  0
   -4.3458    1.9125    0.0000 C   0  0  0  0  0  0  0  0  0  0  0  0
   -4.9333    2.7208    0.0000 C   0  0  0  0  0  0  0  0  0  0  0  0
  1  2  1  0
  1  3  1  0
  2  4  1  0
  1  5  2  0
  3  6  1  0
  5  7  1  0
  8 10  1  0
  3  9  2  0
 10 12  1  0
  8 11  1  0
  6 12  1  0
  2 13  1  0
  9 14  1  0
 15 18  1  0
 15 16  2  0
 16 17  1  0
 11 18  1  0
  8 19  2  0
 20 22  1  0
 15 21  1  0
 21 22  2  0
  6 23  1  0
  5 24  1  0
 17 25  1  0
 26 29  1  0
 20 27  1  0
  7 28  1  0
 23 29  1  0
 18 30  1  0
 25 31  1  0
 27 32  1  0
 24 33  1  0
 33 34  1  0
  4  7  2  0
 13 14  2  0
 28 34  1  0
 10 26  1  0
 17 20  2  0
M  END
>  <MOLFORMULA>  (238) 
C26 H33 N5 O3

>  <MOLWEIGHT>  (238) 
4.635787000000000e+002

>  <IDNUMBER>  (238) 
AT-687/PE21895

>  <PRICE>  (238) 
EUR 80/10 mg

>  <Similarity score>  (238) 
0.22

$$$$

     RDKit          2D

 33 37  0  0  0  0  0  0  0  0999 V2000
    1.3500   -2.3250    0.0000 N   0  0  0  0  0  0  0  0  0  0  0  0
    0.9417   -1.4083    0.0000 C   0  0  0  0  0  0  0  0  0  0  0  0
    2.3417   -2.2208    0.0000 C   0  0  0  0  0  0  0  0  0  0  0  0
    0.5625    1.6542    0.0000 C   0  0  0  0  0  0  0  0  0  0  0  0
    1.6875   -0.7417    0.0000 C   0  0  0  0  0  0  0  0  0  0  0  0
    1.3708    2.2417    0.0000 C   0  0  0  0  0  0  0  0  0  0  0  0
    2.5500   -1.2417    0.0000 C   0  0  0  0  0  0  0  0  0  0  0  0
    1.5792    0.2542    0.0000 N   0  0  0  0  0  0  0  0  0  0  0  0
   -0.2458    2.2417    0.0000 N   0  0  0  0  0  0  0  0  0  0  0  0
    1.0625    3.1917    0.0000 C   0  0  0  0  0  0  0  0  0  0  0  0
    0.8500   -3.1917    0.0000 C   0  0  0  0  0  0  0  0  0  0  0  0
    0.0625    3.1917    0.0000 C   0  0  0  0  0  0  0  0  0  0  0  0
    0.6667    0.6583    0.0000 C   0  0  0  0  0  0  0  0  0  0  0  0
   -2.1500   -4.9208    0.0000 C   0  0  0  0  0  0  0  0  0  0  0  0
    2.2875    1.8375    0.0000 C   0  0  0  0  0  0  0  0  0  0  0  0
   -0.1500   -3.1917    0.0000 C   0  0  0  0  0  0  0  0  0  0  0  0
   -0.0375   -1.2042    0.0000 O   0  0  0  0  0  0  0  0  0  0  0  0
    2.3917    0.8417    0.0000 C   0  0  0  0  0  0  0  0  0  0  0  0
    3.0125   -2.9625    0.0000 O   0  0  0  0  0  0  0  0  0  0  0  0
    1.5625    4.0542    0.0000 C   0  0  0  0  0  0  0  0  0  0  0  0
   -1.6500   -4.0542    0.0000 O   0  0  0  0  0  0  0  0  0  0  0  0
   -0.6500   -4.0542    0.0000 C   0  0  0  0  0  0  0  0  0  0  0  0
   -0.4375    4.0542    0.0000 C   0  0  0  0  0  0  0  0  0  0  0  0
   -1.2833   -5.4208    0.0000 F   0  0  0  0  0  0  0  0  0  0  0  0
   -2.6500   -5.7875    0.0000 F   0  0  0  0  0  0  0  0  0  0  0  0
   -3.0167   -4.4208    0.0000 F   0  0  0  0  0  0  0  0  0  0  0  0
    1.0625    4.9208    0.0000 C   0  0  0  0  0  0  0  0  0  0  0  0
    0.0625    4.9208    0.0000 C   0  0  0  0  0  0  0  0  0  0  0  0
    1.3500   -4.0542    0.0000 C   0  0  0  0  0  0  0  0  0  0  0  0
    1.5625    5.7875    0.0000 O   0  0  0  0  0  0  0  0  0  0  0  0
    0.8500   -4.9208    0.0000 C   0  0  0  0  0  0  0  0  0  0  0  0
   -0.1500   -4.9208    0.0000 C   0  0  0  0  0  0  0  0  0  0  0  0
    2.5625    5.7875    0.0000 C   0  0  0  0  0  0  0  0  0  0  0  0
  1  2  1  0
  1  3  1  0
  4 13  1  0
  2  5  1  0
  6 15  1  0
  3  7  1  0
  5  8  1  0
  4  9  1  0
  6 10  1  0
  1 11  1  0
  9 12  1  0
  8 13  1  0
 14 21  1  0
 15 18  1  0
 11 16  2  0
  2 17  2  0
  8 18  1  0
  3 19  2  0
 10 20  2  0
 21 22  1  0
 16 22  1  0
 12 23  2  0
 14 24  1  0
 14 25  1  0
 14 26  1  0
 20 27  1  0
 23 28  1  0
 11 29  1  0
 27 30  1  0
 29 31  2  0
 31 32  1  0
 30 33  1  0
  5  7  1  0
 22 32  2  0
  4  6  2  0
 10 12  1  0
 27 28  2  0
M  END
>  <MOLFORMULA>  (239) 
C23 H20 F3 N3 O4

>  <MOLWEIGHT>  (239) 
4.594220000000000e+002

>  <IDNUMBER>  (239) 
AN-153/NB21455

>  <PRICE>  (239) 
EUR 130/10 mg

>  <Similarity score>  (239) 
0.22

$$$$

     RDKit          2D

 34 38  0  0  0  0  0  0  0  0999 V2000
   -1.9833    3.2583    0.0000 C   0  0  0  0  0  0  0  0  0  0  0  0
   -1.9833    4.2542    0.0000 N   0  0  0  0  0  0  0  0  0  0  0  0
   -1.1208    2.7708    0.0000 C   0  0  0  0  0  0  0  0  0  0  0  0
   -2.9375    4.5625    0.0000 N   0  0  0  0  0  0  0  0  0  0  0  0
   -2.9375    2.9375    0.0000 C   0  0  0  0  0  0  0  0  0  0  0  0
   -1.1208    1.7583    0.0000 N   0  0  0  0  0  0  0  0  0  0  0  0
   -3.5208    3.7583    0.0000 C   0  0  0  0  0  0  0  0  0  0  0  0
    0.6042   -0.2417    0.0000 C   0  0  0  0  0  0  0  0  0  0  0  0
   -0.2500    3.2583    0.0000 N   0  0  0  0  0  0  0  0  0  0  0  0
   -0.2583    0.2583    0.0000 C   0  0  0  0  0  0  0  0  0  0  0  0
    3.2000   -2.7542    0.0000 C   0  0  0  0  0  0  0  0  0  0  0  0
   -0.2500    1.2625    0.0000 C   0  0  0  0  0  0  0  0  0  0  0  0
   -1.1208    4.7542    0.0000 C   0  0  0  0  0  0  0  0  0  0  0  0
    2.3167   -3.2500    0.0000 C   0  0  0  0  0  0  0  0  0  0  0  0
    3.2000   -1.7625    0.0000 C   0  0  0  0  0  0  0  0  0  0  0  0
    0.6042   -1.2500    0.0000 N   0  0  0  0  0  0  0  0  0  0  0  0
    1.4667   -1.7417    0.0000 C   0  0  0  0  0  0  0  0  0  0  0  0
    2.3417   -1.2500    0.0000 C   0  0  0  0  0  0  0  0  0  0  0  0
    1.4542   -2.7417    0.0000 C   0  0  0  0  0  0  0  0  0  0  0  0
   -0.2500    4.2542    0.0000 C   0  0  0  0  0  0  0  0  0  0  0  0
    1.4750    0.2500    0.0000 O   0  0  0  0  0  0  0  0  0  0  0  0
    4.0542   -3.2625    0.0000 O   0  0  0  0  0  0  0  0  0  0  0  0
   -1.9833    1.2625    0.0000 C   0  0  0  0  0  0  0  0  0  0  0  0
   -3.3458    2.0333    0.0000 C   0  0  0  0  0  0  0  0  0  0  0  0
    2.3125   -4.2542    0.0000 O   0  0  0  0  0  0  0  0  0  0  0  0
    4.0667   -1.2667    0.0000 O   0  0  0  0  0  0  0  0  0  0  0  0
   -1.1250   -0.2292    0.0000 C   0  0  0  0  0  0  0  0  0  0  0  0
   -4.5208    3.6500    0.0000 C   0  0  0  0  0  0  0  0  0  0  0  0
   -1.9833    0.2708    0.0000 C   0  0  0  0  0  0  0  0  0  0  0  0
    4.9250   -2.7667    0.0000 C   0  0  0  0  0  0  0  0  0  0  0  0
    3.1667   -4.7542    0.0000 C   0  0  0  0  0  0  0  0  0  0  0  0
    4.0792   -0.2750    0.0000 C   0  0  0  0  0  0  0  0  0  0  0  0
   -4.3458    1.9333    0.0000 C   0  0  0  0  0  0  0  0  0  0  0  0
   -4.9333    2.7458    0.0000 C   0  0  0  0  0  0  0  0  0  0  0  0
  1  2  1  0
  1  3  1  0
  2  4  1  0
  1  5  2  0
  3  6  1  0
  5  7  1  0
  8 10  1  0
  3  9  2  0
 10 12  1  0
 11 14  1  0
  6 12  1  0
  2 13  1  0
 14 19  2  0
 15 18  1  0
  8 16  1  0
 16 17  1  0
 17 18  2  0
 17 19  1  0
  9 20  1  0
  8 21  2  0
 11 22  1  0
  6 23  1  0
  5 24  1  0
 14 25  1  0
 15 26  1  0
 27 29  1  0
  7 28  1  0
 23 29  1  0
 22 30  1  0
 25 31  1  0
 26 32  1  0
 24 33  1  0
 33 34  1  0
  4  7  2  0
 13 20  2  0
 28 34  1  0
 10 27  1  0
 11 15  2  0
M  END
>  <MOLFORMULA>  (240) 
C25 H31 N5 O4

>  <MOLWEIGHT>  (240) 
4.655509000000000e+002

>  <IDNUMBER>  (240) 
AT-687/PE21869

>  <PRICE>  (240) 
EUR 80/10 mg

>  <Similarity score>  (240) 
0.22

$$$$

     RDKit          2D

 29 33  0  0  0  0  0  0  0  0999 V2000
    0.0583   -2.3250    0.0000 N   0  0  0  0  0  0  0  0  0  0  0  0
   -0.3458   -1.4083    0.0000 C   0  0  0  0  0  0  0  0  0  0  0  0
   -0.7250    1.6542    0.0000 C   0  0  0  0  0  0  0  0  0  0  0  0
    1.0542   -2.2208    0.0000 C   0  0  0  0  0  0  0  0  0  0  0  0
    0.3958   -0.7417    0.0000 C   0  0  0  0  0  0  0  0  0  0  0  0
    0.0833    2.2417    0.0000 C   0  0  0  0  0  0  0  0  0  0  0  0
    0.2917    0.2542    0.0000 N   0  0  0  0  0  0  0  0  0  0  0  0
    1.2625   -1.2417    0.0000 C   0  0  0  0  0  0  0  0  0  0  0  0
   -1.5375    2.2417    0.0000 N   0  0  0  0  0  0  0  0  0  0  0  0
   -0.2292    3.1958    0.0000 C   0  0  0  0  0  0  0  0  0  0  0  0
   -1.2250    3.1958    0.0000 C   0  0  0  0  0  0  0  0  0  0  0  0
   -0.6208    0.6625    0.0000 C   0  0  0  0  0  0  0  0  0  0  0  0
    0.9958    1.8375    0.0000 C   0  0  0  0  0  0  0  0  0  0  0  0
   -0.4417   -3.1917    0.0000 C   0  0  0  0  0  0  0  0  0  0  0  0
    1.1000    0.8417    0.0000 C   0  0  0  0  0  0  0  0  0  0  0  0
   -1.3250   -1.2000    0.0000 O   0  0  0  0  0  0  0  0  0  0  0  0
    1.7250   -2.9625    0.0000 O   0  0  0  0  0  0  0  0  0  0  0  0
    0.2708    4.0542    0.0000 C   0  0  0  0  0  0  0  0  0  0  0  0
   -1.7250    4.0542    0.0000 C   0  0  0  0  0  0  0  0  0  0  0  0
   -0.2292    4.9208    0.0000 C   0  0  0  0  0  0  0  0  0  0  0  0
    0.0583   -4.0542    0.0000 C   0  0  0  0  0  0  0  0  0  0  0  0
   -1.2250    4.9208    0.0000 C   0  0  0  0  0  0  0  0  0  0  0  0
    0.2708    5.7875    0.0000 O   0  0  0  0  0  0  0  0  0  0  0  0
   -0.4417   -4.9208    0.0000 C   0  0  0  0  0  0  0  0  0  0  0  0
    1.0583   -4.0542    0.0000 C   0  0  0  0  0  0  0  0  0  0  0  0
    1.2750    5.7875    0.0000 C   0  0  0  0  0  0  0  0  0  0  0  0
    0.0583   -5.7875    0.0000 C   0  0  0  0  0  0  0  0  0  0  0  0
    1.5583   -4.9208    0.0000 C   0  0  0  0  0  0  0  0  0  0  0  0
    1.0583   -5.7875    0.0000 C   0  0  0  0  0  0  0  0  0  0  0  0
  1  2  1  0
  3 12  1  0
  1  4  1  0
  2  5  1  0
  6 13  1  0
  5  7  1  0
  4  8  1  0
  3  9  1  0
  6 10  1  0
  9 11  1  0
  7 12  1  0
 13 15  1  0
  1 14  1  0
  7 15  1  0
  2 16  2  0
  4 17  2  0
 10 18  2  0
 11 19  2  0
 18 20  1  0
 14 21  1  0
 19 22  1  0
 20 23  1  0
 21 24  2  0
 21 25  1  0
 23 26  1  0
 24 27  1  0
 25 28  2  0
 27 29  2  0
  5  8  1  0
 28 29  1  0
  3  6  2  0
 10 11  1  0
 20 22  2  0
M  END
>  <MOLFORMULA>  (241) 
C23 H23 N3 O3

>  <MOLWEIGHT>  (241) 
3.894527000000000e+002

>  <IDNUMBER>  (241) 
AN-153/NB21465

>  <PRICE>  (241) 
EUR 130/10 mg

>  <Similarity score>  (241) 
0.22

$$$$

     RDKit          2D

 28 32  0  0  0  0  0  0  0  0999 V2000
    0.1667   -2.7583    0.0000 N   0  0  0  0  0  0  0  0  0  0  0  0
   -0.2417   -1.8417    0.0000 C   0  0  0  0  0  0  0  0  0  0  0  0
    1.1625   -2.6500    0.0000 C   0  0  0  0  0  0  0  0  0  0  0  0
   -0.6208    1.2208    0.0000 C   0  0  0  0  0  0  0  0  0  0  0  0
    0.5042   -1.1750    0.0000 C   0  0  0  0  0  0  0  0  0  0  0  0
    0.1875    1.8083    0.0000 C   0  0  0  0  0  0  0  0  0  0  0  0
    1.3667   -1.6750    0.0000 C   0  0  0  0  0  0  0  0  0  0  0  0
    0.4000   -0.1792    0.0000 N   0  0  0  0  0  0  0  0  0  0  0  0
   -1.4292    1.8083    0.0000 N   0  0  0  0  0  0  0  0  0  0  0  0
   -0.1208    2.7625    0.0000 C   0  0  0  0  0  0  0  0  0  0  0  0
   -1.1208    2.7625    0.0000 C   0  0  0  0  0  0  0  0  0  0  0  0
   -0.5167    0.2250    0.0000 C   0  0  0  0  0  0  0  0  0  0  0  0
    1.1042    1.4042    0.0000 C   0  0  0  0  0  0  0  0  0  0  0  0
   -1.2167   -1.6333    0.0000 O   0  0  0  0  0  0  0  0  0  0  0  0
    1.2083    0.4083    0.0000 C   0  0  0  0  0  0  0  0  0  0  0  0
   -0.3333   -3.6208    0.0000 C   0  0  0  0  0  0  0  0  0  0  0  0
    1.8292   -3.3958    0.0000 O   0  0  0  0  0  0  0  0  0  0  0  0
    0.3792    3.6250    0.0000 C   0  0  0  0  0  0  0  0  0  0  0  0
   -1.6208    3.6250    0.0000 C   0  0  0  0  0  0  0  0  0  0  0  0
   -0.1208    4.4875    0.0000 C   0  0  0  0  0  0  0  0  0  0  0  0
   -1.1208    4.4875    0.0000 C   0  0  0  0  0  0  0  0  0  0  0  0
    0.3792    5.3542    0.0000 O   0  0  0  0  0  0  0  0  0  0  0  0
   -1.3333   -3.6208    0.0000 C   0  0  0  0  0  0  0  0  0  0  0  0
    0.1667   -4.4875    0.0000 C   0  0  0  0  0  0  0  0  0  0  0  0
    1.3792    5.3542    0.0000 C   0  0  0  0  0  0  0  0  0  0  0  0
   -0.3333   -5.3542    0.0000 C   0  0  0  0  0  0  0  0  0  0  0  0
   -1.8333   -4.4875    0.0000 C   0  0  0  0  0  0  0  0  0  0  0  0
   -1.3333   -5.3542    0.0000 C   0  0  0  0  0  0  0  0  0  0  0  0
  1  2  1  0
  1  3  1  0
  4 12  1  0
  2  5  1  0
  6 13  1  0
  3  7  1  0
  5  8  1  0
  4  9  1  0
  6 10  1  0
  9 11  1  0
  8 12  1  0
 13 15  1  0
  2 14  2  0
  8 15  1  0
  1 16  1  0
  3 17  2  0
 10 18  2  0
 11 19  2  0
 18 20  1  0
 19 21  1  0
 20 22  1  0
 16 23  2  0
 16 24  1  0
 22 25  1  0
 24 26  2  0
 23 27  1  0
 27 28  2  0
  5  7  1  0
 26 28  1  0
  4  6  2  0
 10 11  1  0
 20 21  2  0
M  END
>  <MOLFORMULA>  (242) 
C22 H21 N3 O3

>  <MOLWEIGHT>  (242) 
3.754259000000000e+002

>  <IDNUMBER>  (242) 
AN-153/NB21445

>  <PRICE>  (242) 
EUR 130/10 mg

>  <Similarity score>  (242) 
0.22

$$$$

     RDKit          2D

 31 35  0  0  0  0  0  0  0  0999 V2000
    6.8542    1.0583    0.0000 C   0  0  0  0  0  0  0  0  0  0  0  0
    3.2792   -1.8292    0.0000 C   0  0  0  0  0  0  0  0  0  0  0  0
    6.8542    1.8833    0.0000 C   0  0  0  0  0  0  0  0  0  0  0  0
    7.5750    0.6458    0.0000 N   0  0  0  0  0  0  0  0  0  0  0  0
    3.2792   -2.6667    0.0000 C   0  0  0  0  0  0  0  0  0  0  0  0
    2.5667   -1.4167    0.0000 O   0  0  0  0  0  0  0  0  0  0  0  0
    2.5667   -3.0667    0.0000 C   0  0  0  0  0  0  0  0  0  0  0  0
    6.1417    0.6458    0.0000 N   0  0  0  0  0  0  0  0  0  0  0  0
    4.0000   -1.4167    0.0000 C   0  0  0  0  0  0  0  0  0  0  0  0
    8.2875    1.8833    0.0000 N   0  0  0  0  0  0  0  0  0  0  0  0
    7.5750    2.2958    0.0000 C   0  0  0  0  0  0  0  0  0  0  0  0
    1.8542   -2.6542    0.0000 C   0  0  0  0  0  0  0  0  0  0  0  0
    1.8542   -1.8417    0.0000 C   0  0  0  0  0  0  0  0  0  0  0  0
    8.2875    1.0583    0.0000 C   0  0  0  0  0  0  0  0  0  0  0  0
    4.0000   -0.5917    0.0000 N   0  0  0  0  0  0  0  0  0  0  0  0
    5.4167    1.0583    0.0000 C   0  0  0  0  0  0  0  0  0  0  0  0
    6.1417   -0.1792    0.0000 C   0  0  0  0  0  0  0  0  0  0  0  0
    2.5667   -3.8917    0.0000 O   0  0  0  0  0  0  0  0  0  0  0  0
    4.7125   -1.8292    0.0000 O   0  0  0  0  0  0  0  0  0  0  0  0
    4.7125   -0.1792    0.0000 C   0  0  0  0  0  0  0  0  0  0  0  0
    5.4167   -0.5917    0.0000 C   0  0  0  0  0  0  0  0  0  0  0  0
    4.7125    0.6458    0.0000 C   0  0  0  0  0  0  0  0  0  0  0  0
    6.1417    2.2958    0.0000 C   0  0  0  0  0  0  0  0  0  0  0  0
    1.1417   -3.0792    0.0000 C   0  0  0  0  0  0  0  0  0  0  0  0
    7.5750    3.1208    0.0000 C   0  0  0  0  0  0  0  0  0  0  0  0
    1.1292   -1.4292    0.0000 C   0  0  0  0  0  0  0  0  0  0  0  0
    9.0042    0.6458    0.0000 C   0  0  0  0  0  0  0  0  0  0  0  0
    6.1417    3.1208    0.0000 C   0  0  0  0  0  0  0  0  0  0  0  0
    0.4292   -2.6667    0.0000 C   0  0  0  0  0  0  0  0  0  0  0  0
    6.8667    3.5208    0.0000 C   0  0  0  0  0  0  0  0  0  0  0  0
    0.4250   -1.8417    0.0000 C   0  0  0  0  0  0  0  0  0  0  0  0
  2  9  1  0
  1  3  1  0
  1  4  2  0
  2  5  2  0
  2  6  1  0
  5  7  1  0
  1  8  1  0
  9 15  1  0
 10 14  2  0
  3 11  2  0
 12 13  2  0
  6 13  1  0
  4 14  1  0
 15 20  1  0
  8 16  1  0
  8 17  1  0
  7 18  2  0
  9 19  2  0
 20 21  1  0
 17 21  1  0
 16 22  1  0
  3 23  1  0
 12 24  1  0
 11 25  1  0
 13 26  1  0
 14 27  1  0
 23 28  1  0
 29 31  1  0
 28 30  1  0
 26 31  2  0
 10 11  1  0
 20 22  1  0
 25 30  1  0
  7 12  1  0
 24 29  2  0
M  END
>  <MOLFORMULA>  (243) 
C24 H26 N4 O3

>  <MOLWEIGHT>  (243) 
4.184944000000000e+002

>  <IDNUMBER>  (243) 
AT-687/SK01658

>  <PRICE>  (243) 
EUR 80/10 mg

>  <Similarity score>  (243) 
0.22

$$$$

     RDKit          2D

 30 33  0  0  0  0  0  0  0  0999 V2000
    2.5542   -0.9750    0.0000 C   0  0  0  0  0  0  0  0  0  0  0  0
    2.5542   -1.8000    0.0000 C   0  0  0  0  0  0  0  0  0  0  0  0
    1.8417   -0.5542    0.0000 N   0  0  0  0  0  0  0  0  0  0  0  0
    3.2792   -0.5667    0.0000 N   0  0  0  0  0  0  0  0  0  0  0  0
    8.2792    3.1458    0.0000 C   0  0  0  0  0  0  0  0  0  0  0  0
    5.4167    1.4875    0.0000 C   0  0  0  0  0  0  0  0  0  0  0  0
    1.1292   -1.7917    0.0000 N   0  0  0  0  0  0  0  0  0  0  0  0
    1.8292   -2.2042    0.0000 C   0  0  0  0  0  0  0  0  0  0  0  0
    6.1375    1.9000    0.0000 C   0  0  0  0  0  0  0  0  0  0  0  0
    1.1292   -0.9667    0.0000 C   0  0  0  0  0  0  0  0  0  0  0  0
    6.8417    3.1458    0.0000 N   0  0  0  0  0  0  0  0  0  0  0  0
    5.4167    0.6625    0.0000 N   0  0  0  0  0  0  0  0  0  0  0  0
    7.5667    2.7250    0.0000 C   0  0  0  0  0  0  0  0  0  0  0  0
    6.1375    2.7250    0.0000 C   0  0  0  0  0  0  0  0  0  0  0  0
    3.2792    0.2583    0.0000 C   0  0  0  0  0  0  0  0  0  0  0  0
    3.9792   -0.9792    0.0000 C   0  0  0  0  0  0  0  0  0  0  0  0
    4.7042    1.9000    0.0000 O   0  0  0  0  0  0  0  0  0  0  0  0
    6.8417    1.4875    0.0000 C   0  0  0  0  0  0  0  0  0  0  0  0
    7.5667    1.9000    0.0000 C   0  0  0  0  0  0  0  0  0  0  0  0
    8.6917    2.4208    0.0000 F   0  0  0  0  0  0  0  0  0  0  0  0
    7.8667    3.8375    0.0000 F   0  0  0  0  0  0  0  0  0  0  0  0
    8.9917    3.5458    0.0000 F   0  0  0  0  0  0  0  0  0  0  0  0
    4.7042    0.2500    0.0000 C   0  0  0  0  0  0  0  0  0  0  0  0
    4.7000   -0.5750    0.0000 C   0  0  0  0  0  0  0  0  0  0  0  0
    3.9917    0.6708    0.0000 C   0  0  0  0  0  0  0  0  0  0  0  0
    3.2667   -2.2250    0.0000 C   0  0  0  0  0  0  0  0  0  0  0  0
    1.8292   -3.0292    0.0000 C   0  0  0  0  0  0  0  0  0  0  0  0
    0.4250   -0.5542    0.0000 C   0  0  0  0  0  0  0  0  0  0  0  0
    3.2542   -3.0500    0.0000 C   0  0  0  0  0  0  0  0  0  0  0  0
    2.5292   -3.4542    0.0000 C   0  0  0  0  0  0  0  0  0  0  0  0
  1  2  1  0
  1  3  2  0
  1  4  1  0
  5 13  1  0
  6 12  1  0
  7 10  2  0
  2  8  2  0
  6  9  1  0
  3 10  1  0
 11 14  1  0
 12 23  1  0
 13 19  1  0
  9 14  2  0
  4 15  1  0
  4 16  1  0
  6 17  2  0
  9 18  1  0
 18 19  2  0
  5 20  1  0
  5 21  1  0
  5 22  1  0
 23 24  1  0
 16 24  1  0
 15 25  1  0
  2 26  1  0
  8 27  1  0
 10 28  1  0
 26 29  1  0
 29 30  1  0
  7  8  1  0
 23 25  1  0
 27 30  1  0
 11 13  2  0
M  END
>  <MOLFORMULA>  (244) 
C21 H24 F3 N5 O

>  <MOLWEIGHT>  (244) 
4.194486000000000e+002

>  <IDNUMBER>  (244) 
AT-687/SK01668

>  <PRICE>  (244) 
EUR 80/10 mg

>  <Similarity score>  (244) 
0.22

$$$$

     RDKit          2D

 29 33  0  0  0  0  0  0  0  0999 V2000
    0.1667   -2.3250    0.0000 N   0  0  0  0  0  0  0  0  0  0  0  0
   -0.2417   -1.4083    0.0000 C   0  0  0  0  0  0  0  0  0  0  0  0
    1.1625   -2.2208    0.0000 C   0  0  0  0  0  0  0  0  0  0  0  0
   -0.6208    1.6542    0.0000 C   0  0  0  0  0  0  0  0  0  0  0  0
    0.5042   -0.7417    0.0000 C   0  0  0  0  0  0  0  0  0  0  0  0
    0.1875    2.2417    0.0000 C   0  0  0  0  0  0  0  0  0  0  0  0
    1.3667   -1.2417    0.0000 C   0  0  0  0  0  0  0  0  0  0  0  0
    0.4000    0.2542    0.0000 N   0  0  0  0  0  0  0  0  0  0  0  0
   -1.4292    2.2417    0.0000 N   0  0  0  0  0  0  0  0  0  0  0  0
   -0.1208    3.1917    0.0000 C   0  0  0  0  0  0  0  0  0  0  0  0
   -1.1208    3.1917    0.0000 C   0  0  0  0  0  0  0  0  0  0  0  0
   -0.5167    0.6583    0.0000 C   0  0  0  0  0  0  0  0  0  0  0  0
   -0.3333   -3.1875    0.0000 C   0  0  0  0  0  0  0  0  0  0  0  0
    1.1042    1.8375    0.0000 C   0  0  0  0  0  0  0  0  0  0  0  0
   -1.2208   -1.2042    0.0000 O   0  0  0  0  0  0  0  0  0  0  0  0
    1.2083    0.8417    0.0000 C   0  0  0  0  0  0  0  0  0  0  0  0
    1.8292   -2.9625    0.0000 O   0  0  0  0  0  0  0  0  0  0  0  0
    0.3792    4.0542    0.0000 C   0  0  0  0  0  0  0  0  0  0  0  0
   -1.6208    4.0542    0.0000 C   0  0  0  0  0  0  0  0  0  0  0  0
   -1.3333   -3.1875    0.0000 C   0  0  0  0  0  0  0  0  0  0  0  0
    0.1667   -4.0542    0.0000 C   0  0  0  0  0  0  0  0  0  0  0  0
   -0.1208    4.9208    0.0000 C   0  0  0  0  0  0  0  0  0  0  0  0
   -1.3333   -4.9208    0.0000 C   0  0  0  0  0  0  0  0  0  0  0  0
   -1.1208    4.9208    0.0000 C   0  0  0  0  0  0  0  0  0  0  0  0
   -0.3333   -4.9208    0.0000 C   0  0  0  0  0  0  0  0  0  0  0  0
   -1.8333   -4.0542    0.0000 C   0  0  0  0  0  0  0  0  0  0  0  0
   -1.8333   -5.7875    0.0000 Br  0  0  0  0  0  0  0  0  0  0  0  0
    0.3792    5.7875    0.0000 O   0  0  0  0  0  0  0  0  0  0  0  0
    1.3792    5.7875    0.0000 C   0  0  0  0  0  0  0  0  0  0  0  0
  1  2  1  0
  1  3  1  0
  4 12  1  0
  2  5  1  0
  6 14  1  0
  3  7  1  0
  5  8  1  0
  4  9  1  0
  6 10  1  0
  9 11  1  0
  8 12  1  0
  1 13  1  0
 14 16  1  0
  2 15  2  0
  8 16  1  0
  3 17  2  0
 10 18  2  0
 11 19  2  0
 13 20  1  0
 13 21  2  0
 18 22  1  0
 23 26  1  0
 19 24  1  0
 21 25  1  0
 20 26  2  0
 23 27  1  0
 22 28  1  0
 28 29  1  0
  5  7  1  0
 23 25  2  0
  4  6  2  0
 10 11  1  0
 22 24  2  0
M  END
>  <MOLFORMULA>  (245) 
C22 H20 Br N3 O3

>  <MOLWEIGHT>  (245) 
4.543220000000000e+002

>  <IDNUMBER>  (245) 
AN-153/NB21447

>  <PRICE>  (245) 
EUR 130/10 mg

>  <Similarity score>  (245) 
0.22

$$$$

     RDKit          2D

 32 36  0  0  0  0  0  0  0  0999 V2000
    0.6667   -1.8917    0.0000 N   0  0  0  0  0  0  0  0  0  0  0  0
    0.2583   -0.9750    0.0000 C   0  0  0  0  0  0  0  0  0  0  0  0
    1.6625   -1.7875    0.0000 C   0  0  0  0  0  0  0  0  0  0  0  0
   -0.1208    2.0875    0.0000 C   0  0  0  0  0  0  0  0  0  0  0  0
    1.0042   -0.3083    0.0000 C   0  0  0  0  0  0  0  0  0  0  0  0
    0.6875    2.6750    0.0000 C   0  0  0  0  0  0  0  0  0  0  0  0
    1.8708   -0.8083    0.0000 C   0  0  0  0  0  0  0  0  0  0  0  0
    0.9000    0.6875    0.0000 N   0  0  0  0  0  0  0  0  0  0  0  0
   -0.9292    2.6750    0.0000 N   0  0  0  0  0  0  0  0  0  0  0  0
    0.1667   -2.7583    0.0000 C   0  0  0  0  0  0  0  0  0  0  0  0
    0.3792    3.6250    0.0000 C   0  0  0  0  0  0  0  0  0  0  0  0
   -0.6208    3.6250    0.0000 C   0  0  0  0  0  0  0  0  0  0  0  0
   -0.0167    1.0917    0.0000 C   0  0  0  0  0  0  0  0  0  0  0  0
   -0.8333   -2.7583    0.0000 C   0  0  0  0  0  0  0  0  0  0  0  0
    1.6042    2.2667    0.0000 C   0  0  0  0  0  0  0  0  0  0  0  0
   -1.3333   -3.6208    0.0000 C   0  0  0  0  0  0  0  0  0  0  0  0
   -0.7167   -0.7708    0.0000 O   0  0  0  0  0  0  0  0  0  0  0  0
    0.6667   -3.6208    0.0000 C   0  0  0  0  0  0  0  0  0  0  0  0
    1.7083    1.2750    0.0000 C   0  0  0  0  0  0  0  0  0  0  0  0
    2.3292   -2.5292    0.0000 O   0  0  0  0  0  0  0  0  0  0  0  0
    0.8792    4.4875    0.0000 C   0  0  0  0  0  0  0  0  0  0  0  0
   -1.1208    4.4875    0.0000 C   0  0  0  0  0  0  0  0  0  0  0  0
   -0.8333   -4.4875    0.0000 C   0  0  0  0  0  0  0  0  0  0  0  0
    0.3792    5.3542    0.0000 C   0  0  0  0  0  0  0  0  0  0  0  0
    0.1667   -4.4875    0.0000 C   0  0  0  0  0  0  0  0  0  0  0  0
   -1.3333   -1.8917    0.0000 O   0  0  0  0  0  0  0  0  0  0  0  0
   -0.6208    5.3542    0.0000 C   0  0  0  0  0  0  0  0  0  0  0  0
   -1.3333   -5.3542    0.0000 O   0  0  0  0  0  0  0  0  0  0  0  0
    0.8792    6.2208    0.0000 O   0  0  0  0  0  0  0  0  0  0  0  0
   -2.3333   -1.8917    0.0000 C   0  0  0  0  0  0  0  0  0  0  0  0
    1.8792    6.2208    0.0000 C   0  0  0  0  0  0  0  0  0  0  0  0
   -0.8333   -6.2208    0.0000 C   0  0  0  0  0  0  0  0  0  0  0  0
  1  2  1  0
  1  3  1  0
  4 13  1  0
  2  5  1  0
  6 15  1  0
  3  7  1  0
  5  8  1  0
  4  9  1  0
  1 10  1  0
  6 11  1  0
  9 12  1  0
  8 13  1  0
 10 14  1  0
 15 19  1  0
 14 16  2  0
  2 17  2  0
 10 18  2  0
  8 19  1  0
  3 20  2  0
 11 21  2  0
 12 22  2  0
 23 25  2  0
 21 24  1  0
 18 25  1  0
 14 26  1  0
 22 27  1  0
 23 28  1  0
 24 29  1  0
 26 30  1  0
 29 31  1  0
 28 32  1  0
  5  7  1  0
 16 23  1  0
  4  6  2  0
 11 12  1  0
 24 27  2  0
M  END
>  <MOLFORMULA>  (246) 
C24 H25 N3 O5

>  <MOLWEIGHT>  (246) 
4.354775000000000e+002

>  <IDNUMBER>  (246) 
AN-153/NB21464

>  <PRICE>  (246) 
EUR 130/10 mg

>  <Similarity score>  (246) 
0.22

$$$$

     RDKit          2D

 33 37  0  0  0  0  0  0  0  0999 V2000
   -1.9833    3.2458    0.0000 C   0  0  0  0  0  0  0  0  0  0  0  0
   -1.9833    4.2292    0.0000 N   0  0  0  0  0  0  0  0  0  0  0  0
   -1.1208    2.7458    0.0000 C   0  0  0  0  0  0  0  0  0  0  0  0
   -2.9375    4.5417    0.0000 N   0  0  0  0  0  0  0  0  0  0  0  0
   -2.9375    2.9333    0.0000 C   0  0  0  0  0  0  0  0  0  0  0  0
   -1.1208    1.7375    0.0000 N   0  0  0  0  0  0  0  0  0  0  0  0
   -3.5208    3.7375    0.0000 C   0  0  0  0  0  0  0  0  0  0  0  0
   -0.2500    3.2458    0.0000 N   0  0  0  0  0  0  0  0  0  0  0  0
   -0.2583    0.2375    0.0000 C   0  0  0  0  0  0  0  0  0  0  0  0
    0.6042   -0.2625    0.0000 C   0  0  0  0  0  0  0  0  0  0  0  0
   -1.1208    4.7417    0.0000 C   0  0  0  0  0  0  0  0  0  0  0  0
   -0.2500    1.2458    0.0000 C   0  0  0  0  0  0  0  0  0  0  0  0
   -0.2500    4.2292    0.0000 C   0  0  0  0  0  0  0  0  0  0  0  0
    1.4750    0.2375    0.0000 N   0  0  0  0  0  0  0  0  0  0  0  0
    2.3292   -1.2500    0.0000 C   0  0  0  0  0  0  0  0  0  0  0  0
    3.1917   -1.7625    0.0000 C   0  0  0  0  0  0  0  0  0  0  0  0
    3.1917   -2.7417    0.0000 C   0  0  0  0  0  0  0  0  0  0  0  0
    2.3417   -0.2625    0.0000 C   0  0  0  0  0  0  0  0  0  0  0  0
    0.6042   -1.2542    0.0000 O   0  0  0  0  0  0  0  0  0  0  0  0
    1.4667   -1.7417    0.0000 C   0  0  0  0  0  0  0  0  0  0  0  0
    2.3167   -3.2500    0.0000 C   0  0  0  0  0  0  0  0  0  0  0  0
   -1.9833    1.2458    0.0000 C   0  0  0  0  0  0  0  0  0  0  0  0
   -3.3458    2.0208    0.0000 C   0  0  0  0  0  0  0  0  0  0  0  0
    1.4542   -2.7417    0.0000 C   0  0  0  0  0  0  0  0  0  0  0  0
    4.0667   -1.2667    0.0000 O   0  0  0  0  0  0  0  0  0  0  0  0
   -1.1250   -0.2542    0.0000 C   0  0  0  0  0  0  0  0  0  0  0  0
   -4.5208    3.6458    0.0000 C   0  0  0  0  0  0  0  0  0  0  0  0
    2.3125   -4.2292    0.0000 O   0  0  0  0  0  0  0  0  0  0  0  0
   -1.9833    0.2500    0.0000 C   0  0  0  0  0  0  0  0  0  0  0  0
    4.9250   -1.7792    0.0000 C   0  0  0  0  0  0  0  0  0  0  0  0
    3.1917   -4.7417    0.0000 C   0  0  0  0  0  0  0  0  0  0  0  0
   -4.3458    1.9125    0.0000 C   0  0  0  0  0  0  0  0  0  0  0  0
   -4.9333    2.7208    0.0000 C   0  0  0  0  0  0  0  0  0  0  0  0
  1  2  1  0
  1  3  1  0
  2  4  1  0
  1  5  2  0
  3  6  1  0
  5  7  1  0
  3  8  2  0
  9 12  1  0
  9 10  1  0
  2 11  1  0
  6 12  1  0
  8 13  1  0
 10 14  1  0
 15 18  1  0
 15 16  2  0
 16 17  1  0
 14 18  1  0
 10 19  2  0
 15 20  1  0
 21 24  1  0
  6 22  1  0
  5 23  1  0
 20 24  2  0
 16 25  1  0
 26 29  1  0
  7 27  1  0
 21 28  1  0
 22 29  1  0
 25 30  1  0
 28 31  1  0
 23 32  1  0
 32 33  1  0
  4  7  2  0
 11 13  2  0
 27 33  1  0
  9 26  1  0
 17 21  2  0
M  END
>  <MOLFORMULA>  (247) 
C25 H31 N5 O3

>  <MOLWEIGHT>  (247) 
4.495519000000000e+002

>  <IDNUMBER>  (247) 
AT-687/PE21888

>  <PRICE>  (247) 
EUR 80/10 mg

>  <Similarity score>  (247) 
0.22

$$$$

     RDKit          2D

 30 34  0  0  0  0  0  0  0  0999 V2000
    0.1667   -1.0250    0.0000 N   0  0  0  0  0  0  0  0  0  0  0  0
   -0.2417   -0.1125    0.0000 C   0  0  0  0  0  0  0  0  0  0  0  0
    1.1625   -0.9208    0.0000 C   0  0  0  0  0  0  0  0  0  0  0  0
   -0.6208    2.9542    0.0000 C   0  0  0  0  0  0  0  0  0  0  0  0
    0.5042    0.5583    0.0000 C   0  0  0  0  0  0  0  0  0  0  0  0
    1.3708    0.0583    0.0000 C   0  0  0  0  0  0  0  0  0  0  0  0
    0.1875    3.5417    0.0000 C   0  0  0  0  0  0  0  0  0  0  0  0
    0.4000    1.5542    0.0000 N   0  0  0  0  0  0  0  0  0  0  0  0
   -1.4292    3.5417    0.0000 N   0  0  0  0  0  0  0  0  0  0  0  0
   -0.1208    4.4875    0.0000 C   0  0  0  0  0  0  0  0  0  0  0  0
   -1.1208    4.4875    0.0000 C   0  0  0  0  0  0  0  0  0  0  0  0
   -0.5167    1.9583    0.0000 C   0  0  0  0  0  0  0  0  0  0  0  0
   -0.3333   -1.8917    0.0000 C   0  0  0  0  0  0  0  0  0  0  0  0
    1.1042    3.1333    0.0000 C   0  0  0  0  0  0  0  0  0  0  0  0
   -1.2167    0.0958    0.0000 O   0  0  0  0  0  0  0  0  0  0  0  0
    1.2083    2.1417    0.0000 C   0  0  0  0  0  0  0  0  0  0  0  0
    1.8292   -1.6625    0.0000 O   0  0  0  0  0  0  0  0  0  0  0  0
   -1.3333   -5.3542    0.0000 C   0  0  0  0  0  0  0  0  0  0  0  0
   -1.8333   -4.4875    0.0000 N   0  0  0  0  0  0  0  0  0  0  0  0
   -0.3333   -5.3542    0.0000 O   0  0  0  0  0  0  0  0  0  0  0  0
   -1.3333   -1.8917    0.0000 C   0  0  0  0  0  0  0  0  0  0  0  0
    0.1667   -2.7583    0.0000 C   0  0  0  0  0  0  0  0  0  0  0  0
   -1.3333   -3.6208    0.0000 C   0  0  0  0  0  0  0  0  0  0  0  0
   -0.3333   -3.6208    0.0000 C   0  0  0  0  0  0  0  0  0  0  0  0
   -1.8333   -2.7583    0.0000 C   0  0  0  0  0  0  0  0  0  0  0  0
    0.3792    5.3542    0.0000 C   0  0  0  0  0  0  0  0  0  0  0  0
   -1.6208    5.3542    0.0000 C   0  0  0  0  0  0  0  0  0  0  0  0
   -1.8333   -6.2208    0.0000 C   0  0  0  0  0  0  0  0  0  0  0  0
   -0.1208    6.2208    0.0000 C   0  0  0  0  0  0  0  0  0  0  0  0
   -1.1208    6.2208    0.0000 C   0  0  0  0  0  0  0  0  0  0  0  0
  1  2  1  0
  1  3  1  0
  4 12  1  0
  2  5  1  0
  3  6  1  0
  7 14  1  0
  5  8  1  0
  4  9  1  0
  7 10  1  0
  9 11  1  0
  8 12  1  0
  1 13  1  0
 14 16  1  0
  2 15  2  0
  8 16  1  0
  3 17  2  0
 18 19  1  0
 19 23  1  0
 18 20  2  0
 13 21  2  0
 13 22  1  0
 23 25  2  0
 22 24  2  0
 21 25  1  0
 10 26  2  0
 11 27  2  0
 18 28  1  0
 26 29  1  0
 27 30  1  0
  5  6  1  0
 23 24  1  0
  4  7  2  0
 10 11  1  0
 29 30  2  0
M  END
>  <MOLFORMULA>  (248) 
C23 H22 N4 O3

>  <MOLWEIGHT>  (248) 
4.024518000000000e+002

>  <IDNUMBER>  (248) 
AN-153/NB21433

>  <PRICE>  (248) 
EUR 130/10 mg

>  <Similarity score>  (248) 
0.22

$$$$

     RDKit          2D

 25 28  0  0  0  0  0  0  0  0999 V2000
    0.7042   -2.6250    0.0000 C   0  0  0  0  0  0  0  0  0  0  0  0
    1.6250   -3.0208    0.0000 C   0  0  0  0  0  0  0  0  0  0  0  0
    0.8000   -1.6292    0.0000 C   0  0  0  0  0  0  0  0  0  0  0  0
    2.2833   -2.2708    0.0000 O   0  0  0  0  0  0  0  0  0  0  0  0
    0.0417    1.7500    0.0000 C   0  0  0  0  0  0  0  0  0  0  0  0
    1.7750   -1.4083    0.0000 C   0  0  0  0  0  0  0  0  0  0  0  0
   -0.6375    2.4875    0.0000 C   0  0  0  0  0  0  0  0  0  0  0  0
   -0.3375    3.4417    0.0000 C   0  0  0  0  0  0  0  0  0  0  0  0
   -0.2583    0.7958    0.0000 N   0  0  0  0  0  0  0  0  0  0  0  0
    0.6375    3.6583    0.0000 C   0  0  0  0  0  0  0  0  0  0  0  0
    0.1208   -0.8917    0.0000 C   0  0  0  0  0  0  0  0  0  0  0  0
    0.4208    0.0625    0.0000 C   0  0  0  0  0  0  0  0  0  0  0  0
    1.0167    1.9708    0.0000 O   0  0  0  0  0  0  0  0  0  0  0  0
    1.3167    2.9250    0.0000 O   0  0  0  0  0  0  0  0  0  0  0  0
    2.0750   -0.4542    0.0000 C   0  0  0  0  0  0  0  0  0  0  0  0
   -2.2875    3.0042    0.0000 C   0  0  0  0  0  0  0  0  0  0  0  0
   -1.9917    3.9583    0.0000 C   0  0  0  0  0  0  0  0  0  0  0  0
    0.9375    4.6083    0.0000 O   0  0  0  0  0  0  0  0  0  0  0  0
    1.3958    0.2792    0.0000 C   0  0  0  0  0  0  0  0  0  0  0  0
   -0.0958   -3.2208    0.0000 C   0  0  0  0  0  0  0  0  0  0  0  0
   -1.6125    2.2667    0.0000 C   0  0  0  0  0  0  0  0  0  0  0  0
   -1.0167    4.1750    0.0000 C   0  0  0  0  0  0  0  0  0  0  0  0
    1.7375   -4.0125    0.0000 C   0  0  0  0  0  0  0  0  0  0  0  0
    0.0208   -4.2125    0.0000 C   0  0  0  0  0  0  0  0  0  0  0  0
    0.9375   -4.6125    0.0000 C   0  0  0  0  0  0  0  0  0  0  0  0
  1  2  2  0
  1  3  1  0
  2  4  1  0
  5  9  1  0
  3  6  2  0
  5  7  1  0
  7  8  1  0
  9 12  1  0
  8 10  1  0
  3 11  1  0
 11 12  2  0
  5 13  2  0
 10 14  2  0
  6 15  1  0
 16 21  1  0
 16 17  2  0
 10 18  1  0
 12 19  1  0
  1 20  1  0
  7 21  1  0
  8 22  1  0
  2 23  1  0
 20 24  1  0
 24 25  1  0
  4  6  1  0
 23 25  1  0
 15 19  2  0
 17 22  1  0
M  END
>  <MOLFORMULA>  (249) 
C20 H21 N O4

>  <MOLWEIGHT>  (249) 
3.393889000000000e+002

>  <IDNUMBER>  (249) 
AN-153/I294657

>  <PRICE>  (249) 
EUR 130/10 mg

>  <Similarity score>  (249) 
0.22

$$$$

     RDKit          2D

 34 38  0  0  0  0  0  0  0  0999 V2000
   -2.8583    3.2500    0.0000 C   0  0  0  0  0  0  0  0  0  0  0  0
   -2.8583    4.2417    0.0000 N   0  0  0  0  0  0  0  0  0  0  0  0
   -1.9875    2.7500    0.0000 C   0  0  0  0  0  0  0  0  0  0  0  0
   -3.8125    4.5542    0.0000 N   0  0  0  0  0  0  0  0  0  0  0  0
   -3.8125    2.9333    0.0000 C   0  0  0  0  0  0  0  0  0  0  0  0
   -1.9875    1.7500    0.0000 N   0  0  0  0  0  0  0  0  0  0  0  0
   -4.4083    3.7458    0.0000 C   0  0  0  0  0  0  0  0  0  0  0  0
   -1.1333    3.2500    0.0000 N   0  0  0  0  0  0  0  0  0  0  0  0
   -1.1333    0.2500    0.0000 C   0  0  0  0  0  0  0  0  0  0  0  0
   -1.9875    4.7542    0.0000 C   0  0  0  0  0  0  0  0  0  0  0  0
   -1.1333    1.2500    0.0000 C   0  0  0  0  0  0  0  0  0  0  0  0
   -0.2583   -0.2542    0.0000 C   0  0  0  0  0  0  0  0  0  0  0  0
   -1.1333    4.2417    0.0000 C   0  0  0  0  0  0  0  0  0  0  0  0
    3.1917   -3.2417    0.0000 C   0  0  0  0  0  0  0  0  0  0  0  0
    4.0625   -2.7417    0.0000 C   0  0  0  0  0  0  0  0  0  0  0  0
   -0.2708   -1.2542    0.0000 O   0  0  0  0  0  0  0  0  0  0  0  0
    2.3292   -2.7542    0.0000 C   0  0  0  0  0  0  0  0  0  0  0  0
    0.6000    0.2458    0.0000 N   0  0  0  0  0  0  0  0  0  0  0  0
    4.0500   -1.7542    0.0000 C   0  0  0  0  0  0  0  0  0  0  0  0
   -2.8583    1.2500    0.0000 C   0  0  0  0  0  0  0  0  0  0  0  0
   -4.2208    2.0333    0.0000 C   0  0  0  0  0  0  0  0  0  0  0  0
    2.3292   -1.7542    0.0000 C   0  0  0  0  0  0  0  0  0  0  0  0
    3.1917   -1.2542    0.0000 C   0  0  0  0  0  0  0  0  0  0  0  0
    3.1917   -4.2542    0.0000 O   0  0  0  0  0  0  0  0  0  0  0  0
   -2.0000   -0.2417    0.0000 C   0  0  0  0  0  0  0  0  0  0  0  0
    4.9292   -3.2417    0.0000 O   0  0  0  0  0  0  0  0  0  0  0  0
   -5.3958    3.6458    0.0000 C   0  0  0  0  0  0  0  0  0  0  0  0
    1.4667   -0.2542    0.0000 C   0  0  0  0  0  0  0  0  0  0  0  0
   -2.8583    0.2625    0.0000 C   0  0  0  0  0  0  0  0  0  0  0  0
    1.4625   -1.2542    0.0000 C   0  0  0  0  0  0  0  0  0  0  0  0
    4.0625   -4.7542    0.0000 C   0  0  0  0  0  0  0  0  0  0  0  0
    5.8042   -2.7417    0.0000 C   0  0  0  0  0  0  0  0  0  0  0  0
   -5.2208    1.9250    0.0000 C   0  0  0  0  0  0  0  0  0  0  0  0
   -5.8083    2.7375    0.0000 C   0  0  0  0  0  0  0  0  0  0  0  0
  1  2  1  0
  1  3  1  0
  2  4  1  0
  1  5  2  0
  3  6  1  0
  5  7  1  0
  3  8  2  0
  9 11  1  0
  2 10  1  0
  6 11  1  0
  9 12  1  0
  8 13  1  0
 14 17  1  0
 15 19  1  0
 12 16  2  0
 17 22  2  0
 12 18  1  0
 19 23  2  0
  6 20  1  0
  5 21  1  0
 22 30  1  0
 22 23  1  0
 14 24  1  0
 25 29  1  0
 15 26  1  0
  7 27  1  0
 18 28  1  0
 20 29  1  0
 28 30  1  0
 24 31  1  0
 26 32  1  0
 21 33  1  0
 33 34  1  0
  4  7  2  0
 10 13  2  0
 27 34  1  0
  9 25  1  0
 14 15  2  0
M  END
>  <MOLFORMULA>  (250) 
C26 H33 N5 O3

>  <MOLWEIGHT>  (250) 
4.635787000000000e+002

>  <IDNUMBER>  (250) 
AT-687/PE21897

>  <PRICE>  (250) 
EUR 80/10 mg

>  <Similarity score>  (250) 
0.22

$$$$

     RDKit          2D

 26 29  0  0  0  0  0  0  0  0999 V2000
    5.4167    0.8875    0.0000 C   0  0  0  0  0  0  0  0  0  0  0  0
    5.4167    1.7125    0.0000 C   0  0  0  0  0  0  0  0  0  0  0  0
    6.1417    0.4750    0.0000 N   0  0  0  0  0  0  0  0  0  0  0  0
    4.7125    0.4750    0.0000 N   0  0  0  0  0  0  0  0  0  0  0  0
    6.8542    1.7125    0.0000 N   0  0  0  0  0  0  0  0  0  0  0  0
    6.1417    2.1250    0.0000 C   0  0  0  0  0  0  0  0  0  0  0  0
    2.5667   -1.5875    0.0000 C   0  0  0  0  0  0  0  0  0  0  0  0
    6.8542    0.8875    0.0000 C   0  0  0  0  0  0  0  0  0  0  0  0
    2.5667   -0.7625    0.0000 N   0  0  0  0  0  0  0  0  0  0  0  0
    3.9917    0.8875    0.0000 C   0  0  0  0  0  0  0  0  0  0  0  0
    4.7125   -0.3500    0.0000 C   0  0  0  0  0  0  0  0  0  0  0  0
    3.2792   -2.0000    0.0000 O   0  0  0  0  0  0  0  0  0  0  0  0
    1.8542   -2.0000    0.0000 C   0  0  0  0  0  0  0  0  0  0  0  0
    0.4250   -2.8250    0.0000 N   0  0  0  0  0  0  0  0  0  0  0  0
    3.2792   -0.3500    0.0000 C   0  0  0  0  0  0  0  0  0  0  0  0
    3.9917   -0.7625    0.0000 C   0  0  0  0  0  0  0  0  0  0  0  0
    3.2792    0.4750    0.0000 C   0  0  0  0  0  0  0  0  0  0  0  0
    4.7125    2.1333    0.0000 C   0  0  0  0  0  0  0  0  0  0  0  0
    6.1417    2.9583    0.0000 C   0  0  0  0  0  0  0  0  0  0  0  0
    7.5667    0.4750    0.0000 C   0  0  0  0  0  0  0  0  0  0  0  0
    0.4250   -2.0042    0.0000 C   0  0  0  0  0  0  0  0  0  0  0  0
    1.1375   -3.2375    0.0000 C   0  0  0  0  0  0  0  0  0  0  0  0
    1.1375   -1.5875    0.0000 C   0  0  0  0  0  0  0  0  0  0  0  0
    1.8542   -2.8292    0.0000 C   0  0  0  0  0  0  0  0  0  0  0  0
    4.7167    2.9583    0.0000 C   0  0  0  0  0  0  0  0  0  0  0  0
    5.4375    3.3583    0.0000 C   0  0  0  0  0  0  0  0  0  0  0  0
  1  2  1  0
  1  3  2  0
  1  4  1  0
  5  8  2  0
  2  6  2  0
  7  9  1  0
  3  8  1  0
  9 15  1  0
  4 10  1  0
  4 11  1  0
  7 12  2  0
  7 13  1  0
 14 22  1  0
 15 16  1  0
 11 16  1  0
 10 17  1  0
  2 18  1  0
  6 19  1  0
  8 20  1  0
 21 23  1  0
 22 24  2  0
 13 23  2  0
 13 24  1  0
 18 25  1  0
 25 26  1  0
  5  6  1  0
 15 17  1  0
 19 26  1  0
 14 21  2  0
M  END
>  <MOLFORMULA>  (251) 
C20 H25 N5 O

>  <MOLWEIGHT>  (251) 
3.514515000000000e+002

>  <IDNUMBER>  (251) 
AT-687/SK01680

>  <PRICE>  (251) 
EUR 80/10 mg

>  <Similarity score>  (251) 
0.22

$$$$

     RDKit          2D

 30 34  0  0  0  0  0  0  0  0999 V2000
    0.9167   -2.7583    0.0000 N   0  0  0  0  0  0  0  0  0  0  0  0
    0.5083   -1.8417    0.0000 C   0  0  0  0  0  0  0  0  0  0  0  0
    1.9125   -2.6542    0.0000 C   0  0  0  0  0  0  0  0  0  0  0  0
    0.1292    1.2208    0.0000 C   0  0  0  0  0  0  0  0  0  0  0  0
    1.2542   -1.1750    0.0000 C   0  0  0  0  0  0  0  0  0  0  0  0
    0.9375    1.8083    0.0000 C   0  0  0  0  0  0  0  0  0  0  0  0
    2.1167   -1.6750    0.0000 C   0  0  0  0  0  0  0  0  0  0  0  0
    1.1500   -0.1792    0.0000 N   0  0  0  0  0  0  0  0  0  0  0  0
   -0.6792    1.8083    0.0000 N   0  0  0  0  0  0  0  0  0  0  0  0
    0.6292    2.7625    0.0000 C   0  0  0  0  0  0  0  0  0  0  0  0
    0.4167   -3.6208    0.0000 C   0  0  0  0  0  0  0  0  0  0  0  0
   -0.3708    2.7625    0.0000 C   0  0  0  0  0  0  0  0  0  0  0  0
    0.2333    0.2292    0.0000 C   0  0  0  0  0  0  0  0  0  0  0  0
    1.8542    1.4042    0.0000 C   0  0  0  0  0  0  0  0  0  0  0  0
   -0.5833   -3.6208    0.0000 C   0  0  0  0  0  0  0  0  0  0  0  0
   -0.4667   -1.6333    0.0000 O   0  0  0  0  0  0  0  0  0  0  0  0
    1.9583    0.4083    0.0000 C   0  0  0  0  0  0  0  0  0  0  0  0
    2.5792   -3.3958    0.0000 O   0  0  0  0  0  0  0  0  0  0  0  0
    1.1292    3.6250    0.0000 C   0  0  0  0  0  0  0  0  0  0  0  0
   -0.8708    3.6250    0.0000 C   0  0  0  0  0  0  0  0  0  0  0  0
   -1.0833   -4.4875    0.0000 C   0  0  0  0  0  0  0  0  0  0  0  0
    0.6292    4.4875    0.0000 C   0  0  0  0  0  0  0  0  0  0  0  0
   -0.3708    4.4875    0.0000 C   0  0  0  0  0  0  0  0  0  0  0  0
    0.9167   -4.4875    0.0000 C   0  0  0  0  0  0  0  0  0  0  0  0
   -2.0833   -4.4875    0.0000 O   0  0  0  0  0  0  0  0  0  0  0  0
    1.1292    5.3542    0.0000 O   0  0  0  0  0  0  0  0  0  0  0  0
    0.4167   -5.3542    0.0000 C   0  0  0  0  0  0  0  0  0  0  0  0
   -0.5833   -5.3542    0.0000 C   0  0  0  0  0  0  0  0  0  0  0  0
    2.1292    5.3542    0.0000 C   0  0  0  0  0  0  0  0  0  0  0  0
   -2.5833   -5.3542    0.0000 C   0  0  0  0  0  0  0  0  0  0  0  0
  1  2  1  0
  1  3  1  0
  4 13  1  0
  2  5  1  0
  6 14  1  0
  3  7  1  0
  5  8  1  0
  4  9  1  0
  6 10  1  0
  1 11  1  0
  9 12  1  0
  8 13  1  0
 14 17  1  0
 11 15  2  0
  2 16  2  0
  8 17  1  0
  3 18  2  0
 10 19  2  0
 12 20  2  0
 15 21  1  0
 19 22  1  0
 20 23  1  0
 11 24  1  0
 21 25  1  0
 22 26  1  0
 24 27  2  0
 27 28  1  0
 26 29  1  0
 25 30  1  0
  5  7  1  0
 21 28  2  0
  4  6  2  0
 10 12  1  0
 22 23  2  0
M  END
>  <MOLFORMULA>  (252) 
C23 H23 N3 O4

>  <MOLWEIGHT>  (252) 
4.054517000000000e+002

>  <IDNUMBER>  (252) 
AN-153/NB21453

>  <PRICE>  (252) 
EUR 130/10 mg

>  <Similarity score>  (252) 
0.22

$$$$

     RDKit          2D

 30 34  0  0  0  0  0  0  0  0999 V2000
    0.6667   -1.4583    0.0000 N   0  0  0  0  0  0  0  0  0  0  0  0
    0.2583   -0.5458    0.0000 C   0  0  0  0  0  0  0  0  0  0  0  0
    1.6625   -1.3542    0.0000 C   0  0  0  0  0  0  0  0  0  0  0  0
   -0.1208    2.5208    0.0000 C   0  0  0  0  0  0  0  0  0  0  0  0
    1.0042    0.1250    0.0000 C   0  0  0  0  0  0  0  0  0  0  0  0
    1.8667   -0.3750    0.0000 C   0  0  0  0  0  0  0  0  0  0  0  0
    0.6875    3.1083    0.0000 C   0  0  0  0  0  0  0  0  0  0  0  0
    0.8958    1.1208    0.0000 N   0  0  0  0  0  0  0  0  0  0  0  0
   -0.9292    3.1083    0.0000 N   0  0  0  0  0  0  0  0  0  0  0  0
    0.1667   -2.3250    0.0000 C   0  0  0  0  0  0  0  0  0  0  0  0
    0.3792    4.0542    0.0000 C   0  0  0  0  0  0  0  0  0  0  0  0
   -0.6208    4.0542    0.0000 C   0  0  0  0  0  0  0  0  0  0  0  0
   -0.0167    1.5250    0.0000 C   0  0  0  0  0  0  0  0  0  0  0  0
   -0.8333   -2.3250    0.0000 C   0  0  0  0  0  0  0  0  0  0  0  0
    1.6042    2.7042    0.0000 C   0  0  0  0  0  0  0  0  0  0  0  0
   -1.3333   -3.1875    0.0000 C   0  0  0  0  0  0  0  0  0  0  0  0
   -0.7167   -0.3375    0.0000 O   0  0  0  0  0  0  0  0  0  0  0  0
    0.6667   -3.1875    0.0000 C   0  0  0  0  0  0  0  0  0  0  0  0
    1.7083    1.7083    0.0000 C   0  0  0  0  0  0  0  0  0  0  0  0
    2.3292   -2.0958    0.0000 O   0  0  0  0  0  0  0  0  0  0  0  0
   -0.8333   -4.0542    0.0000 C   0  0  0  0  0  0  0  0  0  0  0  0
    0.1667   -4.0542    0.0000 C   0  0  0  0  0  0  0  0  0  0  0  0
   -1.3333   -1.4583    0.0000 O   0  0  0  0  0  0  0  0  0  0  0  0
    0.8792    4.9208    0.0000 C   0  0  0  0  0  0  0  0  0  0  0  0
   -1.3333   -4.9208    0.0000 O   0  0  0  0  0  0  0  0  0  0  0  0
   -1.1208    4.9208    0.0000 C   0  0  0  0  0  0  0  0  0  0  0  0
   -2.3333   -1.4583    0.0000 C   0  0  0  0  0  0  0  0  0  0  0  0
   -0.8333   -5.7875    0.0000 C   0  0  0  0  0  0  0  0  0  0  0  0
    0.3792    5.7875    0.0000 C   0  0  0  0  0  0  0  0  0  0  0  0
   -0.6208    5.7875    0.0000 C   0  0  0  0  0  0  0  0  0  0  0  0
  1  2  1  0
  1  3  1  0
  4 13  1  0
  2  5  1  0
  3  6  1  0
  7 15  1  0
  5  8  1  0
  4  9  1  0
  1 10  1  0
  7 11  1  0
  9 12  1  0
  8 13  1  0
 10 14  1  0
 15 19  1  0
 14 16  2  0
  2 17  2  0
 10 18  2  0
  8 19  1  0
  3 20  2  0
 21 22  2  0
 18 22  1  0
 14 23  1  0
 11 24  2  0
 21 25  1  0
 12 26  2  0
 23 27  1  0
 25 28  1  0
 24 29  1  0
 26 30  1  0
  5  6  1  0
 16 21  1  0
  4  7  2  0
 11 12  1  0
 29 30  2  0
M  END
>  <MOLFORMULA>  (253) 
C23 H23 N3 O4

>  <MOLWEIGHT>  (253) 
4.054517000000000e+002

>  <IDNUMBER>  (253) 
AN-153/NB21441

>  <PRICE>  (253) 
EUR 130/10 mg

>  <Similarity score>  (253) 
0.22

$$$$

     RDKit          2D

 33 37  0  0  0  0  0  0  0  0999 V2000
    7.0042    0.1833    0.0000 C   0  0  0  0  0  0  0  0  0  0  0  0
    7.6667    0.6625    0.0000 N   0  0  0  0  0  0  0  0  0  0  0  0
    2.4667    0.9333    0.0000 C   0  0  0  0  0  0  0  0  0  0  0  0
    7.2542   -0.6167    0.0000 C   0  0  0  0  0  0  0  0  0  0  0  0
    8.3375    0.1833    0.0000 N   0  0  0  0  0  0  0  0  0  0  0  0
    1.8542    0.3833    0.0000 C   0  0  0  0  0  0  0  0  0  0  0  0
    6.2167    0.4333    0.0000 C   0  0  0  0  0  0  0  0  0  0  0  0
    8.0792   -0.6167    0.0000 C   0  0  0  0  0  0  0  0  0  0  0  0
    2.3042    1.7458    0.0000 N   0  0  0  0  0  0  0  0  0  0  0  0
    3.2542    0.6708    0.0000 N   0  0  0  0  0  0  0  0  0  0  0  0
    0.9042    1.4458    0.0000 N   0  0  0  0  0  0  0  0  0  0  0  0
    1.0667    0.6458    0.0000 C   0  0  0  0  0  0  0  0  0  0  0  0
    1.5250    2.0083    0.0000 C   0  0  0  0  0  0  0  0  0  0  0  0
    5.6042   -0.1042    0.0000 N   0  0  0  0  0  0  0  0  0  0  0  0
    8.5667   -1.2750    0.0000 C   0  0  0  0  0  0  0  0  0  0  0  0
    6.0417    1.2458    0.0000 O   0  0  0  0  0  0  0  0  0  0  0  0
    3.4167   -0.1375    0.0000 C   0  0  0  0  0  0  0  0  0  0  0  0
    3.8750    1.2208    0.0000 C   0  0  0  0  0  0  0  0  0  0  0  0
    4.8250    0.1458    0.0000 C   0  0  0  0  0  0  0  0  0  0  0  0
    4.2042   -0.3917    0.0000 C   0  0  0  0  0  0  0  0  0  0  0  0
    4.6500    0.9583    0.0000 C   0  0  0  0  0  0  0  0  0  0  0  0
    8.2292   -2.0292    0.0000 C   0  0  0  0  0  0  0  0  0  0  0  0
    9.3875   -1.1917    0.0000 C   0  0  0  0  0  0  0  0  0  0  0  0
    7.6667    1.4875    0.0000 C   0  0  0  0  0  0  0  0  0  0  0  0
    9.5417   -2.6042    0.0000 C   0  0  0  0  0  0  0  0  0  0  0  0
    2.0042   -0.4292    0.0000 C   0  0  0  0  0  0  0  0  0  0  0  0
    9.8750   -1.8542    0.0000 C   0  0  0  0  0  0  0  0  0  0  0  0
    8.7167   -2.7000    0.0000 C   0  0  0  0  0  0  0  0  0  0  0  0
   10.0292   -3.2750    0.0000 F   0  0  0  0  0  0  0  0  0  0  0  0
    0.4500    0.1083    0.0000 C   0  0  0  0  0  0  0  0  0  0  0  0
    1.3542    2.8083    0.0000 C   0  0  0  0  0  0  0  0  0  0  0  0
    1.3917   -0.9667    0.0000 C   0  0  0  0  0  0  0  0  0  0  0  0
    0.6167   -0.7042    0.0000 C   0  0  0  0  0  0  0  0  0  0  0  0
  1  2  1  0
  3 10  1  0
  1  4  2  0
  2  5  1  0
  3  6  1  0
  1  7  1  0
  4  8  1  0
  3  9  2  0
 10 18  1  0
 11 13  2  0
  6 12  2  0
  9 13  1  0
  7 14  1  0
  8 15  1  0
  7 16  2  0
 17 20  1  0
 18 21  1  0
 14 19  1  0
 19 20  1  0
 19 21  1  0
 15 22  1  0
 15 23  2  0
  2 24  1  0
 25 27  2  0
  6 26  1  0
 23 27  1  0
 22 28  2  0
 25 29  1  0
 12 30  1  0
 13 31  1  0
 26 32  1  0
 32 33  1  0
  5  8  2  0
 10 17  1  0
 25 28  1  0
 11 12  1  0
 30 33  1  0
M  END
>  <MOLFORMULA>  (254) 
C25 H29 F N6 O

>  <MOLWEIGHT>  (254) 
4.485431000000000e+002

>  <IDNUMBER>  (254) 
AT-687/SK01664

>  <PRICE>  (254) 
EUR 80/10 mg

>  <Similarity score>  (254) 
0.22

$$$$

     RDKit          2D

 32 36  0  0  0  0  0  0  0  0999 V2000
    0.6667   -2.3250    0.0000 N   0  0  0  0  0  0  0  0  0  0  0  0
    0.2583   -1.4083    0.0000 C   0  0  0  0  0  0  0  0  0  0  0  0
    1.6625   -2.2208    0.0000 C   0  0  0  0  0  0  0  0  0  0  0  0
   -0.1208    1.6542    0.0000 C   0  0  0  0  0  0  0  0  0  0  0  0
    1.0042   -0.7417    0.0000 C   0  0  0  0  0  0  0  0  0  0  0  0
    0.1667   -3.1875    0.0000 C   0  0  0  0  0  0  0  0  0  0  0  0
    0.6875    2.2417    0.0000 C   0  0  0  0  0  0  0  0  0  0  0  0
    1.8667   -1.2417    0.0000 C   0  0  0  0  0  0  0  0  0  0  0  0
    0.9000    0.2542    0.0000 N   0  0  0  0  0  0  0  0  0  0  0  0
   -0.9292    2.2417    0.0000 N   0  0  0  0  0  0  0  0  0  0  0  0
    0.3792    3.1958    0.0000 C   0  0  0  0  0  0  0  0  0  0  0  0
   -0.6208    3.1958    0.0000 C   0  0  0  0  0  0  0  0  0  0  0  0
   -0.0167    0.6625    0.0000 C   0  0  0  0  0  0  0  0  0  0  0  0
    0.6667   -4.0542    0.0000 C   0  0  0  0  0  0  0  0  0  0  0  0
    1.6042    1.8375    0.0000 C   0  0  0  0  0  0  0  0  0  0  0  0
   -0.7167   -1.2000    0.0000 O   0  0  0  0  0  0  0  0  0  0  0  0
   -0.8333   -3.1875    0.0000 C   0  0  0  0  0  0  0  0  0  0  0  0
    1.7083    0.8417    0.0000 C   0  0  0  0  0  0  0  0  0  0  0  0
    2.3292   -2.9625    0.0000 O   0  0  0  0  0  0  0  0  0  0  0  0
    0.8792    4.0542    0.0000 C   0  0  0  0  0  0  0  0  0  0  0  0
   -1.1208    4.0542    0.0000 C   0  0  0  0  0  0  0  0  0  0  0  0
   -1.3333   -4.0542    0.0000 C   0  0  0  0  0  0  0  0  0  0  0  0
    0.1667   -4.9208    0.0000 C   0  0  0  0  0  0  0  0  0  0  0  0
    0.3792    4.9208    0.0000 C   0  0  0  0  0  0  0  0  0  0  0  0
   -0.6208    4.9208    0.0000 C   0  0  0  0  0  0  0  0  0  0  0  0
   -0.8333   -4.9208    0.0000 C   0  0  0  0  0  0  0  0  0  0  0  0
   -1.3333   -2.3250    0.0000 O   0  0  0  0  0  0  0  0  0  0  0  0
    0.6667   -5.7875    0.0000 O   0  0  0  0  0  0  0  0  0  0  0  0
    0.8792    5.7875    0.0000 O   0  0  0  0  0  0  0  0  0  0  0  0
   -2.3333   -2.3250    0.0000 C   0  0  0  0  0  0  0  0  0  0  0  0
    1.6667   -5.7875    0.0000 C   0  0  0  0  0  0  0  0  0  0  0  0
    1.8792    5.7875    0.0000 C   0  0  0  0  0  0  0  0  0  0  0  0
  1  2  1  0
  1  3  1  0
  4 13  1  0
  2  5  1  0
  1  6  1  0
  7 15  1  0
  3  8  1  0
  5  9  1  0
  4 10  1  0
  7 11  1  0
 10 12  1  0
  9 13  1  0
  6 14  2  0
 15 18  1  0
  2 16  2  0
  6 17  1  0
  9 18  1  0
  3 19  2  0
 11 20  2  0
 12 21  2  0
 17 22  2  0
 14 23  1  0
 20 24  1  0
 21 25  1  0
 22 26  1  0
 17 27  1  0
 23 28  1  0
 24 29  1  0
 27 30  1  0
 28 31  1  0
 29 32  1  0
  5  8  1  0
 23 26  2  0
  4  7  2  0
 11 12  1  0
 24 25  2  0
M  END
>  <MOLFORMULA>  (255) 
C24 H25 N3 O5

>  <MOLWEIGHT>  (255) 
4.354775000000000e+002

>  <IDNUMBER>  (255) 
AN-153/NB21462

>  <PRICE>  (255) 
EUR 130/10 mg

>  <Similarity score>  (255) 
0.22

$$$$

     RDKit          2D

 30 34  0  0  0  0  0  0  0  0999 V2000
   -1.9833    2.5083    0.0000 C   0  0  0  0  0  0  0  0  0  0  0  0
   -1.9833    3.5083    0.0000 N   0  0  0  0  0  0  0  0  0  0  0  0
   -1.1208    2.0208    0.0000 C   0  0  0  0  0  0  0  0  0  0  0  0
   -2.9375    3.8208    0.0000 N   0  0  0  0  0  0  0  0  0  0  0  0
   -2.9375    2.1958    0.0000 C   0  0  0  0  0  0  0  0  0  0  0  0
   -1.1208    1.0083    0.0000 N   0  0  0  0  0  0  0  0  0  0  0  0
   -3.5208    3.0083    0.0000 C   0  0  0  0  0  0  0  0  0  0  0  0
    0.6042   -0.9917    0.0000 C   0  0  0  0  0  0  0  0  0  0  0  0
   -0.2500    2.5083    0.0000 N   0  0  0  0  0  0  0  0  0  0  0  0
   -0.2583   -0.4917    0.0000 C   0  0  0  0  0  0  0  0  0  0  0  0
   -0.2500    0.5125    0.0000 C   0  0  0  0  0  0  0  0  0  0  0  0
   -1.1208    4.0042    0.0000 C   0  0  0  0  0  0  0  0  0  0  0  0
    0.6042   -2.0000    0.0000 N   0  0  0  0  0  0  0  0  0  0  0  0
   -0.2500    3.5083    0.0000 C   0  0  0  0  0  0  0  0  0  0  0  0
    1.4750   -0.5000    0.0000 O   0  0  0  0  0  0  0  0  0  0  0  0
    1.4667   -2.4917    0.0000 C   0  0  0  0  0  0  0  0  0  0  0  0
   -1.9833    0.5125    0.0000 C   0  0  0  0  0  0  0  0  0  0  0  0
   -3.3458    1.2833    0.0000 C   0  0  0  0  0  0  0  0  0  0  0  0
    3.2000   -3.5042    0.0000 C   0  0  0  0  0  0  0  0  0  0  0  0
   -1.1250   -0.9792    0.0000 C   0  0  0  0  0  0  0  0  0  0  0  0
    2.3417   -2.0000    0.0000 C   0  0  0  0  0  0  0  0  0  0  0  0
    1.4542   -3.4917    0.0000 C   0  0  0  0  0  0  0  0  0  0  0  0
    3.2000   -2.5125    0.0000 C   0  0  0  0  0  0  0  0  0  0  0  0
    2.3167   -4.0000    0.0000 C   0  0  0  0  0  0  0  0  0  0  0  0
   -4.5208    2.9000    0.0000 C   0  0  0  0  0  0  0  0  0  0  0  0
    4.0542   -4.0042    0.0000 O   0  0  0  0  0  0  0  0  0  0  0  0
   -1.9833   -0.4792    0.0000 C   0  0  0  0  0  0  0  0  0  0  0  0
    4.9250   -3.5167    0.0000 C   0  0  0  0  0  0  0  0  0  0  0  0
   -4.3458    1.1833    0.0000 C   0  0  0  0  0  0  0  0  0  0  0  0
   -4.9333    1.9958    0.0000 C   0  0  0  0  0  0  0  0  0  0  0  0
  1  2  1  0
  1  3  1  0
  2  4  1  0
  1  5  2  0
  3  6  1  0
  5  7  1  0
  8 10  1  0
  3  9  2  0
 10 11  1  0
  6 11  1  0
  2 12  1  0
  8 13  1  0
  9 14  1  0
  8 15  2  0
 13 16  1  0
  6 17  1  0
  5 18  1  0
 19 24  1  0
 20 27  1  0
 16 21  2  0
 16 22  1  0
 21 23  1  0
 22 24  2  0
  7 25  1  0
 19 26  1  0
 17 27  1  0
 26 28  1  0
 18 29  1  0
 29 30  1  0
  4  7  2  0
 12 14  2  0
 25 30  1  0
 10 20  1  0
 19 23  2  0
M  END
>  <MOLFORMULA>  (256) 
C23 H27 N5 O2

>  <MOLWEIGHT>  (256) 
4.054993000000000e+002

>  <IDNUMBER>  (256) 
AT-687/PE21865

>  <PRICE>  (256) 
EUR 80/10 mg

>  <Similarity score>  (256) 
0.22

$$$$

     RDKit          2D

 32 36  0  0  0  0  0  0  0  0999 V2000
   -1.9833    3.2500    0.0000 C   0  0  0  0  0  0  0  0  0  0  0  0
   -1.9833    4.2417    0.0000 N   0  0  0  0  0  0  0  0  0  0  0  0
   -1.1208    2.7458    0.0000 C   0  0  0  0  0  0  0  0  0  0  0  0
   -2.9458    4.5542    0.0000 N   0  0  0  0  0  0  0  0  0  0  0  0
   -2.9458    2.9333    0.0000 C   0  0  0  0  0  0  0  0  0  0  0  0
   -1.1208    1.7375    0.0000 N   0  0  0  0  0  0  0  0  0  0  0  0
   -3.5250    3.7458    0.0000 C   0  0  0  0  0  0  0  0  0  0  0  0
   -0.2583    3.2500    0.0000 N   0  0  0  0  0  0  0  0  0  0  0  0
   -0.2583    0.2500    0.0000 C   0  0  0  0  0  0  0  0  0  0  0  0
    0.6042   -0.2542    0.0000 C   0  0  0  0  0  0  0  0  0  0  0  0
   -1.1208    4.7542    0.0000 C   0  0  0  0  0  0  0  0  0  0  0  0
   -0.2583    1.2458    0.0000 C   0  0  0  0  0  0  0  0  0  0  0  0
   -0.2583    4.2417    0.0000 C   0  0  0  0  0  0  0  0  0  0  0  0
    1.4792    0.2375    0.0000 N   0  0  0  0  0  0  0  0  0  0  0  0
    0.6000   -1.2625    0.0000 O   0  0  0  0  0  0  0  0  0  0  0  0
    2.3375   -0.2625    0.0000 C   0  0  0  0  0  0  0  0  0  0  0  0
   -1.9833    1.2458    0.0000 C   0  0  0  0  0  0  0  0  0  0  0  0
   -3.3458    2.0250    0.0000 C   0  0  0  0  0  0  0  0  0  0  0  0
    3.1792   -1.7542    0.0000 C   0  0  0  0  0  0  0  0  0  0  0  0
    2.3375   -1.2500    0.0000 C   0  0  0  0  0  0  0  0  0  0  0  0
    3.1917   -2.7500    0.0000 C   0  0  0  0  0  0  0  0  0  0  0  0
   -1.1250   -0.2417    0.0000 C   0  0  0  0  0  0  0  0  0  0  0  0
   -4.5208    3.6458    0.0000 C   0  0  0  0  0  0  0  0  0  0  0  0
    4.0625   -3.2417    0.0000 O   0  0  0  0  0  0  0  0  0  0  0  0
   -1.9833    0.2583    0.0000 C   0  0  0  0  0  0  0  0  0  0  0  0
    1.4542   -2.7292    0.0000 C   0  0  0  0  0  0  0  0  0  0  0  0
    1.4542   -1.7292    0.0000 C   0  0  0  0  0  0  0  0  0  0  0  0
    2.3167   -3.2542    0.0000 C   0  0  0  0  0  0  0  0  0  0  0  0
    4.0542   -4.2500    0.0000 C   0  0  0  0  0  0  0  0  0  0  0  0
   -4.3458    1.9208    0.0000 C   0  0  0  0  0  0  0  0  0  0  0  0
   -4.9333    2.7250    0.0000 C   0  0  0  0  0  0  0  0  0  0  0  0
    4.9292   -4.7542    0.0000 C   0  0  0  0  0  0  0  0  0  0  0  0
  1  2  1  0
  1  3  1  0
  2  4  1  0
  1  5  2  0
  3  6  1  0
  5  7  1  0
  3  8  2  0
  9 12  1  0
  9 10  1  0
  2 11  1  0
  6 12  1  0
  8 13  1  0
 10 14  1  0
 10 15  2  0
 14 16  1  0
  6 17  1  0
  5 18  1  0
 19 20  2  0
 16 20  1  0
 19 21  1  0
 22 25  1  0
  7 23  1  0
 21 24  1  0
 17 25  1  0
 26 27  2  0
 20 27  1  0
 26 28  1  0
 24 29  1  0
 18 30  1  0
 30 31  1  0
 29 32  1  0
  4  7  2  0
 11 13  2  0
 23 31  1  0
  9 22  1  0
 21 28  2  0
M  END
>  <MOLFORMULA>  (257) 
C25 H31 N5 O2

>  <MOLWEIGHT>  (257) 
4.335529000000000e+002

>  <IDNUMBER>  (257) 
AT-687/PE21887

>  <PRICE>  (257) 
EUR 80/10 mg

>  <Similarity score>  (257) 
0.21

$$$$

     RDKit          2D

 32 36  0  0  0  0  0  0  0  0999 V2000
    0.1667   -1.8917    0.0000 N   0  0  0  0  0  0  0  0  0  0  0  0
   -0.2417   -0.9750    0.0000 C   0  0  0  0  0  0  0  0  0  0  0  0
    1.1625   -1.7875    0.0000 C   0  0  0  0  0  0  0  0  0  0  0  0
   -0.6208    2.0875    0.0000 C   0  0  0  0  0  0  0  0  0  0  0  0
    0.5042   -0.3083    0.0000 C   0  0  0  0  0  0  0  0  0  0  0  0
    0.1875    2.6750    0.0000 C   0  0  0  0  0  0  0  0  0  0  0  0
    1.3667   -0.8083    0.0000 C   0  0  0  0  0  0  0  0  0  0  0  0
    0.4000    0.6875    0.0000 N   0  0  0  0  0  0  0  0  0  0  0  0
   -1.4292    2.6750    0.0000 N   0  0  0  0  0  0  0  0  0  0  0  0
   -0.1208    3.6250    0.0000 C   0  0  0  0  0  0  0  0  0  0  0  0
   -0.3333   -2.7583    0.0000 C   0  0  0  0  0  0  0  0  0  0  0  0
    0.1667   -5.3542    0.0000 C   0  0  0  0  0  0  0  0  0  0  0  0
   -1.1208    3.6250    0.0000 C   0  0  0  0  0  0  0  0  0  0  0  0
   -0.5167    1.0917    0.0000 C   0  0  0  0  0  0  0  0  0  0  0  0
   -0.3333   -4.4875    0.0000 C   0  0  0  0  0  0  0  0  0  0  0  0
    0.1667   -3.6208    0.0000 C   0  0  0  0  0  0  0  0  0  0  0  0
    1.1042    2.2708    0.0000 C   0  0  0  0  0  0  0  0  0  0  0  0
   -1.2208   -0.7708    0.0000 O   0  0  0  0  0  0  0  0  0  0  0  0
    1.2083    1.2750    0.0000 C   0  0  0  0  0  0  0  0  0  0  0  0
    1.8292   -2.5292    0.0000 O   0  0  0  0  0  0  0  0  0  0  0  0
    0.3792    4.4875    0.0000 C   0  0  0  0  0  0  0  0  0  0  0  0
   -1.6208    4.4875    0.0000 C   0  0  0  0  0  0  0  0  0  0  0  0
   -0.7000   -5.8542    0.0000 F   0  0  0  0  0  0  0  0  0  0  0  0
    1.0333   -4.8542    0.0000 F   0  0  0  0  0  0  0  0  0  0  0  0
    0.6667   -6.2208    0.0000 F   0  0  0  0  0  0  0  0  0  0  0  0
   -0.1208    5.3542    0.0000 C   0  0  0  0  0  0  0  0  0  0  0  0
   -1.1208    5.3542    0.0000 C   0  0  0  0  0  0  0  0  0  0  0  0
   -1.3333   -2.7583    0.0000 C   0  0  0  0  0  0  0  0  0  0  0  0
    0.3792    6.2208    0.0000 O   0  0  0  0  0  0  0  0  0  0  0  0
   -1.3333   -4.4875    0.0000 C   0  0  0  0  0  0  0  0  0  0  0  0
   -1.8333   -3.6208    0.0000 C   0  0  0  0  0  0  0  0  0  0  0  0
    1.3792    6.2208    0.0000 C   0  0  0  0  0  0  0  0  0  0  0  0
  1  2  1  0
  1  3  1  0
  4 14  1  0
  2  5  1  0
  6 17  1  0
  3  7  1  0
  5  8  1  0
  4  9  1  0
  6 10  1  0
  1 11  1  0
 12 15  1  0
  9 13  1  0
  8 14  1  0
 15 16  1  0
 11 16  2  0
 17 19  1  0
  2 18  2  0
  8 19  1  0
  3 20  2  0
 10 21  2  0
 13 22  2  0
 12 23  1  0
 12 24  1  0
 12 25  1  0
 21 26  1  0
 22 27  1  0
 11 28  1  0
 26 29  1  0
 30 31  1  0
 28 31  2  0
 29 32  1  0
  5  7  1  0
 15 30  2  0
  4  6  2  0
 10 13  1  0
 26 27  2  0
M  END
>  <MOLFORMULA>  (258) 
C23 H20 F3 N3 O3

>  <MOLWEIGHT>  (258) 
4.434230000000000e+002

>  <IDNUMBER>  (258) 
AN-153/NB21454

>  <PRICE>  (258) 
EUR 130/10 mg

>  <Similarity score>  (258) 
0.21

$$$$

     RDKit          2D

 31 34  0  0  0  0  0  0  0  0999 V2000
   -0.4208   -2.4042    0.0000 C   0  0  0  0  0  0  0  0  0  0  0  0
   -1.2833   -1.9042    0.0000 C   0  0  0  0  0  0  0  0  0  0  0  0
    1.2667   -1.7000    0.0000 C   0  0  0  0  0  0  0  0  0  0  0  0
   -2.1500   -2.4042    0.0000 N   0  0  0  0  0  0  0  0  0  0  0  0
    0.2792   -1.7000    0.0000 C   0  0  0  0  0  0  0  0  0  0  0  0
   -0.4208   -3.4125    0.0000 C   0  0  0  0  0  0  0  0  0  0  0  0
   -1.2833   -0.9000    0.0000 N   0  0  0  0  0  0  0  0  0  0  0  0
   -1.2833   -3.9042    0.0000 N   0  0  0  0  0  0  0  0  0  0  0  0
    1.9667   -2.4042    0.0000 C   0  0  0  0  0  0  0  0  0  0  0  0
   -1.2833    1.1000    0.0000 N   0  0  0  0  0  0  0  0  0  0  0  0
    1.6542   -0.7792    0.0000 C   0  0  0  0  0  0  0  0  0  0  0  0
   -2.1500   -3.4042    0.0000 C   0  0  0  0  0  0  0  0  0  0  0  0
    1.9667   -3.4042    0.0000 N   0  0  0  0  0  0  0  0  0  0  0  0
   -1.2833    2.1083    0.0000 C   0  0  0  0  0  0  0  0  0  0  0  0
    0.2792   -4.1042    0.0000 C   0  0  0  0  0  0  0  0  0  0  0  0
   -2.1458   -0.4042    0.0000 C   0  0  0  0  0  0  0  0  0  0  0  0
   -0.4125   -0.4042    0.0000 C   0  0  0  0  0  0  0  0  0  0  0  0
   -0.4125    0.6000    0.0000 C   0  0  0  0  0  0  0  0  0  0  0  0
   -2.1458    0.6000    0.0000 C   0  0  0  0  0  0  0  0  0  0  0  0
    1.0417    0.0208    0.0000 O   0  0  0  0  0  0  0  0  0  0  0  0
   -2.1458    2.6083    0.0000 C   0  0  0  0  0  0  0  0  0  0  0  0
    1.2667   -4.1042    0.0000 C   0  0  0  0  0  0  0  0  0  0  0  0
    2.6417   -0.6417    0.0000 O   0  0  0  0  0  0  0  0  0  0  0  0
   -3.0208    2.0958    0.0000 F   0  0  0  0  0  0  0  0  0  0  0  0
    2.8917   -3.8042    0.0000 C   0  0  0  0  0  0  0  0  0  0  0  0
   -3.0250   -3.9167    0.0000 C   0  0  0  0  0  0  0  0  0  0  0  0
   -0.4125    2.6083    0.0000 C   0  0  0  0  0  0  0  0  0  0  0  0
   -2.1458    3.6083    0.0000 C   0  0  0  0  0  0  0  0  0  0  0  0
    3.0167    0.2958    0.0000 C   0  0  0  0  0  0  0  0  0  0  0  0
   -0.4125    3.6083    0.0000 C   0  0  0  0  0  0  0  0  0  0  0  0
   -1.2750    4.1042    0.0000 C   0  0  0  0  0  0  0  0  0  0  0  0
  1  2  1  0
  3  5  1  0
  2  4  2  0
  1  5  1  0
  1  6  2  0
  2  7  1  0
  6  8  1  0
  3  9  2  0
 10 18  1  0
  3 11  1  0
  8 12  2  0
 13 22  1  0
 10 14  1  0
  6 15  1  0
  7 16  1  0
  7 17  1  0
 17 18  1  0
 16 19  1  0
 11 20  2  0
 14 21  1  0
 15 22  1  0
 11 23  1  0
 21 24  1  0
 13 25  1  0
 12 26  1  0
 14 27  2  0
 21 28  2  0
 23 29  1  0
 27 30  1  0
 30 31  2  0
  4 12  1  0
  9 13  1  0
 10 19  1  0
 28 31  1  0
M  END
>  <MOLFORMULA>  (259) 
C23 H28 F N5 O2

>  <MOLWEIGHT>  (259) 
4.255052000000000e+002

>  <IDNUMBER>  (259) 
AT-057/J152433

>  <PRICE>  (259) 
EUR 73.08/10 mg

>  <Similarity score>  (259) 
0.21

$$$$

     RDKit          2D

 24 27  0  0  0  0  0  0  0  0999 V2000
    2.8625    1.2375    0.0000 C   0  0  0  0  0  0  0  0  0  0  0  0
    2.8542    2.0458    0.0000 C   0  0  0  0  0  0  0  0  0  0  0  0
    2.1750    0.8333    0.0000 N   0  0  0  0  0  0  0  0  0  0  0  0
    1.4750    2.0375    0.0000 C   0  0  0  0  0  0  0  0  0  0  0  0
    1.4792    1.2333    0.0000 C   0  0  0  0  0  0  0  0  0  0  0  0
    4.2458    1.2458    0.0000 N   0  0  0  0  0  0  0  0  0  0  0  0
    3.5542    0.8458    0.0000 C   0  0  0  0  0  0  0  0  0  0  0  0
    3.5458    2.4500    0.0000 C   0  0  0  0  0  0  0  0  0  0  0  0
    0.7750    2.4333    0.0000 C   0  0  0  0  0  0  0  0  0  0  0  0
    0.7750    0.8250    0.0000 C   0  0  0  0  0  0  0  0  0  0  0  0
    4.2417    2.0500    0.0000 C   0  0  0  0  0  0  0  0  0  0  0  0
    4.9375    0.8500    0.0000 C   0  0  0  0  0  0  0  0  0  0  0  0
    0.0833    2.0333    0.0000 C   0  0  0  0  0  0  0  0  0  0  0  0
    0.0833    1.2250    0.0000 C   0  0  0  0  0  0  0  0  0  0  0  0
    4.9417    0.0500    0.0000 C   0  0  0  0  0  0  0  0  0  0  0  0
   -0.6292    2.4458    0.0000 C   0  0  0  0  0  0  0  0  0  0  0  0
    5.6375   -0.3417    0.0000 C   0  0  0  0  0  0  0  0  0  0  0  0
    4.2500   -0.3500    0.0000 C   0  0  0  0  0  0  0  0  0  0  0  0
   -0.6292    3.2708    0.0000 C   0  0  0  0  0  0  0  0  0  0  0  0
   -1.3458    3.6833    0.0000 C   0  0  0  0  0  0  0  0  0  0  0  0
   -1.3458    4.5042    0.0000 C   0  0  0  0  0  0  0  0  0  0  0  0
    5.6458   -1.1417    0.0000 C   0  0  0  0  0  0  0  0  0  0  0  0
    4.2542   -1.1500    0.0000 C   0  0  0  0  0  0  0  0  0  0  0  0
    4.9500   -1.5500    0.0000 C   0  0  0  0  0  0  0  0  0  0  0  0
  1  2  2  0
  1  3  1  0
  2  4  1  0
  3  5  1  0
  6  7  1  0
  1  7  1  0
  2  8  1  0
  4  9  2  0
  5 10  2  0
  8 11  1  0
  6 12  1  0
  9 13  1  0
 10 14  1  0
 12 15  1  0
 13 16  1  0
 15 17  1  0
 15 18  2  0
 16 19  1  0
 19 20  1  0
 20 21  1  0
 17 22  2  0
 18 23  1  0
 22 24  1  0
  4  5  1  0
  6 11  1  0
 13 14  2  0
 23 24  2  0
M  END
>  <MOLFORMULA>  (260) 
C22 H26 N2

>  <MOLWEIGHT>  (260) 
3.184614000000000e+002

>  <IDNUMBER>  (260) 
AT-819/OC11984

>  <PRICE>  (260) 
EUR 192/10 mg

>  <Similarity score>  (260) 
0.21

$$$$

     RDKit          2D

 30 34  0  0  0  0  0  0  0  0999 V2000
    6.4792    0.0833    0.0000 C   0  0  0  0  0  0  0  0  0  0  0  0
    6.9667   -0.5750    0.0000 C   0  0  0  0  0  0  0  0  0  0  0  0
    1.5500   -0.4292    0.0000 N   0  0  0  0  0  0  0  0  0  0  0  0
    6.8167    0.8500    0.0000 N   0  0  0  0  0  0  0  0  0  0  0  0
    5.6625   -0.0000    0.0000 N   0  0  0  0  0  0  0  0  0  0  0  0
    8.1250    0.2625    0.0000 N   0  0  0  0  0  0  0  0  0  0  0  0
    7.7917   -0.4875    0.0000 C   0  0  0  0  0  0  0  0  0  0  0  0
    0.7167   -0.4292    0.0000 C   0  0  0  0  0  0  0  0  0  0  0  0
    7.6417    0.9333    0.0000 C   0  0  0  0  0  0  0  0  0  0  0  0
    1.8042    0.3583    0.0000 C   0  0  0  0  0  0  0  0  0  0  0  0
    2.8542   -1.0167    0.0000 C   0  0  0  0  0  0  0  0  0  0  0  0
    0.4667    0.3583    0.0000 C   0  0  0  0  0  0  0  0  0  0  0  0
    2.0375   -1.1042    0.0000 C   0  0  0  0  0  0  0  0  0  0  0  0
    1.1292    0.8375    0.0000 C   0  0  0  0  0  0  0  0  0  0  0  0
    3.1917   -0.2667    0.0000 N   0  0  0  0  0  0  0  0  0  0  0  0
    5.1750    0.6625    0.0000 C   0  0  0  0  0  0  0  0  0  0  0  0
    5.3292   -0.7542    0.0000 C   0  0  0  0  0  0  0  0  0  0  0  0
    3.3417   -1.6875    0.0000 O   0  0  0  0  0  0  0  0  0  0  0  0
    4.5042   -0.8417    0.0000 C   0  0  0  0  0  0  0  0  0  0  0  0
    4.3625    0.5833    0.0000 C   0  0  0  0  0  0  0  0  0  0  0  0
    4.0250   -0.1792    0.0000 C   0  0  0  0  0  0  0  0  0  0  0  0
    6.6500   -1.3417    0.0000 C   0  0  0  0  0  0  0  0  0  0  0  0
    8.2792   -1.1542    0.0000 C   0  0  0  0  0  0  0  0  0  0  0  0
    7.9667    1.6875    0.0000 C   0  0  0  0  0  0  0  0  0  0  0  0
    2.5625    0.6958    0.0000 C   0  0  0  0  0  0  0  0  0  0  0  0
    1.2167    1.6625    0.0000 C   0  0  0  0  0  0  0  0  0  0  0  0
    7.1292   -2.0042    0.0000 C   0  0  0  0  0  0  0  0  0  0  0  0
    7.9542   -1.9125    0.0000 C   0  0  0  0  0  0  0  0  0  0  0  0
    2.6417    1.5125    0.0000 C   0  0  0  0  0  0  0  0  0  0  0  0
    1.9625    1.9958    0.0000 C   0  0  0  0  0  0  0  0  0  0  0  0
  1  2  1  0
  3 13  1  0
  1  4  2  0
  1  5  1  0
  6  9  2  0
  2  7  2  0
  3  8  1  0
  4  9  1  0
  3 10  1  0
 11 15  1  0
  8 12  2  0
 11 13  1  0
 10 14  2  0
 15 21  1  0
  5 16  1  0
  5 17  1  0
 11 18  2  0
 17 19  1  0
 16 20  1  0
 19 21  1  0
  2 22  1  0
  7 23  1  0
  9 24  1  0
 10 25  1  0
 14 26  1  0
 22 27  1  0
 27 28  1  0
 25 29  2  0
 29 30  1  0
  6  7  1  0
 20 21  1  0
 23 28  1  0
 12 14  1  0
 26 30  2  0
M  END
>  <MOLFORMULA>  (261) 
C24 H29 N5 O

>  <MOLWEIGHT>  (261) 
4.035271000000000e+002

>  <IDNUMBER>  (261) 
AT-687/SK01653

>  <PRICE>  (261) 
EUR 80/10 mg

>  <Similarity score>  (261) 
0.21

$$$$

     RDKit          2D

 31 36  0  0  0  0  0  0  0  0999 V2000
    0.7083   -2.3833    0.0000 N   0  0  0  0  0  0  0  0  0  0  0  0
    0.3000   -1.4708    0.0000 C   0  0  0  0  0  0  0  0  0  0  0  0
    1.7000   -2.2792    0.0000 C   0  0  0  0  0  0  0  0  0  0  0  0
   -0.0792    1.5917    0.0000 C   0  0  0  0  0  0  0  0  0  0  0  0
    1.0458   -0.8042    0.0000 C   0  0  0  0  0  0  0  0  0  0  0  0
    0.7292    2.1792    0.0000 C   0  0  0  0  0  0  0  0  0  0  0  0
    1.9083   -1.3042    0.0000 C   0  0  0  0  0  0  0  0  0  0  0  0
    0.9375    0.1917    0.0000 N   0  0  0  0  0  0  0  0  0  0  0  0
   -0.8875    2.1792    0.0000 N   0  0  0  0  0  0  0  0  0  0  0  0
    0.2083   -3.2500    0.0000 C   0  0  0  0  0  0  0  0  0  0  0  0
    0.4208    3.1333    0.0000 C   0  0  0  0  0  0  0  0  0  0  0  0
   -0.5792    3.1333    0.0000 C   0  0  0  0  0  0  0  0  0  0  0  0
    0.0250    0.6000    0.0000 C   0  0  0  0  0  0  0  0  0  0  0  0
   -0.7917   -3.2500    0.0000 C   0  0  0  0  0  0  0  0  0  0  0  0
   -1.2917   -4.1167    0.0000 C   0  0  0  0  0  0  0  0  0  0  0  0
    1.6458    1.7750    0.0000 C   0  0  0  0  0  0  0  0  0  0  0  0
   -0.6792   -1.2625    0.0000 O   0  0  0  0  0  0  0  0  0  0  0  0
    1.7500    0.7792    0.0000 C   0  0  0  0  0  0  0  0  0  0  0  0
    2.3708   -3.0250    0.0000 O   0  0  0  0  0  0  0  0  0  0  0  0
   -0.7917   -4.9833    0.0000 C   0  0  0  0  0  0  0  0  0  0  0  0
   -2.2708   -4.3250    0.0000 O   0  0  0  0  0  0  0  0  0  0  0  0
    0.9208    4.0000    0.0000 C   0  0  0  0  0  0  0  0  0  0  0  0
   -1.4625   -5.7250    0.0000 O   0  0  0  0  0  0  0  0  0  0  0  0
    0.7083   -4.1167    0.0000 C   0  0  0  0  0  0  0  0  0  0  0  0
   -2.3750   -5.3208    0.0000 C   0  0  0  0  0  0  0  0  0  0  0  0
   -1.0792    4.0000    0.0000 C   0  0  0  0  0  0  0  0  0  0  0  0
    0.2083   -4.9833    0.0000 C   0  0  0  0  0  0  0  0  0  0  0  0
    0.4208    4.8583    0.0000 C   0  0  0  0  0  0  0  0  0  0  0  0
   -0.5792    4.8583    0.0000 C   0  0  0  0  0  0  0  0  0  0  0  0
    0.9208    5.7250    0.0000 O   0  0  0  0  0  0  0  0  0  0  0  0
    1.9208    5.7250    0.0000 C   0  0  0  0  0  0  0  0  0  0  0  0
  1  2  1  0
  1  3  1  0
  4 13  1  0
  2  5  1  0
  6 16  1  0
  3  7  1  0
  5  8  1  0
  4  9  1  0
  1 10  1  0
  6 11  1  0
  9 12  1  0
  8 13  1  0
 10 14  2  0
 14 15  1  0
 16 18  1  0
  2 17  2  0
  8 18  1  0
  3 19  2  0
 20 27  1  0
 15 21  1  0
 11 22  2  0
 20 23  1  0
 10 24  1  0
 21 25  1  0
 12 26  2  0
 24 27  2  0
 22 28  1  0
 26 29  1  0
 28 30  1  0
 30 31  1  0
  5  7  1  0
 15 20  2  0
 23 25  1  0
  4  6  2  0
 11 12  1  0
 28 29  2  0
M  END
>  <MOLFORMULA>  (262) 
C23 H21 N3 O5

>  <MOLWEIGHT>  (262) 
4.194349000000000e+002

>  <IDNUMBER>  (262) 
AN-153/NB21460

>  <PRICE>  (262) 
EUR 130/10 mg

>  <Similarity score>  (262) 
0.21

$$$$

     RDKit          2D

 29 33  0  0  0  0  0  0  0  0999 V2000
    0.1667   -2.7583    0.0000 N   0  0  0  0  0  0  0  0  0  0  0  0
   -0.2417   -1.8417    0.0000 C   0  0  0  0  0  0  0  0  0  0  0  0
    1.1625   -2.6500    0.0000 C   0  0  0  0  0  0  0  0  0  0  0  0
   -0.6208    1.2208    0.0000 C   0  0  0  0  0  0  0  0  0  0  0  0
    0.5042   -1.1750    0.0000 C   0  0  0  0  0  0  0  0  0  0  0  0
    0.1875    1.8083    0.0000 C   0  0  0  0  0  0  0  0  0  0  0  0
    1.3667   -1.6750    0.0000 C   0  0  0  0  0  0  0  0  0  0  0  0
    0.4000   -0.1792    0.0000 N   0  0  0  0  0  0  0  0  0  0  0  0
   -1.4292    1.8083    0.0000 N   0  0  0  0  0  0  0  0  0  0  0  0
   -0.1208    2.7625    0.0000 C   0  0  0  0  0  0  0  0  0  0  0  0
   -1.1208    2.7625    0.0000 C   0  0  0  0  0  0  0  0  0  0  0  0
   -0.3333   -3.6208    0.0000 C   0  0  0  0  0  0  0  0  0  0  0  0
   -0.5167    0.2292    0.0000 C   0  0  0  0  0  0  0  0  0  0  0  0
    1.1042    1.4042    0.0000 C   0  0  0  0  0  0  0  0  0  0  0  0
   -1.2208   -1.6333    0.0000 O   0  0  0  0  0  0  0  0  0  0  0  0
    1.2083    0.4083    0.0000 C   0  0  0  0  0  0  0  0  0  0  0  0
    1.8292   -3.3958    0.0000 O   0  0  0  0  0  0  0  0  0  0  0  0
    0.3792    3.6250    0.0000 C   0  0  0  0  0  0  0  0  0  0  0  0
    0.1667   -4.4875    0.0000 C   0  0  0  0  0  0  0  0  0  0  0  0
   -1.6208    3.6250    0.0000 C   0  0  0  0  0  0  0  0  0  0  0  0
   -0.1208    4.4875    0.0000 C   0  0  0  0  0  0  0  0  0  0  0  0
    1.1667   -4.4875    0.0000 Cl  0  0  0  0  0  0  0  0  0  0  0  0
   -1.1208    4.4875    0.0000 C   0  0  0  0  0  0  0  0  0  0  0  0
   -1.3333   -3.6208    0.0000 C   0  0  0  0  0  0  0  0  0  0  0  0
    0.3792    5.3542    0.0000 O   0  0  0  0  0  0  0  0  0  0  0  0
   -0.3333   -5.3542    0.0000 C   0  0  0  0  0  0  0  0  0  0  0  0
    1.3792    5.3542    0.0000 C   0  0  0  0  0  0  0  0  0  0  0  0
   -1.8333   -4.4875    0.0000 C   0  0  0  0  0  0  0  0  0  0  0  0
   -1.3333   -5.3542    0.0000 C   0  0  0  0  0  0  0  0  0  0  0  0
  1  2  1  0
  1  3  1  0
  4 13  1  0
  2  5  1  0
  6 14  1  0
  3  7  1  0
  5  8  1  0
  4  9  1  0
  6 10  1  0
  9 11  1  0
  1 12  1  0
  8 13  1  0
 14 16  1  0
  2 15  2  0
  8 16  1  0
  3 17  2  0
 10 18  2  0
 12 19  2  0
 11 20  2  0
 18 21  1  0
 19 22  1  0
 20 23  1  0
 12 24  1  0
 21 25  1  0
 19 26  1  0
 25 27  1  0
 24 28  2  0
 28 29  1  0
  5  7  1  0
 26 29  2  0
  4  6  2  0
 10 11  1  0
 21 23  2  0
M  END
>  <MOLFORMULA>  (263) 
C22 H20 Cl N3 O3

>  <MOLWEIGHT>  (263) 
4.098710000000000e+002

>  <IDNUMBER>  (263) 
AN-153/NB21456

>  <PRICE>  (263) 
EUR 130/10 mg

>  <Similarity score>  (263) 
0.21

$$$$

     RDKit          2D

 28 32  0  0  0  0  0  0  0  0999 V2000
    0.6667   -2.7583    0.0000 N   0  0  0  0  0  0  0  0  0  0  0  0
    0.2583   -1.8417    0.0000 C   0  0  0  0  0  0  0  0  0  0  0  0
    1.6625   -2.6500    0.0000 C   0  0  0  0  0  0  0  0  0  0  0  0
   -0.1208    1.2208    0.0000 C   0  0  0  0  0  0  0  0  0  0  0  0
    1.0042   -1.1750    0.0000 C   0  0  0  0  0  0  0  0  0  0  0  0
    0.6875    1.8083    0.0000 C   0  0  0  0  0  0  0  0  0  0  0  0
    1.8667   -1.6750    0.0000 C   0  0  0  0  0  0  0  0  0  0  0  0
    0.9000   -0.1792    0.0000 N   0  0  0  0  0  0  0  0  0  0  0  0
   -0.9292    1.8083    0.0000 N   0  0  0  0  0  0  0  0  0  0  0  0
    0.3792    2.7625    0.0000 C   0  0  0  0  0  0  0  0  0  0  0  0
    0.1667   -3.6208    0.0000 C   0  0  0  0  0  0  0  0  0  0  0  0
   -0.6208    2.7625    0.0000 C   0  0  0  0  0  0  0  0  0  0  0  0
   -0.0167    0.2292    0.0000 C   0  0  0  0  0  0  0  0  0  0  0  0
    1.6042    1.4042    0.0000 C   0  0  0  0  0  0  0  0  0  0  0  0
   -0.8333   -3.6208    0.0000 C   0  0  0  0  0  0  0  0  0  0  0  0
   -0.7208   -1.6333    0.0000 O   0  0  0  0  0  0  0  0  0  0  0  0
    1.7083    0.4083    0.0000 C   0  0  0  0  0  0  0  0  0  0  0  0
    2.3292   -3.3958    0.0000 O   0  0  0  0  0  0  0  0  0  0  0  0
    0.8792    3.6250    0.0000 C   0  0  0  0  0  0  0  0  0  0  0  0
   -1.1208    3.6250    0.0000 C   0  0  0  0  0  0  0  0  0  0  0  0
   -1.3333   -4.4875    0.0000 C   0  0  0  0  0  0  0  0  0  0  0  0
    0.3792    4.4875    0.0000 C   0  0  0  0  0  0  0  0  0  0  0  0
   -0.6208    4.4875    0.0000 C   0  0  0  0  0  0  0  0  0  0  0  0
    0.6667   -4.4875    0.0000 C   0  0  0  0  0  0  0  0  0  0  0  0
   -2.3333   -4.4875    0.0000 Cl  0  0  0  0  0  0  0  0  0  0  0  0
    0.8792    5.3542    0.0000 F   0  0  0  0  0  0  0  0  0  0  0  0
    0.1667   -5.3542    0.0000 C   0  0  0  0  0  0  0  0  0  0  0  0
   -0.8333   -5.3542    0.0000 C   0  0  0  0  0  0  0  0  0  0  0  0
  1  2  1  0
  1  3  1  0
  4 13  1  0
  2  5  1  0
  6 14  1  0
  3  7  1  0
  5  8  1  0
  4  9  1  0
  6 10  1  0
  1 11  1  0
  9 12  1  0
  8 13  1  0
 14 17  1  0
 11 15  2  0
  2 16  2  0
  8 17  1  0
  3 18  2  0
 10 19  2  0
 12 20  2  0
 15 21  1  0
 19 22  1  0
 20 23  1  0
 11 24  1  0
 21 25  1  0
 22 26  1  0
 24 27  2  0
 27 28  1  0
  5  7  1  0
 21 28  2  0
  4  6  2  0
 10 12  1  0
 22 23  2  0
M  END
>  <MOLFORMULA>  (264) 
C21 H17 Cl F N3 O2

>  <MOLWEIGHT>  (264) 
3.978353000000000e+002

>  <IDNUMBER>  (264) 
AN-153/NB21469

>  <PRICE>  (264) 
EUR 130/10 mg

>  <Similarity score>  (264) 
0.21

$$$$

     RDKit          2D

 29 33  0  0  0  0  0  0  0  0999 V2000
   -1.1208    2.5000    0.0000 C   0  0  0  0  0  0  0  0  0  0  0  0
   -1.1208    3.5000    0.0000 N   0  0  0  0  0  0  0  0  0  0  0  0
   -0.2583    2.0083    0.0000 C   0  0  0  0  0  0  0  0  0  0  0  0
   -2.0750    3.8208    0.0000 N   0  0  0  0  0  0  0  0  0  0  0  0
   -2.0750    2.1875    0.0000 C   0  0  0  0  0  0  0  0  0  0  0  0
   -0.2583    1.0083    0.0000 N   0  0  0  0  0  0  0  0  0  0  0  0
   -2.6625    3.0083    0.0000 C   0  0  0  0  0  0  0  0  0  0  0  0
    1.4667   -1.0042    0.0000 C   0  0  0  0  0  0  0  0  0  0  0  0
    0.6042    2.5000    0.0000 N   0  0  0  0  0  0  0  0  0  0  0  0
    0.6042   -0.5000    0.0000 C   0  0  0  0  0  0  0  0  0  0  0  0
    1.4667   -2.0000    0.0000 N   0  0  0  0  0  0  0  0  0  0  0  0
    0.6042    0.5083    0.0000 C   0  0  0  0  0  0  0  0  0  0  0  0
   -0.2583    4.0042    0.0000 C   0  0  0  0  0  0  0  0  0  0  0  0
    0.6042    3.5000    0.0000 C   0  0  0  0  0  0  0  0  0  0  0  0
    2.3292   -2.5042    0.0000 C   0  0  0  0  0  0  0  0  0  0  0  0
    2.3417   -0.5000    0.0000 O   0  0  0  0  0  0  0  0  0  0  0  0
    3.2000   -2.0042    0.0000 C   0  0  0  0  0  0  0  0  0  0  0  0
   -1.1208    0.5083    0.0000 C   0  0  0  0  0  0  0  0  0  0  0  0
   -2.4833    1.2833    0.0000 C   0  0  0  0  0  0  0  0  0  0  0  0
    3.2042   -1.0042    0.0000 F   0  0  0  0  0  0  0  0  0  0  0  0
   -0.2625   -0.9917    0.0000 C   0  0  0  0  0  0  0  0  0  0  0  0
   -3.6583    2.8958    0.0000 C   0  0  0  0  0  0  0  0  0  0  0  0
   -1.1250   -0.4875    0.0000 C   0  0  0  0  0  0  0  0  0  0  0  0
    2.3167   -3.4917    0.0000 C   0  0  0  0  0  0  0  0  0  0  0  0
    4.0625   -2.5125    0.0000 C   0  0  0  0  0  0  0  0  0  0  0  0
   -3.4750    1.1750    0.0000 C   0  0  0  0  0  0  0  0  0  0  0  0
   -4.0708    1.9875    0.0000 C   0  0  0  0  0  0  0  0  0  0  0  0
    3.1792   -4.0042    0.0000 C   0  0  0  0  0  0  0  0  0  0  0  0
    4.0542   -3.5125    0.0000 C   0  0  0  0  0  0  0  0  0  0  0  0
  1  2  1  0
  1  3  1  0
  2  4  1  0
  1  5  2  0
  3  6  1  0
  5  7  1  0
  8 10  1  0
  3  9  2  0
 10 12  1  0
  8 11  1  0
  6 12  1  0
  2 13  1  0
  9 14  1  0
 11 15  1  0
  8 16  2  0
 15 17  2  0
  6 18  1  0
  5 19  1  0
 17 20  1  0
 21 23  1  0
  7 22  1  0
 18 23  1  0
 15 24  1  0
 17 25  1  0
 19 26  1  0
 26 27  1  0
 24 28  2  0
 28 29  1  0
  4  7  2  0
 13 14  2  0
 22 27  1  0
 10 21  1  0
 25 29  2  0
M  END
>  <MOLFORMULA>  (265) 
C22 H24 F N5 O

>  <MOLWEIGHT>  (265) 
3.934636000000000e+002

>  <IDNUMBER>  (265) 
AT-687/PE21873

>  <PRICE>  (265) 
EUR 80/10 mg

>  <Similarity score>  (265) 
0.21

$$$$

     RDKit          2D

 36 40  0  0  0  0  0  0  0  0999 V2000
    0.3042   -2.6375    0.0000 C   0  0  0  0  0  0  0  0  0  0  0  0
   -0.4125   -3.0542    0.0000 N   0  0  0  0  0  0  0  0  0  0  0  0
    0.3042   -1.8125    0.0000 C   0  0  0  0  0  0  0  0  0  0  0  0
   -0.4125   -1.3917    0.0000 N   0  0  0  0  0  0  0  0  0  0  0  0
    1.0167   -1.3917    0.0000 C   0  0  0  0  0  0  0  0  0  0  0  0
    4.5875   -0.1542    0.0000 C   0  0  0  0  0  0  0  0  0  0  0  0
    3.8750   -0.5667    0.0000 N   0  0  0  0  0  0  0  0  0  0  0  0
    2.4417   -1.3917    0.0000 N   0  0  0  0  0  0  0  0  0  0  0  0
    1.7292   -1.8042    0.0000 C   0  0  0  0  0  0  0  0  0  0  0  0
   -0.4125   -0.5667    0.0000 C   0  0  0  0  0  0  0  0  0  0  0  0
    1.0167   -3.0500    0.0000 C   0  0  0  0  0  0  0  0  0  0  0  0
   -1.1208   -0.1542    0.0000 C   0  0  0  0  0  0  0  0  0  0  0  0
   -1.1333   -2.6417    0.0000 O   0  0  0  0  0  0  0  0  0  0  0  0
    4.5875    0.6708    0.0000 C   0  0  0  0  0  0  0  0  0  0  0  0
   -0.4125   -3.8792    0.0000 O   0  0  0  0  0  0  0  0  0  0  0  0
   -1.1250   -1.8042    0.0000 C   0  0  0  0  0  0  0  0  0  0  0  0
    3.8750   -1.3917    0.0000 C   0  0  0  0  0  0  0  0  0  0  0  0
    3.1542   -0.1542    0.0000 C   0  0  0  0  0  0  0  0  0  0  0  0
    3.1625   -1.8042    0.0000 C   0  0  0  0  0  0  0  0  0  0  0  0
    2.4417   -0.5667    0.0000 C   0  0  0  0  0  0  0  0  0  0  0  0
    5.3000   -0.5667    0.0000 O   0  0  0  0  0  0  0  0  0  0  0  0
    1.7292   -2.6375    0.0000 C   0  0  0  0  0  0  0  0  0  0  0  0
   -1.8458   -0.5667    0.0000 C   0  0  0  0  0  0  0  0  0  0  0  0
   -1.8458   -1.3917    0.0000 C   0  0  0  0  0  0  0  0  0  0  0  0
    3.8750    1.0750    0.0000 C   0  0  0  0  0  0  0  0  0  0  0  0
    5.3042    1.0833    0.0000 C   0  0  0  0  0  0  0  0  0  0  0  0
    4.5875    2.3208    0.0000 C   0  0  0  0  0  0  0  0  0  0  0  0
    5.3042    1.9083    0.0000 C   0  0  0  0  0  0  0  0  0  0  0  0
    3.8667    1.9000    0.0000 C   0  0  0  0  0  0  0  0  0  0  0  0
    4.5875    3.1458    0.0000 O   0  0  0  0  0  0  0  0  0  0  0  0
   -1.1208    0.6625    0.0000 C   0  0  0  0  0  0  0  0  0  0  0  0
   -2.5458   -0.1500    0.0000 C   0  0  0  0  0  0  0  0  0  0  0  0
    5.3000    3.5583    0.0000 C   0  0  0  0  0  0  0  0  0  0  0  0
    5.3000    4.3750    0.0000 C   0  0  0  0  0  0  0  0  0  0  0  0
   -1.8250    1.0833    0.0000 C   0  0  0  0  0  0  0  0  0  0  0  0
   -2.5458    0.6708    0.0000 C   0  0  0  0  0  0  0  0  0  0  0  0
  1  2  1  0
  1  3  2  0
  3  4  1  0
  3  5  1  0
  6  7  1  0
  7 18  1  0
  8  9  1  0
  9 22  1  0
  4 10  1  0
  1 11  1  0
 10 12  1  0
  2 13  1  0
  6 14  1  0
  2 15  2  0
  4 16  1  0
 17 19  1  0
 18 20  1  0
  8 19  1  0
  8 20  1  0
  6 21  2  0
 11 22  2  0
 23 24  1  0
 16 24  1  0
 14 25  1  0
 14 26  2  0
 27 28  2  0
 26 28  1  0
 25 29  2  0
 27 30  1  0
 12 31  1  0
 23 32  1  0
 30 33  1  0
 33 34  1  0
 31 35  2  0
 32 36  2  0
  5  9  2  0
 12 23  2  0
  7 17  1  0
 35 36  1  0
 27 29  1  0
M  CHG  2   2   1  13  -1
M  END
>  <MOLFORMULA>  (266) 
C28 H30 N4 O4

>  <MOLWEIGHT>  (266) 
4.865690000000000e+002

>  <IDNUMBER>  (266) 
AM-879/J185840

>  <PRICE>  (266) 
EUR 55.00/10 mg

>  <Similarity score>  (266) 
0.21

$$$$

     RDKit          2D

 24 27  0  0  0  0  0  0  0  0999 V2000
   -0.0125    0.1167    0.0000 C   0  0  0  0  0  0  0  0  0  0  0  0
   -0.6083    0.9208    0.0000 N   0  0  0  0  0  0  0  0  0  0  0  0
    0.9792    0.2333    0.0000 C   0  0  0  0  0  0  0  0  0  0  0  0
   -0.2125    1.8375    0.0000 C   0  0  0  0  0  0  0  0  0  0  0  0
    0.7833    1.9500    0.0000 N   0  0  0  0  0  0  0  0  0  0  0  0
   -0.4083   -0.8000    0.0000 N   0  0  0  0  0  0  0  0  0  0  0  0
    1.3792    1.1500    0.0000 C   0  0  0  0  0  0  0  0  0  0  0  0
   -1.6042   -3.5542    0.0000 C   0  0  0  0  0  0  0  0  0  0  0  0
   -1.4042   -0.9167    0.0000 C   0  0  0  0  0  0  0  0  0  0  0  0
    0.1875   -1.6042    0.0000 C   0  0  0  0  0  0  0  0  0  0  0  0
   -1.2042   -2.6375    0.0000 C   0  0  0  0  0  0  0  0  0  0  0  0
   -0.8083    2.6417    0.0000 C   0  0  0  0  0  0  0  0  0  0  0  0
   -2.5958   -3.6667    0.0000 O   0  0  0  0  0  0  0  0  0  0  0  0
   -1.8000   -1.8333    0.0000 C   0  0  0  0  0  0  0  0  0  0  0  0
   -0.2125   -2.5208    0.0000 C   0  0  0  0  0  0  0  0  0  0  0  0
   -1.0042   -4.3583    0.0000 N   0  0  0  0  0  0  0  0  0  0  0  0
    1.7292   -0.4292    0.0000 C   0  0  0  0  0  0  0  0  0  0  0  0
    2.3750    1.0542    0.0000 C   0  0  0  0  0  0  0  0  0  0  0  0
    2.5917    0.0792    0.0000 C   0  0  0  0  0  0  0  0  0  0  0  0
   -0.4083    3.5583    0.0000 C   0  0  0  0  0  0  0  0  0  0  0  0
   -1.8000    2.5250    0.0000 C   0  0  0  0  0  0  0  0  0  0  0  0
   -2.3958    3.3292    0.0000 C   0  0  0  0  0  0  0  0  0  0  0  0
   -1.0042    4.3583    0.0000 C   0  0  0  0  0  0  0  0  0  0  0  0
   -2.0000    4.2417    0.0000 C   0  0  0  0  0  0  0  0  0  0  0  0
  1  2  1  0
  1  3  2  0
  2  4  2  0
  5  7  2  0
  1  6  1  0
  3  7  1  0
  8 11  1  0
  6  9  1  0
  6 10  1  0
 11 15  1  0
  4 12  1  0
  8 13  2  0
  9 14  1  0
 10 15  1  0
  8 16  1  0
  3 17  1  0
  7 18  1  0
 17 19  1  0
 12 20  2  0
 12 21  1  0
 21 22  2  0
 20 23  1  0
 22 24  1  0
 11 14  1  0
 18 19  1  0
  4  5  1  0
 23 24  2  0
M  END
>  <MOLFORMULA>  (267) 
C19 H22 N4 O

>  <MOLWEIGHT>  (267) 
3.224098000000000e+002

>  <IDNUMBER>  (267) 
AN-153/I280425

>  <PRICE>  (267) 
EUR 130/10 mg

>  <Similarity score>  (267) 
0.21

$$$$

     RDKit          2D

 30 34  0  0  0  0  0  0  0  0999 V2000
    2.3542    1.9625    0.0000 C   0  0  0  0  0  0  0  0  0  0  0  0
    4.4500   -2.1375    0.0000 C   0  0  0  0  0  0  0  0  0  0  0  0
    2.6125    2.7583    0.0000 O   0  0  0  0  0  0  0  0  0  0  0  0
    4.1042   -2.8875    0.0000 C   0  0  0  0  0  0  0  0  0  0  0  0
    2.8417    1.2958    0.0000 C   0  0  0  0  0  0  0  0  0  0  0  0
    1.9417    3.2333    0.0000 C   0  0  0  0  0  0  0  0  0  0  0  0
    3.9625   -1.4625    0.0000 N   0  0  0  0  0  0  0  0  0  0  0  0
    1.5292    1.9625    0.0000 C   0  0  0  0  0  0  0  0  0  0  0  0
    1.2792    2.7583    0.0000 C   0  0  0  0  0  0  0  0  0  0  0  0
    5.2750   -2.0500    0.0000 N   0  0  0  0  0  0  0  0  0  0  0  0
    2.5042    0.5375    0.0000 N   0  0  0  0  0  0  0  0  0  0  0  0
    4.6000   -3.5625    0.0000 C   0  0  0  0  0  0  0  0  0  0  0  0
    5.4167   -3.4667    0.0000 N   0  0  0  0  0  0  0  0  0  0  0  0
    5.7500   -2.7167    0.0000 C   0  0  0  0  0  0  0  0  0  0  0  0
    3.1292   -1.5417    0.0000 C   0  0  0  0  0  0  0  0  0  0  0  0
    4.2917   -0.7125    0.0000 C   0  0  0  0  0  0  0  0  0  0  0  0
    3.6542    1.3833    0.0000 O   0  0  0  0  0  0  0  0  0  0  0  0
    1.8667    4.0417    0.0000 C   0  0  0  0  0  0  0  0  0  0  0  0
    2.9917   -0.1167    0.0000 C   0  0  0  0  0  0  0  0  0  0  0  0
    3.8042   -0.0292    0.0000 C   0  0  0  0  0  0  0  0  0  0  0  0
    2.6542   -0.8875    0.0000 C   0  0  0  0  0  0  0  0  0  0  0  0
    3.2917   -2.9792    0.0000 C   0  0  0  0  0  0  0  0  0  0  0  0
    2.5375    4.5167    0.0000 O   0  0  0  0  0  0  0  0  0  0  0  0
    0.5167    3.0958    0.0000 C   0  0  0  0  0  0  0  0  0  0  0  0
    0.4417    3.9083    0.0000 C   0  0  0  0  0  0  0  0  0  0  0  0
    1.1167    4.3875    0.0000 C   0  0  0  0  0  0  0  0  0  0  0  0
    4.2625   -4.3125    0.0000 C   0  0  0  0  0  0  0  0  0  0  0  0
    3.2917    4.1667    0.0000 C   0  0  0  0  0  0  0  0  0  0  0  0
    2.9542   -3.7292    0.0000 C   0  0  0  0  0  0  0  0  0  0  0  0
    3.4417   -4.4000    0.0000 C   0  0  0  0  0  0  0  0  0  0  0  0
  2  7  1  0
  1  3  1  0
  2  4  1  0
  1  5  1  0
  3  6  1  0
  7 15  1  0
  1  8  2  0
  8  9  1  0
  2 10  2  0
  5 11  1  0
  4 12  2  0
 13 14  2  0
 10 14  1  0
 15 21  1  0
 16 20  1  0
  5 17  2  0
  6 18  1  0
 11 19  1  0
 19 20  1  0
 19 21  1  0
  4 22  1  0
 18 23  1  0
  9 24  1  0
 24 25  2  0
 18 26  2  0
 12 27  1  0
 23 28  1  0
 22 29  1  0
 29 30  1  0
  6  9  2  0
 25 26  1  0
  7 16  1  0
 12 13  1  0
 27 30  1  0
M  END
>  <MOLFORMULA>  (268) 
C23 H26 N4 O3

>  <MOLWEIGHT>  (268) 
4.064834000000000e+002

>  <IDNUMBER>  (268) 
AT-687/SK01581

>  <PRICE>  (268) 
EUR 80/10 mg

>  <Similarity score>  (268) 
0.21

$$$$

     RDKit          2D

 30 34  0  0  0  0  0  0  0  0999 V2000
   -1.5500    2.4958    0.0000 C   0  0  0  0  0  0  0  0  0  0  0  0
   -1.5500    3.4958    0.0000 N   0  0  0  0  0  0  0  0  0  0  0  0
   -0.6875    1.9958    0.0000 C   0  0  0  0  0  0  0  0  0  0  0  0
   -2.5125    3.8083    0.0000 N   0  0  0  0  0  0  0  0  0  0  0  0
   -2.5125    2.1833    0.0000 C   0  0  0  0  0  0  0  0  0  0  0  0
   -0.6875    0.9958    0.0000 N   0  0  0  0  0  0  0  0  0  0  0  0
   -3.0958    2.9875    0.0000 C   0  0  0  0  0  0  0  0  0  0  0  0
    0.1792    2.4958    0.0000 N   0  0  0  0  0  0  0  0  0  0  0  0
    0.1792   -0.5125    0.0000 C   0  0  0  0  0  0  0  0  0  0  0  0
    1.0417   -1.0125    0.0000 C   0  0  0  0  0  0  0  0  0  0  0  0
   -0.6875    4.0000    0.0000 C   0  0  0  0  0  0  0  0  0  0  0  0
    0.1792    0.4958    0.0000 C   0  0  0  0  0  0  0  0  0  0  0  0
    0.1792    3.4958    0.0000 C   0  0  0  0  0  0  0  0  0  0  0  0
    1.9042   -0.5125    0.0000 N   0  0  0  0  0  0  0  0  0  0  0  0
    2.7667   -1.9917    0.0000 C   0  0  0  0  0  0  0  0  0  0  0  0
    2.7667   -1.0125    0.0000 C   0  0  0  0  0  0  0  0  0  0  0  0
    1.0292   -2.0125    0.0000 O   0  0  0  0  0  0  0  0  0  0  0  0
    3.6125   -2.5167    0.0000 C   0  0  0  0  0  0  0  0  0  0  0  0
   -1.5500    0.4958    0.0000 C   0  0  0  0  0  0  0  0  0  0  0  0
   -2.9083    1.2708    0.0000 C   0  0  0  0  0  0  0  0  0  0  0  0
    4.4917   -2.0125    0.0000 F   0  0  0  0  0  0  0  0  0  0  0  0
   -0.6958   -0.9917    0.0000 C   0  0  0  0  0  0  0  0  0  0  0  0
   -4.0958    2.8958    0.0000 C   0  0  0  0  0  0  0  0  0  0  0  0
   -1.5583   -0.4917    0.0000 C   0  0  0  0  0  0  0  0  0  0  0  0
    1.8917   -2.4875    0.0000 C   0  0  0  0  0  0  0  0  0  0  0  0
    3.6125   -3.5042    0.0000 C   0  0  0  0  0  0  0  0  0  0  0  0
   -3.9083    1.1708    0.0000 C   0  0  0  0  0  0  0  0  0  0  0  0
   -4.5000    1.9708    0.0000 C   0  0  0  0  0  0  0  0  0  0  0  0
    1.8792   -3.4917    0.0000 C   0  0  0  0  0  0  0  0  0  0  0  0
    2.7500   -4.0000    0.0000 C   0  0  0  0  0  0  0  0  0  0  0  0
  1  2  1  0
  1  3  1  0
  2  4  1  0
  1  5  2  0
  3  6  1  0
  5  7  1  0
  3  8  2  0
  9 12  1  0
  9 10  1  0
  2 11  1  0
  6 12  1  0
  8 13  1  0
 10 14  1  0
 15 16  1  0
 14 16  1  0
 10 17  2  0
 15 18  2  0
  6 19  1  0
  5 20  1  0
 18 21  1  0
 22 24  1  0
  7 23  1  0
 19 24  1  0
 15 25  1  0
 18 26  1  0
 20 27  1  0
 27 28  1  0
 25 29  2  0
 29 30  1  0
  4  7  2  0
 11 13  2  0
 23 28  1  0
  9 22  1  0
 26 30  2  0
M  END
>  <MOLFORMULA>  (269) 
C23 H26 F N5 O

>  <MOLWEIGHT>  (269) 
4.074904000000000e+002

>  <IDNUMBER>  (269) 
AT-687/PE21890

>  <PRICE>  (269) 
EUR 80/10 mg

>  <Similarity score>  (269) 
0.21

$$$$

     RDKit          2D

 25 28  0  0  0  0  0  0  0  0999 V2000
    3.6292   -1.3042    0.0000 C   0  0  0  0  0  0  0  0  0  0  0  0
    3.3000   -2.0625    0.0000 C   0  0  0  0  0  0  0  0  0  0  0  0
    4.4542   -1.2167    0.0000 N   0  0  0  0  0  0  0  0  0  0  0  0
    1.5417    2.7958    0.0000 C   0  0  0  0  0  0  0  0  0  0  0  0
    3.1500   -0.6375    0.0000 N   0  0  0  0  0  0  0  0  0  0  0  0
    2.0375    2.1333    0.0000 C   0  0  0  0  0  0  0  0  0  0  0  0
    4.6042   -2.6417    0.0000 N   0  0  0  0  0  0  0  0  0  0  0  0
    3.7917   -2.7292    0.0000 C   0  0  0  0  0  0  0  0  0  0  0  0
    4.9417   -1.8917    0.0000 C   0  0  0  0  0  0  0  0  0  0  0  0
    1.6917    1.3708    0.0000 N   0  0  0  0  0  0  0  0  0  0  0  0
    1.8000    3.5833    0.0000 C   0  0  0  0  0  0  0  0  0  0  0  0
    0.7167    2.7958    0.0000 C   0  0  0  0  0  0  0  0  0  0  0  0
    1.1292    4.0417    0.0000 O   0  0  0  0  0  0  0  0  0  0  0  0
    2.3292   -0.7167    0.0000 C   0  0  0  0  0  0  0  0  0  0  0  0
    3.4875    0.1208    0.0000 C   0  0  0  0  0  0  0  0  0  0  0  0
    2.8417    2.2125    0.0000 O   0  0  0  0  0  0  0  0  0  0  0  0
    0.4667    3.5833    0.0000 C   0  0  0  0  0  0  0  0  0  0  0  0
    2.1875    0.7083    0.0000 C   0  0  0  0  0  0  0  0  0  0  0  0
    3.0000    0.7875    0.0000 C   0  0  0  0  0  0  0  0  0  0  0  0
    1.8500   -0.0542    0.0000 C   0  0  0  0  0  0  0  0  0  0  0  0
    2.4750   -2.1542    0.0000 C   0  0  0  0  0  0  0  0  0  0  0  0
    3.4542   -3.4792    0.0000 C   0  0  0  0  0  0  0  0  0  0  0  0
    5.7542   -1.8000    0.0000 C   0  0  0  0  0  0  0  0  0  0  0  0
    2.1417   -2.9042    0.0000 C   0  0  0  0  0  0  0  0  0  0  0  0
    2.6417   -3.5667    0.0000 C   0  0  0  0  0  0  0  0  0  0  0  0
  1  2  1  0
  1  3  2  0
  4  6  1  0
  1  5  1  0
  6 10  1  0
  7  9  2  0
  2  8  2  0
  3  9  1  0
 10 18  1  0
  4 11  2  0
  4 12  1  0
 11 13  1  0
  5 14  1  0
  5 15  1  0
  6 16  2  0
 12 17  2  0
 18 19  1  0
 15 19  1  0
 14 20  1  0
  2 21  1  0
  8 22  1  0
  9 23  1  0
 21 24  1  0
 24 25  1  0
  7  8  1  0
 18 20  1  0
 22 25  1  0
 13 17  1  0
M  END
>  <MOLFORMULA>  (270) 
C19 H24 N4 O2

>  <MOLWEIGHT>  (270) 
3.404246000000000e+002

>  <IDNUMBER>  (270) 
AT-687/SK01694

>  <PRICE>  (270) 
EUR 80/10 mg

>  <Similarity score>  (270) 
0.21

$$$$

     RDKit          2D

 27 30  0  0  0  0  0  0  0  0999 V2000
    3.5667    1.5083    0.0000 C   0  0  0  0  0  0  0  0  0  0  0  0
    3.5667    2.3333    0.0000 C   0  0  0  0  0  0  0  0  0  0  0  0
    4.2792    1.0958    0.0000 N   0  0  0  0  0  0  0  0  0  0  0  0
    2.8417    1.0958    0.0000 N   0  0  0  0  0  0  0  0  0  0  0  0
    4.9875    2.3333    0.0000 N   0  0  0  0  0  0  0  0  0  0  0  0
    4.2792    2.7458    0.0000 C   0  0  0  0  0  0  0  0  0  0  0  0
    4.9875    1.5083    0.0000 C   0  0  0  0  0  0  0  0  0  0  0  0
    0.7042   -0.9667    0.0000 C   0  0  0  0  0  0  0  0  0  0  0  0
    0.7042   -0.1417    0.0000 N   0  0  0  0  0  0  0  0  0  0  0  0
    2.1292    1.5083    0.0000 C   0  0  0  0  0  0  0  0  0  0  0  0
    2.8417    0.2708    0.0000 C   0  0  0  0  0  0  0  0  0  0  0  0
    0.0000   -1.3792    0.0000 O   0  0  0  0  0  0  0  0  0  0  0  0
    2.1292   -3.4417    0.0000 N   0  0  0  0  0  0  0  0  0  0  0  0
    2.1292   -0.1417    0.0000 C   0  0  0  0  0  0  0  0  0  0  0  0
    1.4167    1.0958    0.0000 C   0  0  0  0  0  0  0  0  0  0  0  0
    1.4167   -1.3792    0.0000 C   0  0  0  0  0  0  0  0  0  0  0  0
    1.4167    0.2708    0.0000 C   0  0  0  0  0  0  0  0  0  0  0  0
    2.8500    2.7500    0.0000 C   0  0  0  0  0  0  0  0  0  0  0  0
    1.4167   -2.2042    0.0000 C   0  0  0  0  0  0  0  0  0  0  0  0
    4.2792    3.5625    0.0000 C   0  0  0  0  0  0  0  0  0  0  0  0
    2.1292   -2.6250    0.0000 C   0  0  0  0  0  0  0  0  0  0  0  0
    5.7042    1.0958    0.0000 C   0  0  0  0  0  0  0  0  0  0  0  0
    1.4125   -3.8542    0.0000 C   0  0  0  0  0  0  0  0  0  0  0  0
    0.7000   -2.6167    0.0000 C   0  0  0  0  0  0  0  0  0  0  0  0
    2.8542    3.5708    0.0000 C   0  0  0  0  0  0  0  0  0  0  0  0
    0.7000   -3.4500    0.0000 C   0  0  0  0  0  0  0  0  0  0  0  0
    3.5750    3.9833    0.0000 C   0  0  0  0  0  0  0  0  0  0  0  0
  1  2  1  0
  1  3  2  0
  1  4  1  0
  5  7  2  0
  2  6  2  0
  3  7  1  0
  8  9  1  0
  9 17  1  0
  4 10  1  0
  4 11  1  0
  8 12  2  0
 13 21  1  0
 11 14  1  0
 10 15  1  0
  8 16  1  0
 14 17  1  0
  2 18  1  0
 16 19  1  0
  6 20  1  0
 19 21  2  0
  7 22  1  0
 23 26  1  0
 19 24  1  0
 18 25  1  0
 24 26  2  0
 25 27  1  0
  5  6  1  0
 15 17  1  0
 20 27  1  0
 13 23  2  0
M  END
>  <MOLFORMULA>  (271) 
C21 H27 N5 O

>  <MOLWEIGHT>  (271) 
3.654783000000000e+002

>  <IDNUMBER>  (271) 
AT-687/SK01678

>  <PRICE>  (271) 
EUR 80/10 mg

>  <Similarity score>  (271) 
0.21

$$$$

     RDKit          2D

 30 34  0  0  0  0  0  0  0  0999 V2000
    0.1667   -2.3250    0.0000 N   0  0  0  0  0  0  0  0  0  0  0  0
   -0.2417   -1.4083    0.0000 C   0  0  0  0  0  0  0  0  0  0  0  0
    1.1625   -2.2208    0.0000 C   0  0  0  0  0  0  0  0  0  0  0  0
   -0.6208    1.6542    0.0000 C   0  0  0  0  0  0  0  0  0  0  0  0
    0.5042   -0.7417    0.0000 C   0  0  0  0  0  0  0  0  0  0  0  0
    0.1875    2.2417    0.0000 C   0  0  0  0  0  0  0  0  0  0  0  0
    1.3667   -1.2417    0.0000 C   0  0  0  0  0  0  0  0  0  0  0  0
    0.3958    0.2542    0.0000 N   0  0  0  0  0  0  0  0  0  0  0  0
   -1.4292    2.2417    0.0000 N   0  0  0  0  0  0  0  0  0  0  0  0
   -0.3333   -3.1875    0.0000 C   0  0  0  0  0  0  0  0  0  0  0  0
   -0.1208    3.1917    0.0000 C   0  0  0  0  0  0  0  0  0  0  0  0
   -1.1208    3.1917    0.0000 C   0  0  0  0  0  0  0  0  0  0  0  0
   -0.5167    0.6583    0.0000 C   0  0  0  0  0  0  0  0  0  0  0  0
   -1.3333   -3.1875    0.0000 C   0  0  0  0  0  0  0  0  0  0  0  0
    1.1042    1.8375    0.0000 C   0  0  0  0  0  0  0  0  0  0  0  0
   -1.8333   -4.0542    0.0000 C   0  0  0  0  0  0  0  0  0  0  0  0
   -1.2167   -1.2042    0.0000 O   0  0  0  0  0  0  0  0  0  0  0  0
    0.1667   -4.0542    0.0000 C   0  0  0  0  0  0  0  0  0  0  0  0
    1.2083    0.8417    0.0000 C   0  0  0  0  0  0  0  0  0  0  0  0
    1.8292   -2.9625    0.0000 O   0  0  0  0  0  0  0  0  0  0  0  0
    0.3792    4.0542    0.0000 C   0  0  0  0  0  0  0  0  0  0  0  0
   -1.6208    4.0542    0.0000 C   0  0  0  0  0  0  0  0  0  0  0  0
   -1.3333   -4.9208    0.0000 C   0  0  0  0  0  0  0  0  0  0  0  0
   -1.8333   -2.3250    0.0000 Cl  0  0  0  0  0  0  0  0  0  0  0  0
   -0.1208    4.9208    0.0000 C   0  0  0  0  0  0  0  0  0  0  0  0
   -0.3333   -4.9208    0.0000 C   0  0  0  0  0  0  0  0  0  0  0  0
   -1.1208    4.9208    0.0000 C   0  0  0  0  0  0  0  0  0  0  0  0
   -1.8333   -5.7875    0.0000 Cl  0  0  0  0  0  0  0  0  0  0  0  0
    0.3792    5.7875    0.0000 O   0  0  0  0  0  0  0  0  0  0  0  0
    1.3792    5.7875    0.0000 C   0  0  0  0  0  0  0  0  0  0  0  0
  1  2  1  0
  1  3  1  0
  4 13  1  0
  2  5  1  0
  6 15  1  0
  3  7  1  0
  5  8  1  0
  4  9  1  0
  1 10  1  0
  6 11  1  0
  9 12  1  0
  8 13  1  0
 10 14  1  0
 15 19  1  0
 14 16  2  0
  2 17  2  0
 10 18  2  0
  8 19  1  0
  3 20  2  0
 11 21  2  0
 12 22  2  0
 23 26  2  0
 14 24  1  0
 21 25  1  0
 18 26  1  0
 22 27  1  0
 23 28  1  0
 25 29  1  0
 29 30  1  0
  5  7  1  0
 16 23  1  0
  4  6  2  0
 11 12  1  0
 25 27  2  0
M  END
>  <MOLFORMULA>  (272) 
C22 H19 Cl2 N3 O3

>  <MOLWEIGHT>  (272) 
4.443161000000000e+002

>  <IDNUMBER>  (272) 
AN-153/NB21463

>  <PRICE>  (272) 
EUR 130/10 mg

>  <Similarity score>  (272) 
0.21

$$$$

     RDKit          2D

 32 37  0  0  0  0  0  0  0  0999 V2000
    0.9167   -2.3250    0.0000 N   0  0  0  0  0  0  0  0  0  0  0  0
    0.5083   -1.4083    0.0000 C   0  0  0  0  0  0  0  0  0  0  0  0
    1.9125   -2.2208    0.0000 C   0  0  0  0  0  0  0  0  0  0  0  0
    0.1292    1.6542    0.0000 C   0  0  0  0  0  0  0  0  0  0  0  0
    1.2542   -0.7417    0.0000 C   0  0  0  0  0  0  0  0  0  0  0  0
    0.9375    2.2417    0.0000 C   0  0  0  0  0  0  0  0  0  0  0  0
    2.1167   -1.2417    0.0000 C   0  0  0  0  0  0  0  0  0  0  0  0
    1.1500    0.2542    0.0000 N   0  0  0  0  0  0  0  0  0  0  0  0
   -0.6792    2.2417    0.0000 N   0  0  0  0  0  0  0  0  0  0  0  0
    0.4167   -3.1875    0.0000 C   0  0  0  0  0  0  0  0  0  0  0  0
    0.6292    3.1917    0.0000 C   0  0  0  0  0  0  0  0  0  0  0  0
   -0.3708    3.1917    0.0000 C   0  0  0  0  0  0  0  0  0  0  0  0
    0.2333    0.6625    0.0000 C   0  0  0  0  0  0  0  0  0  0  0  0
   -0.5833   -3.1875    0.0000 C   0  0  0  0  0  0  0  0  0  0  0  0
   -1.0833   -4.0542    0.0000 C   0  0  0  0  0  0  0  0  0  0  0  0
    1.8542    1.8375    0.0000 C   0  0  0  0  0  0  0  0  0  0  0  0
   -0.4667   -1.2042    0.0000 O   0  0  0  0  0  0  0  0  0  0  0  0
    1.9583    0.8417    0.0000 C   0  0  0  0  0  0  0  0  0  0  0  0
    2.5792   -2.9625    0.0000 O   0  0  0  0  0  0  0  0  0  0  0  0
   -0.5833   -4.9208    0.0000 C   0  0  0  0  0  0  0  0  0  0  0  0
    1.1292    4.0542    0.0000 C   0  0  0  0  0  0  0  0  0  0  0  0
    0.9167   -4.0542    0.0000 C   0  0  0  0  0  0  0  0  0  0  0  0
   -2.0833   -4.0542    0.0000 O   0  0  0  0  0  0  0  0  0  0  0  0
   -1.0833   -5.7875    0.0000 O   0  0  0  0  0  0  0  0  0  0  0  0
   -0.8708    4.0542    0.0000 C   0  0  0  0  0  0  0  0  0  0  0  0
    0.4167   -4.9208    0.0000 C   0  0  0  0  0  0  0  0  0  0  0  0
    0.6292    4.9208    0.0000 C   0  0  0  0  0  0  0  0  0  0  0  0
   -0.3708    4.9208    0.0000 C   0  0  0  0  0  0  0  0  0  0  0  0
    1.1292    5.7875    0.0000 O   0  0  0  0  0  0  0  0  0  0  0  0
   -2.5833   -4.9208    0.0000 C   0  0  0  0  0  0  0  0  0  0  0  0
   -2.0833   -5.7875    0.0000 C   0  0  0  0  0  0  0  0  0  0  0  0
    2.1292    5.7875    0.0000 C   0  0  0  0  0  0  0  0  0  0  0  0
  1  2  1  0
  1  3  1  0
  4 13  1  0
  2  5  1  0
  6 16  1  0
  3  7  1  0
  5  8  1  0
  4  9  1  0
  1 10  1  0
  6 11  1  0
  9 12  1  0
  8 13  1  0
 10 14  2  0
 14 15  1  0
 16 18  1  0
  2 17  2  0
  8 18  1  0
  3 19  2  0
 20 26  1  0
 11 21  2  0
 10 22  1  0
 15 23  1  0
 20 24  1  0
 12 25  2  0
 22 26  2  0
 21 27  1  0
 25 28  1  0
 27 29  1  0
 23 30  1  0
 24 31  1  0
 29 32  1  0
  5  7  1  0
 15 20  2  0
 30 31  1  0
  4  6  2  0
 11 12  1  0
 27 28  2  0
M  END
>  <MOLFORMULA>  (273) 
C24 H23 N3 O5

>  <MOLWEIGHT>  (273) 
4.334617000000000e+002

>  <IDNUMBER>  (273) 
AN-153/NB21459

>  <PRICE>  (273) 
EUR 130/10 mg

>  <Similarity score>  (273) 
0.21

$$$$

     RDKit          2D

 32 36  0  0  0  0  0  0  0  0999 V2000
    0.9167   -1.4583    0.0000 N   0  0  0  0  0  0  0  0  0  0  0  0
    0.5083   -0.5458    0.0000 C   0  0  0  0  0  0  0  0  0  0  0  0
    1.9125   -1.3542    0.0000 C   0  0  0  0  0  0  0  0  0  0  0  0
    0.1292    2.5208    0.0000 C   0  0  0  0  0  0  0  0  0  0  0  0
    1.2542    0.1250    0.0000 C   0  0  0  0  0  0  0  0  0  0  0  0
    2.1167   -0.3750    0.0000 C   0  0  0  0  0  0  0  0  0  0  0  0
    0.9375    3.1083    0.0000 C   0  0  0  0  0  0  0  0  0  0  0  0
    1.1500    1.1208    0.0000 N   0  0  0  0  0  0  0  0  0  0  0  0
    0.4167   -2.3250    0.0000 C   0  0  0  0  0  0  0  0  0  0  0  0
   -0.6792    3.1083    0.0000 N   0  0  0  0  0  0  0  0  0  0  0  0
    0.6292    4.0542    0.0000 C   0  0  0  0  0  0  0  0  0  0  0  0
   -0.3708    4.0542    0.0000 C   0  0  0  0  0  0  0  0  0  0  0  0
    0.2333    1.5250    0.0000 C   0  0  0  0  0  0  0  0  0  0  0  0
   -0.5833   -4.0542    0.0000 C   0  0  0  0  0  0  0  0  0  0  0  0
    0.9167   -3.1875    0.0000 C   0  0  0  0  0  0  0  0  0  0  0  0
   -0.5833   -2.3250    0.0000 C   0  0  0  0  0  0  0  0  0  0  0  0
   -1.0833   -3.1875    0.0000 C   0  0  0  0  0  0  0  0  0  0  0  0
    0.4167   -4.0542    0.0000 C   0  0  0  0  0  0  0  0  0  0  0  0
    1.8542    2.7000    0.0000 C   0  0  0  0  0  0  0  0  0  0  0  0
   -0.4708   -0.3375    0.0000 O   0  0  0  0  0  0  0  0  0  0  0  0
    1.9583    1.7083    0.0000 C   0  0  0  0  0  0  0  0  0  0  0  0
    2.5792   -2.0958    0.0000 O   0  0  0  0  0  0  0  0  0  0  0  0
   -1.0833   -4.9208    0.0000 O   0  0  0  0  0  0  0  0  0  0  0  0
   -2.0833   -3.1875    0.0000 O   0  0  0  0  0  0  0  0  0  0  0  0
    0.9167   -4.9208    0.0000 O   0  0  0  0  0  0  0  0  0  0  0  0
    1.1292    4.9208    0.0000 C   0  0  0  0  0  0  0  0  0  0  0  0
   -0.8708    4.9208    0.0000 C   0  0  0  0  0  0  0  0  0  0  0  0
   -0.5833   -5.7875    0.0000 C   0  0  0  0  0  0  0  0  0  0  0  0
   -2.5833   -4.0542    0.0000 C   0  0  0  0  0  0  0  0  0  0  0  0
    1.9167   -4.9208    0.0000 C   0  0  0  0  0  0  0  0  0  0  0  0
    0.6292    5.7875    0.0000 C   0  0  0  0  0  0  0  0  0  0  0  0
   -0.3708    5.7875    0.0000 C   0  0  0  0  0  0  0  0  0  0  0  0
  1  2  1  0
  1  3  1  0
  4 13  1  0
  2  5  1  0
  3  6  1  0
  7 19  1  0
  5  8  1  0
  1  9  1  0
  4 10  1  0
  7 11  1  0
 10 12  1  0
  8 13  1  0
 14 18  1  0
  9 15  1  0
  9 16  2  0
 16 17  1  0
 15 18  2  0
 19 21  1  0
  2 20  2  0
  8 21  1  0
  3 22  2  0
 14 23  1  0
 17 24  1  0
 18 25  1  0
 11 26  2  0
 12 27  2  0
 23 28  1  0
 24 29  1  0
 25 30  1  0
 26 31  1  0
 27 32  1  0
  5  6  1  0
 14 17  2  0
  4  7  2  0
 11 12  1  0
 31 32  2  0
M  END
>  <MOLFORMULA>  (274) 
C24 H25 N3 O5

>  <MOLWEIGHT>  (274) 
4.354775000000000e+002

>  <IDNUMBER>  (274) 
AN-153/NB21444

>  <PRICE>  (274) 
EUR 130/10 mg

>  <Similarity score>  (274) 
0.21

$$$$

     RDKit          2D

 29 33  0  0  0  0  0  0  0  0999 V2000
    0.6667   -2.7583    0.0000 N   0  0  0  0  0  0  0  0  0  0  0  0
    0.2583   -1.8417    0.0000 C   0  0  0  0  0  0  0  0  0  0  0  0
    1.6625   -2.6542    0.0000 C   0  0  0  0  0  0  0  0  0  0  0  0
   -0.1208    1.2208    0.0000 C   0  0  0  0  0  0  0  0  0  0  0  0
    1.0042   -1.1750    0.0000 C   0  0  0  0  0  0  0  0  0  0  0  0
    0.6875    1.8083    0.0000 C   0  0  0  0  0  0  0  0  0  0  0  0
    1.8667   -1.6750    0.0000 C   0  0  0  0  0  0  0  0  0  0  0  0
    0.9000   -0.1792    0.0000 N   0  0  0  0  0  0  0  0  0  0  0  0
   -0.9292    1.8083    0.0000 N   0  0  0  0  0  0  0  0  0  0  0  0
    0.3792    2.7625    0.0000 C   0  0  0  0  0  0  0  0  0  0  0  0
    0.1667   -3.6208    0.0000 C   0  0  0  0  0  0  0  0  0  0  0  0
   -0.6208    2.7625    0.0000 C   0  0  0  0  0  0  0  0  0  0  0  0
   -0.0167    0.2292    0.0000 C   0  0  0  0  0  0  0  0  0  0  0  0
    1.6042    1.4042    0.0000 C   0  0  0  0  0  0  0  0  0  0  0  0
   -0.8333   -3.6208    0.0000 C   0  0  0  0  0  0  0  0  0  0  0  0
   -0.7167   -1.6333    0.0000 O   0  0  0  0  0  0  0  0  0  0  0  0
    1.7083    0.4083    0.0000 C   0  0  0  0  0  0  0  0  0  0  0  0
    2.3292   -3.3958    0.0000 O   0  0  0  0  0  0  0  0  0  0  0  0
    0.8792    3.6250    0.0000 C   0  0  0  0  0  0  0  0  0  0  0  0
   -1.1208    3.6250    0.0000 C   0  0  0  0  0  0  0  0  0  0  0  0
   -1.3333   -4.4875    0.0000 C   0  0  0  0  0  0  0  0  0  0  0  0
    0.3792    4.4875    0.0000 C   0  0  0  0  0  0  0  0  0  0  0  0
   -0.6208    4.4875    0.0000 C   0  0  0  0  0  0  0  0  0  0  0  0
    0.6667   -4.4875    0.0000 C   0  0  0  0  0  0  0  0  0  0  0  0
   -2.3333   -4.4875    0.0000 Cl  0  0  0  0  0  0  0  0  0  0  0  0
    0.8792    5.3542    0.0000 O   0  0  0  0  0  0  0  0  0  0  0  0
    0.1667   -5.3542    0.0000 C   0  0  0  0  0  0  0  0  0  0  0  0
   -0.8333   -5.3542    0.0000 C   0  0  0  0  0  0  0  0  0  0  0  0
    1.8792    5.3542    0.0000 C   0  0  0  0  0  0  0  0  0  0  0  0
  1  2  1  0
  1  3  1  0
  4 13  1  0
  2  5  1  0
  6 14  1  0
  3  7  1  0
  5  8  1  0
  4  9  1  0
  6 10  1  0
  1 11  1  0
  9 12  1  0
  8 13  1  0
 14 17  1  0
 11 15  2  0
  2 16  2  0
  8 17  1  0
  3 18  2  0
 10 19  2  0
 12 20  2  0
 15 21  1  0
 19 22  1  0
 20 23  1  0
 11 24  1  0
 21 25  1  0
 22 26  1  0
 24 27  2  0
 27 28  1  0
 26 29  1  0
  5  7  1  0
 21 28  2  0
  4  6  2  0
 10 12  1  0
 22 23  2  0
M  END
>  <MOLFORMULA>  (275) 
C22 H20 Cl N3 O3

>  <MOLWEIGHT>  (275) 
4.098710000000000e+002

>  <IDNUMBER>  (275) 
AN-153/NB21452

>  <PRICE>  (275) 
EUR 130/10 mg

>  <Similarity score>  (275) 
0.21

$$$$

     RDKit          2D

 27 30  0  0  0  0  0  0  0  0999 V2000
    1.8542   -2.3000    0.0000 C   0  0  0  0  0  0  0  0  0  0  0  0
    2.5750   -2.7167    0.0000 C   0  0  0  0  0  0  0  0  0  0  0  0
    1.1417   -2.7125    0.0000 N   0  0  0  0  0  0  0  0  0  0  0  0
    1.8667   -1.4750    0.0000 N   0  0  0  0  0  0  0  0  0  0  0  0
    1.1667    1.4125    0.0000 C   0  0  0  0  0  0  0  0  0  0  0  0
    1.8542   -3.9500    0.0000 N   0  0  0  0  0  0  0  0  0  0  0  0
    1.1667    2.2375    0.0000 C   0  0  0  0  0  0  0  0  0  0  0  0
    2.5667   -3.5417    0.0000 C   0  0  0  0  0  0  0  0  0  0  0  0
    1.1375   -3.5250    0.0000 C   0  0  0  0  0  0  0  0  0  0  0  0
    1.8750    1.0000    0.0000 N   0  0  0  0  0  0  0  0  0  0  0  0
    0.4542    3.4708    0.0000 N   0  0  0  0  0  0  0  0  0  0  0  0
    1.8875    2.6500    0.0000 C   0  0  0  0  0  0  0  0  0  0  0  0
    1.1542   -1.0542    0.0000 C   0  0  0  0  0  0  0  0  0  0  0  0
    2.5750   -1.0667    0.0000 C   0  0  0  0  0  0  0  0  0  0  0  0
    0.4500    1.0000    0.0000 O   0  0  0  0  0  0  0  0  0  0  0  0
    1.8750    0.1750    0.0000 C   0  0  0  0  0  0  0  0  0  0  0  0
    2.5792   -0.2375    0.0000 C   0  0  0  0  0  0  0  0  0  0  0  0
    1.1542   -0.2375    0.0000 C   0  0  0  0  0  0  0  0  0  0  0  0
    0.4542    2.6500    0.0000 C   0  0  0  0  0  0  0  0  0  0  0  0
    1.8875    3.4708    0.0000 C   0  0  0  0  0  0  0  0  0  0  0  0
    3.3000   -2.3042    0.0000 C   0  0  0  0  0  0  0  0  0  0  0  0
    2.5917    3.8833    0.0000 Br  0  0  0  0  0  0  0  0  0  0  0  0
    1.1667    3.8833    0.0000 C   0  0  0  0  0  0  0  0  0  0  0  0
    3.2792   -3.9542    0.0000 C   0  0  0  0  0  0  0  0  0  0  0  0
    0.4250   -3.9375    0.0000 C   0  0  0  0  0  0  0  0  0  0  0  0
    4.0000   -2.7292    0.0000 C   0  0  0  0  0  0  0  0  0  0  0  0
    3.9917   -3.5542    0.0000 C   0  0  0  0  0  0  0  0  0  0  0  0
  1  2  1  0
  1  3  2  0
  1  4  1  0
  5 10  1  0
  6  9  2  0
  5  7  1  0
  2  8  2  0
  3  9  1  0
 10 16  1  0
 11 19  2  0
  7 12  2  0
  4 13  1  0
  4 14  1  0
  5 15  2  0
 16 17  1  0
 14 17  1  0
 13 18  1  0
  7 19  1  0
 12 20  1  0
  2 21  1  0
 20 22  1  0
 11 23  1  0
  8 24  1  0
  9 25  1  0
 21 26  1  0
 26 27  1  0
  6  8  1  0
 16 18  1  0
 24 27  1  0
 20 23  2  0
M  END
>  <MOLFORMULA>  (276) 
C20 H24 Br N5 O

>  <MOLWEIGHT>  (276) 
4.303476000000000e+002

>  <IDNUMBER>  (276) 
AT-687/SK01687

>  <PRICE>  (276) 
EUR 80/10 mg

>  <Similarity score>  (276) 
0.21

$$$$

     RDKit          2D

 32 36  0  0  0  0  0  0  0  0999 V2000
   -1.9708    3.2583    0.0000 C   0  0  0  0  0  0  0  0  0  0  0  0
   -1.9708    4.2542    0.0000 N   0  0  0  0  0  0  0  0  0  0  0  0
   -1.1208    2.7583    0.0000 C   0  0  0  0  0  0  0  0  0  0  0  0
   -2.9375    4.5625    0.0000 N   0  0  0  0  0  0  0  0  0  0  0  0
   -2.9375    2.9458    0.0000 C   0  0  0  0  0  0  0  0  0  0  0  0
   -1.1208    1.7583    0.0000 N   0  0  0  0  0  0  0  0  0  0  0  0
   -3.5208    3.7583    0.0000 C   0  0  0  0  0  0  0  0  0  0  0  0
    0.6167   -0.2500    0.0000 C   0  0  0  0  0  0  0  0  0  0  0  0
   -0.2500    3.2583    0.0000 N   0  0  0  0  0  0  0  0  0  0  0  0
   -0.2500    0.2583    0.0000 C   0  0  0  0  0  0  0  0  0  0  0  0
   -0.2500    1.2583    0.0000 C   0  0  0  0  0  0  0  0  0  0  0  0
   -1.1208    4.7542    0.0000 C   0  0  0  0  0  0  0  0  0  0  0  0
    0.6042   -1.2417    0.0000 N   0  0  0  0  0  0  0  0  0  0  0  0
   -0.2500    4.2542    0.0000 C   0  0  0  0  0  0  0  0  0  0  0  0
    4.0542   -4.2542    0.0000 C   0  0  0  0  0  0  0  0  0  0  0  0
    4.0667   -3.2542    0.0000 N   0  0  0  0  0  0  0  0  0  0  0  0
    1.4792    0.2583    0.0000 O   0  0  0  0  0  0  0  0  0  0  0  0
    3.1875   -4.7500    0.0000 O   0  0  0  0  0  0  0  0  0  0  0  0
    1.4750   -1.7417    0.0000 C   0  0  0  0  0  0  0  0  0  0  0  0
    3.2000   -2.7500    0.0000 C   0  0  0  0  0  0  0  0  0  0  0  0
   -1.9708    1.2583    0.0000 C   0  0  0  0  0  0  0  0  0  0  0  0
   -3.3458    2.0333    0.0000 C   0  0  0  0  0  0  0  0  0  0  0  0
   -1.1208   -0.2375    0.0000 C   0  0  0  0  0  0  0  0  0  0  0  0
    1.4667   -2.7417    0.0000 C   0  0  0  0  0  0  0  0  0  0  0  0
    2.3417   -1.2542    0.0000 C   0  0  0  0  0  0  0  0  0  0  0  0
    2.3167   -3.2542    0.0000 C   0  0  0  0  0  0  0  0  0  0  0  0
    3.2042   -1.7542    0.0000 C   0  0  0  0  0  0  0  0  0  0  0  0
   -4.5208    3.6500    0.0000 C   0  0  0  0  0  0  0  0  0  0  0  0
   -1.9833    0.2708    0.0000 C   0  0  0  0  0  0  0  0  0  0  0  0
    4.9167   -4.7542    0.0000 C   0  0  0  0  0  0  0  0  0  0  0  0
   -4.3333    1.9250    0.0000 C   0  0  0  0  0  0  0  0  0  0  0  0
   -4.9250    2.7333    0.0000 C   0  0  0  0  0  0  0  0  0  0  0  0
  1  2  1  0
  1  3  1  0
  2  4  1  0
  1  5  2  0
  3  6  1  0
  5  7  1  0
  8 10  1  0
  3  9  2  0
 10 11  1  0
  6 11  1  0
  2 12  1  0
  8 13  1  0
  9 14  1  0
 15 16  1  0
 16 20  1  0
  8 17  2  0
 15 18  2  0
 13 19  1  0
 20 27  2  0
  6 21  1  0
  5 22  1  0
 23 29  1  0
 19 24  1  0
 19 25  2  0
 24 26  2  0
 25 27  1  0
  7 28  1  0
 21 29  1  0
 15 30  1  0
 22 31  1  0
 31 32  1  0
  4  7  2  0
 12 14  2  0
 28 32  1  0
 10 23  1  0
 20 26  1  0
M  END
>  <MOLFORMULA>  (277) 
C24 H28 N6 O2

>  <MOLWEIGHT>  (277) 
4.325252000000000e+002

>  <IDNUMBER>  (277) 
AT-687/PE21872

>  <PRICE>  (277) 
EUR 80/10 mg

>  <Similarity score>  (277) 
0.21

$$$$

     RDKit          2D

 29 34  0  0  0  0  0  0  0  0999 V2000
    0.7083   -1.9500    0.0000 N   0  0  0  0  0  0  0  0  0  0  0  0
    0.3000   -1.0375    0.0000 C   0  0  0  0  0  0  0  0  0  0  0  0
    1.7000   -1.8458    0.0000 C   0  0  0  0  0  0  0  0  0  0  0  0
   -0.0792    2.0250    0.0000 C   0  0  0  0  0  0  0  0  0  0  0  0
    1.0458   -0.3708    0.0000 C   0  0  0  0  0  0  0  0  0  0  0  0
    1.9083   -0.8708    0.0000 C   0  0  0  0  0  0  0  0  0  0  0  0
    0.7292    2.6125    0.0000 C   0  0  0  0  0  0  0  0  0  0  0  0
    0.9375    0.6250    0.0000 N   0  0  0  0  0  0  0  0  0  0  0  0
   -0.8875    2.6125    0.0000 N   0  0  0  0  0  0  0  0  0  0  0  0
    0.2083   -2.8167    0.0000 C   0  0  0  0  0  0  0  0  0  0  0  0
    0.4208    3.5667    0.0000 C   0  0  0  0  0  0  0  0  0  0  0  0
   -0.5792    3.5667    0.0000 C   0  0  0  0  0  0  0  0  0  0  0  0
    0.0250    1.0333    0.0000 C   0  0  0  0  0  0  0  0  0  0  0  0
   -0.7917   -2.8167    0.0000 C   0  0  0  0  0  0  0  0  0  0  0  0
   -1.2917   -3.6833    0.0000 C   0  0  0  0  0  0  0  0  0  0  0  0
    1.6458    2.2083    0.0000 C   0  0  0  0  0  0  0  0  0  0  0  0
   -0.6792   -0.8292    0.0000 O   0  0  0  0  0  0  0  0  0  0  0  0
    1.7500    1.2125    0.0000 C   0  0  0  0  0  0  0  0  0  0  0  0
    2.3708   -2.5917    0.0000 O   0  0  0  0  0  0  0  0  0  0  0  0
   -0.7917   -4.5500    0.0000 C   0  0  0  0  0  0  0  0  0  0  0  0
   -2.2708   -3.8917    0.0000 O   0  0  0  0  0  0  0  0  0  0  0  0
   -1.4625   -5.2917    0.0000 O   0  0  0  0  0  0  0  0  0  0  0  0
    0.7083   -3.6833    0.0000 C   0  0  0  0  0  0  0  0  0  0  0  0
   -2.3750   -4.8875    0.0000 C   0  0  0  0  0  0  0  0  0  0  0  0
    0.2083   -4.5500    0.0000 C   0  0  0  0  0  0  0  0  0  0  0  0
    0.9208    4.4250    0.0000 C   0  0  0  0  0  0  0  0  0  0  0  0
   -1.0792    4.4250    0.0000 C   0  0  0  0  0  0  0  0  0  0  0  0
    0.4208    5.2917    0.0000 C   0  0  0  0  0  0  0  0  0  0  0  0
   -0.5792    5.2917    0.0000 C   0  0  0  0  0  0  0  0  0  0  0  0
  1  2  1  0
  1  3  1  0
  4 13  1  0
  2  5  1  0
  3  6  1  0
  7 16  1  0
  5  8  1  0
  4  9  1  0
  1 10  1  0
  7 11  1  0
  9 12  1  0
  8 13  1  0
 10 14  2  0
 14 15  1  0
 16 18  1  0
  2 17  2  0
  8 18  1  0
  3 19  2  0
 20 25  1  0
 15 21  1  0
 20 22  1  0
 10 23  1  0
 21 24  1  0
 23 25  2  0
 11 26  2  0
 12 27  2  0
 26 28  1  0
 27 29  1  0
  5  6  1  0
 15 20  2  0
 22 24  1  0
  4  7  2  0
 11 12  1  0
 28 29  2  0
M  END
>  <MOLFORMULA>  (278) 
C22 H19 N3 O4

>  <MOLWEIGHT>  (278) 
3.894091000000000e+002

>  <IDNUMBER>  (278) 
AN-153/NB21437

>  <PRICE>  (278) 
EUR 130/10 mg

>  <Similarity score>  (278) 
0.21

$$$$

     RDKit          2D

 27 30  0  0  0  0  0  0  0  0999 V2000
    1.8250   -2.4750    0.0000 C   0  0  0  0  0  0  0  0  0  0  0  0
    2.5292   -2.8917    0.0000 C   0  0  0  0  0  0  0  0  0  0  0  0
    1.8292   -1.6500    0.0000 N   0  0  0  0  0  0  0  0  0  0  0  0
    1.1292    1.2375    0.0000 C   0  0  0  0  0  0  0  0  0  0  0  0
    1.1125   -2.8875    0.0000 N   0  0  0  0  0  0  0  0  0  0  0  0
    1.1292    2.0625    0.0000 C   0  0  0  0  0  0  0  0  0  0  0  0
    1.8417    0.8250    0.0000 N   0  0  0  0  0  0  0  0  0  0  0  0
    2.5292   -3.7250    0.0000 C   0  0  0  0  0  0  0  0  0  0  0  0
    1.8542    3.3000    0.0000 C   0  0  0  0  0  0  0  0  0  0  0  0
    1.8542    2.4750    0.0000 C   0  0  0  0  0  0  0  0  0  0  0  0
    1.8125   -4.1250    0.0000 N   0  0  0  0  0  0  0  0  0  0  0  0
    1.1042   -3.7125    0.0000 C   0  0  0  0  0  0  0  0  0  0  0  0
    1.1167   -1.2375    0.0000 C   0  0  0  0  0  0  0  0  0  0  0  0
    2.5500   -1.2500    0.0000 C   0  0  0  0  0  0  0  0  0  0  0  0
    1.1292    3.6958    0.0000 C   0  0  0  0  0  0  0  0  0  0  0  0
    0.4125    0.8250    0.0000 O   0  0  0  0  0  0  0  0  0  0  0  0
    0.4250    2.4750    0.0000 C   0  0  0  0  0  0  0  0  0  0  0  0
    0.4250    3.3000    0.0000 C   0  0  0  0  0  0  0  0  0  0  0  0
    1.8292   -0.0000    0.0000 C   0  0  0  0  0  0  0  0  0  0  0  0
    2.5500   -0.4167    0.0000 C   0  0  0  0  0  0  0  0  0  0  0  0
    1.1167   -0.4125    0.0000 C   0  0  0  0  0  0  0  0  0  0  0  0
    2.5625    3.6958    0.0000 F   0  0  0  0  0  0  0  0  0  0  0  0
    1.1292    4.5167    0.0000 F   0  0  0  0  0  0  0  0  0  0  0  0
    3.2542   -2.4917    0.0000 C   0  0  0  0  0  0  0  0  0  0  0  0
    3.2375   -4.1292    0.0000 C   0  0  0  0  0  0  0  0  0  0  0  0
    3.9667   -2.9042    0.0000 C   0  0  0  0  0  0  0  0  0  0  0  0
    3.9542   -3.7375    0.0000 C   0  0  0  0  0  0  0  0  0  0  0  0
  1  2  1  0
  1  3  1  0
  4  7  1  0
  1  5  2  0
  4  6  1  0
  7 19  1  0
  2  8  2  0
  9 10  1  0
  6 10  2  0
 11 12  2  0
  5 12  1  0
  3 13  1  0
  3 14  1  0
 15 18  1  0
  4 16  2  0
  6 17  1  0
 17 18  2  0
 19 20  1  0
 14 20  1  0
 13 21  1  0
  9 22  1  0
 15 23  1  0
  2 24  1  0
  8 25  1  0
 24 26  1  0
 26 27  1  0
  8 11  1  0
 19 21  1  0
 25 27  1  0
  9 15  2  0
M  END
>  <MOLFORMULA>  (279) 
C20 H22 F2 N4 O

>  <MOLWEIGHT>  (279) 
3.724168000000000e+002

>  <IDNUMBER>  (279) 
AT-687/SK01629

>  <PRICE>  (279) 
EUR 80/10 mg

>  <Similarity score>  (279) 
0.21

$$$$

     RDKit          2D

 33 37  0  0  0  0  0  0  0  0999 V2000
    7.0042    0.1833    0.0000 C   0  0  0  0  0  0  0  0  0  0  0  0
    8.3375    0.1833    0.0000 N   0  0  0  0  0  0  0  0  0  0  0  0
    8.0792   -0.6167    0.0000 N   0  0  0  0  0  0  0  0  0  0  0  0
    7.6667    0.6625    0.0000 N   0  0  0  0  0  0  0  0  0  0  0  0
    7.2542   -0.6167    0.0000 C   0  0  0  0  0  0  0  0  0  0  0  0
    2.4667    0.9333    0.0000 C   0  0  0  0  0  0  0  0  0  0  0  0
    1.8542    0.3833    0.0000 C   0  0  0  0  0  0  0  0  0  0  0  0
    6.2167    0.4333    0.0000 C   0  0  0  0  0  0  0  0  0  0  0  0
    2.3042    1.7458    0.0000 N   0  0  0  0  0  0  0  0  0  0  0  0
    3.2542    0.6708    0.0000 N   0  0  0  0  0  0  0  0  0  0  0  0
    0.9042    1.4458    0.0000 N   0  0  0  0  0  0  0  0  0  0  0  0
    1.0667    0.6458    0.0000 C   0  0  0  0  0  0  0  0  0  0  0  0
    1.5250    2.0083    0.0000 C   0  0  0  0  0  0  0  0  0  0  0  0
    5.6042   -0.1042    0.0000 N   0  0  0  0  0  0  0  0  0  0  0  0
    8.5667   -1.2750    0.0000 C   0  0  0  0  0  0  0  0  0  0  0  0
    6.0417    1.2458    0.0000 O   0  0  0  0  0  0  0  0  0  0  0  0
    3.4167   -0.1375    0.0000 C   0  0  0  0  0  0  0  0  0  0  0  0
    3.8750    1.2208    0.0000 C   0  0  0  0  0  0  0  0  0  0  0  0
    4.8250    0.1458    0.0000 C   0  0  0  0  0  0  0  0  0  0  0  0
    4.2042   -0.3917    0.0000 C   0  0  0  0  0  0  0  0  0  0  0  0
    4.6500    0.9583    0.0000 C   0  0  0  0  0  0  0  0  0  0  0  0
    8.2292   -2.0292    0.0000 C   0  0  0  0  0  0  0  0  0  0  0  0
    9.3875   -1.1917    0.0000 C   0  0  0  0  0  0  0  0  0  0  0  0
    6.7667   -1.2750    0.0000 C   0  0  0  0  0  0  0  0  0  0  0  0
    9.5417   -2.6042    0.0000 C   0  0  0  0  0  0  0  0  0  0  0  0
    2.0042   -0.4292    0.0000 C   0  0  0  0  0  0  0  0  0  0  0  0
    8.7167   -2.7000    0.0000 C   0  0  0  0  0  0  0  0  0  0  0  0
    9.8750   -1.8542    0.0000 C   0  0  0  0  0  0  0  0  0  0  0  0
   10.0292   -3.2750    0.0000 F   0  0  0  0  0  0  0  0  0  0  0  0
    0.4500    0.1083    0.0000 C   0  0  0  0  0  0  0  0  0  0  0  0
    1.3542    2.8083    0.0000 C   0  0  0  0  0  0  0  0  0  0  0  0
    1.3917   -0.9667    0.0000 C   0  0  0  0  0  0  0  0  0  0  0  0
    0.6167   -0.7042    0.0000 C   0  0  0  0  0  0  0  0  0  0  0  0
  2  4  2  0
  3  5  1  0
  1  4  1  0
  1  5  2  0
  6 10  1  0
  6  7  1  0
  1  8  1  0
  6  9  2  0
 10 18  1  0
 11 13  2  0
  7 12  2  0
  9 13  1  0
  8 14  1  0
  3 15  1  0
  8 16  2  0
 17 20  1  0
 18 21  1  0
 14 19  1  0
 19 20  1  0
 19 21  1  0
 15 22  1  0
 15 23  2  0
  5 24  1  0
 25 28  2  0
  7 26  1  0
 22 27  2  0
 23 28  1  0
 25 29  1  0
 12 30  1  0
 13 31  1  0
 26 32  1  0
 32 33  1  0
  2  3  1  0
 10 17  1  0
 25 27  1  0
 11 12  1  0
 30 33  1  0
M  END
>  <MOLFORMULA>  (280) 
C24 H28 F N7 O

>  <MOLWEIGHT>  (280) 
4.495312000000000e+002

>  <IDNUMBER>  (280) 
AT-687/SK01649

>  <PRICE>  (280) 
EUR 80/10 mg

>  <Similarity score>  (280) 
0.21

$$$$

     RDKit          2D

 28 31  0  0  0  0  0  0  0  0999 V2000
    1.8417   -0.1917    0.0000 C   0  0  0  0  0  0  0  0  0  0  0  0
    1.8417    0.6333    0.0000 C   0  0  0  0  0  0  0  0  0  0  0  0
    2.5667   -0.6042    0.0000 N   0  0  0  0  0  0  0  0  0  0  0  0
    7.1375   -1.4167    0.0000 C   0  0  0  0  0  0  0  0  0  0  0  0
    1.1292   -0.6042    0.0000 N   0  0  0  0  0  0  0  0  0  0  0  0
    5.4167   -1.4167    0.0000 C   0  0  0  0  0  0  0  0  0  0  0  0
    1.1250    1.0458    0.0000 C   0  0  0  0  0  0  0  0  0  0  0  0
    6.2875   -1.9167    0.0000 C   0  0  0  0  0  0  0  0  0  0  0  0
    0.4167    0.6208    0.0000 N   0  0  0  0  0  0  0  0  0  0  0  0
    0.4250   -0.2042    0.0000 C   0  0  0  0  0  0  0  0  0  0  0  0
    4.7042   -1.8292    0.0000 N   0  0  0  0  0  0  0  0  0  0  0  0
    7.8542   -1.8250    0.0000 C   0  0  0  0  0  0  0  0  0  0  0  0
    7.1292   -0.5917    0.0000 C   0  0  0  0  0  0  0  0  0  0  0  0
    2.5667   -1.4292    0.0000 C   0  0  0  0  0  0  0  0  0  0  0  0
    3.2750   -0.1792    0.0000 C   0  0  0  0  0  0  0  0  0  0  0  0
    5.4167   -0.5917    0.0000 O   0  0  0  0  0  0  0  0  0  0  0  0
    3.9917   -0.5917    0.0000 C   0  0  0  0  0  0  0  0  0  0  0  0
    3.2750   -1.8292    0.0000 C   0  0  0  0  0  0  0  0  0  0  0  0
    3.9917   -1.4167    0.0000 C   0  0  0  0  0  0  0  0  0  0  0  0
    6.4250   -0.1792    0.0000 Cl  0  0  0  0  0  0  0  0  0  0  0  0
    7.8542   -2.6500    0.0000 F   0  0  0  0  0  0  0  0  0  0  0  0
    2.5542    1.0583    0.0000 C   0  0  0  0  0  0  0  0  0  0  0  0
    8.5542   -0.5875    0.0000 C   0  0  0  0  0  0  0  0  0  0  0  0
    7.8417   -0.1750    0.0000 C   0  0  0  0  0  0  0  0  0  0  0  0
    8.5667   -1.4125    0.0000 C   0  0  0  0  0  0  0  0  0  0  0  0
    1.1167    1.8625    0.0000 C   0  0  0  0  0  0  0  0  0  0  0  0
    2.5417    1.8833    0.0000 C   0  0  0  0  0  0  0  0  0  0  0  0
    1.8250    2.2958    0.0000 C   0  0  0  0  0  0  0  0  0  0  0  0
  1  2  1  0
  1  3  1  0
  4  8  1  0
  1  5  2  0
  6 11  1  0
  2  7  2  0
  6  8  1  0
  9 10  2  0
  5 10  1  0
 11 19  1  0
  4 12  2  0
  4 13  1  0
  3 14  1  0
  3 15  1  0
  6 16  2  0
 15 17  1  0
 14 18  1  0
 17 19  1  0
 13 20  1  0
 12 21  1  0
  2 22  1  0
 23 24  1  0
 13 24  2  0
 12 25  1  0
  7 26  1  0
 22 27  1  0
 27 28  1  0
  7  9  1  0
 18 19  1  0
 26 28  1  0
 23 25  2  0
M  END
>  <MOLFORMULA>  (281) 
C21 H24 Cl F N4 O

>  <MOLWEIGHT>  (281) 
4.028986000000000e+002

>  <IDNUMBER>  (281) 
AT-687/SK01643

>  <PRICE>  (281) 
EUR 80/10 mg

>  <Similarity score>  (281) 
0.21

$$$$

     RDKit          2D

 25 28  0  0  0  0  0  0  0  0999 V2000
    5.8792    0.2208    0.0000 C   0  0  0  0  0  0  0  0  0  0  0  0
    6.0500    1.0208    0.0000 C   0  0  0  0  0  0  0  0  0  0  0  0
    6.5000   -0.3292    0.0000 N   0  0  0  0  0  0  0  0  0  0  0  0
    5.0917   -0.0292    0.0000 N   0  0  0  0  0  0  0  0  0  0  0  0
    7.4417    0.7333    0.0000 N   0  0  0  0  0  0  0  0  0  0  0  0
    2.5792   -1.6125    0.0000 C   0  0  0  0  0  0  0  0  0  0  0  0
    6.8417    1.2833    0.0000 C   0  0  0  0  0  0  0  0  0  0  0  0
    1.8000   -1.8750    0.0000 C   0  0  0  0  0  0  0  0  0  0  0  0
    7.2750   -0.0750    0.0000 C   0  0  0  0  0  0  0  0  0  0  0  0
    2.7542   -0.8042    0.0000 N   0  0  0  0  0  0  0  0  0  0  0  0
    1.5417   -2.6542    0.0000 N   0  0  0  0  0  0  0  0  0  0  0  0
    4.9250   -0.8417    0.0000 C   0  0  0  0  0  0  0  0  0  0  0  0
    4.4917    0.5083    0.0000 C   0  0  0  0  0  0  0  0  0  0  0  0
    1.1292   -1.3917    0.0000 C   0  0  0  0  0  0  0  0  0  0  0  0
    3.2000   -2.1625    0.0000 O   0  0  0  0  0  0  0  0  0  0  0  0
    0.7167   -2.6542    0.0000 C   0  0  0  0  0  0  0  0  0  0  0  0
    0.4667   -1.8750    0.0000 C   0  0  0  0  0  0  0  0  0  0  0  0
    3.5375   -0.5542    0.0000 C   0  0  0  0  0  0  0  0  0  0  0  0
    3.7000    0.2583    0.0000 C   0  0  0  0  0  0  0  0  0  0  0  0
    4.1500   -1.1042    0.0000 C   0  0  0  0  0  0  0  0  0  0  0  0
    5.4417    1.5833    0.0000 C   0  0  0  0  0  0  0  0  0  0  0  0
    7.0042    2.0833    0.0000 C   0  0  0  0  0  0  0  0  0  0  0  0
    7.8917   -0.6292    0.0000 C   0  0  0  0  0  0  0  0  0  0  0  0
    5.6167    2.3958    0.0000 C   0  0  0  0  0  0  0  0  0  0  0  0
    6.4042    2.6458    0.0000 C   0  0  0  0  0  0  0  0  0  0  0  0
  1  2  1  0
  1  3  2  0
  1  4  1  0
  5  9  2  0
  6 10  1  0
  2  7  2  0
  6  8  1  0
  3  9  1  0
 10 18  1  0
  8 11  1  0
  4 12  1  0
  4 13  1  0
  8 14  2  0
  6 15  2  0
 11 16  1  0
 14 17  1  0
 18 19  1  0
 13 19  1  0
 12 20  1  0
  2 21  1  0
  7 22  1  0
  9 23  1  0
 21 24  1  0
 24 25  1  0
  5  7  1  0
 18 20  1  0
 22 25  1  0
 16 17  2  0
M  END
>  <MOLFORMULA>  (282) 
C19 H25 N5 O

>  <MOLWEIGHT>  (282) 
3.394405000000000e+002

>  <IDNUMBER>  (282) 
AT-687/SK01692

>  <PRICE>  (282) 
EUR 80/10 mg

>  <Similarity score>  (282) 
0.21

$$$$

     RDKit          2D

 32 36  0  0  0  0  0  0  0  0999 V2000
    7.0042   -0.9250    0.0000 C   0  0  0  0  0  0  0  0  0  0  0  0
    2.4750   -0.1750    0.0000 C   0  0  0  0  0  0  0  0  0  0  0  0
    7.6667   -0.4417    0.0000 C   0  0  0  0  0  0  0  0  0  0  0  0
    1.8542   -0.7167    0.0000 C   0  0  0  0  0  0  0  0  0  0  0  0
    6.2167   -0.6667    0.0000 C   0  0  0  0  0  0  0  0  0  0  0  0
    2.3042    0.6458    0.0000 N   0  0  0  0  0  0  0  0  0  0  0  0
    3.2542   -0.4292    0.0000 N   0  0  0  0  0  0  0  0  0  0  0  0
    0.9042    0.3583    0.0000 N   0  0  0  0  0  0  0  0  0  0  0  0
    8.3375   -0.9250    0.0000 N   0  0  0  0  0  0  0  0  0  0  0  0
    1.0667   -0.4542    0.0000 C   0  0  0  0  0  0  0  0  0  0  0  0
    1.5250    0.8958    0.0000 C   0  0  0  0  0  0  0  0  0  0  0  0
    8.0792   -1.7167    0.0000 N   0  0  0  0  0  0  0  0  0  0  0  0
    7.6667    0.3833    0.0000 C   0  0  0  0  0  0  0  0  0  0  0  0
    5.6042   -1.2167    0.0000 N   0  0  0  0  0  0  0  0  0  0  0  0
    7.2542   -1.7167    0.0000 C   0  0  0  0  0  0  0  0  0  0  0  0
    6.0500    0.1458    0.0000 O   0  0  0  0  0  0  0  0  0  0  0  0
    3.4167   -1.2375    0.0000 C   0  0  0  0  0  0  0  0  0  0  0  0
    3.8750    0.1125    0.0000 C   0  0  0  0  0  0  0  0  0  0  0  0
    8.3875    0.7958    0.0000 C   0  0  0  0  0  0  0  0  0  0  0  0
    4.8250   -0.9542    0.0000 C   0  0  0  0  0  0  0  0  0  0  0  0
    4.2042   -1.5042    0.0000 C   0  0  0  0  0  0  0  0  0  0  0  0
    4.6542   -0.1417    0.0000 C   0  0  0  0  0  0  0  0  0  0  0  0
    2.0042   -1.5292    0.0000 C   0  0  0  0  0  0  0  0  0  0  0  0
    8.3875    1.6208    0.0000 C   0  0  0  0  0  0  0  0  0  0  0  0
    6.9542    0.7958    0.0000 C   0  0  0  0  0  0  0  0  0  0  0  0
    0.4500   -1.0000    0.0000 C   0  0  0  0  0  0  0  0  0  0  0  0
    1.3542    1.7000    0.0000 C   0  0  0  0  0  0  0  0  0  0  0  0
    6.9625    1.6208    0.0000 C   0  0  0  0  0  0  0  0  0  0  0  0
    7.6667    2.0333    0.0000 C   0  0  0  0  0  0  0  0  0  0  0  0
    9.0917    2.0333    0.0000 C   0  0  0  0  0  0  0  0  0  0  0  0
    1.3917   -2.0750    0.0000 C   0  0  0  0  0  0  0  0  0  0  0  0
    0.6167   -1.8042    0.0000 C   0  0  0  0  0  0  0  0  0  0  0  0
  2  7  1  0
  1  3  1  0
  2  4  1  0
  1  5  1  0
  2  6  2  0
  7 18  1  0
  8 11  2  0
  3  9  2  0
  4 10  2  0
  6 11  1  0
 12 15  1  0
  3 13  1  0
  5 14  1  0
  1 15  2  0
  5 16  2  0
 17 21  1  0
 18 22  1  0
 13 19  2  0
 14 20  1  0
 20 21  1  0
 20 22  1  0
  4 23  1  0
 19 24  1  0
 13 25  1  0
 10 26  1  0
 11 27  1  0
 25 28  2  0
 28 29  1  0
 24 30  1  0
 23 31  1  0
 31 32  1  0
  9 12  1  0
  7 17  1  0
 24 29  2  0
  8 10  1  0
 26 32  1  0
M  END
>  <MOLFORMULA>  (283) 
C25 H30 N6 O

>  <MOLWEIGHT>  (283) 
4.305530000000000e+002

>  <IDNUMBER>  (283) 
AT-687/SK01648

>  <PRICE>  (283) 
EUR 80/10 mg

>  <Similarity score>  (283) 
0.21

$$$$

     RDKit          2D

 30 35  0  0  0  0  0  0  0  0999 V2000
    0.7083   -2.3833    0.0000 N   0  0  0  0  0  0  0  0  0  0  0  0
    0.3000   -1.4708    0.0000 C   0  0  0  0  0  0  0  0  0  0  0  0
    1.7000   -2.2792    0.0000 C   0  0  0  0  0  0  0  0  0  0  0  0
   -0.0792    1.5917    0.0000 C   0  0  0  0  0  0  0  0  0  0  0  0
    1.0417   -0.8042    0.0000 C   0  0  0  0  0  0  0  0  0  0  0  0
    0.7292    2.1833    0.0000 C   0  0  0  0  0  0  0  0  0  0  0  0
    1.9083   -1.3042    0.0000 C   0  0  0  0  0  0  0  0  0  0  0  0
    0.9375    0.1917    0.0000 N   0  0  0  0  0  0  0  0  0  0  0  0
   -0.8875    2.1833    0.0000 N   0  0  0  0  0  0  0  0  0  0  0  0
    0.2083   -3.2500    0.0000 C   0  0  0  0  0  0  0  0  0  0  0  0
    0.4208    3.1333    0.0000 C   0  0  0  0  0  0  0  0  0  0  0  0
   -0.5792    3.1333    0.0000 C   0  0  0  0  0  0  0  0  0  0  0  0
    0.0250    0.6000    0.0000 C   0  0  0  0  0  0  0  0  0  0  0  0
   -0.7917   -3.2500    0.0000 C   0  0  0  0  0  0  0  0  0  0  0  0
   -1.2917   -4.1167    0.0000 C   0  0  0  0  0  0  0  0  0  0  0  0
    1.6417    1.7750    0.0000 C   0  0  0  0  0  0  0  0  0  0  0  0
   -0.6792   -1.2625    0.0000 O   0  0  0  0  0  0  0  0  0  0  0  0
    1.7500    0.7792    0.0000 C   0  0  0  0  0  0  0  0  0  0  0  0
    2.3708   -3.0250    0.0000 O   0  0  0  0  0  0  0  0  0  0  0  0
   -0.7917   -4.9833    0.0000 C   0  0  0  0  0  0  0  0  0  0  0  0
   -2.2708   -4.3250    0.0000 O   0  0  0  0  0  0  0  0  0  0  0  0
    0.9208    4.0000    0.0000 C   0  0  0  0  0  0  0  0  0  0  0  0
   -1.4625   -5.7250    0.0000 O   0  0  0  0  0  0  0  0  0  0  0  0
    0.7083   -4.1167    0.0000 C   0  0  0  0  0  0  0  0  0  0  0  0
   -2.3750   -5.3208    0.0000 C   0  0  0  0  0  0  0  0  0  0  0  0
   -1.0792    4.0000    0.0000 C   0  0  0  0  0  0  0  0  0  0  0  0
    0.2083   -4.9833    0.0000 C   0  0  0  0  0  0  0  0  0  0  0  0
    0.4208    4.8583    0.0000 C   0  0  0  0  0  0  0  0  0  0  0  0
   -0.5792    4.8583    0.0000 C   0  0  0  0  0  0  0  0  0  0  0  0
    0.9208    5.7250    0.0000 Cl  0  0  0  0  0  0  0  0  0  0  0  0
  1  2  1  0
  1  3  1  0
  4 13  1  0
  2  5  1  0
  6 16  1  0
  3  7  1  0
  5  8  1  0
  4  9  1  0
  1 10  1  0
  6 11  1  0
  9 12  1  0
  8 13  1  0
 10 14  2  0
 14 15  1  0
 16 18  1  0
  2 17  2  0
  8 18  1  0
  3 19  2  0
 20 27  1  0
 15 21  1  0
 11 22  2  0
 20 23  1  0
 10 24  1  0
 21 25  1  0
 12 26  2  0
 24 27  2  0
 22 28  1  0
 26 29  1  0
 28 30  1  0
  5  7  1  0
 15 20  2  0
 23 25  1  0
  4  6  2  0
 11 12  1  0
 28 29  2  0
M  END
>  <MOLFORMULA>  (284) 
C22 H18 Cl N3 O4

>  <MOLWEIGHT>  (284) 
4.238542000000000e+002

>  <IDNUMBER>  (284) 
AN-153/NB21473

>  <PRICE>  (284) 
EUR 130/10 mg

>  <Similarity score>  (284) 
0.21

$$$$

     RDKit          2D

 23 26  0  0  0  0  0  0  0  0999 V2000
    6.0292   -0.7000    0.0000 C   0  0  0  0  0  0  0  0  0  0  0  0
    6.0292    0.1083    0.0000 C   0  0  0  0  0  0  0  0  0  0  0  0
    5.3458   -1.1042    0.0000 N   0  0  0  0  0  0  0  0  0  0  0  0
    4.6458    0.1000    0.0000 C   0  0  0  0  0  0  0  0  0  0  0  0
    4.6500   -0.7042    0.0000 C   0  0  0  0  0  0  0  0  0  0  0  0
    7.4167   -0.6917    0.0000 N   0  0  0  0  0  0  0  0  0  0  0  0
    6.7250   -1.0917    0.0000 C   0  0  0  0  0  0  0  0  0  0  0  0
    6.7167    0.5125    0.0000 C   0  0  0  0  0  0  0  0  0  0  0  0
    3.9458    0.4958    0.0000 C   0  0  0  0  0  0  0  0  0  0  0  0
    3.9458   -1.1125    0.0000 C   0  0  0  0  0  0  0  0  0  0  0  0
    7.4125    0.1125    0.0000 C   0  0  0  0  0  0  0  0  0  0  0  0
    8.1083   -1.0875    0.0000 C   0  0  0  0  0  0  0  0  0  0  0  0
    3.2542    0.0958    0.0000 C   0  0  0  0  0  0  0  0  0  0  0  0
    3.2542   -0.7125    0.0000 C   0  0  0  0  0  0  0  0  0  0  0  0
    8.1125   -1.8875    0.0000 C   0  0  0  0  0  0  0  0  0  0  0  0
    1.8250    1.7458    0.0000 O   0  0  0  0  0  0  0  0  0  0  0  0
    2.5417    0.5083    0.0000 C   0  0  0  0  0  0  0  0  0  0  0  0
    2.5417    1.3333    0.0000 C   0  0  0  0  0  0  0  0  0  0  0  0
    8.8083   -2.2792    0.0000 C   0  0  0  0  0  0  0  0  0  0  0  0
    7.4208   -2.2875    0.0000 C   0  0  0  0  0  0  0  0  0  0  0  0
    7.4250   -3.0875    0.0000 C   0  0  0  0  0  0  0  0  0  0  0  0
    8.8167   -3.0792    0.0000 C   0  0  0  0  0  0  0  0  0  0  0  0
    8.1208   -3.4875    0.0000 C   0  0  0  0  0  0  0  0  0  0  0  0
  1  2  2  0
  1  3  1  0
  2  4  1  0
  3  5  1  0
  6  7  1  0
  1  7  1  0
  2  8  1  0
  4  9  2  0
  5 10  2  0
  8 11  1  0
  6 12  1  0
  9 13  1  0
 10 14  1  0
 12 15  1  0
 16 18  1  0
 13 17  1  0
 17 18  1  0
 15 19  1  0
 15 20  2  0
 20 21  1  0
 19 22  2  0
 22 23  1  0
  4  5  1  0
  6 11  1  0
 13 14  2  0
 21 23  2  0
M  END
>  <MOLFORMULA>  (285) 
C20 H22 N2 O

>  <MOLWEIGHT>  (285) 
3.064068000000000e+002

>  <IDNUMBER>  (285) 
AT-819/OC11982

>  <PRICE>  (285) 
EUR 192/10 mg

>  <Similarity score>  (285) 
0.21

$$$$

     RDKit          2D

 31 35  0  0  0  0  0  0  0  0999 V2000
    0.3500   -1.0250    0.0000 N   0  0  0  0  0  0  0  0  0  0  0  0
   -0.0583   -0.1125    0.0000 C   0  0  0  0  0  0  0  0  0  0  0  0
    1.3417   -0.9208    0.0000 C   0  0  0  0  0  0  0  0  0  0  0  0
   -0.4375    2.9542    0.0000 C   0  0  0  0  0  0  0  0  0  0  0  0
    0.6875    0.5583    0.0000 C   0  0  0  0  0  0  0  0  0  0  0  0
    1.5500    0.0583    0.0000 C   0  0  0  0  0  0  0  0  0  0  0  0
    0.3708    3.5417    0.0000 C   0  0  0  0  0  0  0  0  0  0  0  0
    0.5792    1.5542    0.0000 N   0  0  0  0  0  0  0  0  0  0  0  0
   -1.2458    3.5417    0.0000 N   0  0  0  0  0  0  0  0  0  0  0  0
    0.0625    4.4875    0.0000 C   0  0  0  0  0  0  0  0  0  0  0  0
   -0.9375    4.4875    0.0000 C   0  0  0  0  0  0  0  0  0  0  0  0
   -0.3333    1.9583    0.0000 C   0  0  0  0  0  0  0  0  0  0  0  0
   -1.1500   -5.3542    0.0000 C   0  0  0  0  0  0  0  0  0  0  0  0
   -0.1500   -1.8917    0.0000 C   0  0  0  0  0  0  0  0  0  0  0  0
    1.2875    3.1333    0.0000 C   0  0  0  0  0  0  0  0  0  0  0  0
   -1.0375    0.0958    0.0000 O   0  0  0  0  0  0  0  0  0  0  0  0
    1.3917    2.1417    0.0000 C   0  0  0  0  0  0  0  0  0  0  0  0
    2.0125   -1.6625    0.0000 O   0  0  0  0  0  0  0  0  0  0  0  0
   -1.6500   -4.4875    0.0000 O   0  0  0  0  0  0  0  0  0  0  0  0
    0.3500   -2.7583    0.0000 C   0  0  0  0  0  0  0  0  0  0  0  0
   -1.1500   -1.8917    0.0000 C   0  0  0  0  0  0  0  0  0  0  0  0
   -0.2833   -4.8542    0.0000 F   0  0  0  0  0  0  0  0  0  0  0  0
   -0.6500   -6.2208    0.0000 F   0  0  0  0  0  0  0  0  0  0  0  0
   -2.0167   -5.8542    0.0000 F   0  0  0  0  0  0  0  0  0  0  0  0
   -1.1500   -3.6208    0.0000 C   0  0  0  0  0  0  0  0  0  0  0  0
   -1.6500   -2.7583    0.0000 C   0  0  0  0  0  0  0  0  0  0  0  0
   -0.1500   -3.6208    0.0000 C   0  0  0  0  0  0  0  0  0  0  0  0
    0.5625    5.3542    0.0000 C   0  0  0  0  0  0  0  0  0  0  0  0
   -1.4375    5.3542    0.0000 C   0  0  0  0  0  0  0  0  0  0  0  0
    0.0625    6.2208    0.0000 C   0  0  0  0  0  0  0  0  0  0  0  0
   -0.9375    6.2208    0.0000 C   0  0  0  0  0  0  0  0  0  0  0  0
  1  2  1  0
  1  3  1  0
  4 12  1  0
  2  5  1  0
  3  6  1  0
  7 15  1  0
  5  8  1  0
  4  9  1  0
  7 10  1  0
  9 11  1  0
  8 12  1  0
 13 19  1  0
  1 14  1  0
 15 17  1  0
  2 16  2  0
  8 17  1  0
  3 18  2  0
 19 25  1  0
 14 20  2  0
 14 21  1  0
 13 22  1  0
 13 23  1  0
 13 24  1  0
 25 26  1  0
 21 26  2  0
 20 27  1  0
 10 28  2  0
 11 29  2  0
 28 30  1  0
 29 31  1  0
  5  6  1  0
 25 27  2  0
  4  7  2  0
 10 11  1  0
 30 31  2  0
M  END
>  <MOLFORMULA>  (286) 
C22 H18 F3 N3 O3

>  <MOLWEIGHT>  (286) 
4.293962000000000e+002

>  <IDNUMBER>  (286) 
AN-153/NB21474

>  <PRICE>  (286) 
EUR 130/10 mg

>  <Similarity score>  (286) 
0.21

$$$$

     RDKit          2D

 31 35  0  0  0  0  0  0  0  0999 V2000
    3.7417   -2.6542    0.0000 N   0  0  0  0  0  0  0  0  0  0  0  0
    4.0000   -1.8750    0.0000 N   0  0  0  0  0  0  0  0  0  0  0  0
    2.6250    3.1458    0.0000 C   0  0  0  0  0  0  0  0  0  0  0  0
    3.3292   -1.3917    0.0000 C   0  0  0  0  0  0  0  0  0  0  0  0
    1.9042    3.5458    0.0000 C   0  0  0  0  0  0  0  0  0  0  0  0
    2.9167   -2.6542    0.0000 N   0  0  0  0  0  0  0  0  0  0  0  0
    3.3375    3.5458    0.0000 N   0  0  0  0  0  0  0  0  0  0  0  0
    3.3292   -0.5667    0.0000 C   0  0  0  0  0  0  0  0  0  0  0  0
    2.6167    2.3208    0.0000 N   0  0  0  0  0  0  0  0  0  0  0  0
    2.6542   -1.8750    0.0000 C   0  0  0  0  0  0  0  0  0  0  0  0
    2.6292    4.7750    0.0000 N   0  0  0  0  0  0  0  0  0  0  0  0
    1.9167    4.3667    0.0000 C   0  0  0  0  0  0  0  0  0  0  0  0
    3.3375    4.3542    0.0000 C   0  0  0  0  0  0  0  0  0  0  0  0
    2.6167   -0.1542    0.0000 N   0  0  0  0  0  0  0  0  0  0  0  0
    4.2250   -3.3292    0.0000 C   0  0  0  0  0  0  0  0  0  0  0  0
    3.3375    1.9000    0.0000 C   0  0  0  0  0  0  0  0  0  0  0  0
    1.9042    1.9083    0.0000 C   0  0  0  0  0  0  0  0  0  0  0  0
    4.0417   -0.1542    0.0000 O   0  0  0  0  0  0  0  0  0  0  0  0
    2.6167    0.6708    0.0000 C   0  0  0  0  0  0  0  0  0  0  0  0
    1.9042    1.0833    0.0000 C   0  0  0  0  0  0  0  0  0  0  0  0
    3.3375    1.0833    0.0000 C   0  0  0  0  0  0  0  0  0  0  0  0
    1.1917    3.1458    0.0000 C   0  0  0  0  0  0  0  0  0  0  0  0
    1.2042    4.7792    0.0000 C   0  0  0  0  0  0  0  0  0  0  0  0
    4.0625    4.7750    0.0000 C   0  0  0  0  0  0  0  0  0  0  0  0
    3.8917   -4.0792    0.0000 C   0  0  0  0  0  0  0  0  0  0  0  0
    5.0500   -3.2417    0.0000 C   0  0  0  0  0  0  0  0  0  0  0  0
    0.4792    3.5625    0.0000 C   0  0  0  0  0  0  0  0  0  0  0  0
    0.4917    4.3792    0.0000 C   0  0  0  0  0  0  0  0  0  0  0  0
    5.5292   -3.9167    0.0000 C   0  0  0  0  0  0  0  0  0  0  0  0
    4.3792   -4.7500    0.0000 C   0  0  0  0  0  0  0  0  0  0  0  0
    5.1917   -4.6542    0.0000 C   0  0  0  0  0  0  0  0  0  0  0  0
  1  2  1  0
  3  9  1  0
  2  4  2  0
  3  5  1  0
  1  6  1  0
  3  7  2  0
  4  8  1  0
  9 16  1  0
  6 10  2  0
 11 13  2  0
  5 12  2  0
  7 13  1  0
  8 14  1  0
  1 15  1  0
 16 21  1  0
 17 20  1  0
  8 18  2  0
 14 19  1  0
 19 20  1  0
 19 21  1  0
  5 22  1  0
 12 23  1  0
 13 24  1  0
 15 25  2  0
 15 26  1  0
 22 27  1  0
 27 28  1  0
 26 29  2  0
 25 30  1  0
 29 31  1  0
  4 10  1  0
 30 31  2  0
  9 17  1  0
 11 12  1  0
 23 28  1  0
M  END
>  <MOLFORMULA>  (287) 
C23 H27 N7 O

>  <MOLWEIGHT>  (287) 
4.175143000000000e+002

>  <IDNUMBER>  (287) 
AT-687/SK01651

>  <PRICE>  (287) 
EUR 80/10 mg

>  <Similarity score>  (287) 
0.21

$$$$

     RDKit          2D

 33 37  0  0  0  0  0  0  0  0999 V2000
    4.7125    1.3000    0.0000 C   0  0  0  0  0  0  0  0  0  0  0  0
    2.6125   -2.7792    0.0000 C   0  0  0  0  0  0  0  0  0  0  0  0
    2.9417   -3.5375    0.0000 C   0  0  0  0  0  0  0  0  0  0  0  0
    4.4542    2.0958    0.0000 C   0  0  0  0  0  0  0  0  0  0  0  0
    5.1250    2.5708    0.0000 C   0  0  0  0  0  0  0  0  0  0  0  0
    5.7917    2.0958    0.0000 N   0  0  0  0  0  0  0  0  0  0  0  0
    1.7917   -2.6917    0.0000 N   0  0  0  0  0  0  0  0  0  0  0  0
    5.5375    1.3000    0.0000 N   0  0  0  0  0  0  0  0  0  0  0  0
    4.2250    0.6333    0.0000 C   0  0  0  0  0  0  0  0  0  0  0  0
    3.1000   -2.1167    0.0000 N   0  0  0  0  0  0  0  0  0  0  0  0
    1.6417   -4.1042    0.0000 N   0  0  0  0  0  0  0  0  0  0  0  0
    2.4542   -4.2042    0.0000 C   0  0  0  0  0  0  0  0  0  0  0  0
    1.3042   -3.3542    0.0000 C   0  0  0  0  0  0  0  0  0  0  0  0
    5.1250    3.3833    0.0000 C   0  0  0  0  0  0  0  0  0  0  0  0
    4.5542   -0.1167    0.0000 N   0  0  0  0  0  0  0  0  0  0  0  0
    2.7625   -1.3542    0.0000 C   0  0  0  0  0  0  0  0  0  0  0  0
    3.9167   -2.2042    0.0000 C   0  0  0  0  0  0  0  0  0  0  0  0
    3.4000    0.7250    0.0000 O   0  0  0  0  0  0  0  0  0  0  0  0
    5.8292    3.7958    0.0000 C   0  0  0  0  0  0  0  0  0  0  0  0
    4.0750   -0.7792    0.0000 C   0  0  0  0  0  0  0  0  0  0  0  0
    4.4042   -1.5375    0.0000 C   0  0  0  0  0  0  0  0  0  0  0  0
    3.2500   -0.7000    0.0000 C   0  0  0  0  0  0  0  0  0  0  0  0
    3.7667   -3.6292    0.0000 C   0  0  0  0  0  0  0  0  0  0  0  0
    6.5542    3.3833    0.0000 O   0  0  0  0  0  0  0  0  0  0  0  0
    4.4125    3.7958    0.0000 C   0  0  0  0  0  0  0  0  0  0  0  0
    2.7792   -4.9542    0.0000 C   0  0  0  0  0  0  0  0  0  0  0  0
    0.4875   -3.2625    0.0000 C   0  0  0  0  0  0  0  0  0  0  0  0
    5.8292    4.6167    0.0000 C   0  0  0  0  0  0  0  0  0  0  0  0
    7.2667    3.7958    0.0000 C   0  0  0  0  0  0  0  0  0  0  0  0
    4.0917   -4.3917    0.0000 C   0  0  0  0  0  0  0  0  0  0  0  0
    4.4125    4.6167    0.0000 C   0  0  0  0  0  0  0  0  0  0  0  0
    3.6000   -5.0500    0.0000 C   0  0  0  0  0  0  0  0  0  0  0  0
    5.1250    5.0292    0.0000 C   0  0  0  0  0  0  0  0  0  0  0  0
  2 10  1  0
  2  3  1  0
  1  4  2  0
  4  5  1  0
  6  8  1  0
  2  7  2  0
  1  8  1  0
  1  9  1  0
 10 16  1  0
 11 13  2  0
  3 12  2  0
  7 13  1  0
  5 14  1  0
  9 15  1  0
 16 22  1  0
 17 21  1  0
  9 18  2  0
 14 19  2  0
 15 20  1  0
 20 21  1  0
 20 22  1  0
  3 23  1  0
 19 24  1  0
 14 25  1  0
 12 26  1  0
 13 27  1  0
 19 28  1  0
 24 29  1  0
 23 30  1  0
 25 31  2  0
 30 32  1  0
 31 33  1  0
  5  6  2  0
 10 17  1  0
 28 33  2  0
 11 12  1  0
 26 32  1  0
M  END
>  <MOLFORMULA>  (288) 
C25 H30 N6 O2

>  <MOLWEIGHT>  (288) 
4.465520000000000e+002

>  <IDNUMBER>  (288) 
AT-687/SK01663

>  <PRICE>  (288) 
EUR 80/10 mg

>  <Similarity score>  (288) 
0.21

$$$$

     RDKit          2D

 27 30  0  0  0  0  0  0  0  0999 V2000
    2.6375    0.4125    0.0000 C   0  0  0  0  0  0  0  0  0  0  0  0
    1.9167    0.0083    0.0000 C   0  0  0  0  0  0  0  0  0  0  0  0
    2.6375    1.2458    0.0000 N   0  0  0  0  0  0  0  0  0  0  0  0
    3.3417   -0.0000    0.0000 N   0  0  0  0  0  0  0  0  0  0  0  0
    8.3375   -1.2292    0.0000 N   0  0  0  0  0  0  0  0  0  0  0  0
    6.1917   -0.8167    0.0000 C   0  0  0  0  0  0  0  0  0  0  0  0
    1.2042    1.2458    0.0000 N   0  0  0  0  0  0  0  0  0  0  0  0
    6.9042   -1.2292    0.0000 C   0  0  0  0  0  0  0  0  0  0  0  0
    1.2000    0.4208    0.0000 C   0  0  0  0  0  0  0  0  0  0  0  0
    1.9167    1.6500    0.0000 C   0  0  0  0  0  0  0  0  0  0  0  0
    5.4875   -1.2292    0.0000 N   0  0  0  0  0  0  0  0  0  0  0  0
    7.6250   -0.8167    0.0000 C   0  0  0  0  0  0  0  0  0  0  0  0
    9.0417   -0.8167    0.0000 O   0  0  0  0  0  0  0  0  0  0  0  0
    3.3417   -0.8167    0.0000 C   0  0  0  0  0  0  0  0  0  0  0  0
    4.0542    0.4125    0.0000 C   0  0  0  0  0  0  0  0  0  0  0  0
    6.1917    0.0083    0.0000 O   0  0  0  0  0  0  0  0  0  0  0  0
    4.7750   -0.8167    0.0000 C   0  0  0  0  0  0  0  0  0  0  0  0
    4.7750    0.0083    0.0000 C   0  0  0  0  0  0  0  0  0  0  0  0
    4.0542   -1.2292    0.0000 C   0  0  0  0  0  0  0  0  0  0  0  0
    8.3375   -2.0542    0.0000 C   0  0  0  0  0  0  0  0  0  0  0  0
    1.9042   -0.8167    0.0000 C   0  0  0  0  0  0  0  0  0  0  0  0
    6.9042   -2.0542    0.0000 C   0  0  0  0  0  0  0  0  0  0  0  0
    0.4917    0.0125    0.0000 C   0  0  0  0  0  0  0  0  0  0  0  0
    7.6250   -2.4667    0.0000 C   0  0  0  0  0  0  0  0  0  0  0  0
    1.9167    2.4750    0.0000 C   0  0  0  0  0  0  0  0  0  0  0  0
    1.1917   -1.2292    0.0000 C   0  0  0  0  0  0  0  0  0  0  0  0
    0.4792   -0.8000    0.0000 C   0  0  0  0  0  0  0  0  0  0  0  0
  1  2  1  0
  1  3  2  0
  1  4  1  0
  5 12  1  0
  6 11  1  0
  7 10  2  0
  6  8  1  0
  2  9  2  0
  3 10  1  0
 11 17  1  0
  8 12  2  0
  5 13  1  0
  4 14  1  0
  4 15  1  0
  6 16  2  0
 17 18  1  0
 15 18  1  0
 14 19  1  0
 20 24  1  0
  2 21  1  0
  8 22  1  0
  9 23  1  0
 22 24  2  0
 10 25  1  0
 21 26  1  0
 26 27  1  0
  7  9  1  0
 17 19  1  0
 23 27  1  0
  5 20  2  0
M  CHG  2   5   1  13  -1
M  END
>  <MOLFORMULA>  (289) 
C20 H25 N5 O2

>  <MOLWEIGHT>  (289) 
3.674505000000000e+002

>  <IDNUMBER>  (289) 
AT-687/SK01666

>  <PRICE>  (289) 
EUR 80/10 mg

>  <Similarity score>  (289) 
0.21

$$$$

     RDKit          2D

 37 43  0  0  0  0  0  0  0  0999 V2000
    2.4917   -0.0750    0.0000 N   0  0  0  0  0  0  0  0  0  0  0  0
    2.4917    0.7583    0.0000 C   0  0  0  0  0  0  0  0  0  0  0  0
    1.7792   -0.4917    0.0000 C   0  0  0  0  0  0  0  0  0  0  0  0
    3.2042    1.1750    0.0000 N   0  0  0  0  0  0  0  0  0  0  0  0
    1.7667    1.1708    0.0000 N   0  0  0  0  0  0  0  0  0  0  0  0
    1.0542   -0.0792    0.0000 C   0  0  0  0  0  0  0  0  0  0  0  0
    1.7667   -3.7875    0.0000 C   0  0  0  0  0  0  0  0  0  0  0  0
    1.7750   -1.3167    0.0000 N   0  0  0  0  0  0  0  0  0  0  0  0
    1.7667   -2.9667    0.0000 N   0  0  0  0  0  0  0  0  0  0  0  0
    1.0542   -4.1917    0.0000 C   0  0  0  0  0  0  0  0  0  0  0  0
    1.7667   -5.4375    0.0000 N   0  0  0  0  0  0  0  0  0  0  0  0
    1.0542    0.7500    0.0000 C   0  0  0  0  0  0  0  0  0  0  0  0
    1.0542   -5.0250    0.0000 C   0  0  0  0  0  0  0  0  0  0  0  0
    3.9250    0.7625    0.0000 C   0  0  0  0  0  0  0  0  0  0  0  0
    2.4792   -4.1917    0.0000 C   0  0  0  0  0  0  0  0  0  0  0  0
    4.6292    1.1750    0.0000 C   0  0  0  0  0  0  0  0  0  0  0  0
    2.4875   -5.0167    0.0000 C   0  0  0  0  0  0  0  0  0  0  0  0
    3.1917    1.9958    0.0000 C   0  0  0  0  0  0  0  0  0  0  0  0
    2.4917   -1.7292    0.0000 C   0  0  0  0  0  0  0  0  0  0  0  0
    1.0542   -1.7292    0.0000 C   0  0  0  0  0  0  0  0  0  0  0  0
    1.0542   -2.5542    0.0000 C   0  0  0  0  0  0  0  0  0  0  0  0
    2.4875   -2.5542    0.0000 C   0  0  0  0  0  0  0  0  0  0  0  0
    4.6292    2.0083    0.0000 C   0  0  0  0  0  0  0  0  0  0  0  0
    3.9125    2.4125    0.0000 C   0  0  0  0  0  0  0  0  0  0  0  0
    0.3375   -0.5000    0.0000 C   0  0  0  0  0  0  0  0  0  0  0  0
    0.3500   -3.7875    0.0000 C   0  0  0  0  0  0  0  0  0  0  0  0
    0.3375    1.1625    0.0000 C   0  0  0  0  0  0  0  0  0  0  0  0
    0.3417   -5.4292    0.0000 C   0  0  0  0  0  0  0  0  0  0  0  0
    5.3417    0.7625    0.0000 C   0  0  0  0  0  0  0  0  0  0  0  0
    3.2000   -5.4292    0.0000 C   0  0  0  0  0  0  0  0  0  0  0  0
    5.3417    2.4208    0.0000 C   0  0  0  0  0  0  0  0  0  0  0  0
   -0.3833   -0.0792    0.0000 C   0  0  0  0  0  0  0  0  0  0  0  0
   -0.3625   -4.1917    0.0000 C   0  0  0  0  0  0  0  0  0  0  0  0
   -0.3833    0.7500    0.0000 C   0  0  0  0  0  0  0  0  0  0  0  0
   -0.3625   -5.0167    0.0000 C   0  0  0  0  0  0  0  0  0  0  0  0
    6.0625    1.1750    0.0000 C   0  0  0  0  0  0  0  0  0  0  0  0
    6.0542    2.0083    0.0000 C   0  0  0  0  0  0  0  0  0  0  0  0
  1  2  1  0
  1  3  2  0
  2  4  1  0
  2  5  2  0
  3  6  1  0
  7  9  1  0
  3  8  1  0
  9 21  1  0
  7 10  2  0
 11 17  1  0
  6 12  1  0
 10 13  1  0
  4 14  1  0
  7 15  1  0
 14 16  1  0
 15 17  2  0
  4 18  1  0
  8 19  1  0
  8 20  1  0
 20 21  1  0
 19 22  1  0
 23 24  1  0
 18 24  1  0
  6 25  2  0
 10 26  1  0
 12 27  2  0
 13 28  1  0
 16 29  1  0
 17 30  1  0
 23 31  1  0
 25 32  1  0
 26 33  2  0
 32 34  2  0
 33 35  1  0
 29 36  2  0
 31 37  2  0
  5 12  1  0
  9 22  1  0
 27 34  1  0
 16 23  2  0
 36 37  1  0
 11 13  2  0
 28 35  2  0
M  END
>  <MOLFORMULA>  (290) 
C31 H30 N6

>  <MOLWEIGHT>  (290) 
4.866200000000000e+002

>  <IDNUMBER>  (290) 
AM-879/J184279

>  <PRICE>  (290) 
EUR 55.00/10 mg

>  <Similarity score>  (290) 
0.21

$$$$

     RDKit          2D

 29 33  0  0  0  0  0  0  0  0999 V2000
    3.3292   -2.1167    0.0000 C   0  0  0  0  0  0  0  0  0  0  0  0
    2.6250    2.4208    0.0000 C   0  0  0  0  0  0  0  0  0  0  0  0
    4.0000   -2.5917    0.0000 N   0  0  0  0  0  0  0  0  0  0  0  0
    1.9042    2.8333    0.0000 C   0  0  0  0  0  0  0  0  0  0  0  0
    3.3292   -1.2917    0.0000 C   0  0  0  0  0  0  0  0  0  0  0  0
    3.3375    2.8333    0.0000 N   0  0  0  0  0  0  0  0  0  0  0  0
    2.6542   -2.5917    0.0000 C   0  0  0  0  0  0  0  0  0  0  0  0
    2.6167    1.5958    0.0000 N   0  0  0  0  0  0  0  0  0  0  0  0
    3.7417   -3.3917    0.0000 N   0  0  0  0  0  0  0  0  0  0  0  0
    2.6292    4.0417    0.0000 N   0  0  0  0  0  0  0  0  0  0  0  0
    1.9167    3.6458    0.0000 C   0  0  0  0  0  0  0  0  0  0  0  0
    3.3375    3.6333    0.0000 C   0  0  0  0  0  0  0  0  0  0  0  0
    2.6167   -0.8792    0.0000 N   0  0  0  0  0  0  0  0  0  0  0  0
    2.9167   -3.3917    0.0000 C   0  0  0  0  0  0  0  0  0  0  0  0
    4.0417   -0.8792    0.0000 O   0  0  0  0  0  0  0  0  0  0  0  0
    1.9042    1.1833    0.0000 C   0  0  0  0  0  0  0  0  0  0  0  0
    3.3375    1.1833    0.0000 C   0  0  0  0  0  0  0  0  0  0  0  0
    2.6167   -0.0542    0.0000 C   0  0  0  0  0  0  0  0  0  0  0  0
    1.9042    0.3583    0.0000 C   0  0  0  0  0  0  0  0  0  0  0  0
    3.3375    0.3583    0.0000 C   0  0  0  0  0  0  0  0  0  0  0  0
    1.1917    2.4208    0.0000 C   0  0  0  0  0  0  0  0  0  0  0  0
    1.8542   -2.4292    0.0000 C   0  0  0  0  0  0  0  0  0  0  0  0
    1.2042    4.0542    0.0000 C   0  0  0  0  0  0  0  0  0  0  0  0
    4.0625    4.0417    0.0000 C   0  0  0  0  0  0  0  0  0  0  0  0
    2.3625   -4.0000    0.0000 C   0  0  0  0  0  0  0  0  0  0  0  0
    0.4792    2.8375    0.0000 C   0  0  0  0  0  0  0  0  0  0  0  0
    1.2917   -3.0375    0.0000 C   0  0  0  0  0  0  0  0  0  0  0  0
    0.4917    3.6583    0.0000 C   0  0  0  0  0  0  0  0  0  0  0  0
    1.5500   -3.8292    0.0000 C   0  0  0  0  0  0  0  0  0  0  0  0
  2  8  1  0
  1  3  2  0
  2  4  1  0
  1  5  1  0
  2  6  2  0
  1  7  1  0
  8 17  1  0
  3  9  1  0
 10 12  2  0
  4 11  2  0
  6 12  1  0
  5 13  1  0
  7 14  2  0
  5 15  2  0
 16 19  1  0
 17 20  1  0
 13 18  1  0
 18 19  1  0
 18 20  1  0
  4 21  1  0
  7 22  1  0
 11 23  1  0
 12 24  1  0
 14 25  1  0
 21 26  1  0
 22 27  2  0
 26 28  1  0
 27 29  1  0
  9 14  1  0
 25 29  2  0
  8 16  1  0
 10 11  1  0
 23 28  1  0
M  END
>  <MOLFORMULA>  (291) 
C22 H26 N6 O

>  <MOLWEIGHT>  (291) 
3.904884000000000e+002

>  <IDNUMBER>  (291) 
AT-687/SK01693

>  <PRICE>  (291) 
EUR 80/10 mg

>  <Similarity score>  (291) 
0.21

$$$$

     RDKit          2D

 28 31  0  0  0  0  0  0  0  0999 V2000
    2.6250    2.3125    0.0000 C   0  0  0  0  0  0  0  0  0  0  0  0
    1.9042    2.7250    0.0000 C   0  0  0  0  0  0  0  0  0  0  0  0
    3.3375    2.7250    0.0000 N   0  0  0  0  0  0  0  0  0  0  0  0
    3.3375   -1.4000    0.0000 C   0  0  0  0  0  0  0  0  0  0  0  0
    2.6250    1.4875    0.0000 N   0  0  0  0  0  0  0  0  0  0  0  0
    3.3375   -2.2250    0.0000 C   0  0  0  0  0  0  0  0  0  0  0  0
    2.6250    3.9458    0.0000 N   0  0  0  0  0  0  0  0  0  0  0  0
    1.9042    3.5458    0.0000 C   0  0  0  0  0  0  0  0  0  0  0  0
    3.3375    3.5333    0.0000 C   0  0  0  0  0  0  0  0  0  0  0  0
    2.6292   -0.9875    0.0000 N   0  0  0  0  0  0  0  0  0  0  0  0
    4.0625   -2.6375    0.0000 C   0  0  0  0  0  0  0  0  0  0  0  0
    4.0542   -0.9875    0.0000 O   0  0  0  0  0  0  0  0  0  0  0  0
    3.3375    1.0750    0.0000 C   0  0  0  0  0  0  0  0  0  0  0  0
    1.9042    1.0750    0.0000 C   0  0  0  0  0  0  0  0  0  0  0  0
    2.6292   -0.1542    0.0000 C   0  0  0  0  0  0  0  0  0  0  0  0
    1.9042    0.2500    0.0000 C   0  0  0  0  0  0  0  0  0  0  0  0
    3.3375    0.2500    0.0000 C   0  0  0  0  0  0  0  0  0  0  0  0
    4.7750   -2.2250    0.0000 S   0  0  0  0  0  0  0  0  0  0  0  0
    1.1917    2.3125    0.0000 C   0  0  0  0  0  0  0  0  0  0  0  0
    2.6292   -2.6375    0.0000 C   0  0  0  0  0  0  0  0  0  0  0  0
    1.2000    3.9583    0.0000 C   0  0  0  0  0  0  0  0  0  0  0  0
    4.0542    3.9458    0.0000 C   0  0  0  0  0  0  0  0  0  0  0  0
    4.0625   -3.4625    0.0000 C   0  0  0  0  0  0  0  0  0  0  0  0
    5.4792   -2.6375    0.0000 C   0  0  0  0  0  0  0  0  0  0  0  0
    0.4792    2.7333    0.0000 C   0  0  0  0  0  0  0  0  0  0  0  0
    2.6292   -3.4625    0.0000 C   0  0  0  0  0  0  0  0  0  0  0  0
    0.4875    3.5500    0.0000 C   0  0  0  0  0  0  0  0  0  0  0  0
    3.3375   -3.8750    0.0000 C   0  0  0  0  0  0  0  0  0  0  0  0
  1  2  1  0
  1  3  2  0
  4 10  1  0
  1  5  1  0
  4  6  1  0
  7  9  2  0
  2  8  2  0
  3  9  1  0
 10 15  1  0
  6 11  2  0
  4 12  2  0
  5 13  1  0
  5 14  1  0
 15 16  1  0
 14 16  1  0
 13 17  1  0
 11 18  1  0
  2 19  1  0
  6 20  1  0
  8 21  1  0
  9 22  1  0
 11 23  1  0
 18 24  1  0
 19 25  1  0
 20 26  2  0
 25 27  1  0
 26 28  1  0
  7  8  1  0
 15 17  1  0
 21 27  1  0
 23 28  2  0
M  END
>  <MOLFORMULA>  (292) 
C22 H28 N4 O S

>  <MOLWEIGHT>  (292) 
3.965562000000000e+002

>  <IDNUMBER>  (292) 
AT-687/SK01657

>  <PRICE>  (292) 
EUR 80/10 mg

>  <Similarity score>  (292) 
0.21

$$$$

     RDKit          2D

 25 27  0  0  0  0  0  0  0  0999 V2000
    5.4167    1.4708    0.0000 C   0  0  0  0  0  0  0  0  0  0  0  0
    5.4167    2.2958    0.0000 C   0  0  0  0  0  0  0  0  0  0  0  0
    6.1292    1.0583    0.0000 N   0  0  0  0  0  0  0  0  0  0  0  0
    4.7042    1.0583    0.0000 N   0  0  0  0  0  0  0  0  0  0  0  0
    6.8417    2.2958    0.0000 N   0  0  0  0  0  0  0  0  0  0  0  0
    6.1292    2.7083    0.0000 C   0  0  0  0  0  0  0  0  0  0  0  0
    6.8417    1.4708    0.0000 C   0  0  0  0  0  0  0  0  0  0  0  0
    2.5625   -1.0000    0.0000 C   0  0  0  0  0  0  0  0  0  0  0  0
    2.5667   -0.1750    0.0000 N   0  0  0  0  0  0  0  0  0  0  0  0
    3.9917    1.4708    0.0000 C   0  0  0  0  0  0  0  0  0  0  0  0
    4.7042    0.2375    0.0000 C   0  0  0  0  0  0  0  0  0  0  0  0
    3.2750   -1.4167    0.0000 O   0  0  0  0  0  0  0  0  0  0  0  0
    3.9917   -0.1750    0.0000 C   0  0  0  0  0  0  0  0  0  0  0  0
    3.2750    1.0583    0.0000 C   0  0  0  0  0  0  0  0  0  0  0  0
    1.8542   -1.4125    0.0000 N   0  0  0  0  0  0  0  0  0  0  0  0
    3.2750    0.2375    0.0000 C   0  0  0  0  0  0  0  0  0  0  0  0
    4.7042    2.7250    0.0000 C   0  0  0  0  0  0  0  0  0  0  0  0
    6.1417    3.5333    0.0000 C   0  0  0  0  0  0  0  0  0  0  0  0
    7.5625    1.0583    0.0000 C   0  0  0  0  0  0  0  0  0  0  0  0
    1.1292   -3.4750    0.0000 O   0  0  0  0  0  0  0  0  0  0  0  0
    1.8542   -2.2375    0.0000 C   0  0  0  0  0  0  0  0  0  0  0  0
    1.1375   -2.6500    0.0000 C   0  0  0  0  0  0  0  0  0  0  0  0
    0.4250   -3.8875    0.0000 C   0  0  0  0  0  0  0  0  0  0  0  0
    4.7125    3.5333    0.0000 C   0  0  0  0  0  0  0  0  0  0  0  0
    5.4292    3.9375    0.0000 C   0  0  0  0  0  0  0  0  0  0  0  0
  1  2  1  0
  1  3  2  0
  1  4  1  0
  5  7  2  0
  2  6  2  0
  3  7  1  0
  8  9  1  0
  9 16  1  0
  4 10  1  0
  4 11  1  0
  8 12  2  0
 11 13  1  0
 10 14  1  0
  8 15  1  0
 13 16  1  0
  2 17  1  0
  6 18  1  0
  7 19  1  0
 20 22  1  0
 15 21  1  0
 21 22  1  0
 20 23  1  0
 17 24  1  0
 24 25  1  0
  5  6  1  0
 14 16  1  0
 18 25  1  0
M  END
>  <MOLFORMULA>  (293) 
C18 H29 N5 O2

>  <MOLWEIGHT>  (293) 
3.474601000000000e+002

>  <IDNUMBER>  (293) 
AT-687/SK01686

>  <PRICE>  (293) 
EUR 80/10 mg

>  <Similarity score>  (293) 
0.21

$$$$

     RDKit          2D

 28 32  0  0  0  0  0  0  0  0999 V2000
    0.1667   -1.4583    0.0000 N   0  0  0  0  0  0  0  0  0  0  0  0
   -0.2417   -0.5458    0.0000 C   0  0  0  0  0  0  0  0  0  0  0  0
    1.1625   -1.3542    0.0000 C   0  0  0  0  0  0  0  0  0  0  0  0
   -0.6208    2.5208    0.0000 C   0  0  0  0  0  0  0  0  0  0  0  0
    0.5042    0.1250    0.0000 C   0  0  0  0  0  0  0  0  0  0  0  0
    1.3667   -0.3750    0.0000 C   0  0  0  0  0  0  0  0  0  0  0  0
    0.1875    3.1083    0.0000 C   0  0  0  0  0  0  0  0  0  0  0  0
    0.4000    1.1208    0.0000 N   0  0  0  0  0  0  0  0  0  0  0  0
   -1.4292    3.1083    0.0000 N   0  0  0  0  0  0  0  0  0  0  0  0
   -0.1208    4.0542    0.0000 C   0  0  0  0  0  0  0  0  0  0  0  0
   -1.1208    4.0542    0.0000 C   0  0  0  0  0  0  0  0  0  0  0  0
   -0.5167    1.5250    0.0000 C   0  0  0  0  0  0  0  0  0  0  0  0
   -0.3333   -2.3250    0.0000 C   0  0  0  0  0  0  0  0  0  0  0  0
    1.1042    2.7000    0.0000 C   0  0  0  0  0  0  0  0  0  0  0  0
   -1.2208   -0.3375    0.0000 O   0  0  0  0  0  0  0  0  0  0  0  0
    1.2083    1.7083    0.0000 C   0  0  0  0  0  0  0  0  0  0  0  0
    1.8292   -2.0958    0.0000 O   0  0  0  0  0  0  0  0  0  0  0  0
   -1.3333   -2.3250    0.0000 C   0  0  0  0  0  0  0  0  0  0  0  0
    0.1667   -3.1917    0.0000 C   0  0  0  0  0  0  0  0  0  0  0  0
   -1.3333   -4.0542    0.0000 C   0  0  0  0  0  0  0  0  0  0  0  0
   -0.3333   -4.0542    0.0000 C   0  0  0  0  0  0  0  0  0  0  0  0
   -1.8333   -3.1917    0.0000 C   0  0  0  0  0  0  0  0  0  0  0  0
    0.3792    4.9208    0.0000 C   0  0  0  0  0  0  0  0  0  0  0  0
   -1.8333   -4.9208    0.0000 O   0  0  0  0  0  0  0  0  0  0  0  0
   -1.6208    4.9208    0.0000 C   0  0  0  0  0  0  0  0  0  0  0  0
   -1.3333   -5.7875    0.0000 C   0  0  0  0  0  0  0  0  0  0  0  0
   -0.1208    5.7875    0.0000 C   0  0  0  0  0  0  0  0  0  0  0  0
   -1.1208    5.7875    0.0000 C   0  0  0  0  0  0  0  0  0  0  0  0
  1  2  1  0
  1  3  1  0
  4 12  1  0
  2  5  1  0
  3  6  1  0
  7 14  1  0
  5  8  1  0
  4  9  1  0
  7 10  1  0
  9 11  1  0
  8 12  1  0
  1 13  1  0
 14 16  1  0
  2 15  2  0
  8 16  1  0
  3 17  2  0
 13 18  1  0
 13 19  2  0
 20 22  1  0
 19 21  1  0
 18 22  2  0
 10 23  2  0
 20 24  1  0
 11 25  2  0
 24 26  1  0
 23 27  1  0
 25 28  1  0
  5  6  1  0
 20 21  2  0
  4  7  2  0
 10 11  1  0
 27 28  2  0
M  END
>  <MOLFORMULA>  (294) 
C22 H21 N3 O3

>  <MOLWEIGHT>  (294) 
3.754259000000000e+002

>  <IDNUMBER>  (294) 
AN-153/NB21430

>  <PRICE>  (294) 
EUR 130/10 mg

>  <Similarity score>  (294) 
0.21

$$$$

     RDKit          2D

 27 31  0  0  0  0  0  0  0  0999 V2000
    0.1667   -2.7583    0.0000 N   0  0  0  0  0  0  0  0  0  0  0  0
   -0.2417   -1.8417    0.0000 C   0  0  0  0  0  0  0  0  0  0  0  0
    1.1625   -2.6500    0.0000 C   0  0  0  0  0  0  0  0  0  0  0  0
   -0.6208    1.2208    0.0000 C   0  0  0  0  0  0  0  0  0  0  0  0
    0.5042   -1.1750    0.0000 C   0  0  0  0  0  0  0  0  0  0  0  0
    0.1875    1.8083    0.0000 C   0  0  0  0  0  0  0  0  0  0  0  0
    1.3667   -1.6750    0.0000 C   0  0  0  0  0  0  0  0  0  0  0  0
    0.4000   -0.1792    0.0000 N   0  0  0  0  0  0  0  0  0  0  0  0
   -1.4292    1.8083    0.0000 N   0  0  0  0  0  0  0  0  0  0  0  0
   -0.1208    2.7625    0.0000 C   0  0  0  0  0  0  0  0  0  0  0  0
   -1.1208    2.7625    0.0000 C   0  0  0  0  0  0  0  0  0  0  0  0
   -0.5167    0.2292    0.0000 C   0  0  0  0  0  0  0  0  0  0  0  0
    1.1042    1.4042    0.0000 C   0  0  0  0  0  0  0  0  0  0  0  0
   -1.2208   -1.6333    0.0000 O   0  0  0  0  0  0  0  0  0  0  0  0
    1.2083    0.4083    0.0000 C   0  0  0  0  0  0  0  0  0  0  0  0
   -0.3333   -3.6208    0.0000 C   0  0  0  0  0  0  0  0  0  0  0  0
    1.8292   -3.3958    0.0000 O   0  0  0  0  0  0  0  0  0  0  0  0
    0.3792    3.6250    0.0000 C   0  0  0  0  0  0  0  0  0  0  0  0
   -1.6208    3.6250    0.0000 C   0  0  0  0  0  0  0  0  0  0  0  0
   -0.1208    4.4875    0.0000 C   0  0  0  0  0  0  0  0  0  0  0  0
   -1.1208    4.4875    0.0000 C   0  0  0  0  0  0  0  0  0  0  0  0
    0.3792    5.3542    0.0000 Cl  0  0  0  0  0  0  0  0  0  0  0  0
   -1.3333   -3.6208    0.0000 C   0  0  0  0  0  0  0  0  0  0  0  0
    0.1667   -4.4875    0.0000 C   0  0  0  0  0  0  0  0  0  0  0  0
   -0.3333   -5.3542    0.0000 C   0  0  0  0  0  0  0  0  0  0  0  0
   -1.8333   -4.4875    0.0000 C   0  0  0  0  0  0  0  0  0  0  0  0
   -1.3333   -5.3542    0.0000 C   0  0  0  0  0  0  0  0  0  0  0  0
  1  2  1  0
  1  3  1  0
  4 12  1  0
  2  5  1  0
  6 13  1  0
  3  7  1  0
  5  8  1  0
  4  9  1  0
  6 10  1  0
  9 11  1  0
  8 12  1  0
 13 15  1  0
  2 14  2  0
  8 15  1  0
  1 16  1  0
  3 17  2  0
 10 18  2  0
 11 19  2  0
 18 20  1  0
 19 21  1  0
 20 22  1  0
 16 23  2  0
 16 24  1  0
 24 25  2  0
 23 26  1  0
 26 27  2  0
  5  7  1  0
 25 27  1  0
  4  6  2  0
 10 11  1  0
 20 21  2  0
M  END
>  <MOLFORMULA>  (295) 
C21 H18 Cl N3 O2

>  <MOLWEIGHT>  (295) 
3.798452000000000e+002

>  <IDNUMBER>  (295) 
AN-153/NB21471

>  <PRICE>  (295) 
EUR 130/10 mg

>  <Similarity score>  (295) 
0.21

$$$$

     RDKit          2D

 27 30  0  0  0  0  0  0  0  0999 V2000
    1.8417   -1.0292    0.0000 C   0  0  0  0  0  0  0  0  0  0  0  0
    1.8417   -1.8542    0.0000 C   0  0  0  0  0  0  0  0  0  0  0  0
    2.5667   -0.6167    0.0000 N   0  0  0  0  0  0  0  0  0  0  0  0
    4.7125    1.4333    0.0000 C   0  0  0  0  0  0  0  0  0  0  0  0
    1.1292   -0.6167    0.0000 N   0  0  0  0  0  0  0  0  0  0  0  0
    5.4167    1.8375    0.0000 C   0  0  0  0  0  0  0  0  0  0  0  0
    4.7125    0.6083    0.0000 N   0  0  0  0  0  0  0  0  0  0  0  0
    1.1250   -2.2667    0.0000 C   0  0  0  0  0  0  0  0  0  0  0  0
    6.1375    3.0833    0.0000 C   0  0  0  0  0  0  0  0  0  0  0  0
    5.4167    2.6708    0.0000 C   0  0  0  0  0  0  0  0  0  0  0  0
    0.4167   -1.8417    0.0000 N   0  0  0  0  0  0  0  0  0  0  0  0
    0.4250   -1.0167    0.0000 C   0  0  0  0  0  0  0  0  0  0  0  0
    2.5667    0.2083    0.0000 C   0  0  0  0  0  0  0  0  0  0  0  0
    3.2792   -1.0375    0.0000 C   0  0  0  0  0  0  0  0  0  0  0  0
    6.8500    2.6708    0.0000 C   0  0  0  0  0  0  0  0  0  0  0  0
    4.0000    1.8458    0.0000 O   0  0  0  0  0  0  0  0  0  0  0  0
    6.1375    1.4250    0.0000 C   0  0  0  0  0  0  0  0  0  0  0  0
    6.8500    1.8375    0.0000 C   0  0  0  0  0  0  0  0  0  0  0  0
    3.9917    0.1958    0.0000 C   0  0  0  0  0  0  0  0  0  0  0  0
    3.9917   -0.6292    0.0000 C   0  0  0  0  0  0  0  0  0  0  0  0
    3.2792    0.6125    0.0000 C   0  0  0  0  0  0  0  0  0  0  0  0
    6.1375    3.8958    0.0000 Cl  0  0  0  0  0  0  0  0  0  0  0  0
    7.5667    3.0833    0.0000 F   0  0  0  0  0  0  0  0  0  0  0  0
    2.5542   -2.2792    0.0000 C   0  0  0  0  0  0  0  0  0  0  0  0
    1.1167   -3.0917    0.0000 C   0  0  0  0  0  0  0  0  0  0  0  0
    2.5500   -3.1042    0.0000 C   0  0  0  0  0  0  0  0  0  0  0  0
    1.8250   -3.5042    0.0000 C   0  0  0  0  0  0  0  0  0  0  0  0
  1  2  1  0
  1  3  1  0
  4  7  1  0
  1  5  2  0
  4  6  1  0
  7 19  1  0
  2  8  2  0
  9 10  1  0
  6 10  2  0
 11 12  2  0
  5 12  1  0
  3 13  1  0
  3 14  1  0
 15 18  1  0
  4 16  2  0
  6 17  1  0
 17 18  2  0
 19 20  1  0
 14 20  1  0
 13 21  1  0
  9 22  1  0
 15 23  1  0
  2 24  1  0
  8 25  1  0
 24 26  1  0
 26 27  1  0
  8 11  1  0
 19 21  1  0
 25 27  1  0
  9 15  2  0
M  END
>  <MOLFORMULA>  (296) 
C20 H22 Cl F N4 O

>  <MOLWEIGHT>  (296) 
3.888718000000000e+002

>  <IDNUMBER>  (296) 
AT-687/SK01631

>  <PRICE>  (296) 
EUR 80/10 mg

>  <Similarity score>  (296) 
0.21

$$$$

     RDKit          2D

 31 35  0  0  0  0  0  0  0  0999 V2000
   -1.5500    3.0083    0.0000 C   0  0  0  0  0  0  0  0  0  0  0  0
   -1.5500    3.9958    0.0000 N   0  0  0  0  0  0  0  0  0  0  0  0
   -0.6833    2.5000    0.0000 C   0  0  0  0  0  0  0  0  0  0  0  0
   -2.5083    4.3042    0.0000 N   0  0  0  0  0  0  0  0  0  0  0  0
   -2.5083    2.6958    0.0000 C   0  0  0  0  0  0  0  0  0  0  0  0
   -0.6833    1.5000    0.0000 N   0  0  0  0  0  0  0  0  0  0  0  0
   -3.0958    3.5000    0.0000 C   0  0  0  0  0  0  0  0  0  0  0  0
    0.1792    3.0083    0.0000 N   0  0  0  0  0  0  0  0  0  0  0  0
    0.1792   -0.0000    0.0000 C   0  0  0  0  0  0  0  0  0  0  0  0
    1.0500   -0.5042    0.0000 C   0  0  0  0  0  0  0  0  0  0  0  0
   -0.6833    4.5042    0.0000 C   0  0  0  0  0  0  0  0  0  0  0  0
    0.1792    1.0083    0.0000 C   0  0  0  0  0  0  0  0  0  0  0  0
    0.1792    3.9958    0.0000 C   0  0  0  0  0  0  0  0  0  0  0  0
    1.9125   -0.0042    0.0000 N   0  0  0  0  0  0  0  0  0  0  0  0
    1.0417   -1.5042    0.0000 O   0  0  0  0  0  0  0  0  0  0  0  0
    2.7792   -0.5125    0.0000 C   0  0  0  0  0  0  0  0  0  0  0  0
   -1.5500    1.0083    0.0000 C   0  0  0  0  0  0  0  0  0  0  0  0
   -2.9125    1.7833    0.0000 C   0  0  0  0  0  0  0  0  0  0  0  0
    3.6292   -2.0042    0.0000 C   0  0  0  0  0  0  0  0  0  0  0  0
    2.7667   -1.4917    0.0000 C   0  0  0  0  0  0  0  0  0  0  0  0
    3.6292   -3.0000    0.0000 C   0  0  0  0  0  0  0  0  0  0  0  0
   -0.6958   -0.4917    0.0000 C   0  0  0  0  0  0  0  0  0  0  0  0
   -4.0833    3.3958    0.0000 C   0  0  0  0  0  0  0  0  0  0  0  0
    4.4917   -3.5042    0.0000 O   0  0  0  0  0  0  0  0  0  0  0  0
   -1.5500    0.0125    0.0000 C   0  0  0  0  0  0  0  0  0  0  0  0
    1.8875   -2.9917    0.0000 C   0  0  0  0  0  0  0  0  0  0  0  0
    1.9042   -1.9792    0.0000 C   0  0  0  0  0  0  0  0  0  0  0  0
    2.7625   -3.4917    0.0000 C   0  0  0  0  0  0  0  0  0  0  0  0
    4.4917   -4.5042    0.0000 C   0  0  0  0  0  0  0  0  0  0  0  0
   -3.9125    1.6833    0.0000 C   0  0  0  0  0  0  0  0  0  0  0  0
   -4.5000    2.4833    0.0000 C   0  0  0  0  0  0  0  0  0  0  0  0
  1  2  1  0
  1  3  1  0
  2  4  1  0
  1  5  2  0
  3  6  1  0
  5  7  1  0
  3  8  2  0
  9 12  1  0
  9 10  1  0
  2 11  1  0
  6 12  1  0
  8 13  1  0
 10 14  1  0
 10 15  2  0
 14 16  1  0
  6 17  1  0
  5 18  1  0
 19 20  2  0
 16 20  1  0
 19 21  1  0
 22 25  1  0
  7 23  1  0
 21 24  1  0
 17 25  1  0
 26 27  2  0
 20 27  1  0
 26 28  1  0
 24 29  1  0
 18 30  1  0
 30 31  1  0
  4  7  2  0
 11 13  2  0
 23 31  1  0
  9 22  1  0
 21 28  2  0
M  END
>  <MOLFORMULA>  (297) 
C24 H29 N5 O2

>  <MOLWEIGHT>  (297) 
4.195261000000000e+002

>  <IDNUMBER>  (297) 
AT-687/PE21885

>  <PRICE>  (297) 
EUR 80/10 mg

>  <Similarity score>  (297) 
0.21

$$$$

     RDKit          2D

 30 34  0  0  0  0  0  0  0  0999 V2000
   -1.1250    2.5000    0.0000 C   0  0  0  0  0  0  0  0  0  0  0  0
   -1.1250    3.5083    0.0000 N   0  0  0  0  0  0  0  0  0  0  0  0
   -0.2625    2.0083    0.0000 C   0  0  0  0  0  0  0  0  0  0  0  0
   -2.0875    3.8125    0.0000 N   0  0  0  0  0  0  0  0  0  0  0  0
   -2.0875    2.1958    0.0000 C   0  0  0  0  0  0  0  0  0  0  0  0
   -0.2625    1.0000    0.0000 N   0  0  0  0  0  0  0  0  0  0  0  0
   -2.6708    3.0083    0.0000 C   0  0  0  0  0  0  0  0  0  0  0  0
    1.4667   -0.9917    0.0000 C   0  0  0  0  0  0  0  0  0  0  0  0
    0.6000    2.5000    0.0000 N   0  0  0  0  0  0  0  0  0  0  0  0
    0.5917   -0.5000    0.0000 C   0  0  0  0  0  0  0  0  0  0  0  0
    1.4542   -2.0000    0.0000 N   0  0  0  0  0  0  0  0  0  0  0  0
    0.6000    0.5083    0.0000 C   0  0  0  0  0  0  0  0  0  0  0  0
   -0.2625    4.0042    0.0000 C   0  0  0  0  0  0  0  0  0  0  0  0
    0.6000    3.5083    0.0000 C   0  0  0  0  0  0  0  0  0  0  0  0
    2.3167   -2.4917    0.0000 C   0  0  0  0  0  0  0  0  0  0  0  0
    2.3292   -0.5000    0.0000 O   0  0  0  0  0  0  0  0  0  0  0  0
    3.1917   -2.0000    0.0000 C   0  0  0  0  0  0  0  0  0  0  0  0
   -1.1250    0.5083    0.0000 C   0  0  0  0  0  0  0  0  0  0  0  0
   -2.4875    1.2833    0.0000 C   0  0  0  0  0  0  0  0  0  0  0  0
   -0.2708   -0.9875    0.0000 C   0  0  0  0  0  0  0  0  0  0  0  0
   -3.6625    2.9000    0.0000 C   0  0  0  0  0  0  0  0  0  0  0  0
    3.2000   -1.0125    0.0000 O   0  0  0  0  0  0  0  0  0  0  0  0
   -1.1333   -0.4792    0.0000 C   0  0  0  0  0  0  0  0  0  0  0  0
    2.3125   -3.5000    0.0000 C   0  0  0  0  0  0  0  0  0  0  0  0
    4.0542   -2.5125    0.0000 C   0  0  0  0  0  0  0  0  0  0  0  0
    4.0750   -0.5250    0.0000 C   0  0  0  0  0  0  0  0  0  0  0  0
   -3.4958    1.1833    0.0000 C   0  0  0  0  0  0  0  0  0  0  0  0
   -4.0833    1.9875    0.0000 C   0  0  0  0  0  0  0  0  0  0  0  0
    3.1667   -4.0042    0.0000 C   0  0  0  0  0  0  0  0  0  0  0  0
    4.0500   -3.5042    0.0000 C   0  0  0  0  0  0  0  0  0  0  0  0
  1  2  1  0
  1  3  1  0
  2  4  1  0
  1  5  2  0
  3  6  1  0
  5  7  1  0
  8 10  1  0
  3  9  2  0
 10 12  1  0
  8 11  1  0
  6 12  1  0
  2 13  1  0
  9 14  1  0
 11 15  1  0
  8 16  2  0
 15 17  2  0
  6 18  1  0
  5 19  1  0
 20 23  1  0
  7 21  1  0
 17 22  1  0
 18 23  1  0
 15 24  1  0
 17 25  1  0
 22 26  1  0
 19 27  1  0
 27 28  1  0
 24 29  2  0
 29 30  1  0
  4  7  2  0
 13 14  2  0
 21 28  1  0
 10 20  1  0
 25 30  2  0
M  END
>  <MOLFORMULA>  (298) 
C23 H27 N5 O2

>  <MOLWEIGHT>  (298) 
4.054993000000000e+002

>  <IDNUMBER>  (298) 
AT-687/PE21864

>  <PRICE>  (298) 
EUR 80/10 mg

>  <Similarity score>  (298) 
0.21

$$$$

     RDKit          2D

 31 35  0  0  0  0  0  0  0  0999 V2000
    6.9125   -0.6167    0.0000 C   0  0  0  0  0  0  0  0  0  0  0  0
    2.6375    1.0333    0.0000 C   0  0  0  0  0  0  0  0  0  0  0  0
    7.6250   -0.2042    0.0000 N   0  0  0  0  0  0  0  0  0  0  0  0
    1.9167    0.6333    0.0000 C   0  0  0  0  0  0  0  0  0  0  0  0
    6.1917   -0.2042    0.0000 C   0  0  0  0  0  0  0  0  0  0  0  0
    2.6375    1.8625    0.0000 N   0  0  0  0  0  0  0  0  0  0  0  0
    6.9125   -1.4417    0.0000 C   0  0  0  0  0  0  0  0  0  0  0  0
    8.3417   -0.6167    0.0000 N   0  0  0  0  0  0  0  0  0  0  0  0
    3.3417    0.6208    0.0000 N   0  0  0  0  0  0  0  0  0  0  0  0
    8.3417   -1.4417    0.0000 C   0  0  0  0  0  0  0  0  0  0  0  0
    1.2042    1.8625    0.0000 N   0  0  0  0  0  0  0  0  0  0  0  0
    1.2000    1.0458    0.0000 C   0  0  0  0  0  0  0  0  0  0  0  0
    7.6250   -1.8542    0.0000 C   0  0  0  0  0  0  0  0  0  0  0  0
    1.9167    2.2708    0.0000 C   0  0  0  0  0  0  0  0  0  0  0  0
    5.4875   -0.6167    0.0000 N   0  0  0  0  0  0  0  0  0  0  0  0
    6.1917    0.6333    0.0000 O   0  0  0  0  0  0  0  0  0  0  0  0
    3.3417   -0.1917    0.0000 C   0  0  0  0  0  0  0  0  0  0  0  0
    4.0542    1.0333    0.0000 C   0  0  0  0  0  0  0  0  0  0  0  0
    9.0417   -1.8542    0.0000 O   0  0  0  0  0  0  0  0  0  0  0  0
    4.7750   -0.2042    0.0000 C   0  0  0  0  0  0  0  0  0  0  0  0
    4.0542   -0.6167    0.0000 C   0  0  0  0  0  0  0  0  0  0  0  0
    4.7750    0.6333    0.0000 C   0  0  0  0  0  0  0  0  0  0  0  0
    1.9042   -0.2042    0.0000 C   0  0  0  0  0  0  0  0  0  0  0  0
    6.1917   -1.8417    0.0000 C   0  0  0  0  0  0  0  0  0  0  0  0
    7.6167   -2.6792    0.0000 C   0  0  0  0  0  0  0  0  0  0  0  0
    0.4917    0.6333    0.0000 C   0  0  0  0  0  0  0  0  0  0  0  0
    1.9167    3.0958    0.0000 C   0  0  0  0  0  0  0  0  0  0  0  0
    1.1917   -0.6042    0.0000 C   0  0  0  0  0  0  0  0  0  0  0  0
    6.1875   -2.6625    0.0000 C   0  0  0  0  0  0  0  0  0  0  0  0
    6.9042   -3.0792    0.0000 C   0  0  0  0  0  0  0  0  0  0  0  0
    0.4792   -0.1792    0.0000 C   0  0  0  0  0  0  0  0  0  0  0  0
  2  9  1  0
  1  3  2  0
  2  4  1  0
  1  5  1  0
  2  6  2  0
  1  7  1  0
  3  8  1  0
  9 18  1  0
 10 13  1  0
 11 14  2  0
  4 12  2  0
  7 13  2  0
  6 14  1  0
  5 15  1  0
  5 16  2  0
 17 21  1  0
 18 22  1  0
 10 19  2  0
 15 20  1  0
 20 21  1  0
 20 22  1  0
  4 23  1  0
  7 24  1  0
 13 25  1  0
 12 26  1  0
 14 27  1  0
 23 28  1  0
 24 29  2  0
 29 30  1  0
 28 31  1  0
  8 10  1  0
 25 30  2  0
  9 17  1  0
 11 12  1  0
 26 31  1  0
M  END
>  <MOLFORMULA>  (299) 
C23 H26 N6 O2

>  <MOLWEIGHT>  (299) 
4.184984000000000e+002

>  <IDNUMBER>  (299) 
AT-687/SK01689

>  <PRICE>  (299) 
EUR 80/10 mg

>  <Similarity score>  (299) 
0.21

$$$$

     RDKit          2D

 32 36  0  0  0  0  0  0  0  0999 V2000
   -1.1208    3.7583    0.0000 C   0  0  0  0  0  0  0  0  0  0  0  0
   -1.1208    4.7542    0.0000 N   0  0  0  0  0  0  0  0  0  0  0  0
   -0.2583    3.2583    0.0000 C   0  0  0  0  0  0  0  0  0  0  0  0
   -2.0833    5.0542    0.0000 N   0  0  0  0  0  0  0  0  0  0  0  0
   -2.0833    3.4458    0.0000 C   0  0  0  0  0  0  0  0  0  0  0  0
   -0.2583    2.2583    0.0000 N   0  0  0  0  0  0  0  0  0  0  0  0
   -2.6583    4.2500    0.0000 C   0  0  0  0  0  0  0  0  0  0  0  0
    1.4750    0.2583    0.0000 C   0  0  0  0  0  0  0  0  0  0  0  0
    0.6125    3.7583    0.0000 N   0  0  0  0  0  0  0  0  0  0  0  0
    0.6042    0.7583    0.0000 C   0  0  0  0  0  0  0  0  0  0  0  0
    0.6125    1.7583    0.0000 C   0  0  0  0  0  0  0  0  0  0  0  0
   -0.2583    5.2542    0.0000 C   0  0  0  0  0  0  0  0  0  0  0  0
    1.4667   -0.7417    0.0000 N   0  0  0  0  0  0  0  0  0  0  0  0
    3.1792   -3.7542    0.0000 C   0  0  0  0  0  0  0  0  0  0  0  0
    0.6125    4.7542    0.0000 C   0  0  0  0  0  0  0  0  0  0  0  0
    3.1792   -2.7542    0.0000 C   0  0  0  0  0  0  0  0  0  0  0  0
    2.3292   -1.2500    0.0000 C   0  0  0  0  0  0  0  0  0  0  0  0
    2.3375    0.7500    0.0000 O   0  0  0  0  0  0  0  0  0  0  0  0
    2.3167   -2.2375    0.0000 C   0  0  0  0  0  0  0  0  0  0  0  0
    2.3042   -4.2500    0.0000 O   0  0  0  0  0  0  0  0  0  0  0  0
   -1.1208    1.7583    0.0000 C   0  0  0  0  0  0  0  0  0  0  0  0
   -2.4833    2.5333    0.0000 C   0  0  0  0  0  0  0  0  0  0  0  0
    4.0292   -4.2542    0.0000 O   0  0  0  0  0  0  0  0  0  0  0  0
   -0.2583    0.2708    0.0000 C   0  0  0  0  0  0  0  0  0  0  0  0
   -3.6583    4.1417    0.0000 C   0  0  0  0  0  0  0  0  0  0  0  0
   -1.1208    0.7708    0.0000 C   0  0  0  0  0  0  0  0  0  0  0  0
    4.0542   -2.2500    0.0000 C   0  0  0  0  0  0  0  0  0  0  0  0
    4.0667   -1.2625    0.0000 C   0  0  0  0  0  0  0  0  0  0  0  0
    3.2000   -0.7542    0.0000 C   0  0  0  0  0  0  0  0  0  0  0  0
    4.0292   -5.2542    0.0000 C   0  0  0  0  0  0  0  0  0  0  0  0
   -3.4833    2.4333    0.0000 C   0  0  0  0  0  0  0  0  0  0  0  0
   -4.0708    3.2333    0.0000 C   0  0  0  0  0  0  0  0  0  0  0  0
  1  2  1  0
  1  3  1  0
  2  4  1  0
  1  5  2  0
  3  6  1  0
  5  7  1  0
  8 10  1  0
  3  9  2  0
 10 11  1  0
  6 11  1  0
  2 12  1  0
  8 13  1  0
 14 16  1  0
  9 15  1  0
 16 19  2  0
 13 17  1  0
  8 18  2  0
 17 19  1  0
 14 20  2  0
  6 21  1  0
  5 22  1  0
 14 23  1  0
 24 26  1  0
  7 25  1  0
 21 26  1  0
 27 28  2  0
 28 29  1  0
 17 29  2  0
 23 30  1  0
 22 31  1  0
 31 32  1  0
  4  7  2  0
 12 15  2  0
 25 32  1  0
 10 24  1  0
 16 27  1  0
M  END
>  <MOLFORMULA>  (300) 
C24 H27 N5 O3

>  <MOLWEIGHT>  (300) 
4.335093000000000e+002

>  <IDNUMBER>  (300) 
AT-687/PE21871

>  <PRICE>  (300) 
EUR 80/10 mg

>  <Similarity score>  (300) 
0.21

$$$$

     RDKit          2D

 25 28  0  0  0  0  0  0  0  0999 V2000
    5.3167   -7.0917    0.0000 C   0  0  0  0  0  0  0  0  0  0  0  0
    6.0250   -8.3292    0.0000 C   0  0  0  0  0  0  0  0  0  0  0  0
    5.3042   -6.2667    0.0000 N   0  0  0  0  0  0  0  0  0  0  0  0
    4.6000   -7.5042    0.0000 N   0  0  0  0  0  0  0  0  0  0  0  0
    6.7417   -8.7500    0.0000 C   0  0  0  0  0  0  0  0  0  0  0  0
    6.0250   -7.5000    0.0000 C   0  0  0  0  0  0  0  0  0  0  0  0
    5.3167   -8.7500    0.0000 N   0  0  0  0  0  0  0  0  0  0  0  0
    7.4542   -8.3292    0.0000 N   0  0  0  0  0  0  0  0  0  0  0  0
    4.6000   -8.3292    0.0000 C   0  0  0  0  0  0  0  0  0  0  0  0
    4.5917   -5.8667    0.0000 C   0  0  0  0  0  0  0  0  0  0  0  0
    4.5917   -5.0417    0.0000 C   0  0  0  0  0  0  0  0  0  0  0  0
    6.0250   -5.8542    0.0000 C   0  0  0  0  0  0  0  0  0  0  0  0
    6.7417   -9.5750    0.0000 O   0  0  0  0  0  0  0  0  0  0  0  0
    5.3000   -4.6250    0.0000 C   0  0  0  0  0  0  0  0  0  0  0  0
    6.0250   -5.0417    0.0000 C   0  0  0  0  0  0  0  0  0  0  0  0
    8.8792   -7.5167    0.0000 O   0  0  0  0  0  0  0  0  0  0  0  0
    8.1667   -8.7500    0.0000 C   0  0  0  0  0  0  0  0  0  0  0  0
    7.4500   -7.5042    0.0000 C   0  0  0  0  0  0  0  0  0  0  0  0
    3.8750   -8.7500    0.0000 C   0  0  0  0  0  0  0  0  0  0  0  0
    3.8792   -4.6250    0.0000 C   0  0  0  0  0  0  0  0  0  0  0  0
    8.8750   -8.3417    0.0000 C   0  0  0  0  0  0  0  0  0  0  0  0
    8.1667   -7.1000    0.0000 C   0  0  0  0  0  0  0  0  0  0  0  0
    5.3000   -3.8000    0.0000 C   0  0  0  0  0  0  0  0  0  0  0  0
    3.8750   -3.8042    0.0000 C   0  0  0  0  0  0  0  0  0  0  0  0
    4.5917   -3.3917    0.0000 C   0  0  0  0  0  0  0  0  0  0  0  0
  2  6  1  0
  1  3  1  0
  1  4  1  0
  2  5  1  0
  1  6  2  0
  2  7  2  0
  5  8  1  0
  4  9  2  0
  3 10  1  0
 10 11  1  0
  3 12  1  0
  5 13  2  0
 14 15  1  0
 12 15  1  0
 16 22  1  0
  8 17  1  0
  8 18  1  0
  9 19  1  0
 11 20  1  0
 17 21  1  0
 18 22  1  0
 14 23  1  0
 20 24  2  0
 23 25  2  0
  7  9  1  0
 11 14  2  0
 16 21  1  0
 24 25  1  0
M  END
>  <MOLFORMULA>  (301) 
C19 H22 N4 O2

>  <MOLWEIGHT>  (301) 
3.384088000000000e+002

>  <IDNUMBER>  (301) 
AT-687/SK07439

>  <PRICE>  (301) 
EUR 80/10 mg

>  <Similarity score>  (301) 
0.23

$$$$

     RDKit          2D

 32 35  0  0  0  0  0  0  0  0999 V2000
    6.4792    1.6083    0.0000 N   0  0  0  0  0  0  0  0  0  0  0  0
    7.0667    0.7958    0.0000 C   0  0  0  0  0  0  0  0  0  0  0  0
    5.6667   -0.2167    0.0000 C   0  0  0  0  0  0  0  0  0  0  0  0
    6.6625   -0.1167    0.0000 N   0  0  0  0  0  0  0  0  0  0  0  0
    5.4792    1.5000    0.0000 C   0  0  0  0  0  0  0  0  0  0  0  0
    5.2625   -1.1375    0.0000 N   0  0  0  0  0  0  0  0  0  0  0  0
    5.0792    0.5833    0.0000 C   0  0  0  0  0  0  0  0  0  0  0  0
    2.4542   -3.1792    0.0000 C   0  0  0  0  0  0  0  0  0  0  0  0
    4.2667   -1.2417    0.0000 C   0  0  0  0  0  0  0  0  0  0  0  0
    2.9625   -4.0542    0.0000 N   0  0  0  0  0  0  0  0  0  0  0  0
    2.2917   -4.7875    0.0000 N   0  0  0  0  0  0  0  0  0  0  0  0
    6.9667    2.7083    0.0000 C   0  0  0  0  0  0  0  0  0  0  0  0
    1.4792   -3.3875    0.0000 C   0  0  0  0  0  0  0  0  0  0  0  0
    3.6792   -0.4292    0.0000 N   0  0  0  0  0  0  0  0  0  0  0  0
    3.8625   -2.1542    0.0000 N   0  0  0  0  0  0  0  0  0  0  0  0
    4.0792    0.4750    0.0000 C   0  0  0  0  0  0  0  0  0  0  0  0
    1.3792   -4.3917    0.0000 C   0  0  0  0  0  0  0  0  0  0  0  0
    2.8625   -2.2667    0.0000 C   0  0  0  0  0  0  0  0  0  0  0  0
    6.3792    3.5083    0.0000 C   0  0  0  0  0  0  0  0  0  0  0  0
    8.0625    0.8958    0.0000 O   0  0  0  0  0  0  0  0  0  0  0  0
    5.1292    1.9833    0.0000 O   0  0  0  0  0  0  0  0  0  0  0  0
    6.7875    4.4167    0.0000 C   0  0  0  0  0  0  0  0  0  0  0  0
    7.7792    4.5292    0.0000 F   0  0  0  0  0  0  0  0  0  0  0  0
    3.9542   -4.1542    0.0000 C   0  0  0  0  0  0  0  0  0  0  0  0
    5.3875    3.4083    0.0000 C   0  0  0  0  0  0  0  0  0  0  0  0
    4.4417   -2.9625    0.0000 C   0  0  0  0  0  0  0  0  0  0  0  0
    0.5167   -4.8917    0.0000 C   0  0  0  0  0  0  0  0  0  0  0  0
    6.1917    5.2292    0.0000 C   0  0  0  0  0  0  0  0  0  0  0  0
    4.3625   -5.0792    0.0000 C   0  0  0  0  0  0  0  0  0  0  0  0
    4.8000    4.2042    0.0000 C   0  0  0  0  0  0  0  0  0  0  0  0
    5.3500   -5.1792    0.0000 C   0  0  0  0  0  0  0  0  0  0  0  0
    5.2000    5.1167    0.0000 C   0  0  0  0  0  0  0  0  0  0  0  0
  1  2  1  0
  3  7  2  0
  2  4  1  0
  1  5  1  0
  3  6  1  0
  5  7  1  0
  8 18  1  0
  9 14  1  0
  8 10  1  0
 10 11  1  0
  1 12  1  0
  8 13  2  0
 14 16  2  0
  9 15  1  0
  7 16  1  0
 13 17  1  0
 15 18  1  0
 12 19  1  0
  2 20  2  0
  5 21  2  0
 19 22  2  0
 22 23  1  0
 10 24  1  0
 19 25  1  0
 15 26  1  0
 17 27  1  0
 22 28  1  0
 24 29  1  0
 25 30  2  0
 29 31  1  0
 30 32  1  0
  3  4  1  0
 28 32  2  0
  6  9  2  0
 11 17  2  0
M  END
>  <MOLFORMULA>  (302) 
C22 H24 F N7 O2

>  <MOLWEIGHT>  (302) 
4.374766000000000e+002

>  <IDNUMBER>  (302) 
AT-687/PE12749

>  <PRICE>  (302) 
EUR 80/10 mg

>  <Similarity score>  (302) 
0.23

$$$$

     RDKit          2D

 21 23  0  0  0  0  0  0  0  0999 V2000
    3.3042   -3.2792    0.0000 C   0  0  0  0  0  0  0  0  0  0  0  0
    4.0917   -2.2417    0.0000 N   0  0  0  0  0  0  0  0  0  0  0  0
    5.3500   -2.6500    0.0000 N   0  0  0  0  0  0  0  0  0  0  0  0
    5.3500   -3.9792    0.0000 C   0  0  0  0  0  0  0  0  0  0  0  0
    4.0917   -4.3917    0.0000 C   0  0  0  0  0  0  0  0  0  0  0  0
    1.9792   -3.2750    0.0000 C   0  0  0  0  0  0  0  0  0  0  0  0
    6.5000   -1.9750    0.0000 C   0  0  0  0  0  0  0  0  0  0  0  0
    7.6500   -3.9792    0.0000 O   0  0  0  0  0  0  0  0  0  0  0  0
    7.6500   -2.6500    0.0000 C   0  0  0  0  0  0  0  0  0  0  0  0
    6.5000   -4.6292    0.0000 C   0  0  0  0  0  0  0  0  0  0  0  0
    1.3292   -2.1250    0.0000 N   0  0  0  0  0  0  0  0  0  0  0  0
    8.8000   -1.9750    0.0000 C   0  0  0  0  0  0  0  0  0  0  0  0
    1.3042   -4.4417    0.0000 O   0  0  0  0  0  0  0  0  0  0  0  0
    8.8000   -0.6500    0.0000 C   0  0  0  0  0  0  0  0  0  0  0  0
    9.9500   -2.6500    0.0000 C   0  0  0  0  0  0  0  0  0  0  0  0
   11.1000   -0.6500    0.0000 C   0  0  0  0  0  0  0  0  0  0  0  0
   11.1000   -1.9750    0.0000 C   0  0  0  0  0  0  0  0  0  0  0  0
    9.9417   -0.0000    0.0000 C   0  0  0  0  0  0  0  0  0  0  0  0
   12.2667   -0.0000    0.0000 Br  0  0  0  0  0  0  0  0  0  0  0  0
    0.0000   -2.1000    0.0000 C   0  0  0  0  0  0  0  0  0  0  0  0
    2.0042   -0.9750    0.0000 C   0  0  0  0  0  0  0  0  0  0  0  0
  1  2  2  0
  2  3  1  0
  4  5  2  0
  1  5  1  0
  1  6  1  0
  3  7  1  0
  8 10  1  0
  7  9  1  0
  4 10  1  0
  6 11  1  0
  9 12  1  0
  6 13  2  0
 12 14  1  0
 12 15  2  0
 16 17  2  0
 15 17  1  0
 14 18  2  0
 16 19  1  0
 11 20  1  0
 11 21  1  0
  3  4  1  0
  8  9  1  0
 16 18  1  0
M  END
>  <MOLFORMULA>  (303) 
C15 H16 Br N3 O2

>  <MOLWEIGHT>  (303) 
3.502144000000000e+002

>  <IDNUMBER>  (303) 
AT-687/PE21175

>  <PRICE>  (303) 
EUR 80/10 mg

>  <Similarity score>  (303) 
0.23

$$$$

     RDKit          2D

 33 36  0  0  0  0  0  0  0  0999 V2000
   -1.0375   -1.9250    0.0000 C   0  0  0  0  0  0  0  0  0  0  0  0
   -2.3500   -0.9792    0.0000 C   0  0  0  0  0  0  0  0  0  0  0  0
   -1.3500   -0.9750    0.0000 C   0  0  0  0  0  0  0  0  0  0  0  0
   -1.8500   -2.5167    0.0000 N   0  0  0  0  0  0  0  0  0  0  0  0
   -2.6583   -1.9250    0.0000 N   0  0  0  0  0  0  0  0  0  0  0  0
   -0.0750   -2.1750    0.0000 C   0  0  0  0  0  0  0  0  0  0  0  0
    0.3250   -3.1000    0.0000 N   0  0  0  0  0  0  0  0  0  0  0  0
   -2.9500   -0.1750    0.0000 C   0  0  0  0  0  0  0  0  0  0  0  0
    1.8500   -2.3000    0.0000 C   0  0  0  0  0  0  0  0  0  0  0  0
    1.3250   -3.1417    0.0000 C   0  0  0  0  0  0  0  0  0  0  0  0
    2.8667   -2.3292    0.0000 N   0  0  0  0  0  0  0  0  0  0  0  0
   -2.5583    0.7375    0.0000 N   0  0  0  0  0  0  0  0  0  0  0  0
   -3.3500    3.2583    0.0000 C   0  0  0  0  0  0  0  0  0  0  0  0
   -2.7500    2.4583    0.0000 C   0  0  0  0  0  0  0  0  0  0  0  0
    0.5792   -1.4042    0.0000 O   0  0  0  0  0  0  0  0  0  0  0  0
   -3.1500    1.5333    0.0000 C   0  0  0  0  0  0  0  0  0  0  0  0
    1.4000   -1.4042    0.0000 O   0  0  0  0  0  0  0  0  0  0  0  0
   -4.3500    3.1500    0.0000 C   0  0  0  0  0  0  0  0  0  0  0  0
   -3.9583   -0.2792    0.0000 O   0  0  0  0  0  0  0  0  0  0  0  0
    3.3917   -1.4917    0.0000 C   0  0  0  0  0  0  0  0  0  0  0  0
   -4.7500    2.2333    0.0000 C   0  0  0  0  0  0  0  0  0  0  0  0
   -1.8833   -3.5167    0.0000 C   0  0  0  0  0  0  0  0  0  0  0  0
   -0.1500   -3.9750    0.0000 C   0  0  0  0  0  0  0  0  0  0  0  0
   -1.1250   -4.1667    0.0000 C   0  0  0  0  0  0  0  0  0  0  0  0
   -2.9375    4.1667    0.0000 Cl  0  0  0  0  0  0  0  0  0  0  0  0
   -4.1583    1.4250    0.0000 C   0  0  0  0  0  0  0  0  0  0  0  0
   -4.9333    3.9583    0.0000 F   0  0  0  0  0  0  0  0  0  0  0  0
    3.3250   -3.2250    0.0000 C   0  0  0  0  0  0  0  0  0  0  0  0
    4.3917   -1.5417    0.0000 C   0  0  0  0  0  0  0  0  0  0  0  0
    2.9250   -0.6042    0.0000 C   0  0  0  0  0  0  0  0  0  0  0  0
    3.4500    0.2250    0.0000 C   0  0  0  0  0  0  0  0  0  0  0  0
    4.9250   -0.6917    0.0000 C   0  0  0  0  0  0  0  0  0  0  0  0
    4.4542    0.2000    0.0000 C   0  0  0  0  0  0  0  0  0  0  0  0
  2  3  1  0
  1  3  2  0
  1  4  1  0
  4  5  1  0
  1  6  1  0
  6  7  1  0
  2  8  1  0
  9 10  1  0
  7 10  1  0
  9 11  1  0
  8 12  1  0
 13 14  1  0
 14 16  2  0
  6 15  2  0
 12 16  1  0
  9 17  2  0
 18 21  1  0
  8 19  2  0
 11 20  1  0
 21 26  2  0
  4 22  1  0
  7 23  1  0
 22 24  1  0
 13 25  1  0
 16 26  1  0
 18 27  1  0
 11 28  1  0
 20 29  1  0
 20 30  2  0
 30 31  1  0
 29 32  2  0
 31 33  2  0
  2  5  2  0
 23 24  1  0
 13 18  2  0
 32 33  1  0
M  END
>  <MOLFORMULA>  (304) 
C23 H21 Cl F N5 O3

>  <MOLWEIGHT>  (304) 
4.699019000000000e+002

>  <IDNUMBER>  (304) 
AT-687/PE30347

>  <PRICE>  (304) 
EUR 80/10 mg

>  <Similarity score>  (304) 
0.22

$$$$

     RDKit          2D

 28 32  0  0  0  0  0  0  0  0999 V2000
    7.4250   -3.3042    0.0000 C   0  0  0  0  0  0  0  0  0  0  0  0
    9.4750   -2.6250    0.0000 N   0  0  0  0  0  0  0  0  0  0  0  0
    8.2000   -2.2250    0.0000 N   0  0  0  0  0  0  0  0  0  0  0  0
    9.4750   -3.9667    0.0000 C   0  0  0  0  0  0  0  0  0  0  0  0
    8.2167   -4.3917    0.0000 C   0  0  0  0  0  0  0  0  0  0  0  0
    6.1000   -3.3042    0.0000 C   0  0  0  0  0  0  0  0  0  0  0  0
   10.6417   -1.9667    0.0000 C   0  0  0  0  0  0  0  0  0  0  0  0
   11.8000   -3.9667    0.0000 O   0  0  0  0  0  0  0  0  0  0  0  0
    5.4250   -2.1750    0.0000 N   0  0  0  0  0  0  0  0  0  0  0  0
   11.8000   -2.6250    0.0000 C   0  0  0  0  0  0  0  0  0  0  0  0
   10.6417   -4.6250    0.0000 C   0  0  0  0  0  0  0  0  0  0  0  0
    2.1000   -1.0250    0.0000 C   0  0  0  0  0  0  0  0  0  0  0  0
    4.1167   -2.1750    0.0000 C   0  0  0  0  0  0  0  0  0  0  0  0
   12.9417   -1.9667    0.0000 C   0  0  0  0  0  0  0  0  0  0  0  0
    5.4417   -4.4750    0.0000 O   0  0  0  0  0  0  0  0  0  0  0  0
    3.4042   -1.0250    0.0000 C   0  0  0  0  0  0  0  0  0  0  0  0
    1.4417   -2.2042    0.0000 C   0  0  0  0  0  0  0  0  0  0  0  0
    2.1167   -3.3417    0.0000 C   0  0  0  0  0  0  0  0  0  0  0  0
   12.9417   -0.6500    0.0000 C   0  0  0  0  0  0  0  0  0  0  0  0
   14.0917   -2.6417    0.0000 C   0  0  0  0  0  0  0  0  0  0  0  0
    3.4250   -3.3417    0.0000 C   0  0  0  0  0  0  0  0  0  0  0  0
   15.2417   -0.6500    0.0000 C   0  0  0  0  0  0  0  0  0  0  0  0
   14.1042   -0.0000    0.0000 C   0  0  0  0  0  0  0  0  0  0  0  0
   15.2417   -1.9750    0.0000 C   0  0  0  0  0  0  0  0  0  0  0  0
   16.4000   -0.0000    0.0000 Cl  0  0  0  0  0  0  0  0  0  0  0  0
    1.1917   -0.0542    0.0000 C   0  0  0  0  0  0  0  0  0  0  0  0
    0.0000   -0.6167    0.0000 C   0  0  0  0  0  0  0  0  0  0  0  0
    0.1250   -1.9250    0.0000 C   0  0  0  0  0  0  0  0  0  0  0  0
  2  3  1  0
  1  3  2  0
  4  5  2  0
  1  5  1  0
  1  6  1  0
  2  7  1  0
  8 11  1  0
  6  9  1  0
  7 10  1  0
  4 11  1  0
 12 16  1  0
  9 13  1  0
 10 14  1  0
  6 15  2  0
 13 16  2  0
 17 18  1  0
 18 21  2  0
 14 19  2  0
 14 20  1  0
 13 21  1  0
 22 24  1  0
 19 23  1  0
 20 24  2  0
 22 25  1  0
 12 26  1  0
 26 27  1  0
 17 28  1  0
  2  4  1  0
  8 10  1  0
 12 17  2  0
 27 28  1  0
 22 23  2  0
M  END
>  <MOLFORMULA>  (305) 
C22 H20 Cl N3 O2

>  <MOLWEIGHT>  (305) 
3.938720000000000e+002

>  <IDNUMBER>  (305) 
AT-687/PE21193

>  <PRICE>  (305) 
EUR 80/10 mg

>  <Similarity score>  (305) 
0.22

$$$$

     RDKit          2D

 27 30  0  0  0  0  0  0  0  0999 V2000
    7.3167   -3.4167    0.0000 C   0  0  0  0  0  0  0  0  0  0  0  0
    9.3500   -2.7292    0.0000 N   0  0  0  0  0  0  0  0  0  0  0  0
    8.1000   -2.3417    0.0000 N   0  0  0  0  0  0  0  0  0  0  0  0
    9.3667   -4.0667    0.0000 C   0  0  0  0  0  0  0  0  0  0  0  0
    8.1167   -4.5042    0.0000 C   0  0  0  0  0  0  0  0  0  0  0  0
    5.9750   -3.4292    0.0000 C   0  0  0  0  0  0  0  0  0  0  0  0
   10.5167   -2.0667    0.0000 C   0  0  0  0  0  0  0  0  0  0  0  0
   11.6667   -4.0667    0.0000 O   0  0  0  0  0  0  0  0  0  0  0  0
    5.3042   -2.2750    0.0000 N   0  0  0  0  0  0  0  0  0  0  0  0
   11.6667   -2.7292    0.0000 C   0  0  0  0  0  0  0  0  0  0  0  0
   10.5167   -4.7417    0.0000 C   0  0  0  0  0  0  0  0  0  0  0  0
    1.9792   -1.1500    0.0000 C   0  0  0  0  0  0  0  0  0  0  0  0
    3.9750   -2.2917    0.0000 C   0  0  0  0  0  0  0  0  0  0  0  0
   12.8250   -2.0750    0.0000 C   0  0  0  0  0  0  0  0  0  0  0  0
    1.3167   -2.3042    0.0000 C   0  0  0  0  0  0  0  0  0  0  0  0
    5.3042   -4.5917    0.0000 O   0  0  0  0  0  0  0  0  0  0  0  0
    3.2917   -1.1500    0.0000 C   0  0  0  0  0  0  0  0  0  0  0  0
    2.0000   -3.4500    0.0000 C   0  0  0  0  0  0  0  0  0  0  0  0
   12.8250   -0.7542    0.0000 C   0  0  0  0  0  0  0  0  0  0  0  0
   13.9667   -2.7500    0.0000 C   0  0  0  0  0  0  0  0  0  0  0  0
    3.2917   -3.4500    0.0000 C   0  0  0  0  0  0  0  0  0  0  0  0
   15.1417   -0.7542    0.0000 C   0  0  0  0  0  0  0  0  0  0  0  0
    0.0000   -2.3042    0.0000 F   0  0  0  0  0  0  0  0  0  0  0  0
   15.1250   -2.0750    0.0000 C   0  0  0  0  0  0  0  0  0  0  0  0
   13.9667   -0.0917    0.0000 C   0  0  0  0  0  0  0  0  0  0  0  0
   16.3000   -0.1042    0.0000 Cl  0  0  0  0  0  0  0  0  0  0  0  0
    1.3167   -0.0000    0.0000 C   0  0  0  0  0  0  0  0  0  0  0  0
  2  3  1  0
  1  3  2  0
  4  5  2  0
  1  5  1  0
  1  6  1  0
  2  7  1  0
  8 11  1  0
  6  9  1  0
  7 10  1  0
  4 11  1  0
 12 17  1  0
  9 13  1  0
 10 14  1  0
 15 18  1  0
  6 16  2  0
 13 17  2  0
 18 21  2  0
 14 19  2  0
 14 20  1  0
 13 21  1  0
 22 24  1  0
 15 23  1  0
 20 24  2  0
 19 25  1  0
 22 26  1  0
 12 27  1  0
  2  4  1  0
  8 10  1  0
 12 15  2  0
 22 25  2  0
M  END
>  <MOLFORMULA>  (306) 
C20 H17 Cl F N3 O2

>  <MOLWEIGHT>  (306) 
3.858243000000000e+002

>  <IDNUMBER>  (306) 
AT-687/PE21217

>  <PRICE>  (306) 
EUR 80/10 mg

>  <Similarity score>  (306) 
0.22

$$$$

     RDKit          2D

 28 32  0  0  0  0  0  0  0  0999 V2000
    5.9917   -4.6167    0.0000 C   0  0  0  0  0  0  0  0  0  0  0  0
    6.8750   -3.6417    0.0000 N   0  0  0  0  0  0  0  0  0  0  0  0
    8.1000   -4.1750    0.0000 N   0  0  0  0  0  0  0  0  0  0  0  0
    7.9542   -5.4792    0.0000 C   0  0  0  0  0  0  0  0  0  0  0  0
    6.6500   -5.7750    0.0000 C   0  0  0  0  0  0  0  0  0  0  0  0
    4.6667   -4.6167    0.0000 C   0  0  0  0  0  0  0  0  0  0  0  0
    3.9917   -3.4542    0.0000 N   0  0  0  0  0  0  0  0  0  0  0  0
    9.3000   -3.6250    0.0000 C   0  0  0  0  0  0  0  0  0  0  0  0
   10.2500   -5.7167    0.0000 O   0  0  0  0  0  0  0  0  0  0  0  0
    2.6500   -3.4542    0.0000 C   0  0  0  0  0  0  0  0  0  0  0  0
   10.3792   -4.4000    0.0000 C   0  0  0  0  0  0  0  0  0  0  0  0
    9.0417   -6.2667    0.0000 C   0  0  0  0  0  0  0  0  0  0  0  0
    1.9917   -2.3167    0.0000 C   0  0  0  0  0  0  0  0  0  0  0  0
    4.6500   -2.3167    0.0000 C   0  0  0  0  0  0  0  0  0  0  0  0
   11.5917   -3.8500    0.0000 C   0  0  0  0  0  0  0  0  0  0  0  0
    3.9917   -5.7750    0.0000 O   0  0  0  0  0  0  0  0  0  0  0  0
    2.6500   -1.1667    0.0000 C   0  0  0  0  0  0  0  0  0  0  0  0
    3.9917   -1.1667    0.0000 C   0  0  0  0  0  0  0  0  0  0  0  0
   11.7250   -2.5250    0.0000 C   0  0  0  0  0  0  0  0  0  0  0  0
   12.6750   -4.6167    0.0000 C   0  0  0  0  0  0  0  0  0  0  0  0
   14.0167   -2.7500    0.0000 C   0  0  0  0  0  0  0  0  0  0  0  0
   13.8750   -4.0667    0.0000 C   0  0  0  0  0  0  0  0  0  0  0  0
   12.9250   -1.9750    0.0000 C   0  0  0  0  0  0  0  0  0  0  0  0
   15.2500   -2.2000    0.0000 Cl  0  0  0  0  0  0  0  0  0  0  0  0
    0.6667   -2.3167    0.0000 C   0  0  0  0  0  0  0  0  0  0  0  0
    1.9917   -0.0000    0.0000 C   0  0  0  0  0  0  0  0  0  0  0  0
    0.0000   -1.1667    0.0000 C   0  0  0  0  0  0  0  0  0  0  0  0
    0.6667   -0.0000    0.0000 C   0  0  0  0  0  0  0  0  0  0  0  0
  1  2  2  0
  2  3  1  0
  4  5  2  0
  1  5  1  0
  1  6  1  0
  6  7  1  0
  3  8  1  0
  9 12  1  0
  7 10  1  0
  8 11  1  0
  4 12  1  0
 10 13  1  0
  7 14  1  0
 11 15  1  0
  6 16  2  0
 17 18  1  0
 14 18  1  0
 15 19  2  0
 15 20  1  0
 21 22  1  0
 20 22  2  0
 19 23  1  0
 21 24  1  0
 13 25  1  0
 17 26  1  0
 25 27  2  0
 26 28  2  0
  3  4  1  0
  9 11  1  0
 13 17  2  0
 27 28  1  0
 21 23  2  0
M  END
>  <MOLFORMULA>  (307) 
C22 H20 Cl N3 O2

>  <MOLWEIGHT>  (307) 
3.938720000000000e+002

>  <IDNUMBER>  (307) 
AT-687/PE21159

>  <PRICE>  (307) 
EUR 80/10 mg

>  <Similarity score>  (307) 
0.22

$$$$

     RDKit          2D

 27 30  0  0  0  0  0  0  0  0999 V2000
    7.3167   -3.4167    0.0000 C   0  0  0  0  0  0  0  0  0  0  0  0
    9.3500   -2.7292    0.0000 N   0  0  0  0  0  0  0  0  0  0  0  0
    8.1000   -2.3417    0.0000 N   0  0  0  0  0  0  0  0  0  0  0  0
    9.3667   -4.0667    0.0000 C   0  0  0  0  0  0  0  0  0  0  0  0
    8.1167   -4.5042    0.0000 C   0  0  0  0  0  0  0  0  0  0  0  0
    5.9750   -3.4292    0.0000 C   0  0  0  0  0  0  0  0  0  0  0  0
   10.5167   -2.0667    0.0000 C   0  0  0  0  0  0  0  0  0  0  0  0
   11.6667   -4.0667    0.0000 O   0  0  0  0  0  0  0  0  0  0  0  0
    5.3042   -2.2750    0.0000 N   0  0  0  0  0  0  0  0  0  0  0  0
   11.6667   -2.7292    0.0000 C   0  0  0  0  0  0  0  0  0  0  0  0
    1.9792   -1.1500    0.0000 C   0  0  0  0  0  0  0  0  0  0  0  0
    3.2917   -1.1500    0.0000 C   0  0  0  0  0  0  0  0  0  0  0  0
   10.5167   -4.7417    0.0000 C   0  0  0  0  0  0  0  0  0  0  0  0
    3.9750   -2.2917    0.0000 C   0  0  0  0  0  0  0  0  0  0  0  0
   12.8250   -2.0750    0.0000 C   0  0  0  0  0  0  0  0  0  0  0  0
    1.3167   -2.3042    0.0000 C   0  0  0  0  0  0  0  0  0  0  0  0
    5.3042   -4.5917    0.0000 O   0  0  0  0  0  0  0  0  0  0  0  0
    2.0000   -3.4500    0.0000 C   0  0  0  0  0  0  0  0  0  0  0  0
   12.8250   -0.7542    0.0000 C   0  0  0  0  0  0  0  0  0  0  0  0
   13.9667   -2.7500    0.0000 C   0  0  0  0  0  0  0  0  0  0  0  0
    1.3167   -0.0000    0.0000 Cl  0  0  0  0  0  0  0  0  0  0  0  0
    3.2917   -3.4500    0.0000 C   0  0  0  0  0  0  0  0  0  0  0  0
   15.1417   -0.7542    0.0000 C   0  0  0  0  0  0  0  0  0  0  0  0
    0.0000   -2.3042    0.0000 F   0  0  0  0  0  0  0  0  0  0  0  0
   13.9667   -0.0917    0.0000 C   0  0  0  0  0  0  0  0  0  0  0  0
   15.1250   -2.0750    0.0000 C   0  0  0  0  0  0  0  0  0  0  0  0
   16.3000   -0.1042    0.0000 Cl  0  0  0  0  0  0  0  0  0  0  0  0
  2  3  1  0
  1  3  2  0
  4  5  2  0
  1  5  1  0
  1  6  1  0
  2  7  1  0
  8 13  1  0
  6  9  1  0
  7 10  1  0
 11 12  1  0
 12 14  2  0
  4 13  1  0
  9 14  1  0
 10 15  1  0
 16 18  1  0
  6 17  2  0
 18 22  2  0
 15 19  2  0
 15 20  1  0
 11 21  1  0
 14 22  1  0
 23 26  1  0
 16 24  1  0
 19 25  1  0
 20 26  2  0
 23 27  1  0
  2  4  1  0
  8 10  1  0
 11 16  2  0
 23 25  2  0
M  END
>  <MOLFORMULA>  (308) 
C19 H14 Cl2 F N3 O2

>  <MOLWEIGHT>  (308) 
4.062426000000000e+002

>  <IDNUMBER>  (308) 
AT-687/PE21213

>  <PRICE>  (308) 
EUR 80/10 mg

>  <Similarity score>  (308) 
0.22

$$$$

     RDKit          2D

 28 31  0  0  0  0  0  0  0  0999 V2000
    8.0042   -2.7250    0.0000 N   0  0  0  0  0  0  0  0  0  0  0  0
    5.9542   -3.4000    0.0000 C   0  0  0  0  0  0  0  0  0  0  0  0
    6.7417   -2.3250    0.0000 N   0  0  0  0  0  0  0  0  0  0  0  0
    8.0250   -4.0667    0.0000 C   0  0  0  0  0  0  0  0  0  0  0  0
    6.7500   -4.5000    0.0000 C   0  0  0  0  0  0  0  0  0  0  0  0
    4.6250   -3.4167    0.0000 C   0  0  0  0  0  0  0  0  0  0  0  0
    9.1750   -2.0542    0.0000 C   0  0  0  0  0  0  0  0  0  0  0  0
   10.3250   -4.0667    0.0000 O   0  0  0  0  0  0  0  0  0  0  0  0
   10.3250   -2.7250    0.0000 C   0  0  0  0  0  0  0  0  0  0  0  0
    0.6500   -3.4500    0.0000 C   0  0  0  0  0  0  0  0  0  0  0  0
    3.9750   -4.5792    0.0000 N   0  0  0  0  0  0  0  0  0  0  0  0
    1.9792   -3.4667    0.0000 C   0  0  0  0  0  0  0  0  0  0  0  0
    9.1750   -4.7292    0.0000 C   0  0  0  0  0  0  0  0  0  0  0  0
    0.0000   -2.3167    0.0000 C   0  0  0  0  0  0  0  0  0  0  0  0
   11.4750   -2.0750    0.0000 C   0  0  0  0  0  0  0  0  0  0  0  0
    2.6417   -4.5792    0.0000 C   0  0  0  0  0  0  0  0  0  0  0  0
    3.9500   -2.2750    0.0000 O   0  0  0  0  0  0  0  0  0  0  0  0
    2.6417   -2.3167    0.0000 C   0  0  0  0  0  0  0  0  0  0  0  0
   12.6250   -2.7500    0.0000 C   0  0  0  0  0  0  0  0  0  0  0  0
   11.4750   -0.7417    0.0000 C   0  0  0  0  0  0  0  0  0  0  0  0
    0.6500   -1.1542    0.0000 C   0  0  0  0  0  0  0  0  0  0  0  0
    0.0000   -4.5792    0.0000 F   0  0  0  0  0  0  0  0  0  0  0  0
   13.7750   -0.7417    0.0000 C   0  0  0  0  0  0  0  0  0  0  0  0
    1.9792   -1.1500    0.0000 C   0  0  0  0  0  0  0  0  0  0  0  0
   13.7750   -2.0750    0.0000 C   0  0  0  0  0  0  0  0  0  0  0  0
   12.6417   -0.0917    0.0000 C   0  0  0  0  0  0  0  0  0  0  0  0
    0.0000   -0.0000    0.0000 F   0  0  0  0  0  0  0  0  0  0  0  0
   14.9500   -0.0917    0.0000 Cl  0  0  0  0  0  0  0  0  0  0  0  0
  2  3  2  0
  1  3  1  0
  1  4  1  0
  4  5  2  0
  2  6  1  0
  1  7  1  0
  8  9  1  0
  7  9  1  0
 10 12  2  0
  6 11  1  0
 12 16  1  0
  4 13  1  0
 10 14  1  0
  9 15  1  0
 11 16  1  0
  6 17  2  0
 12 18  1  0
 15 19  2  0
 15 20  1  0
 21 24  1  0
 10 22  1  0
 23 26  1  0
 18 24  2  0
 19 25  1  0
 20 26  2  0
 21 27  1  0
 23 28  1  0
  8 13  1  0
  2  5  1  0
 23 25  2  0
 14 21  2  0
M  END
>  <MOLFORMULA>  (309) 
C20 H16 Cl F2 N3 O2

>  <MOLWEIGHT>  (309) 
4.038144000000000e+002

>  <IDNUMBER>  (309) 
AT-687/PE21278

>  <PRICE>  (309) 
EUR 80/10 mg

>  <Similarity score>  (309) 
0.22

$$$$

     RDKit          2D

 27 30  0  0  0  0  0  0  0  0999 V2000
    7.3167   -3.4167    0.0000 C   0  0  0  0  0  0  0  0  0  0  0  0
    9.3500   -2.7292    0.0000 N   0  0  0  0  0  0  0  0  0  0  0  0
    8.1000   -2.3417    0.0000 N   0  0  0  0  0  0  0  0  0  0  0  0
    9.3667   -4.0667    0.0000 C   0  0  0  0  0  0  0  0  0  0  0  0
    8.1167   -4.5042    0.0000 C   0  0  0  0  0  0  0  0  0  0  0  0
    5.9750   -3.4292    0.0000 C   0  0  0  0  0  0  0  0  0  0  0  0
   10.5167   -2.0667    0.0000 C   0  0  0  0  0  0  0  0  0  0  0  0
   11.6667   -4.0667    0.0000 O   0  0  0  0  0  0  0  0  0  0  0  0
    5.3042   -2.2750    0.0000 N   0  0  0  0  0  0  0  0  0  0  0  0
   11.6667   -2.7292    0.0000 C   0  0  0  0  0  0  0  0  0  0  0  0
    1.9792   -1.1500    0.0000 C   0  0  0  0  0  0  0  0  0  0  0  0
    3.2917   -1.1500    0.0000 C   0  0  0  0  0  0  0  0  0  0  0  0
   10.5167   -4.7417    0.0000 C   0  0  0  0  0  0  0  0  0  0  0  0
    3.9750   -2.2917    0.0000 C   0  0  0  0  0  0  0  0  0  0  0  0
   12.8250   -2.0750    0.0000 C   0  0  0  0  0  0  0  0  0  0  0  0
    1.3167   -2.3042    0.0000 C   0  0  0  0  0  0  0  0  0  0  0  0
    5.3042   -4.5917    0.0000 O   0  0  0  0  0  0  0  0  0  0  0  0
    2.0000   -3.4500    0.0000 C   0  0  0  0  0  0  0  0  0  0  0  0
   12.8250   -0.7542    0.0000 C   0  0  0  0  0  0  0  0  0  0  0  0
   13.9667   -2.7500    0.0000 C   0  0  0  0  0  0  0  0  0  0  0  0
    1.3167   -0.0000    0.0000 F   0  0  0  0  0  0  0  0  0  0  0  0
    3.2917   -3.4500    0.0000 C   0  0  0  0  0  0  0  0  0  0  0  0
   15.1417   -0.7542    0.0000 C   0  0  0  0  0  0  0  0  0  0  0  0
    0.0000   -2.3042    0.0000 F   0  0  0  0  0  0  0  0  0  0  0  0
   13.9667   -0.0917    0.0000 C   0  0  0  0  0  0  0  0  0  0  0  0
   15.1250   -2.0750    0.0000 C   0  0  0  0  0  0  0  0  0  0  0  0
   16.3000   -0.1042    0.0000 Br  0  0  0  0  0  0  0  0  0  0  0  0
  2  3  1  0
  1  3  2  0
  4  5  2  0
  1  5  1  0
  1  6  1  0
  2  7  1  0
  8 13  1  0
  6  9  1  0
  7 10  1  0
 11 12  1  0
 12 14  2  0
  4 13  1  0
  9 14  1  0
 10 15  1  0
 16 18  1  0
  6 17  2  0
 18 22  2  0
 15 19  2  0
 15 20  1  0
 11 21  1  0
 14 22  1  0
 23 26  1  0
 16 24  1  0
 19 25  1  0
 20 26  2  0
 23 27  1  0
  2  4  1  0
  8 10  1  0
 11 16  2  0
 23 25  2  0
M  END
>  <MOLFORMULA>  (310) 
C19 H14 Br F2 N3 O2

>  <MOLWEIGHT>  (310) 
4.342386000000000e+002

>  <IDNUMBER>  (310) 
AT-687/PE21229

>  <PRICE>  (310) 
EUR 80/10 mg

>  <Similarity score>  (310) 
0.22

$$$$

     RDKit          2D

 27 30  0  0  0  0  0  0  0  0999 V2000
    7.3167   -3.4167    0.0000 C   0  0  0  0  0  0  0  0  0  0  0  0
    9.3500   -2.7292    0.0000 N   0  0  0  0  0  0  0  0  0  0  0  0
    8.1000   -2.3417    0.0000 N   0  0  0  0  0  0  0  0  0  0  0  0
    9.3667   -4.0667    0.0000 C   0  0  0  0  0  0  0  0  0  0  0  0
    8.1167   -4.5042    0.0000 C   0  0  0  0  0  0  0  0  0  0  0  0
    5.9750   -3.4292    0.0000 C   0  0  0  0  0  0  0  0  0  0  0  0
   10.5167   -2.0667    0.0000 C   0  0  0  0  0  0  0  0  0  0  0  0
   11.6667   -4.0667    0.0000 O   0  0  0  0  0  0  0  0  0  0  0  0
    5.3042   -2.2750    0.0000 N   0  0  0  0  0  0  0  0  0  0  0  0
   11.6667   -2.7292    0.0000 C   0  0  0  0  0  0  0  0  0  0  0  0
    1.9792   -1.1500    0.0000 C   0  0  0  0  0  0  0  0  0  0  0  0
    3.2917   -1.1500    0.0000 C   0  0  0  0  0  0  0  0  0  0  0  0
   10.5167   -4.7417    0.0000 C   0  0  0  0  0  0  0  0  0  0  0  0
    3.9750   -2.2917    0.0000 C   0  0  0  0  0  0  0  0  0  0  0  0
   12.8250   -2.0750    0.0000 C   0  0  0  0  0  0  0  0  0  0  0  0
    1.3167   -2.3042    0.0000 C   0  0  0  0  0  0  0  0  0  0  0  0
    5.3042   -4.5917    0.0000 O   0  0  0  0  0  0  0  0  0  0  0  0
    2.0000   -3.4500    0.0000 C   0  0  0  0  0  0  0  0  0  0  0  0
   12.8250   -0.7542    0.0000 C   0  0  0  0  0  0  0  0  0  0  0  0
   13.9667   -2.7500    0.0000 C   0  0  0  0  0  0  0  0  0  0  0  0
    1.3167   -0.0000    0.0000 F   0  0  0  0  0  0  0  0  0  0  0  0
    3.2917   -3.4500    0.0000 C   0  0  0  0  0  0  0  0  0  0  0  0
   15.1417   -0.7542    0.0000 C   0  0  0  0  0  0  0  0  0  0  0  0
    0.0000   -2.3042    0.0000 F   0  0  0  0  0  0  0  0  0  0  0  0
   13.9667   -0.0917    0.0000 C   0  0  0  0  0  0  0  0  0  0  0  0
   15.1250   -2.0750    0.0000 C   0  0  0  0  0  0  0  0  0  0  0  0
   16.3000   -0.1042    0.0000 Cl  0  0  0  0  0  0  0  0  0  0  0  0
  2  3  1  0
  1  3  2  0
  4  5  2  0
  1  5  1  0
  1  6  1  0
  2  7  1  0
  8 13  1  0
  6  9  1  0
  7 10  1  0
 11 12  1  0
 12 14  2  0
  4 13  1  0
  9 14  1  0
 10 15  1  0
 16 18  1  0
  6 17  2  0
 18 22  2  0
 15 19  2  0
 15 20  1  0
 11 21  1  0
 14 22  1  0
 23 26  1  0
 16 24  1  0
 19 25  1  0
 20 26  2  0
 23 27  1  0
  2  4  1  0
  8 10  1  0
 11 16  2  0
 23 25  2  0
M  END
>  <MOLFORMULA>  (311) 
C19 H14 Cl F2 N3 O2

>  <MOLWEIGHT>  (311) 
3.897876000000000e+002

>  <IDNUMBER>  (311) 
AT-687/PE21210

>  <PRICE>  (311) 
EUR 80/10 mg

>  <Similarity score>  (311) 
0.22

$$$$

     RDKit          2D

 25 29  0  0  0  0  0  0  0  0999 V2000
    3.4250   -4.7500    0.0000 C   0  0  0  0  0  0  0  0  0  0  0  0
    4.1750   -3.6750    0.0000 N   0  0  0  0  0  0  0  0  0  0  0  0
    5.4500   -4.0917    0.0000 N   0  0  0  0  0  0  0  0  0  0  0  0
    5.4417   -5.4250    0.0000 C   0  0  0  0  0  0  0  0  0  0  0  0
    4.1750   -5.8250    0.0000 C   0  0  0  0  0  0  0  0  0  0  0  0
    2.0667   -4.7250    0.0000 C   0  0  0  0  0  0  0  0  0  0  0  0
    6.6000   -3.4292    0.0000 C   0  0  0  0  0  0  0  0  0  0  0  0
    1.4292   -3.5667    0.0000 N   0  0  0  0  0  0  0  0  0  0  0  0
    7.7500   -5.4250    0.0000 O   0  0  0  0  0  0  0  0  0  0  0  0
    7.7500   -4.0917    0.0000 C   0  0  0  0  0  0  0  0  0  0  0  0
   10.0417   -1.4292    0.0000 C   0  0  0  0  0  0  0  0  0  0  0  0
    8.9000   -3.4292    0.0000 C   0  0  0  0  0  0  0  0  0  0  0  0
    8.9000   -2.1000    0.0000 C   0  0  0  0  0  0  0  0  0  0  0  0
    6.6000   -6.0917    0.0000 C   0  0  0  0  0  0  0  0  0  0  0  0
   11.2000   -2.1000    0.0000 C   0  0  0  0  0  0  0  0  0  0  0  0
   10.3250   -0.1250    0.0000 O   0  0  0  0  0  0  0  0  0  0  0  0
   12.1917   -1.2000    0.0000 O   0  0  0  0  0  0  0  0  0  0  0  0
    1.4042   -5.8750    0.0000 O   0  0  0  0  0  0  0  0  0  0  0  0
   11.6417   -0.0000    0.0000 C   0  0  0  0  0  0  0  0  0  0  0  0
   10.0667   -4.0917    0.0000 C   0  0  0  0  0  0  0  0  0  0  0  0
   11.2000   -3.4292    0.0000 C   0  0  0  0  0  0  0  0  0  0  0  0
    2.1167   -2.4250    0.0000 C   0  0  0  0  0  0  0  0  0  0  0  0
    0.1250   -3.2917    0.0000 C   0  0  0  0  0  0  0  0  0  0  0  0
    0.0000   -1.9542    0.0000 C   0  0  0  0  0  0  0  0  0  0  0  0
    1.2250   -1.4250    0.0000 C   0  0  0  0  0  0  0  0  0  0  0  0
  1  2  2  0
  2  3  1  0
  4  5  2  0
  1  5  1  0
  1  6  1  0
  3  7  1  0
  6  8  1  0
  9 14  1  0
  7 10  1  0
 11 13  1  0
 10 12  1  0
 12 13  2  0
  4 14  1  0
 15 21  1  0
 11 16  1  0
 15 17  1  0
  6 18  2  0
 16 19  1  0
 12 20  1  0
 20 21  2  0
  8 22  1  0
  8 23  1  0
 23 24  1  0
 22 25  1  0
  3  4  1  0
 24 25  1  0
  9 10  1  0
 11 15  2  0
 17 19  1  0
M  END
>  <MOLFORMULA>  (312) 
C18 H19 N3 O4

>  <MOLWEIGHT>  (312) 
3.413651000000000e+002

>  <IDNUMBER>  (312) 
AT-687/PE21181

>  <PRICE>  (312) 
EUR 80/10 mg

>  <Similarity score>  (312) 
0.21

$$$$

     RDKit          2D

 29 33  0  0  0  0  0  0  0  0999 V2000
    7.2917   -4.8000    0.0000 C   0  0  0  0  0  0  0  0  0  0  0  0
    9.3417   -4.1000    0.0000 N   0  0  0  0  0  0  0  0  0  0  0  0
    8.0667   -3.7000    0.0000 N   0  0  0  0  0  0  0  0  0  0  0  0
    9.3500   -5.4417    0.0000 C   0  0  0  0  0  0  0  0  0  0  0  0
    8.0792   -5.8542    0.0000 C   0  0  0  0  0  0  0  0  0  0  0  0
    5.9500   -4.8000    0.0000 C   0  0  0  0  0  0  0  0  0  0  0  0
   10.5000   -3.4417    0.0000 C   0  0  0  0  0  0  0  0  0  0  0  0
   11.6542   -5.4417    0.0000 O   0  0  0  0  0  0  0  0  0  0  0  0
   11.6542   -4.1000    0.0000 C   0  0  0  0  0  0  0  0  0  0  0  0
    5.3000   -3.6500    0.0000 N   0  0  0  0  0  0  0  0  0  0  0  0
   13.9667   -1.4542    0.0000 C   0  0  0  0  0  0  0  0  0  0  0  0
   12.8000   -3.4417    0.0000 C   0  0  0  0  0  0  0  0  0  0  0  0
   12.8000   -2.1250    0.0000 C   0  0  0  0  0  0  0  0  0  0  0  0
   10.5000   -6.1000    0.0000 C   0  0  0  0  0  0  0  0  0  0  0  0
   15.1250   -2.1250    0.0000 C   0  0  0  0  0  0  0  0  0  0  0  0
    1.9750   -2.5250    0.0000 C   0  0  0  0  0  0  0  0  0  0  0  0
   14.2500   -0.1500    0.0000 O   0  0  0  0  0  0  0  0  0  0  0  0
   16.1042   -1.2292    0.0000 O   0  0  0  0  0  0  0  0  0  0  0  0
    3.9542   -3.6667    0.0000 C   0  0  0  0  0  0  0  0  0  0  0  0
   15.5750   -0.0000    0.0000 C   0  0  0  0  0  0  0  0  0  0  0  0
    1.3000   -3.6667    0.0000 C   0  0  0  0  0  0  0  0  0  0  0  0
    5.3167   -5.9417    0.0000 O   0  0  0  0  0  0  0  0  0  0  0  0
    3.2750   -2.5250    0.0000 C   0  0  0  0  0  0  0  0  0  0  0  0
   13.9667   -4.1250    0.0000 C   0  0  0  0  0  0  0  0  0  0  0  0
   15.1250   -3.4542    0.0000 C   0  0  0  0  0  0  0  0  0  0  0  0
    1.9917   -4.8167    0.0000 C   0  0  0  0  0  0  0  0  0  0  0  0
    3.2750   -4.8167    0.0000 C   0  0  0  0  0  0  0  0  0  0  0  0
    0.0000   -3.6667    0.0000 F   0  0  0  0  0  0  0  0  0  0  0  0
    1.3000   -1.3667    0.0000 C   0  0  0  0  0  0  0  0  0  0  0  0
  2  3  1  0
  1  3  2  0
  4  5  2  0
  1  5  1  0
  1  6  1  0
  2  7  1  0
  8 14  1  0
  7  9  1  0
  6 10  1  0
 11 13  1  0
  9 12  1  0
 12 13  2  0
  4 14  1  0
 15 25  1  0
 16 23  1  0
 11 17  1  0
 15 18  1  0
 10 19  1  0
 17 20  1  0
 21 26  1  0
  6 22  2  0
 19 23  2  0
 12 24  1  0
 24 25  2  0
 26 27  2  0
 19 27  1  0
 21 28  1  0
 16 29  1  0
  2  4  1  0
  8  9  1  0
 16 21  2  0
 11 15  2  0
 18 20  1  0
M  END
>  <MOLFORMULA>  (313) 
C21 H18 F N3 O4

>  <MOLWEIGHT>  (313) 
3.953882000000000e+002

>  <IDNUMBER>  (313) 
AT-687/PE21250

>  <PRICE>  (313) 
EUR 80/10 mg

>  <Similarity score>  (313) 
0.21

$$$$

     RDKit          2D

 27 30  0  0  0  0  0  0  0  0999 V2000
    7.3167   -3.3250    0.0000 C   0  0  0  0  0  0  0  0  0  0  0  0
    9.3500   -2.6292    0.0000 N   0  0  0  0  0  0  0  0  0  0  0  0
    8.1000   -2.2417    0.0000 N   0  0  0  0  0  0  0  0  0  0  0  0
    9.3667   -3.9750    0.0000 C   0  0  0  0  0  0  0  0  0  0  0  0
    8.1167   -4.4167    0.0000 C   0  0  0  0  0  0  0  0  0  0  0  0
    5.9750   -3.3417    0.0000 C   0  0  0  0  0  0  0  0  0  0  0  0
   10.5167   -1.9667    0.0000 C   0  0  0  0  0  0  0  0  0  0  0  0
    5.3042   -2.1750    0.0000 N   0  0  0  0  0  0  0  0  0  0  0  0
   11.6667   -3.9750    0.0000 O   0  0  0  0  0  0  0  0  0  0  0  0
   11.6667   -2.6292    0.0000 C   0  0  0  0  0  0  0  0  0  0  0  0
    3.9750   -2.2000    0.0000 C   0  0  0  0  0  0  0  0  0  0  0  0
   10.5167   -4.6417    0.0000 C   0  0  0  0  0  0  0  0  0  0  0  0
    3.2917   -3.3500    0.0000 C   0  0  0  0  0  0  0  0  0  0  0  0
   12.8250   -1.9792    0.0000 C   0  0  0  0  0  0  0  0  0  0  0  0
    5.3042   -4.4917    0.0000 O   0  0  0  0  0  0  0  0  0  0  0  0
    2.0000   -3.3500    0.0000 C   0  0  0  0  0  0  0  0  0  0  0  0
    3.2917   -1.0500    0.0000 C   0  0  0  0  0  0  0  0  0  0  0  0
   12.8250   -0.6667    0.0000 C   0  0  0  0  0  0  0  0  0  0  0  0
   13.9792   -2.6500    0.0000 C   0  0  0  0  0  0  0  0  0  0  0  0
    1.3000   -2.2167    0.0000 C   0  0  0  0  0  0  0  0  0  0  0  0
   15.1417   -0.6667    0.0000 C   0  0  0  0  0  0  0  0  0  0  0  0
    1.9792   -1.0500    0.0000 C   0  0  0  0  0  0  0  0  0  0  0  0
   15.1250   -1.9792    0.0000 C   0  0  0  0  0  0  0  0  0  0  0  0
   13.9792   -0.0000    0.0000 C   0  0  0  0  0  0  0  0  0  0  0  0
    0.0000   -2.2167    0.0000 F   0  0  0  0  0  0  0  0  0  0  0  0
   16.3000   -0.0042    0.0000 Cl  0  0  0  0  0  0  0  0  0  0  0  0
    3.9750   -4.4917    0.0000 C   0  0  0  0  0  0  0  0  0  0  0  0
  2  3  1  0
  1  3  2  0
  4  5  2  0
  1  5  1  0
  1  6  1  0
  2  7  1  0
  6  8  1  0
  9 12  1  0
  7 10  1  0
  8 11  1  0
  4 12  1  0
 11 13  2  0
 10 14  1  0
  6 15  2  0
 13 16  1  0
 11 17  1  0
 14 18  1  0
 14 19  2  0
 20 22  1  0
 21 23  2  0
 17 22  2  0
 19 23  1  0
 18 24  2  0
 20 25  1  0
 21 26  1  0
 13 27  1  0
  2  4  1  0
  9 10  1  0
 16 20  2  0
 21 24  1  0
M  END
>  <MOLFORMULA>  (314) 
C20 H17 Cl F N3 O2

>  <MOLWEIGHT>  (314) 
3.858243000000000e+002

>  <IDNUMBER>  (314) 
AT-687/PE21215

>  <PRICE>  (314) 
EUR 80/10 mg

>  <Similarity score>  (314) 
0.21

$$$$

     RDKit          2D

 27 30  0  0  0  0  0  0  0  0999 V2000
    8.0000   -2.6250    0.0000 N   0  0  0  0  0  0  0  0  0  0  0  0
    5.9542   -3.3167    0.0000 C   0  0  0  0  0  0  0  0  0  0  0  0
    6.7292   -2.2250    0.0000 N   0  0  0  0  0  0  0  0  0  0  0  0
    8.0250   -3.9750    0.0000 C   0  0  0  0  0  0  0  0  0  0  0  0
    6.7500   -4.3917    0.0000 C   0  0  0  0  0  0  0  0  0  0  0  0
    4.6250   -3.3250    0.0000 C   0  0  0  0  0  0  0  0  0  0  0  0
    9.1750   -1.9500    0.0000 C   0  0  0  0  0  0  0  0  0  0  0  0
   10.3250   -3.9750    0.0000 O   0  0  0  0  0  0  0  0  0  0  0  0
   10.3250   -2.6250    0.0000 C   0  0  0  0  0  0  0  0  0  0  0  0
    3.9750   -4.4750    0.0000 N   0  0  0  0  0  0  0  0  0  0  0  0
    9.1750   -4.6250    0.0000 C   0  0  0  0  0  0  0  0  0  0  0  0
    1.9792   -3.3500    0.0000 C   0  0  0  0  0  0  0  0  0  0  0  0
   11.4750   -1.9667    0.0000 C   0  0  0  0  0  0  0  0  0  0  0  0
    2.6417   -4.4917    0.0000 C   0  0  0  0  0  0  0  0  0  0  0  0
    3.9500   -2.1750    0.0000 O   0  0  0  0  0  0  0  0  0  0  0  0
    0.6500   -3.3417    0.0000 C   0  0  0  0  0  0  0  0  0  0  0  0
   12.6250   -2.6417    0.0000 C   0  0  0  0  0  0  0  0  0  0  0  0
   11.4750   -0.6500    0.0000 C   0  0  0  0  0  0  0  0  0  0  0  0
   13.7750   -0.6500    0.0000 C   0  0  0  0  0  0  0  0  0  0  0  0
    0.0000   -4.4917    0.0000 F   0  0  0  0  0  0  0  0  0  0  0  0
   13.7750   -1.9792    0.0000 C   0  0  0  0  0  0  0  0  0  0  0  0
   12.6417   -0.0000    0.0000 C   0  0  0  0  0  0  0  0  0  0  0  0
   14.9417   -0.0000    0.0000 Cl  0  0  0  0  0  0  0  0  0  0  0  0
    2.6417   -2.2000    0.0000 C   0  0  0  0  0  0  0  0  0  0  0  0
    0.0000   -2.2000    0.0000 C   0  0  0  0  0  0  0  0  0  0  0  0
    1.9792   -1.0417    0.0000 C   0  0  0  0  0  0  0  0  0  0  0  0
    0.6500   -1.0500    0.0000 C   0  0  0  0  0  0  0  0  0  0  0  0
  2  3  2  0
  1  3  1  0
  1  4  1  0
  4  5  2  0
  2  6  1  0
  1  7  1  0
  8  9  1  0
  7  9  1  0
  6 10  1  0
  4 11  1  0
 12 14  1  0
  9 13  1  0
 10 14  1  0
  6 15  2  0
 12 16  2  0
 13 17  2  0
 13 18  1  0
 19 22  1  0
 16 20  1  0
 17 21  1  0
 18 22  2  0
 19 23  1  0
 12 24  1  0
 16 25  1  0
 24 26  2  0
 26 27  1  0
  8 11  1  0
  2  5  1  0
 19 21  2  0
 25 27  2  0
M  END
>  <MOLFORMULA>  (315) 
C20 H17 Cl F N3 O2

>  <MOLWEIGHT>  (315) 
3.858243000000000e+002

>  <IDNUMBER>  (315) 
AT-687/PE21277

>  <PRICE>  (315) 
EUR 80/10 mg

>  <Similarity score>  (315) 
0.21

$$$$

     RDKit          2D

 30 34  0  0  0  0  0  0  0  0999 V2000
    8.0000   -4.1000    0.0000 N   0  0  0  0  0  0  0  0  0  0  0  0
    5.9500   -4.7667    0.0000 C   0  0  0  0  0  0  0  0  0  0  0  0
    6.7292   -3.7000    0.0000 N   0  0  0  0  0  0  0  0  0  0  0  0
    8.0167   -5.4292    0.0000 C   0  0  0  0  0  0  0  0  0  0  0  0
    6.7500   -5.8500    0.0000 C   0  0  0  0  0  0  0  0  0  0  0  0
    4.6292   -4.7750    0.0000 C   0  0  0  0  0  0  0  0  0  0  0  0
    9.1750   -3.4250    0.0000 C   0  0  0  0  0  0  0  0  0  0  0  0
   10.3250   -5.4292    0.0000 O   0  0  0  0  0  0  0  0  0  0  0  0
   10.3250   -4.1000    0.0000 C   0  0  0  0  0  0  0  0  0  0  0  0
   12.6250   -1.4542    0.0000 C   0  0  0  0  0  0  0  0  0  0  0  0
   11.4750   -3.4417    0.0000 C   0  0  0  0  0  0  0  0  0  0  0  0
    0.6500   -4.8167    0.0000 C   0  0  0  0  0  0  0  0  0  0  0  0
    3.9667   -5.9500    0.0000 N   0  0  0  0  0  0  0  0  0  0  0  0
    1.9750   -4.8250    0.0000 C   0  0  0  0  0  0  0  0  0  0  0  0
   11.4750   -2.1250    0.0000 C   0  0  0  0  0  0  0  0  0  0  0  0
    9.1750   -6.1000    0.0000 C   0  0  0  0  0  0  0  0  0  0  0  0
    0.0000   -3.6750    0.0000 C   0  0  0  0  0  0  0  0  0  0  0  0
   13.7750   -2.1042    0.0000 C   0  0  0  0  0  0  0  0  0  0  0  0
   12.9042   -0.1250    0.0000 O   0  0  0  0  0  0  0  0  0  0  0  0
   14.7750   -1.2250    0.0000 O   0  0  0  0  0  0  0  0  0  0  0  0
   14.2417   -0.0000    0.0000 C   0  0  0  0  0  0  0  0  0  0  0  0
    2.6417   -5.9500    0.0000 C   0  0  0  0  0  0  0  0  0  0  0  0
    3.9500   -3.6417    0.0000 O   0  0  0  0  0  0  0  0  0  0  0  0
   12.6167   -4.1000    0.0000 C   0  0  0  0  0  0  0  0  0  0  0  0
   13.7750   -3.4417    0.0000 C   0  0  0  0  0  0  0  0  0  0  0  0
    2.6417   -3.6750    0.0000 C   0  0  0  0  0  0  0  0  0  0  0  0
    0.6500   -2.5250    0.0000 C   0  0  0  0  0  0  0  0  0  0  0  0
    0.0000   -5.9667    0.0000 F   0  0  0  0  0  0  0  0  0  0  0  0
    1.9917   -2.5250    0.0000 C   0  0  0  0  0  0  0  0  0  0  0  0
    0.0000   -1.3667    0.0000 F   0  0  0  0  0  0  0  0  0  0  0  0
  2  3  2  0
  1  3  1  0
  1  4  1  0
  4  5  2  0
  2  6  1  0
  1  7  1  0
  8  9  1  0
  7  9  1  0
 10 15  1  0
  9 11  1  0
 12 14  2  0
  6 13  1  0
 14 22  1  0
 11 15  2  0
  4 16  1  0
 12 17  1  0
 18 25  1  0
 10 19  1  0
 18 20  1  0
 19 21  1  0
 13 22  1  0
  6 23  2  0
 11 24  1  0
 24 25  2  0
 14 26  1  0
 27 29  1  0
 12 28  1  0
 26 29  2  0
 27 30  1  0
  8 16  1  0
  2  5  1  0
 10 18  2  0
 20 21  1  0
 17 27  2  0
M  END
>  <MOLFORMULA>  (316) 
C21 H17 F2 N3 O4

>  <MOLWEIGHT>  (316) 
4.133783000000000e+002

>  <IDNUMBER>  (316) 
AT-687/PE21324

>  <PRICE>  (316) 
EUR 80/10 mg

>  <Similarity score>  (316) 
0.21

$$$$

     RDKit          2D

 15 16  0  0  0  0  0  0  0  0999 V2000
    6.2917   -2.9375    0.0000 C   0  0  0  0  0  0  0  0  0  0  0  0
    5.8042   -3.6042    0.0000 N   0  0  0  0  0  0  0  0  0  0  0  0
    5.0167   -2.5167    0.0000 C   0  0  0  0  0  0  0  0  0  0  0  0
    5.8042   -2.2625    0.0000 C   0  0  0  0  0  0  0  0  0  0  0  0
    5.0167   -3.3500    0.0000 N   0  0  0  0  0  0  0  0  0  0  0  0
    7.1167   -2.9375    0.0000 C   0  0  0  0  0  0  0  0  0  0  0  0
    4.3042   -2.1042    0.0000 C   0  0  0  0  0  0  0  0  0  0  0  0
    7.5292   -3.6542    0.0000 N   0  0  0  0  0  0  0  0  0  0  0  0
    7.5375   -2.2167    0.0000 O   0  0  0  0  0  0  0  0  0  0  0  0
    4.3042   -1.2750    0.0000 O   0  0  0  0  0  0  0  0  0  0  0  0
    4.3042   -3.7625    0.0000 C   0  0  0  0  0  0  0  0  0  0  0  0
    3.5792   -2.5167    0.0000 C   0  0  0  0  0  0  0  0  0  0  0  0
    3.5792   -3.3500    0.0000 C   0  0  0  0  0  0  0  0  0  0  0  0
    7.1167   -4.3750    0.0000 C   0  0  0  0  0  0  0  0  0  0  0  0
    8.3625   -3.6625    0.0000 C   0  0  0  0  0  0  0  0  0  0  0  0
  1  2  2  0
  3  4  2  0
  1  4  1  0
  2  5  1  0
  1  6  1  0
  3  7  1  0
  6  8  1  0
  6  9  2  0
  7 10  2  0
  5 11  1  0
  7 12  1  0
 11 13  1  0
  8 14  1  0
  8 15  1  0
  3  5  1  0
 12 13  1  0
M  END
>  <MOLFORMULA>  (317) 
C10 H13 N3 O2

>  <MOLWEIGHT>  (317) 
2.072317000000000e+002

>  <IDNUMBER>  (317) 
AT-687/SK15924

>  <PRICE>  (317) 
EUR 80/10 mg

>  <Similarity score>  (317) 
0.21

$$$$

     RDKit          2D

 29 33  0  0  0  0  0  0  0  0999 V2000
    7.2917   -4.8000    0.0000 C   0  0  0  0  0  0  0  0  0  0  0  0
    9.3417   -4.1000    0.0000 N   0  0  0  0  0  0  0  0  0  0  0  0
    8.0667   -3.7000    0.0000 N   0  0  0  0  0  0  0  0  0  0  0  0
    9.3500   -5.4417    0.0000 C   0  0  0  0  0  0  0  0  0  0  0  0
    8.0792   -5.8542    0.0000 C   0  0  0  0  0  0  0  0  0  0  0  0
    5.9500   -4.8000    0.0000 C   0  0  0  0  0  0  0  0  0  0  0  0
   10.5000   -3.4417    0.0000 C   0  0  0  0  0  0  0  0  0  0  0  0
   11.6542   -5.4417    0.0000 O   0  0  0  0  0  0  0  0  0  0  0  0
   11.6542   -4.1000    0.0000 C   0  0  0  0  0  0  0  0  0  0  0  0
    5.3000   -3.6500    0.0000 N   0  0  0  0  0  0  0  0  0  0  0  0
   13.9667   -1.4542    0.0000 C   0  0  0  0  0  0  0  0  0  0  0  0
   12.8000   -3.4417    0.0000 C   0  0  0  0  0  0  0  0  0  0  0  0
    1.9750   -2.5250    0.0000 C   0  0  0  0  0  0  0  0  0  0  0  0
   12.8000   -2.1250    0.0000 C   0  0  0  0  0  0  0  0  0  0  0  0
    3.2750   -2.5250    0.0000 C   0  0  0  0  0  0  0  0  0  0  0  0
   10.5000   -6.1000    0.0000 C   0  0  0  0  0  0  0  0  0  0  0  0
   15.1250   -2.1250    0.0000 C   0  0  0  0  0  0  0  0  0  0  0  0
   14.2500   -0.1500    0.0000 O   0  0  0  0  0  0  0  0  0  0  0  0
    3.9542   -3.6667    0.0000 C   0  0  0  0  0  0  0  0  0  0  0  0
   16.1042   -1.2292    0.0000 O   0  0  0  0  0  0  0  0  0  0  0  0
    1.3000   -3.6667    0.0000 C   0  0  0  0  0  0  0  0  0  0  0  0
   15.5750   -0.0000    0.0000 C   0  0  0  0  0  0  0  0  0  0  0  0
    5.3167   -5.9417    0.0000 O   0  0  0  0  0  0  0  0  0  0  0  0
   13.9667   -4.1250    0.0000 C   0  0  0  0  0  0  0  0  0  0  0  0
   15.1250   -3.4542    0.0000 C   0  0  0  0  0  0  0  0  0  0  0  0
    1.9917   -4.8167    0.0000 C   0  0  0  0  0  0  0  0  0  0  0  0
    1.3000   -1.3667    0.0000 Cl  0  0  0  0  0  0  0  0  0  0  0  0
    3.2750   -4.8167    0.0000 C   0  0  0  0  0  0  0  0  0  0  0  0
    0.0000   -3.6667    0.0000 F   0  0  0  0  0  0  0  0  0  0  0  0
  2  3  1  0
  1  3  2  0
  4  5  2  0
  1  5  1  0
  1  6  1  0
  2  7  1  0
  8 16  1  0
  7  9  1  0
  6 10  1  0
 11 14  1  0
  9 12  1  0
 13 15  1  0
 12 14  2  0
 15 19  2  0
  4 16  1  0
 17 25  1  0
 11 18  1  0
 10 19  1  0
 17 20  1  0
 21 26  1  0
 18 22  1  0
  6 23  2  0
 12 24  1  0
 24 25  2  0
 26 28  2  0
 13 27  1  0
 19 28  1  0
 21 29  1  0
  2  4  1  0
  8  9  1  0
 13 21  2  0
 11 17  2  0
 20 22  1  0
M  END
>  <MOLFORMULA>  (318) 
C20 H15 Cl F N3 O4

>  <MOLWEIGHT>  (318) 
4.158065000000000e+002

>  <IDNUMBER>  (318) 
AT-687/PE21248

>  <PRICE>  (318) 
EUR 80/10 mg

>  <Similarity score>  (318) 
0.21

$$$$

     RDKit          2D

 26 29  0  0  0  0  0  0  0  0999 V2000
    6.1000   -7.3667    0.0000 C   0  0  0  0  0  0  0  0  0  0  0  0
    4.6500   -5.7500    0.0000 N   0  0  0  0  0  0  0  0  0  0  0  0
    5.9500   -6.0417    0.0000 N   0  0  0  0  0  0  0  0  0  0  0  0
    3.9792   -6.9000    0.0000 C   0  0  0  0  0  0  0  0  0  0  0  0
    4.8917   -7.9000    0.0000 C   0  0  0  0  0  0  0  0  0  0  0  0
    7.2417   -8.0250    0.0000 C   0  0  0  0  0  0  0  0  0  0  0  0
    3.9792   -4.6000    0.0000 C   0  0  0  0  0  0  0  0  0  0  0  0
    8.3917   -7.3667    0.0000 N   0  0  0  0  0  0  0  0  0  0  0  0
    1.9917   -5.7500    0.0000 O   0  0  0  0  0  0  0  0  0  0  0  0
    2.6500   -4.6000    0.0000 C   0  0  0  0  0  0  0  0  0  0  0  0
    9.5500   -8.0250    0.0000 C   0  0  0  0  0  0  0  0  0  0  0  0
    2.6500   -6.9000    0.0000 C   0  0  0  0  0  0  0  0  0  0  0  0
    1.9917   -3.4417    0.0000 C   0  0  0  0  0  0  0  0  0  0  0  0
    7.2417   -9.3500    0.0000 O   0  0  0  0  0  0  0  0  0  0  0  0
    9.5500   -9.3500    0.0000 C   0  0  0  0  0  0  0  0  0  0  0  0
    2.6500   -2.2792    0.0000 C   0  0  0  0  0  0  0  0  0  0  0  0
    0.6542   -3.4417    0.0000 C   0  0  0  0  0  0  0  0  0  0  0  0
    8.4000  -10.0167    0.0000 F   0  0  0  0  0  0  0  0  0  0  0  0
    1.9917   -1.1500    0.0000 C   0  0  0  0  0  0  0  0  0  0  0  0
    0.0000   -2.2792    0.0000 C   0  0  0  0  0  0  0  0  0  0  0  0
    0.6542   -1.1500    0.0000 C   0  0  0  0  0  0  0  0  0  0  0  0
   10.7000   -7.3667    0.0000 C   0  0  0  0  0  0  0  0  0  0  0  0
   10.7000  -10.0167    0.0000 C   0  0  0  0  0  0  0  0  0  0  0  0
    0.0000   -0.0000    0.0000 C   0  0  0  0  0  0  0  0  0  0  0  0
   11.8667   -8.0250    0.0000 C   0  0  0  0  0  0  0  0  0  0  0  0
   11.8667   -9.3500    0.0000 C   0  0  0  0  0  0  0  0  0  0  0  0
  2  3  1  0
  1  3  2  0
  4  5  2  0
  1  5  1  0
  1  6  1  0
  2  7  1  0
  6  8  1  0
  9 12  1  0
  7 10  1  0
  8 11  1  0
  4 12  1  0
 10 13  1  0
  6 14  2  0
 11 15  2  0
 13 16  1  0
 13 17  2  0
 15 18  1  0
 16 19  2  0
 17 20  1  0
 20 21  2  0
 11 22  1  0
 15 23  1  0
 21 24  1  0
 22 25  2  0
 25 26  1  0
  2  4  1  0
  9 10  1  0
 23 26  2  0
 19 21  1  0
M  END
>  <MOLFORMULA>  (319) 
C20 H18 F N3 O2

>  <MOLWEIGHT>  (319) 
3.513792000000000e+002

>  <IDNUMBER>  (319) 
AT-687/PE26832

>  <PRICE>  (319) 
EUR 80/10 mg

>  <Similarity score>  (319) 
0.21

$$$$

     RDKit          2D

 27 30  0  0  0  0  0  0  0  0999 V2000
    6.0917   -7.3542    0.0000 C   0  0  0  0  0  0  0  0  0  0  0  0
    4.6500   -5.7542    0.0000 N   0  0  0  0  0  0  0  0  0  0  0  0
    5.9500   -6.0250    0.0000 N   0  0  0  0  0  0  0  0  0  0  0  0
    3.9917   -6.9042    0.0000 C   0  0  0  0  0  0  0  0  0  0  0  0
    4.8750   -7.8917    0.0000 C   0  0  0  0  0  0  0  0  0  0  0  0
    7.2417   -8.0250    0.0000 C   0  0  0  0  0  0  0  0  0  0  0  0
    3.9917   -4.6042    0.0000 C   0  0  0  0  0  0  0  0  0  0  0  0
    8.4000   -7.3542    0.0000 N   0  0  0  0  0  0  0  0  0  0  0  0
    1.9917   -5.7542    0.0000 O   0  0  0  0  0  0  0  0  0  0  0  0
    2.6500   -4.6042    0.0000 C   0  0  0  0  0  0  0  0  0  0  0  0
    9.5500   -8.0250    0.0000 C   0  0  0  0  0  0  0  0  0  0  0  0
    2.6500   -6.9042    0.0000 C   0  0  0  0  0  0  0  0  0  0  0  0
    1.9917   -3.4500    0.0000 C   0  0  0  0  0  0  0  0  0  0  0  0
    7.2417   -9.3500    0.0000 O   0  0  0  0  0  0  0  0  0  0  0  0
   10.7000   -7.3542    0.0000 C   0  0  0  0  0  0  0  0  0  0  0  0
    2.6500   -2.3000    0.0000 C   0  0  0  0  0  0  0  0  0  0  0  0
    0.6542   -3.4500    0.0000 C   0  0  0  0  0  0  0  0  0  0  0  0
    0.6542   -1.1500    0.0000 C   0  0  0  0  0  0  0  0  0  0  0  0
    0.0000   -2.3000    0.0000 C   0  0  0  0  0  0  0  0  0  0  0  0
    1.9917   -1.1500    0.0000 C   0  0  0  0  0  0  0  0  0  0  0  0
    0.0000   -0.0000    0.0000 F   0  0  0  0  0  0  0  0  0  0  0  0
   10.7000   -6.0250    0.0000 O   0  0  0  0  0  0  0  0  0  0  0  0
    9.5500   -9.3500    0.0000 C   0  0  0  0  0  0  0  0  0  0  0  0
   11.8500   -8.0250    0.0000 C   0  0  0  0  0  0  0  0  0  0  0  0
    9.5500   -5.3500    0.0000 C   0  0  0  0  0  0  0  0  0  0  0  0
   10.7000  -10.0167    0.0000 C   0  0  0  0  0  0  0  0  0  0  0  0
   11.8500   -9.3500    0.0000 C   0  0  0  0  0  0  0  0  0  0  0  0
  2  3  1  0
  1  3  2  0
  4  5  2  0
  1  5  1  0
  1  6  1  0
  2  7  1  0
  6  8  1  0
  9 12  1  0
  7 10  1  0
  8 11  1  0
  4 12  1  0
 10 13  1  0
  6 14  2  0
 11 15  2  0
 13 16  1  0
 13 17  2  0
 18 19  2  0
 17 19  1  0
 16 20  2  0
 18 21  1  0
 15 22  1  0
 11 23  1  0
 15 24  1  0
 22 25  1  0
 23 26  2  0
 26 27  1  0
  2  4  1  0
  9 10  1  0
 24 27  2  0
 18 20  1  0
M  END
>  <MOLFORMULA>  (320) 
C20 H18 F N3 O3

>  <MOLWEIGHT>  (320) 
3.673782000000000e+002

>  <IDNUMBER>  (320) 
AT-687/PE26859

>  <PRICE>  (320) 
EUR 80/10 mg

>  <Similarity score>  (320) 
0.21

$$$$

     RDKit          2D

 27 30  0  0  0  0  0  0  0  0999 V2000
    4.6417   -5.7417    0.0000 N   0  0  0  0  0  0  0  0  0  0  0  0
    6.0917   -7.3417    0.0000 C   0  0  0  0  0  0  0  0  0  0  0  0
    5.9500   -6.0250    0.0000 N   0  0  0  0  0  0  0  0  0  0  0  0
   10.7000   -7.3417    0.0000 C   0  0  0  0  0  0  0  0  0  0  0  0
    3.9917   -6.9000    0.0000 C   0  0  0  0  0  0  0  0  0  0  0  0
    4.8750   -7.8750    0.0000 C   0  0  0  0  0  0  0  0  0  0  0  0
   12.8000   -6.9000    0.0000 N   0  0  0  0  0  0  0  0  0  0  0  0
   12.1250   -5.7417    0.0000 N   0  0  0  0  0  0  0  0  0  0  0  0
    7.2417   -8.0042    0.0000 C   0  0  0  0  0  0  0  0  0  0  0  0
   10.8250   -6.0250    0.0000 C   0  0  0  0  0  0  0  0  0  0  0  0
    3.9917   -4.5750    0.0000 C   0  0  0  0  0  0  0  0  0  0  0  0
   11.9167   -7.8750    0.0000 C   0  0  0  0  0  0  0  0  0  0  0  0
    9.5500   -8.0042    0.0000 C   0  0  0  0  0  0  0  0  0  0  0  0
    1.9917   -5.7417    0.0000 O   0  0  0  0  0  0  0  0  0  0  0  0
    2.6542   -4.5750    0.0000 C   0  0  0  0  0  0  0  0  0  0  0  0
    8.3917   -7.3417    0.0000 N   0  0  0  0  0  0  0  0  0  0  0  0
    2.6542   -6.9000    0.0000 C   0  0  0  0  0  0  0  0  0  0  0  0
    1.9917   -3.4417    0.0000 C   0  0  0  0  0  0  0  0  0  0  0  0
    7.2417   -9.3417    0.0000 O   0  0  0  0  0  0  0  0  0  0  0  0
    2.6542   -2.3000    0.0000 C   0  0  0  0  0  0  0  0  0  0  0  0
    0.6542   -3.4417    0.0000 C   0  0  0  0  0  0  0  0  0  0  0  0
    0.6542   -1.1500    0.0000 C   0  0  0  0  0  0  0  0  0  0  0  0
    0.0000   -2.3000    0.0000 C   0  0  0  0  0  0  0  0  0  0  0  0
    1.9917   -1.1500    0.0000 C   0  0  0  0  0  0  0  0  0  0  0  0
    0.0000   -0.0000    0.0000 F   0  0  0  0  0  0  0  0  0  0  0  0
    9.8417   -5.1167    0.0000 C   0  0  0  0  0  0  0  0  0  0  0  0
   12.1792   -9.1917    0.0000 C   0  0  0  0  0  0  0  0  0  0  0  0
  2  3  2  0
  1  3  1  0
  4 13  1  0
  1  5  1  0
  5  6  2  0
  7 12  2  0
  8 10  1  0
  2  9  1  0
  4 10  2  0
  1 11  1  0
  4 12  1  0
 13 16  1  0
 14 15  1  0
 11 15  1  0
  9 16  1  0
  5 17  1  0
 15 18  1  0
  9 19  2  0
 18 20  1  0
 18 21  2  0
 22 23  2  0
 21 23  1  0
 20 24  2  0
 22 25  1  0
 10 26  1  0
 12 27  1  0
 14 17  1  0
  2  6  1  0
 22 24  1  0
  7  8  1  0
M  END
>  <MOLFORMULA>  (321) 
C19 H20 F N5 O2

>  <MOLWEIGHT>  (321) 
3.693980000000000e+002

>  <IDNUMBER>  (321) 
AT-687/PE26869

>  <PRICE>  (321) 
EUR 80/10 mg

>  <Similarity score>  (321) 
0.21

$$$$

     RDKit          2D

 36 40  0  0  0  0  0  0  0  0999 V2000
    0.3042   -2.6375    0.0000 C   0  0  0  0  0  0  0  0  0  0  0  0
   -0.4125   -3.0542    0.0000 N   0  0  0  0  0  0  0  0  0  0  0  0
    0.3042   -1.8125    0.0000 C   0  0  0  0  0  0  0  0  0  0  0  0
   -0.4125   -1.3917    0.0000 N   0  0  0  0  0  0  0  0  0  0  0  0
    1.0167   -1.3917    0.0000 C   0  0  0  0  0  0  0  0  0  0  0  0
    4.5875   -0.1542    0.0000 C   0  0  0  0  0  0  0  0  0  0  0  0
    3.8750   -0.5667    0.0000 N   0  0  0  0  0  0  0  0  0  0  0  0
    2.4417   -1.3917    0.0000 N   0  0  0  0  0  0  0  0  0  0  0  0
    1.7292   -1.8042    0.0000 C   0  0  0  0  0  0  0  0  0  0  0  0
   -0.4125   -0.5667    0.0000 C   0  0  0  0  0  0  0  0  0  0  0  0
    1.0167   -3.0500    0.0000 C   0  0  0  0  0  0  0  0  0  0  0  0
   -1.1208   -0.1542    0.0000 C   0  0  0  0  0  0  0  0  0  0  0  0
   -1.1333   -2.6417    0.0000 O   0  0  0  0  0  0  0  0  0  0  0  0
    4.5875    0.6708    0.0000 C   0  0  0  0  0  0  0  0  0  0  0  0
   -0.4125   -3.8792    0.0000 O   0  0  0  0  0  0  0  0  0  0  0  0
   -1.1250   -1.8042    0.0000 C   0  0  0  0  0  0  0  0  0  0  0  0
    3.8750   -1.3917    0.0000 C   0  0  0  0  0  0  0  0  0  0  0  0
    3.1542   -0.1542    0.0000 C   0  0  0  0  0  0  0  0  0  0  0  0
    3.1625   -1.8042    0.0000 C   0  0  0  0  0  0  0  0  0  0  0  0
    2.4417   -0.5667    0.0000 C   0  0  0  0  0  0  0  0  0  0  0  0
    5.3000   -0.5667    0.0000 O   0  0  0  0  0  0  0  0  0  0  0  0
    1.7292   -2.6375    0.0000 C   0  0  0  0  0  0  0  0  0  0  0  0
   -1.8458   -0.5667    0.0000 C   0  0  0  0  0  0  0  0  0  0  0  0
   -1.8458   -1.3917    0.0000 C   0  0  0  0  0  0  0  0  0  0  0  0
    3.8750    1.0750    0.0000 C   0  0  0  0  0  0  0  0  0  0  0  0
    5.3042    1.0833    0.0000 C   0  0  0  0  0  0  0  0  0  0  0  0
    4.5875    2.3208    0.0000 C   0  0  0  0  0  0  0  0  0  0  0  0
    5.3042    1.9083    0.0000 C   0  0  0  0  0  0  0  0  0  0  0  0
    3.8667    1.9000    0.0000 C   0  0  0  0  0  0  0  0  0  0  0  0
    4.5875    3.1458    0.0000 O   0  0  0  0  0  0  0  0  0  0  0  0
   -1.1208    0.6625    0.0000 C   0  0  0  0  0  0  0  0  0  0  0  0
   -2.5458   -0.1500    0.0000 C   0  0  0  0  0  0  0  0  0  0  0  0
    5.3000    3.5583    0.0000 C   0  0  0  0  0  0  0  0  0  0  0  0
    5.3000    4.3750    0.0000 C   0  0  0  0  0  0  0  0  0  0  0  0
   -1.8250    1.0833    0.0000 C   0  0  0  0  0  0  0  0  0  0  0  0
   -2.5458    0.6708    0.0000 C   0  0  0  0  0  0  0  0  0  0  0  0
  1  2  1  0
  1  3  2  0
  3  4  1  0
  3  5  1  0
  6  7  1  0
  7 18  1  0
  8  9  1  0
  9 22  1  0
  4 10  1  0
  1 11  1  0
 10 12  1  0
  2 13  1  0
  6 14  1  0
  2 15  2  0
  4 16  1  0
 17 19  1  0
 18 20  1  0
  8 19  1  0
  8 20  1  0
  6 21  2  0
 11 22  2  0
 23 24  1  0
 16 24  1  0
 14 25  1  0
 14 26  2  0
 27 28  2  0
 26 28  1  0
 25 29  2  0
 27 30  1  0
 12 31  1  0
 23 32  1  0
 30 33  1  0
 33 34  1  0
 31 35  2  0
 32 36  2  0
  5  9  2  0
 12 23  2  0
  7 17  1  0
 35 36  1  0
 27 29  1  0
M  CHG  2   2   1  13  -1
M  END
>  <MOLFORMULA>  (322) 
C28 H30 N4 O4

>  <MOLWEIGHT>  (322) 
4.865690000000000e+002

>  <IDNUMBER>  (322) 
AM-879/J185840

>  <PRICE>  (322) 
EUR 55.00/10 mg

>  <Similarity score>  (322) 
0.21

$$$$

     RDKit          2D

 30 33  0  0  0  0  0  0  0  0999 V2000
    8.0250   -5.9750    0.0000 C   0  0  0  0  0  0  0  0  0  0  0  0
    6.8750   -6.6292    0.0000 N   0  0  0  0  0  0  0  0  0  0  0  0
    8.0167   -4.6500    0.0000 N   0  0  0  0  0  0  0  0  0  0  0  0
    9.1750   -6.6292    0.0000 N   0  0  0  0  0  0  0  0  0  0  0  0
    6.8750   -7.9667    0.0000 C   0  0  0  0  0  0  0  0  0  0  0  0
    2.2667   -6.6417    0.0000 C   0  0  0  0  0  0  0  0  0  0  0  0
    2.2667   -7.9667    0.0000 N   0  0  0  0  0  0  0  0  0  0  0  0
    6.8750   -3.9792    0.0000 C   0  0  0  0  0  0  0  0  0  0  0  0
    8.0250   -8.6417    0.0000 C   0  0  0  0  0  0  0  0  0  0  0  0
    3.4167   -8.6417    0.0000 C   0  0  0  0  0  0  0  0  0  0  0  0
    3.4417   -5.9750    0.0000 C   0  0  0  0  0  0  0  0  0  0  0  0
    6.8750   -2.6500    0.0000 C   0  0  0  0  0  0  0  0  0  0  0  0
    9.1750   -7.9667    0.0000 C   0  0  0  0  0  0  0  0  0  0  0  0
    9.1750   -3.9792    0.0000 C   0  0  0  0  0  0  0  0  0  0  0  0
    1.1417   -5.9750    0.0000 C   0  0  0  0  0  0  0  0  0  0  0  0
    8.0167   -1.9750    0.0000 C   0  0  0  0  0  0  0  0  0  0  0  0
    5.7250   -8.6417    0.0000 O   0  0  0  0  0  0  0  0  0  0  0  0
    3.4167   -9.9667    0.0000 O   0  0  0  0  0  0  0  0  0  0  0  0
    9.1750   -2.6500    0.0000 C   0  0  0  0  0  0  0  0  0  0  0  0
    1.1250   -4.6500    0.0000 C   0  0  0  0  0  0  0  0  0  0  0  0
    3.4417   -4.6500    0.0000 C   0  0  0  0  0  0  0  0  0  0  0  0
    4.5792   -7.9667    0.0000 C   0  0  0  0  0  0  0  0  0  0  0  0
    2.2917   -3.9792    0.0000 C   0  0  0  0  0  0  0  0  0  0  0  0
    4.5792   -4.0000    0.0000 F   0  0  0  0  0  0  0  0  0  0  0  0
    5.7167   -2.0042    0.0000 C   0  0  0  0  0  0  0  0  0  0  0  0
   10.3292   -8.6417    0.0000 C   0  0  0  0  0  0  0  0  0  0  0  0
    0.0000   -6.6500    0.0000 C   0  0  0  0  0  0  0  0  0  0  0  0
    8.0042   -0.6500    0.0000 C   0  0  0  0  0  0  0  0  0  0  0  0
    5.7167   -0.6750    0.0000 C   0  0  0  0  0  0  0  0  0  0  0  0
    6.8500   -0.0000    0.0000 C   0  0  0  0  0  0  0  0  0  0  0  0
  1  2  2  0
  1  3  1  0
  1  4  1  0
  2  5  1  0
  6  7  1  0
  7 10  1  0
  3  8  1  0
  9 13  1  0
 10 22  1  0
  6 11  2  0
  8 12  1  0
  4 13  2  0
  3 14  1  0
  6 15  1  0
 16 19  1  0
  5 17  1  0
 10 18  2  0
 14 19  1  0
 15 20  2  0
 11 21  1  0
 17 22  1  0
 20 23  1  0
 21 24  1  0
 12 25  1  0
 13 26  1  0
 15 27  1  0
 16 28  1  0
 25 29  2  0
 28 30  2  0
  5  9  2  0
 12 16  2  0
 29 30  1  0
 21 23  2  0
M  END
>  <MOLFORMULA>  (323) 
C23 H23 F N4 O2

>  <MOLWEIGHT>  (323) 
4.064587000000000e+002

>  <IDNUMBER>  (323) 
AT-687/PE16673

>  <PRICE>  (323) 
EUR 80/10 mg

>  <Similarity score>  (323) 
0.21

$$$$

     RDKit          2D

 30 33  0  0  0  0  0  0  0  0999 V2000
    8.0292   -5.9792    0.0000 C   0  0  0  0  0  0  0  0  0  0  0  0
    6.8792   -6.6500    0.0000 N   0  0  0  0  0  0  0  0  0  0  0  0
    8.0250   -4.6500    0.0000 N   0  0  0  0  0  0  0  0  0  0  0  0
    9.1917   -6.6500    0.0000 N   0  0  0  0  0  0  0  0  0  0  0  0
    6.8792   -7.9750    0.0000 C   0  0  0  0  0  0  0  0  0  0  0  0
    6.8750   -4.0000    0.0000 C   0  0  0  0  0  0  0  0  0  0  0  0
    2.2750   -7.9750    0.0000 N   0  0  0  0  0  0  0  0  0  0  0  0
    2.2750   -6.6500    0.0000 C   0  0  0  0  0  0  0  0  0  0  0  0
    8.0292   -8.6417    0.0000 C   0  0  0  0  0  0  0  0  0  0  0  0
    1.1417   -5.9917    0.0000 C   0  0  0  0  0  0  0  0  0  0  0  0
    3.4167   -8.6417    0.0000 C   0  0  0  0  0  0  0  0  0  0  0  0
    6.8750   -2.6500    0.0000 C   0  0  0  0  0  0  0  0  0  0  0  0
    1.1292   -4.6500    0.0000 C   0  0  0  0  0  0  0  0  0  0  0  0
    9.1917   -7.9750    0.0000 C   0  0  0  0  0  0  0  0  0  0  0  0
    9.1750   -3.9917    0.0000 C   0  0  0  0  0  0  0  0  0  0  0  0
    8.0250   -1.9917    0.0000 C   0  0  0  0  0  0  0  0  0  0  0  0
    5.7250   -8.6417    0.0000 O   0  0  0  0  0  0  0  0  0  0  0  0
    3.4167   -9.9667    0.0000 O   0  0  0  0  0  0  0  0  0  0  0  0
    9.1750   -2.6500    0.0000 C   0  0  0  0  0  0  0  0  0  0  0  0
    3.4417   -5.9917    0.0000 C   0  0  0  0  0  0  0  0  0  0  0  0
    2.2750   -4.0000    0.0000 C   0  0  0  0  0  0  0  0  0  0  0  0
    4.5917   -7.9750    0.0000 C   0  0  0  0  0  0  0  0  0  0  0  0
    0.0000   -6.6500    0.0000 Cl  0  0  0  0  0  0  0  0  0  0  0  0
    3.4417   -4.6500    0.0000 C   0  0  0  0  0  0  0  0  0  0  0  0
    2.2750   -2.6750    0.0000 F   0  0  0  0  0  0  0  0  0  0  0  0
    5.7167   -2.0167    0.0000 C   0  0  0  0  0  0  0  0  0  0  0  0
   10.3417   -8.6417    0.0000 C   0  0  0  0  0  0  0  0  0  0  0  0
    8.0167   -0.6667    0.0000 C   0  0  0  0  0  0  0  0  0  0  0  0
    5.6917   -0.6917    0.0000 C   0  0  0  0  0  0  0  0  0  0  0  0
    6.8417   -0.0000    0.0000 C   0  0  0  0  0  0  0  0  0  0  0  0
  1  2  2  0
  1  3  1  0
  1  4  1  0
  2  5  1  0
  3  6  1  0
  7 11  1  0
  7  8  1  0
  9 14  1  0
  8 10  2  0
 11 22  1  0
  6 12  1  0
 10 13  1  0
  4 14  2  0
  3 15  1  0
 16 19  1  0
  5 17  1  0
 11 18  2  0
 15 19  1  0
  8 20  1  0
 21 24  1  0
 17 22  1  0
 10 23  1  0
 20 24  2  0
 21 25  1  0
 12 26  1  0
 14 27  1  0
 16 28  1  0
 26 29  2  0
 28 30  2  0
  5  9  2  0
 12 16  2  0
 29 30  1  0
 13 21  2  0
M  END
>  <MOLFORMULA>  (324) 
C22 H20 Cl F N4 O2

>  <MOLWEIGHT>  (324) 
4.268770000000000e+002

>  <IDNUMBER>  (324) 
AT-687/PE16672

>  <PRICE>  (324) 
EUR 80/10 mg

>  <Similarity score>  (324) 
0.21

$$$$

     RDKit          2D

 26 29  0  0  0  0  0  0  0  0999 V2000
    5.9792   -3.3167    0.0000 C   0  0  0  0  0  0  0  0  0  0  0  0
    8.0292   -2.6250    0.0000 N   0  0  0  0  0  0  0  0  0  0  0  0
    6.7542   -2.2417    0.0000 N   0  0  0  0  0  0  0  0  0  0  0  0
    8.0292   -3.9750    0.0000 C   0  0  0  0  0  0  0  0  0  0  0  0
    6.7750   -4.4000    0.0000 C   0  0  0  0  0  0  0  0  0  0  0  0
    4.6500   -3.3292    0.0000 C   0  0  0  0  0  0  0  0  0  0  0  0
    9.1792   -1.9750    0.0000 C   0  0  0  0  0  0  0  0  0  0  0  0
    3.9750   -2.1750    0.0000 N   0  0  0  0  0  0  0  0  0  0  0  0
   10.3417   -3.9750    0.0000 O   0  0  0  0  0  0  0  0  0  0  0  0
   10.3417   -2.6250    0.0000 C   0  0  0  0  0  0  0  0  0  0  0  0
    2.6417   -2.2000    0.0000 C   0  0  0  0  0  0  0  0  0  0  0  0
    9.1792   -4.6292    0.0000 C   0  0  0  0  0  0  0  0  0  0  0  0
   11.4917   -1.9792    0.0000 C   0  0  0  0  0  0  0  0  0  0  0  0
    3.9917   -4.4792    0.0000 O   0  0  0  0  0  0  0  0  0  0  0  0
    1.9792   -3.3500    0.0000 C   0  0  0  0  0  0  0  0  0  0  0  0
   11.4917   -0.6500    0.0000 C   0  0  0  0  0  0  0  0  0  0  0  0
   12.6417   -2.6417    0.0000 C   0  0  0  0  0  0  0  0  0  0  0  0
   13.8000   -0.6667    0.0000 C   0  0  0  0  0  0  0  0  0  0  0  0
    2.6417   -4.5000    0.0000 F   0  0  0  0  0  0  0  0  0  0  0  0
   12.6542   -0.0000    0.0000 C   0  0  0  0  0  0  0  0  0  0  0  0
   13.8000   -1.9792    0.0000 C   0  0  0  0  0  0  0  0  0  0  0  0
   14.9667   -0.0042    0.0000 Cl  0  0  0  0  0  0  0  0  0  0  0  0
    1.9792   -1.0417    0.0000 C   0  0  0  0  0  0  0  0  0  0  0  0
    0.6792   -3.3500    0.0000 C   0  0  0  0  0  0  0  0  0  0  0  0
    0.6500   -1.0417    0.0000 C   0  0  0  0  0  0  0  0  0  0  0  0
    0.0000   -2.2000    0.0000 C   0  0  0  0  0  0  0  0  0  0  0  0
  2  3  1  0
  1  3  2  0
  4  5  2  0
  1  5  1  0
  1  6  1  0
  2  7  1  0
  6  8  1  0
  9 12  1  0
  7 10  1  0
  8 11  1  0
  4 12  1  0
 10 13  1  0
  6 14  2  0
 11 15  2  0
 13 16  1  0
 13 17  2  0
 18 21  2  0
 15 19  1  0
 16 20  2  0
 17 21  1  0
 18 22  1  0
 11 23  1  0
 15 24  1  0
 23 25  2  0
 25 26  1  0
  2  4  1  0
  9 10  1  0
 24 26  2  0
 18 20  1  0
M  END
>  <MOLFORMULA>  (325) 
C19 H15 Cl F N3 O2

>  <MOLWEIGHT>  (325) 
3.717975000000000e+002

>  <IDNUMBER>  (325) 
AT-687/PE21208

>  <PRICE>  (325) 
EUR 80/10 mg

>  <Similarity score>  (325) 
0.21

$$$$

     RDKit          2D

 28 31  0  0  0  0  0  0  0  0999 V2000
    9.3292   -2.7250    0.0000 N   0  0  0  0  0  0  0  0  0  0  0  0
    7.2792   -3.4167    0.0000 C   0  0  0  0  0  0  0  0  0  0  0  0
    8.0667   -2.3417    0.0000 N   0  0  0  0  0  0  0  0  0  0  0  0
    9.3500   -4.0667    0.0000 C   0  0  0  0  0  0  0  0  0  0  0  0
    8.0750   -4.5000    0.0000 C   0  0  0  0  0  0  0  0  0  0  0  0
    5.9500   -3.4250    0.0000 C   0  0  0  0  0  0  0  0  0  0  0  0
   10.5000   -2.0500    0.0000 C   0  0  0  0  0  0  0  0  0  0  0  0
   11.6500   -4.0667    0.0000 O   0  0  0  0  0  0  0  0  0  0  0  0
   11.6500   -2.7250    0.0000 C   0  0  0  0  0  0  0  0  0  0  0  0
    5.3000   -4.5792    0.0000 N   0  0  0  0  0  0  0  0  0  0  0  0
   10.5000   -4.7250    0.0000 C   0  0  0  0  0  0  0  0  0  0  0  0
    1.3167   -2.3000    0.0000 C   0  0  0  0  0  0  0  0  0  0  0  0
   12.8000   -2.0750    0.0000 C   0  0  0  0  0  0  0  0  0  0  0  0
    1.9667   -1.1667    0.0000 C   0  0  0  0  0  0  0  0  0  0  0  0
    5.3000   -2.2750    0.0000 O   0  0  0  0  0  0  0  0  0  0  0  0
    1.9750   -3.4417    0.0000 C   0  0  0  0  0  0  0  0  0  0  0  0
   13.9500   -2.7500    0.0000 C   0  0  0  0  0  0  0  0  0  0  0  0
    3.3250   -1.1500    0.0000 C   0  0  0  0  0  0  0  0  0  0  0  0
   12.8000   -0.7542    0.0000 C   0  0  0  0  0  0  0  0  0  0  0  0
    3.3167   -3.4542    0.0000 C   0  0  0  0  0  0  0  0  0  0  0  0
    3.9750   -4.5792    0.0000 C   0  0  0  0  0  0  0  0  0  0  0  0
    0.0000   -2.3250    0.0000 Cl  0  0  0  0  0  0  0  0  0  0  0  0
   15.1042   -0.7542    0.0000 C   0  0  0  0  0  0  0  0  0  0  0  0
    1.3167   -0.0000    0.0000 F   0  0  0  0  0  0  0  0  0  0  0  0
    3.9750   -2.3000    0.0000 C   0  0  0  0  0  0  0  0  0  0  0  0
   13.9500   -0.0917    0.0000 C   0  0  0  0  0  0  0  0  0  0  0  0
   15.1000   -2.0750    0.0000 C   0  0  0  0  0  0  0  0  0  0  0  0
   16.2667   -0.1042    0.0000 Cl  0  0  0  0  0  0  0  0  0  0  0  0
  2  3  2  0
  1  3  1  0
  1  4  1  0
  4  5  2  0
  2  6  1  0
  1  7  1  0
  8  9  1  0
  7  9  1  0
  6 10  1  0
  4 11  1  0
 12 16  1  0
  9 13  1  0
 14 18  1  0
  6 15  2  0
 16 20  2  0
 13 17  2  0
 18 25  2  0
 13 19  1  0
 20 21  1  0
 10 21  1  0
 12 22  1  0
 23 26  1  0
 14 24  1  0
 20 25  1  0
 19 26  2  0
 17 27  1  0
 23 28  1  0
  8 11  1  0
  2  5  1  0
 23 27  2  0
 12 14  2  0
M  END
>  <MOLFORMULA>  (326) 
C20 H16 Cl2 F N3 O2

>  <MOLWEIGHT>  (326) 
4.202694000000000e+002

>  <IDNUMBER>  (326) 
AT-687/PE21281

>  <PRICE>  (326) 
EUR 80/10 mg

>  <Similarity score>  (326) 
0.21

$$$$

     RDKit          2D

 24 27  0  0  0  0  0  0  0  0999 V2000
   -0.2708   -0.4375    0.0000 C   0  0  0  0  0  0  0  0  0  0  0  0
    1.2250    0.4333    0.0000 N   0  0  0  0  0  0  0  0  0  0  0  0
   -1.2583   -0.4375    0.0000 C   0  0  0  0  0  0  0  0  0  0  0  0
   -0.2583   -2.1667    0.0000 C   0  0  0  0  0  0  0  0  0  0  0  0
    0.2500   -1.3000    0.0000 C   0  0  0  0  0  0  0  0  0  0  0  0
   -1.2583   -2.1750    0.0000 O   0  0  0  0  0  0  0  0  0  0  0  0
   -1.7500   -1.3042    0.0000 C   0  0  0  0  0  0  0  0  0  0  0  0
    0.2375    0.4333    0.0000 C   0  0  0  0  0  0  0  0  0  0  0  0
    1.7250    1.2833    0.0000 C   0  0  0  0  0  0  0  0  0  0  0  0
   -1.7500    0.4333    0.0000 C   0  0  0  0  0  0  0  0  0  0  0  0
    0.2500   -3.0250    0.0000 O   0  0  0  0  0  0  0  0  0  0  0  0
    2.7250    1.2833    0.0000 C   0  0  0  0  0  0  0  0  0  0  0  0
   -2.7583   -1.3042    0.0000 C   0  0  0  0  0  0  0  0  0  0  0  0
   -2.7583    0.4208    0.0000 C   0  0  0  0  0  0  0  0  0  0  0  0
    1.7250   -0.4625    0.0000 C   0  0  0  0  0  0  0  0  0  0  0  0
   -3.2458   -0.4500    0.0000 C   0  0  0  0  0  0  0  0  0  0  0  0
   -3.2458    1.2833    0.0000 O   0  0  0  0  0  0  0  0  0  0  0  0
    2.7375   -0.4542    0.0000 C   0  0  0  0  0  0  0  0  0  0  0  0
    1.2250    2.1500    0.0000 C   0  0  0  0  0  0  0  0  0  0  0  0
    3.2375    0.4208    0.0000 C   0  0  0  0  0  0  0  0  0  0  0  0
    3.2375    2.1500    0.0000 C   0  0  0  0  0  0  0  0  0  0  0  0
   -2.7583    2.1417    0.0000 C   0  0  0  0  0  0  0  0  0  0  0  0
    1.7250    3.0333    0.0000 C   0  0  0  0  0  0  0  0  0  0  0  0
    2.7375    3.0333    0.0000 C   0  0  0  0  0  0  0  0  0  0  0  0
  2  8  1  0
  1  3  1  0
  4  5  1  0
  1  5  2  0
  4  6  1  0
  3  7  1  0
  1  8  1  0
  2  9  1  0
  3 10  2  0
  4 11  2  0
  9 12  1  0
  7 13  2  0
 10 14  1  0
  2 15  1  0
 14 16  2  0
 14 17  1  0
 15 18  1  0
  9 19  2  0
 18 20  1  0
 12 21  2  0
 17 22  1  0
 19 23  1  0
 23 24  2  0
  6  7  1  0
 13 16  1  0
 12 20  1  0
 21 24  1  0
M  END
>  <MOLFORMULA>  (327) 
C20 H19 N O3

>  <MOLWEIGHT>  (327) 
3.213741000000000e+002

>  <IDNUMBER>  (327) 
AT-057/J151071

>  <PRICE>  (327) 
EUR 42.31/10 mg

>  <Similarity score>  (327) 
0.21

$$$$

     RDKit          2D

 31 34  0  0  0  0  0  0  0  0999 V2000
    8.0500   -5.9667    0.0000 C   0  0  0  0  0  0  0  0  0  0  0  0
    6.9000   -6.6250    0.0000 N   0  0  0  0  0  0  0  0  0  0  0  0
    8.0500   -4.6500    0.0000 N   0  0  0  0  0  0  0  0  0  0  0  0
    9.2000   -6.6250    0.0000 N   0  0  0  0  0  0  0  0  0  0  0  0
    2.2917   -6.6250    0.0000 C   0  0  0  0  0  0  0  0  0  0  0  0
    6.9000   -7.9667    0.0000 C   0  0  0  0  0  0  0  0  0  0  0  0
    2.2917   -7.9667    0.0000 N   0  0  0  0  0  0  0  0  0  0  0  0
    1.1500   -5.9917    0.0000 C   0  0  0  0  0  0  0  0  0  0  0  0
    3.4542   -5.9917    0.0000 C   0  0  0  0  0  0  0  0  0  0  0  0
    6.9000   -3.9917    0.0000 C   0  0  0  0  0  0  0  0  0  0  0  0
    8.0500   -8.6292    0.0000 C   0  0  0  0  0  0  0  0  0  0  0  0
    3.4417   -8.6292    0.0000 C   0  0  0  0  0  0  0  0  0  0  0  0
    6.9000   -2.6542    0.0000 C   0  0  0  0  0  0  0  0  0  0  0  0
    9.2000   -7.9667    0.0000 C   0  0  0  0  0  0  0  0  0  0  0  0
    9.2000   -4.0000    0.0000 C   0  0  0  0  0  0  0  0  0  0  0  0
    1.1500   -4.6542    0.0000 C   0  0  0  0  0  0  0  0  0  0  0  0
    3.4542   -4.6542    0.0000 C   0  0  0  0  0  0  0  0  0  0  0  0
    8.0500   -1.9792    0.0000 C   0  0  0  0  0  0  0  0  0  0  0  0
    2.3042   -4.0000    0.0000 C   0  0  0  0  0  0  0  0  0  0  0  0
    5.7500   -8.6292    0.0000 O   0  0  0  0  0  0  0  0  0  0  0  0
    3.4417   -9.9542    0.0000 O   0  0  0  0  0  0  0  0  0  0  0  0
    9.2000   -2.6542    0.0000 C   0  0  0  0  0  0  0  0  0  0  0  0
    4.6000   -7.9667    0.0000 C   0  0  0  0  0  0  0  0  0  0  0  0
    4.6042   -6.6500    0.0000 C   0  0  0  0  0  0  0  0  0  0  0  0
    0.0000   -6.6500    0.0000 C   0  0  0  0  0  0  0  0  0  0  0  0
    5.7500   -2.0000    0.0000 C   0  0  0  0  0  0  0  0  0  0  0  0
   10.3667   -8.6292    0.0000 C   0  0  0  0  0  0  0  0  0  0  0  0
    8.0250   -0.6500    0.0000 C   0  0  0  0  0  0  0  0  0  0  0  0
    2.3042   -2.6542    0.0000 C   0  0  0  0  0  0  0  0  0  0  0  0
    5.7417   -0.6917    0.0000 C   0  0  0  0  0  0  0  0  0  0  0  0
    6.8917   -0.0000    0.0000 C   0  0  0  0  0  0  0  0  0  0  0  0
  1  2  2  0
  1  3  1  0
  1  4  1  0
  5  7  1  0
  2  6  1  0
  7 12  1  0
  5  8  1  0
  5  9  2  0
  3 10  1  0
 11 14  1  0
 12 23  1  0
 10 13  1  0
  4 14  2  0
  3 15  1  0
  8 16  2  0
  9 17  1  0
 18 22  1  0
 17 19  2  0
  6 20  1  0
 12 21  2  0
 15 22  1  0
 20 23  1  0
  9 24  1  0
  8 25  1  0
 13 26  1  0
 14 27  1  0
 18 28  1  0
 19 29  1  0
 26 30  2  0
 28 31  2  0
  6 11  2  0
 13 18  2  0
 30 31  1  0
 16 19  1  0
M  END
>  <MOLFORMULA>  (328) 
C25 H28 N4 O2

>  <MOLWEIGHT>  (328) 
4.165222000000000e+002

>  <IDNUMBER>  (328) 
AT-687/PE16664

>  <PRICE>  (328) 
EUR 80/10 mg

>  <Similarity score>  (328) 
0.21

$$$$

     RDKit          2D

 26 29  0  0  0  0  0  0  0  0999 V2000
    2.7417   -4.0917    0.0000 C   0  0  0  0  0  0  0  0  0  0  0  0
    8.7250   -5.2417    0.0000 N   0  0  0  0  0  0  0  0  0  0  0  0
    6.7250   -6.4000    0.0000 C   0  0  0  0  0  0  0  0  0  0  0  0
    9.4000   -6.4000    0.0000 N   0  0  0  0  0  0  0  0  0  0  0  0
    4.7292   -5.2417    0.0000 N   0  0  0  0  0  0  0  0  0  0  0  0
    3.4042   -5.2417    0.0000 C   0  0  0  0  0  0  0  0  0  0  0  0
    1.4250   -3.9542    0.0000 N   0  0  0  0  0  0  0  0  0  0  0  0
    8.7250   -7.5500    0.0000 C   0  0  0  0  0  0  0  0  0  0  0  0
    7.4000   -5.2417    0.0000 C   0  0  0  0  0  0  0  0  0  0  0  0
    7.4000   -7.5500    0.0000 C   0  0  0  0  0  0  0  0  0  0  0  0
    3.2917   -2.8750    0.0000 C   0  0  0  0  0  0  0  0  0  0  0  0
    5.4000   -6.4000    0.0000 C   0  0  0  0  0  0  0  0  0  0  0  0
    1.1500   -2.6500    0.0000 C   0  0  0  0  0  0  0  0  0  0  0  0
    2.3000   -1.9917    0.0000 C   0  0  0  0  0  0  0  0  0  0  0  0
    6.7250   -4.0917    0.0000 C   0  0  0  0  0  0  0  0  0  0  0  0
    5.4000   -4.0917    0.0000 C   0  0  0  0  0  0  0  0  0  0  0  0
    2.7417   -6.4000    0.0000 O   0  0  0  0  0  0  0  0  0  0  0  0
    9.4000   -8.7000    0.0000 O   0  0  0  0  0  0  0  0  0  0  0  0
   10.7250   -6.4000    0.0000 C   0  0  0  0  0  0  0  0  0  0  0  0
   12.7167   -5.2417    0.0000 O   0  0  0  0  0  0  0  0  0  0  0  0
    0.0000   -1.9917    0.0000 C   0  0  0  0  0  0  0  0  0  0  0  0
    2.3000   -0.6500    0.0000 C   0  0  0  0  0  0  0  0  0  0  0  0
   11.3917   -5.2417    0.0000 C   0  0  0  0  0  0  0  0  0  0  0  0
   13.3792   -4.0917    0.0000 C   0  0  0  0  0  0  0  0  0  0  0  0
    0.0000   -0.6500    0.0000 C   0  0  0  0  0  0  0  0  0  0  0  0
    1.1500   -0.0000    0.0000 C   0  0  0  0  0  0  0  0  0  0  0  0
  2  9  2  0
  3 12  1  0
  2  4  1  0
  5  6  1  0
  1  6  1  0
  1  7  1  0
  8 10  1  0
  9 15  1  0
  3 10  2  0
  1 11  2  0
  5 12  1  0
  7 13  1  0
 11 14  1  0
 15 16  1  0
  5 16  1  0
  6 17  2  0
  8 18  2  0
  4 19  1  0
 20 23  1  0
 13 21  1  0
 14 22  1  0
 19 23  1  0
 20 24  1  0
 21 25  2  0
 22 26  2  0
 13 14  2  0
 25 26  1  0
  3  9  1  0
  4  8  1  0
M  END
>  <MOLFORMULA>  (329) 
C19 H20 N4 O3

>  <MOLWEIGHT>  (329) 
3.523920000000000e+002

>  <IDNUMBER>  (329) 
AT-687/PE26887

>  <PRICE>  (329) 
EUR 80/10 mg

>  <Similarity score>  (329) 
0.21

$$$$

     RDKit          2D

 30 34  0  0  0  0  0  0  0  0999 V2000
    9.3250   -4.1000    0.0000 N   0  0  0  0  0  0  0  0  0  0  0  0
    7.2917   -4.7750    0.0000 C   0  0  0  0  0  0  0  0  0  0  0  0
    8.0542   -3.7000    0.0000 N   0  0  0  0  0  0  0  0  0  0  0  0
    9.3500   -5.4292    0.0000 C   0  0  0  0  0  0  0  0  0  0  0  0
    8.0750   -5.8500    0.0000 C   0  0  0  0  0  0  0  0  0  0  0  0
    5.9500   -4.7917    0.0000 C   0  0  0  0  0  0  0  0  0  0  0  0
   10.4917   -3.4250    0.0000 C   0  0  0  0  0  0  0  0  0  0  0  0
   11.6500   -5.4292    0.0000 O   0  0  0  0  0  0  0  0  0  0  0  0
   11.6500   -4.1000    0.0000 C   0  0  0  0  0  0  0  0  0  0  0  0
   13.9500   -1.4542    0.0000 C   0  0  0  0  0  0  0  0  0  0  0  0
   12.7917   -3.4417    0.0000 C   0  0  0  0  0  0  0  0  0  0  0  0
    5.3042   -5.9292    0.0000 N   0  0  0  0  0  0  0  0  0  0  0  0
   12.7917   -2.1250    0.0000 C   0  0  0  0  0  0  0  0  0  0  0  0
   10.4917   -6.1000    0.0000 C   0  0  0  0  0  0  0  0  0  0  0  0
   15.1042   -2.1000    0.0000 C   0  0  0  0  0  0  0  0  0  0  0  0
    3.3042   -4.8250    0.0000 C   0  0  0  0  0  0  0  0  0  0  0  0
   14.2417   -0.1500    0.0000 O   0  0  0  0  0  0  0  0  0  0  0  0
   16.0917   -1.2292    0.0000 O   0  0  0  0  0  0  0  0  0  0  0  0
   15.5667   -0.0000    0.0000 C   0  0  0  0  0  0  0  0  0  0  0  0
    3.9500   -5.9500    0.0000 C   0  0  0  0  0  0  0  0  0  0  0  0
    5.2917   -3.6500    0.0000 O   0  0  0  0  0  0  0  0  0  0  0  0
    1.9917   -4.8042    0.0000 C   0  0  0  0  0  0  0  0  0  0  0  0
   13.9292   -4.1000    0.0000 C   0  0  0  0  0  0  0  0  0  0  0  0
   15.1042   -3.4500    0.0000 C   0  0  0  0  0  0  0  0  0  0  0  0
    1.3167   -5.9792    0.0000 O   0  0  0  0  0  0  0  0  0  0  0  0
    3.9750   -3.6750    0.0000 C   0  0  0  0  0  0  0  0  0  0  0  0
    1.3250   -3.6750    0.0000 C   0  0  0  0  0  0  0  0  0  0  0  0
    0.0000   -5.9667    0.0000 C   0  0  0  0  0  0  0  0  0  0  0  0
    3.3250   -2.5250    0.0000 C   0  0  0  0  0  0  0  0  0  0  0  0
    1.9917   -2.5250    0.0000 C   0  0  0  0  0  0  0  0  0  0  0  0
  2  3  2  0
  1  3  1  0
  1  4  1  0
  4  5  2  0
  2  6  1  0
  1  7  1  0
  8  9  1  0
  7  9  1  0
 10 13  1  0
  9 11  1  0
  6 12  1  0
 11 13  2  0
  4 14  1  0
 15 24  1  0
 16 20  1  0
 10 17  1  0
 15 18  1  0
 17 19  1  0
 12 20  1  0
  6 21  2  0
 16 22  2  0
 11 23  1  0
 23 24  2  0
 22 25  1  0
 16 26  1  0
 22 27  1  0
 25 28  1  0
 26 29  2  0
 29 30  1  0
  8 14  1  0
  2  5  1  0
 10 15  2  0
 18 19  1  0
 27 30  2  0
M  END
>  <MOLFORMULA>  (330) 
C22 H21 N3 O5

>  <MOLWEIGHT>  (330) 
4.074239000000000e+002

>  <IDNUMBER>  (330) 
AT-687/PE21316

>  <PRICE>  (330) 
EUR 80/10 mg

>  <Similarity score>  (330) 
0.21

$$$$

     RDKit          2D

 29 32  0  0  0  0  0  0  0  0999 V2000
    6.0917   -7.3500    0.0000 C   0  0  0  0  0  0  0  0  0  0  0  0
    4.6500   -5.7542    0.0000 N   0  0  0  0  0  0  0  0  0  0  0  0
    5.9500   -6.0250    0.0000 N   0  0  0  0  0  0  0  0  0  0  0  0
    3.9792   -6.9000    0.0000 C   0  0  0  0  0  0  0  0  0  0  0  0
    4.8750   -7.8917    0.0000 C   0  0  0  0  0  0  0  0  0  0  0  0
    7.2417   -8.0167    0.0000 C   0  0  0  0  0  0  0  0  0  0  0  0
    3.9792   -4.6000    0.0000 C   0  0  0  0  0  0  0  0  0  0  0  0
    2.0000   -5.7542    0.0000 O   0  0  0  0  0  0  0  0  0  0  0  0
    8.3917   -7.3500    0.0000 N   0  0  0  0  0  0  0  0  0  0  0  0
    2.6500   -4.6000    0.0000 C   0  0  0  0  0  0  0  0  0  0  0  0
    2.6500   -6.9000    0.0000 C   0  0  0  0  0  0  0  0  0  0  0  0
    9.5500  -12.0000    0.0000 C   0  0  0  0  0  0  0  0  0  0  0  0
   10.6917  -11.3292    0.0000 N   0  0  0  0  0  0  0  0  0  0  0  0
    2.0000   -3.4500    0.0000 C   0  0  0  0  0  0  0  0  0  0  0  0
    9.5500   -8.0167    0.0000 C   0  0  0  0  0  0  0  0  0  0  0  0
    7.2417   -9.3500    0.0000 O   0  0  0  0  0  0  0  0  0  0  0  0
    9.5500   -9.3500    0.0000 C   0  0  0  0  0  0  0  0  0  0  0  0
   10.6917  -10.0167    0.0000 C   0  0  0  0  0  0  0  0  0  0  0  0
    8.3917  -11.3292    0.0000 O   0  0  0  0  0  0  0  0  0  0  0  0
    2.6500   -2.3000    0.0000 C   0  0  0  0  0  0  0  0  0  0  0  0
    0.6667   -3.4500    0.0000 C   0  0  0  0  0  0  0  0  0  0  0  0
    0.6667   -1.1417    0.0000 C   0  0  0  0  0  0  0  0  0  0  0  0
    0.0000   -2.3000    0.0000 C   0  0  0  0  0  0  0  0  0  0  0  0
    2.0000   -1.1417    0.0000 C   0  0  0  0  0  0  0  0  0  0  0  0
    0.0000   -0.0000    0.0000 F   0  0  0  0  0  0  0  0  0  0  0  0
   11.8417   -8.0167    0.0000 C   0  0  0  0  0  0  0  0  0  0  0  0
    9.5500  -13.3292    0.0000 C   0  0  0  0  0  0  0  0  0  0  0  0
   10.6917   -7.3500    0.0000 C   0  0  0  0  0  0  0  0  0  0  0  0
   11.8417   -9.3500    0.0000 C   0  0  0  0  0  0  0  0  0  0  0  0
  2  3  1  0
  1  3  2  0
  4  5  2  0
  1  5  1  0
  1  6  1  0
  2  7  1  0
  8 11  1  0
  6  9  1  0
  7 10  1  0
  4 11  1  0
 12 13  1  0
 13 18  1  0
 10 14  1  0
  9 15  1  0
  6 16  2  0
 15 17  2  0
 17 18  1  0
 12 19  2  0
 14 20  1  0
 14 21  2  0
 22 23  2  0
 21 23  1  0
 20 24  2  0
 22 25  1  0
 26 28  2  0
 12 27  1  0
 15 28  1  0
 26 29  1  0
  2  4  1  0
  8 10  1  0
 18 29  2  0
 22 24  1  0
M  END
>  <MOLFORMULA>  (331) 
C21 H19 F N4 O3

>  <MOLWEIGHT>  (331) 
3.944041000000000e+002

>  <IDNUMBER>  (331) 
AT-687/PE26866

>  <PRICE>  (331) 
EUR 80/10 mg

>  <Similarity score>  (331) 
0.21

$$$$

     RDKit          2D

 31 34  0  0  0  0  0  0  0  0999 V2000
    7.9542   -3.4167    0.0000 C   0  0  0  0  0  0  0  0  0  0  0  0
   10.0042   -2.7417    0.0000 N   0  0  0  0  0  0  0  0  0  0  0  0
    8.7417   -2.3292    0.0000 N   0  0  0  0  0  0  0  0  0  0  0  0
   10.0042   -4.0667    0.0000 C   0  0  0  0  0  0  0  0  0  0  0  0
    8.7500   -4.5000    0.0000 C   0  0  0  0  0  0  0  0  0  0  0  0
    6.6250   -3.4292    0.0000 C   0  0  0  0  0  0  0  0  0  0  0  0
   11.1542   -2.0667    0.0000 C   0  0  0  0  0  0  0  0  0  0  0  0
    1.9542   -2.3000    0.0000 C   0  0  0  0  0  0  0  0  0  0  0  0
    2.6417   -3.4500    0.0000 C   0  0  0  0  0  0  0  0  0  0  0  0
    2.6250   -1.1500    0.0000 C   0  0  0  0  0  0  0  0  0  0  0  0
    5.9542   -2.2750    0.0000 N   0  0  0  0  0  0  0  0  0  0  0  0
    4.6417   -2.3000    0.0000 C   0  0  0  0  0  0  0  0  0  0  0  0
   12.3167   -4.0667    0.0000 O   0  0  0  0  0  0  0  0  0  0  0  0
   12.3167   -2.7417    0.0000 C   0  0  0  0  0  0  0  0  0  0  0  0
    3.9417   -3.4500    0.0000 C   0  0  0  0  0  0  0  0  0  0  0  0
    3.9417   -1.1500    0.0000 C   0  0  0  0  0  0  0  0  0  0  0  0
   11.1542   -4.7417    0.0000 C   0  0  0  0  0  0  0  0  0  0  0  0
   13.4667   -2.0750    0.0000 C   0  0  0  0  0  0  0  0  0  0  0  0
    5.9542   -4.5917    0.0000 O   0  0  0  0  0  0  0  0  0  0  0  0
   13.4667   -0.7542    0.0000 C   0  0  0  0  0  0  0  0  0  0  0  0
   14.6167   -2.7417    0.0000 C   0  0  0  0  0  0  0  0  0  0  0  0
    0.6417   -2.3000    0.0000 O   0  0  0  0  0  0  0  0  0  0  0  0
    1.9750   -4.5917    0.0000 O   0  0  0  0  0  0  0  0  0  0  0  0
    1.9542   -0.0000    0.0000 O   0  0  0  0  0  0  0  0  0  0  0  0
   15.7917   -0.7542    0.0000 C   0  0  0  0  0  0  0  0  0  0  0  0
   14.6292   -0.0917    0.0000 C   0  0  0  0  0  0  0  0  0  0  0  0
   15.7667   -2.0750    0.0000 C   0  0  0  0  0  0  0  0  0  0  0  0
   16.9417   -0.0917    0.0000 Cl  0  0  0  0  0  0  0  0  0  0  0  0
    0.0000   -3.4667    0.0000 C   0  0  0  0  0  0  0  0  0  0  0  0
    2.6417   -5.7417    0.0000 C   0  0  0  0  0  0  0  0  0  0  0  0
    0.6417   -0.0000    0.0000 C   0  0  0  0  0  0  0  0  0  0  0  0
  2  3  1  0
  1  3  2  0
  4  5  2  0
  1  5  1  0
  1  6  1  0
  2  7  1  0
  8 10  1  0
  9 15  1  0
 10 16  2  0
  6 11  1  0
 11 12  1  0
 13 17  1  0
  7 14  1  0
 12 15  2  0
 12 16  1  0
  4 17  1  0
 14 18  1  0
  6 19  2  0
 18 20  1  0
 18 21  2  0
  8 22  1  0
  9 23  1  0
 10 24  1  0
 25 27  2  0
 20 26  2  0
 21 27  1  0
 25 28  1  0
 22 29  1  0
 23 30  1  0
 24 31  1  0
  2  4  1  0
 13 14  1  0
  8  9  2  0
 25 26  1  0
M  END
>  <MOLFORMULA>  (332) 
C22 H22 Cl N3 O5

>  <MOLWEIGHT>  (332) 
4.438848000000000e+002

>  <IDNUMBER>  (332) 
AT-687/PE21201

>  <PRICE>  (332) 
EUR 80/10 mg

>  <Similarity score>  (332) 
0.21

$$$$

     RDKit          2D

 36 41  0  0  0  0  0  0  0  0999 V2000
    5.8000   -5.9750    0.0000 C   0  0  0  0  0  0  0  0  0  0  0  0
    4.6417   -6.6417    0.0000 C   0  0  0  0  0  0  0  0  0  0  0  0
    3.5000   -5.9750    0.0000 O   0  0  0  0  0  0  0  0  0  0  0  0
    3.5000   -4.6500    0.0000 C   0  0  0  0  0  0  0  0  0  0  0  0
    2.3500   -3.9917    0.0000 C   0  0  0  0  0  0  0  0  0  0  0  0
    5.8000   -4.6500    0.0000 C   0  0  0  0  0  0  0  0  0  0  0  0
    6.9667   -6.6500    0.0000 C   0  0  0  0  0  0  0  0  0  0  0  0
    4.6417   -3.9917    0.0000 C   0  0  0  0  0  0  0  0  0  0  0  0
    2.3500   -2.6542    0.0000 C   0  0  0  0  0  0  0  0  0  0  0  0
    4.6167   -7.9667    0.0000 N   0  0  0  0  0  0  0  0  0  0  0  0
    3.5000   -2.0000    0.0000 C   0  0  0  0  0  0  0  0  0  0  0  0
    6.9750   -7.9792    0.0000 N   0  0  0  0  0  0  0  0  0  0  0  0
    1.2000   -2.0000    0.0000 N   0  0  0  0  0  0  0  0  0  0  0  0
    4.6417   -2.6542    0.0000 C   0  0  0  0  0  0  0  0  0  0  0  0
    8.1167   -8.6500    0.0000 C   0  0  0  0  0  0  0  0  0  0  0  0
    8.1000   -5.9917    0.0000 O   0  0  0  0  0  0  0  0  0  0  0  0
    9.2500   -7.9792    0.0000 C   0  0  0  0  0  0  0  0  0  0  0  0
    3.4750   -8.6250    0.0000 C   0  0  0  0  0  0  0  0  0  0  0  0
    1.2042   -4.6500    0.0000 C   0  0  0  0  0  0  0  0  0  0  0  0
    1.1500   -9.9500    0.0000 C   0  0  0  0  0  0  0  0  0  0  0  0
    3.5000   -0.6500    0.0000 C   0  0  0  0  0  0  0  0  0  0  0  0
    0.0000  -10.6000    0.0000 F   0  0  0  0  0  0  0  0  0  0  0  0
    1.2000   -0.6500    0.0000 C   0  0  0  0  0  0  0  0  0  0  0  0
    0.0417   -2.6542    0.0000 C   0  0  0  0  0  0  0  0  0  0  0  0
    2.3167   -7.9500    0.0000 C   0  0  0  0  0  0  0  0  0  0  0  0
    3.4667   -9.9500    0.0000 C   0  0  0  0  0  0  0  0  0  0  0  0
    2.3167  -10.6167    0.0000 C   0  0  0  0  0  0  0  0  0  0  0  0
    1.1667   -8.6000    0.0000 C   0  0  0  0  0  0  0  0  0  0  0  0
    9.2500   -6.6667    0.0000 O   0  0  0  0  0  0  0  0  0  0  0  0
    0.0417   -3.9917    0.0000 C   0  0  0  0  0  0  0  0  0  0  0  0
    2.3500   -0.0000    0.0000 C   0  0  0  0  0  0  0  0  0  0  0  0
    8.1167   -9.9917    0.0000 C   0  0  0  0  0  0  0  0  0  0  0  0
   10.4167   -8.6500    0.0000 C   0  0  0  0  0  0  0  0  0  0  0  0
   10.3917   -5.9917    0.0000 C   0  0  0  0  0  0  0  0  0  0  0  0
    9.2500  -10.6500    0.0000 C   0  0  0  0  0  0  0  0  0  0  0  0
   10.4167   -9.9917    0.0000 C   0  0  0  0  0  0  0  0  0  0  0  0
  1  2  1  0
  2  3  1  0
  4  8  2  0
  4  5  1  0
  1  6  2  0
  1  7  1  0
  6  8  1  0
  9 11  1  0
  2 10  2  0
 11 14  2  0
  7 12  1  0
  9 13  1  0
  8 14  1  0
 12 15  1  0
  7 16  2  0
 15 17  2  0
 10 18  1  0
  5 19  1  0
 20 27  2  0
 11 21  1  0
 20 22  1  0
 23 31  1  0
 13 24  1  0
 18 25  1  0
 18 26  2  0
 26 27  1  0
 25 28  2  0
 17 29  1  0
 19 30  1  0
 21 31  1  0
 15 32  1  0
 17 33  1  0
 29 34  1  0
 32 35  2  0
 35 36  1  0
  3  4  1  0
  5  9  2  0
 20 28  1  0
 33 36  2  0
 24 30  1  0
 13 23  1  0
M  END
>  <MOLFORMULA>  (333) 
C29 H26 F N3 O3

>  <MOLWEIGHT>  (333) 
4.835404000000000e+002

>  <IDNUMBER>  (333) 
AT-687/PE10213

>  <PRICE>  (333) 
EUR 80/10 mg

>  <Similarity score>  (333) 
0.20

$$$$

     RDKit          2D

 31 34  0  0  0  0  0  0  0  0999 V2000
    7.9542   -3.4167    0.0000 C   0  0  0  0  0  0  0  0  0  0  0  0
   10.0042   -2.7417    0.0000 N   0  0  0  0  0  0  0  0  0  0  0  0
    8.7417   -2.3292    0.0000 N   0  0  0  0  0  0  0  0  0  0  0  0
   10.0042   -4.0667    0.0000 C   0  0  0  0  0  0  0  0  0  0  0  0
    8.7500   -4.5000    0.0000 C   0  0  0  0  0  0  0  0  0  0  0  0
    6.6250   -3.4292    0.0000 C   0  0  0  0  0  0  0  0  0  0  0  0
   11.1542   -2.0667    0.0000 C   0  0  0  0  0  0  0  0  0  0  0  0
    1.9542   -2.3000    0.0000 C   0  0  0  0  0  0  0  0  0  0  0  0
    2.6417   -3.4500    0.0000 C   0  0  0  0  0  0  0  0  0  0  0  0
    2.6250   -1.1500    0.0000 C   0  0  0  0  0  0  0  0  0  0  0  0
    5.9542   -2.2750    0.0000 N   0  0  0  0  0  0  0  0  0  0  0  0
    4.6417   -2.3000    0.0000 C   0  0  0  0  0  0  0  0  0  0  0  0
   12.3167   -4.0667    0.0000 O   0  0  0  0  0  0  0  0  0  0  0  0
   12.3167   -2.7417    0.0000 C   0  0  0  0  0  0  0  0  0  0  0  0
    3.9417   -3.4500    0.0000 C   0  0  0  0  0  0  0  0  0  0  0  0
    3.9417   -1.1500    0.0000 C   0  0  0  0  0  0  0  0  0  0  0  0
   11.1542   -4.7417    0.0000 C   0  0  0  0  0  0  0  0  0  0  0  0
   13.4667   -2.0750    0.0000 C   0  0  0  0  0  0  0  0  0  0  0  0
    5.9542   -4.5917    0.0000 O   0  0  0  0  0  0  0  0  0  0  0  0
   13.4667   -0.7542    0.0000 C   0  0  0  0  0  0  0  0  0  0  0  0
   14.6167   -2.7417    0.0000 C   0  0  0  0  0  0  0  0  0  0  0  0
    0.6417   -2.3000    0.0000 O   0  0  0  0  0  0  0  0  0  0  0  0
    1.9750   -4.5917    0.0000 O   0  0  0  0  0  0  0  0  0  0  0  0
    1.9542   -0.0000    0.0000 O   0  0  0  0  0  0  0  0  0  0  0  0
   15.7917   -0.7542    0.0000 C   0  0  0  0  0  0  0  0  0  0  0  0
   14.6292   -0.0917    0.0000 C   0  0  0  0  0  0  0  0  0  0  0  0
   15.7667   -2.0750    0.0000 C   0  0  0  0  0  0  0  0  0  0  0  0
   16.9417   -0.0917    0.0000 Br  0  0  0  0  0  0  0  0  0  0  0  0
    0.0000   -3.4667    0.0000 C   0  0  0  0  0  0  0  0  0  0  0  0
    2.6417   -5.7417    0.0000 C   0  0  0  0  0  0  0  0  0  0  0  0
    0.6417   -0.0000    0.0000 C   0  0  0  0  0  0  0  0  0  0  0  0
  2  3  1  0
  1  3  2  0
  4  5  2  0
  1  5  1  0
  1  6  1  0
  2  7  1  0
  8 10  1  0
  9 15  1  0
 10 16  2  0
  6 11  1  0
 11 12  1  0
 13 17  1  0
  7 14  1  0
 12 15  2  0
 12 16  1  0
  4 17  1  0
 14 18  1  0
  6 19  2  0
 18 20  1  0
 18 21  2  0
  8 22  1  0
  9 23  1  0
 10 24  1  0
 25 27  2  0
 20 26  2  0
 21 27  1  0
 25 28  1  0
 22 29  1  0
 23 30  1  0
 24 31  1  0
  2  4  1  0
 13 14  1  0
  8  9  2  0
 25 26  1  0
M  END
>  <MOLFORMULA>  (334) 
C22 H22 Br N3 O5

>  <MOLWEIGHT>  (334) 
4.883358000000000e+002

>  <IDNUMBER>  (334) 
AT-687/PE21224

>  <PRICE>  (334) 
EUR 80/10 mg

>  <Similarity score>  (334) 
0.20

$$$$

     RDKit          2D

 30 33  0  0  0  0  0  0  0  0999 V2000
    8.0417   -5.9750    0.0000 C   0  0  0  0  0  0  0  0  0  0  0  0
    6.8917   -6.6417    0.0000 N   0  0  0  0  0  0  0  0  0  0  0  0
    8.0250   -4.6417    0.0000 N   0  0  0  0  0  0  0  0  0  0  0  0
    9.1917   -6.6417    0.0000 N   0  0  0  0  0  0  0  0  0  0  0  0
    6.8917   -7.9667    0.0000 C   0  0  0  0  0  0  0  0  0  0  0  0
    6.8750   -3.9750    0.0000 C   0  0  0  0  0  0  0  0  0  0  0  0
    2.2750   -7.9667    0.0000 N   0  0  0  0  0  0  0  0  0  0  0  0
    2.2750   -6.6417    0.0000 C   0  0  0  0  0  0  0  0  0  0  0  0
    8.0417   -8.6417    0.0000 C   0  0  0  0  0  0  0  0  0  0  0  0
    3.4250   -8.6417    0.0000 C   0  0  0  0  0  0  0  0  0  0  0  0
    6.8750   -2.6500    0.0000 C   0  0  0  0  0  0  0  0  0  0  0  0
    1.1417   -5.9917    0.0000 C   0  0  0  0  0  0  0  0  0  0  0  0
    9.1917   -7.9667    0.0000 C   0  0  0  0  0  0  0  0  0  0  0  0
    9.1917   -3.9750    0.0000 C   0  0  0  0  0  0  0  0  0  0  0  0
    8.0250   -1.9917    0.0000 C   0  0  0  0  0  0  0  0  0  0  0  0
    1.1292   -4.6667    0.0000 C   0  0  0  0  0  0  0  0  0  0  0  0
    5.7250   -8.6417    0.0000 O   0  0  0  0  0  0  0  0  0  0  0  0
    3.4250   -9.9667    0.0000 O   0  0  0  0  0  0  0  0  0  0  0  0
    9.1917   -2.6500    0.0000 C   0  0  0  0  0  0  0  0  0  0  0  0
    3.4417   -5.9917    0.0000 C   0  0  0  0  0  0  0  0  0  0  0  0
    4.5917   -7.9667    0.0000 C   0  0  0  0  0  0  0  0  0  0  0  0
    2.2917   -3.9917    0.0000 C   0  0  0  0  0  0  0  0  0  0  0  0
    3.4417   -4.6667    0.0000 C   0  0  0  0  0  0  0  0  0  0  0  0
    5.7250   -2.0167    0.0000 C   0  0  0  0  0  0  0  0  0  0  0  0
    0.0000   -6.6500    0.0000 C   0  0  0  0  0  0  0  0  0  0  0  0
   10.3500   -8.6417    0.0000 C   0  0  0  0  0  0  0  0  0  0  0  0
    8.0167   -0.6542    0.0000 C   0  0  0  0  0  0  0  0  0  0  0  0
    2.2917   -2.6667    0.0000 C   0  0  0  0  0  0  0  0  0  0  0  0
    5.7250   -0.6750    0.0000 C   0  0  0  0  0  0  0  0  0  0  0  0
    6.8542   -0.0000    0.0000 C   0  0  0  0  0  0  0  0  0  0  0  0
  1  2  2  0
  1  3  1  0
  1  4  1  0
  2  5  1  0
  3  6  1  0
  7 10  1  0
  7  8  1  0
  9 13  1  0
 10 21  1  0
  6 11  1  0
  8 12  2  0
  4 13  2  0
  3 14  1  0
 15 19  1  0
 12 16  1  0
  5 17  1  0
 10 18  2  0
 14 19  1  0
  8 20  1  0
 17 21  1  0
 22 23  1  0
 20 23  2  0
 11 24  1  0
 12 25  1  0
 13 26  1  0
 15 27  1  0
 22 28  1  0
 24 29  2  0
 27 30  2  0
  5  9  2  0
 11 15  2  0
 29 30  1  0
 16 22  2  0
M  END
>  <MOLFORMULA>  (335) 
C24 H26 N4 O2

>  <MOLWEIGHT>  (335) 
4.024954000000000e+002

>  <IDNUMBER>  (335) 
AT-687/PE16659

>  <PRICE>  (335) 
EUR 80/10 mg

>  <Similarity score>  (335) 
0.20

$$$$

     RDKit          2D

 28 32  0  0  0  0  0  0  0  0999 V2000
    7.2917   -4.8000    0.0000 C   0  0  0  0  0  0  0  0  0  0  0  0
    9.3417   -4.1000    0.0000 N   0  0  0  0  0  0  0  0  0  0  0  0
    8.0667   -3.7000    0.0000 N   0  0  0  0  0  0  0  0  0  0  0  0
    9.3500   -5.4417    0.0000 C   0  0  0  0  0  0  0  0  0  0  0  0
    8.0750   -5.8542    0.0000 C   0  0  0  0  0  0  0  0  0  0  0  0
    5.9500   -4.8000    0.0000 C   0  0  0  0  0  0  0  0  0  0  0  0
   10.5000   -3.4417    0.0000 C   0  0  0  0  0  0  0  0  0  0  0  0
   11.6500   -5.4417    0.0000 O   0  0  0  0  0  0  0  0  0  0  0  0
   11.6500   -4.1000    0.0000 C   0  0  0  0  0  0  0  0  0  0  0  0
    5.2917   -3.6500    0.0000 N   0  0  0  0  0  0  0  0  0  0  0  0
   13.9542   -1.4417    0.0000 C   0  0  0  0  0  0  0  0  0  0  0  0
   12.8000   -3.4417    0.0000 C   0  0  0  0  0  0  0  0  0  0  0  0
   12.8000   -2.1250    0.0000 C   0  0  0  0  0  0  0  0  0  0  0  0
   10.5000   -6.1000    0.0000 C   0  0  0  0  0  0  0  0  0  0  0  0
   15.1250   -2.1250    0.0000 C   0  0  0  0  0  0  0  0  0  0  0  0
   14.2500   -0.1500    0.0000 O   0  0  0  0  0  0  0  0  0  0  0  0
   16.1000   -1.2292    0.0000 O   0  0  0  0  0  0  0  0  0  0  0  0
   15.5750   -0.0000    0.0000 C   0  0  0  0  0  0  0  0  0  0  0  0
    5.3042   -5.9417    0.0000 O   0  0  0  0  0  0  0  0  0  0  0  0
   13.9542   -4.1167    0.0000 C   0  0  0  0  0  0  0  0  0  0  0  0
   15.1250   -3.4542    0.0000 C   0  0  0  0  0  0  0  0  0  0  0  0
    3.9542   -3.6667    0.0000 C   0  0  0  0  0  0  0  0  0  0  0  0
    1.3000   -3.6667    0.0000 C   0  0  0  0  0  0  0  0  0  0  0  0
    0.0000   -3.6667    0.0000 F   0  0  0  0  0  0  0  0  0  0  0  0
    3.2750   -4.8042    0.0000 C   0  0  0  0  0  0  0  0  0  0  0  0
    3.2750   -2.5042    0.0000 C   0  0  0  0  0  0  0  0  0  0  0  0
    1.9750   -2.5042    0.0000 C   0  0  0  0  0  0  0  0  0  0  0  0
    1.9917   -4.8042    0.0000 C   0  0  0  0  0  0  0  0  0  0  0  0
  2  3  1  0
  1  3  2  0
  4  5  2  0
  1  5  1  0
  1  6  1  0
  2  7  1  0
  8 14  1  0
  7  9  1  0
  6 10  1  0
 11 13  1  0
  9 12  1  0
 12 13  2  0
  4 14  1  0
 15 21  1  0
 11 16  1  0
 15 17  1  0
 16 18  1  0
  6 19  2  0
 12 20  1  0
 20 21  2  0
 10 22  1  0
 23 27  2  0
 23 24  1  0
 22 25  1  0
 22 26  2  0
 26 27  1  0
 25 28  2  0
  2  4  1  0
  8  9  1  0
 23 28  1  0
 11 15  2  0
 17 18  1  0
M  END
>  <MOLFORMULA>  (336) 
C20 H16 F N3 O4

>  <MOLWEIGHT>  (336) 
3.813614000000000e+002

>  <IDNUMBER>  (336) 
AT-687/PE21243

>  <PRICE>  (336) 
EUR 80/10 mg

>  <Similarity score>  (336) 
0.20

$$$$

     RDKit          2D

 38 43  0  0  0  0  0  0  0  0999 V2000
    5.8250   -5.9792    0.0000 C   0  0  0  0  0  0  0  0  0  0  0  0
    4.6667   -6.6417    0.0000 C   0  0  0  0  0  0  0  0  0  0  0  0
    3.5167   -5.9792    0.0000 O   0  0  0  0  0  0  0  0  0  0  0  0
    3.5167   -4.6500    0.0000 C   0  0  0  0  0  0  0  0  0  0  0  0
    2.3750   -3.9792    0.0000 C   0  0  0  0  0  0  0  0  0  0  0  0
    5.8250   -4.6500    0.0000 C   0  0  0  0  0  0  0  0  0  0  0  0
    6.9917   -6.6417    0.0000 C   0  0  0  0  0  0  0  0  0  0  0  0
    4.6667   -3.9792    0.0000 C   0  0  0  0  0  0  0  0  0  0  0  0
    2.3750   -2.6500    0.0000 C   0  0  0  0  0  0  0  0  0  0  0  0
    4.6500   -7.9750    0.0000 N   0  0  0  0  0  0  0  0  0  0  0  0
    3.5167   -2.0000    0.0000 C   0  0  0  0  0  0  0  0  0  0  0  0
    1.2250   -2.0000    0.0000 N   0  0  0  0  0  0  0  0  0  0  0  0
    4.6667   -2.6500    0.0000 C   0  0  0  0  0  0  0  0  0  0  0  0
    7.0167   -7.9792    0.0000 N   0  0  0  0  0  0  0  0  0  0  0  0
    2.3750   -7.9417    0.0000 C   0  0  0  0  0  0  0  0  0  0  0  0
    1.2000   -8.5750    0.0000 C   0  0  0  0  0  0  0  0  0  0  0  0
    3.5000   -8.6250    0.0000 C   0  0  0  0  0  0  0  0  0  0  0  0
    8.1417   -5.9792    0.0000 O   0  0  0  0  0  0  0  0  0  0  0  0
    8.1500   -8.6500    0.0000 C   0  0  0  0  0  0  0  0  0  0  0  0
    1.1750   -9.9167    0.0000 C   0  0  0  0  0  0  0  0  0  0  0  0
    8.1500   -9.9750    0.0000 C   0  0  0  0  0  0  0  0  0  0  0  0
    2.3167  -10.6042    0.0000 C   0  0  0  0  0  0  0  0  0  0  0  0
    1.2250   -4.6500    0.0000 C   0  0  0  0  0  0  0  0  0  0  0  0
    9.3000  -10.6500    0.0000 C   0  0  0  0  0  0  0  0  0  0  0  0
    3.4750   -9.9667    0.0000 C   0  0  0  0  0  0  0  0  0  0  0  0
    0.0500   -7.8750    0.0000 O   0  0  0  0  0  0  0  0  0  0  0  0
    3.5167   -0.6667    0.0000 C   0  0  0  0  0  0  0  0  0  0  0  0
    9.3000  -11.9750    0.0000 F   0  0  0  0  0  0  0  0  0  0  0  0
    1.2250   -0.6667    0.0000 C   0  0  0  0  0  0  0  0  0  0  0  0
    0.0750   -2.6500    0.0000 C   0  0  0  0  0  0  0  0  0  0  0  0
    0.0167  -10.5792    0.0000 O   0  0  0  0  0  0  0  0  0  0  0  0
    0.0750   -3.9792    0.0000 C   0  0  0  0  0  0  0  0  0  0  0  0
    2.3750   -0.0000    0.0000 C   0  0  0  0  0  0  0  0  0  0  0  0
   10.4500   -8.6500    0.0000 C   0  0  0  0  0  0  0  0  0  0  0  0
    9.3000   -7.9792    0.0000 C   0  0  0  0  0  0  0  0  0  0  0  0
   10.4500   -9.9750    0.0000 C   0  0  0  0  0  0  0  0  0  0  0  0
    0.0500   -6.5500    0.0000 C   0  0  0  0  0  0  0  0  0  0  0  0
    0.0000  -11.9167    0.0000 C   0  0  0  0  0  0  0  0  0  0  0  0
  1  2  1  0
  2  3  1  0
  4  8  2  0
  4  5  1  0
  1  6  2  0
  1  7  1  0
  6  8  1  0
  9 11  1  0
  2 10  2  0
 11 13  2  0
  9 12  1  0
  8 13  1  0
  7 14  1  0
 15 17  2  0
 15 16  1  0
 10 17  1  0
  7 18  2  0
 14 19  1  0
 20 22  1  0
 19 21  2  0
 22 25  2  0
  5 23  1  0
 21 24  1  0
 17 25  1  0
 16 26  1  0
 11 27  1  0
 24 28  1  0
 29 33  1  0
 12 30  1  0
 20 31  1  0
 23 32  1  0
 27 33  1  0
 34 35  2  0
 19 35  1  0
 34 36  1  0
 26 37  1  0
 31 38  1  0
  3  4  1  0
  5  9  2  0
 24 36  2  0
 30 32  1  0
 16 20  2  0
 12 29  1  0
M  END
>  <MOLFORMULA>  (337) 
C30 H28 F N3 O4

>  <MOLWEIGHT>  (337) 
5.135662000000000e+002

>  <IDNUMBER>  (337) 
AT-687/PE10203

>  <PRICE>  (337) 
EUR 80/10 mg

>  <Similarity score>  (337) 
0.20

$$$$

     RDKit          2D

 26 29  0  0  0  0  0  0  0  0999 V2000
    6.1000   -7.3667    0.0000 C   0  0  0  0  0  0  0  0  0  0  0  0
    4.6500   -5.7500    0.0000 N   0  0  0  0  0  0  0  0  0  0  0  0
    5.9500   -6.0417    0.0000 N   0  0  0  0  0  0  0  0  0  0  0  0
    3.9792   -6.9000    0.0000 C   0  0  0  0  0  0  0  0  0  0  0  0
    4.8917   -7.9000    0.0000 C   0  0  0  0  0  0  0  0  0  0  0  0
    7.2417   -8.0250    0.0000 C   0  0  0  0  0  0  0  0  0  0  0  0
    3.9792   -4.6000    0.0000 C   0  0  0  0  0  0  0  0  0  0  0  0
    8.3917   -7.3667    0.0000 N   0  0  0  0  0  0  0  0  0  0  0  0
    1.9917   -5.7500    0.0000 O   0  0  0  0  0  0  0  0  0  0  0  0
    2.6500   -4.6000    0.0000 C   0  0  0  0  0  0  0  0  0  0  0  0
    9.5500   -8.0250    0.0000 C   0  0  0  0  0  0  0  0  0  0  0  0
    2.6500   -6.9000    0.0000 C   0  0  0  0  0  0  0  0  0  0  0  0
    1.9917   -3.4417    0.0000 C   0  0  0  0  0  0  0  0  0  0  0  0
    7.2417   -9.3500    0.0000 O   0  0  0  0  0  0  0  0  0  0  0  0
    9.5500   -9.3500    0.0000 C   0  0  0  0  0  0  0  0  0  0  0  0
    2.6500   -2.2792    0.0000 C   0  0  0  0  0  0  0  0  0  0  0  0
    0.6542   -3.4417    0.0000 C   0  0  0  0  0  0  0  0  0  0  0  0
    0.6542   -1.1500    0.0000 C   0  0  0  0  0  0  0  0  0  0  0  0
    0.0000   -2.2792    0.0000 C   0  0  0  0  0  0  0  0  0  0  0  0
    1.9917   -1.1500    0.0000 C   0  0  0  0  0  0  0  0  0  0  0  0
    0.0000   -0.0000    0.0000 F   0  0  0  0  0  0  0  0  0  0  0  0
   10.7000   -7.3667    0.0000 C   0  0  0  0  0  0  0  0  0  0  0  0
    8.4000  -10.0167    0.0000 C   0  0  0  0  0  0  0  0  0  0  0  0
   10.7000  -10.0167    0.0000 C   0  0  0  0  0  0  0  0  0  0  0  0
   11.8667   -8.0250    0.0000 C   0  0  0  0  0  0  0  0  0  0  0  0
   11.8667   -9.3500    0.0000 C   0  0  0  0  0  0  0  0  0  0  0  0
  2  3  1  0
  1  3  2  0
  4  5  2  0
  1  5  1  0
  1  6  1  0
  2  7  1  0
  6  8  1  0
  9 12  1  0
  7 10  1  0
  8 11  1  0
  4 12  1  0
 10 13  1  0
  6 14  2  0
 11 15  2  0
 13 16  1  0
 13 17  2  0
 18 19  2  0
 17 19  1  0
 16 20  2  0
 18 21  1  0
 11 22  1  0
 15 23  1  0
 15 24  1  0
 22 25  2  0
 25 26  1  0
  2  4  1  0
  9 10  1  0
 24 26  2  0
 18 20  1  0
M  END
>  <MOLFORMULA>  (338) 
C20 H18 F N3 O2

>  <MOLWEIGHT>  (338) 
3.513792000000000e+002

>  <IDNUMBER>  (338) 
AT-687/PE26861

>  <PRICE>  (338) 
EUR 80/10 mg

>  <Similarity score>  (338) 
0.20

$$$$

     RDKit          2D

 27 30  0  0  0  0  0  0  0  0999 V2000
    7.3167   -3.4167    0.0000 C   0  0  0  0  0  0  0  0  0  0  0  0
    9.3500   -2.7292    0.0000 N   0  0  0  0  0  0  0  0  0  0  0  0
    8.1000   -2.3417    0.0000 N   0  0  0  0  0  0  0  0  0  0  0  0
    9.3667   -4.0667    0.0000 C   0  0  0  0  0  0  0  0  0  0  0  0
    8.1167   -4.5042    0.0000 C   0  0  0  0  0  0  0  0  0  0  0  0
    5.9750   -3.4292    0.0000 C   0  0  0  0  0  0  0  0  0  0  0  0
   10.5167   -2.0667    0.0000 C   0  0  0  0  0  0  0  0  0  0  0  0
   11.6667   -4.0667    0.0000 O   0  0  0  0  0  0  0  0  0  0  0  0
    5.3042   -2.2750    0.0000 N   0  0  0  0  0  0  0  0  0  0  0  0
   11.6667   -2.7292    0.0000 C   0  0  0  0  0  0  0  0  0  0  0  0
    1.9792   -1.1500    0.0000 C   0  0  0  0  0  0  0  0  0  0  0  0
    3.2917   -1.1500    0.0000 C   0  0  0  0  0  0  0  0  0  0  0  0
   10.5167   -4.7417    0.0000 C   0  0  0  0  0  0  0  0  0  0  0  0
    3.9750   -2.2917    0.0000 C   0  0  0  0  0  0  0  0  0  0  0  0
   12.8250   -2.0750    0.0000 C   0  0  0  0  0  0  0  0  0  0  0  0
    5.3042   -4.5917    0.0000 O   0  0  0  0  0  0  0  0  0  0  0  0
    1.3167   -2.3042    0.0000 C   0  0  0  0  0  0  0  0  0  0  0  0
   12.8250   -0.7542    0.0000 C   0  0  0  0  0  0  0  0  0  0  0  0
   13.9667   -2.7500    0.0000 C   0  0  0  0  0  0  0  0  0  0  0  0
    2.0000   -3.4500    0.0000 C   0  0  0  0  0  0  0  0  0  0  0  0
    1.3167   -0.0000    0.0000 F   0  0  0  0  0  0  0  0  0  0  0  0
    3.2917   -3.4500    0.0000 C   0  0  0  0  0  0  0  0  0  0  0  0
   15.1417   -0.7542    0.0000 C   0  0  0  0  0  0  0  0  0  0  0  0
   13.9667   -0.0917    0.0000 C   0  0  0  0  0  0  0  0  0  0  0  0
   15.1250   -2.0750    0.0000 C   0  0  0  0  0  0  0  0  0  0  0  0
   16.3000   -0.1042    0.0000 Cl  0  0  0  0  0  0  0  0  0  0  0  0
    0.0000   -2.3042    0.0000 C   0  0  0  0  0  0  0  0  0  0  0  0
  2  3  1  0
  1  3  2  0
  4  5  2  0
  1  5  1  0
  1  6  1  0
  2  7  1  0
  8 13  1  0
  6  9  1  0
  7 10  1  0
 11 12  1  0
 12 14  2  0
  4 13  1  0
  9 14  1  0
 10 15  1  0
  6 16  2  0
 17 20  1  0
 15 18  1  0
 15 19  2  0
 20 22  2  0
 11 21  1  0
 14 22  1  0
 23 25  2  0
 18 24  2  0
 19 25  1  0
 23 26  1  0
 17 27  1  0
  2  4  1  0
  8 10  1  0
 11 17  2  0
 23 24  1  0
M  END
>  <MOLFORMULA>  (339) 
C20 H17 Cl F N3 O2

>  <MOLWEIGHT>  (339) 
3.858243000000000e+002

>  <IDNUMBER>  (339) 
AT-687/PE21214

>  <PRICE>  (339) 
EUR 80/10 mg

>  <Similarity score>  (339) 
0.20

$$$$

     RDKit          2D

 36 41  0  0  0  0  0  0  0  0999 V2000
    5.7542   -6.0000    0.0000 C   0  0  0  0  0  0  0  0  0  0  0  0
    4.6000   -6.6542    0.0000 C   0  0  0  0  0  0  0  0  0  0  0  0
    3.4500   -6.0000    0.0000 O   0  0  0  0  0  0  0  0  0  0  0  0
    3.4500   -4.6542    0.0000 C   0  0  0  0  0  0  0  0  0  0  0  0
    2.3000   -3.9917    0.0000 C   0  0  0  0  0  0  0  0  0  0  0  0
    5.7542   -4.6542    0.0000 C   0  0  0  0  0  0  0  0  0  0  0  0
    6.9250   -6.6750    0.0000 C   0  0  0  0  0  0  0  0  0  0  0  0
    4.6000   -3.9917    0.0000 C   0  0  0  0  0  0  0  0  0  0  0  0
    2.3000   -2.6750    0.0000 C   0  0  0  0  0  0  0  0  0  0  0  0
    4.5750   -7.9792    0.0000 N   0  0  0  0  0  0  0  0  0  0  0  0
    3.4500   -2.0000    0.0000 C   0  0  0  0  0  0  0  0  0  0  0  0
    6.9292   -8.0042    0.0000 N   0  0  0  0  0  0  0  0  0  0  0  0
    1.1500   -2.0000    0.0000 N   0  0  0  0  0  0  0  0  0  0  0  0
    4.6000   -2.6750    0.0000 C   0  0  0  0  0  0  0  0  0  0  0  0
    8.0750   -8.6667    0.0000 C   0  0  0  0  0  0  0  0  0  0  0  0
    3.4250   -8.6417    0.0000 C   0  0  0  0  0  0  0  0  0  0  0  0
    8.0750   -6.0167    0.0000 O   0  0  0  0  0  0  0  0  0  0  0  0
    3.4250   -9.9750    0.0000 C   0  0  0  0  0  0  0  0  0  0  0  0
    9.2167   -8.0042    0.0000 C   0  0  0  0  0  0  0  0  0  0  0  0
    1.1500   -4.6542    0.0000 C   0  0  0  0  0  0  0  0  0  0  0  0
    2.2750  -10.6250    0.0000 C   0  0  0  0  0  0  0  0  0  0  0  0
    3.4500   -0.6750    0.0000 C   0  0  0  0  0  0  0  0  0  0  0  0
    2.2917  -11.9542    0.0000 F   0  0  0  0  0  0  0  0  0  0  0  0
    0.0000   -2.6750    0.0000 C   0  0  0  0  0  0  0  0  0  0  0  0
    1.1500   -0.6750    0.0000 C   0  0  0  0  0  0  0  0  0  0  0  0
    9.2167   -6.6750    0.0000 O   0  0  0  0  0  0  0  0  0  0  0  0
    0.0000   -3.9917    0.0000 C   0  0  0  0  0  0  0  0  0  0  0  0
    2.3000   -0.0000    0.0000 C   0  0  0  0  0  0  0  0  0  0  0  0
    1.1167   -8.6250    0.0000 C   0  0  0  0  0  0  0  0  0  0  0  0
    8.0750  -10.0042    0.0000 C   0  0  0  0  0  0  0  0  0  0  0  0
    2.2917   -7.9750    0.0000 C   0  0  0  0  0  0  0  0  0  0  0  0
   10.3750   -8.6667    0.0000 C   0  0  0  0  0  0  0  0  0  0  0  0
    1.1167   -9.9750    0.0000 C   0  0  0  0  0  0  0  0  0  0  0  0
   10.3667   -6.0250    0.0000 C   0  0  0  0  0  0  0  0  0  0  0  0
    9.2167  -10.6667    0.0000 C   0  0  0  0  0  0  0  0  0  0  0  0
   10.3750  -10.0042    0.0000 C   0  0  0  0  0  0  0  0  0  0  0  0
  1  2  1  0
  2  3  1  0
  4  8  2  0
  4  5  1  0
  1  6  2  0
  1  7  1  0
  6  8  1  0
  9 11  1  0
  2 10  2  0
 11 14  2  0
  7 12  1  0
  9 13  1  0
  8 14  1  0
 12 15  1  0
 10 16  1  0
  7 17  2  0
 16 18  2  0
 15 19  2  0
  5 20  1  0
 18 21  1  0
 11 22  1  0
 21 23  1  0
 13 24  1  0
 25 28  1  0
 19 26  1  0
 20 27  1  0
 22 28  1  0
 29 31  2  0
 15 30  1  0
 16 31  1  0
 19 32  1  0
 29 33  1  0
 26 34  1  0
 30 35  2  0
 35 36  1  0
  3  4  1  0
  5  9  2  0
 32 36  2  0
 24 27  1  0
 21 33  2  0
 13 25  1  0
M  END
>  <MOLFORMULA>  (340) 
C29 H26 F N3 O3

>  <MOLWEIGHT>  (340) 
4.835404000000000e+002

>  <IDNUMBER>  (340) 
AT-687/PE10216

>  <PRICE>  (340) 
EUR 80/10 mg

>  <Similarity score>  (340) 
0.20

$$$$

     RDKit          2D

 29 32  0  0  0  0  0  0  0  0999 V2000
    7.9542   -3.3167    0.0000 C   0  0  0  0  0  0  0  0  0  0  0  0
   10.0042   -2.6417    0.0000 N   0  0  0  0  0  0  0  0  0  0  0  0
    8.7417   -2.2250    0.0000 N   0  0  0  0  0  0  0  0  0  0  0  0
   10.0042   -3.9750    0.0000 C   0  0  0  0  0  0  0  0  0  0  0  0
    8.7500   -4.4000    0.0000 C   0  0  0  0  0  0  0  0  0  0  0  0
    6.6250   -3.3292    0.0000 C   0  0  0  0  0  0  0  0  0  0  0  0
   11.1667   -1.9542    0.0000 C   0  0  0  0  0  0  0  0  0  0  0  0
    5.9542   -2.1750    0.0000 N   0  0  0  0  0  0  0  0  0  0  0  0
   12.3167   -3.9750    0.0000 O   0  0  0  0  0  0  0  0  0  0  0  0
    4.6417   -2.2000    0.0000 C   0  0  0  0  0  0  0  0  0  0  0  0
   12.3167   -2.6417    0.0000 C   0  0  0  0  0  0  0  0  0  0  0  0
    3.9417   -3.3500    0.0000 C   0  0  0  0  0  0  0  0  0  0  0  0
   11.1667   -4.6417    0.0000 C   0  0  0  0  0  0  0  0  0  0  0  0
    2.6500   -3.3500    0.0000 C   0  0  0  0  0  0  0  0  0  0  0  0
   13.4667   -1.9750    0.0000 C   0  0  0  0  0  0  0  0  0  0  0  0
    5.9542   -4.4792    0.0000 O   0  0  0  0  0  0  0  0  0  0  0  0
    3.9417   -1.0500    0.0000 C   0  0  0  0  0  0  0  0  0  0  0  0
   13.4667   -0.6500    0.0000 C   0  0  0  0  0  0  0  0  0  0  0  0
   14.6167   -2.6417    0.0000 C   0  0  0  0  0  0  0  0  0  0  0  0
    1.9542   -2.2000    0.0000 C   0  0  0  0  0  0  0  0  0  0  0  0
   15.7917   -0.6500    0.0000 C   0  0  0  0  0  0  0  0  0  0  0  0
    2.6417   -1.0500    0.0000 C   0  0  0  0  0  0  0  0  0  0  0  0
    4.6250   -4.4792    0.0000 O   0  0  0  0  0  0  0  0  0  0  0  0
   14.6417   -0.0000    0.0000 C   0  0  0  0  0  0  0  0  0  0  0  0
   15.7750   -1.9750    0.0000 C   0  0  0  0  0  0  0  0  0  0  0  0
   16.9417   -0.0167    0.0000 Cl  0  0  0  0  0  0  0  0  0  0  0  0
    0.6500   -2.2000    0.0000 O   0  0  0  0  0  0  0  0  0  0  0  0
    3.9417   -5.6417    0.0000 C   0  0  0  0  0  0  0  0  0  0  0  0
    0.0000   -3.3667    0.0000 C   0  0  0  0  0  0  0  0  0  0  0  0
  2  3  1  0
  1  3  2  0
  4  5  2  0
  1  5  1  0
  1  6  1  0
  2  7  1  0
  6  8  1  0
  9 13  1  0
  8 10  1  0
  7 11  1  0
 10 12  2  0
  4 13  1  0
 12 14  1  0
 11 15  1  0
  6 16  2  0
 10 17  1  0
 15 18  1  0
 15 19  2  0
 20 22  1  0
 21 25  2  0
 17 22  2  0
 12 23  1  0
 18 24  2  0
 19 25  1  0
 21 26  1  0
 20 27  1  0
 23 28  1  0
 27 29  1  0
  2  4  1  0
  9 11  1  0
 14 20  2  0
 21 24  1  0
M  END
>  <MOLFORMULA>  (341) 
C21 H20 Cl N3 O4

>  <MOLWEIGHT>  (341) 
4.138590000000000e+002

>  <IDNUMBER>  (341) 
AT-687/PE21198

>  <PRICE>  (341) 
EUR 80/10 mg

>  <Similarity score>  (341) 
0.20

$$$$

     RDKit          2D

 29 33  0  0  0  0  0  0  0  0999 V2000
    7.3167   -4.7750    0.0000 C   0  0  0  0  0  0  0  0  0  0  0  0
    9.3542   -4.0917    0.0000 N   0  0  0  0  0  0  0  0  0  0  0  0
    8.0667   -3.6792    0.0000 N   0  0  0  0  0  0  0  0  0  0  0  0
    9.3542   -5.4250    0.0000 C   0  0  0  0  0  0  0  0  0  0  0  0
    8.0792   -5.8500    0.0000 C   0  0  0  0  0  0  0  0  0  0  0  0
    5.9542   -4.7750    0.0000 C   0  0  0  0  0  0  0  0  0  0  0  0
   10.5167   -3.4250    0.0000 C   0  0  0  0  0  0  0  0  0  0  0  0
   11.6667   -5.4250    0.0000 O   0  0  0  0  0  0  0  0  0  0  0  0
   11.6667   -4.0917    0.0000 C   0  0  0  0  0  0  0  0  0  0  0  0
    5.3167   -3.6250    0.0000 N   0  0  0  0  0  0  0  0  0  0  0  0
   13.9667   -1.4250    0.0000 C   0  0  0  0  0  0  0  0  0  0  0  0
   12.8250   -3.4250    0.0000 C   0  0  0  0  0  0  0  0  0  0  0  0
   12.8250   -2.1250    0.0000 C   0  0  0  0  0  0  0  0  0  0  0  0
   10.5167   -6.0917    0.0000 C   0  0  0  0  0  0  0  0  0  0  0  0
   15.1250   -2.1000    0.0000 C   0  0  0  0  0  0  0  0  0  0  0  0
   14.2542   -0.1417    0.0000 O   0  0  0  0  0  0  0  0  0  0  0  0
   16.1167   -1.2167    0.0000 O   0  0  0  0  0  0  0  0  0  0  0  0
   15.5750   -0.0000    0.0000 C   0  0  0  0  0  0  0  0  0  0  0  0
    5.3167   -5.9250    0.0000 O   0  0  0  0  0  0  0  0  0  0  0  0
    3.9917   -3.6417    0.0000 C   0  0  0  0  0  0  0  0  0  0  0  0
   13.9667   -4.1000    0.0000 C   0  0  0  0  0  0  0  0  0  0  0  0
   15.1250   -3.4417    0.0000 C   0  0  0  0  0  0  0  0  0  0  0  0
    3.3167   -2.4917    0.0000 C   0  0  0  0  0  0  0  0  0  0  0  0
    1.9917   -2.5042    0.0000 C   0  0  0  0  0  0  0  0  0  0  0  0
    2.0042   -4.8167    0.0000 C   0  0  0  0  0  0  0  0  0  0  0  0
    3.3167   -4.8000    0.0000 C   0  0  0  0  0  0  0  0  0  0  0  0
    1.3167   -3.6500    0.0000 C   0  0  0  0  0  0  0  0  0  0  0  0
    1.3000   -1.3750    0.0000 C   0  0  0  0  0  0  0  0  0  0  0  0
    0.0000   -1.3750    0.0000 C   0  0  0  0  0  0  0  0  0  0  0  0
  2  3  1  0
  1  3  2  0
  4  5  2  0
  1  5  1  0
  1  6  1  0
  2  7  1  0
  8 14  1  0
  7  9  1  0
  6 10  1  0
 11 13  1  0
  9 12  1  0
 12 13  2  0
  4 14  1  0
 15 22  1  0
 11 16  1  0
 15 17  1  0
 16 18  1  0
  6 19  2  0
 10 20  1  0
 12 21  1  0
 21 22  2  0
 20 23  2  0
 23 24  1  0
 25 26  2  0
 20 26  1  0
 25 27  1  0
 24 28  1  0
 28 29  1  0
  2  4  1  0
  8  9  1  0
 24 27  2  0
 11 15  2  0
 17 18  1  0
M  END
>  <MOLFORMULA>  (342) 
C22 H21 N3 O4

>  <MOLWEIGHT>  (342) 
3.914249000000000e+002

>  <IDNUMBER>  (342) 
AT-687/PE21236

>  <PRICE>  (342) 
EUR 80/10 mg

>  <Similarity score>  (342) 
0.20

$$$$

     RDKit          2D

 34 38  0  0  0  0  0  0  0  0999 V2000
    2.2042   -2.5167    0.0000 C   0  0  0  0  0  0  0  0  0  0  0  0
    1.4917   -2.9292    0.0000 N   0  0  0  0  0  0  0  0  0  0  0  0
    2.2042   -1.6875    0.0000 C   0  0  0  0  0  0  0  0  0  0  0  0
    1.4917   -1.2667    0.0000 N   0  0  0  0  0  0  0  0  0  0  0  0
    6.4917   -0.0292    0.0000 C   0  0  0  0  0  0  0  0  0  0  0  0
    2.9167   -1.2750    0.0000 C   0  0  0  0  0  0  0  0  0  0  0  0
    5.7792   -0.4500    0.0000 N   0  0  0  0  0  0  0  0  0  0  0  0
    4.3500   -1.2750    0.0000 N   0  0  0  0  0  0  0  0  0  0  0  0
    3.6375   -1.6875    0.0000 C   0  0  0  0  0  0  0  0  0  0  0  0
    6.4917    0.7958    0.0000 C   0  0  0  0  0  0  0  0  0  0  0  0
    1.4917   -0.4417    0.0000 C   0  0  0  0  0  0  0  0  0  0  0  0
    2.9167   -2.9292    0.0000 C   0  0  0  0  0  0  0  0  0  0  0  0
    0.7875   -0.0292    0.0000 C   0  0  0  0  0  0  0  0  0  0  0  0
    0.7750   -2.5167    0.0000 O   0  0  0  0  0  0  0  0  0  0  0  0
    1.4917   -3.7542    0.0000 O   0  0  0  0  0  0  0  0  0  0  0  0
    0.7792   -1.6875    0.0000 C   0  0  0  0  0  0  0  0  0  0  0  0
    5.7792   -1.2750    0.0000 C   0  0  0  0  0  0  0  0  0  0  0  0
    5.0625   -0.0292    0.0000 C   0  0  0  0  0  0  0  0  0  0  0  0
    5.0667   -1.6792    0.0000 C   0  0  0  0  0  0  0  0  0  0  0  0
    4.3417   -0.4500    0.0000 C   0  0  0  0  0  0  0  0  0  0  0  0
    7.2042   -0.4417    0.0000 O   0  0  0  0  0  0  0  0  0  0  0  0
    3.6375   -2.5167    0.0000 C   0  0  0  0  0  0  0  0  0  0  0  0
    5.7792    1.1958    0.0000 C   0  0  0  0  0  0  0  0  0  0  0  0
    0.0667   -0.4417    0.0000 C   0  0  0  0  0  0  0  0  0  0  0  0
    0.0667   -1.2667    0.0000 C   0  0  0  0  0  0  0  0  0  0  0  0
    5.7750    2.0208    0.0000 C   0  0  0  0  0  0  0  0  0  0  0  0
    5.0542    2.4333    0.0000 Cl  0  0  0  0  0  0  0  0  0  0  0  0
    7.2042    1.2000    0.0000 C   0  0  0  0  0  0  0  0  0  0  0  0
    7.2042    2.0250    0.0000 C   0  0  0  0  0  0  0  0  0  0  0  0
    0.7917    0.7833    0.0000 C   0  0  0  0  0  0  0  0  0  0  0  0
   -0.6375   -0.0292    0.0000 C   0  0  0  0  0  0  0  0  0  0  0  0
    6.4917    2.4375    0.0000 C   0  0  0  0  0  0  0  0  0  0  0  0
    0.0792    1.2000    0.0000 C   0  0  0  0  0  0  0  0  0  0  0  0
   -0.6333    0.7958    0.0000 C   0  0  0  0  0  0  0  0  0  0  0  0
  1  2  1  0
  1  3  2  0
  3  4  1  0
  5  7  1  0
  3  6  1  0
  7 18  1  0
  8  9  1  0
  9 22  1  0
  5 10  1  0
  4 11  1  0
  1 12  1  0
 11 13  1  0
  2 14  1  0
  2 15  2  0
  4 16  1  0
 17 19  1  0
 18 20  1  0
  8 19  1  0
  8 20  1  0
  5 21  2  0
 12 22  2  0
 10 23  1  0
 24 25  1  0
 16 25  1  0
 23 26  2  0
 26 27  1  0
 10 28  2  0
 28 29  1  0
 13 30  1  0
 24 31  1  0
 29 32  2  0
 30 33  2  0
 31 34  2  0
  6  9  2  0
 13 24  2  0
  7 17  1  0
 33 34  1  0
 26 32  1  0
M  CHG  2   2   1  14  -1
M  END
>  <MOLFORMULA>  (343) 
C26 H25 Cl N4 O3

>  <MOLWEIGHT>  (343) 
4.769615000000000e+002

>  <IDNUMBER>  (343) 
AM-879/J183922

>  <PRICE>  (343) 
EUR 55.00/10 mg

>  <Similarity score>  (343) 
0.20

$$$$

     RDKit          2D

 36 41  0  0  0  0  0  0  0  0999 V2000
    5.8250   -5.9917    0.0000 C   0  0  0  0  0  0  0  0  0  0  0  0
    4.6667   -6.6500    0.0000 C   0  0  0  0  0  0  0  0  0  0  0  0
    3.5167   -5.9917    0.0000 O   0  0  0  0  0  0  0  0  0  0  0  0
    3.5167   -4.6500    0.0000 C   0  0  0  0  0  0  0  0  0  0  0  0
    2.3750   -3.9792    0.0000 C   0  0  0  0  0  0  0  0  0  0  0  0
    5.8250   -4.6500    0.0000 C   0  0  0  0  0  0  0  0  0  0  0  0
    6.9917   -6.6500    0.0000 C   0  0  0  0  0  0  0  0  0  0  0  0
    4.6667   -3.9792    0.0000 C   0  0  0  0  0  0  0  0  0  0  0  0
    2.3750   -2.6500    0.0000 C   0  0  0  0  0  0  0  0  0  0  0  0
    4.6500   -7.9750    0.0000 N   0  0  0  0  0  0  0  0  0  0  0  0
    3.5167   -2.0000    0.0000 C   0  0  0  0  0  0  0  0  0  0  0  0
    1.2250   -2.0000    0.0000 N   0  0  0  0  0  0  0  0  0  0  0  0
    4.6667   -2.6500    0.0000 C   0  0  0  0  0  0  0  0  0  0  0  0
    7.0167   -7.9917    0.0000 N   0  0  0  0  0  0  0  0  0  0  0  0
    8.1417   -5.9917    0.0000 O   0  0  0  0  0  0  0  0  0  0  0  0
    8.1500   -8.6500    0.0000 C   0  0  0  0  0  0  0  0  0  0  0  0
    8.1500   -9.9750    0.0000 C   0  0  0  0  0  0  0  0  0  0  0  0
    3.5000   -8.6250    0.0000 C   0  0  0  0  0  0  0  0  0  0  0  0
    1.2250   -4.6500    0.0000 C   0  0  0  0  0  0  0  0  0  0  0  0
    9.3000  -10.6500    0.0000 C   0  0  0  0  0  0  0  0  0  0  0  0
    1.1750   -9.9167    0.0000 C   0  0  0  0  0  0  0  0  0  0  0  0
    3.5167   -0.6667    0.0000 C   0  0  0  0  0  0  0  0  0  0  0  0
    9.3000  -11.9750    0.0000 F   0  0  0  0  0  0  0  0  0  0  0  0
    0.0750   -2.6500    0.0000 C   0  0  0  0  0  0  0  0  0  0  0  0
    1.2250   -0.6667    0.0000 C   0  0  0  0  0  0  0  0  0  0  0  0
    3.4750   -9.9667    0.0000 C   0  0  0  0  0  0  0  0  0  0  0  0
    2.3750   -7.9417    0.0000 C   0  0  0  0  0  0  0  0  0  0  0  0
    1.2000   -8.5750    0.0000 C   0  0  0  0  0  0  0  0  0  0  0  0
    2.3167  -10.6167    0.0000 C   0  0  0  0  0  0  0  0  0  0  0  0
    0.0167  -10.5917    0.0000 O   0  0  0  0  0  0  0  0  0  0  0  0
    0.0750   -3.9792    0.0000 C   0  0  0  0  0  0  0  0  0  0  0  0
    2.3750   -0.0000    0.0000 C   0  0  0  0  0  0  0  0  0  0  0  0
   10.4500   -8.6500    0.0000 C   0  0  0  0  0  0  0  0  0  0  0  0
    9.3000   -7.9917    0.0000 C   0  0  0  0  0  0  0  0  0  0  0  0
   10.4500   -9.9750    0.0000 C   0  0  0  0  0  0  0  0  0  0  0  0
    0.0000  -11.9167    0.0000 C   0  0  0  0  0  0  0  0  0  0  0  0
  1  2  1  0
  2  3  1  0
  4  8  2  0
  4  5  1  0
  1  6  2  0
  1  7  1  0
  6  8  1  0
  9 11  1  0
  2 10  2  0
 11 13  2  0
  9 12  1  0
  8 13  1  0
  7 14  1  0
  7 15  2  0
 14 16  1  0
 16 17  2  0
 10 18  1  0
  5 19  1  0
 17 20  1  0
 21 28  2  0
 11 22  1  0
 20 23  1  0
 12 24  1  0
 25 32  1  0
 18 26  1  0
 18 27  2  0
 27 28  1  0
 26 29  2  0
 21 30  1  0
 19 31  1  0
 22 32  1  0
 33 34  2  0
 16 34  1  0
 33 35  1  0
 30 36  1  0
  3  4  1  0
  5  9  2  0
 21 29  1  0
 20 35  2  0
 24 31  1  0
 12 25  1  0
M  END
>  <MOLFORMULA>  (344) 
C29 H26 F N3 O3

>  <MOLWEIGHT>  (344) 
4.835404000000000e+002

>  <IDNUMBER>  (344) 
AT-687/PE10217

>  <PRICE>  (344) 
EUR 80/10 mg

>  <Similarity score>  (344) 
0.20

$$$$

     RDKit          2D

 32 37  0  0  0  0  0  0  0  0999 V2000
    5.9500   -6.9500    0.0000 C   0  0  0  0  0  0  0  0  0  0  0  0
    6.7250   -5.8917    0.0000 N   0  0  0  0  0  0  0  0  0  0  0  0
    8.0000   -6.3000    0.0000 N   0  0  0  0  0  0  0  0  0  0  0  0
    7.9750   -7.6250    0.0000 C   0  0  0  0  0  0  0  0  0  0  0  0
    6.7250   -8.0250    0.0000 C   0  0  0  0  0  0  0  0  0  0  0  0
    4.6250   -6.9250    0.0000 C   0  0  0  0  0  0  0  0  0  0  0  0
    3.9750   -5.7750    0.0000 N   0  0  0  0  0  0  0  0  0  0  0  0
    9.1250   -5.6250    0.0000 C   0  0  0  0  0  0  0  0  0  0  0  0
    2.6667   -3.4417    0.0000 N   0  0  0  0  0  0  0  0  0  0  0  0
   10.2917   -7.6250    0.0000 O   0  0  0  0  0  0  0  0  0  0  0  0
   10.2917   -6.3000    0.0000 C   0  0  0  0  0  0  0  0  0  0  0  0
   12.5917   -3.6292    0.0000 C   0  0  0  0  0  0  0  0  0  0  0  0
   11.4417   -5.6250    0.0000 C   0  0  0  0  0  0  0  0  0  0  0  0
   11.4417   -4.3000    0.0000 C   0  0  0  0  0  0  0  0  0  0  0  0
    9.1250   -8.2917    0.0000 C   0  0  0  0  0  0  0  0  0  0  0  0
   13.7417   -4.3000    0.0000 C   0  0  0  0  0  0  0  0  0  0  0  0
   12.8542   -2.3417    0.0000 O   0  0  0  0  0  0  0  0  0  0  0  0
   14.7250   -3.4000    0.0000 O   0  0  0  0  0  0  0  0  0  0  0  0
    3.9417   -8.0667    0.0000 O   0  0  0  0  0  0  0  0  0  0  0  0
    2.6292   -5.7500    0.0000 C   0  0  0  0  0  0  0  0  0  0  0  0
    4.6500   -4.6250    0.0000 C   0  0  0  0  0  0  0  0  0  0  0  0
    3.9917   -3.4542    0.0000 C   0  0  0  0  0  0  0  0  0  0  0  0
    1.9667   -4.6250    0.0000 C   0  0  0  0  0  0  0  0  0  0  0  0
   14.1667   -2.1917    0.0000 C   0  0  0  0  0  0  0  0  0  0  0  0
    1.9792   -2.2917    0.0000 C   0  0  0  0  0  0  0  0  0  0  0  0
   12.5917   -6.3000    0.0000 C   0  0  0  0  0  0  0  0  0  0  0  0
   13.7417   -5.6250    0.0000 C   0  0  0  0  0  0  0  0  0  0  0  0
    0.6542   -2.2917    0.0000 C   0  0  0  0  0  0  0  0  0  0  0  0
    2.6667   -1.1542    0.0000 C   0  0  0  0  0  0  0  0  0  0  0  0
    1.9792   -0.0000    0.0000 C   0  0  0  0  0  0  0  0  0  0  0  0
    0.0000   -1.1542    0.0000 C   0  0  0  0  0  0  0  0  0  0  0  0
    0.6542   -0.0000    0.0000 C   0  0  0  0  0  0  0  0  0  0  0  0
  1  2  2  0
  2  3  1  0
  4  5  2  0
  1  5  1  0
  1  6  1  0
  6  7  1  0
  3  8  1  0
  9 22  1  0
 10 15  1  0
  8 11  1  0
 12 14  1  0
 11 13  1  0
 13 14  2  0
  4 15  1  0
 16 27  1  0
 12 17  1  0
 16 18  1  0
  6 19  2  0
  7 20  1  0
  7 21  1  0
 21 22  1  0
 20 23  1  0
 17 24  1  0
  9 25  1  0
 13 26  1  0
 26 27  2  0
 25 28  1  0
 25 29  2  0
 29 30  1  0
 28 31  2  0
 30 32  2  0
  3  4  1  0
  9 23  1  0
 10 11  1  0
 12 16  2  0
 31 32  1  0
 18 24  1  0
M  END
>  <MOLFORMULA>  (345) 
C24 H24 N4 O4

>  <MOLWEIGHT>  (345) 
4.324776000000000e+002

>  <IDNUMBER>  (345) 
AT-687/PE21182

>  <PRICE>  (345) 
EUR 80/10 mg

>  <Similarity score>  (345) 
0.20

$$$$

     RDKit          2D

 29 32  0  0  0  0  0  0  0  0999 V2000
    7.9500   -3.4000    0.0000 C   0  0  0  0  0  0  0  0  0  0  0  0
   10.0000   -2.7250    0.0000 N   0  0  0  0  0  0  0  0  0  0  0  0
    8.7292   -2.3167    0.0000 N   0  0  0  0  0  0  0  0  0  0  0  0
   10.0000   -4.0542    0.0000 C   0  0  0  0  0  0  0  0  0  0  0  0
    8.7500   -4.4792    0.0000 C   0  0  0  0  0  0  0  0  0  0  0  0
    6.6167   -3.4167    0.0000 C   0  0  0  0  0  0  0  0  0  0  0  0
   11.1500   -2.0542    0.0000 C   0  0  0  0  0  0  0  0  0  0  0  0
   12.3042   -4.0542    0.0000 O   0  0  0  0  0  0  0  0  0  0  0  0
    5.9500   -2.2667    0.0000 N   0  0  0  0  0  0  0  0  0  0  0  0
   12.3042   -2.7250    0.0000 C   0  0  0  0  0  0  0  0  0  0  0  0
    3.9417   -1.1250    0.0000 C   0  0  0  0  0  0  0  0  0  0  0  0
   11.1500   -4.7250    0.0000 C   0  0  0  0  0  0  0  0  0  0  0  0
    2.6250   -1.1250    0.0000 C   0  0  0  0  0  0  0  0  0  0  0  0
    4.6292   -2.2750    0.0000 C   0  0  0  0  0  0  0  0  0  0  0  0
   13.4542   -2.0542    0.0000 C   0  0  0  0  0  0  0  0  0  0  0  0
    5.9500   -4.5667    0.0000 O   0  0  0  0  0  0  0  0  0  0  0  0
    1.9542   -2.2750    0.0000 C   0  0  0  0  0  0  0  0  0  0  0  0
    2.6417   -3.4292    0.0000 C   0  0  0  0  0  0  0  0  0  0  0  0
   13.4542   -0.7417    0.0000 C   0  0  0  0  0  0  0  0  0  0  0  0
   14.6167   -2.7417    0.0000 C   0  0  0  0  0  0  0  0  0  0  0  0
    3.9417   -3.4292    0.0000 C   0  0  0  0  0  0  0  0  0  0  0  0
   15.7750   -0.7500    0.0000 C   0  0  0  0  0  0  0  0  0  0  0  0
    1.9542   -0.0000    0.0000 O   0  0  0  0  0  0  0  0  0  0  0  0
   15.7667   -2.0750    0.0000 C   0  0  0  0  0  0  0  0  0  0  0  0
   14.6250   -0.0667    0.0000 C   0  0  0  0  0  0  0  0  0  0  0  0
   16.9292   -0.0750    0.0000 Cl  0  0  0  0  0  0  0  0  0  0  0  0
    0.6417   -2.3000    0.0000 O   0  0  0  0  0  0  0  0  0  0  0  0
    0.6417   -0.0000    0.0000 C   0  0  0  0  0  0  0  0  0  0  0  0
    0.0000   -3.4500    0.0000 C   0  0  0  0  0  0  0  0  0  0  0  0
  2  3  1  0
  1  3  2  0
  4  5  2  0
  1  5  1  0
  1  6  1  0
  2  7  1  0
  8 12  1  0
  6  9  1  0
  7 10  1  0
 11 14  2  0
  4 12  1  0
 11 13  1  0
  9 14  1  0
 10 15  1  0
  6 16  2  0
 17 18  1  0
 18 21  2  0
 15 19  2  0
 15 20  1  0
 14 21  1  0
 22 24  1  0
 13 23  1  0
 20 24  2  0
 19 25  1  0
 22 26  1  0
 17 27  1  0
 23 28  1  0
 27 29  1  0
  2  4  1  0
  8 10  1  0
 13 17  2  0
 22 25  2  0
M  END
>  <MOLFORMULA>  (346) 
C21 H20 Cl N3 O4

>  <MOLWEIGHT>  (346) 
4.138590000000000e+002

>  <IDNUMBER>  (346) 
AT-687/PE21200

>  <PRICE>  (346) 
EUR 80/10 mg

>  <Similarity score>  (346) 
0.20

$$$$

     RDKit          2D

 26 29  0  0  0  0  0  0  0  0999 V2000
    4.6417   -5.7417    0.0000 N   0  0  0  0  0  0  0  0  0  0  0  0
    6.0917   -7.3417    0.0000 C   0  0  0  0  0  0  0  0  0  0  0  0
    5.9500   -6.0250    0.0000 N   0  0  0  0  0  0  0  0  0  0  0  0
    3.9917   -6.9000    0.0000 C   0  0  0  0  0  0  0  0  0  0  0  0
    4.8750   -7.8750    0.0000 C   0  0  0  0  0  0  0  0  0  0  0  0
   10.7000   -7.3417    0.0000 C   0  0  0  0  0  0  0  0  0  0  0  0
    7.2417   -8.0042    0.0000 C   0  0  0  0  0  0  0  0  0  0  0  0
    3.9917   -4.5750    0.0000 C   0  0  0  0  0  0  0  0  0  0  0  0
   12.8000   -6.9000    0.0000 N   0  0  0  0  0  0  0  0  0  0  0  0
   10.8250   -6.0250    0.0000 C   0  0  0  0  0  0  0  0  0  0  0  0
   12.1292   -5.7417    0.0000 N   0  0  0  0  0  0  0  0  0  0  0  0
    1.9917   -5.7417    0.0000 O   0  0  0  0  0  0  0  0  0  0  0  0
    2.6542   -4.5750    0.0000 C   0  0  0  0  0  0  0  0  0  0  0  0
    8.3917   -7.3417    0.0000 N   0  0  0  0  0  0  0  0  0  0  0  0
    2.6542   -6.9000    0.0000 C   0  0  0  0  0  0  0  0  0  0  0  0
    9.5500   -8.0042    0.0000 C   0  0  0  0  0  0  0  0  0  0  0  0
   11.9167   -7.8750    0.0000 C   0  0  0  0  0  0  0  0  0  0  0  0
    1.9917   -3.4417    0.0000 C   0  0  0  0  0  0  0  0  0  0  0  0
    7.2417   -9.3417    0.0000 O   0  0  0  0  0  0  0  0  0  0  0  0
    2.6542   -2.3000    0.0000 C   0  0  0  0  0  0  0  0  0  0  0  0
    0.6542   -3.4417    0.0000 C   0  0  0  0  0  0  0  0  0  0  0  0
    0.6542   -1.1500    0.0000 C   0  0  0  0  0  0  0  0  0  0  0  0
    0.0000   -2.3000    0.0000 C   0  0  0  0  0  0  0  0  0  0  0  0
    1.9917   -1.1500    0.0000 C   0  0  0  0  0  0  0  0  0  0  0  0
    0.0000   -0.0000    0.0000 F   0  0  0  0  0  0  0  0  0  0  0  0
    9.8417   -5.1167    0.0000 C   0  0  0  0  0  0  0  0  0  0  0  0
  2  3  2  0
  1  3  1  0
  1  4  1  0
  4  5  2  0
  6 16  1  0
  2  7  1  0
  1  8  1  0
  9 17  2  0
  6 10  2  0
 10 11  1  0
 12 13  1  0
  8 13  1  0
  7 14  1  0
  4 15  1  0
 14 16  1  0
  6 17  1  0
 13 18  1  0
  7 19  2  0
 18 20  1  0
 18 21  2  0
 22 23  2  0
 21 23  1  0
 20 24  2  0
 22 25  1  0
 10 26  1  0
 12 15  1  0
  2  5  1  0
 22 24  1  0
  9 11  1  0
M  END
>  <MOLFORMULA>  (347) 
C18 H18 F N5 O2

>  <MOLWEIGHT>  (347) 
3.553712000000000e+002

>  <IDNUMBER>  (347) 
AT-687/PE26867

>  <PRICE>  (347) 
EUR 80/10 mg

>  <Similarity score>  (347) 
0.20

$$$$

     RDKit          2D

 28 31  0  0  0  0  0  0  0  0999 V2000
    7.9542   -3.4167    0.0000 C   0  0  0  0  0  0  0  0  0  0  0  0
   10.0042   -2.7417    0.0000 N   0  0  0  0  0  0  0  0  0  0  0  0
    8.7417   -2.3292    0.0000 N   0  0  0  0  0  0  0  0  0  0  0  0
   10.0042   -4.0667    0.0000 C   0  0  0  0  0  0  0  0  0  0  0  0
    8.7500   -4.5000    0.0000 C   0  0  0  0  0  0  0  0  0  0  0  0
    6.6250   -3.4292    0.0000 C   0  0  0  0  0  0  0  0  0  0  0  0
   11.1667   -2.0750    0.0000 C   0  0  0  0  0  0  0  0  0  0  0  0
   12.3167   -4.0667    0.0000 O   0  0  0  0  0  0  0  0  0  0  0  0
    5.9542   -2.2792    0.0000 N   0  0  0  0  0  0  0  0  0  0  0  0
   12.3167   -2.7417    0.0000 C   0  0  0  0  0  0  0  0  0  0  0  0
    2.6417   -1.1500    0.0000 C   0  0  0  0  0  0  0  0  0  0  0  0
    3.9417   -1.1500    0.0000 C   0  0  0  0  0  0  0  0  0  0  0  0
   11.1667   -4.7417    0.0000 C   0  0  0  0  0  0  0  0  0  0  0  0
    4.6417   -2.3000    0.0000 C   0  0  0  0  0  0  0  0  0  0  0  0
   13.4667   -2.0750    0.0000 C   0  0  0  0  0  0  0  0  0  0  0  0
    5.9542   -4.5917    0.0000 O   0  0  0  0  0  0  0  0  0  0  0  0
    1.9542   -2.3000    0.0000 C   0  0  0  0  0  0  0  0  0  0  0  0
    2.6500   -3.4500    0.0000 C   0  0  0  0  0  0  0  0  0  0  0  0
   13.4667   -0.7542    0.0000 C   0  0  0  0  0  0  0  0  0  0  0  0
   14.6167   -2.7500    0.0000 C   0  0  0  0  0  0  0  0  0  0  0  0
    1.9542   -0.0000    0.0000 Cl  0  0  0  0  0  0  0  0  0  0  0  0
    3.9417   -3.4500    0.0000 C   0  0  0  0  0  0  0  0  0  0  0  0
   15.7917   -0.7750    0.0000 C   0  0  0  0  0  0  0  0  0  0  0  0
   15.7750   -2.1000    0.0000 C   0  0  0  0  0  0  0  0  0  0  0  0
   14.6292   -0.0917    0.0000 C   0  0  0  0  0  0  0  0  0  0  0  0
   16.9417   -0.1167    0.0000 Cl  0  0  0  0  0  0  0  0  0  0  0  0
    0.6500   -2.3167    0.0000 O   0  0  0  0  0  0  0  0  0  0  0  0
    0.0000   -3.4667    0.0000 C   0  0  0  0  0  0  0  0  0  0  0  0
  2  3  1  0
  1  3  2  0
  4  5  2  0
  1  5  1  0
  1  6  1  0
  2  7  1  0
  8 13  1  0
  6  9  1  0
  7 10  1  0
 11 12  1  0
 12 14  2  0
  4 13  1  0
  9 14  1  0
 10 15  1  0
  6 16  2  0
 17 18  1  0
 18 22  2  0
 15 19  2  0
 15 20  1  0
 11 21  1  0
 14 22  1  0
 23 24  1  0
 20 24  2  0
 19 25  1  0
 23 26  1  0
 17 27  1  0
 27 28  1  0
  2  4  1  0
  8 10  1  0
 11 17  2  0
 23 25  2  0
M  END
>  <MOLFORMULA>  (348) 
C20 H17 Cl2 N3 O3

>  <MOLWEIGHT>  (348) 
4.182783000000000e+002

>  <IDNUMBER>  (348) 
AT-687/PE21219

>  <PRICE>  (348) 
EUR 80/10 mg

>  <Similarity score>  (348) 
0.20

$$$$

     RDKit          2D

 29 32  0  0  0  0  0  0  0  0999 V2000
    6.4667   -3.8417    0.0000 C   0  0  0  0  0  0  0  0  0  0  0  0
   12.4500   -4.9917    0.0000 N   0  0  0  0  0  0  0  0  0  0  0  0
   10.4500   -6.1417    0.0000 C   0  0  0  0  0  0  0  0  0  0  0  0
   13.1167   -6.1417    0.0000 N   0  0  0  0  0  0  0  0  0  0  0  0
    8.4500   -4.9917    0.0000 N   0  0  0  0  0  0  0  0  0  0  0  0
    7.1250   -4.9917    0.0000 C   0  0  0  0  0  0  0  0  0  0  0  0
    5.1250   -3.6917    0.0000 C   0  0  0  0  0  0  0  0  0  0  0  0
    6.9917   -2.6167    0.0000 N   0  0  0  0  0  0  0  0  0  0  0  0
    6.0167   -1.7250    0.0000 N   0  0  0  0  0  0  0  0  0  0  0  0
   12.4500   -7.3000    0.0000 C   0  0  0  0  0  0  0  0  0  0  0  0
   11.1167   -4.9917    0.0000 C   0  0  0  0  0  0  0  0  0  0  0  0
   11.1167   -7.3000    0.0000 C   0  0  0  0  0  0  0  0  0  0  0  0
    4.8500   -2.3917    0.0000 C   0  0  0  0  0  0  0  0  0  0  0  0
    9.1167   -6.1417    0.0000 C   0  0  0  0  0  0  0  0  0  0  0  0
   10.4500   -3.8417    0.0000 C   0  0  0  0  0  0  0  0  0  0  0  0
    9.1167   -3.8417    0.0000 C   0  0  0  0  0  0  0  0  0  0  0  0
    3.6417   -1.8542    0.0000 C   0  0  0  0  0  0  0  0  0  0  0  0
    6.4667   -6.1417    0.0000 O   0  0  0  0  0  0  0  0  0  0  0  0
   13.1167   -8.4500    0.0000 O   0  0  0  0  0  0  0  0  0  0  0  0
   14.4292   -6.1417    0.0000 C   0  0  0  0  0  0  0  0  0  0  0  0
    2.5542   -2.6250    0.0000 C   0  0  0  0  0  0  0  0  0  0  0  0
    3.5000   -0.5250    0.0000 C   0  0  0  0  0  0  0  0  0  0  0  0
    1.2042   -0.7667    0.0000 C   0  0  0  0  0  0  0  0  0  0  0  0
    2.2917   -0.0000    0.0000 C   0  0  0  0  0  0  0  0  0  0  0  0
    1.3500   -2.1000    0.0000 C   0  0  0  0  0  0  0  0  0  0  0  0
    0.0000   -0.2292    0.0000 F   0  0  0  0  0  0  0  0  0  0  0  0
   16.4292   -4.9917    0.0000 O   0  0  0  0  0  0  0  0  0  0  0  0
   15.1000   -4.9917    0.0000 C   0  0  0  0  0  0  0  0  0  0  0  0
   17.1000   -3.8417    0.0000 C   0  0  0  0  0  0  0  0  0  0  0  0
  2 11  2  0
  3 14  1  0
  2  4  1  0
  5  6  1  0
  1  6  1  0
  1  7  2  0
  1  8  1  0
  8  9  1  0
 10 12  1  0
 11 15  1  0
  3 12  2  0
  7 13  1  0
  5 14  1  0
 15 16  1  0
  5 16  1  0
 13 17  1  0
  6 18  2  0
 10 19  2  0
  4 20  1  0
 17 21  2  0
 17 22  1  0
 23 24  1  0
 22 24  2  0
 21 25  1  0
 23 26  1  0
 27 28  1  0
 20 28  1  0
 27 29  1  0
  9 13  2  0
 23 25  2  0
  3 11  1  0
  4 10  1  0
M  END
>  <MOLFORMULA>  (349) 
C20 H20 F N5 O3

>  <MOLWEIGHT>  (349) 
3.974080000000000e+002

>  <IDNUMBER>  (349) 
AT-687/PE26882

>  <PRICE>  (349) 
EUR 80/10 mg

>  <Similarity score>  (349) 
0.20

$$$$

     RDKit          2D

 29 32  0  0  0  0  0  0  0  0999 V2000
    7.9500   -3.4000    0.0000 C   0  0  0  0  0  0  0  0  0  0  0  0
   10.0000   -2.7250    0.0000 N   0  0  0  0  0  0  0  0  0  0  0  0
    8.7292   -2.3167    0.0000 N   0  0  0  0  0  0  0  0  0  0  0  0
   10.0000   -4.0542    0.0000 C   0  0  0  0  0  0  0  0  0  0  0  0
    8.7500   -4.4792    0.0000 C   0  0  0  0  0  0  0  0  0  0  0  0
    6.6167   -3.4167    0.0000 C   0  0  0  0  0  0  0  0  0  0  0  0
   11.1500   -2.0542    0.0000 C   0  0  0  0  0  0  0  0  0  0  0  0
   12.3042   -4.0542    0.0000 O   0  0  0  0  0  0  0  0  0  0  0  0
    5.9500   -2.2667    0.0000 N   0  0  0  0  0  0  0  0  0  0  0  0
   12.3042   -2.7250    0.0000 C   0  0  0  0  0  0  0  0  0  0  0  0
    3.9417   -1.1250    0.0000 C   0  0  0  0  0  0  0  0  0  0  0  0
   11.1500   -4.7250    0.0000 C   0  0  0  0  0  0  0  0  0  0  0  0
    2.6250   -1.1250    0.0000 C   0  0  0  0  0  0  0  0  0  0  0  0
    4.6292   -2.2750    0.0000 C   0  0  0  0  0  0  0  0  0  0  0  0
   13.4542   -2.0542    0.0000 C   0  0  0  0  0  0  0  0  0  0  0  0
    5.9500   -4.5667    0.0000 O   0  0  0  0  0  0  0  0  0  0  0  0
    1.9542   -2.2750    0.0000 C   0  0  0  0  0  0  0  0  0  0  0  0
    2.6417   -3.4292    0.0000 C   0  0  0  0  0  0  0  0  0  0  0  0
   13.4542   -0.7417    0.0000 C   0  0  0  0  0  0  0  0  0  0  0  0
   14.6167   -2.7417    0.0000 C   0  0  0  0  0  0  0  0  0  0  0  0
    3.9417   -3.4292    0.0000 C   0  0  0  0  0  0  0  0  0  0  0  0
   15.7750   -0.7500    0.0000 C   0  0  0  0  0  0  0  0  0  0  0  0
    1.9542   -0.0000    0.0000 O   0  0  0  0  0  0  0  0  0  0  0  0
   15.7667   -2.0750    0.0000 C   0  0  0  0  0  0  0  0  0  0  0  0
   14.6250   -0.0667    0.0000 C   0  0  0  0  0  0  0  0  0  0  0  0
   16.9292   -0.0750    0.0000 Br  0  0  0  0  0  0  0  0  0  0  0  0
    0.6417   -2.3000    0.0000 O   0  0  0  0  0  0  0  0  0  0  0  0
    0.6417   -0.0000    0.0000 C   0  0  0  0  0  0  0  0  0  0  0  0
    0.0000   -3.4500    0.0000 C   0  0  0  0  0  0  0  0  0  0  0  0
  2  3  1  0
  1  3  2  0
  4  5  2  0
  1  5  1  0
  1  6  1  0
  2  7  1  0
  8 12  1  0
  6  9  1  0
  7 10  1  0
 11 14  2  0
  4 12  1  0
 11 13  1  0
  9 14  1  0
 10 15  1  0
  6 16  2  0
 17 18  1  0
 18 21  2  0
 15 19  2  0
 15 20  1  0
 14 21  1  0
 22 24  1  0
 13 23  1  0
 20 24  2  0
 19 25  1  0
 22 26  1  0
 17 27  1  0
 23 28  1  0
 27 29  1  0
  2  4  1  0
  8 10  1  0
 13 17  2  0
 22 25  2  0
M  END
>  <MOLFORMULA>  (350) 
C21 H20 Br N3 O4

>  <MOLWEIGHT>  (350) 
4.583100000000000e+002

>  <IDNUMBER>  (350) 
AT-687/PE21223

>  <PRICE>  (350) 
EUR 80/10 mg

>  <Similarity score>  (350) 
0.20

$$$$

     RDKit          2D

 36 41  0  0  0  0  0  0  0  0999 V2000
    5.8250   -5.9750    0.0000 C   0  0  0  0  0  0  0  0  0  0  0  0
    4.6500   -6.6417    0.0000 C   0  0  0  0  0  0  0  0  0  0  0  0
    3.5250   -5.9750    0.0000 O   0  0  0  0  0  0  0  0  0  0  0  0
    3.5250   -4.6417    0.0000 C   0  0  0  0  0  0  0  0  0  0  0  0
    2.3667   -3.9792    0.0000 C   0  0  0  0  0  0  0  0  0  0  0  0
    5.8250   -4.6417    0.0000 C   0  0  0  0  0  0  0  0  0  0  0  0
    6.9917   -6.6417    0.0000 C   0  0  0  0  0  0  0  0  0  0  0  0
    4.6667   -3.9792    0.0000 C   0  0  0  0  0  0  0  0  0  0  0  0
    2.3667   -2.6500    0.0000 C   0  0  0  0  0  0  0  0  0  0  0  0
    4.6417   -7.9667    0.0000 N   0  0  0  0  0  0  0  0  0  0  0  0
    3.5250   -1.9792    0.0000 C   0  0  0  0  0  0  0  0  0  0  0  0
    1.2042   -1.9792    0.0000 N   0  0  0  0  0  0  0  0  0  0  0  0
    4.6667   -2.6500    0.0000 C   0  0  0  0  0  0  0  0  0  0  0  0
    7.0000   -7.9750    0.0000 N   0  0  0  0  0  0  0  0  0  0  0  0
    8.1250   -5.9750    0.0000 O   0  0  0  0  0  0  0  0  0  0  0  0
    3.5000   -8.6042    0.0000 C   0  0  0  0  0  0  0  0  0  0  0  0
    8.1250   -8.6417    0.0000 C   0  0  0  0  0  0  0  0  0  0  0  0
    1.2292   -4.6417    0.0000 C   0  0  0  0  0  0  0  0  0  0  0  0
   10.4250   -9.9750    0.0000 C   0  0  0  0  0  0  0  0  0  0  0  0
    1.1792   -9.9000    0.0000 C   0  0  0  0  0  0  0  0  0  0  0  0
    3.5250   -0.6667    0.0000 C   0  0  0  0  0  0  0  0  0  0  0  0
   11.6000  -10.6500    0.0000 F   0  0  0  0  0  0  0  0  0  0  0  0
    1.2042   -0.6667    0.0000 C   0  0  0  0  0  0  0  0  0  0  0  0
    0.0667   -2.6500    0.0000 C   0  0  0  0  0  0  0  0  0  0  0  0
    2.3500   -7.9250    0.0000 C   0  0  0  0  0  0  0  0  0  0  0  0
    3.4750   -9.9500    0.0000 C   0  0  0  0  0  0  0  0  0  0  0  0
    8.1250   -9.9750    0.0000 C   0  0  0  0  0  0  0  0  0  0  0  0
    9.2917   -7.9750    0.0000 C   0  0  0  0  0  0  0  0  0  0  0  0
   10.4250   -8.6417    0.0000 C   0  0  0  0  0  0  0  0  0  0  0  0
    9.2917  -10.6500    0.0000 C   0  0  0  0  0  0  0  0  0  0  0  0
    2.3167  -10.6000    0.0000 C   0  0  0  0  0  0  0  0  0  0  0  0
    1.2000   -8.5750    0.0000 C   0  0  0  0  0  0  0  0  0  0  0  0
    0.0000  -10.5667    0.0000 O   0  0  0  0  0  0  0  0  0  0  0  0
    0.0750   -3.9792    0.0000 C   0  0  0  0  0  0  0  0  0  0  0  0
    2.3667   -0.0000    0.0000 C   0  0  0  0  0  0  0  0  0  0  0  0
    0.0000  -11.9042    0.0000 C   0  0  0  0  0  0  0  0  0  0  0  0
  1  2  1  0
  2  3  1  0
  4  8  2  0
  4  5  1  0
  1  6  2  0
  1  7  1  0
  6  8  1  0
  9 11  1  0
  2 10  2  0
 11 13  2  0
  9 12  1  0
  8 13  1  0
  7 14  1  0
  7 15  2  0
 10 16  1  0
 14 17  1  0
  5 18  1  0
 19 29  2  0
 20 31  1  0
 11 21  1  0
 19 22  1  0
 23 35  1  0
 12 24  1  0
 16 25  2  0
 16 26  1  0
 17 27  1  0
 17 28  2  0
 28 29  1  0
 27 30  2  0
 26 31  2  0
 25 32  1  0
 20 33  1  0
 18 34  1  0
 21 35  1  0
 33 36  1  0
  3  4  1  0
 19 30  1  0
  5  9  2  0
 20 32  2  0
 24 34  1  0
 12 23  1  0
M  END
>  <MOLFORMULA>  (351) 
C29 H26 F N3 O3

>  <MOLWEIGHT>  (351) 
4.835404000000000e+002

>  <IDNUMBER>  (351) 
AT-687/PE10214

>  <PRICE>  (351) 
EUR 80/10 mg

>  <Similarity score>  (351) 
0.20

$$$$

     RDKit          2D

 38 43  0  0  0  0  0  0  0  0999 V2000
    5.7750   -5.9750    0.0000 C   0  0  0  0  0  0  0  0  0  0  0  0
    4.6167   -6.6417    0.0000 C   0  0  0  0  0  0  0  0  0  0  0  0
    3.4667   -5.9750    0.0000 O   0  0  0  0  0  0  0  0  0  0  0  0
    3.4667   -4.6500    0.0000 C   0  0  0  0  0  0  0  0  0  0  0  0
    2.3167   -3.9792    0.0000 C   0  0  0  0  0  0  0  0  0  0  0  0
    5.7750   -4.6500    0.0000 C   0  0  0  0  0  0  0  0  0  0  0  0
    6.9417   -6.6417    0.0000 C   0  0  0  0  0  0  0  0  0  0  0  0
    4.6250   -3.9792    0.0000 C   0  0  0  0  0  0  0  0  0  0  0  0
    2.3167   -2.6500    0.0000 C   0  0  0  0  0  0  0  0  0  0  0  0
    4.6000   -7.9750    0.0000 N   0  0  0  0  0  0  0  0  0  0  0  0
    3.4667   -1.9792    0.0000 C   0  0  0  0  0  0  0  0  0  0  0  0
    1.1667   -1.9792    0.0000 N   0  0  0  0  0  0  0  0  0  0  0  0
    4.6250   -2.6500    0.0000 C   0  0  0  0  0  0  0  0  0  0  0  0
    3.4500   -8.6250    0.0000 C   0  0  0  0  0  0  0  0  0  0  0  0
    6.9500   -8.0000    0.0000 N   0  0  0  0  0  0  0  0  0  0  0  0
    8.0792   -5.9750    0.0000 O   0  0  0  0  0  0  0  0  0  0  0  0
    3.4167   -9.9542    0.0000 C   0  0  0  0  0  0  0  0  0  0  0  0
    2.3042   -7.9500    0.0000 C   0  0  0  0  0  0  0  0  0  0  0  0
    1.1500   -8.5750    0.0000 C   0  0  0  0  0  0  0  0  0  0  0  0
    2.2750  -10.6167    0.0000 C   0  0  0  0  0  0  0  0  0  0  0  0
    1.1417   -9.9250    0.0000 C   0  0  0  0  0  0  0  0  0  0  0  0
    8.1000   -8.6500    0.0000 C   0  0  0  0  0  0  0  0  0  0  0  0
    1.1750   -4.6500    0.0000 C   0  0  0  0  0  0  0  0  0  0  0  0
   10.3917   -9.9792    0.0000 C   0  0  0  0  0  0  0  0  0  0  0  0
    3.4667   -0.6667    0.0000 C   0  0  0  0  0  0  0  0  0  0  0  0
   11.5542  -10.6500    0.0000 F   0  0  0  0  0  0  0  0  0  0  0  0
    1.1667   -0.6667    0.0000 C   0  0  0  0  0  0  0  0  0  0  0  0
    0.0250   -2.6500    0.0000 C   0  0  0  0  0  0  0  0  0  0  0  0
    8.1000   -9.9792    0.0000 C   0  0  0  0  0  0  0  0  0  0  0  0
    9.2417   -8.0000    0.0000 C   0  0  0  0  0  0  0  0  0  0  0  0
   10.3917   -8.6500    0.0000 C   0  0  0  0  0  0  0  0  0  0  0  0
    9.2417  -10.6500    0.0000 C   0  0  0  0  0  0  0  0  0  0  0  0
    2.2500  -11.9292    0.0000 O   0  0  0  0  0  0  0  0  0  0  0  0
    0.0000   -7.9000    0.0000 O   0  0  0  0  0  0  0  0  0  0  0  0
    0.0292   -3.9792    0.0000 C   0  0  0  0  0  0  0  0  0  0  0  0
    2.3167   -0.0000    0.0000 C   0  0  0  0  0  0  0  0  0  0  0  0
    1.0750  -12.5750    0.0000 C   0  0  0  0  0  0  0  0  0  0  0  0
    0.0250   -6.5500    0.0000 C   0  0  0  0  0  0  0  0  0  0  0  0
  1  2  1  0
  2  3  1  0
  4  8  2  0
  4  5  1  0
  1  6  2  0
  1  7  1  0
  6  8  1  0
  9 11  1  0
  2 10  2  0
 11 13  2  0
  9 12  1  0
  8 13  1  0
 10 14  1  0
  7 15  1  0
  7 16  2  0
 14 17  1  0
 14 18  2  0
 18 19  1  0
 17 20  2  0
 19 21  2  0
 15 22  1  0
  5 23  1  0
 24 31  2  0
 11 25  1  0
 24 26  1  0
 27 36  1  0
 12 28  1  0
 22 29  1  0
 22 30  2  0
 30 31  1  0
 29 32  2  0
 20 33  1  0
 19 34  1  0
 23 35  1  0
 25 36  1  0
 33 37  1  0
 34 38  1  0
  3  4  1  0
 24 32  1  0
  5  9  2  0
 28 35  1  0
 20 21  1  0
 12 27  1  0
M  END
>  <MOLFORMULA>  (352) 
C30 H28 F N3 O4

>  <MOLWEIGHT>  (352) 
5.135662000000000e+002

>  <IDNUMBER>  (352) 
AT-687/PE10218

>  <PRICE>  (352) 
EUR 80/10 mg

>  <Similarity score>  (352) 
0.20

$$$$

     RDKit          2D

 38 43  0  0  0  0  0  0  0  0999 V2000
    7.0250   -6.0042    0.0000 C   0  0  0  0  0  0  0  0  0  0  0  0
    5.8667   -6.6667    0.0000 C   0  0  0  0  0  0  0  0  0  0  0  0
    4.7250   -6.0042    0.0000 O   0  0  0  0  0  0  0  0  0  0  0  0
    4.7250   -4.6542    0.0000 C   0  0  0  0  0  0  0  0  0  0  0  0
    3.5500   -4.0000    0.0000 C   0  0  0  0  0  0  0  0  0  0  0  0
    7.0250   -4.6542    0.0000 C   0  0  0  0  0  0  0  0  0  0  0  0
    8.2042   -6.6667    0.0000 C   0  0  0  0  0  0  0  0  0  0  0  0
    5.8750   -4.0000    0.0000 C   0  0  0  0  0  0  0  0  0  0  0  0
    3.5500   -2.6500    0.0000 C   0  0  0  0  0  0  0  0  0  0  0  0
    5.8500   -8.0000    0.0000 N   0  0  0  0  0  0  0  0  0  0  0  0
    4.7250   -2.0000    0.0000 C   0  0  0  0  0  0  0  0  0  0  0  0
    2.4167   -2.0000    0.0000 N   0  0  0  0  0  0  0  0  0  0  0  0
    5.8750   -2.6500    0.0000 C   0  0  0  0  0  0  0  0  0  0  0  0
    8.2250   -8.0167    0.0000 N   0  0  0  0  0  0  0  0  0  0  0  0
    4.6792   -8.6417    0.0000 C   0  0  0  0  0  0  0  0  0  0  0  0
    4.6542   -9.9750    0.0000 C   0  0  0  0  0  0  0  0  0  0  0  0
    3.4750  -10.6417    0.0000 C   0  0  0  0  0  0  0  0  0  0  0  0
    9.3500   -6.0042    0.0000 O   0  0  0  0  0  0  0  0  0  0  0  0
    9.3750   -8.6750    0.0000 C   0  0  0  0  0  0  0  0  0  0  0  0
    9.3750  -10.0167    0.0000 C   0  0  0  0  0  0  0  0  0  0  0  0
    3.5250   -7.9417    0.0000 C   0  0  0  0  0  0  0  0  0  0  0  0
    2.3167   -9.9417    0.0000 C   0  0  0  0  0  0  0  0  0  0  0  0
    2.4167   -4.6542    0.0000 C   0  0  0  0  0  0  0  0  0  0  0  0
   10.5167  -10.6750    0.0000 C   0  0  0  0  0  0  0  0  0  0  0  0
    2.3667   -8.5750    0.0000 C   0  0  0  0  0  0  0  0  0  0  0  0
    5.7917  -10.6750    0.0000 O   0  0  0  0  0  0  0  0  0  0  0  0
    4.7250   -0.6500    0.0000 C   0  0  0  0  0  0  0  0  0  0  0  0
   10.5167  -12.0167    0.0000 F   0  0  0  0  0  0  0  0  0  0  0  0
    2.4167   -0.6500    0.0000 C   0  0  0  0  0  0  0  0  0  0  0  0
    1.2542   -2.6500    0.0000 C   0  0  0  0  0  0  0  0  0  0  0  0
    1.1417  -10.5750    0.0000 O   0  0  0  0  0  0  0  0  0  0  0  0
    1.2542   -4.0000    0.0000 C   0  0  0  0  0  0  0  0  0  0  0  0
    3.5500   -0.0000    0.0000 C   0  0  0  0  0  0  0  0  0  0  0  0
   11.6792   -8.6750    0.0000 C   0  0  0  0  0  0  0  0  0  0  0  0
   10.5167   -8.0167    0.0000 C   0  0  0  0  0  0  0  0  0  0  0  0
   11.6792  -10.0167    0.0000 C   0  0  0  0  0  0  0  0  0  0  0  0
    5.7250  -11.7250    0.0000 C   0  0  0  0  0  0  0  0  0  0  0  0
    0.0000   -9.8917    0.0000 C   0  0  0  0  0  0  0  0  0  0  0  0
  1  2  1  0
  2  3  1  0
  4  8  2  0
  4  5  1  0
  1  6  2  0
  1  7  1  0
  6  8  1  0
  9 11  1  0
  2 10  2  0
 11 13  2  0
  9 12  1  0
  8 13  1  0
  7 14  1  0
 10 15  1  0
 15 16  2  0
 16 17  1  0
  7 18  2  0
 14 19  1  0
 19 20  2  0
 15 21  1  0
 22 25  1  0
  5 23  1  0
 20 24  1  0
 21 25  2  0
 16 26  1  0
 11 27  1  0
 24 28  1  0
 29 33  1  0
 12 30  1  0
 22 31  1  0
 23 32  1  0
 27 33  1  0
 34 35  2  0
 19 35  1  0
 34 36  1  0
 26 37  1  0
 31 38  1  0
  3  4  1  0
  5  9  2  0
 24 36  2  0
 30 32  1  0
 17 22  2  0
 12 29  1  0
M  END
>  <MOLFORMULA>  (353) 
C30 H28 F N3 O4

>  <MOLWEIGHT>  (353) 
5.135662000000000e+002

>  <IDNUMBER>  (353) 
AT-687/PE10215

>  <PRICE>  (353) 
EUR 80/10 mg

>  <Similarity score>  (353) 
0.20

$$$$

     RDKit          2D

 31 34  0  0  0  0  0  0  0  0999 V2000
    8.0500   -5.9667    0.0000 C   0  0  0  0  0  0  0  0  0  0  0  0
    6.9000   -6.6250    0.0000 N   0  0  0  0  0  0  0  0  0  0  0  0
    8.0250   -4.6417    0.0000 N   0  0  0  0  0  0  0  0  0  0  0  0
    9.2000   -6.6250    0.0000 N   0  0  0  0  0  0  0  0  0  0  0  0
    6.9000   -7.9667    0.0000 C   0  0  0  0  0  0  0  0  0  0  0  0
    6.8750   -3.9750    0.0000 C   0  0  0  0  0  0  0  0  0  0  0  0
    8.0500   -8.6417    0.0000 C   0  0  0  0  0  0  0  0  0  0  0  0
    1.1417   -4.6417    0.0000 C   0  0  0  0  0  0  0  0  0  0  0  0
    1.1417   -5.9750    0.0000 C   0  0  0  0  0  0  0  0  0  0  0  0
    6.8750   -2.6500    0.0000 C   0  0  0  0  0  0  0  0  0  0  0  0
    3.4417   -8.6417    0.0000 C   0  0  0  0  0  0  0  0  0  0  0  0
    9.2000   -7.9667    0.0000 C   0  0  0  0  0  0  0  0  0  0  0  0
    2.2917   -7.9667    0.0000 N   0  0  0  0  0  0  0  0  0  0  0  0
    9.1750   -3.9750    0.0000 C   0  0  0  0  0  0  0  0  0  0  0  0
    2.2917   -6.6417    0.0000 C   0  0  0  0  0  0  0  0  0  0  0  0
    2.2917   -3.9750    0.0000 C   0  0  0  0  0  0  0  0  0  0  0  0
    8.0250   -1.9792    0.0000 C   0  0  0  0  0  0  0  0  0  0  0  0
    5.7250   -8.6417    0.0000 O   0  0  0  0  0  0  0  0  0  0  0  0
    3.4417   -9.9667    0.0000 O   0  0  0  0  0  0  0  0  0  0  0  0
    9.1750   -2.6500    0.0000 C   0  0  0  0  0  0  0  0  0  0  0  0
    3.4500   -4.6417    0.0000 C   0  0  0  0  0  0  0  0  0  0  0  0
    4.5917   -7.9667    0.0000 C   0  0  0  0  0  0  0  0  0  0  0  0
    0.0000   -3.9917    0.0000 Cl  0  0  0  0  0  0  0  0  0  0  0  0
    3.4500   -5.9750    0.0000 C   0  0  0  0  0  0  0  0  0  0  0  0
    2.2917   -2.6500    0.0000 O   0  0  0  0  0  0  0  0  0  0  0  0
    5.7250   -2.0167    0.0000 C   0  0  0  0  0  0  0  0  0  0  0  0
   10.3500   -8.6417    0.0000 C   0  0  0  0  0  0  0  0  0  0  0  0
    8.0042   -0.6542    0.0000 C   0  0  0  0  0  0  0  0  0  0  0  0
    1.1417   -1.9792    0.0000 C   0  0  0  0  0  0  0  0  0  0  0  0
    5.7042   -0.6750    0.0000 C   0  0  0  0  0  0  0  0  0  0  0  0
    6.8542   -0.0000    0.0000 C   0  0  0  0  0  0  0  0  0  0  0  0
  1  2  2  0
  1  3  1  0
  1  4  1  0
  2  5  1  0
  3  6  1  0
  7 12  1  0
  8  9  1  0
  9 15  2  0
  6 10  1  0
 11 22  1  0
  4 12  2  0
 11 13  1  0
  3 14  1  0
 13 15  1  0
 16 21  1  0
 17 20  1  0
  5 18  1  0
 11 19  2  0
 14 20  1  0
 21 24  2  0
 18 22  1  0
  8 23  1  0
 15 24  1  0
 16 25  1  0
 10 26  1  0
 12 27  1  0
 17 28  1  0
 25 29  1  0
 26 30  2  0
 28 31  2  0
  5  7  2  0
 10 17  2  0
 30 31  1  0
  8 16  2  0
M  END
>  <MOLFORMULA>  (354) 
C23 H23 Cl N4 O3

>  <MOLWEIGHT>  (354) 
4.389127000000000e+002

>  <IDNUMBER>  (354) 
AT-687/PE16676

>  <PRICE>  (354) 
EUR 80/10 mg

>  <Similarity score>  (354) 
0.20

$$$$

     RDKit          2D

 31 35  0  0  0  0  0  0  0  0999 V2000
    7.9292   -4.7792    0.0000 C   0  0  0  0  0  0  0  0  0  0  0  0
    9.9750   -4.1000    0.0000 N   0  0  0  0  0  0  0  0  0  0  0  0
    8.7250   -3.6750    0.0000 N   0  0  0  0  0  0  0  0  0  0  0  0
    9.9750   -5.4250    0.0000 C   0  0  0  0  0  0  0  0  0  0  0  0
    8.7417   -5.8417    0.0000 C   0  0  0  0  0  0  0  0  0  0  0  0
    6.6167   -4.7792    0.0000 C   0  0  0  0  0  0  0  0  0  0  0  0
   11.1500   -3.4250    0.0000 C   0  0  0  0  0  0  0  0  0  0  0  0
   12.3042   -5.4250    0.0000 O   0  0  0  0  0  0  0  0  0  0  0  0
   12.3042   -4.1000    0.0000 C   0  0  0  0  0  0  0  0  0  0  0  0
    5.9417   -3.6250    0.0000 N   0  0  0  0  0  0  0  0  0  0  0  0
   14.6250   -1.4292    0.0000 C   0  0  0  0  0  0  0  0  0  0  0  0
   13.4500   -3.4250    0.0000 C   0  0  0  0  0  0  0  0  0  0  0  0
   13.4500   -2.1250    0.0000 C   0  0  0  0  0  0  0  0  0  0  0  0
    3.9500   -2.5042    0.0000 C   0  0  0  0  0  0  0  0  0  0  0  0
   11.1500   -6.0917    0.0000 C   0  0  0  0  0  0  0  0  0  0  0  0
    2.6250   -2.5042    0.0000 C   0  0  0  0  0  0  0  0  0  0  0  0
   15.7542   -2.1000    0.0000 C   0  0  0  0  0  0  0  0  0  0  0  0
   14.8917   -0.1500    0.0000 O   0  0  0  0  0  0  0  0  0  0  0  0
    4.6000   -3.6500    0.0000 C   0  0  0  0  0  0  0  0  0  0  0  0
   16.7500   -1.2167    0.0000 O   0  0  0  0  0  0  0  0  0  0  0  0
   16.2167   -0.0000    0.0000 C   0  0  0  0  0  0  0  0  0  0  0  0
    5.9417   -5.9250    0.0000 O   0  0  0  0  0  0  0  0  0  0  0  0
    1.9500   -3.6500    0.0000 C   0  0  0  0  0  0  0  0  0  0  0  0
   14.6000   -4.1167    0.0000 C   0  0  0  0  0  0  0  0  0  0  0  0
   15.7542   -3.4250    0.0000 C   0  0  0  0  0  0  0  0  0  0  0  0
    2.6250   -4.8000    0.0000 C   0  0  0  0  0  0  0  0  0  0  0  0
    3.9500   -4.8000    0.0000 C   0  0  0  0  0  0  0  0  0  0  0  0
    1.9500   -1.3500    0.0000 O   0  0  0  0  0  0  0  0  0  0  0  0
    0.6500   -3.6500    0.0000 O   0  0  0  0  0  0  0  0  0  0  0  0
    0.6250   -1.3500    0.0000 C   0  0  0  0  0  0  0  0  0  0  0  0
    0.0000   -4.8167    0.0000 C   0  0  0  0  0  0  0  0  0  0  0  0
  2  3  1  0
  1  3  2  0
  4  5  2  0
  1  5  1  0
  1  6  1  0
  2  7  1  0
  8 15  1  0
  7  9  1  0
  6 10  1  0
 11 13  1  0
  9 12  1  0
 12 13  2  0
 14 19  2  0
  4 15  1  0
 14 16  1  0
 17 25  1  0
 11 18  1  0
 10 19  1  0
 17 20  1  0
 18 21  1  0
  6 22  2  0
 23 26  1  0
 12 24  1  0
 24 25  2  0
 26 27  2  0
 19 27  1  0
 16 28  1  0
 23 29  1  0
 28 30  1  0
 29 31  1  0
  2  4  1  0
  8  9  1  0
 16 23  2  0
 11 17  2  0
 20 21  1  0
M  END
>  <MOLFORMULA>  (355) 
C22 H21 N3 O6

>  <MOLWEIGHT>  (355) 
4.234229000000000e+002

>  <IDNUMBER>  (355) 
AT-687/PE21241

>  <PRICE>  (355) 
EUR 80/10 mg

>  <Similarity score>  (355) 
0.20

$$$$

     RDKit          2D

 32 35  0  0  0  0  0  0  0  0999 V2000
   -1.0375   -1.8042    0.0000 C   0  0  0  0  0  0  0  0  0  0  0  0
   -2.3500   -0.8750    0.0000 C   0  0  0  0  0  0  0  0  0  0  0  0
   -1.3500   -0.8667    0.0000 C   0  0  0  0  0  0  0  0  0  0  0  0
   -1.8500   -2.4000    0.0000 N   0  0  0  0  0  0  0  0  0  0  0  0
   -2.6583   -1.8167    0.0000 N   0  0  0  0  0  0  0  0  0  0  0  0
   -0.0750   -2.0667    0.0000 C   0  0  0  0  0  0  0  0  0  0  0  0
    0.3250   -2.9917    0.0000 N   0  0  0  0  0  0  0  0  0  0  0  0
   -2.9500   -0.0667    0.0000 C   0  0  0  0  0  0  0  0  0  0  0  0
    1.8500   -2.1792    0.0000 C   0  0  0  0  0  0  0  0  0  0  0  0
    1.3250   -3.0250    0.0000 C   0  0  0  0  0  0  0  0  0  0  0  0
    2.8667   -2.2250    0.0000 N   0  0  0  0  0  0  0  0  0  0  0  0
   -2.5583    0.8500    0.0000 N   0  0  0  0  0  0  0  0  0  0  0  0
    0.5792   -1.3000    0.0000 O   0  0  0  0  0  0  0  0  0  0  0  0
    1.4000   -1.3000    0.0000 O   0  0  0  0  0  0  0  0  0  0  0  0
   -3.9583   -0.1750    0.0000 O   0  0  0  0  0  0  0  0  0  0  0  0
    3.3917   -1.3750    0.0000 C   0  0  0  0  0  0  0  0  0  0  0  0
   -3.1500    1.6500    0.0000 C   0  0  0  0  0  0  0  0  0  0  0  0
   -1.8833   -3.4000    0.0000 C   0  0  0  0  0  0  0  0  0  0  0  0
   -0.1500   -3.8667    0.0000 C   0  0  0  0  0  0  0  0  0  0  0  0
   -1.1250   -4.0500    0.0000 C   0  0  0  0  0  0  0  0  0  0  0  0
   -4.3500    3.2750    0.0000 C   0  0  0  0  0  0  0  0  0  0  0  0
   -4.9333    4.0417    0.0000 F   0  0  0  0  0  0  0  0  0  0  0  0
   -4.1583    1.5375    0.0000 C   0  0  0  0  0  0  0  0  0  0  0  0
   -2.7500    2.5625    0.0000 C   0  0  0  0  0  0  0  0  0  0  0  0
   -3.3500    3.3750    0.0000 C   0  0  0  0  0  0  0  0  0  0  0  0
   -4.7500    2.3500    0.0000 C   0  0  0  0  0  0  0  0  0  0  0  0
    3.3250   -3.1042    0.0000 C   0  0  0  0  0  0  0  0  0  0  0  0
    4.3917   -1.4250    0.0000 C   0  0  0  0  0  0  0  0  0  0  0  0
    2.9250   -0.5000    0.0000 C   0  0  0  0  0  0  0  0  0  0  0  0
    3.4500    0.3375    0.0000 C   0  0  0  0  0  0  0  0  0  0  0  0
    4.9250   -0.5750    0.0000 C   0  0  0  0  0  0  0  0  0  0  0  0
    4.4542    0.3083    0.0000 C   0  0  0  0  0  0  0  0  0  0  0  0
  2  3  1  0
  1  3  2  0
  1  4  1  0
  4  5  1  0
  1  6  1  0
  6  7  1  0
  2  8  1  0
  9 10  1  0
  7 10  1  0
  9 11  1  0
  8 12  1  0
  6 13  2  0
  9 14  2  0
  8 15  2  0
 11 16  1  0
 12 17  1  0
  4 18  1  0
  7 19  1  0
 18 20  1  0
 21 25  2  0
 21 22  1  0
 17 23  1  0
 17 24  2  0
 24 25  1  0
 23 26  2  0
 11 27  1  0
 16 28  2  0
 16 29  1  0
 29 30  2  0
 28 31  1  0
 30 32  1  0
  2  5  2  0
 19 20  1  0
 21 26  1  0
 31 32  2  0
M  END
>  <MOLFORMULA>  (356) 
C23 H22 F N5 O3

>  <MOLWEIGHT>  (356) 
4.354568000000000e+002

>  <IDNUMBER>  (356) 
AT-687/PE30346

>  <PRICE>  (356) 
EUR 80/10 mg

>  <Similarity score>  (356) 
0.20

$$$$

     RDKit          2D

 28 31  0  0  0  0  0  0  0  0999 V2000
    4.6417   -5.7500    0.0000 N   0  0  0  0  0  0  0  0  0  0  0  0
    6.1000   -7.3500    0.0000 C   0  0  0  0  0  0  0  0  0  0  0  0
    5.9500   -6.0250    0.0000 N   0  0  0  0  0  0  0  0  0  0  0  0
    3.9917   -6.9000    0.0000 C   0  0  0  0  0  0  0  0  0  0  0  0
    4.8750   -7.9000    0.0000 C   0  0  0  0  0  0  0  0  0  0  0  0
   13.9500   -8.4667    0.0000 N   0  0  0  0  0  0  0  0  0  0  0  0
   11.8500   -8.0042    0.0000 C   0  0  0  0  0  0  0  0  0  0  0  0
   13.2792   -9.6167    0.0000 O   0  0  0  0  0  0  0  0  0  0  0  0
    3.9917   -4.6000    0.0000 C   0  0  0  0  0  0  0  0  0  0  0  0
    7.2417   -8.0042    0.0000 C   0  0  0  0  0  0  0  0  0  0  0  0
   11.9917   -9.3292    0.0000 C   0  0  0  0  0  0  0  0  0  0  0  0
   13.0667   -7.4750    0.0000 C   0  0  0  0  0  0  0  0  0  0  0  0
    1.9917   -5.7500    0.0000 O   0  0  0  0  0  0  0  0  0  0  0  0
    2.6542   -4.6000    0.0000 C   0  0  0  0  0  0  0  0  0  0  0  0
    2.6542   -6.9000    0.0000 C   0  0  0  0  0  0  0  0  0  0  0  0
    1.9917   -3.4417    0.0000 C   0  0  0  0  0  0  0  0  0  0  0  0
    7.2417   -9.3500    0.0000 O   0  0  0  0  0  0  0  0  0  0  0  0
    8.4000   -7.3500    0.0000 N   0  0  0  0  0  0  0  0  0  0  0  0
    2.6542   -2.3000    0.0000 C   0  0  0  0  0  0  0  0  0  0  0  0
    0.6667   -3.4417    0.0000 C   0  0  0  0  0  0  0  0  0  0  0  0
   10.7000   -7.3500    0.0000 C   0  0  0  0  0  0  0  0  0  0  0  0
    0.6667   -1.1417    0.0000 C   0  0  0  0  0  0  0  0  0  0  0  0
    1.9917   -1.1417    0.0000 C   0  0  0  0  0  0  0  0  0  0  0  0
    0.0000   -2.3000    0.0000 C   0  0  0  0  0  0  0  0  0  0  0  0
    0.0000   -0.0000    0.0000 F   0  0  0  0  0  0  0  0  0  0  0  0
    9.5417   -8.0042    0.0000 C   0  0  0  0  0  0  0  0  0  0  0  0
   11.0000  -10.2250    0.0000 C   0  0  0  0  0  0  0  0  0  0  0  0
   13.3417   -6.1750    0.0000 C   0  0  0  0  0  0  0  0  0  0  0  0
  2  3  2  0
  1  3  1  0
  1  4  1  0
  4  5  2  0
  6 12  2  0
  7 21  1  0
  8 11  1  0
  1  9  1  0
  2 10  1  0
  7 11  2  0
  7 12  1  0
 13 14  1  0
  9 14  1  0
  4 15  1  0
 14 16  1  0
 10 17  2  0
 10 18  1  0
 16 19  2  0
 16 20  1  0
 21 26  1  0
 22 24  1  0
 19 23  1  0
 20 24  2  0
 22 25  1  0
 18 26  1  0
 11 27  1  0
 12 28  1  0
 13 15  1  0
  2  5  1  0
 22 23  2  0
  6  8  1  0
M  END
>  <MOLFORMULA>  (357) 
C20 H21 F N4 O3

>  <MOLWEIGHT>  (357) 
3.844089000000000e+002

>  <IDNUMBER>  (357) 
AT-687/PE26870

>  <PRICE>  (357) 
EUR 80/10 mg

>  <Similarity score>  (357) 
0.20

$$$$

     RDKit          2D

 27 30  0  0  0  0  0  0  0  0999 V2000
    5.9792   -3.4250    0.0000 C   0  0  0  0  0  0  0  0  0  0  0  0
    8.0292   -2.7292    0.0000 N   0  0  0  0  0  0  0  0  0  0  0  0
    6.7542   -2.3500    0.0000 N   0  0  0  0  0  0  0  0  0  0  0  0
    8.0292   -4.0667    0.0000 C   0  0  0  0  0  0  0  0  0  0  0  0
    6.7750   -4.5000    0.0000 C   0  0  0  0  0  0  0  0  0  0  0  0
    4.6500   -3.4417    0.0000 C   0  0  0  0  0  0  0  0  0  0  0  0
    3.9750   -2.2792    0.0000 N   0  0  0  0  0  0  0  0  0  0  0  0
    9.1792   -2.0750    0.0000 C   0  0  0  0  0  0  0  0  0  0  0  0
    2.6417   -2.3000    0.0000 C   0  0  0  0  0  0  0  0  0  0  0  0
   10.3417   -4.0667    0.0000 O   0  0  0  0  0  0  0  0  0  0  0  0
   10.3417   -2.7292    0.0000 C   0  0  0  0  0  0  0  0  0  0  0  0
    1.9792   -1.1500    0.0000 C   0  0  0  0  0  0  0  0  0  0  0  0
    9.1792   -4.7417    0.0000 C   0  0  0  0  0  0  0  0  0  0  0  0
    1.9792   -3.4500    0.0000 C   0  0  0  0  0  0  0  0  0  0  0  0
   11.4917   -2.0917    0.0000 C   0  0  0  0  0  0  0  0  0  0  0  0
    3.9917   -4.5917    0.0000 O   0  0  0  0  0  0  0  0  0  0  0  0
    0.6792   -3.4500    0.0000 C   0  0  0  0  0  0  0  0  0  0  0  0
   11.4917   -0.7542    0.0000 C   0  0  0  0  0  0  0  0  0  0  0  0
   12.6417   -2.7500    0.0000 C   0  0  0  0  0  0  0  0  0  0  0  0
    0.6500   -1.1500    0.0000 C   0  0  0  0  0  0  0  0  0  0  0  0
   13.8000   -0.7750    0.0000 C   0  0  0  0  0  0  0  0  0  0  0  0
    2.6417   -4.6000    0.0000 Cl  0  0  0  0  0  0  0  0  0  0  0  0
    0.0000   -2.3000    0.0000 C   0  0  0  0  0  0  0  0  0  0  0  0
   12.6542   -0.0917    0.0000 C   0  0  0  0  0  0  0  0  0  0  0  0
   13.8000   -2.0917    0.0000 C   0  0  0  0  0  0  0  0  0  0  0  0
    0.0000   -0.0000    0.0000 F   0  0  0  0  0  0  0  0  0  0  0  0
   14.9667   -0.1167    0.0000 Br  0  0  0  0  0  0  0  0  0  0  0  0
  2  3  1  0
  1  3  2  0
  4  5  2  0
  1  5  1  0
  1  6  1  0
  6  7  1  0
  2  8  1  0
  7  9  1  0
 10 13  1  0
  8 11  1  0
  9 12  2  0
  4 13  1  0
  9 14  1  0
 11 15  1  0
  6 16  2  0
 14 17  2  0
 15 18  1  0
 15 19  2  0
 12 20  1  0
 21 25  2  0
 14 22  1  0
 17 23  1  0
 18 24  2  0
 19 25  1  0
 20 26  1  0
 21 27  1  0
  2  4  1  0
 10 11  1  0
 20 23  2  0
 21 24  1  0
M  END
>  <MOLFORMULA>  (358) 
C19 H14 Br Cl F N3 O2

>  <MOLWEIGHT>  (358) 
4.506936000000000e+002

>  <IDNUMBER>  (358) 
AT-687/PE21230

>  <PRICE>  (358) 
EUR 80/10 mg

>  <Similarity score>  (358) 
0.20

$$$$

     RDKit          2D

 37 42  0  0  0  0  0  0  0  0999 V2000
    5.8292   -5.9750    0.0000 C   0  0  0  0  0  0  0  0  0  0  0  0
    4.6667   -6.6417    0.0000 C   0  0  0  0  0  0  0  0  0  0  0  0
    3.5250   -5.9750    0.0000 O   0  0  0  0  0  0  0  0  0  0  0  0
    3.5250   -4.6417    0.0000 C   0  0  0  0  0  0  0  0  0  0  0  0
    2.3667   -3.9792    0.0000 C   0  0  0  0  0  0  0  0  0  0  0  0
    5.8292   -4.6417    0.0000 C   0  0  0  0  0  0  0  0  0  0  0  0
    6.9750   -6.6417    0.0000 C   0  0  0  0  0  0  0  0  0  0  0  0
    4.6667   -3.9792    0.0000 C   0  0  0  0  0  0  0  0  0  0  0  0
    2.3667   -2.6500    0.0000 C   0  0  0  0  0  0  0  0  0  0  0  0
    4.6417   -7.9667    0.0000 N   0  0  0  0  0  0  0  0  0  0  0  0
    3.5250   -1.9792    0.0000 C   0  0  0  0  0  0  0  0  0  0  0  0
    1.2250   -1.9792    0.0000 N   0  0  0  0  0  0  0  0  0  0  0  0
    4.6667   -2.6500    0.0000 C   0  0  0  0  0  0  0  0  0  0  0  0
    7.0000   -7.9750    0.0000 N   0  0  0  0  0  0  0  0  0  0  0  0
    2.3667   -7.9250    0.0000 C   0  0  0  0  0  0  0  0  0  0  0  0
    1.2000   -8.5750    0.0000 C   0  0  0  0  0  0  0  0  0  0  0  0
    3.5000   -8.6042    0.0000 C   0  0  0  0  0  0  0  0  0  0  0  0
    8.1292   -5.9750    0.0000 O   0  0  0  0  0  0  0  0  0  0  0  0
    1.1792   -9.9042    0.0000 C   0  0  0  0  0  0  0  0  0  0  0  0
    2.3167  -10.6000    0.0000 C   0  0  0  0  0  0  0  0  0  0  0  0
    1.2250   -4.6417    0.0000 C   0  0  0  0  0  0  0  0  0  0  0  0
    8.1500   -8.6500    0.0000 C   0  0  0  0  0  0  0  0  0  0  0  0
    3.4750   -9.9500    0.0000 C   0  0  0  0  0  0  0  0  0  0  0  0
    0.0500   -7.8917    0.0000 O   0  0  0  0  0  0  0  0  0  0  0  0
    3.5250   -0.6667    0.0000 C   0  0  0  0  0  0  0  0  0  0  0  0
    0.0750   -2.6500    0.0000 C   0  0  0  0  0  0  0  0  0  0  0  0
    1.2250   -0.6667    0.0000 C   0  0  0  0  0  0  0  0  0  0  0  0
    0.0167  -10.5667    0.0000 O   0  0  0  0  0  0  0  0  0  0  0  0
    0.0750   -3.9792    0.0000 C   0  0  0  0  0  0  0  0  0  0  0  0
    2.3667   -0.0000    0.0000 C   0  0  0  0  0  0  0  0  0  0  0  0
    9.3000   -7.9750    0.0000 C   0  0  0  0  0  0  0  0  0  0  0  0
    8.1500   -9.9750    0.0000 C   0  0  0  0  0  0  0  0  0  0  0  0
    0.0500   -6.5292    0.0000 C   0  0  0  0  0  0  0  0  0  0  0  0
    0.0000  -11.9042    0.0000 C   0  0  0  0  0  0  0  0  0  0  0  0
    9.3000  -10.6500    0.0000 C   0  0  0  0  0  0  0  0  0  0  0  0
   10.4417   -8.6500    0.0000 C   0  0  0  0  0  0  0  0  0  0  0  0
   10.4417   -9.9750    0.0000 C   0  0  0  0  0  0  0  0  0  0  0  0
  1  2  1  0
  2  3  1  0
  4  8  2  0
  4  5  1  0
  1  6  2  0
  1  7  1  0
  6  8  1  0
  9 11  1  0
  2 10  2  0
 11 13  2  0
  9 12  1  0
  8 13  1  0
  7 14  1  0
 15 17  2  0
 15 16  1  0
 10 17  1  0
  7 18  2  0
 19 20  1  0
 20 23  2  0
  5 21  1  0
 14 22  1  0
 17 23  1  0
 16 24  1  0
 11 25  1  0
 12 26  1  0
 27 30  1  0
 19 28  1  0
 21 29  1  0
 25 30  1  0
 22 31  1  0
 22 32  2  0
 24 33  1  0
 28 34  1  0
 32 35  1  0
 31 36  2  0
 35 37  2  0
  3  4  1  0
  5  9  2  0
 36 37  1  0
 26 29  1  0
 16 19  2  0
 12 27  1  0
M  END
>  <MOLFORMULA>  (359) 
C30 H29 N3 O4

>  <MOLWEIGHT>  (359) 
4.955761000000000e+002

>  <IDNUMBER>  (359) 
AT-687/PE10201

>  <PRICE>  (359) 
EUR 80/10 mg

>  <Similarity score>  (359) 
0.20

$$$$

     RDKit          2D

 30 33  0  0  0  0  0  0  0  0999 V2000
    8.0667   -5.9417    0.0000 C   0  0  0  0  0  0  0  0  0  0  0  0
    6.9000   -6.6000    0.0000 N   0  0  0  0  0  0  0  0  0  0  0  0
    8.0500   -4.6292    0.0000 N   0  0  0  0  0  0  0  0  0  0  0  0
    9.2250   -6.6000    0.0000 N   0  0  0  0  0  0  0  0  0  0  0  0
    6.9000   -7.9417    0.0000 C   0  0  0  0  0  0  0  0  0  0  0  0
    6.9000   -3.9750    0.0000 C   0  0  0  0  0  0  0  0  0  0  0  0
    8.0667   -8.6000    0.0000 C   0  0  0  0  0  0  0  0  0  0  0  0
    6.9000   -2.6417    0.0000 C   0  0  0  0  0  0  0  0  0  0  0  0
    3.4500   -8.6000    0.0000 C   0  0  0  0  0  0  0  0  0  0  0  0
    9.2250   -7.9417    0.0000 C   0  0  0  0  0  0  0  0  0  0  0  0
    2.3000   -7.9417    0.0000 N   0  0  0  0  0  0  0  0  0  0  0  0
    1.1500   -4.6292    0.0000 C   0  0  0  0  0  0  0  0  0  0  0  0
    9.1917   -3.9667    0.0000 C   0  0  0  0  0  0  0  0  0  0  0  0
    2.3000   -6.6000    0.0000 C   0  0  0  0  0  0  0  0  0  0  0  0
    1.1500   -5.9500    0.0000 C   0  0  0  0  0  0  0  0  0  0  0  0
    8.0500   -1.9667    0.0000 C   0  0  0  0  0  0  0  0  0  0  0  0
    2.3000   -3.9542    0.0000 C   0  0  0  0  0  0  0  0  0  0  0  0
    5.7500   -8.6000    0.0000 O   0  0  0  0  0  0  0  0  0  0  0  0
    3.4500   -9.9292    0.0000 O   0  0  0  0  0  0  0  0  0  0  0  0
    9.1917   -2.6417    0.0000 C   0  0  0  0  0  0  0  0  0  0  0  0
    3.4750   -4.6292    0.0000 C   0  0  0  0  0  0  0  0  0  0  0  0
    4.6167   -7.9417    0.0000 C   0  0  0  0  0  0  0  0  0  0  0  0
    3.4750   -5.9500    0.0000 C   0  0  0  0  0  0  0  0  0  0  0  0
    5.7500   -2.0000    0.0000 C   0  0  0  0  0  0  0  0  0  0  0  0
    0.0000   -3.9667    0.0000 C   0  0  0  0  0  0  0  0  0  0  0  0
   10.3750   -8.6000    0.0000 C   0  0  0  0  0  0  0  0  0  0  0  0
    8.0417   -0.6417    0.0000 C   0  0  0  0  0  0  0  0  0  0  0  0
    2.3000   -2.6250    0.0000 C   0  0  0  0  0  0  0  0  0  0  0  0
    5.7292   -0.6750    0.0000 C   0  0  0  0  0  0  0  0  0  0  0  0
    6.8750   -0.0000    0.0000 C   0  0  0  0  0  0  0  0  0  0  0  0
  1  2  2  0
  1  3  1  0
  1  4  1  0
  2  5  1  0
  3  6  1  0
  7 10  1  0
  6  8  1  0
  9 22  1  0
  4 10  2  0
  9 11  1  0
 12 15  1  0
  3 13  1  0
 11 14  1  0
 14 15  2  0
 16 20  1  0
 17 21  1  0
  5 18  1  0
  9 19  2  0
 13 20  1  0
 21 23  2  0
 18 22  1  0
 14 23  1  0
  8 24  1  0
 12 25  1  0
 10 26  1  0
 16 27  1  0
 17 28  1  0
 24 29  2  0
 27 30  2  0
  5  7  2  0
  8 16  2  0
 29 30  1  0
 12 17  2  0
M  END
>  <MOLFORMULA>  (360) 
C24 H26 N4 O2

>  <MOLWEIGHT>  (360) 
4.024954000000000e+002

>  <IDNUMBER>  (360) 
AT-687/PE16662

>  <PRICE>  (360) 
EUR 80/10 mg

>  <Similarity score>  (360) 
0.20

$$$$

     RDKit          2D

 31 35  0  0  0  0  0  0  0  0999 V2000
    9.9792   -4.0792    0.0000 N   0  0  0  0  0  0  0  0  0  0  0  0
    7.9417   -4.7750    0.0000 C   0  0  0  0  0  0  0  0  0  0  0  0
    8.7250   -3.6750    0.0000 N   0  0  0  0  0  0  0  0  0  0  0  0
   10.0000   -5.4042    0.0000 C   0  0  0  0  0  0  0  0  0  0  0  0
    8.7417   -5.8417    0.0000 C   0  0  0  0  0  0  0  0  0  0  0  0
    6.6167   -4.7750    0.0000 C   0  0  0  0  0  0  0  0  0  0  0  0
   11.1500   -3.4167    0.0000 C   0  0  0  0  0  0  0  0  0  0  0  0
   12.3167   -5.4042    0.0000 O   0  0  0  0  0  0  0  0  0  0  0  0
   12.3167   -4.0792    0.0000 C   0  0  0  0  0  0  0  0  0  0  0  0
   14.6250   -1.4167    0.0000 C   0  0  0  0  0  0  0  0  0  0  0  0
   13.4500   -3.4250    0.0000 C   0  0  0  0  0  0  0  0  0  0  0  0
    5.9417   -5.9250    0.0000 N   0  0  0  0  0  0  0  0  0  0  0  0
   13.4500   -2.1000    0.0000 C   0  0  0  0  0  0  0  0  0  0  0  0
   11.1500   -6.0750    0.0000 C   0  0  0  0  0  0  0  0  0  0  0  0
   15.7667   -2.0917    0.0000 C   0  0  0  0  0  0  0  0  0  0  0  0
    3.9667   -4.8000    0.0000 C   0  0  0  0  0  0  0  0  0  0  0  0
   14.8917   -0.1167    0.0000 O   0  0  0  0  0  0  0  0  0  0  0  0
   16.7500   -1.2000    0.0000 O   0  0  0  0  0  0  0  0  0  0  0  0
   16.2167   -0.0000    0.0000 C   0  0  0  0  0  0  0  0  0  0  0  0
    4.6250   -5.9250    0.0000 C   0  0  0  0  0  0  0  0  0  0  0  0
    5.9417   -3.6250    0.0000 O   0  0  0  0  0  0  0  0  0  0  0  0
    2.6417   -4.8000    0.0000 C   0  0  0  0  0  0  0  0  0  0  0  0
   14.6042   -4.1000    0.0000 C   0  0  0  0  0  0  0  0  0  0  0  0
   15.7667   -3.4250    0.0000 C   0  0  0  0  0  0  0  0  0  0  0  0
    1.9917   -5.9542    0.0000 O   0  0  0  0  0  0  0  0  0  0  0  0
    4.6250   -3.6667    0.0000 C   0  0  0  0  0  0  0  0  0  0  0  0
    1.9750   -3.6667    0.0000 C   0  0  0  0  0  0  0  0  0  0  0  0
    0.6500   -5.9417    0.0000 C   0  0  0  0  0  0  0  0  0  0  0  0
    0.0000   -7.1000    0.0000 C   0  0  0  0  0  0  0  0  0  0  0  0
    3.9667   -2.5042    0.0000 C   0  0  0  0  0  0  0  0  0  0  0  0
    2.6250   -2.5042    0.0000 C   0  0  0  0  0  0  0  0  0  0  0  0
  2  3  2  0
  1  3  1  0
  1  4  1  0
  4  5  2  0
  2  6  1  0
  1  7  1  0
  8  9  1  0
  7  9  1  0
 10 13  1  0
  9 11  1  0
  6 12  1  0
 11 13  2  0
  4 14  1  0
 15 24  1  0
 16 20  1  0
 10 17  1  0
 15 18  1  0
 17 19  1  0
 12 20  1  0
  6 21  2  0
 16 22  2  0
 11 23  1  0
 23 24  2  0
 22 25  1  0
 16 26  1  0
 22 27  1  0
 25 28  1  0
 28 29  1  0
 26 30  2  0
 30 31  1  0
  8 14  1  0
  2  5  1  0
 10 15  2  0
 18 19  1  0
 27 31  2  0
M  END
>  <MOLFORMULA>  (361) 
C23 H23 N3 O5

>  <MOLWEIGHT>  (361) 
4.214507000000000e+002

>  <IDNUMBER>  (361) 
AT-687/PE21319

>  <PRICE>  (361) 
EUR 80/10 mg

>  <Similarity score>  (361) 
0.20

$$$$

     RDKit          2D

 31 35  0  0  0  0  0  0  0  0999 V2000
    7.9292   -4.7792    0.0000 C   0  0  0  0  0  0  0  0  0  0  0  0
    9.9750   -4.1000    0.0000 N   0  0  0  0  0  0  0  0  0  0  0  0
    8.7167   -3.7000    0.0000 N   0  0  0  0  0  0  0  0  0  0  0  0
    9.9750   -5.4417    0.0000 C   0  0  0  0  0  0  0  0  0  0  0  0
    8.7292   -5.8500    0.0000 C   0  0  0  0  0  0  0  0  0  0  0  0
    6.6042   -4.7792    0.0000 C   0  0  0  0  0  0  0  0  0  0  0  0
   11.1500   -3.4250    0.0000 C   0  0  0  0  0  0  0  0  0  0  0  0
    5.9417   -3.6500    0.0000 N   0  0  0  0  0  0  0  0  0  0  0  0
   12.2792   -5.4417    0.0000 O   0  0  0  0  0  0  0  0  0  0  0  0
   12.2792   -4.1000    0.0000 C   0  0  0  0  0  0  0  0  0  0  0  0
    4.6000   -3.6667    0.0000 C   0  0  0  0  0  0  0  0  0  0  0  0
   14.6167   -1.4500    0.0000 C   0  0  0  0  0  0  0  0  0  0  0  0
   13.4417   -3.4417    0.0000 C   0  0  0  0  0  0  0  0  0  0  0  0
    3.9500   -4.8000    0.0000 C   0  0  0  0  0  0  0  0  0  0  0  0
   13.4417   -2.1250    0.0000 C   0  0  0  0  0  0  0  0  0  0  0  0
   11.1500   -6.0917    0.0000 C   0  0  0  0  0  0  0  0  0  0  0  0
    2.6250   -4.8000    0.0000 C   0  0  0  0  0  0  0  0  0  0  0  0
   15.7500   -2.1000    0.0000 C   0  0  0  0  0  0  0  0  0  0  0  0
   14.8750   -0.1250    0.0000 O   0  0  0  0  0  0  0  0  0  0  0  0
   16.7417   -1.2292    0.0000 O   0  0  0  0  0  0  0  0  0  0  0  0
   16.2000   -0.0000    0.0000 C   0  0  0  0  0  0  0  0  0  0  0  0
    5.9417   -5.9417    0.0000 O   0  0  0  0  0  0  0  0  0  0  0  0
   14.6000   -4.1167    0.0000 C   0  0  0  0  0  0  0  0  0  0  0  0
   15.7500   -3.4417    0.0000 C   0  0  0  0  0  0  0  0  0  0  0  0
    3.9500   -2.4917    0.0000 C   0  0  0  0  0  0  0  0  0  0  0  0
    1.9500   -3.6667    0.0000 C   0  0  0  0  0  0  0  0  0  0  0  0
    2.6250   -2.4917    0.0000 C   0  0  0  0  0  0  0  0  0  0  0  0
    4.6000   -5.9500    0.0000 O   0  0  0  0  0  0  0  0  0  0  0  0
    0.6500   -3.6667    0.0000 O   0  0  0  0  0  0  0  0  0  0  0  0
    3.9500   -7.1000    0.0000 C   0  0  0  0  0  0  0  0  0  0  0  0
    0.0000   -4.8167    0.0000 C   0  0  0  0  0  0  0  0  0  0  0  0
  2  3  1  0
  1  3  2  0
  4  5  2  0
  1  5  1  0
  1  6  1  0
  2  7  1  0
  6  8  1  0
  9 16  1  0
  7 10  1  0
  8 11  1  0
 12 15  1  0
 10 13  1  0
 11 14  2  0
 13 15  2  0
  4 16  1  0
 14 17  1  0
 18 24  1  0
 12 19  1  0
 18 20  1  0
 19 21  1  0
  6 22  2  0
 13 23  1  0
 23 24  2  0
 11 25  1  0
 26 27  1  0
 25 27  2  0
 14 28  1  0
 26 29  1  0
 28 30  1  0
 29 31  1  0
  2  4  1  0
  9 10  1  0
 17 26  2  0
 12 18  2  0
 20 21  1  0
M  END
>  <MOLFORMULA>  (362) 
C22 H21 N3 O6

>  <MOLWEIGHT>  (362) 
4.234229000000000e+002

>  <IDNUMBER>  (362) 
AT-687/PE21239

>  <PRICE>  (362) 
EUR 80/10 mg

>  <Similarity score>  (362) 
0.20

$$$$

     RDKit          2D

 29 33  0  0  0  0  0  0  0  0999 V2000
    7.9667   -4.7750    0.0000 C   0  0  0  0  0  0  0  0  0  0  0  0
   10.0000   -4.0917    0.0000 N   0  0  0  0  0  0  0  0  0  0  0  0
    8.7500   -3.6750    0.0000 N   0  0  0  0  0  0  0  0  0  0  0  0
   10.0292   -5.4000    0.0000 C   0  0  0  0  0  0  0  0  0  0  0  0
    8.7750   -5.8500    0.0000 C   0  0  0  0  0  0  0  0  0  0  0  0
    6.6250   -4.7750    0.0000 C   0  0  0  0  0  0  0  0  0  0  0  0
   11.1750   -3.4167    0.0000 C   0  0  0  0  0  0  0  0  0  0  0  0
   12.3250   -5.4000    0.0000 O   0  0  0  0  0  0  0  0  0  0  0  0
   12.3250   -4.0917    0.0000 C   0  0  0  0  0  0  0  0  0  0  0  0
    5.9750   -3.6250    0.0000 N   0  0  0  0  0  0  0  0  0  0  0  0
   14.6500   -1.4417    0.0000 C   0  0  0  0  0  0  0  0  0  0  0  0
   13.4917   -3.4292    0.0000 C   0  0  0  0  0  0  0  0  0  0  0  0
   13.4917   -2.0917    0.0000 C   0  0  0  0  0  0  0  0  0  0  0  0
   11.1750   -6.0917    0.0000 C   0  0  0  0  0  0  0  0  0  0  0  0
   15.7917   -2.0917    0.0000 C   0  0  0  0  0  0  0  0  0  0  0  0
   14.9000   -0.1500    0.0000 O   0  0  0  0  0  0  0  0  0  0  0  0
   16.7750   -1.2250    0.0000 O   0  0  0  0  0  0  0  0  0  0  0  0
   16.2417   -0.0000    0.0000 C   0  0  0  0  0  0  0  0  0  0  0  0
    5.9917   -5.9417    0.0000 O   0  0  0  0  0  0  0  0  0  0  0  0
   14.6250   -4.1000    0.0000 C   0  0  0  0  0  0  0  0  0  0  0  0
   15.7917   -3.4292    0.0000 C   0  0  0  0  0  0  0  0  0  0  0  0
    4.6417   -3.6417    0.0000 C   0  0  0  0  0  0  0  0  0  0  0  0
    1.9917   -3.6500    0.0000 C   0  0  0  0  0  0  0  0  0  0  0  0
    3.9750   -2.5167    0.0000 C   0  0  0  0  0  0  0  0  0  0  0  0
    3.9917   -4.8000    0.0000 C   0  0  0  0  0  0  0  0  0  0  0  0
    2.6750   -4.8167    0.0000 C   0  0  0  0  0  0  0  0  0  0  0  0
    2.6500   -2.5167    0.0000 C   0  0  0  0  0  0  0  0  0  0  0  0
    0.6667   -3.6750    0.0000 C   0  0  0  0  0  0  0  0  0  0  0  0
    0.0000   -2.5500    0.0000 C   0  0  0  0  0  0  0  0  0  0  0  0
  2  3  1  0
  1  3  2  0
  4  5  2  0
  1  5  1  0
  1  6  1  0
  2  7  1  0
  8 14  1  0
  7  9  1  0
  6 10  1  0
 11 13  1  0
  9 12  1  0
 12 13  2  0
  4 14  1  0
 15 21  1  0
 11 16  1  0
 15 17  1  0
 16 18  1  0
  6 19  2  0
 12 20  1  0
 20 21  2  0
 10 22  1  0
 23 26  2  0
 22 24  1  0
 22 25  2  0
 25 26  1  0
 24 27  2  0
 23 28  1  0
 28 29  1  0
  2  4  1  0
  8  9  1  0
 23 27  1  0
 11 15  2  0
 17 18  1  0
M  END
>  <MOLFORMULA>  (363) 
C22 H21 N3 O4

>  <MOLWEIGHT>  (363) 
3.914249000000000e+002

>  <IDNUMBER>  (363) 
AT-687/PE21237

>  <PRICE>  (363) 
EUR 80/10 mg

>  <Similarity score>  (363) 
0.20

$$$$

     RDKit          2D

 29 33  0  0  0  0  0  0  0  0999 V2000
    7.3000   -4.8000    0.0000 C   0  0  0  0  0  0  0  0  0  0  0  0
    9.3417   -4.1000    0.0000 N   0  0  0  0  0  0  0  0  0  0  0  0
    8.0750   -3.7000    0.0000 N   0  0  0  0  0  0  0  0  0  0  0  0
    9.3542   -5.4417    0.0000 C   0  0  0  0  0  0  0  0  0  0  0  0
    8.0917   -5.8667    0.0000 C   0  0  0  0  0  0  0  0  0  0  0  0
    5.9542   -4.8000    0.0000 C   0  0  0  0  0  0  0  0  0  0  0  0
   10.5000   -3.4417    0.0000 C   0  0  0  0  0  0  0  0  0  0  0  0
    5.3000   -3.6500    0.0000 N   0  0  0  0  0  0  0  0  0  0  0  0
   11.6667   -5.4417    0.0000 O   0  0  0  0  0  0  0  0  0  0  0  0
   11.6667   -4.1000    0.0000 C   0  0  0  0  0  0  0  0  0  0  0  0
    3.9542   -3.6750    0.0000 C   0  0  0  0  0  0  0  0  0  0  0  0
   13.9750   -1.4667    0.0000 C   0  0  0  0  0  0  0  0  0  0  0  0
   12.8042   -3.4417    0.0000 C   0  0  0  0  0  0  0  0  0  0  0  0
    3.2792   -4.8167    0.0000 C   0  0  0  0  0  0  0  0  0  0  0  0
   12.8042   -2.1250    0.0000 C   0  0  0  0  0  0  0  0  0  0  0  0
   10.5000   -6.1000    0.0000 C   0  0  0  0  0  0  0  0  0  0  0  0
    1.9917   -4.8167    0.0000 C   0  0  0  0  0  0  0  0  0  0  0  0
   15.1250   -2.1250    0.0000 C   0  0  0  0  0  0  0  0  0  0  0  0
   14.2542   -0.1500    0.0000 O   0  0  0  0  0  0  0  0  0  0  0  0
   16.1167   -1.2292    0.0000 O   0  0  0  0  0  0  0  0  0  0  0  0
   15.5792   -0.0000    0.0000 C   0  0  0  0  0  0  0  0  0  0  0  0
    5.3167   -5.9417    0.0000 O   0  0  0  0  0  0  0  0  0  0  0  0
   13.9750   -4.1000    0.0000 C   0  0  0  0  0  0  0  0  0  0  0  0
   15.1250   -3.4542    0.0000 C   0  0  0  0  0  0  0  0  0  0  0  0
    3.2792   -2.5250    0.0000 C   0  0  0  0  0  0  0  0  0  0  0  0
    1.3000   -3.6750    0.0000 C   0  0  0  0  0  0  0  0  0  0  0  0
    3.9542   -5.9750    0.0000 Cl  0  0  0  0  0  0  0  0  0  0  0  0
    1.9750   -2.5250    0.0000 C   0  0  0  0  0  0  0  0  0  0  0  0
    0.0000   -3.6750    0.0000 F   0  0  0  0  0  0  0  0  0  0  0  0
  2  3  1  0
  1  3  2  0
  4  5  2  0
  1  5  1  0
  1  6  1  0
  2  7  1  0
  6  8  1  0
  9 16  1  0
  7 10  1  0
  8 11  1  0
 12 15  1  0
 10 13  1  0
 11 14  2  0
 13 15  2  0
  4 16  1  0
 14 17  1  0
 18 24  1  0
 12 19  1  0
 18 20  1  0
 19 21  1  0
  6 22  2  0
 13 23  1  0
 23 24  2  0
 11 25  1  0
 26 28  1  0
 14 27  1  0
 25 28  2  0
 26 29  1  0
  2  4  1  0
  9 10  1  0
 17 26  2  0
 12 18  2  0
 20 21  1  0
M  END
>  <MOLFORMULA>  (364) 
C20 H15 Cl F N3 O4

>  <MOLWEIGHT>  (364) 
4.158065000000000e+002

>  <IDNUMBER>  (364) 
AT-687/PE21246

>  <PRICE>  (364) 
EUR 80/10 mg

>  <Similarity score>  (364) 
0.20

$$$$

     RDKit          2D

 29 32  0  0  0  0  0  0  0  0999 V2000
    6.1000   -7.3500    0.0000 C   0  0  0  0  0  0  0  0  0  0  0  0
    4.6500   -5.7500    0.0000 N   0  0  0  0  0  0  0  0  0  0  0  0
    5.9500   -6.0417    0.0000 N   0  0  0  0  0  0  0  0  0  0  0  0
    3.9792   -6.9167    0.0000 C   0  0  0  0  0  0  0  0  0  0  0  0
    4.8750   -7.8917    0.0000 C   0  0  0  0  0  0  0  0  0  0  0  0
    7.2417   -8.0250    0.0000 C   0  0  0  0  0  0  0  0  0  0  0  0
    3.9792   -4.6042    0.0000 C   0  0  0  0  0  0  0  0  0  0  0  0
    1.9917   -5.7500    0.0000 O   0  0  0  0  0  0  0  0  0  0  0  0
    2.6500   -4.6042    0.0000 C   0  0  0  0  0  0  0  0  0  0  0  0
    8.3917   -7.3500    0.0000 N   0  0  0  0  0  0  0  0  0  0  0  0
    2.6500   -6.9167    0.0000 C   0  0  0  0  0  0  0  0  0  0  0  0
   13.0000  -11.3500    0.0000 C   0  0  0  0  0  0  0  0  0  0  0  0
   13.0000  -10.0167    0.0000 N   0  0  0  0  0  0  0  0  0  0  0  0
    1.9917   -3.4667    0.0000 C   0  0  0  0  0  0  0  0  0  0  0  0
    7.2417   -9.3500    0.0000 O   0  0  0  0  0  0  0  0  0  0  0  0
   11.8417  -12.0042    0.0000 O   0  0  0  0  0  0  0  0  0  0  0  0
    9.5500   -8.0250    0.0000 C   0  0  0  0  0  0  0  0  0  0  0  0
    2.6500   -2.3000    0.0000 C   0  0  0  0  0  0  0  0  0  0  0  0
    0.6542   -3.4667    0.0000 C   0  0  0  0  0  0  0  0  0  0  0  0
   11.8417   -9.3500    0.0000 C   0  0  0  0  0  0  0  0  0  0  0  0
    0.6542   -1.1500    0.0000 C   0  0  0  0  0  0  0  0  0  0  0  0
    1.9917   -1.1500    0.0000 C   0  0  0  0  0  0  0  0  0  0  0  0
    0.0000   -2.3000    0.0000 C   0  0  0  0  0  0  0  0  0  0  0  0
    0.0000   -0.0000    0.0000 F   0  0  0  0  0  0  0  0  0  0  0  0
   10.7000   -7.3500    0.0000 C   0  0  0  0  0  0  0  0  0  0  0  0
    9.5500   -9.3500    0.0000 C   0  0  0  0  0  0  0  0  0  0  0  0
   10.7000  -10.0167    0.0000 C   0  0  0  0  0  0  0  0  0  0  0  0
   11.8417   -8.0250    0.0000 C   0  0  0  0  0  0  0  0  0  0  0  0
   14.1500  -12.0042    0.0000 C   0  0  0  0  0  0  0  0  0  0  0  0
  2  3  1  0
  1  3  2  0
  4  5  2  0
  1  5  1  0
  1  6  1  0
  2  7  1  0
  8 11  1  0
  7  9  1  0
  6 10  1  0
  4 11  1  0
 12 13  1  0
 13 20  1  0
  9 14  1  0
  6 15  2  0
 12 16  2  0
 10 17  1  0
 14 18  1  0
 14 19  2  0
 20 27  2  0
 21 23  2  0
 18 22  2  0
 19 23  1  0
 21 24  1  0
 17 25  1  0
 17 26  2  0
 26 27  1  0
 25 28  2  0
 12 29  1  0
  2  4  1  0
  8  9  1  0
 20 28  1  0
 21 22  1  0
M  END
>  <MOLFORMULA>  (365) 
C21 H19 F N4 O3

>  <MOLWEIGHT>  (365) 
3.944041000000000e+002

>  <IDNUMBER>  (365) 
AT-687/PE26865

>  <PRICE>  (365) 
EUR 80/10 mg

>  <Similarity score>  (365) 
0.20

$$$$

     RDKit          2D

 29 32  0  0  0  0  0  0  0  0999 V2000
    7.3000   -3.4167    0.0000 C   0  0  0  0  0  0  0  0  0  0  0  0
    9.3500   -2.7292    0.0000 N   0  0  0  0  0  0  0  0  0  0  0  0
    8.1000   -2.3250    0.0000 N   0  0  0  0  0  0  0  0  0  0  0  0
    9.3750   -4.0667    0.0000 C   0  0  0  0  0  0  0  0  0  0  0  0
    8.1167   -4.5000    0.0000 C   0  0  0  0  0  0  0  0  0  0  0  0
    5.9750   -3.4167    0.0000 C   0  0  0  0  0  0  0  0  0  0  0  0
    5.3042   -2.2750    0.0000 N   0  0  0  0  0  0  0  0  0  0  0  0
   10.5167   -2.0500    0.0000 C   0  0  0  0  0  0  0  0  0  0  0  0
    3.9542   -2.2750    0.0000 C   0  0  0  0  0  0  0  0  0  0  0  0
   11.6750   -4.0667    0.0000 O   0  0  0  0  0  0  0  0  0  0  0  0
   11.6750   -2.7292    0.0000 C   0  0  0  0  0  0  0  0  0  0  0  0
    3.3000   -1.1292    0.0000 C   0  0  0  0  0  0  0  0  0  0  0  0
   10.5167   -4.7250    0.0000 C   0  0  0  0  0  0  0  0  0  0  0  0
    3.3000   -3.4292    0.0000 C   0  0  0  0  0  0  0  0  0  0  0  0
   12.8250   -2.0667    0.0000 C   0  0  0  0  0  0  0  0  0  0  0  0
    5.3042   -4.5750    0.0000 O   0  0  0  0  0  0  0  0  0  0  0  0
    2.0000   -3.4292    0.0000 C   0  0  0  0  0  0  0  0  0  0  0  0
   12.8250   -0.7500    0.0000 C   0  0  0  0  0  0  0  0  0  0  0  0
   13.9917   -2.7292    0.0000 C   0  0  0  0  0  0  0  0  0  0  0  0
    1.9667   -1.1292    0.0000 C   0  0  0  0  0  0  0  0  0  0  0  0
   15.1417   -0.7542    0.0000 C   0  0  0  0  0  0  0  0  0  0  0  0
    1.3000   -2.2917    0.0000 C   0  0  0  0  0  0  0  0  0  0  0  0
   15.1250   -2.0750    0.0000 C   0  0  0  0  0  0  0  0  0  0  0  0
   13.9917   -0.0917    0.0000 C   0  0  0  0  0  0  0  0  0  0  0  0
   16.3000   -0.0917    0.0000 Cl  0  0  0  0  0  0  0  0  0  0  0  0
    3.9542   -4.5917    0.0000 O   0  0  0  0  0  0  0  0  0  0  0  0
    1.3000   -0.0000    0.0000 O   0  0  0  0  0  0  0  0  0  0  0  0
    3.3000   -5.7292    0.0000 C   0  0  0  0  0  0  0  0  0  0  0  0
    0.0000   -0.0000    0.0000 C   0  0  0  0  0  0  0  0  0  0  0  0
  2  3  1  0
  1  3  2  0
  4  5  2  0
  1  5  1  0
  1  6  1  0
  6  7  1  0
  2  8  1  0
  7  9  1  0
 10 13  1  0
  8 11  1  0
  9 12  2  0
  4 13  1  0
  9 14  1  0
 11 15  1  0
  6 16  2  0
 14 17  2  0
 15 18  1  0
 15 19  2  0
 12 20  1  0
 21 23  2  0
 17 22  1  0
 19 23  1  0
 18 24  2  0
 21 25  1  0
 14 26  1  0
 20 27  1  0
 26 28  1  0
 27 29  1  0
  2  4  1  0
 10 11  1  0
 20 22  2  0
 21 24  1  0
M  END
>  <MOLFORMULA>  (366) 
C21 H20 Cl N3 O4

>  <MOLWEIGHT>  (366) 
4.138590000000000e+002

>  <IDNUMBER>  (366) 
AT-687/PE21199

>  <PRICE>  (366) 
EUR 80/10 mg

>  <Similarity score>  (366) 
0.20

$$$$

     RDKit          2D

 38 43  0  0  0  0  0  0  0  0999 V2000
    8.1250   -5.9792    0.0000 C   0  0  0  0  0  0  0  0  0  0  0  0
    6.9667   -6.6500    0.0000 C   0  0  0  0  0  0  0  0  0  0  0  0
    5.8167   -5.9792    0.0000 O   0  0  0  0  0  0  0  0  0  0  0  0
    5.8167   -4.6500    0.0000 C   0  0  0  0  0  0  0  0  0  0  0  0
    4.6750   -3.9792    0.0000 C   0  0  0  0  0  0  0  0  0  0  0  0
    8.1250   -4.6500    0.0000 C   0  0  0  0  0  0  0  0  0  0  0  0
    9.2792   -6.6500    0.0000 C   0  0  0  0  0  0  0  0  0  0  0  0
    6.9667   -3.9792    0.0000 C   0  0  0  0  0  0  0  0  0  0  0  0
    4.6750   -2.6542    0.0000 C   0  0  0  0  0  0  0  0  0  0  0  0
    6.9417   -7.9750    0.0000 N   0  0  0  0  0  0  0  0  0  0  0  0
    5.8167   -2.0000    0.0000 C   0  0  0  0  0  0  0  0  0  0  0  0
    9.3000   -7.9792    0.0000 N   0  0  0  0  0  0  0  0  0  0  0  0
    3.5250   -2.0000    0.0000 N   0  0  0  0  0  0  0  0  0  0  0  0
    6.9667   -2.6542    0.0000 C   0  0  0  0  0  0  0  0  0  0  0  0
   10.4250   -8.6500    0.0000 C   0  0  0  0  0  0  0  0  0  0  0  0
   10.4250   -5.9792    0.0000 O   0  0  0  0  0  0  0  0  0  0  0  0
   11.5750   -7.9792    0.0000 C   0  0  0  0  0  0  0  0  0  0  0  0
    5.7917   -8.6250    0.0000 C   0  0  0  0  0  0  0  0  0  0  0  0
    3.5250   -4.6500    0.0000 C   0  0  0  0  0  0  0  0  0  0  0  0
    3.4792   -9.9500    0.0000 C   0  0  0  0  0  0  0  0  0  0  0  0
    5.8167   -0.6542    0.0000 C   0  0  0  0  0  0  0  0  0  0  0  0
    2.3667   -2.6542    0.0000 C   0  0  0  0  0  0  0  0  0  0  0  0
    3.5250   -0.6542    0.0000 C   0  0  0  0  0  0  0  0  0  0  0  0
    4.6542   -7.9542    0.0000 C   0  0  0  0  0  0  0  0  0  0  0  0
    5.7917   -9.9500    0.0000 C   0  0  0  0  0  0  0  0  0  0  0  0
    4.6500  -10.6042    0.0000 C   0  0  0  0  0  0  0  0  0  0  0  0
    3.4792   -8.6042    0.0000 C   0  0  0  0  0  0  0  0  0  0  0  0
   11.5750   -6.6542    0.0000 O   0  0  0  0  0  0  0  0  0  0  0  0
    2.3167  -10.6042    0.0000 O   0  0  0  0  0  0  0  0  0  0  0  0
    2.3667   -3.9792    0.0000 C   0  0  0  0  0  0  0  0  0  0  0  0
    4.6750   -0.0000    0.0000 C   0  0  0  0  0  0  0  0  0  0  0  0
   10.4250   -9.9792    0.0000 C   0  0  0  0  0  0  0  0  0  0  0  0
   12.7292   -8.6500    0.0000 C   0  0  0  0  0  0  0  0  0  0  0  0
    1.1500   -9.9250    0.0000 C   0  0  0  0  0  0  0  0  0  0  0  0
   12.7250   -6.0000    0.0000 C   0  0  0  0  0  0  0  0  0  0  0  0
    0.0000  -10.5792    0.0000 C   0  0  0  0  0  0  0  0  0  0  0  0
   11.5750  -10.6500    0.0000 C   0  0  0  0  0  0  0  0  0  0  0  0
   12.7292   -9.9792    0.0000 C   0  0  0  0  0  0  0  0  0  0  0  0
  1  2  1  0
  2  3  1  0
  4  8  2  0
  4  5  1  0
  1  6  2  0
  1  7  1  0
  6  8  1  0
  9 11  1  0
  2 10  2  0
 11 14  2  0
  7 12  1  0
  9 13  1  0
  8 14  1  0
 12 15  1  0
  7 16  2  0
 15 17  2  0
 10 18  1  0
  5 19  1  0
 20 26  2  0
 11 21  1  0
 13 22  1  0
 23 31  1  0
 18 24  1  0
 18 25  2  0
 25 26  1  0
 24 27  2  0
 17 28  1  0
 20 29  1  0
 19 30  1  0
 21 31  1  0
 15 32  1  0
 17 33  1  0
 29 34  1  0
 28 35  1  0
 34 36  1  0
 32 37  2  0
 37 38  1  0
  3  4  1  0
  5  9  2  0
 20 27  1  0
 33 38  2  0
 22 30  1  0
 13 23  1  0
M  END
>  <MOLFORMULA>  (367) 
C31 H31 N3 O4

>  <MOLWEIGHT>  (367) 
5.096029000000000e+002

>  <IDNUMBER>  (367) 
AT-687/PE10226

>  <PRICE>  (367) 
EUR 80/10 mg

>  <Similarity score>  (367) 
0.20

$$$$

     RDKit          2D

 30 33  0  0  0  0  0  0  0  0999 V2000
    6.0792   -7.3500    0.0000 C   0  0  0  0  0  0  0  0  0  0  0  0
    4.6500   -5.7500    0.0000 N   0  0  0  0  0  0  0  0  0  0  0  0
    5.9417   -6.0250    0.0000 N   0  0  0  0  0  0  0  0  0  0  0  0
    3.9750   -6.9000    0.0000 C   0  0  0  0  0  0  0  0  0  0  0  0
    4.8667   -7.8917    0.0000 C   0  0  0  0  0  0  0  0  0  0  0  0
    7.2500   -8.0250    0.0000 C   0  0  0  0  0  0  0  0  0  0  0  0
    3.9750   -4.6000    0.0000 C   0  0  0  0  0  0  0  0  0  0  0  0
   13.0000  -11.3500    0.0000 C   0  0  0  0  0  0  0  0  0  0  0  0
    1.9917   -5.7500    0.0000 O   0  0  0  0  0  0  0  0  0  0  0  0
    2.6542   -4.6000    0.0000 C   0  0  0  0  0  0  0  0  0  0  0  0
    8.3917   -7.3500    0.0000 N   0  0  0  0  0  0  0  0  0  0  0  0
    2.6542   -6.9000    0.0000 C   0  0  0  0  0  0  0  0  0  0  0  0
    1.9917   -3.4500    0.0000 C   0  0  0  0  0  0  0  0  0  0  0  0
   13.0000  -10.0167    0.0000 O   0  0  0  0  0  0  0  0  0  0  0  0
    7.2500   -9.3417    0.0000 O   0  0  0  0  0  0  0  0  0  0  0  0
    9.5417   -8.0250    0.0000 C   0  0  0  0  0  0  0  0  0  0  0  0
    2.6542   -2.3000    0.0000 C   0  0  0  0  0  0  0  0  0  0  0  0
    0.6500   -3.4500    0.0000 C   0  0  0  0  0  0  0  0  0  0  0  0
   13.6667  -12.4917    0.0000 F   0  0  0  0  0  0  0  0  0  0  0  0
   14.3250  -11.3500    0.0000 F   0  0  0  0  0  0  0  0  0  0  0  0
   11.8500  -12.0000    0.0000 F   0  0  0  0  0  0  0  0  0  0  0  0
   11.8500   -9.3417    0.0000 C   0  0  0  0  0  0  0  0  0  0  0  0
    0.6500   -1.1417    0.0000 C   0  0  0  0  0  0  0  0  0  0  0  0
    0.0000   -2.3000    0.0000 C   0  0  0  0  0  0  0  0  0  0  0  0
    1.9917   -1.1417    0.0000 C   0  0  0  0  0  0  0  0  0  0  0  0
    0.0000   -0.0000    0.0000 F   0  0  0  0  0  0  0  0  0  0  0  0
    9.5417   -9.3417    0.0000 C   0  0  0  0  0  0  0  0  0  0  0  0
   10.7000   -7.3500    0.0000 C   0  0  0  0  0  0  0  0  0  0  0  0
   11.8500   -8.0250    0.0000 C   0  0  0  0  0  0  0  0  0  0  0  0
   10.7000  -10.0167    0.0000 C   0  0  0  0  0  0  0  0  0  0  0  0
  2  3  1  0
  1  3  2  0
  4  5  2  0
  1  5  1  0
  1  6  1  0
  2  7  1  0
  8 14  1  0
  9 12  1  0
  7 10  1  0
  6 11  1  0
  4 12  1  0
 10 13  1  0
 14 22  1  0
  6 15  2  0
 11 16  1  0
 13 17  2  0
 13 18  1  0
  8 19  1  0
  8 20  1  0
  8 21  1  0
 22 29  2  0
 23 24  1  0
 18 24  2  0
 17 25  1  0
 23 26  1  0
 16 27  1  0
 16 28  2  0
 28 29  1  0
 27 30  2  0
  2  4  1  0
  9 10  1  0
 22 30  1  0
 23 25  2  0
M  END
>  <MOLFORMULA>  (368) 
C20 H15 F4 N3 O3

>  <MOLWEIGHT>  (368) 
4.213485000000000e+002

>  <IDNUMBER>  (368) 
AT-687/PE26855

>  <PRICE>  (368) 
EUR 80/10 mg

>  <Similarity score>  (368) 
0.20

$$$$

     RDKit          2D

 29 33  0  0  0  0  0  0  0  0999 V2000
    7.2917   -4.8000    0.0000 C   0  0  0  0  0  0  0  0  0  0  0  0
    9.3417   -4.1000    0.0000 N   0  0  0  0  0  0  0  0  0  0  0  0
    8.0667   -3.7000    0.0000 N   0  0  0  0  0  0  0  0  0  0  0  0
    9.3500   -5.4417    0.0000 C   0  0  0  0  0  0  0  0  0  0  0  0
    8.0792   -5.8542    0.0000 C   0  0  0  0  0  0  0  0  0  0  0  0
    5.9500   -4.8000    0.0000 C   0  0  0  0  0  0  0  0  0  0  0  0
   10.5000   -3.4417    0.0000 C   0  0  0  0  0  0  0  0  0  0  0  0
   11.6542   -5.4417    0.0000 O   0  0  0  0  0  0  0  0  0  0  0  0
   11.6542   -4.1000    0.0000 C   0  0  0  0  0  0  0  0  0  0  0  0
    5.3000   -3.6500    0.0000 N   0  0  0  0  0  0  0  0  0  0  0  0
   13.9667   -1.4542    0.0000 C   0  0  0  0  0  0  0  0  0  0  0  0
   12.8000   -3.4417    0.0000 C   0  0  0  0  0  0  0  0  0  0  0  0
    1.9750   -2.5250    0.0000 C   0  0  0  0  0  0  0  0  0  0  0  0
   12.8000   -2.1250    0.0000 C   0  0  0  0  0  0  0  0  0  0  0  0
    3.2750   -2.5250    0.0000 C   0  0  0  0  0  0  0  0  0  0  0  0
   10.5000   -6.1000    0.0000 C   0  0  0  0  0  0  0  0  0  0  0  0
   15.1250   -2.1250    0.0000 C   0  0  0  0  0  0  0  0  0  0  0  0
   14.2500   -0.1500    0.0000 O   0  0  0  0  0  0  0  0  0  0  0  0
    3.9542   -3.6667    0.0000 C   0  0  0  0  0  0  0  0  0  0  0  0
   16.1042   -1.2292    0.0000 O   0  0  0  0  0  0  0  0  0  0  0  0
   15.5750   -0.0000    0.0000 C   0  0  0  0  0  0  0  0  0  0  0  0
    5.3167   -5.9417    0.0000 O   0  0  0  0  0  0  0  0  0  0  0  0
    1.3000   -3.6667    0.0000 C   0  0  0  0  0  0  0  0  0  0  0  0
   13.9667   -4.1250    0.0000 C   0  0  0  0  0  0  0  0  0  0  0  0
   15.1250   -3.4542    0.0000 C   0  0  0  0  0  0  0  0  0  0  0  0
    1.9917   -4.8167    0.0000 C   0  0  0  0  0  0  0  0  0  0  0  0
    1.3000   -1.3667    0.0000 F   0  0  0  0  0  0  0  0  0  0  0  0
    3.2750   -4.8167    0.0000 C   0  0  0  0  0  0  0  0  0  0  0  0
    0.0000   -3.6667    0.0000 C   0  0  0  0  0  0  0  0  0  0  0  0
  2  3  1  0
  1  3  2  0
  4  5  2  0
  1  5  1  0
  1  6  1  0
  2  7  1  0
  8 16  1  0
  7  9  1  0
  6 10  1  0
 11 14  1  0
  9 12  1  0
 13 15  1  0
 12 14  2  0
 15 19  2  0
  4 16  1  0
 17 25  1  0
 11 18  1  0
 10 19  1  0
 17 20  1  0
 18 21  1  0
  6 22  2  0
 23 26  1  0
 12 24  1  0
 24 25  2  0
 26 28  2  0
 13 27  1  0
 19 28  1  0
 23 29  1  0
  2  4  1  0
  8  9  1  0
 13 23  2  0
 11 17  2  0
 20 21  1  0
M  END
>  <MOLFORMULA>  (369) 
C21 H18 F N3 O4

>  <MOLWEIGHT>  (369) 
3.953882000000000e+002

>  <IDNUMBER>  (369) 
AT-687/PE21249

>  <PRICE>  (369) 
EUR 80/10 mg

>  <Similarity score>  (369) 
0.20

$$$$

     RDKit          2D

 30 33  0  0  0  0  0  0  0  0999 V2000
    9.3500   -2.7000    0.0000 N   0  0  0  0  0  0  0  0  0  0  0  0
    7.3167   -3.3792    0.0000 C   0  0  0  0  0  0  0  0  0  0  0  0
    8.1000   -2.3042    0.0000 N   0  0  0  0  0  0  0  0  0  0  0  0
    9.3667   -4.0417    0.0000 C   0  0  0  0  0  0  0  0  0  0  0  0
    8.1167   -4.4750    0.0000 C   0  0  0  0  0  0  0  0  0  0  0  0
    5.9750   -3.4000    0.0000 C   0  0  0  0  0  0  0  0  0  0  0  0
   10.5167   -2.0292    0.0000 C   0  0  0  0  0  0  0  0  0  0  0  0
   11.6667   -4.0417    0.0000 O   0  0  0  0  0  0  0  0  0  0  0  0
   11.6667   -2.7000    0.0000 C   0  0  0  0  0  0  0  0  0  0  0  0
    5.3250   -4.5542    0.0000 N   0  0  0  0  0  0  0  0  0  0  0  0
    3.3250   -3.4292    0.0000 C   0  0  0  0  0  0  0  0  0  0  0  0
    2.0000   -3.4167    0.0000 C   0  0  0  0  0  0  0  0  0  0  0  0
   10.5167   -4.7000    0.0000 C   0  0  0  0  0  0  0  0  0  0  0  0
    1.3500   -2.2917    0.0000 C   0  0  0  0  0  0  0  0  0  0  0  0
   12.8250   -2.0500    0.0000 C   0  0  0  0  0  0  0  0  0  0  0  0
    3.9917   -4.5542    0.0000 C   0  0  0  0  0  0  0  0  0  0  0  0
    5.3042   -2.2417    0.0000 O   0  0  0  0  0  0  0  0  0  0  0  0
    3.9917   -2.2750    0.0000 C   0  0  0  0  0  0  0  0  0  0  0  0
   13.9667   -2.7167    0.0000 C   0  0  0  0  0  0  0  0  0  0  0  0
   12.8250   -0.7250    0.0000 C   0  0  0  0  0  0  0  0  0  0  0  0
    1.9792   -1.1292    0.0000 C   0  0  0  0  0  0  0  0  0  0  0  0
   15.1417   -0.7250    0.0000 C   0  0  0  0  0  0  0  0  0  0  0  0
    3.3250   -1.1167    0.0000 C   0  0  0  0  0  0  0  0  0  0  0  0
    1.3500   -4.5750    0.0000 O   0  0  0  0  0  0  0  0  0  0  0  0
   15.1250   -2.0500    0.0000 C   0  0  0  0  0  0  0  0  0  0  0  0
   13.9667   -0.0542    0.0000 C   0  0  0  0  0  0  0  0  0  0  0  0
   16.2917   -0.0750    0.0000 Cl  0  0  0  0  0  0  0  0  0  0  0  0
    1.3250   -0.0000    0.0000 O   0  0  0  0  0  0  0  0  0  0  0  0
    0.0000   -4.5750    0.0000 C   0  0  0  0  0  0  0  0  0  0  0  0
    0.0000   -0.0042    0.0000 C   0  0  0  0  0  0  0  0  0  0  0  0
  2  3  2  0
  1  3  1  0
  1  4  1  0
  4  5  2  0
  2  6  1  0
  1  7  1  0
  8  9  1  0
  7  9  1  0
  6 10  1  0
 11 16  1  0
 11 12  2  0
  4 13  1  0
 12 14  1  0
  9 15  1  0
 10 16  1  0
  6 17  2  0
 11 18  1  0
 15 19  2  0
 15 20  1  0
 21 23  1  0
 22 26  1  0
 18 23  2  0
 12 24  1  0
 19 25  1  0
 20 26  2  0
 22 27  1  0
 21 28  1  0
 24 29  1  0
 28 30  1  0
  8 13  1  0
  2  5  1  0
 22 25  2  0
 14 21  2  0
M  END
>  <MOLFORMULA>  (370) 
C22 H22 Cl N3 O4

>  <MOLWEIGHT>  (370) 
4.278858000000000e+002

>  <IDNUMBER>  (370) 
AT-687/PE21275

>  <PRICE>  (370) 
EUR 80/10 mg

>  <Similarity score>  (370) 
0.20

$$$$

     RDKit          2D

 31 34  0  0  0  0  0  0  0  0999 V2000
    7.8000   -5.4500    0.0000 C   0  0  0  0  0  0  0  0  0  0  0  0
   13.7917   -6.6167    0.0000 N   0  0  0  0  0  0  0  0  0  0  0  0
   11.8000   -7.7542    0.0000 C   0  0  0  0  0  0  0  0  0  0  0  0
   14.4500   -7.7542    0.0000 N   0  0  0  0  0  0  0  0  0  0  0  0
    9.8042   -6.6167    0.0000 N   0  0  0  0  0  0  0  0  0  0  0  0
    8.4542   -6.6167    0.0000 C   0  0  0  0  0  0  0  0  0  0  0  0
    6.4917   -5.3250    0.0000 C   0  0  0  0  0  0  0  0  0  0  0  0
    8.3500   -4.2417    0.0000 N   0  0  0  0  0  0  0  0  0  0  0  0
    7.3500   -3.3500    0.0000 N   0  0  0  0  0  0  0  0  0  0  0  0
   13.7917   -8.9250    0.0000 C   0  0  0  0  0  0  0  0  0  0  0  0
   12.4667   -6.6167    0.0000 C   0  0  0  0  0  0  0  0  0  0  0  0
   12.4667   -8.9250    0.0000 C   0  0  0  0  0  0  0  0  0  0  0  0
    6.2042   -4.0167    0.0000 C   0  0  0  0  0  0  0  0  0  0  0  0
   10.4750   -7.7542    0.0000 C   0  0  0  0  0  0  0  0  0  0  0  0
   11.8000   -5.4500    0.0000 C   0  0  0  0  0  0  0  0  0  0  0  0
   10.4750   -5.4500    0.0000 C   0  0  0  0  0  0  0  0  0  0  0  0
    4.9917   -3.4750    0.0000 C   0  0  0  0  0  0  0  0  0  0  0  0
    7.8000   -7.7542    0.0000 O   0  0  0  0  0  0  0  0  0  0  0  0
   14.4500  -10.0667    0.0000 O   0  0  0  0  0  0  0  0  0  0  0  0
   15.7792   -7.7542    0.0000 C   0  0  0  0  0  0  0  0  0  0  0  0
    3.9250   -4.2500    0.0000 C   0  0  0  0  0  0  0  0  0  0  0  0
    4.8500   -2.1500    0.0000 C   0  0  0  0  0  0  0  0  0  0  0  0
    2.5542   -2.3917    0.0000 C   0  0  0  0  0  0  0  0  0  0  0  0
    3.6500   -1.6167    0.0000 C   0  0  0  0  0  0  0  0  0  0  0  0
    2.7000   -3.7250    0.0000 C   0  0  0  0  0  0  0  0  0  0  0  0
    1.3417   -1.8542    0.0000 O   0  0  0  0  0  0  0  0  0  0  0  0
   17.7750   -6.6167    0.0000 O   0  0  0  0  0  0  0  0  0  0  0  0
   16.4500   -6.6167    0.0000 C   0  0  0  0  0  0  0  0  0  0  0  0
    1.2167   -0.5250    0.0000 C   0  0  0  0  0  0  0  0  0  0  0  0
   18.4417   -5.4500    0.0000 C   0  0  0  0  0  0  0  0  0  0  0  0
    0.0000   -0.0000    0.0000 C   0  0  0  0  0  0  0  0  0  0  0  0
  2 11  2  0
  3 14  1  0
  2  4  1  0
  5  6  1  0
  1  6  1  0
  1  7  2  0
  1  8  1  0
  8  9  1  0
 10 12  1  0
 11 15  1  0
  3 12  2  0
  7 13  1  0
  5 14  1  0
 15 16  1  0
  5 16  1  0
 13 17  1  0
  6 18  2  0
 10 19  2  0
  4 20  1  0
 17 21  2  0
 17 22  1  0
 23 24  1  0
 22 24  2  0
 21 25  1  0
 23 26  1  0
 27 28  1  0
 20 28  1  0
 26 29  1  0
 27 30  1  0
 29 31  1  0
  9 13  2  0
 23 25  2  0
  3 11  1  0
  4 10  1  0
M  END
>  <MOLFORMULA>  (371) 
C22 H25 N5 O4

>  <MOLWEIGHT>  (371) 
4.234705000000000e+002

>  <IDNUMBER>  (371) 
AT-687/PE26883

>  <PRICE>  (371) 
EUR 80/10 mg

>  <Similarity score>  (371) 
0.20

$$$$

     RDKit          2D

 30 33  0  0  0  0  0  0  0  0999 V2000
    8.0500   -5.9667    0.0000 C   0  0  0  0  0  0  0  0  0  0  0  0
    6.9000   -6.6250    0.0000 N   0  0  0  0  0  0  0  0  0  0  0  0
    8.0500   -4.6500    0.0000 N   0  0  0  0  0  0  0  0  0  0  0  0
    9.2000   -6.6250    0.0000 N   0  0  0  0  0  0  0  0  0  0  0  0
    6.9000   -7.9750    0.0000 C   0  0  0  0  0  0  0  0  0  0  0  0
    2.2917   -6.6250    0.0000 C   0  0  0  0  0  0  0  0  0  0  0  0
    2.2917   -7.9750    0.0000 N   0  0  0  0  0  0  0  0  0  0  0  0
    6.9000   -3.9917    0.0000 C   0  0  0  0  0  0  0  0  0  0  0  0
    8.0500   -8.6292    0.0000 C   0  0  0  0  0  0  0  0  0  0  0  0
    3.4417   -8.6292    0.0000 C   0  0  0  0  0  0  0  0  0  0  0  0
    6.9000   -2.6542    0.0000 C   0  0  0  0  0  0  0  0  0  0  0  0
    9.2000   -7.9750    0.0000 C   0  0  0  0  0  0  0  0  0  0  0  0
    9.2000   -4.0000    0.0000 C   0  0  0  0  0  0  0  0  0  0  0  0
    1.1500   -5.9917    0.0000 C   0  0  0  0  0  0  0  0  0  0  0  0
    3.4542   -5.9917    0.0000 C   0  0  0  0  0  0  0  0  0  0  0  0
    8.0500   -1.9792    0.0000 C   0  0  0  0  0  0  0  0  0  0  0  0
    5.7500   -8.6292    0.0000 O   0  0  0  0  0  0  0  0  0  0  0  0
    3.4417   -9.9542    0.0000 O   0  0  0  0  0  0  0  0  0  0  0  0
    9.2000   -2.6542    0.0000 C   0  0  0  0  0  0  0  0  0  0  0  0
    1.1500   -4.6667    0.0000 C   0  0  0  0  0  0  0  0  0  0  0  0
    4.6000   -7.9750    0.0000 C   0  0  0  0  0  0  0  0  0  0  0  0
    3.4542   -4.6667    0.0000 C   0  0  0  0  0  0  0  0  0  0  0  0
    2.3042   -3.9917    0.0000 C   0  0  0  0  0  0  0  0  0  0  0  0
    5.7500   -2.0000    0.0000 C   0  0  0  0  0  0  0  0  0  0  0  0
   10.3667   -8.6292    0.0000 C   0  0  0  0  0  0  0  0  0  0  0  0
    0.0000   -6.6250    0.0000 C   0  0  0  0  0  0  0  0  0  0  0  0
    8.0250   -0.6500    0.0000 C   0  0  0  0  0  0  0  0  0  0  0  0
    4.6042   -3.9917    0.0000 C   0  0  0  0  0  0  0  0  0  0  0  0
    5.7417   -0.6917    0.0000 C   0  0  0  0  0  0  0  0  0  0  0  0
    6.8917   -0.0000    0.0000 C   0  0  0  0  0  0  0  0  0  0  0  0
  1  2  2  0
  1  3  1  0
  1  4  1  0
  2  5  1  0
  6  7  1  0
  7 10  1  0
  3  8  1  0
  9 12  1  0
 10 21  1  0
  8 11  1  0
  4 12  2  0
  3 13  1  0
  6 14  2  0
  6 15  1  0
 16 19  1  0
  5 17  1  0
 10 18  2  0
 13 19  1  0
 14 20  1  0
 17 21  1  0
 15 22  2  0
 22 23  1  0
 11 24  1  0
 12 25  1  0
 14 26  1  0
 16 27  1  0
 22 28  1  0
 24 29  2  0
 27 30  2  0
  5  9  2  0
 11 16  2  0
 29 30  1  0
 20 23  2  0
M  END
>  <MOLFORMULA>  (372) 
C24 H26 N4 O2

>  <MOLWEIGHT>  (372) 
4.024954000000000e+002

>  <IDNUMBER>  (372) 
AT-687/PE16660

>  <PRICE>  (372) 
EUR 80/10 mg

>  <Similarity score>  (372) 
0.20

$$$$

     RDKit          2D

 27 30  0  0  0  0  0  0  0  0999 V2000
    6.0917   -7.3500    0.0000 C   0  0  0  0  0  0  0  0  0  0  0  0
    5.9500   -6.0250    0.0000 N   0  0  0  0  0  0  0  0  0  0  0  0
    4.6500   -5.7500    0.0000 N   0  0  0  0  0  0  0  0  0  0  0  0
    3.9792   -6.9000    0.0000 C   0  0  0  0  0  0  0  0  0  0  0  0
    4.8667   -7.8792    0.0000 C   0  0  0  0  0  0  0  0  0  0  0  0
    7.2292   -8.0167    0.0000 C   0  0  0  0  0  0  0  0  0  0  0  0
    8.3917   -7.3500    0.0000 N   0  0  0  0  0  0  0  0  0  0  0  0
    3.9792   -4.6000    0.0000 C   0  0  0  0  0  0  0  0  0  0  0  0
    1.9792   -5.7500    0.0000 O   0  0  0  0  0  0  0  0  0  0  0  0
    2.6542   -4.6000    0.0000 C   0  0  0  0  0  0  0  0  0  0  0  0
   11.8417   -5.3500    0.0000 C   0  0  0  0  0  0  0  0  0  0  0  0
    2.6542   -6.9000    0.0000 C   0  0  0  0  0  0  0  0  0  0  0  0
    1.9792   -3.4500    0.0000 C   0  0  0  0  0  0  0  0  0  0  0  0
    7.2292   -9.3417    0.0000 O   0  0  0  0  0  0  0  0  0  0  0  0
   10.6917   -6.0167    0.0000 C   0  0  0  0  0  0  0  0  0  0  0  0
    9.5417   -8.0167    0.0000 C   0  0  0  0  0  0  0  0  0  0  0  0
    8.3917   -6.0167    0.0000 C   0  0  0  0  0  0  0  0  0  0  0  0
   12.9917   -6.0167    0.0000 O   0  0  0  0  0  0  0  0  0  0  0  0
    9.5417   -5.3500    0.0000 C   0  0  0  0  0  0  0  0  0  0  0  0
   10.6917   -7.3500    0.0000 C   0  0  0  0  0  0  0  0  0  0  0  0
    2.6542   -2.3000    0.0000 C   0  0  0  0  0  0  0  0  0  0  0  0
    0.6542   -3.4500    0.0000 C   0  0  0  0  0  0  0  0  0  0  0  0
   11.8417   -4.0250    0.0000 N   0  0  0  0  0  0  0  0  0  0  0  0
    0.6542   -1.1417    0.0000 C   0  0  0  0  0  0  0  0  0  0  0  0
    1.9792   -1.1417    0.0000 C   0  0  0  0  0  0  0  0  0  0  0  0
    0.0000   -2.3000    0.0000 C   0  0  0  0  0  0  0  0  0  0  0  0
    0.0000   -0.0000    0.0000 F   0  0  0  0  0  0  0  0  0  0  0  0
  1  2  2  0
  2  3  1  0
  4  5  2  0
  1  5  1  0
  1  6  1  0
  6  7  1  0
  3  8  1  0
  9 12  1  0
  8 10  1  0
 11 15  1  0
  4 12  1  0
 10 13  1  0
  6 14  2  0
 15 19  1  0
  7 16  1  0
  7 17  1  0
 11 18  2  0
 17 19  1  0
 16 20  1  0
 13 21  2  0
 13 22  1  0
 11 23  1  0
 24 26  1  0
 21 25  1  0
 22 26  2  0
 24 27  1  0
  3  4  1  0
 15 20  1  0
  9 10  1  0
 24 25  2  0
M  END
>  <MOLFORMULA>  (373) 
C19 H21 F N4 O3

>  <MOLWEIGHT>  (373) 
3.723979000000000e+002

>  <IDNUMBER>  (373) 
AT-687/PE26863

>  <PRICE>  (373) 
EUR 80/10 mg

>  <Similarity score>  (373) 
0.20

$$$$

     RDKit          2D

 26 29  0  0  0  0  0  0  0  0999 V2000
    6.0917   -7.3417    0.0000 C   0  0  0  0  0  0  0  0  0  0  0  0
    4.6500   -5.7500    0.0000 N   0  0  0  0  0  0  0  0  0  0  0  0
    5.9500   -6.0250    0.0000 N   0  0  0  0  0  0  0  0  0  0  0  0
    3.9792   -6.9000    0.0000 C   0  0  0  0  0  0  0  0  0  0  0  0
    4.8750   -7.8792    0.0000 C   0  0  0  0  0  0  0  0  0  0  0  0
    7.2292   -8.0167    0.0000 C   0  0  0  0  0  0  0  0  0  0  0  0
    3.9792   -4.6000    0.0000 C   0  0  0  0  0  0  0  0  0  0  0  0
    1.9792   -5.7500    0.0000 O   0  0  0  0  0  0  0  0  0  0  0  0
    8.3917   -7.3417    0.0000 N   0  0  0  0  0  0  0  0  0  0  0  0
    2.6542   -4.6000    0.0000 C   0  0  0  0  0  0  0  0  0  0  0  0
    2.6542   -6.9000    0.0000 C   0  0  0  0  0  0  0  0  0  0  0  0
    1.9792   -3.4417    0.0000 C   0  0  0  0  0  0  0  0  0  0  0  0
    7.2292   -9.3417    0.0000 O   0  0  0  0  0  0  0  0  0  0  0  0
    9.5417   -8.0167    0.0000 C   0  0  0  0  0  0  0  0  0  0  0  0
    2.6542   -2.3000    0.0000 C   0  0  0  0  0  0  0  0  0  0  0  0
    0.6542   -3.4417    0.0000 C   0  0  0  0  0  0  0  0  0  0  0  0
   10.6750   -7.3417    0.0000 C   0  0  0  0  0  0  0  0  0  0  0  0
    0.6542   -1.1417    0.0000 C   0  0  0  0  0  0  0  0  0  0  0  0
    1.9792   -1.1417    0.0000 C   0  0  0  0  0  0  0  0  0  0  0  0
    0.0000   -2.3000    0.0000 C   0  0  0  0  0  0  0  0  0  0  0  0
    0.0000   -0.0000    0.0000 F   0  0  0  0  0  0  0  0  0  0  0  0
   11.8417   -8.0167    0.0000 C   0  0  0  0  0  0  0  0  0  0  0  0
   10.6750  -10.0000    0.0000 C   0  0  0  0  0  0  0  0  0  0  0  0
    9.5417   -9.3417    0.0000 C   0  0  0  0  0  0  0  0  0  0  0  0
   11.8417   -9.3417    0.0000 C   0  0  0  0  0  0  0  0  0  0  0  0
   13.0000   -7.3417    0.0000 C   0  0  0  0  0  0  0  0  0  0  0  0
  2  3  1  0
  1  3  2  0
  4  5  2  0
  1  5  1  0
  1  6  1  0
  2  7  1  0
  8 11  1  0
  6  9  1  0
  7 10  1  0
  4 11  1  0
 10 12  1  0
  6 13  2  0
  9 14  1  0
 12 15  2  0
 12 16  1  0
 14 17  2  0
 18 20  1  0
 15 19  1  0
 16 20  2  0
 18 21  1  0
 17 22  1  0
 23 24  2  0
 14 24  1  0
 23 25  1  0
 22 26  1  0
  2  4  1  0
  8 10  1  0
 22 25  2  0
 18 19  2  0
M  END
>  <MOLFORMULA>  (374) 
C20 H18 F N3 O2

>  <MOLWEIGHT>  (374) 
3.513792000000000e+002

>  <IDNUMBER>  (374) 
AT-687/PE26857

>  <PRICE>  (374) 
EUR 80/10 mg

>  <Similarity score>  (374) 
0.20

$$$$

     RDKit          2D

 26 29  0  0  0  0  0  0  0  0999 V2000
    6.0917   -7.3417    0.0000 C   0  0  0  0  0  0  0  0  0  0  0  0
    4.6500   -5.7500    0.0000 N   0  0  0  0  0  0  0  0  0  0  0  0
    5.9500   -6.0250    0.0000 N   0  0  0  0  0  0  0  0  0  0  0  0
    3.9792   -6.9000    0.0000 C   0  0  0  0  0  0  0  0  0  0  0  0
    4.8750   -7.8792    0.0000 C   0  0  0  0  0  0  0  0  0  0  0  0
    7.2292   -8.0167    0.0000 C   0  0  0  0  0  0  0  0  0  0  0  0
    3.9792   -4.6000    0.0000 C   0  0  0  0  0  0  0  0  0  0  0  0
    1.9792   -5.7500    0.0000 O   0  0  0  0  0  0  0  0  0  0  0  0
    8.3917   -7.3417    0.0000 N   0  0  0  0  0  0  0  0  0  0  0  0
    2.6542   -4.6000    0.0000 C   0  0  0  0  0  0  0  0  0  0  0  0
    2.6542   -6.9000    0.0000 C   0  0  0  0  0  0  0  0  0  0  0  0
    1.9792   -3.4417    0.0000 C   0  0  0  0  0  0  0  0  0  0  0  0
    9.5417   -8.0167    0.0000 C   0  0  0  0  0  0  0  0  0  0  0  0
    7.2292   -9.3417    0.0000 O   0  0  0  0  0  0  0  0  0  0  0  0
   10.6750   -7.3417    0.0000 C   0  0  0  0  0  0  0  0  0  0  0  0
    2.6542   -2.3000    0.0000 C   0  0  0  0  0  0  0  0  0  0  0  0
    0.6542   -3.4417    0.0000 C   0  0  0  0  0  0  0  0  0  0  0  0
   11.8417   -8.0167    0.0000 C   0  0  0  0  0  0  0  0  0  0  0  0
    0.6542   -1.1417    0.0000 C   0  0  0  0  0  0  0  0  0  0  0  0
    1.9792   -1.1417    0.0000 C   0  0  0  0  0  0  0  0  0  0  0  0
    0.0000   -2.3000    0.0000 C   0  0  0  0  0  0  0  0  0  0  0  0
   13.0000   -7.3417    0.0000 F   0  0  0  0  0  0  0  0  0  0  0  0
    0.0000   -0.0000    0.0000 F   0  0  0  0  0  0  0  0  0  0  0  0
   10.6750  -10.0000    0.0000 C   0  0  0  0  0  0  0  0  0  0  0  0
    9.5417   -9.3417    0.0000 C   0  0  0  0  0  0  0  0  0  0  0  0
   11.8417   -9.3417    0.0000 C   0  0  0  0  0  0  0  0  0  0  0  0
  2  3  1  0
  1  3  2  0
  4  5  2  0
  1  5  1  0
  1  6  1  0
  2  7  1  0
  8 11  1  0
  6  9  1  0
  7 10  1  0
  4 11  1  0
 10 12  1  0
  9 13  1  0
  6 14  2  0
 13 15  2  0
 12 16  1  0
 12 17  2  0
 15 18  1  0
 19 21  2  0
 16 20  2  0
 17 21  1  0
 18 22  1  0
 19 23  1  0
 24 25  2  0
 13 25  1  0
 24 26  1  0
  2  4  1  0
  8 10  1  0
 18 26  2  0
 19 20  1  0
M  END
>  <MOLFORMULA>  (375) 
C19 H15 F2 N3 O2

>  <MOLWEIGHT>  (375) 
3.553425000000000e+002

>  <IDNUMBER>  (375) 
AT-687/PE26851

>  <PRICE>  (375) 
EUR 80/10 mg

>  <Similarity score>  (375) 
0.20

$$$$

     RDKit          2D

 27 30  0  0  0  0  0  0  0  0999 V2000
    6.0917   -7.3500    0.0000 C   0  0  0  0  0  0  0  0  0  0  0  0
    4.6500   -5.7500    0.0000 N   0  0  0  0  0  0  0  0  0  0  0  0
    5.9500   -6.0417    0.0000 N   0  0  0  0  0  0  0  0  0  0  0  0
    3.9792   -6.9042    0.0000 C   0  0  0  0  0  0  0  0  0  0  0  0
    4.8667   -7.9000    0.0000 C   0  0  0  0  0  0  0  0  0  0  0  0
    7.2292   -8.0167    0.0000 C   0  0  0  0  0  0  0  0  0  0  0  0
    3.9792   -4.6042    0.0000 C   0  0  0  0  0  0  0  0  0  0  0  0
    1.9792   -5.7500    0.0000 O   0  0  0  0  0  0  0  0  0  0  0  0
    2.6542   -4.6042    0.0000 C   0  0  0  0  0  0  0  0  0  0  0  0
    8.3917   -7.3500    0.0000 N   0  0  0  0  0  0  0  0  0  0  0  0
    2.6542   -6.9042    0.0000 C   0  0  0  0  0  0  0  0  0  0  0  0
    1.9792   -3.4500    0.0000 C   0  0  0  0  0  0  0  0  0  0  0  0
    7.2292   -9.3500    0.0000 O   0  0  0  0  0  0  0  0  0  0  0  0
    9.5292   -8.0167    0.0000 C   0  0  0  0  0  0  0  0  0  0  0  0
    2.6542   -2.3042    0.0000 C   0  0  0  0  0  0  0  0  0  0  0  0
    0.6542   -3.4500    0.0000 C   0  0  0  0  0  0  0  0  0  0  0  0
    0.6542   -1.1500    0.0000 C   0  0  0  0  0  0  0  0  0  0  0  0
   11.8292   -9.3500    0.0000 C   0  0  0  0  0  0  0  0  0  0  0  0
    1.9792   -1.1500    0.0000 C   0  0  0  0  0  0  0  0  0  0  0  0
    0.0000   -2.3042    0.0000 C   0  0  0  0  0  0  0  0  0  0  0  0
    0.0000   -0.0000    0.0000 F   0  0  0  0  0  0  0  0  0  0  0  0
    9.5292   -9.3500    0.0000 C   0  0  0  0  0  0  0  0  0  0  0  0
   10.6917   -7.3500    0.0000 C   0  0  0  0  0  0  0  0  0  0  0  0
   11.8292   -8.0167    0.0000 C   0  0  0  0  0  0  0  0  0  0  0  0
   10.6917  -10.0167    0.0000 C   0  0  0  0  0  0  0  0  0  0  0  0
   12.9917  -10.0167    0.0000 O   0  0  0  0  0  0  0  0  0  0  0  0
   12.9917  -11.3417    0.0000 C   0  0  0  0  0  0  0  0  0  0  0  0
  2  3  1  0
  1  3  2  0
  4  5  2  0
  1  5  1  0
  1  6  1  0
  2  7  1  0
  8 11  1  0
  7  9  1  0
  6 10  1  0
  4 11  1  0
  9 12  1  0
  6 13  2  0
 10 14  1  0
 12 15  2  0
 12 16  1  0
 17 20  1  0
 18 24  2  0
 15 19  1  0
 16 20  2  0
 17 21  1  0
 14 22  1  0
 14 23  2  0
 23 24  1  0
 22 25  2  0
 18 26  1  0
 26 27  1  0
  2  4  1  0
  8  9  1  0
 18 25  1  0
 17 19  2  0
M  END
>  <MOLFORMULA>  (376) 
C20 H18 F N3 O3

>  <MOLWEIGHT>  (376) 
3.673782000000000e+002

>  <IDNUMBER>  (376) 
AT-687/PE26847

>  <PRICE>  (376) 
EUR 80/10 mg

>  <Similarity score>  (376) 
0.20

$$$$

     RDKit          2D

 23 25  0  0  0  0  0  0  0  0999 V2000
    5.8875   -1.0000    0.0000 C   0  0  0  0  0  0  0  0  0  0  0  0
    8.5292   -2.5042    0.0000 N   0  0  0  0  0  0  0  0  0  0  0  0
    3.2917   -5.5042    0.0000 N   0  0  0  0  0  0  0  0  0  0  0  0
    3.2917   -2.5042    0.0000 C   0  0  0  0  0  0  0  0  0  0  0  0
    5.8875    2.0375    0.0000 C   0  0  0  0  0  0  0  0  0  0  0  0
    0.6917   -6.9792    0.0000 C   0  0  0  0  0  0  0  0  0  0  0  0
    3.2917    3.5458    0.0000 C   0  0  0  0  0  0  0  0  0  0  0  0
    3.2750    6.5417    0.0000 C   0  0  0  0  0  0  0  0  0  0  0  0
    0.6917   -1.0000    0.0000 C   0  0  0  0  0  0  0  0  0  0  0  0
    0.6917   -9.9875    0.0000 C   0  0  0  0  0  0  0  0  0  0  0  0
    8.5292   -5.5042    0.0000 O   0  0  0  0  0  0  0  0  0  0  0  0
   11.1250   -0.9667    0.0000 O   0  0  0  0  0  0  0  0  0  0  0  0
    5.8875   -6.9792    0.0000 C   0  0  0  0  0  0  0  0  0  0  0  0
    3.2917  -11.5167    0.0000 C   0  0  0  0  0  0  0  0  0  0  0  0
    0.6917    2.0083    0.0000 C   0  0  0  0  0  0  0  0  0  0  0  0
    0.6792    8.0417    0.0000 O   0  0  0  0  0  0  0  0  0  0  0  0
    5.8875   -9.9875    0.0000 C   0  0  0  0  0  0  0  0  0  0  0  0
    5.8667    8.0417    0.0000 O   0  0  0  0  0  0  0  0  0  0  0  0
   -1.9083  -11.4875    0.0000 C   0  0  0  0  0  0  0  0  0  0  0  0
    3.2917  -14.4917    0.0000 C   0  0  0  0  0  0  0  0  0  0  0  0
    8.4792    6.5417    0.0000 C   0  0  0  0  0  0  0  0  0  0  0  0
   -1.9125  -14.4917    0.0000 C   0  0  0  0  0  0  0  0  0  0  0  0
    0.6917  -16.0000    0.0000 C   0  0  0  0  0  0  0  0  0  0  0  0
  1  2  1  0
  3  4  1  0
  1  4  2  0
  1  5  1  0
  3  6  1  0
  5  7  2  0
  7  8  1  0
  4  9  1  0
  6 10  1  0
  2 11  1  0
  2 12  2  0
  3 13  1  0
 14 17  1  0
  7 15  1  0
  8 16  2  0
 13 17  1  0
  8 18  1  0
 10 19  2  0
 14 20  2  0
 18 21  1  0
 19 22  1  0
 20 23  1  0
  9 15  2  0
 10 14  1  0
 22 23  2  0
M  CHG  2   2   1  11  -1
M  END
>  <MOLFORMULA>  (377) 
C17 H16 N2 O4

>  <MOLWEIGHT>  (377) 
3.123234000000000e+002

>  <IDNUMBER>  (377) 
AM-879/PD12216

>  <PRICE>  (377) 
EUR 55.00/10 mg

>  <Similarity score>  (377) 
0.20

$$$$

     RDKit          2D

 31 35  0  0  0  0  0  0  0  0999 V2000
   -1.5458    2.9875    0.0000 C   0  0  0  0  0  0  0  0  0  0  0  0
   -1.5458    3.9875    0.0000 N   0  0  0  0  0  0  0  0  0  0  0  0
   -0.6833    2.4958    0.0000 C   0  0  0  0  0  0  0  0  0  0  0  0
   -2.5083    4.2917    0.0000 N   0  0  0  0  0  0  0  0  0  0  0  0
   -2.5083    2.6833    0.0000 C   0  0  0  0  0  0  0  0  0  0  0  0
   -0.6833    1.4958    0.0000 N   0  0  0  0  0  0  0  0  0  0  0  0
   -3.0958    3.4958    0.0000 C   0  0  0  0  0  0  0  0  0  0  0  0
    0.1792    2.9875    0.0000 N   0  0  0  0  0  0  0  0  0  0  0  0
    0.1750   -0.0042    0.0000 C   0  0  0  0  0  0  0  0  0  0  0  0
    1.0417   -0.5125    0.0000 C   0  0  0  0  0  0  0  0  0  0  0  0
   -0.6833    4.4917    0.0000 C   0  0  0  0  0  0  0  0  0  0  0  0
    0.1792    1.0000    0.0000 C   0  0  0  0  0  0  0  0  0  0  0  0
    3.6167   -2.0125    0.0000 C   0  0  0  0  0  0  0  0  0  0  0  0
    0.1792    3.9875    0.0000 C   0  0  0  0  0  0  0  0  0  0  0  0
    2.7667   -1.5000    0.0000 C   0  0  0  0  0  0  0  0  0  0  0  0
    1.9042   -0.0042    0.0000 N   0  0  0  0  0  0  0  0  0  0  0  0
    3.6125   -3.0042    0.0000 C   0  0  0  0  0  0  0  0  0  0  0  0
    2.7750   -0.5125    0.0000 C   0  0  0  0  0  0  0  0  0  0  0  0
    1.0375   -1.5042    0.0000 O   0  0  0  0  0  0  0  0  0  0  0  0
    1.8917   -1.9875    0.0000 C   0  0  0  0  0  0  0  0  0  0  0  0
    2.7542   -3.5000    0.0000 C   0  0  0  0  0  0  0  0  0  0  0  0
    4.4917   -1.5042    0.0000 F   0  0  0  0  0  0  0  0  0  0  0  0
   -1.5458    1.0000    0.0000 C   0  0  0  0  0  0  0  0  0  0  0  0
   -2.9125    1.7708    0.0000 C   0  0  0  0  0  0  0  0  0  0  0  0
    1.8792   -2.9917    0.0000 C   0  0  0  0  0  0  0  0  0  0  0  0
    2.7292   -4.4917    0.0000 F   0  0  0  0  0  0  0  0  0  0  0  0
   -0.6958   -0.5000    0.0000 C   0  0  0  0  0  0  0  0  0  0  0  0
   -4.0833    3.3833    0.0000 C   0  0  0  0  0  0  0  0  0  0  0  0
   -1.5583   -0.0000    0.0000 C   0  0  0  0  0  0  0  0  0  0  0  0
   -3.9083    1.6708    0.0000 C   0  0  0  0  0  0  0  0  0  0  0  0
   -4.4958    2.4750    0.0000 C   0  0  0  0  0  0  0  0  0  0  0  0
  1  2  1  0
  1  3  1  0
  2  4  1  0
  1  5  2  0
  3  6  1  0
  5  7  1  0
  3  8  2  0
  9 12  1  0
  9 10  1  0
  2 11  1  0
  6 12  1  0
 13 15  2  0
  8 14  1  0
 15 18  1  0
 10 16  1  0
 13 17  1  0
 16 18  1  0
 10 19  2  0
 15 20  1  0
 21 25  1  0
 13 22  1  0
  6 23  1  0
  5 24  1  0
 20 25  2  0
 21 26  1  0
 27 29  1  0
  7 28  1  0
 23 29  1  0
 24 30  1  0
 30 31  1  0
  4  7  2  0
 11 14  2  0
 28 31  1  0
  9 27  1  0
 17 21  2  0
M  END
>  <MOLFORMULA>  (378) 
C23 H25 F2 N5 O

>  <MOLWEIGHT>  (378) 
4.254805000000000e+002

>  <IDNUMBER>  (378) 
AT-687/PE21892

>  <PRICE>  (378) 
EUR 80/10 mg

>  <Similarity score>  (378) 
0.20

$$$$

     RDKit          2D

 30 34  0  0  0  0  0  0  0  0999 V2000
    7.9292   -4.7792    0.0000 C   0  0  0  0  0  0  0  0  0  0  0  0
    9.9750   -4.1000    0.0000 N   0  0  0  0  0  0  0  0  0  0  0  0
    8.7250   -3.6750    0.0000 N   0  0  0  0  0  0  0  0  0  0  0  0
    9.9750   -5.4250    0.0000 C   0  0  0  0  0  0  0  0  0  0  0  0
    8.7417   -5.8417    0.0000 C   0  0  0  0  0  0  0  0  0  0  0  0
    6.6042   -4.7792    0.0000 C   0  0  0  0  0  0  0  0  0  0  0  0
   11.1500   -3.4250    0.0000 C   0  0  0  0  0  0  0  0  0  0  0  0
   12.3000   -5.4250    0.0000 O   0  0  0  0  0  0  0  0  0  0  0  0
   12.3000   -4.1000    0.0000 C   0  0  0  0  0  0  0  0  0  0  0  0
    5.9417   -3.6250    0.0000 N   0  0  0  0  0  0  0  0  0  0  0  0
   14.6167   -1.4292    0.0000 C   0  0  0  0  0  0  0  0  0  0  0  0
   13.4500   -3.4250    0.0000 C   0  0  0  0  0  0  0  0  0  0  0  0
    2.6250   -2.5042    0.0000 C   0  0  0  0  0  0  0  0  0  0  0  0
   13.4500   -2.1250    0.0000 C   0  0  0  0  0  0  0  0  0  0  0  0
    3.9500   -2.5042    0.0000 C   0  0  0  0  0  0  0  0  0  0  0  0
   11.1500   -6.0917    0.0000 C   0  0  0  0  0  0  0  0  0  0  0  0
   15.7500   -2.1000    0.0000 C   0  0  0  0  0  0  0  0  0  0  0  0
   14.8792   -0.1500    0.0000 O   0  0  0  0  0  0  0  0  0  0  0  0
    4.6000   -3.6500    0.0000 C   0  0  0  0  0  0  0  0  0  0  0  0
   16.7500   -1.2167    0.0000 O   0  0  0  0  0  0  0  0  0  0  0  0
   16.2042   -0.0000    0.0000 C   0  0  0  0  0  0  0  0  0  0  0  0
    5.9417   -5.9250    0.0000 O   0  0  0  0  0  0  0  0  0  0  0  0
    1.9500   -3.6500    0.0000 C   0  0  0  0  0  0  0  0  0  0  0  0
   14.6000   -4.1167    0.0000 C   0  0  0  0  0  0  0  0  0  0  0  0
   15.7500   -3.4250    0.0000 C   0  0  0  0  0  0  0  0  0  0  0  0
    2.6250   -4.8000    0.0000 C   0  0  0  0  0  0  0  0  0  0  0  0
    1.9500   -1.3500    0.0000 Cl  0  0  0  0  0  0  0  0  0  0  0  0
    3.9500   -4.8000    0.0000 C   0  0  0  0  0  0  0  0  0  0  0  0
    0.6500   -3.6500    0.0000 O   0  0  0  0  0  0  0  0  0  0  0  0
    0.0000   -4.8167    0.0000 C   0  0  0  0  0  0  0  0  0  0  0  0
  2  3  1  0
  1  3  2  0
  4  5  2  0
  1  5  1  0
  1  6  1  0
  2  7  1  0
  8 16  1  0
  7  9  1  0
  6 10  1  0
 11 14  1  0
  9 12  1  0
 13 15  1  0
 12 14  2  0
 15 19  2  0
  4 16  1  0
 17 25  1  0
 11 18  1  0
 10 19  1  0
 17 20  1  0
 18 21  1  0
  6 22  2  0
 23 26  1  0
 12 24  1  0
 24 25  2  0
 26 28  2  0
 13 27  1  0
 19 28  1  0
 23 29  1  0
 29 30  1  0
  2  4  1  0
  8  9  1  0
 13 23  2  0
 11 17  2  0
 20 21  1  0
M  END
>  <MOLFORMULA>  (379) 
C21 H18 Cl N3 O5

>  <MOLWEIGHT>  (379) 
4.278422000000000e+002

>  <IDNUMBER>  (379) 
AT-687/PE21253

>  <PRICE>  (379) 
EUR 80/10 mg

>  <Similarity score>  (379) 
0.20

$$$$

     RDKit          2D

 26 29  0  0  0  0  0  0  0  0999 V2000
    6.1000   -7.3667    0.0000 C   0  0  0  0  0  0  0  0  0  0  0  0
    4.6500   -5.7500    0.0000 N   0  0  0  0  0  0  0  0  0  0  0  0
    5.9500   -6.0417    0.0000 N   0  0  0  0  0  0  0  0  0  0  0  0
    3.9792   -6.9000    0.0000 C   0  0  0  0  0  0  0  0  0  0  0  0
    4.8917   -7.9000    0.0000 C   0  0  0  0  0  0  0  0  0  0  0  0
    7.2417   -8.0250    0.0000 C   0  0  0  0  0  0  0  0  0  0  0  0
    3.9792   -4.6000    0.0000 C   0  0  0  0  0  0  0  0  0  0  0  0
    8.3917   -7.3667    0.0000 N   0  0  0  0  0  0  0  0  0  0  0  0
    1.9917   -5.7500    0.0000 O   0  0  0  0  0  0  0  0  0  0  0  0
    2.6500   -4.6000    0.0000 C   0  0  0  0  0  0  0  0  0  0  0  0
    9.5500   -8.0250    0.0000 C   0  0  0  0  0  0  0  0  0  0  0  0
    2.6500   -6.9000    0.0000 C   0  0  0  0  0  0  0  0  0  0  0  0
    1.9917   -3.4417    0.0000 C   0  0  0  0  0  0  0  0  0  0  0  0
    7.2417   -9.3500    0.0000 O   0  0  0  0  0  0  0  0  0  0  0  0
    9.5500   -9.3500    0.0000 C   0  0  0  0  0  0  0  0  0  0  0  0
    2.6500   -2.2792    0.0000 C   0  0  0  0  0  0  0  0  0  0  0  0
    0.6542   -3.4417    0.0000 C   0  0  0  0  0  0  0  0  0  0  0  0
    0.6542   -1.1500    0.0000 C   0  0  0  0  0  0  0  0  0  0  0  0
    8.4000  -10.0167    0.0000 Cl  0  0  0  0  0  0  0  0  0  0  0  0
    1.9917   -1.1500    0.0000 C   0  0  0  0  0  0  0  0  0  0  0  0
    0.0000   -2.2792    0.0000 C   0  0  0  0  0  0  0  0  0  0  0  0
    0.0000   -0.0000    0.0000 F   0  0  0  0  0  0  0  0  0  0  0  0
   10.7000   -7.3667    0.0000 C   0  0  0  0  0  0  0  0  0  0  0  0
   10.7000  -10.0167    0.0000 C   0  0  0  0  0  0  0  0  0  0  0  0
   11.8667   -8.0250    0.0000 C   0  0  0  0  0  0  0  0  0  0  0  0
   11.8667   -9.3500    0.0000 C   0  0  0  0  0  0  0  0  0  0  0  0
  2  3  1  0
  1  3  2  0
  4  5  2  0
  1  5  1  0
  1  6  1  0
  2  7  1  0
  6  8  1  0
  9 12  1  0
  7 10  1  0
  8 11  1  0
  4 12  1  0
 10 13  1  0
  6 14  2  0
 11 15  2  0
 13 16  1  0
 13 17  2  0
 18 21  2  0
 15 19  1  0
 16 20  2  0
 17 21  1  0
 18 22  1  0
 11 23  1  0
 15 24  1  0
 23 25  2  0
 25 26  1  0
  2  4  1  0
  9 10  1  0
 24 26  2  0
 18 20  1  0
M  END
>  <MOLFORMULA>  (380) 
C19 H15 Cl F N3 O2

>  <MOLWEIGHT>  (380) 
3.717975000000000e+002

>  <IDNUMBER>  (380) 
AT-687/PE26862

>  <PRICE>  (380) 
EUR 80/10 mg

>  <Similarity score>  (380) 
0.20

$$$$

     RDKit          2D

 28 31  0  0  0  0  0  0  0  0999 V2000
    9.3417   -2.6292    0.0000 N   0  0  0  0  0  0  0  0  0  0  0  0
    7.2917   -3.3167    0.0000 C   0  0  0  0  0  0  0  0  0  0  0  0
    8.0750   -2.2417    0.0000 N   0  0  0  0  0  0  0  0  0  0  0  0
    9.3500   -3.9667    0.0000 C   0  0  0  0  0  0  0  0  0  0  0  0
    8.0792   -4.4000    0.0000 C   0  0  0  0  0  0  0  0  0  0  0  0
    5.9500   -3.3292    0.0000 C   0  0  0  0  0  0  0  0  0  0  0  0
   10.5167   -1.9500    0.0000 C   0  0  0  0  0  0  0  0  0  0  0  0
   11.6500   -3.9667    0.0000 O   0  0  0  0  0  0  0  0  0  0  0  0
   11.6500   -2.6292    0.0000 C   0  0  0  0  0  0  0  0  0  0  0  0
    5.3000   -4.4917    0.0000 N   0  0  0  0  0  0  0  0  0  0  0  0
   10.5167   -4.6292    0.0000 C   0  0  0  0  0  0  0  0  0  0  0  0
    3.3000   -3.3667    0.0000 C   0  0  0  0  0  0  0  0  0  0  0  0
   12.8042   -1.9750    0.0000 C   0  0  0  0  0  0  0  0  0  0  0  0
    3.9792   -4.4917    0.0000 C   0  0  0  0  0  0  0  0  0  0  0  0
    5.3000   -2.1750    0.0000 O   0  0  0  0  0  0  0  0  0  0  0  0
    1.9750   -3.3500    0.0000 C   0  0  0  0  0  0  0  0  0  0  0  0
   13.9667   -2.6500    0.0000 C   0  0  0  0  0  0  0  0  0  0  0  0
   12.8042   -0.6667    0.0000 C   0  0  0  0  0  0  0  0  0  0  0  0
   15.1167   -0.6667    0.0000 C   0  0  0  0  0  0  0  0  0  0  0  0
   13.9667   -0.0000    0.0000 C   0  0  0  0  0  0  0  0  0  0  0  0
   15.1000   -1.9750    0.0000 C   0  0  0  0  0  0  0  0  0  0  0  0
   16.2750   -0.0042    0.0000 Cl  0  0  0  0  0  0  0  0  0  0  0  0
    1.3167   -4.5250    0.0000 O   0  0  0  0  0  0  0  0  0  0  0  0
    4.0000   -2.2042    0.0000 C   0  0  0  0  0  0  0  0  0  0  0  0
    1.3250   -2.2042    0.0000 C   0  0  0  0  0  0  0  0  0  0  0  0
    0.0000   -4.5000    0.0000 C   0  0  0  0  0  0  0  0  0  0  0  0
    3.3167   -1.0667    0.0000 C   0  0  0  0  0  0  0  0  0  0  0  0
    1.9750   -1.0667    0.0000 C   0  0  0  0  0  0  0  0  0  0  0  0
  2  3  2  0
  1  3  1  0
  1  4  1  0
  4  5  2  0
  2  6  1  0
  1  7  1  0
  8  9  1  0
  7  9  1  0
  6 10  1  0
  4 11  1  0
 12 14  1  0
  9 13  1  0
 10 14  1  0
  6 15  2  0
 12 16  2  0
 13 17  2  0
 13 18  1  0
 19 20  1  0
 18 20  2  0
 17 21  1  0
 19 22  1  0
 16 23  1  0
 12 24  1  0
 16 25  1  0
 23 26  1  0
 24 27  2  0
 27 28  1  0
  8 11  1  0
  2  5  1  0
 19 21  2  0
 25 28  2  0
M  END
>  <MOLFORMULA>  (381) 
C21 H20 Cl N3 O3

>  <MOLWEIGHT>  (381) 
3.978600000000000e+002

>  <IDNUMBER>  (381) 
AT-687/PE21270

>  <PRICE>  (381) 
EUR 80/10 mg

>  <Similarity score>  (381) 
0.20

$$$$

     RDKit          2D

 25 28  0  0  0  0  0  0  0  0999 V2000
    6.1000   -7.3667    0.0000 C   0  0  0  0  0  0  0  0  0  0  0  0
    4.6500   -5.7500    0.0000 N   0  0  0  0  0  0  0  0  0  0  0  0
    5.9500   -6.0417    0.0000 N   0  0  0  0  0  0  0  0  0  0  0  0
    3.9792   -6.9000    0.0000 C   0  0  0  0  0  0  0  0  0  0  0  0
    4.8917   -7.9000    0.0000 C   0  0  0  0  0  0  0  0  0  0  0  0
    7.2417   -8.0250    0.0000 C   0  0  0  0  0  0  0  0  0  0  0  0
    3.9792   -4.6000    0.0000 C   0  0  0  0  0  0  0  0  0  0  0  0
    1.9917   -5.7500    0.0000 O   0  0  0  0  0  0  0  0  0  0  0  0
    2.6500   -4.6000    0.0000 C   0  0  0  0  0  0  0  0  0  0  0  0
    8.3917   -7.3667    0.0000 N   0  0  0  0  0  0  0  0  0  0  0  0
    2.6500   -6.9000    0.0000 C   0  0  0  0  0  0  0  0  0  0  0  0
    1.9917   -3.4417    0.0000 C   0  0  0  0  0  0  0  0  0  0  0  0
    7.2417   -9.3500    0.0000 O   0  0  0  0  0  0  0  0  0  0  0  0
    2.6500   -2.2792    0.0000 C   0  0  0  0  0  0  0  0  0  0  0  0
    0.6542   -3.4417    0.0000 C   0  0  0  0  0  0  0  0  0  0  0  0
    9.5500   -8.0250    0.0000 C   0  0  0  0  0  0  0  0  0  0  0  0
    0.6542   -1.1500    0.0000 C   0  0  0  0  0  0  0  0  0  0  0  0
    1.9917   -1.1500    0.0000 C   0  0  0  0  0  0  0  0  0  0  0  0
    0.0000   -2.2792    0.0000 C   0  0  0  0  0  0  0  0  0  0  0  0
    0.0000   -0.0000    0.0000 F   0  0  0  0  0  0  0  0  0  0  0  0
   10.7000   -7.3667    0.0000 C   0  0  0  0  0  0  0  0  0  0  0  0
    9.5500   -9.3500    0.0000 C   0  0  0  0  0  0  0  0  0  0  0  0
   10.7000  -10.0167    0.0000 C   0  0  0  0  0  0  0  0  0  0  0  0
   11.8667   -8.0250    0.0000 C   0  0  0  0  0  0  0  0  0  0  0  0
   11.8667   -9.3500    0.0000 C   0  0  0  0  0  0  0  0  0  0  0  0
  2  3  1  0
  1  3  2  0
  4  5  2  0
  1  5  1  0
  1  6  1  0
  2  7  1  0
  8 11  1  0
  7  9  1  0
  6 10  1  0
  4 11  1  0
  9 12  1  0
  6 13  2  0
 12 14  1  0
 12 15  2  0
 10 16  1  0
 17 19  2  0
 14 18  2  0
 15 19  1  0
 17 20  1  0
 16 21  1  0
 16 22  2  0
 22 23  1  0
 21 24  2  0
 23 25  2  0
  2  4  1  0
  8  9  1  0
 24 25  1  0
 17 18  1  0
M  END
>  <MOLFORMULA>  (382) 
C19 H16 F N3 O2

>  <MOLWEIGHT>  (382) 
3.373524000000000e+002

>  <IDNUMBER>  (382) 
AT-687/PE26854

>  <PRICE>  (382) 
EUR 80/10 mg

>  <Similarity score>  (382) 
0.20

$$$$

     RDKit          2D

 31 35  0  0  0  0  0  0  0  0999 V2000
    7.2917   -4.7667    0.0000 C   0  0  0  0  0  0  0  0  0  0  0  0
    9.3417   -4.0667    0.0000 N   0  0  0  0  0  0  0  0  0  0  0  0
    8.0667   -3.6792    0.0000 N   0  0  0  0  0  0  0  0  0  0  0  0
    9.3500   -5.4000    0.0000 C   0  0  0  0  0  0  0  0  0  0  0  0
    8.0750   -5.8417    0.0000 C   0  0  0  0  0  0  0  0  0  0  0  0
    5.9500   -4.7750    0.0000 C   0  0  0  0  0  0  0  0  0  0  0  0
    5.2917   -3.6167    0.0000 N   0  0  0  0  0  0  0  0  0  0  0  0
   10.5000   -3.4042    0.0000 C   0  0  0  0  0  0  0  0  0  0  0  0
    3.9542   -3.6292    0.0000 C   0  0  0  0  0  0  0  0  0  0  0  0
   11.6500   -5.4000    0.0000 O   0  0  0  0  0  0  0  0  0  0  0  0
   11.6500   -4.0667    0.0000 C   0  0  0  0  0  0  0  0  0  0  0  0
   13.9542   -1.4250    0.0000 C   0  0  0  0  0  0  0  0  0  0  0  0
   12.8000   -3.4250    0.0000 C   0  0  0  0  0  0  0  0  0  0  0  0
   12.8000   -2.1000    0.0000 C   0  0  0  0  0  0  0  0  0  0  0  0
    3.3000   -2.4917    0.0000 C   0  0  0  0  0  0  0  0  0  0  0  0
   10.5000   -6.0792    0.0000 C   0  0  0  0  0  0  0  0  0  0  0  0
   15.1250   -2.0917    0.0000 C   0  0  0  0  0  0  0  0  0  0  0  0
   14.2500   -0.1250    0.0000 O   0  0  0  0  0  0  0  0  0  0  0  0
   16.1000   -1.2000    0.0000 O   0  0  0  0  0  0  0  0  0  0  0  0
    3.3000   -4.8000    0.0000 C   0  0  0  0  0  0  0  0  0  0  0  0
   15.5750   -0.0000    0.0000 C   0  0  0  0  0  0  0  0  0  0  0  0
    5.3042   -5.9250    0.0000 O   0  0  0  0  0  0  0  0  0  0  0  0
   13.9542   -4.1000    0.0000 C   0  0  0  0  0  0  0  0  0  0  0  0
   15.1250   -3.4250    0.0000 C   0  0  0  0  0  0  0  0  0  0  0  0
    1.9917   -4.8000    0.0000 C   0  0  0  0  0  0  0  0  0  0  0  0
    1.9750   -2.4917    0.0000 C   0  0  0  0  0  0  0  0  0  0  0  0
    1.3000   -3.6500    0.0000 C   0  0  0  0  0  0  0  0  0  0  0  0
    3.9542   -5.9417    0.0000 O   0  0  0  0  0  0  0  0  0  0  0  0
    1.3000   -1.3500    0.0000 O   0  0  0  0  0  0  0  0  0  0  0  0
    3.3000   -7.0750    0.0000 C   0  0  0  0  0  0  0  0  0  0  0  0
    0.0000   -1.3500    0.0000 C   0  0  0  0  0  0  0  0  0  0  0  0
  2  3  1  0
  1  3  2  0
  4  5  2  0
  1  5  1  0
  1  6  1  0
  6  7  1  0
  2  8  1  0
  7  9  1  0
 10 16  1  0
  8 11  1  0
 12 14  1  0
 11 13  1  0
 13 14  2  0
  9 15  2  0
  4 16  1  0
 17 24  1  0
 12 18  1  0
 17 19  1  0
  9 20  1  0
 18 21  1  0
  6 22  2  0
 13 23  1  0
 23 24  2  0
 20 25  2  0
 15 26  1  0
 25 27  1  0
 20 28  1  0
 26 29  1  0
 28 30  1  0
 29 31  1  0
  2  4  1  0
 10 11  1  0
 26 27  2  0
 12 17  2  0
 19 21  1  0
M  END
>  <MOLFORMULA>  (383) 
C22 H21 N3 O6

>  <MOLWEIGHT>  (383) 
4.234229000000000e+002

>  <IDNUMBER>  (383) 
AT-687/PE21240

>  <PRICE>  (383) 
EUR 80/10 mg

>  <Similarity score>  (383) 
0.20

$$$$

     RDKit          2D

 31 34  0  0  0  0  0  0  0  0999 V2000
    8.9500   -4.6000    0.0000 C   0  0  0  0  0  0  0  0  0  0  0  0
    6.9000   -5.2542    0.0000 N   0  0  0  0  0  0  0  0  0  0  0  0
    8.1750   -5.6667    0.0000 N   0  0  0  0  0  0  0  0  0  0  0  0
    6.9000   -3.9250    0.0000 C   0  0  0  0  0  0  0  0  0  0  0  0
    8.1750   -3.5167    0.0000 C   0  0  0  0  0  0  0  0  0  0  0  0
   10.2667   -4.6000    0.0000 C   0  0  0  0  0  0  0  0  0  0  0  0
   10.9500   -3.4500    0.0000 N   0  0  0  0  0  0  0  0  0  0  0  0
    5.7500   -5.9167    0.0000 C   0  0  0  0  0  0  0  0  0  0  0  0
   12.2667   -3.4500    0.0000 C   0  0  0  0  0  0  0  0  0  0  0  0
    4.6000   -3.9250    0.0000 O   0  0  0  0  0  0  0  0  0  0  0  0
    4.6000   -5.2542    0.0000 C   0  0  0  0  0  0  0  0  0  0  0  0
   12.9250   -4.6000    0.0000 C   0  0  0  0  0  0  0  0  0  0  0  0
    5.7500   -3.2667    0.0000 C   0  0  0  0  0  0  0  0  0  0  0  0
   12.9250   -2.2750    0.0000 C   0  0  0  0  0  0  0  0  0  0  0  0
    3.4500   -5.9167    0.0000 C   0  0  0  0  0  0  0  0  0  0  0  0
   10.9500   -5.7292    0.0000 O   0  0  0  0  0  0  0  0  0  0  0  0
   14.2667   -2.2750    0.0000 C   0  0  0  0  0  0  0  0  0  0  0  0
    2.2750   -5.2542    0.0000 C   0  0  0  0  0  0  0  0  0  0  0  0
    3.4500   -7.2500    0.0000 C   0  0  0  0  0  0  0  0  0  0  0  0
   14.2667   -4.6000    0.0000 C   0  0  0  0  0  0  0  0  0  0  0  0
    1.1250   -7.2500    0.0000 C   0  0  0  0  0  0  0  0  0  0  0  0
   14.9250   -3.4500    0.0000 C   0  0  0  0  0  0  0  0  0  0  0  0
    2.2750   -7.9167    0.0000 C   0  0  0  0  0  0  0  0  0  0  0  0
    1.1250   -5.9167    0.0000 C   0  0  0  0  0  0  0  0  0  0  0  0
    0.0000   -7.9167    0.0000 Cl  0  0  0  0  0  0  0  0  0  0  0  0
   12.2667   -1.1250    0.0000 O   0  0  0  0  0  0  0  0  0  0  0  0
   14.9250   -5.7292    0.0000 O   0  0  0  0  0  0  0  0  0  0  0  0
   10.9500   -1.1250    0.0000 C   0  0  0  0  0  0  0  0  0  0  0  0
   16.2542   -5.7292    0.0000 C   0  0  0  0  0  0  0  0  0  0  0  0
   16.9250   -6.9000    0.0000 C   0  0  0  0  0  0  0  0  0  0  0  0
   10.2667   -0.0000    0.0000 C   0  0  0  0  0  0  0  0  0  0  0  0
  2  3  1  0
  1  3  2  0
  4  5  2  0
  1  5  1  0
  1  6  1  0
  6  7  1  0
  2  8  1  0
  7  9  1  0
 10 13  1  0
  8 11  1  0
  9 12  2  0
  4 13  1  0
  9 14  1  0
 11 15  1  0
  6 16  2  0
 14 17  2  0
 15 18  1  0
 15 19  2  0
 12 20  1  0
 21 23  2  0
 17 22  1  0
 19 23  1  0
 18 24  2  0
 21 25  1  0
 14 26  1  0
 20 27  1  0
 26 28  1  0
 27 29  1  0
 29 30  1  0
 28 31  1  0
  2  4  1  0
 10 11  1  0
 20 22  2  0
 21 24  1  0
M  END
>  <MOLFORMULA>  (384) 
C23 H24 Cl N3 O4

>  <MOLWEIGHT>  (384) 
4.419126000000000e+002

>  <IDNUMBER>  (384) 
AT-687/PE21204

>  <PRICE>  (384) 
EUR 80/10 mg

>  <Similarity score>  (384) 
0.20

$$$$

     RDKit          2D

 30 33  0  0  0  0  0  0  0  0999 V2000
    8.0542   -5.9417    0.0000 C   0  0  0  0  0  0  0  0  0  0  0  0
    6.9167   -6.6000    0.0000 N   0  0  0  0  0  0  0  0  0  0  0  0
    8.0500   -4.6292    0.0000 N   0  0  0  0  0  0  0  0  0  0  0  0
    9.2250   -6.6000    0.0000 N   0  0  0  0  0  0  0  0  0  0  0  0
    6.9167   -7.9417    0.0000 C   0  0  0  0  0  0  0  0  0  0  0  0
    6.9000   -3.9667    0.0000 C   0  0  0  0  0  0  0  0  0  0  0  0
    2.2917   -7.9417    0.0000 N   0  0  0  0  0  0  0  0  0  0  0  0
    2.2917   -6.6000    0.0000 C   0  0  0  0  0  0  0  0  0  0  0  0
    8.0542   -8.6042    0.0000 C   0  0  0  0  0  0  0  0  0  0  0  0
    1.1292   -5.9667    0.0000 C   0  0  0  0  0  0  0  0  0  0  0  0
    3.4500   -8.6042    0.0000 C   0  0  0  0  0  0  0  0  0  0  0  0
    6.9000   -2.6500    0.0000 C   0  0  0  0  0  0  0  0  0  0  0  0
    9.2250   -7.9417    0.0000 C   0  0  0  0  0  0  0  0  0  0  0  0
    9.2000   -3.9667    0.0000 C   0  0  0  0  0  0  0  0  0  0  0  0
    8.0417   -1.9667    0.0000 C   0  0  0  0  0  0  0  0  0  0  0  0
    1.1292   -4.6292    0.0000 C   0  0  0  0  0  0  0  0  0  0  0  0
    5.7417   -8.6042    0.0000 O   0  0  0  0  0  0  0  0  0  0  0  0
    3.4500   -9.9500    0.0000 O   0  0  0  0  0  0  0  0  0  0  0  0
    9.1917   -2.6250    0.0000 C   0  0  0  0  0  0  0  0  0  0  0  0
    3.4500   -5.9667    0.0000 C   0  0  0  0  0  0  0  0  0  0  0  0
    4.6000   -7.9417    0.0000 C   0  0  0  0  0  0  0  0  0  0  0  0
    0.0000   -6.6250    0.0000 Cl  0  0  0  0  0  0  0  0  0  0  0  0
    2.2917   -3.9500    0.0000 C   0  0  0  0  0  0  0  0  0  0  0  0
    3.4500   -4.6292    0.0000 C   0  0  0  0  0  0  0  0  0  0  0  0
    5.7417   -2.0000    0.0000 C   0  0  0  0  0  0  0  0  0  0  0  0
   10.3750   -8.6042    0.0000 C   0  0  0  0  0  0  0  0  0  0  0  0
    8.0167   -0.6417    0.0000 C   0  0  0  0  0  0  0  0  0  0  0  0
    2.2917   -2.6250    0.0000 C   0  0  0  0  0  0  0  0  0  0  0  0
    5.7250   -0.6750    0.0000 C   0  0  0  0  0  0  0  0  0  0  0  0
    6.8667   -0.0000    0.0000 C   0  0  0  0  0  0  0  0  0  0  0  0
  1  2  2  0
  1  3  1  0
  1  4  1  0
  2  5  1  0
  3  6  1  0
  7 11  1  0
  7  8  1  0
  9 13  1  0
  8 10  2  0
 11 21  1  0
  6 12  1  0
  4 13  2  0
  3 14  1  0
 15 19  1  0
 10 16  1  0
  5 17  1  0
 11 18  2  0
 14 19  1  0
  8 20  1  0
 17 21  1  0
 10 22  1  0
 23 24  1  0
 20 24  2  0
 12 25  1  0
 13 26  1  0
 15 27  1  0
 23 28  1  0
 25 29  2  0
 27 30  2  0
  5  9  2  0
 12 15  2  0
 29 30  1  0
 16 23  2  0
M  END
>  <MOLFORMULA>  (385) 
C23 H23 Cl N4 O2

>  <MOLWEIGHT>  (385) 
4.229137000000000e+002

>  <IDNUMBER>  (385) 
AT-687/PE16675

>  <PRICE>  (385) 
EUR 80/10 mg

>  <Similarity score>  (385) 
0.20

$$$$

     RDKit          2D

 27 30  0  0  0  0  0  0  0  0999 V2000
    5.2667   -5.8167    0.0000 C   0  0  0  0  0  0  0  0  0  0  0  0
    6.0250   -4.7417    0.0000 N   0  0  0  0  0  0  0  0  0  0  0  0
    7.2750   -5.1667    0.0000 N   0  0  0  0  0  0  0  0  0  0  0  0
    7.2750   -6.4917    0.0000 C   0  0  0  0  0  0  0  0  0  0  0  0
    6.0250   -6.9000    0.0000 C   0  0  0  0  0  0  0  0  0  0  0  0
    3.9250   -5.7917    0.0000 C   0  0  0  0  0  0  0  0  0  0  0  0
    3.2750   -4.6417    0.0000 N   0  0  0  0  0  0  0  0  0  0  0  0
    8.4292   -4.5000    0.0000 C   0  0  0  0  0  0  0  0  0  0  0  0
    1.9667   -2.3250    0.0000 N   0  0  0  0  0  0  0  0  0  0  0  0
    9.5792   -6.4917    0.0000 O   0  0  0  0  0  0  0  0  0  0  0  0
    9.5792   -5.1667    0.0000 C   0  0  0  0  0  0  0  0  0  0  0  0
    8.4292   -7.1500    0.0000 C   0  0  0  0  0  0  0  0  0  0  0  0
   10.7292   -4.5000    0.0000 C   0  0  0  0  0  0  0  0  0  0  0  0
    3.2500   -6.9417    0.0000 O   0  0  0  0  0  0  0  0  0  0  0  0
    1.9500   -4.6417    0.0000 C   0  0  0  0  0  0  0  0  0  0  0  0
    3.9542   -3.4917    0.0000 C   0  0  0  0  0  0  0  0  0  0  0  0
    3.3000   -2.3417    0.0000 C   0  0  0  0  0  0  0  0  0  0  0  0
    1.2917   -3.5000    0.0000 C   0  0  0  0  0  0  0  0  0  0  0  0
   10.7292   -3.1750    0.0000 C   0  0  0  0  0  0  0  0  0  0  0  0
   11.8792   -5.1667    0.0000 C   0  0  0  0  0  0  0  0  0  0  0  0
    1.3250   -1.1500    0.0000 C   0  0  0  0  0  0  0  0  0  0  0  0
   13.0292   -3.1750    0.0000 C   0  0  0  0  0  0  0  0  0  0  0  0
   11.8792   -2.5042    0.0000 C   0  0  0  0  0  0  0  0  0  0  0  0
   13.0292   -4.5000    0.0000 C   0  0  0  0  0  0  0  0  0  0  0  0
   14.2000   -2.5042    0.0000 Br  0  0  0  0  0  0  0  0  0  0  0  0
    0.0000   -1.1000    0.0000 C   0  0  0  0  0  0  0  0  0  0  0  0
    2.0250   -0.0000    0.0000 C   0  0  0  0  0  0  0  0  0  0  0  0
  1  2  2  0
  2  3  1  0
  4  5  2  0
  1  5  1  0
  1  6  1  0
  6  7  1  0
  3  8  1  0
  9 17  1  0
 10 12  1  0
  8 11  1  0
  4 12  1  0
 11 13  1  0
  6 14  2  0
  7 15  1  0
  7 16  1  0
 16 17  1  0
 15 18  1  0
 13 19  2  0
 13 20  1  0
  9 21  1  0
 22 24  1  0
 19 23  1  0
 20 24  2  0
 22 25  1  0
 21 26  1  0
 21 27  1  0
  3  4  1  0
  9 18  1  0
 10 11  1  0
 22 23  2  0
M  END
>  <MOLFORMULA>  (386) 
C20 H25 Br N4 O2

>  <MOLWEIGHT>  (386) 
4.333475000000000e+002

>  <IDNUMBER>  (386) 
AT-687/PE21180

>  <PRICE>  (386) 
EUR 80/10 mg

>  <Similarity score>  (386) 
0.20

$$$$

     RDKit          2D

 23 26  0  0  0  0  0  0  0  0999 V2000
   -0.3625   -0.3417    0.0000 C   0  0  0  0  0  0  0  0  0  0  0  0
    1.1417    0.5333    0.0000 N   0  0  0  0  0  0  0  0  0  0  0  0
   -1.3708   -0.3417    0.0000 C   0  0  0  0  0  0  0  0  0  0  0  0
   -0.3625   -2.0917    0.0000 C   0  0  0  0  0  0  0  0  0  0  0  0
    0.1417   -1.2167    0.0000 C   0  0  0  0  0  0  0  0  0  0  0  0
   -1.3708   -2.0917    0.0000 O   0  0  0  0  0  0  0  0  0  0  0  0
   -1.8708   -1.2167    0.0000 C   0  0  0  0  0  0  0  0  0  0  0  0
    0.1292    0.5333    0.0000 C   0  0  0  0  0  0  0  0  0  0  0  0
    1.7167    1.3458    0.0000 C   0  0  0  0  0  0  0  0  0  0  0  0
    1.7167   -0.2792    0.0000 C   0  0  0  0  0  0  0  0  0  0  0  0
   -1.8708    0.5375    0.0000 C   0  0  0  0  0  0  0  0  0  0  0  0
    2.6542    1.0500    0.0000 C   0  0  0  0  0  0  0  0  0  0  0  0
    0.1417   -2.9542    0.0000 O   0  0  0  0  0  0  0  0  0  0  0  0
   -2.8833   -1.2167    0.0000 C   0  0  0  0  0  0  0  0  0  0  0  0
    2.6542    0.0458    0.0000 C   0  0  0  0  0  0  0  0  0  0  0  0
   -2.8750    0.5250    0.0000 C   0  0  0  0  0  0  0  0  0  0  0  0
   -3.3833   -0.3542    0.0000 C   0  0  0  0  0  0  0  0  0  0  0  0
   -3.3750    1.3875    0.0000 O   0  0  0  0  0  0  0  0  0  0  0  0
    1.4917    2.2875    0.0000 C   0  0  0  0  0  0  0  0  0  0  0  0
    3.3792    1.6958    0.0000 C   0  0  0  0  0  0  0  0  0  0  0  0
   -2.8750    2.2583    0.0000 C   0  0  0  0  0  0  0  0  0  0  0  0
    2.2417    2.9625    0.0000 C   0  0  0  0  0  0  0  0  0  0  0  0
    3.1667    2.6708    0.0000 C   0  0  0  0  0  0  0  0  0  0  0  0
  2  8  1  0
  1  3  1  0
  4  5  1  0
  1  5  2  0
  4  6  1  0
  3  7  1  0
  1  8  1  0
  2  9  1  0
  2 10  1  0
  3 11  2  0
  9 12  2  0
  4 13  2  0
  7 14  2  0
 10 15  1  0
 11 16  1  0
 16 17  2  0
 16 18  1  0
  9 19  1  0
 12 20  1  0
 18 21  1  0
 19 22  2  0
 22 23  1  0
  6  7  1  0
 12 15  1  0
 14 17  1  0
 20 23  2  0
M  END
>  <MOLFORMULA>  (387) 
C19 H17 N O3

>  <MOLWEIGHT>  (387) 
3.073473000000000e+002

>  <IDNUMBER>  (387) 
AT-057/J151066

>  <PRICE>  (387) 
EUR 42.31/10 mg

>  <Similarity score>  (387) 
0.20

$$$$

     RDKit          2D

 30 34  0  0  0  0  0  0  0  0999 V2000
   -1.5458    2.5208    0.0000 C   0  0  0  0  0  0  0  0  0  0  0  0
   -1.5458    3.5208    0.0000 N   0  0  0  0  0  0  0  0  0  0  0  0
   -0.6833    2.0083    0.0000 C   0  0  0  0  0  0  0  0  0  0  0  0
   -2.5000    3.8333    0.0000 N   0  0  0  0  0  0  0  0  0  0  0  0
   -2.5000    2.2083    0.0000 C   0  0  0  0  0  0  0  0  0  0  0  0
   -0.6833    1.0083    0.0000 N   0  0  0  0  0  0  0  0  0  0  0  0
   -3.0833    3.0083    0.0000 C   0  0  0  0  0  0  0  0  0  0  0  0
    1.0500   -0.9917    0.0000 C   0  0  0  0  0  0  0  0  0  0  0  0
    0.1875    2.5208    0.0000 N   0  0  0  0  0  0  0  0  0  0  0  0
    0.1792   -0.4875    0.0000 C   0  0  0  0  0  0  0  0  0  0  0  0
    1.0417   -1.9917    0.0000 N   0  0  0  0  0  0  0  0  0  0  0  0
    0.1875    0.5083    0.0000 C   0  0  0  0  0  0  0  0  0  0  0  0
   -0.6833    4.0042    0.0000 C   0  0  0  0  0  0  0  0  0  0  0  0
    1.9042   -2.4917    0.0000 C   0  0  0  0  0  0  0  0  0  0  0  0
    0.1875    3.5208    0.0000 C   0  0  0  0  0  0  0  0  0  0  0  0
    2.7750   -1.9917    0.0000 C   0  0  0  0  0  0  0  0  0  0  0  0
    1.9125   -0.4917    0.0000 O   0  0  0  0  0  0  0  0  0  0  0  0
    3.6375   -2.5042    0.0000 C   0  0  0  0  0  0  0  0  0  0  0  0
    1.8917   -3.4875    0.0000 C   0  0  0  0  0  0  0  0  0  0  0  0
    3.6375   -3.4917    0.0000 C   0  0  0  0  0  0  0  0  0  0  0  0
   -1.5458    0.5083    0.0000 C   0  0  0  0  0  0  0  0  0  0  0  0
   -2.9083    1.2833    0.0000 C   0  0  0  0  0  0  0  0  0  0  0  0
    2.7542   -4.0000    0.0000 C   0  0  0  0  0  0  0  0  0  0  0  0
    4.4917   -4.0042    0.0000 F   0  0  0  0  0  0  0  0  0  0  0  0
   -0.6833   -0.9792    0.0000 C   0  0  0  0  0  0  0  0  0  0  0  0
   -4.0833    2.9000    0.0000 C   0  0  0  0  0  0  0  0  0  0  0  0
   -1.5458   -0.4792    0.0000 C   0  0  0  0  0  0  0  0  0  0  0  0
    2.7792   -1.0000    0.0000 C   0  0  0  0  0  0  0  0  0  0  0  0
   -3.9000    1.1833    0.0000 C   0  0  0  0  0  0  0  0  0  0  0  0
   -4.4958    1.9958    0.0000 C   0  0  0  0  0  0  0  0  0  0  0  0
  1  2  1  0
  1  3  1  0
  2  4  1  0
  1  5  2  0
  3  6  1  0
  5  7  1  0
  8 10  1  0
  3  9  2  0
 10 12  1  0
  8 11  1  0
  6 12  1  0
  2 13  1  0
 11 14  1  0
  9 15  1  0
 14 16  2  0
  8 17  2  0
 16 18  1  0
 14 19  1  0
 20 23  1  0
  6 21  1  0
  5 22  1  0
 19 23  2  0
 20 24  1  0
 25 27  1  0
  7 26  1  0
 21 27  1  0
 16 28  1  0
 22 29  1  0
 29 30  1  0
  4  7  2  0
 13 15  2  0
 26 30  1  0
 10 25  1  0
 18 20  2  0
M  END
>  <MOLFORMULA>  (388) 
C23 H26 F N5 O

>  <MOLWEIGHT>  (388) 
4.074904000000000e+002

>  <IDNUMBER>  (388) 
AT-687/PE21875

>  <PRICE>  (388) 
EUR 80/10 mg

>  <Similarity score>  (388) 
0.20

$$$$

     RDKit          2D

 29 33  0  0  0  0  0  0  0  0999 V2000
    5.9667   -4.7750    0.0000 C   0  0  0  0  0  0  0  0  0  0  0  0
    8.0250   -4.0917    0.0000 N   0  0  0  0  0  0  0  0  0  0  0  0
    6.7500   -3.6917    0.0000 N   0  0  0  0  0  0  0  0  0  0  0  0
    8.0250   -5.4250    0.0000 C   0  0  0  0  0  0  0  0  0  0  0  0
    6.7667   -5.8500    0.0000 C   0  0  0  0  0  0  0  0  0  0  0  0
    4.6417   -4.7792    0.0000 C   0  0  0  0  0  0  0  0  0  0  0  0
    3.9750   -3.6250    0.0000 N   0  0  0  0  0  0  0  0  0  0  0  0
    9.1750   -3.4250    0.0000 C   0  0  0  0  0  0  0  0  0  0  0  0
    2.6417   -3.6500    0.0000 C   0  0  0  0  0  0  0  0  0  0  0  0
   10.3250   -5.4250    0.0000 O   0  0  0  0  0  0  0  0  0  0  0  0
   10.3250   -4.0917    0.0000 C   0  0  0  0  0  0  0  0  0  0  0  0
   12.6292   -1.4417    0.0000 C   0  0  0  0  0  0  0  0  0  0  0  0
   11.4750   -3.4417    0.0000 C   0  0  0  0  0  0  0  0  0  0  0  0
   11.4750   -2.1042    0.0000 C   0  0  0  0  0  0  0  0  0  0  0  0
    1.9750   -2.4917    0.0000 C   0  0  0  0  0  0  0  0  0  0  0  0
    9.1750   -6.0792    0.0000 C   0  0  0  0  0  0  0  0  0  0  0  0
   13.7917   -2.0917    0.0000 C   0  0  0  0  0  0  0  0  0  0  0  0
   12.9167   -0.1417    0.0000 O   0  0  0  0  0  0  0  0  0  0  0  0
    1.9750   -4.8000    0.0000 C   0  0  0  0  0  0  0  0  0  0  0  0
   14.7750   -1.2250    0.0000 O   0  0  0  0  0  0  0  0  0  0  0  0
   14.2500   -0.0000    0.0000 C   0  0  0  0  0  0  0  0  0  0  0  0
    3.9792   -5.9417    0.0000 O   0  0  0  0  0  0  0  0  0  0  0  0
   12.6292   -4.1000    0.0000 C   0  0  0  0  0  0  0  0  0  0  0  0
   13.7917   -3.4417    0.0000 C   0  0  0  0  0  0  0  0  0  0  0  0
    0.6542   -4.8000    0.0000 C   0  0  0  0  0  0  0  0  0  0  0  0
    0.6542   -2.4917    0.0000 C   0  0  0  0  0  0  0  0  0  0  0  0
    2.6417   -5.9500    0.0000 Cl  0  0  0  0  0  0  0  0  0  0  0  0
    0.0000   -3.6542    0.0000 C   0  0  0  0  0  0  0  0  0  0  0  0
    0.0000   -1.3500    0.0000 F   0  0  0  0  0  0  0  0  0  0  0  0
  2  3  1  0
  1  3  2  0
  4  5  2  0
  1  5  1  0
  1  6  1  0
  6  7  1  0
  2  8  1  0
  7  9  1  0
 10 16  1  0
  8 11  1  0
 12 14  1  0
 11 13  1  0
 13 14  2  0
  9 15  2  0
  4 16  1  0
 17 24  1  0
 12 18  1  0
  9 19  1  0
 17 20  1  0
 18 21  1  0
  6 22  2  0
 13 23  1  0
 23 24  2  0
 19 25  2  0
 15 26  1  0
 19 27  1  0
 25 28  1  0
 26 29  1  0
  2  4  1  0
 10 11  1  0
 26 28  2  0
 12 17  2  0
 20 21  1  0
M  END
>  <MOLFORMULA>  (389) 
C20 H15 Cl F N3 O4

>  <MOLWEIGHT>  (389) 
4.158065000000000e+002

>  <IDNUMBER>  (389) 
AT-687/PE21247

>  <PRICE>  (389) 
EUR 80/10 mg

>  <Similarity score>  (389) 
0.20

$$$$

     RDKit          2D

 32 36  0  0  0  0  0  0  0  0999 V2000
    9.3417   -4.1000    0.0000 N   0  0  0  0  0  0  0  0  0  0  0  0
    7.3000   -4.7750    0.0000 C   0  0  0  0  0  0  0  0  0  0  0  0
    8.0667   -3.7000    0.0000 N   0  0  0  0  0  0  0  0  0  0  0  0
    9.3542   -5.4417    0.0000 C   0  0  0  0  0  0  0  0  0  0  0  0
    8.0792   -5.8542    0.0000 C   0  0  0  0  0  0  0  0  0  0  0  0
    5.9542   -4.8000    0.0000 C   0  0  0  0  0  0  0  0  0  0  0  0
   10.5000   -3.4417    0.0000 C   0  0  0  0  0  0  0  0  0  0  0  0
   11.6667   -5.4417    0.0000 O   0  0  0  0  0  0  0  0  0  0  0  0
   11.6667   -4.1000    0.0000 C   0  0  0  0  0  0  0  0  0  0  0  0
   13.9667   -1.4542    0.0000 C   0  0  0  0  0  0  0  0  0  0  0  0
   12.8042   -3.4417    0.0000 C   0  0  0  0  0  0  0  0  0  0  0  0
    5.3167   -5.9417    0.0000 N   0  0  0  0  0  0  0  0  0  0  0  0
    3.3167   -4.8250    0.0000 C   0  0  0  0  0  0  0  0  0  0  0  0
    1.9917   -4.8167    0.0000 C   0  0  0  0  0  0  0  0  0  0  0  0
   12.8042   -2.1250    0.0000 C   0  0  0  0  0  0  0  0  0  0  0  0
   10.5000   -6.1000    0.0000 C   0  0  0  0  0  0  0  0  0  0  0  0
    1.3292   -3.6792    0.0000 C   0  0  0  0  0  0  0  0  0  0  0  0
   15.1250   -2.1250    0.0000 C   0  0  0  0  0  0  0  0  0  0  0  0
   14.2542   -0.1500    0.0000 O   0  0  0  0  0  0  0  0  0  0  0  0
   16.1042   -1.2292    0.0000 O   0  0  0  0  0  0  0  0  0  0  0  0
   15.5750   -0.0000    0.0000 C   0  0  0  0  0  0  0  0  0  0  0  0
    3.9542   -5.9542    0.0000 C   0  0  0  0  0  0  0  0  0  0  0  0
    5.3000   -3.6500    0.0000 O   0  0  0  0  0  0  0  0  0  0  0  0
   13.9667   -4.1000    0.0000 C   0  0  0  0  0  0  0  0  0  0  0  0
   15.1250   -3.4542    0.0000 C   0  0  0  0  0  0  0  0  0  0  0  0
    3.9750   -3.6792    0.0000 C   0  0  0  0  0  0  0  0  0  0  0  0
    1.9750   -2.5250    0.0000 C   0  0  0  0  0  0  0  0  0  0  0  0
    3.3167   -2.5250    0.0000 C   0  0  0  0  0  0  0  0  0  0  0  0
    1.3292   -5.9750    0.0000 O   0  0  0  0  0  0  0  0  0  0  0  0
    1.3167   -1.4000    0.0000 O   0  0  0  0  0  0  0  0  0  0  0  0
    0.0000   -5.9750    0.0000 C   0  0  0  0  0  0  0  0  0  0  0  0
    0.0000   -1.4167    0.0000 C   0  0  0  0  0  0  0  0  0  0  0  0
  2  3  2  0
  1  3  1  0
  1  4  1  0
  4  5  2  0
  2  6  1  0
  1  7  1  0
  8  9  1  0
  7  9  1  0
 10 15  1  0
  9 11  1  0
  6 12  1  0
 13 22  1  0
 13 14  2  0
 11 15  2  0
  4 16  1  0
 14 17  1  0
 18 25  1  0
 10 19  1  0
 18 20  1  0
 19 21  1  0
 12 22  1  0
  6 23  2  0
 11 24  1  0
 24 25  2  0
 13 26  1  0
 27 28  1  0
 26 28  2  0
 14 29  1  0
 27 30  1  0
 29 31  1  0
 30 32  1  0
  8 16  1  0
  2  5  1  0
 10 18  2  0
 20 21  1  0
 17 27  2  0
M  END
>  <MOLFORMULA>  (390) 
C23 H23 N3 O6

>  <MOLWEIGHT>  (390) 
4.374497000000000e+002

>  <IDNUMBER>  (390) 
AT-687/PE21321

>  <PRICE>  (390) 
EUR 80/10 mg

>  <Similarity score>  (390) 
0.20

$$$$

     RDKit          2D

 29 33  0  0  0  0  0  0  0  0999 V2000
    5.9917   -4.7750    0.0000 C   0  0  0  0  0  0  0  0  0  0  0  0
    8.0292   -4.1000    0.0000 N   0  0  0  0  0  0  0  0  0  0  0  0
    6.7750   -3.7000    0.0000 N   0  0  0  0  0  0  0  0  0  0  0  0
    8.0500   -5.4167    0.0000 C   0  0  0  0  0  0  0  0  0  0  0  0
    6.7917   -5.8542    0.0000 C   0  0  0  0  0  0  0  0  0  0  0  0
    4.6542   -4.7917    0.0000 C   0  0  0  0  0  0  0  0  0  0  0  0
    9.2000   -3.4250    0.0000 C   0  0  0  0  0  0  0  0  0  0  0  0
    3.9917   -3.6417    0.0000 N   0  0  0  0  0  0  0  0  0  0  0  0
   10.3500   -5.4167    0.0000 O   0  0  0  0  0  0  0  0  0  0  0  0
   10.3500   -4.1000    0.0000 C   0  0  0  0  0  0  0  0  0  0  0  0
   12.6750   -1.4500    0.0000 C   0  0  0  0  0  0  0  0  0  0  0  0
   11.5000   -3.4500    0.0000 C   0  0  0  0  0  0  0  0  0  0  0  0
    2.6542   -3.6500    0.0000 C   0  0  0  0  0  0  0  0  0  0  0  0
   11.5000   -2.1250    0.0000 C   0  0  0  0  0  0  0  0  0  0  0  0
    9.2000   -6.1000    0.0000 C   0  0  0  0  0  0  0  0  0  0  0  0
   13.8042   -2.1167    0.0000 C   0  0  0  0  0  0  0  0  0  0  0  0
   12.9500   -0.1250    0.0000 O   0  0  0  0  0  0  0  0  0  0  0  0
   14.8000   -1.2042    0.0000 O   0  0  0  0  0  0  0  0  0  0  0  0
   14.2750   -0.0000    0.0000 C   0  0  0  0  0  0  0  0  0  0  0  0
    3.9917   -5.9500    0.0000 O   0  0  0  0  0  0  0  0  0  0  0  0
   12.6500   -4.1042    0.0000 C   0  0  0  0  0  0  0  0  0  0  0  0
   13.8042   -3.4500    0.0000 C   0  0  0  0  0  0  0  0  0  0  0  0
    0.6917   -4.8250    0.0000 C   0  0  0  0  0  0  0  0  0  0  0  0
    0.6542   -2.5250    0.0000 C   0  0  0  0  0  0  0  0  0  0  0  0
    1.9917   -4.8042    0.0000 C   0  0  0  0  0  0  0  0  0  0  0  0
    1.9750   -2.5167    0.0000 C   0  0  0  0  0  0  0  0  0  0  0  0
    0.0042   -3.6750    0.0000 C   0  0  0  0  0  0  0  0  0  0  0  0
    0.0000   -1.3750    0.0000 C   0  0  0  0  0  0  0  0  0  0  0  0
    0.0250   -5.9667    0.0000 C   0  0  0  0  0  0  0  0  0  0  0  0
  2  3  1  0
  1  3  2  0
  4  5  2  0
  1  5  1  0
  1  6  1  0
  2  7  1  0
  6  8  1  0
  9 15  1  0
  7 10  1  0
 11 14  1  0
 10 12  1  0
  8 13  1  0
 12 14  2  0
  4 15  1  0
 16 22  1  0
 11 17  1  0
 16 18  1  0
 17 19  1  0
  6 20  2  0
 12 21  1  0
 21 22  2  0
 23 25  2  0
 24 26  1  0
 13 25  1  0
 13 26  2  0
 24 27  2  0
 24 28  1  0
 23 29  1  0
  2  4  1  0
  9 10  1  0
 23 27  1  0
 11 16  2  0
 18 19  1  0
M  END
>  <MOLFORMULA>  (391) 
C22 H21 N3 O4

>  <MOLWEIGHT>  (391) 
3.914249000000000e+002

>  <IDNUMBER>  (391) 
AT-687/PE21235

>  <PRICE>  (391) 
EUR 80/10 mg

>  <Similarity score>  (391) 
0.20

$$$$

     RDKit          2D

 27 30  0  0  0  0  0  0  0  0999 V2000
    7.3000   -3.4167    0.0000 C   0  0  0  0  0  0  0  0  0  0  0  0
    9.3417   -2.7250    0.0000 N   0  0  0  0  0  0  0  0  0  0  0  0
    8.0792   -2.3417    0.0000 N   0  0  0  0  0  0  0  0  0  0  0  0
    9.3500   -4.0500    0.0000 C   0  0  0  0  0  0  0  0  0  0  0  0
    8.1000   -4.5000    0.0000 C   0  0  0  0  0  0  0  0  0  0  0  0
    5.9500   -3.4250    0.0000 C   0  0  0  0  0  0  0  0  0  0  0  0
   10.5042   -2.0667    0.0000 C   0  0  0  0  0  0  0  0  0  0  0  0
   11.6500   -4.0500    0.0000 O   0  0  0  0  0  0  0  0  0  0  0  0
    5.3000   -2.2750    0.0000 N   0  0  0  0  0  0  0  0  0  0  0  0
   11.6500   -2.7250    0.0000 C   0  0  0  0  0  0  0  0  0  0  0  0
   10.5042   -4.7250    0.0000 C   0  0  0  0  0  0  0  0  0  0  0  0
    1.9667   -1.1667    0.0000 C   0  0  0  0  0  0  0  0  0  0  0  0
    3.9667   -2.2917    0.0000 C   0  0  0  0  0  0  0  0  0  0  0  0
   12.8000   -2.0750    0.0000 C   0  0  0  0  0  0  0  0  0  0  0  0
    5.3000   -4.5792    0.0000 O   0  0  0  0  0  0  0  0  0  0  0  0
    3.2792   -1.1500    0.0000 C   0  0  0  0  0  0  0  0  0  0  0  0
    1.3000   -2.3000    0.0000 C   0  0  0  0  0  0  0  0  0  0  0  0
   12.8000   -0.7417    0.0000 C   0  0  0  0  0  0  0  0  0  0  0  0
   13.9542   -2.7500    0.0000 C   0  0  0  0  0  0  0  0  0  0  0  0
    1.9750   -3.4667    0.0000 C   0  0  0  0  0  0  0  0  0  0  0  0
    3.3000   -3.4500    0.0000 C   0  0  0  0  0  0  0  0  0  0  0  0
   15.1167   -0.7417    0.0000 C   0  0  0  0  0  0  0  0  0  0  0  0
   15.1000   -2.0750    0.0000 C   0  0  0  0  0  0  0  0  0  0  0  0
   13.9542   -0.0750    0.0000 C   0  0  0  0  0  0  0  0  0  0  0  0
   16.2750   -0.0917    0.0000 Cl  0  0  0  0  0  0  0  0  0  0  0  0
    1.3000   -0.0000    0.0000 C   0  0  0  0  0  0  0  0  0  0  0  0
    0.0000   -2.3250    0.0000 C   0  0  0  0  0  0  0  0  0  0  0  0
  2  3  1  0
  1  3  2  0
  4  5  2  0
  1  5  1  0
  1  6  1  0
  2  7  1  0
  8 11  1  0
  6  9  1  0
  7 10  1  0
  4 11  1  0
 12 16  1  0
  9 13  1  0
 10 14  1  0
  6 15  2  0
 13 16  2  0
 17 20  1  0
 14 18  1  0
 14 19  2  0
 20 21  2  0
 13 21  1  0
 22 23  2  0
 19 23  1  0
 18 24  2  0
 22 25  1  0
 12 26  1  0
 17 27  1  0
  2  4  1  0
  8 10  1  0
 12 17  2  0
 22 24  1  0
M  END
>  <MOLFORMULA>  (392) 
C21 H20 Cl N3 O2

>  <MOLWEIGHT>  (392) 
3.818610000000000e+002

>  <IDNUMBER>  (392) 
AT-687/PE21187

>  <PRICE>  (392) 
EUR 80/10 mg

>  <Similarity score>  (392) 
0.20

$$$$

     RDKit          2D

 40 45  0  0  0  0  0  0  0  0999 V2000
    9.2167   -5.9750    0.0000 C   0  0  0  0  0  0  0  0  0  0  0  0
    8.0500   -6.6417    0.0000 C   0  0  0  0  0  0  0  0  0  0  0  0
    6.9167   -5.9750    0.0000 O   0  0  0  0  0  0  0  0  0  0  0  0
    6.9167   -4.6667    0.0000 C   0  0  0  0  0  0  0  0  0  0  0  0
    5.7667   -4.0000    0.0000 C   0  0  0  0  0  0  0  0  0  0  0  0
    9.2167   -4.6667    0.0000 C   0  0  0  0  0  0  0  0  0  0  0  0
   10.3750   -6.6500    0.0000 C   0  0  0  0  0  0  0  0  0  0  0  0
    8.0667   -4.0000    0.0000 C   0  0  0  0  0  0  0  0  0  0  0  0
    5.7667   -2.6667    0.0000 C   0  0  0  0  0  0  0  0  0  0  0  0
    8.0500   -7.9750    0.0000 N   0  0  0  0  0  0  0  0  0  0  0  0
    6.9167   -1.9917    0.0000 C   0  0  0  0  0  0  0  0  0  0  0  0
   10.3750   -8.0000    0.0000 N   0  0  0  0  0  0  0  0  0  0  0  0
    4.6250   -1.9917    0.0000 N   0  0  0  0  0  0  0  0  0  0  0  0
    8.0667   -2.6667    0.0000 C   0  0  0  0  0  0  0  0  0  0  0  0
    3.4417   -7.9750    0.0000 C   0  0  0  0  0  0  0  0  0  0  0  0
   11.5250   -8.6500    0.0000 C   0  0  0  0  0  0  0  0  0  0  0  0
    4.6000   -8.6292    0.0000 C   0  0  0  0  0  0  0  0  0  0  0  0
    6.8917   -8.6292    0.0000 C   0  0  0  0  0  0  0  0  0  0  0  0
   11.5250   -5.9917    0.0000 O   0  0  0  0  0  0  0  0  0  0  0  0
    5.7417   -7.9750    0.0000 C   0  0  0  0  0  0  0  0  0  0  0  0
    3.4417   -6.6417    0.0000 O   0  0  0  0  0  0  0  0  0  0  0  0
   12.6917   -8.0000    0.0000 C   0  0  0  0  0  0  0  0  0  0  0  0
    4.6250   -4.6667    0.0000 C   0  0  0  0  0  0  0  0  0  0  0  0
    2.2917   -8.6292    0.0000 O   0  0  0  0  0  0  0  0  0  0  0  0
    6.9167   -0.6542    0.0000 C   0  0  0  0  0  0  0  0  0  0  0  0
    3.4750   -2.6667    0.0000 C   0  0  0  0  0  0  0  0  0  0  0  0
    4.6250   -0.6542    0.0000 C   0  0  0  0  0  0  0  0  0  0  0  0
   12.6917   -6.6667    0.0000 O   0  0  0  0  0  0  0  0  0  0  0  0
    3.4750   -4.0000    0.0000 C   0  0  0  0  0  0  0  0  0  0  0  0
    4.5917   -9.9667    0.0000 C   0  0  0  0  0  0  0  0  0  0  0  0
    5.7667   -0.0000    0.0000 C   0  0  0  0  0  0  0  0  0  0  0  0
    5.7417  -10.6250    0.0000 C   0  0  0  0  0  0  0  0  0  0  0  0
   11.5250   -9.9917    0.0000 C   0  0  0  0  0  0  0  0  0  0  0  0
    6.8917   -9.9667    0.0000 C   0  0  0  0  0  0  0  0  0  0  0  0
   13.8417   -8.6500    0.0000 C   0  0  0  0  0  0  0  0  0  0  0  0
    1.1417   -7.9750    0.0000 C   0  0  0  0  0  0  0  0  0  0  0  0
   13.8417   -6.0000    0.0000 C   0  0  0  0  0  0  0  0  0  0  0  0
    0.0000   -8.6292    0.0000 C   0  0  0  0  0  0  0  0  0  0  0  0
   12.6750  -10.6542    0.0000 C   0  0  0  0  0  0  0  0  0  0  0  0
   13.8417   -9.9917    0.0000 C   0  0  0  0  0  0  0  0  0  0  0  0
  1  2  1  0
  2  3  1  0
  4  8  2  0
  4  5  1  0
  1  6  2  0
  1  7  1  0
  6  8  1  0
  9 11  1  0
  2 10  2  0
 11 14  2  0
  7 12  1  0
  9 13  1  0
  8 14  1  0
 15 17  1  0
 12 16  1  0
 17 20  1  0
 10 18  1  0
  7 19  2  0
 18 20  2  0
 15 21  2  0
 16 22  2  0
  5 23  1  0
 15 24  1  0
 11 25  1  0
 13 26  1  0
 27 31  1  0
 22 28  1  0
 23 29  1  0
 30 32  1  0
 25 31  1  0
 32 34  2  0
 16 33  1  0
 18 34  1  0
 22 35  1  0
 24 36  1  0
 28 37  1  0
 36 38  1  0
 33 39  2  0
 39 40  1  0
  3  4  1  0
  5  9  2  0
 35 40  2  0
 26 29  1  0
 17 30  2  0
 13 27  1  0
M  END
>  <MOLFORMULA>  (393) 
C32 H31 N3 O5

>  <MOLWEIGHT>  (393) 
5.376129000000000e+002

>  <IDNUMBER>  (393) 
AT-687/PE10230

>  <PRICE>  (393) 
EUR 80/10 mg

>  <Similarity score>  (393) 
0.20

$$$$

     RDKit          2D

 24 27  0  0  0  0  0  0  0  0999 V2000
    3.9750   -3.5000    0.0000 C   0  0  0  0  0  0  0  0  0  0  0  0
    4.7500   -2.4417    0.0000 N   0  0  0  0  0  0  0  0  0  0  0  0
    6.0000   -2.8500    0.0000 N   0  0  0  0  0  0  0  0  0  0  0  0
    6.0000   -4.1750    0.0000 C   0  0  0  0  0  0  0  0  0  0  0  0
    4.7500   -4.5750    0.0000 C   0  0  0  0  0  0  0  0  0  0  0  0
    2.6417   -3.4750    0.0000 C   0  0  0  0  0  0  0  0  0  0  0  0
    7.1417   -2.1750    0.0000 C   0  0  0  0  0  0  0  0  0  0  0  0
    1.9792   -2.3250    0.0000 N   0  0  0  0  0  0  0  0  0  0  0  0
    8.3000   -4.1750    0.0000 O   0  0  0  0  0  0  0  0  0  0  0  0
    8.3000   -2.8500    0.0000 C   0  0  0  0  0  0  0  0  0  0  0  0
    7.1417   -4.8417    0.0000 C   0  0  0  0  0  0  0  0  0  0  0  0
    9.4500   -2.1750    0.0000 C   0  0  0  0  0  0  0  0  0  0  0  0
    1.9542   -4.6250    0.0000 O   0  0  0  0  0  0  0  0  0  0  0  0
    9.4500   -0.8542    0.0000 C   0  0  0  0  0  0  0  0  0  0  0  0
   10.6000   -2.8500    0.0000 C   0  0  0  0  0  0  0  0  0  0  0  0
   11.7500   -0.8542    0.0000 C   0  0  0  0  0  0  0  0  0  0  0  0
   11.7500   -2.1750    0.0000 C   0  0  0  0  0  0  0  0  0  0  0  0
   10.5917   -0.1917    0.0000 C   0  0  0  0  0  0  0  0  0  0  0  0
   12.9167   -0.1917    0.0000 Cl  0  0  0  0  0  0  0  0  0  0  0  0
    2.6667   -1.1750    0.0000 C   0  0  0  0  0  0  0  0  0  0  0  0
    0.6500   -2.3250    0.0000 C   0  0  0  0  0  0  0  0  0  0  0  0
    0.0000   -1.1792    0.0000 C   0  0  0  0  0  0  0  0  0  0  0  0
    2.0042   -0.0042    0.0000 C   0  0  0  0  0  0  0  0  0  0  0  0
    0.6750   -0.0000    0.0000 C   0  0  0  0  0  0  0  0  0  0  0  0
  1  2  2  0
  2  3  1  0
  4  5  2  0
  1  5  1  0
  1  6  1  0
  3  7  1  0
  6  8  1  0
  9 11  1  0
  7 10  1  0
  4 11  1  0
 10 12  1  0
  6 13  2  0
 12 14  1  0
 12 15  2  0
 16 17  2  0
 15 17  1  0
 14 18  2  0
 16 19  1  0
  8 20  1  0
  8 21  1  0
 21 22  1  0
 20 23  1  0
 22 24  1  0
  3  4  1  0
  9 10  1  0
 23 24  1  0
 16 18  1  0
M  END
>  <MOLFORMULA>  (394) 
C18 H20 Cl N3 O2

>  <MOLWEIGHT>  (394) 
3.458280000000000e+002

>  <IDNUMBER>  (394) 
AT-687/PE21157

>  <PRICE>  (394) 
EUR 80/10 mg

>  <Similarity score>  (394) 
0.20

$$$$

     RDKit          2D

 30 34  0  0  0  0  0  0  0  0999 V2000
   -1.5500    2.5208    0.0000 C   0  0  0  0  0  0  0  0  0  0  0  0
   -1.5500    3.5083    0.0000 N   0  0  0  0  0  0  0  0  0  0  0  0
   -0.6875    2.0083    0.0000 C   0  0  0  0  0  0  0  0  0  0  0  0
   -2.5083    3.8208    0.0000 N   0  0  0  0  0  0  0  0  0  0  0  0
   -2.5083    2.1958    0.0000 C   0  0  0  0  0  0  0  0  0  0  0  0
   -0.6875    1.0000    0.0000 N   0  0  0  0  0  0  0  0  0  0  0  0
   -3.0958    3.0083    0.0000 C   0  0  0  0  0  0  0  0  0  0  0  0
    1.0417   -0.9917    0.0000 C   0  0  0  0  0  0  0  0  0  0  0  0
    0.1792    2.5208    0.0000 N   0  0  0  0  0  0  0  0  0  0  0  0
    0.1792   -0.4917    0.0000 C   0  0  0  0  0  0  0  0  0  0  0  0
    1.0417   -1.9917    0.0000 N   0  0  0  0  0  0  0  0  0  0  0  0
    0.1792    0.5208    0.0000 C   0  0  0  0  0  0  0  0  0  0  0  0
   -0.6875    4.0042    0.0000 C   0  0  0  0  0  0  0  0  0  0  0  0
    1.9042   -2.5000    0.0000 C   0  0  0  0  0  0  0  0  0  0  0  0
    0.1792    3.5083    0.0000 C   0  0  0  0  0  0  0  0  0  0  0  0
    2.7750   -2.0042    0.0000 C   0  0  0  0  0  0  0  0  0  0  0  0
    1.9125   -0.5000    0.0000 O   0  0  0  0  0  0  0  0  0  0  0  0
    3.6417   -2.5042    0.0000 C   0  0  0  0  0  0  0  0  0  0  0  0
    1.8917   -3.4917    0.0000 C   0  0  0  0  0  0  0  0  0  0  0  0
    2.7875   -1.0042    0.0000 F   0  0  0  0  0  0  0  0  0  0  0  0
   -1.5500    0.5208    0.0000 C   0  0  0  0  0  0  0  0  0  0  0  0
   -2.9083    1.2833    0.0000 C   0  0  0  0  0  0  0  0  0  0  0  0
    3.6292   -3.5042    0.0000 C   0  0  0  0  0  0  0  0  0  0  0  0
    2.7542   -4.0000    0.0000 C   0  0  0  0  0  0  0  0  0  0  0  0
   -0.6958   -0.9875    0.0000 C   0  0  0  0  0  0  0  0  0  0  0  0
   -4.0833    2.9000    0.0000 C   0  0  0  0  0  0  0  0  0  0  0  0
   -1.5500   -0.4792    0.0000 C   0  0  0  0  0  0  0  0  0  0  0  0
    4.4917   -4.0042    0.0000 C   0  0  0  0  0  0  0  0  0  0  0  0
   -3.9083    1.1833    0.0000 C   0  0  0  0  0  0  0  0  0  0  0  0
   -4.5000    1.9958    0.0000 C   0  0  0  0  0  0  0  0  0  0  0  0
  1  2  1  0
  1  3  1  0
  2  4  1  0
  1  5  2  0
  3  6  1  0
  5  7  1  0
  8 10  1  0
  3  9  2  0
 10 12  1  0
  8 11  1  0
  6 12  1  0
  2 13  1  0
 11 14  1  0
  9 15  1  0
 14 16  2  0
  8 17  2  0
 16 18  1  0
 14 19  1  0
 16 20  1  0
  6 21  1  0
  5 22  1  0
 23 24  1  0
 19 24  2  0
 25 27  1  0
  7 26  1  0
 21 27  1  0
 23 28  1  0
 22 29  1  0
 29 30  1  0
  4  7  2  0
 13 15  2  0
 26 30  1  0
 10 25  1  0
 18 23  2  0
M  END
>  <MOLFORMULA>  (395) 
C23 H26 F N5 O

>  <MOLWEIGHT>  (395) 
4.074904000000000e+002

>  <IDNUMBER>  (395) 
AT-687/PE21874

>  <PRICE>  (395) 
EUR 80/10 mg

>  <Similarity score>  (395) 
0.20

$$$$

     RDKit          2D

 30 34  0  0  0  0  0  0  0  0999 V2000
    8.0000   -4.1000    0.0000 N   0  0  0  0  0  0  0  0  0  0  0  0
    5.9500   -4.7667    0.0000 C   0  0  0  0  0  0  0  0  0  0  0  0
    6.7292   -3.7000    0.0000 N   0  0  0  0  0  0  0  0  0  0  0  0
    8.0167   -5.4292    0.0000 C   0  0  0  0  0  0  0  0  0  0  0  0
    6.7500   -5.8500    0.0000 C   0  0  0  0  0  0  0  0  0  0  0  0
    4.6292   -4.7750    0.0000 C   0  0  0  0  0  0  0  0  0  0  0  0
    9.1750   -3.4250    0.0000 C   0  0  0  0  0  0  0  0  0  0  0  0
   10.3250   -5.4292    0.0000 O   0  0  0  0  0  0  0  0  0  0  0  0
   10.3250   -4.1000    0.0000 C   0  0  0  0  0  0  0  0  0  0  0  0
   12.6250   -1.4542    0.0000 C   0  0  0  0  0  0  0  0  0  0  0  0
   11.4750   -3.4417    0.0000 C   0  0  0  0  0  0  0  0  0  0  0  0
    0.6500   -4.8167    0.0000 C   0  0  0  0  0  0  0  0  0  0  0  0
    3.9667   -5.9500    0.0000 N   0  0  0  0  0  0  0  0  0  0  0  0
    1.9750   -4.8250    0.0000 C   0  0  0  0  0  0  0  0  0  0  0  0
   11.4750   -2.1250    0.0000 C   0  0  0  0  0  0  0  0  0  0  0  0
    9.1750   -6.1000    0.0000 C   0  0  0  0  0  0  0  0  0  0  0  0
    0.0000   -3.6750    0.0000 C   0  0  0  0  0  0  0  0  0  0  0  0
   13.7750   -2.1042    0.0000 C   0  0  0  0  0  0  0  0  0  0  0  0
   12.9042   -0.1250    0.0000 O   0  0  0  0  0  0  0  0  0  0  0  0
   14.7750   -1.2250    0.0000 O   0  0  0  0  0  0  0  0  0  0  0  0
   14.2417   -0.0000    0.0000 C   0  0  0  0  0  0  0  0  0  0  0  0
    2.6417   -5.9500    0.0000 C   0  0  0  0  0  0  0  0  0  0  0  0
    3.9500   -3.6417    0.0000 O   0  0  0  0  0  0  0  0  0  0  0  0
   12.6167   -4.1000    0.0000 C   0  0  0  0  0  0  0  0  0  0  0  0
   13.7750   -3.4417    0.0000 C   0  0  0  0  0  0  0  0  0  0  0  0
    2.6417   -3.6750    0.0000 C   0  0  0  0  0  0  0  0  0  0  0  0
    0.6500   -2.5250    0.0000 C   0  0  0  0  0  0  0  0  0  0  0  0
    0.0000   -5.9667    0.0000 Cl  0  0  0  0  0  0  0  0  0  0  0  0
    1.9917   -2.5250    0.0000 C   0  0  0  0  0  0  0  0  0  0  0  0
    0.0000   -1.3667    0.0000 F   0  0  0  0  0  0  0  0  0  0  0  0
  2  3  2  0
  1  3  1  0
  1  4  1  0
  4  5  2  0
  2  6  1  0
  1  7  1  0
  8  9  1  0
  7  9  1  0
 10 15  1  0
  9 11  1  0
 12 14  2  0
  6 13  1  0
 14 22  1  0
 11 15  2  0
  4 16  1  0
 12 17  1  0
 18 25  1  0
 10 19  1  0
 18 20  1  0
 19 21  1  0
 13 22  1  0
  6 23  2  0
 11 24  1  0
 24 25  2  0
 14 26  1  0
 27 29  1  0
 12 28  1  0
 26 29  2  0
 27 30  1  0
  8 16  1  0
  2  5  1  0
 10 18  2  0
 20 21  1  0
 17 27  2  0
M  END
>  <MOLFORMULA>  (396) 
C21 H17 Cl F N3 O4

>  <MOLWEIGHT>  (396) 
4.298333000000000e+002

>  <IDNUMBER>  (396) 
AT-687/PE21327

>  <PRICE>  (396) 
EUR 80/10 mg

>  <Similarity score>  (396) 
0.20

$$$$

     RDKit          2D

 29 33  0  0  0  0  0  0  0  0999 V2000
    3.3292   -1.7042    0.0000 C   0  0  0  0  0  0  0  0  0  0  0  0
    4.0000   -2.1792    0.0000 N   0  0  0  0  0  0  0  0  0  0  0  0
    2.6250    2.8333    0.0000 C   0  0  0  0  0  0  0  0  0  0  0  0
    2.6542   -2.1792    0.0000 C   0  0  0  0  0  0  0  0  0  0  0  0
    2.9167   -2.9667    0.0000 C   0  0  0  0  0  0  0  0  0  0  0  0
    3.7417   -2.9667    0.0000 N   0  0  0  0  0  0  0  0  0  0  0  0
    1.9042    3.2500    0.0000 C   0  0  0  0  0  0  0  0  0  0  0  0
    3.3417    3.2458    0.0000 N   0  0  0  0  0  0  0  0  0  0  0  0
    3.3292   -0.8792    0.0000 C   0  0  0  0  0  0  0  0  0  0  0  0
    2.6167    2.0083    0.0000 N   0  0  0  0  0  0  0  0  0  0  0  0
    2.6292    4.4667    0.0000 N   0  0  0  0  0  0  0  0  0  0  0  0
    1.9167    4.0625    0.0000 C   0  0  0  0  0  0  0  0  0  0  0  0
    3.3417    4.0542    0.0000 C   0  0  0  0  0  0  0  0  0  0  0  0
    2.6167   -0.4667    0.0000 N   0  0  0  0  0  0  0  0  0  0  0  0
    2.5042   -3.6917    0.0000 O   0  0  0  0  0  0  0  0  0  0  0  0
    3.3417    1.5958    0.0000 C   0  0  0  0  0  0  0  0  0  0  0  0
    1.9042    1.5958    0.0000 C   0  0  0  0  0  0  0  0  0  0  0  0
    4.0417   -0.4667    0.0000 O   0  0  0  0  0  0  0  0  0  0  0  0
    2.6167    0.3583    0.0000 C   0  0  0  0  0  0  0  0  0  0  0  0
    1.9042    0.7708    0.0000 C   0  0  0  0  0  0  0  0  0  0  0  0
    3.3417    0.7708    0.0000 C   0  0  0  0  0  0  0  0  0  0  0  0
    4.1542   -3.6917    0.0000 C   0  0  0  0  0  0  0  0  0  0  0  0
    1.1917    2.8375    0.0000 C   0  0  0  0  0  0  0  0  0  0  0  0
    3.7542   -4.4000    0.0000 C   0  0  0  0  0  0  0  0  0  0  0  0
    1.2042    4.4667    0.0000 C   0  0  0  0  0  0  0  0  0  0  0  0
    2.9167   -4.4042    0.0000 C   0  0  0  0  0  0  0  0  0  0  0  0
    4.0625    4.4542    0.0000 C   0  0  0  0  0  0  0  0  0  0  0  0
    0.4792    3.2708    0.0000 C   0  0  0  0  0  0  0  0  0  0  0  0
    0.4917    4.0750    0.0000 C   0  0  0  0  0  0  0  0  0  0  0  0
  1  2  2  0
  3 10  1  0
  1  4  1  0
  4  5  2  0
  2  6  1  0
  3  7  1  0
  3  8  2  0
  1  9  1  0
 10 16  1  0
 11 13  2  0
  7 12  2  0
  8 13  1  0
  9 14  1  0
  5 15  1  0
 16 21  1  0
 17 20  1  0
  9 18  2  0
 14 19  1  0
 19 20  1  0
 19 21  1  0
  6 22  1  0
  7 23  1  0
 22 24  1  0
 12 25  1  0
 15 26  1  0
 13 27  1  0
 23 28  1  0
 28 29  1  0
  5  6  1  0
 24 26  1  0
 10 17  1  0
 11 12  1  0
 25 29  1  0
M  END
>  <MOLFORMULA>  (397) 
C21 H28 N6 O2

>  <MOLWEIGHT>  (397) 
3.964922000000000e+002

>  <IDNUMBER>  (397) 
AT-687/SK01675

>  <PRICE>  (397) 
EUR 80/10 mg

>  <Similarity score>  (397) 
0.20

$$$$

     RDKit          2D

 29 33  0  0  0  0  0  0  0  0999 V2000
    8.0000   -4.1000    0.0000 N   0  0  0  0  0  0  0  0  0  0  0  0
    5.9500   -4.7667    0.0000 C   0  0  0  0  0  0  0  0  0  0  0  0
    6.7250   -3.7000    0.0000 N   0  0  0  0  0  0  0  0  0  0  0  0
    8.0167   -5.4250    0.0000 C   0  0  0  0  0  0  0  0  0  0  0  0
    6.7500   -5.8500    0.0000 C   0  0  0  0  0  0  0  0  0  0  0  0
    4.6292   -4.7750    0.0000 C   0  0  0  0  0  0  0  0  0  0  0  0
    9.1667   -3.4250    0.0000 C   0  0  0  0  0  0  0  0  0  0  0  0
   10.3250   -5.4250    0.0000 O   0  0  0  0  0  0  0  0  0  0  0  0
   10.3250   -4.1000    0.0000 C   0  0  0  0  0  0  0  0  0  0  0  0
   12.6250   -1.4542    0.0000 C   0  0  0  0  0  0  0  0  0  0  0  0
   11.4750   -3.4417    0.0000 C   0  0  0  0  0  0  0  0  0  0  0  0
    3.9667   -5.9500    0.0000 N   0  0  0  0  0  0  0  0  0  0  0  0
   11.4750   -2.1250    0.0000 C   0  0  0  0  0  0  0  0  0  0  0  0
    9.1667   -6.1000    0.0000 C   0  0  0  0  0  0  0  0  0  0  0  0
   13.7750   -2.1042    0.0000 C   0  0  0  0  0  0  0  0  0  0  0  0
   12.9000   -0.1250    0.0000 O   0  0  0  0  0  0  0  0  0  0  0  0
   14.7667   -1.2250    0.0000 O   0  0  0  0  0  0  0  0  0  0  0  0
   14.2417   -0.0000    0.0000 C   0  0  0  0  0  0  0  0  0  0  0  0
    3.9500   -3.6417    0.0000 O   0  0  0  0  0  0  0  0  0  0  0  0
   12.6167   -4.1000    0.0000 C   0  0  0  0  0  0  0  0  0  0  0  0
   13.7750   -3.4417    0.0000 C   0  0  0  0  0  0  0  0  0  0  0  0
    2.6417   -5.9500    0.0000 C   0  0  0  0  0  0  0  0  0  0  0  0
    0.6500   -2.5250    0.0000 C   0  0  0  0  0  0  0  0  0  0  0  0
    1.9750   -4.8250    0.0000 C   0  0  0  0  0  0  0  0  0  0  0  0
    0.0000   -1.3667    0.0000 F   0  0  0  0  0  0  0  0  0  0  0  0
    1.9917   -2.5250    0.0000 C   0  0  0  0  0  0  0  0  0  0  0  0
    0.0000   -3.6750    0.0000 C   0  0  0  0  0  0  0  0  0  0  0  0
    2.6417   -3.6750    0.0000 C   0  0  0  0  0  0  0  0  0  0  0  0
    0.6500   -4.8042    0.0000 C   0  0  0  0  0  0  0  0  0  0  0  0
  2  3  2  0
  1  3  1  0
  1  4  1  0
  4  5  2  0
  2  6  1  0
  1  7  1  0
  8  9  1  0
  7  9  1  0
 10 13  1  0
  9 11  1  0
  6 12  1  0
 11 13  2  0
  4 14  1  0
 15 21  1  0
 10 16  1  0
 15 17  1  0
 16 18  1  0
  6 19  2  0
 11 20  1  0
 20 21  2  0
 12 22  1  0
 23 27  2  0
 22 24  1  0
 23 25  1  0
 26 28  2  0
 27 29  1  0
 24 28  1  0
 24 29  2  0
  8 14  1  0
  2  5  1  0
 10 15  2  0
 17 18  1  0
 23 26  1  0
M  END
>  <MOLFORMULA>  (398) 
C21 H18 F N3 O4

>  <MOLWEIGHT>  (398) 
3.953882000000000e+002

>  <IDNUMBER>  (398) 
AT-687/PE21323

>  <PRICE>  (398) 
EUR 80/10 mg

>  <Similarity score>  (398) 
0.20

$$$$

     RDKit          2D

 27 31  0  0  0  0  0  0  0  0999 V2000
    5.9667   -4.7667    0.0000 C   0  0  0  0  0  0  0  0  0  0  0  0
    8.0250   -4.0917    0.0000 N   0  0  0  0  0  0  0  0  0  0  0  0
    6.7500   -3.6917    0.0000 N   0  0  0  0  0  0  0  0  0  0  0  0
    8.0250   -5.4167    0.0000 C   0  0  0  0  0  0  0  0  0  0  0  0
    6.7667   -5.8500    0.0000 C   0  0  0  0  0  0  0  0  0  0  0  0
    4.6292   -4.7792    0.0000 C   0  0  0  0  0  0  0  0  0  0  0  0
    9.1750   -3.4250    0.0000 C   0  0  0  0  0  0  0  0  0  0  0  0
   10.3250   -5.4167    0.0000 O   0  0  0  0  0  0  0  0  0  0  0  0
   10.3250   -4.0917    0.0000 C   0  0  0  0  0  0  0  0  0  0  0  0
    3.9750   -3.6250    0.0000 N   0  0  0  0  0  0  0  0  0  0  0  0
   12.6292   -1.4417    0.0000 C   0  0  0  0  0  0  0  0  0  0  0  0
   11.4750   -3.4417    0.0000 C   0  0  0  0  0  0  0  0  0  0  0  0
   11.4750   -2.1042    0.0000 C   0  0  0  0  0  0  0  0  0  0  0  0
    9.1750   -6.0792    0.0000 C   0  0  0  0  0  0  0  0  0  0  0  0
   13.7792   -2.0917    0.0000 C   0  0  0  0  0  0  0  0  0  0  0  0
   12.9167   -0.1417    0.0000 O   0  0  0  0  0  0  0  0  0  0  0  0
   14.7750   -1.2250    0.0000 O   0  0  0  0  0  0  0  0  0  0  0  0
   14.2417   -0.0000    0.0000 C   0  0  0  0  0  0  0  0  0  0  0  0
    3.9792   -5.9417    0.0000 O   0  0  0  0  0  0  0  0  0  0  0  0
   12.6292   -4.1000    0.0000 C   0  0  0  0  0  0  0  0  0  0  0  0
   13.7792   -3.4417    0.0000 C   0  0  0  0  0  0  0  0  0  0  0  0
    2.6417   -3.6500    0.0000 C   0  0  0  0  0  0  0  0  0  0  0  0
    1.9917   -4.8000    0.0000 C   0  0  0  0  0  0  0  0  0  0  0  0
    1.9750   -2.4917    0.0000 C   0  0  0  0  0  0  0  0  0  0  0  0
    0.6500   -2.5250    0.0000 C   0  0  0  0  0  0  0  0  0  0  0  0
    0.6750   -4.8167    0.0000 C   0  0  0  0  0  0  0  0  0  0  0  0
    0.0000   -3.6542    0.0000 C   0  0  0  0  0  0  0  0  0  0  0  0
  2  3  1  0
  1  3  2  0
  4  5  2  0
  1  5  1  0
  1  6  1  0
  2  7  1  0
  8 14  1  0
  7  9  1  0
  6 10  1  0
 11 13  1  0
  9 12  1  0
 12 13  2  0
  4 14  1  0
 15 21  1  0
 11 16  1  0
 15 17  1  0
 16 18  1  0
  6 19  2  0
 12 20  1  0
 20 21  2  0
 10 22  1  0
 22 23  1  0
 22 24  2  0
 24 25  1  0
 23 26  2  0
 25 27  2  0
  2  4  1  0
  8  9  1  0
 26 27  1  0
 11 15  2  0
 17 18  1  0
M  END
>  <MOLFORMULA>  (399) 
C20 H17 N3 O4

>  <MOLWEIGHT>  (399) 
3.633713000000000e+002

>  <IDNUMBER>  (399) 
AT-687/PE21231

>  <PRICE>  (399) 
EUR 80/10 mg

>  <Similarity score>  (399) 
0.20

$$$$

     RDKit          2D

 29 32  0  0  0  0  0  0  0  0999 V2000
    6.1000   -5.1292    0.0000 C   0  0  0  0  0  0  0  0  0  0  0  0
    4.6500   -6.7417    0.0000 N   0  0  0  0  0  0  0  0  0  0  0  0
    5.9500   -6.4667    0.0000 N   0  0  0  0  0  0  0  0  0  0  0  0
    3.9792   -5.5792    0.0000 C   0  0  0  0  0  0  0  0  0  0  0  0
    4.8750   -4.6000    0.0000 C   0  0  0  0  0  0  0  0  0  0  0  0
    7.2500   -4.4750    0.0000 C   0  0  0  0  0  0  0  0  0  0  0  0
   10.7000   -1.1500    0.0000 C   0  0  0  0  0  0  0  0  0  0  0  0
    3.9792   -7.8917    0.0000 C   0  0  0  0  0  0  0  0  0  0  0  0
    2.0000   -6.7417    0.0000 O   0  0  0  0  0  0  0  0  0  0  0  0
    8.4000   -5.1292    0.0000 N   0  0  0  0  0  0  0  0  0  0  0  0
    2.6542   -7.8917    0.0000 C   0  0  0  0  0  0  0  0  0  0  0  0
   10.7000   -2.4792    0.0000 C   0  0  0  0  0  0  0  0  0  0  0  0
    2.6542   -5.5792    0.0000 C   0  0  0  0  0  0  0  0  0  0  0  0
    2.0000   -9.0500    0.0000 C   0  0  0  0  0  0  0  0  0  0  0  0
    7.2500   -3.1500    0.0000 O   0  0  0  0  0  0  0  0  0  0  0  0
    9.5500   -4.4750    0.0000 C   0  0  0  0  0  0  0  0  0  0  0  0
    9.5500   -3.1500    0.0000 C   0  0  0  0  0  0  0  0  0  0  0  0
   11.3667   -0.0000    0.0000 F   0  0  0  0  0  0  0  0  0  0  0  0
   12.0417   -1.1500    0.0000 F   0  0  0  0  0  0  0  0  0  0  0  0
    9.5500   -0.4792    0.0000 F   0  0  0  0  0  0  0  0  0  0  0  0
    2.6542  -10.2000    0.0000 C   0  0  0  0  0  0  0  0  0  0  0  0
    0.6542   -9.0500    0.0000 C   0  0  0  0  0  0  0  0  0  0  0  0
    0.6542  -11.3500    0.0000 C   0  0  0  0  0  0  0  0  0  0  0  0
    0.0000  -10.2000    0.0000 C   0  0  0  0  0  0  0  0  0  0  0  0
    2.0000  -11.3500    0.0000 C   0  0  0  0  0  0  0  0  0  0  0  0
    0.0000  -12.5000    0.0000 F   0  0  0  0  0  0  0  0  0  0  0  0
   11.8500   -3.1500    0.0000 C   0  0  0  0  0  0  0  0  0  0  0  0
   11.8500   -4.4750    0.0000 C   0  0  0  0  0  0  0  0  0  0  0  0
   10.7000   -5.1292    0.0000 C   0  0  0  0  0  0  0  0  0  0  0  0
  2  3  1  0
  1  3  2  0
  4  5  2  0
  1  5  1  0
  1  6  1  0
  7 12  1  0
  2  8  1  0
  9 13  1  0
  6 10  1  0
  8 11  1  0
 12 17  1  0
  4 13  1  0
 11 14  1  0
  6 15  2  0
 10 16  1  0
 16 17  2  0
  7 18  1  0
  7 19  1  0
  7 20  1  0
 14 21  2  0
 14 22  1  0
 23 24  1  0
 22 24  2  0
 21 25  1  0
 23 26  1  0
 27 28  1  0
 28 29  2  0
 16 29  1  0
  2  4  1  0
  9 11  1  0
 12 27  2  0
 23 25  2  0
M  END
>  <MOLFORMULA>  (400) 
C20 H15 F4 N3 O2

>  <MOLWEIGHT>  (400) 
4.053495000000000e+002

>  <IDNUMBER>  (400) 
AT-687/PE26853

>  <PRICE>  (400) 
EUR 80/10 mg

>  <Similarity score>  (400) 
0.20

$$$$

     RDKit          2D

 18 20  0  0  0  0  0  0  0  0999 V2000
    5.9000    3.7833    0.0000 N   0  0  0  0  0  0  0  0  0  0  0  0
    4.8250    2.7500    0.0000 C   0  0  0  0  0  0  0  0  0  0  0  0
    7.2250    3.0833    0.0000 C   0  0  0  0  0  0  0  0  0  0  0  0
    6.9667    1.6083    0.0000 N   0  0  0  0  0  0  0  0  0  0  0  0
    5.4750    1.4000    0.0000 O   0  0  0  0  0  0  0  0  0  0  0  0
    3.3417    3.0000    0.0000 C   0  0  0  0  0  0  0  0  0  0  0  0
    8.5750    3.7375    0.0000 C   0  0  0  0  0  0  0  0  0  0  0  0
    0.7500    3.0000    0.0000 N   0  0  0  0  0  0  0  0  0  0  0  0
    2.0417    3.7500    0.0000 C   0  0  0  0  0  0  0  0  0  0  0  0
    3.8500    4.4000    0.0000 C   0  0  0  0  0  0  0  0  0  0  0  0
    3.3417    1.5000    0.0000 C   0  0  0  0  0  0  0  0  0  0  0  0
    0.7500    1.5000    0.0000 C   0  0  0  0  0  0  0  0  0  0  0  0
    9.8167    2.9000    0.0000 C   0  0  0  0  0  0  0  0  0  0  0  0
    8.6750    5.2167    0.0000 C   0  0  0  0  0  0  0  0  0  0  0  0
    2.0417    0.7500    0.0000 C   0  0  0  0  0  0  0  0  0  0  0  0
   11.1667    3.5583    0.0000 C   0  0  0  0  0  0  0  0  0  0  0  0
   10.0167    5.8792    0.0000 C   0  0  0  0  0  0  0  0  0  0  0  0
   11.2667    5.0417    0.0000 C   0  0  0  0  0  0  0  0  0  0  0  0
  1  2  2  0
  1  3  1  0
  3  4  2  0
  2  5  1  0
  2  6  1  0
  3  7  1  0
  8  9  1  0
  6  9  1  0
  6 10  1  0
  6 11  1  0
 12 15  1  0
  7 13  2  0
  7 14  1  0
 11 15  1  0
 13 16  1  0
 14 17  2  0
 17 18  1  0
  4  5  1  0
 16 18  2  0
  8 12  1  0
M  END
>  <MOLFORMULA>  (401) 
C14 H17 N3 O

>  <MOLWEIGHT>  (401) 
2.433083000000000e+002

>  <IDNUMBER>  (401) 
AT-687/PE31689

>  <SALTDATA>  (401) 
HCl

>  <PRICE>  (401) 
EUR 80/10 mg

>  <Similarity score>  (401) 
0.22

$$$$

     RDKit          2D

 18 20  0  0  0  0  0  0  0  0999 V2000
    3.8667   -4.3167    0.0000 N   0  0  0  0  0  0  0  0  0  0  0  0
    2.6167   -4.8167    0.0000 C   0  0  0  0  0  0  0  0  0  0  0  0
    3.7875   -2.9917    0.0000 C   0  0  0  0  0  0  0  0  0  0  0  0
    2.4917   -2.6542    0.0000 N   0  0  0  0  0  0  0  0  0  0  0  0
    1.7792   -3.7792    0.0000 O   0  0  0  0  0  0  0  0  0  0  0  0
    2.2792   -6.1042    0.0000 C   0  0  0  0  0  0  0  0  0  0  0  0
    4.8167   -2.1542    0.0000 C   0  0  0  0  0  0  0  0  0  0  0  0
    1.1292   -8.0917    0.0000 N   0  0  0  0  0  0  0  0  0  0  0  0
    2.2792   -7.4292    0.0000 C   0  0  0  0  0  0  0  0  0  0  0  0
    3.5667   -6.4417    0.0000 C   0  0  0  0  0  0  0  0  0  0  0  0
    1.1292   -5.4417    0.0000 C   0  0  0  0  0  0  0  0  0  0  0  0
    0.0000   -7.4292    0.0000 C   0  0  0  0  0  0  0  0  0  0  0  0
    6.0625   -2.6125    0.0000 C   0  0  0  0  0  0  0  0  0  0  0  0
    4.6000   -0.8417    0.0000 C   0  0  0  0  0  0  0  0  0  0  0  0
    0.0000   -6.1042    0.0000 C   0  0  0  0  0  0  0  0  0  0  0  0
    5.6167   -0.0000    0.0000 C   0  0  0  0  0  0  0  0  0  0  0  0
    7.0917   -1.7875    0.0000 C   0  0  0  0  0  0  0  0  0  0  0  0
    6.8750   -0.4542    0.0000 C   0  0  0  0  0  0  0  0  0  0  0  0
  1  2  2  0
  1  3  1  0
  3  4  2  0
  2  5  1  0
  2  6  1  0
  3  7  1  0
  8  9  1  0
  6  9  1  0
  6 10  1  0
  6 11  1  0
 12 15  1  0
  7 13  2  0
  7 14  1  0
 11 15  1  0
 14 16  2  0
 13 17  1  0
 16 18  1  0
  4  5  1  0
 17 18  2  0
  8 12  1  0
M  END
>  <MOLFORMULA>  (402) 
C14 H17 N3 O

>  <MOLWEIGHT>  (402) 
2.433083000000000e+002

>  <IDNUMBER>  (402) 
AT-687/NB08502

>  <PRICE>  (402) 
EUR 80/10 mg

>  <Similarity score>  (402) 
0.22

$$$$

     RDKit          2D

 18 20  0  0  0  0  0  0  0  0999 V2000
    6.2583   -5.1167    0.0000 N   0  0  0  0  0  0  0  0  0  0  0  0
    5.0167   -5.6083    0.0000 C   0  0  0  0  0  0  0  0  0  0  0  0
    6.1833   -3.7958    0.0000 C   0  0  0  0  0  0  0  0  0  0  0  0
    4.8917   -3.4500    0.0000 N   0  0  0  0  0  0  0  0  0  0  0  0
    4.1667   -4.5750    0.0000 O   0  0  0  0  0  0  0  0  0  0  0  0
    4.6708   -6.9000    0.0000 C   0  0  0  0  0  0  0  0  0  0  0  0
    7.2042   -2.9500    0.0000 C   0  0  0  0  0  0  0  0  0  0  0  0
    3.5208   -8.8958    0.0000 N   0  0  0  0  0  0  0  0  0  0  0  0
    4.6708   -8.2250    0.0000 C   0  0  0  0  0  0  0  0  0  0  0  0
    5.9583   -7.2458    0.0000 C   0  0  0  0  0  0  0  0  0  0  0  0
    3.5208   -6.2375    0.0000 C   0  0  0  0  0  0  0  0  0  0  0  0
    2.3917   -8.2250    0.0000 C   0  0  0  0  0  0  0  0  0  0  0  0
    6.9958   -1.6458    0.0000 C   0  0  0  0  0  0  0  0  0  0  0  0
    8.4583   -3.4125    0.0000 C   0  0  0  0  0  0  0  0  0  0  0  0
    2.3917   -6.9000    0.0000 C   0  0  0  0  0  0  0  0  0  0  0  0
    9.4833   -2.5750    0.0000 C   0  0  0  0  0  0  0  0  0  0  0  0
    8.0167   -0.7958    0.0000 C   0  0  0  0  0  0  0  0  0  0  0  0
    9.2708   -1.2625    0.0000 C   0  0  0  0  0  0  0  0  0  0  0  0
  1  2  2  0
  1  3  1  0
  3  4  2  0
  2  5  1  0
  2  6  1  0
  3  7  1  0
  8  9  1  0
  6  9  1  0
  6 10  1  0
  6 11  1  0
 12 15  1  0
  7 13  1  0
  7 14  2  0
 11 15  1  0
 14 16  1  0
 13 17  2  0
 17 18  1  0
  4  5  1  0
 16 18  2  0
  8 12  1  0
M  END
>  <MOLFORMULA>  (403) 
C14 H17 N3 O

>  <MOLWEIGHT>  (403) 
2.433083000000000e+002

>  <IDNUMBER>  (403) 
AT-687/NB00035

>  <SALTDATA>  (403) 
HCl

>  <PRICE>  (403) 
EUR 80/10 mg

>  <Similarity score>  (403) 
0.22

$$$$

     RDKit          2D

 11 12  0  0  0  0  0  0  0  0999 V2000
    3.4875   -2.1542    0.0000 C   0  0  0  0  0  0  0  0  0  0  0  0
    3.8917   -3.4250    0.0000 C   0  0  0  0  0  0  0  0  0  0  0  0
    2.1542   -2.1542    0.0000 C   0  0  0  0  0  0  0  0  0  0  0  0
    2.8292   -4.2042    0.0000 S   0  0  0  0  0  0  0  0  0  0  0  0
    1.7542   -3.4250    0.0000 C   0  0  0  0  0  0  0  0  0  0  0  0
    4.2667   -1.0792    0.0000 C   0  0  0  0  0  0  0  0  0  0  0  0
    5.0542   -0.0000    0.0000 N   0  0  0  0  0  0  0  0  0  0  0  0
    5.1542   -3.8292    0.0000 N   0  0  0  0  0  0  0  0  0  0  0  0
    1.0792   -1.3792    0.0000 C   0  0  0  0  0  0  0  0  0  0  0  0
    0.4167   -3.4250    0.0000 C   0  0  0  0  0  0  0  0  0  0  0  0
    0.0000   -2.1750    0.0000 C   0  0  0  0  0  0  0  0  0  0  0  0
  1  2  2  0
  1  3  1  0
  2  4  1  0
  3  5  2  0
  1  6  1  0
  6  7  3  0
  2  8  1  0
  3  9  1  0
  5 10  1  0
  9 11  1  0
  4  5  1  0
 10 11  1  0
M  END
>  <MOLFORMULA>  (404) 
C8 H8 N2 S

>  <MOLWEIGHT>  (404) 
1.642312000000000e+002

>  <IDNUMBER>  (404) 
AT-687/NB01828

>  <PRICE>  (404) 
EUR 80/10 mg

>  <Similarity score>  (404) 
0.21

$$$$

     RDKit          2D

 11 12  0  0  0  0  0  0  0  0999 V2000
   -0.5542   -0.3542    0.0000 C   0  0  0  0  0  0  0  0  0  0  0  0
   -0.9625    0.5583    0.0000 C   0  0  0  0  0  0  0  0  0  0  0  0
    0.4417   -0.2500    0.0000 C   0  0  0  0  0  0  0  0  0  0  0  0
   -0.2167    1.2250    0.0000 S   0  0  0  0  0  0  0  0  0  0  0  0
    0.6500    0.7250    0.0000 C   0  0  0  0  0  0  0  0  0  0  0  0
   -1.0542   -1.2208    0.0000 C   0  0  0  0  0  0  0  0  0  0  0  0
   -2.0542   -1.2208    0.0000 N   0  0  0  0  0  0  0  0  0  0  0  0
   -1.9375    0.7667    0.0000 N   0  0  0  0  0  0  0  0  0  0  0  0
    1.3083   -0.7500    0.0000 C   0  0  0  0  0  0  0  0  0  0  0  0
    1.6417    0.8292    0.0000 C   0  0  0  0  0  0  0  0  0  0  0  0
    2.0500   -0.0833    0.0000 C   0  0  0  0  0  0  0  0  0  0  0  0
  1  2  2  0
  1  3  1  0
  2  4  1  0
  3  5  2  0
  1  6  1  0
  6  7  3  0
  2  8  1  0
  3  9  1  0
  5 10  1  0
  9 11  1  0
  4  5  1  0
 10 11  1  0
M  END
>  <MOLFORMULA>  (405) 
C8 H8 N2 S

>  <MOLWEIGHT>  (405) 
1.642312000000000e+002

>  <IDNUMBER>  (405) 
AN-153/I105018

>  <PRICE>  (405) 
EUR 130/10 mg

>  <Similarity score>  (405) 
0.21

$$$$

     RDKit          2D

 11 12  0  0  0  0  0  0  0  0999 V2000
    3.0667   -2.4667    0.0000 C   0  0  0  0  0  0  0  0  0  0  0  0
    2.4167   -3.6417    0.0000 C   0  0  0  0  0  0  0  0  0  0  0  0
    2.1542   -1.5125    0.0000 C   0  0  0  0  0  0  0  0  0  0  0  0
    1.1250   -3.4167    0.0000 S   0  0  0  0  0  0  0  0  0  0  0  0
    0.9375   -2.1042    0.0000 C   0  0  0  0  0  0  0  0  0  0  0  0
    4.3875   -2.2792    0.0000 C   0  0  0  0  0  0  0  0  0  0  0  0
    5.7000   -2.1000    0.0000 N   0  0  0  0  0  0  0  0  0  0  0  0
    3.0125   -4.8417    0.0000 N   0  0  0  0  0  0  0  0  0  0  0  0
    1.9417   -0.2042    0.0000 C   0  0  0  0  0  0  0  0  0  0  0  0
    0.0000   -1.1542    0.0000 C   0  0  0  0  0  0  0  0  0  0  0  0
    0.6167   -0.0000    0.0000 C   0  0  0  0  0  0  0  0  0  0  0  0
  1  2  2  0
  1  3  1  0
  2  4  1  0
  3  5  2  0
  1  6  1  0
  6  7  3  0
  2  8  1  0
  3  9  1  0
  5 10  1  0
  9 11  1  0
  4  5  1  0
 10 11  1  0
M  END
>  <MOLFORMULA>  (406) 
C8 H8 N2 S

>  <MOLWEIGHT>  (406) 
1.642312000000000e+002

>  <IDNUMBER>  (406) 
AT-084/J157520

>  <PRICE>  (406) 
EUR 37.00/10 mg

>  <Similarity score>  (406) 
0.21

$$$$

     RDKit          2D

 11 12  0  0  0  0  0  0  0  0999 V2000
    5.9500   -3.8167    0.0000 C   0  0  0  0  0  0  0  0  0  0  0  0
    6.2000   -4.6000    0.0000 C   0  0  0  0  0  0  0  0  0  0  0  0
    5.1250   -3.8167    0.0000 C   0  0  0  0  0  0  0  0  0  0  0  0
    5.5500   -5.0792    0.0000 S   0  0  0  0  0  0  0  0  0  0  0  0
    4.8750   -4.6000    0.0000 C   0  0  0  0  0  0  0  0  0  0  0  0
    6.4417   -3.1500    0.0000 C   0  0  0  0  0  0  0  0  0  0  0  0
    6.9250   -2.4750    0.0000 N   0  0  0  0  0  0  0  0  0  0  0  0
    6.9917   -4.8500    0.0000 N   0  0  0  0  0  0  0  0  0  0  0  0
    4.4542   -3.3292    0.0000 C   0  0  0  0  0  0  0  0  0  0  0  0
    4.0500   -4.6000    0.0000 C   0  0  0  0  0  0  0  0  0  0  0  0
    3.7917   -3.8250    0.0000 C   0  0  0  0  0  0  0  0  0  0  0  0
  1  2  2  0
  1  3  1  0
  2  4  1  0
  3  5  2  0
  1  6  1  0
  6  7  3  0
  2  8  1  0
  3  9  1  0
  5 10  1  0
  9 11  1  0
  4  5  1  0
 10 11  1  0
M  END
>  <MOLFORMULA>  (407) 
C8 H8 N2 S

>  <MOLWEIGHT>  (407) 
1.642312000000000e+002

>  <IDNUMBER>  (407) 
AT-687/PE32837

>  <PRICE>  (407) 
EUR 80/10 mg

>  <Similarity score>  (407) 
0.21

$$$$

     RDKit          2D

 11 12  0  0  0  0  0  0  0  0999 V2000
    0.1000    1.0958    0.0000 C   0  0  0  0  0  0  0  0  0  0  0  0
    0.3167    0.4125    0.0000 C   0  0  0  0  0  0  0  0  0  0  0  0
   -0.6208    1.0958    0.0000 C   0  0  0  0  0  0  0  0  0  0  0  0
   -0.2625   -0.0042    0.0000 S   0  0  0  0  0  0  0  0  0  0  0  0
   -0.8458    0.4125    0.0000 C   0  0  0  0  0  0  0  0  0  0  0  0
    0.5167    1.6958    0.0000 C   0  0  0  0  0  0  0  0  0  0  0  0
    0.9375    2.2708    0.0000 N   0  0  0  0  0  0  0  0  0  0  0  0
    1.0167    0.1958    0.0000 N   0  0  0  0  0  0  0  0  0  0  0  0
   -1.2000    1.4958    0.0000 C   0  0  0  0  0  0  0  0  0  0  0  0
   -1.5458    0.3958    0.0000 C   0  0  0  0  0  0  0  0  0  0  0  0
   -1.7625    1.0500    0.0000 C   0  0  0  0  0  0  0  0  0  0  0  0
  1  2  2  0
  1  3  1  0
  2  4  1  0
  3  5  2  0
  1  6  1  0
  6  7  3  0
  2  8  1  0
  3  9  1  0
  5 10  1  0
  9 11  1  0
  4  5  1  0
 10 11  1  0
M  END
>  <MOLFORMULA>  (408) 
C8 H8 N2 S

>  <MOLWEIGHT>  (408) 
1.642312000000000e+002

>  <IDNUMBER>  (408) 
AT-225/JK21174

>  <PRICE>  (408) 
EUR 140/10 mg

>  <Similarity score>  (408) 
0.21

$$$$

     RDKit          2D

 12 13  0  0  0  0  0  0  0  0999 V2000
    2.7917   -1.2292    0.0000 C   0  0  0  0  0  0  0  0  0  0  0  0
    3.2750   -1.8917    0.0000 C   0  0  0  0  0  0  0  0  0  0  0  0
    2.0000   -1.4917    0.0000 C   0  0  0  0  0  0  0  0  0  0  0  0
    2.8000   -2.5667    0.0000 S   0  0  0  0  0  0  0  0  0  0  0  0
    2.0167   -2.3167    0.0000 C   0  0  0  0  0  0  0  0  0  0  0  0
    3.0417   -0.4500    0.0000 C   0  0  0  0  0  0  0  0  0  0  0  0
    3.2500    0.3500    0.0000 N   0  0  0  0  0  0  0  0  0  0  0  0
    4.1000   -1.8917    0.0000 N   0  0  0  0  0  0  0  0  0  0  0  0
    1.3000   -1.0750    0.0000 C   0  0  0  0  0  0  0  0  0  0  0  0
    1.3000   -2.7250    0.0000 C   0  0  0  0  0  0  0  0  0  0  0  0
    0.5917   -1.4917    0.0000 C   0  0  0  0  0  0  0  0  0  0  0  0
    0.5917   -2.3167    0.0000 C   0  0  0  0  0  0  0  0  0  0  0  0
  1  2  2  0
  1  3  1  0
  2  4  1  0
  3  5  2  0
  1  6  1  0
  6  7  3  0
  2  8  1  0
  3  9  1  0
  5 10  1  0
  9 11  1  0
 11 12  1  0
  4  5  1  0
 10 12  1  0
M  END
>  <MOLFORMULA>  (409) 
C9 H10 N2 S

>  <MOLWEIGHT>  (409) 
1.782580000000000e+002

>  <IDNUMBER>  (409) 
AT-687/PE31884

>  <PRICE>  (409) 
EUR 80/10 mg

>  <Similarity score>  (409) 
0.21

$$$$

     RDKit          2D

 12 13  0  0  0  0  0  0  0  0999 V2000
    6.2292   -7.9292    0.0000 C   0  0  0  0  0  0  0  0  0  0  0  0
    6.4875   -8.7167    0.0000 C   0  0  0  0  0  0  0  0  0  0  0  0
    5.4042   -7.9292    0.0000 C   0  0  0  0  0  0  0  0  0  0  0  0
    5.8167   -9.2000    0.0000 S   0  0  0  0  0  0  0  0  0  0  0  0
    5.1500   -8.7167    0.0000 C   0  0  0  0  0  0  0  0  0  0  0  0
    6.7167   -7.2625    0.0000 C   0  0  0  0  0  0  0  0  0  0  0  0
    7.2000   -6.5917    0.0000 N   0  0  0  0  0  0  0  0  0  0  0  0
    7.2667   -8.9750    0.0000 N   0  0  0  0  0  0  0  0  0  0  0  0
    4.8542   -7.3167    0.0000 C   0  0  0  0  0  0  0  0  0  0  0  0
    4.3417   -8.8917    0.0000 C   0  0  0  0  0  0  0  0  0  0  0  0
    4.0417   -7.4875    0.0000 C   0  0  0  0  0  0  0  0  0  0  0  0
    3.7875   -8.2750    0.0000 C   0  0  0  0  0  0  0  0  0  0  0  0
  1  2  2  0
  1  3  1  0
  2  4  1  0
  3  5  2  0
  1  6  1  0
  6  7  3  0
  2  8  1  0
  3  9  1  0
  5 10  1  0
  9 11  1  0
 11 12  1  0
  4  5  1  0
 10 12  1  0
M  END
>  <MOLFORMULA>  (410) 
C9 H10 N2 S

>  <MOLWEIGHT>  (410) 
1.782580000000000e+002

>  <IDNUMBER>  (410) 
AP-853/J242318

>  <Similarity score>  (410) 
0.21

$$$$

     RDKit          2D

 12 13  0  0  0  0  0  0  0  0999 V2000
   -0.7000   -0.3542    0.0000 C   0  0  0  0  0  0  0  0  0  0  0  0
   -1.1083    0.5583    0.0000 C   0  0  0  0  0  0  0  0  0  0  0  0
    0.2958   -0.2500    0.0000 C   0  0  0  0  0  0  0  0  0  0  0  0
   -0.3625    1.2250    0.0000 S   0  0  0  0  0  0  0  0  0  0  0  0
    0.5042    0.7250    0.0000 C   0  0  0  0  0  0  0  0  0  0  0  0
   -1.2000   -1.2208    0.0000 C   0  0  0  0  0  0  0  0  0  0  0  0
   -2.2000   -1.2208    0.0000 N   0  0  0  0  0  0  0  0  0  0  0  0
   -2.0833    0.7667    0.0000 N   0  0  0  0  0  0  0  0  0  0  0  0
    1.0375   -0.9208    0.0000 C   0  0  0  0  0  0  0  0  0  0  0  0
    1.4542    1.0375    0.0000 C   0  0  0  0  0  0  0  0  0  0  0  0
    1.9875   -0.6125    0.0000 C   0  0  0  0  0  0  0  0  0  0  0  0
    2.1958    0.3667    0.0000 C   0  0  0  0  0  0  0  0  0  0  0  0
  1  2  2  0
  1  3  1  0
  2  4  1  0
  3  5  2  0
  1  6  1  0
  6  7  3  0
  2  8  1  0
  3  9  1  0
  5 10  1  0
  9 11  1  0
 11 12  1  0
  4  5  1  0
 10 12  1  0
M  END
>  <MOLFORMULA>  (411) 
C9 H10 N2 S

>  <MOLWEIGHT>  (411) 
1.782580000000000e+002

>  <IDNUMBER>  (411) 
AN-153/I100232

>  <PRICE>  (411) 
EUR 130/10 mg

>  <Similarity score>  (411) 
0.21

$$$$

     RDKit          2D

 12 13  0  0  0  0  0  0  0  0999 V2000
    4.0542   -2.1250    0.0000 C   0  0  0  0  0  0  0  0  0  0  0  0
    4.0542   -2.8750    0.0000 C   0  0  0  0  0  0  0  0  0  0  0  0
    2.7542   -2.1250    0.0000 C   0  0  0  0  0  0  0  0  0  0  0  0
    3.4042   -3.2500    0.0000 S   0  0  0  0  0  0  0  0  0  0  0  0
    2.7542   -2.8750    0.0000 C   0  0  0  0  0  0  0  0  0  0  0  0
    4.5875   -1.5917    0.0000 C   0  0  0  0  0  0  0  0  0  0  0  0
    5.1167   -1.0625    0.0000 N   0  0  0  0  0  0  0  0  0  0  0  0
    4.7042   -3.2500    0.0000 N   0  0  0  0  0  0  0  0  0  0  0  0
    2.1042   -1.7500    0.0000 C   0  0  0  0  0  0  0  0  0  0  0  0
    2.1042   -3.2500    0.0000 C   0  0  0  0  0  0  0  0  0  0  0  0
    1.4625   -2.1250    0.0000 C   0  0  0  0  0  0  0  0  0  0  0  0
    1.4625   -2.8750    0.0000 C   0  0  0  0  0  0  0  0  0  0  0  0
  1  2  2  0
  1  3  1  0
  2  4  1  0
  3  5  2  0
  1  6  1  0
  6  7  3  0
  2  8  1  0
  3  9  1  0
  5 10  1  0
  9 11  1  0
 11 12  1  0
  4  5  1  0
 10 12  1  0
M  END
>  <MOLFORMULA>  (412) 
C9 H10 N2 S

>  <MOLWEIGHT>  (412) 
1.782580000000000e+002

>  <IDNUMBER>  (412) 
AT-819/OC00072

>  <PRICE>  (412) 
EUR 128/10 mg

>  <Similarity score>  (412) 
0.21

$$$$

     RDKit          2D

 12 13  0  0  0  0  0  0  0  0999 V2000
    3.5667   -2.5167    0.0000 C   0  0  0  0  0  0  0  0  0  0  0  0
    4.3375   -3.5917    0.0000 C   0  0  0  0  0  0  0  0  0  0  0  0
    2.3292   -2.9167    0.0000 C   0  0  0  0  0  0  0  0  0  0  0  0
    3.5792   -4.6750    0.0000 S   0  0  0  0  0  0  0  0  0  0  0  0
    2.3292   -4.2542    0.0000 C   0  0  0  0  0  0  0  0  0  0  0  0
    4.0000   -1.2542    0.0000 C   0  0  0  0  0  0  0  0  0  0  0  0
    4.4375   -0.0000    0.0000 N   0  0  0  0  0  0  0  0  0  0  0  0
    5.6792   -3.5500    0.0000 N   0  0  0  0  0  0  0  0  0  0  0  0
    1.1500   -2.2875    0.0000 C   0  0  0  0  0  0  0  0  0  0  0  0
    1.1750   -4.9292    0.0000 C   0  0  0  0  0  0  0  0  0  0  0  0
    0.0000   -2.9375    0.0000 C   0  0  0  0  0  0  0  0  0  0  0  0
    0.0000   -4.2667    0.0000 C   0  0  0  0  0  0  0  0  0  0  0  0
  1  2  2  0
  1  3  1  0
  2  4  1  0
  3  5  2  0
  1  6  1  0
  6  7  3  0
  2  8  1  0
  3  9  1  0
  5 10  1  0
  9 11  1  0
 11 12  1  0
  4  5  1  0
 10 12  1  0
M  END
>  <MOLFORMULA>  (413) 
C9 H10 N2 S

>  <MOLWEIGHT>  (413) 
1.782580000000000e+002

>  <IDNUMBER>  (413) 
AT-084/J157521

>  <PRICE>  (413) 
EUR 37.00/10 mg

>  <Similarity score>  (413) 
0.21

$$$$

     RDKit          2D

 12 13  0  0  0  0  0  0  0  0999 V2000
    3.5500   -2.5625    0.0000 C   0  0  0  0  0  0  0  0  0  0  0  0
    4.3375   -3.6167    0.0000 C   0  0  0  0  0  0  0  0  0  0  0  0
    2.2792   -2.9750    0.0000 C   0  0  0  0  0  0  0  0  0  0  0  0
    3.5667   -4.7125    0.0000 S   0  0  0  0  0  0  0  0  0  0  0  0
    2.3000   -4.3042    0.0000 C   0  0  0  0  0  0  0  0  0  0  0  0
    3.9542   -1.2917    0.0000 C   0  0  0  0  0  0  0  0  0  0  0  0
    4.2917   -0.0000    0.0000 N   0  0  0  0  0  0  0  0  0  0  0  0
    5.6667   -3.6167    0.0000 N   0  0  0  0  0  0  0  0  0  0  0  0
    1.1417   -2.3042    0.0000 C   0  0  0  0  0  0  0  0  0  0  0  0
    1.1417   -4.9667    0.0000 C   0  0  0  0  0  0  0  0  0  0  0  0
    0.0000   -2.9750    0.0000 C   0  0  0  0  0  0  0  0  0  0  0  0
    0.0000   -4.3042    0.0000 C   0  0  0  0  0  0  0  0  0  0  0  0
  1  2  2  0
  1  3  1  0
  2  4  1  0
  3  5  2  0
  1  6  1  0
  6  7  3  0
  2  8  1  0
  3  9  1  0
  5 10  1  0
  9 11  1  0
 11 12  1  0
  4  5  1  0
 10 12  1  0
M  END
>  <MOLFORMULA>  (414) 
C9 H10 N2 S

>  <MOLWEIGHT>  (414) 
1.782580000000000e+002

>  <IDNUMBER>  (414) 
AT-687/NB00447

>  <PRICE>  (414) 
EUR 80/10 mg

>  <Similarity score>  (414) 
0.21

$$$$

     RDKit          2D

 13 14  0  0  0  0  0  0  0  0999 V2000
    0.2292    0.0458    0.0000 C   0  0  0  0  0  0  0  0  0  0  0  0
    0.5667   -1.0375    0.0000 C   0  0  0  0  0  0  0  0  0  0  0  0
   -0.9625    0.0458    0.0000 C   0  0  0  0  0  0  0  0  0  0  0  0
   -0.3125   -1.7292    0.0000 S   0  0  0  0  0  0  0  0  0  0  0  0
   -1.2958   -1.0542    0.0000 C   0  0  0  0  0  0  0  0  0  0  0  0
    0.9292    0.9208    0.0000 C   0  0  0  0  0  0  0  0  0  0  0  0
    1.6375    1.8208    0.0000 N   0  0  0  0  0  0  0  0  0  0  0  0
    1.6542   -1.3875    0.0000 N   0  0  0  0  0  0  0  0  0  0  0  0
   -1.5958    0.9708    0.0000 C   0  0  0  0  0  0  0  0  0  0  0  0
   -2.3625   -1.4792    0.0000 C   0  0  0  0  0  0  0  0  0  0  0  0
   -2.7458    1.0958    0.0000 C   0  0  0  0  0  0  0  0  0  0  0  0
   -3.3500   -0.8667    0.0000 C   0  0  0  0  0  0  0  0  0  0  0  0
   -3.5208    0.2625    0.0000 C   0  0  0  0  0  0  0  0  0  0  0  0
  1  2  2  0
  1  3  1  0
  2  4  1  0
  3  5  2  0
  1  6  1  0
  6  7  3  0
  2  8  1  0
  3  9  1  0
  5 10  1  0
  9 11  1  0
 10 12  1  0
 11 13  1  0
  4  5  1  0
 12 13  1  0
M  END
>  <MOLFORMULA>  (415) 
C10 H12 N2 S

>  <MOLWEIGHT>  (415) 
1.922848000000000e+002

>  <IDNUMBER>  (415) 
AT-225/JK21285

>  <PRICE>  (415) 
EUR 140/10 mg

>  <Similarity score>  (415) 
0.21

$$$$

     RDKit          2D

 13 14  0  0  0  0  0  0  0  0999 V2000
    2.1167   -2.5750    0.0000 C   0  0  0  0  0  0  0  0  0  0  0  0
    1.3292   -1.5000    0.0000 C   0  0  0  0  0  0  0  0  0  0  0  0
    3.3667   -2.1667    0.0000 C   0  0  0  0  0  0  0  0  0  0  0  0
    2.1167   -0.4167    0.0000 S   0  0  0  0  0  0  0  0  0  0  0  0
    3.3667   -0.8417    0.0000 C   0  0  0  0  0  0  0  0  0  0  0  0
    1.7000   -3.8375    0.0000 C   0  0  0  0  0  0  0  0  0  0  0  0
    1.2875   -5.1042    0.0000 N   0  0  0  0  0  0  0  0  0  0  0  0
    0.0000   -1.5000    0.0000 N   0  0  0  0  0  0  0  0  0  0  0  0
    4.4042   -2.9875    0.0000 C   0  0  0  0  0  0  0  0  0  0  0  0
    4.4042   -0.0000    0.0000 C   0  0  0  0  0  0  0  0  0  0  0  0
    5.7042   -2.6917    0.0000 C   0  0  0  0  0  0  0  0  0  0  0  0
    5.7042   -0.3000    0.0000 C   0  0  0  0  0  0  0  0  0  0  0  0
    6.2792   -1.5000    0.0000 C   0  0  0  0  0  0  0  0  0  0  0  0
  1  2  2  0
  1  3  1  0
  2  4  1  0
  3  5  2  0
  1  6  1  0
  6  7  3  0
  2  8  1  0
  3  9  1  0
  5 10  1  0
  9 11  1  0
 10 12  1  0
 11 13  1  0
  4  5  1  0
 12 13  1  0
M  END
>  <MOLFORMULA>  (416) 
C10 H12 N2 S

>  <MOLWEIGHT>  (416) 
1.922848000000000e+002

>  <IDNUMBER>  (416) 
AT-687/SK12402

>  <PRICE>  (416) 
EUR 80/10 mg

>  <Similarity score>  (416) 
0.21

$$$$

     RDKit          2D

 13 14  0  0  0  0  0  0  0  0999 V2000
   -2.4625   -0.0167    0.0000 C   0  0  0  0  0  0  0  0  0  0  0  0
   -2.0833   -0.5375    0.0000 C   0  0  0  0  0  0  0  0  0  0  0  0
   -3.0833   -0.2167    0.0000 C   0  0  0  0  0  0  0  0  0  0  0  0
   -2.4625   -1.0792    0.0000 S   0  0  0  0  0  0  0  0  0  0  0  0
   -3.0833   -0.8792    0.0000 C   0  0  0  0  0  0  0  0  0  0  0  0
   -2.2458    0.6458    0.0000 C   0  0  0  0  0  0  0  0  0  0  0  0
   -2.0458    1.2833    0.0000 N   0  0  0  0  0  0  0  0  0  0  0  0
   -1.4208   -0.5375    0.0000 N   0  0  0  0  0  0  0  0  0  0  0  0
   -3.5833    0.2000    0.0000 C   0  0  0  0  0  0  0  0  0  0  0  0
   -3.5833   -1.2792    0.0000 C   0  0  0  0  0  0  0  0  0  0  0  0
   -4.2208    0.0625    0.0000 C   0  0  0  0  0  0  0  0  0  0  0  0
   -4.2208   -1.1375    0.0000 C   0  0  0  0  0  0  0  0  0  0  0  0
   -4.5000   -0.5167    0.0000 C   0  0  0  0  0  0  0  0  0  0  0  0
  1  2  2  0
  1  3  1  0
  2  4  1  0
  3  5  2  0
  1  6  1  0
  6  7  3  0
  2  8  1  0
  3  9  1  0
  5 10  1  0
  9 11  1  0
 10 12  1  0
 11 13  1  0
  4  5  1  0
 12 13  1  0
M  END
>  <MOLFORMULA>  (417) 
C10 H12 N2 S

>  <MOLWEIGHT>  (417) 
1.922848000000000e+002

>  <IDNUMBER>  (417) 
AT-225/JK15582

>  <PRICE>  (417) 
EUR 140/10 mg

>  <Similarity score>  (417) 
0.21

$$$$

     RDKit          2D

 14 15  0  0  0  0  0  0  0  0999 V2000
    1.8167   -0.0292    0.0000 C   0  0  0  0  0  0  0  0  0  0  0  0
    1.2167   -0.8875    0.0000 C   0  0  0  0  0  0  0  0  0  0  0  0
    2.8000   -0.3500    0.0000 C   0  0  0  0  0  0  0  0  0  0  0  0
    1.8167   -1.7042    0.0000 S   0  0  0  0  0  0  0  0  0  0  0  0
    2.8000   -1.3875    0.0000 C   0  0  0  0  0  0  0  0  0  0  0  0
    1.5000    0.9708    0.0000 C   0  0  0  0  0  0  0  0  0  0  0  0
    1.1792    1.9708    0.0000 N   0  0  0  0  0  0  0  0  0  0  0  0
    0.1792   -0.8875    0.0000 N   0  0  0  0  0  0  0  0  0  0  0  0
    3.5375    0.3958    0.0000 C   0  0  0  0  0  0  0  0  0  0  0  0
    3.5375   -2.1292    0.0000 C   0  0  0  0  0  0  0  0  0  0  0  0
    4.5542    0.3958    0.0000 C   0  0  0  0  0  0  0  0  0  0  0  0
    4.5542   -2.1292    0.0000 C   0  0  0  0  0  0  0  0  0  0  0  0
    5.2792   -1.3875    0.0000 C   0  0  0  0  0  0  0  0  0  0  0  0
    5.2792   -0.3500    0.0000 C   0  0  0  0  0  0  0  0  0  0  0  0
  1  2  2  0
  1  3  1  0
  2  4  1  0
  3  5  2  0
  1  6  1  0
  6  7  3  0
  2  8  1  0
  3  9  1  0
  5 10  1  0
  9 11  1  0
 10 12  1  0
 13 14  1  0
 11 14  1  0
  4  5  1  0
 12 13  1  0
M  END
>  <MOLFORMULA>  (418) 
C11 H14 N2 S

>  <MOLWEIGHT>  (418) 
2.063116000000000e+002

>  <IDNUMBER>  (418) 
AT-225/JK15581

>  <PRICE>  (418) 
EUR 140/10 mg

>  <Similarity score>  (418) 
0.21

$$$$

     RDKit          2D

 26 29  0  0  0  0  0  0  0  0999 V2000
    4.6250   -2.4667    0.0000 N   0  0  0  0  0  0  0  0  0  0  0  0
    5.4167   -3.5500    0.0000 C   0  0  0  0  0  0  0  0  0  0  0  0
    3.3500   -2.8750    0.0000 C   0  0  0  0  0  0  0  0  0  0  0  0
    6.7500   -3.5500    0.0000 C   0  0  0  0  0  0  0  0  0  0  0  0
    8.9542   -4.1250    0.0000 N   0  0  0  0  0  0  0  0  0  0  0  0
    3.3500   -4.2042    0.0000 N   0  0  0  0  0  0  0  0  0  0  0  0
   10.2500   -3.7917    0.0000 C   0  0  0  0  0  0  0  0  0  0  0  0
    4.6250   -4.6042    0.0000 O   0  0  0  0  0  0  0  0  0  0  0  0
    8.0167   -3.2000    0.0000 C   0  0  0  0  0  0  0  0  0  0  0  0
   11.1917   -4.7250    0.0000 C   0  0  0  0  0  0  0  0  0  0  0  0
   10.8500   -6.0250    0.0000 N   0  0  0  0  0  0  0  0  0  0  0  0
   10.5792   -2.5000    0.0000 O   0  0  0  0  0  0  0  0  0  0  0  0
    2.2917   -2.0917    0.0000 C   0  0  0  0  0  0  0  0  0  0  0  0
   13.4167   -5.3292    0.0000 N   0  0  0  0  0  0  0  0  0  0  0  0
    8.6250   -5.4250    0.0000 C   0  0  0  0  0  0  0  0  0  0  0  0
    6.4000   -4.8250    0.0000 C   0  0  0  0  0  0  0  0  0  0  0  0
   12.4750   -4.4000    0.0000 C   0  0  0  0  0  0  0  0  0  0  0  0
    7.2417   -2.3167    0.0000 C   0  0  0  0  0  0  0  0  0  0  0  0
    7.3250   -5.7667    0.0000 C   0  0  0  0  0  0  0  0  0  0  0  0
   11.7917   -6.9542    0.0000 C   0  0  0  0  0  0  0  0  0  0  0  0
   13.0667   -6.6042    0.0000 C   0  0  0  0  0  0  0  0  0  0  0  0
    1.0667   -2.6417    0.0000 C   0  0  0  0  0  0  0  0  0  0  0  0
    2.4250   -0.7750    0.0000 C   0  0  0  0  0  0  0  0  0  0  0  0
    1.3417   -0.0000    0.0000 C   0  0  0  0  0  0  0  0  0  0  0  0
    0.0000   -1.8542    0.0000 C   0  0  0  0  0  0  0  0  0  0  0  0
    0.1250   -0.5167    0.0000 C   0  0  0  0  0  0  0  0  0  0  0  0
  1  2  2  0
  1  3  1  0
  2  4  1  0
  5  9  1  0
  3  6  2  0
  5  7  1  0
  2  8  1  0
  4  9  1  0
  7 10  1  0
 10 11  1  0
  7 12  2  0
  3 13  1  0
 14 17  1  0
 15 19  1  0
  4 16  1  0
 10 17  2  0
  4 18  1  0
 16 19  1  0
 11 20  2  0
 14 21  2  0
 13 22  2  0
 13 23  1  0
 23 24  2  0
 22 25  1  0
 24 26  1  0
  6  8  1  0
 25 26  2  0
  5 15  1  0
 20 21  1  0
M  END
>  <MOLFORMULA>  (419) 
C19 H19 N5 O2

>  <MOLWEIGHT>  (419) 
3.493921000000000e+002

>  <IDNUMBER>  (419) 
AT-687/PE19329

>  <PRICE>  (419) 
EUR 80/10 mg

>  <Similarity score>  (419) 
0.21

$$$$

     RDKit          2D

 26 29  0  0  0  0  0  0  0  0999 V2000
    4.3125   -3.0625    0.0000 N   0  0  0  0  0  0  0  0  0  0  0  0
    4.7917   -2.4000    0.0000 C   0  0  0  0  0  0  0  0  0  0  0  0
    3.5292   -2.8167    0.0000 C   0  0  0  0  0  0  0  0  0  0  0  0
    5.6167   -2.4000    0.0000 C   0  0  0  0  0  0  0  0  0  0  0  0
    3.5292   -1.9875    0.0000 N   0  0  0  0  0  0  0  0  0  0  0  0
    7.0042   -2.0292    0.0000 N   0  0  0  0  0  0  0  0  0  0  0  0
    4.3125   -1.7292    0.0000 O   0  0  0  0  0  0  0  0  0  0  0  0
    7.7917   -2.2375    0.0000 C   0  0  0  0  0  0  0  0  0  0  0  0
    6.4167   -2.6125    0.0000 C   0  0  0  0  0  0  0  0  0  0  0  0
    9.1792   -1.8750    0.0000 N   0  0  0  0  0  0  0  0  0  0  0  0
   10.3042   -2.6000    0.0000 N   0  0  0  0  0  0  0  0  0  0  0  0
    9.4792   -2.6417    0.0000 C   0  0  0  0  0  0  0  0  0  0  0  0
    8.3792   -1.6625    0.0000 C   0  0  0  0  0  0  0  0  0  0  0  0
   10.5167   -1.8042    0.0000 C   0  0  0  0  0  0  0  0  0  0  0  0
    9.8167   -1.3542    0.0000 C   0  0  0  0  0  0  0  0  0  0  0  0
    2.8542   -3.3000    0.0000 C   0  0  0  0  0  0  0  0  0  0  0  0
    8.0125   -3.0417    0.0000 O   0  0  0  0  0  0  0  0  0  0  0  0
    5.4125   -1.6000    0.0000 C   0  0  0  0  0  0  0  0  0  0  0  0
    5.9375   -3.1667    0.0000 C   0  0  0  0  0  0  0  0  0  0  0  0
    6.7875   -1.2292    0.0000 C   0  0  0  0  0  0  0  0  0  0  0  0
    5.9917   -1.0167    0.0000 C   0  0  0  0  0  0  0  0  0  0  0  0
    2.1042   -2.9625    0.0000 C   0  0  0  0  0  0  0  0  0  0  0  0
    2.9417   -4.1167    0.0000 C   0  0  0  0  0  0  0  0  0  0  0  0
    2.2792   -4.6000    0.0000 C   0  0  0  0  0  0  0  0  0  0  0  0
    1.4292   -3.4417    0.0000 C   0  0  0  0  0  0  0  0  0  0  0  0
    1.5167   -4.2667    0.0000 C   0  0  0  0  0  0  0  0  0  0  0  0
  1  2  2  0
  1  3  1  0
  2  4  1  0
  3  5  2  0
  6  9  1  0
  2  7  1  0
  6  8  1  0
  4  9  1  0
 10 13  1  0
 11 12  2  0
 10 12  1  0
  8 13  1  0
 14 15  2  0
 10 15  1  0
  3 16  1  0
  8 17  2  0
  4 18  1  0
  4 19  1  0
 20 21  1  0
 18 21  1  0
 16 22  2  0
 16 23  1  0
 23 24  2  0
 22 25  1  0
 24 26  1  0
  5  7  1  0
 25 26  2  0
  6 20  1  0
 11 14  1  0
M  END
>  <MOLFORMULA>  (420) 
C19 H21 N5 O2

>  <MOLWEIGHT>  (420) 
3.514079000000000e+002

>  <IDNUMBER>  (420) 
AT-687/SK17723

>  <PRICE>  (420) 
EUR 80/10 mg

>  <Similarity score>  (420) 
0.21

$$$$

     RDKit          2D

 13 14  0  0  0  0  0  0  0  0999 V2000
    3.2542    2.4375    0.0000 C   0  0  0  0  0  0  0  0  0  0  0  0
    5.5792   -0.7417    0.0000 C   0  0  0  0  0  0  0  0  0  0  0  0
   -0.5083    1.2333    0.0000 C   0  0  0  0  0  0  0  0  0  0  0  0
   -0.5083   -2.7292    0.0000 C   0  0  0  0  0  0  0  0  0  0  0  0
    3.2542   -3.9500    0.0000 S   0  0  0  0  0  0  0  0  0  0  0  0
    4.4750    6.2125    0.0000 C   0  0  0  0  0  0  0  0  0  0  0  0
    8.3625    7.0292    0.0000 N   0  0  0  0  0  0  0  0  0  0  0  0
   -3.9333    3.2125    0.0000 C   0  0  0  0  0  0  0  0  0  0  0  0
   -3.9333   -4.7125    0.0000 C   0  0  0  0  0  0  0  0  0  0  0  0
    9.4042   -1.7667    0.0000 N   0  0  0  0  0  0  0  0  0  0  0  0
   -7.3542    1.2333    0.0000 C   0  0  0  0  0  0  0  0  0  0  0  0
   -7.3542   -2.7292    0.0000 C   0  0  0  0  0  0  0  0  0  0  0  0
  -10.7792   -4.7125    0.0000 C   0  0  0  0  0  0  0  0  0  0  0  0
  1  2  2  0
  1  3  1  0
  3  4  2  0
  2  5  1  0
  1  6  1  0
  6  7  3  0
  3  8  1  0
  4  9  1  0
  2 10  1  0
  8 11  1  0
 11 12  1  0
 12 13  1  0
  4  5  1  0
  9 12  1  0
M  END
>  <MOLFORMULA>  (421) 
C10 H12 N2 S

>  <MOLWEIGHT>  (421) 
1.922848000000000e+002

>  <IDNUMBER>  (421) 
AT-084/J162226

>  <PRICE>  (421) 
EUR 37.00/10 mg

>  <Similarity score>  (421) 
0.20

$$$$

     RDKit          2D

 13 14  0  0  0  0  0  0  0  0999 V2000
   -1.2333    0.0750    0.0000 C   0  0  0  0  0  0  0  0  0  0  0  0
   -1.6417    0.9917    0.0000 C   0  0  0  0  0  0  0  0  0  0  0  0
   -0.2375    0.1833    0.0000 C   0  0  0  0  0  0  0  0  0  0  0  0
   -0.0292    1.1583    0.0000 C   0  0  0  0  0  0  0  0  0  0  0  0
   -0.8958    1.6583    0.0000 S   0  0  0  0  0  0  0  0  0  0  0  0
   -1.7333   -0.7875    0.0000 C   0  0  0  0  0  0  0  0  0  0  0  0
   -1.2333   -1.6542    0.0000 N   0  0  0  0  0  0  0  0  0  0  0  0
    0.5042   -0.4875    0.0000 C   0  0  0  0  0  0  0  0  0  0  0  0
    0.9208    1.4667    0.0000 C   0  0  0  0  0  0  0  0  0  0  0  0
   -2.6167    1.2000    0.0000 N   0  0  0  0  0  0  0  0  0  0  0  0
    1.4542   -0.1792    0.0000 C   0  0  0  0  0  0  0  0  0  0  0  0
    1.6625    0.8000    0.0000 C   0  0  0  0  0  0  0  0  0  0  0  0
    2.6125    1.1083    0.0000 C   0  0  0  0  0  0  0  0  0  0  0  0
  1  2  2  0
  1  3  1  0
  3  4  2  0
  2  5  1  0
  1  6  1  0
  6  7  3  0
  3  8  1  0
  4  9  1  0
  2 10  1  0
  8 11  1  0
 11 12  1  0
 12 13  1  0
  4  5  1  0
  9 12  1  0
M  END
>  <MOLFORMULA>  (422) 
C10 H12 N2 S

>  <MOLWEIGHT>  (422) 
1.922848000000000e+002

>  <IDNUMBER>  (422) 
AN-153/I124580

>  <PRICE>  (422) 
EUR 130/10 mg

>  <Similarity score>  (422) 
0.20

$$$$

     RDKit          2D

 23 25  0  0  0  0  0  0  0  0999 V2000
    7.8250   -9.7000    0.0000 C   0  0  0  0  0  0  0  0  0  0  0  0
    8.5750   -9.3625    0.0000 C   0  0  0  0  0  0  0  0  0  0  0  0
    7.9167  -10.5250    0.0000 S   0  0  0  0  0  0  0  0  0  0  0  0
    9.1292   -9.9542    0.0000 C   0  0  0  0  0  0  0  0  0  0  0  0
    8.7167  -10.6792    0.0000 C   0  0  0  0  0  0  0  0  0  0  0  0
    4.9542   -7.2417    0.0000 N   0  0  0  0  0  0  0  0  0  0  0  0
    7.1042   -9.2917    0.0000 N   0  0  0  0  0  0  0  0  0  0  0  0
    4.9542   -8.0667    0.0000 C   0  0  0  0  0  0  0  0  0  0  0  0
    8.7375   -8.5542    0.0000 C   0  0  0  0  0  0  0  0  0  0  0  0
    8.9000   -7.7417    0.0000 N   0  0  0  0  0  0  0  0  0  0  0  0
    7.1000   -8.4667    0.0000 C   0  0  0  0  0  0  0  0  0  0  0  0
    4.2375   -6.8292    0.0000 C   0  0  0  0  0  0  0  0  0  0  0  0
    4.2375   -8.4792    0.0000 N   0  0  0  0  0  0  0  0  0  0  0  0
    5.6667   -8.4792    0.0000 S   0  0  0  0  0  0  0  0  0  0  0  0
    3.5250   -7.2417    0.0000 C   0  0  0  0  0  0  0  0  0  0  0  0
    7.8125   -8.0500    0.0000 O   0  0  0  0  0  0  0  0  0  0  0  0
    6.3792   -8.0667    0.0000 C   0  0  0  0  0  0  0  0  0  0  0  0
    3.5250   -8.0667    0.0000 C   0  0  0  0  0  0  0  0  0  0  0  0
    4.2292   -6.0042    0.0000 O   0  0  0  0  0  0  0  0  0  0  0  0
    9.9667   -9.9417    0.0000 C   0  0  0  0  0  0  0  0  0  0  0  0
    9.1417  -11.4000    0.0000 C   0  0  0  0  0  0  0  0  0  0  0  0
   10.3875  -10.6667    0.0000 C   0  0  0  0  0  0  0  0  0  0  0  0
    9.9750  -11.3917    0.0000 C   0  0  0  0  0  0  0  0  0  0  0  0
  1  2  2  0
  1  3  1  0
  2  4  1  0
  3  5  1  0
  6  8  1  0
  1  7  1  0
  8 14  1  0
  2  9  1  0
  9 10  3  0
  7 11  1  0
  6 12  2  0
  8 13  2  0
 14 17  1  0
 15 18  2  0
 11 16  2  0
 11 17  1  0
 13 18  1  0
 12 19  1  0
  4 20  1  0
  5 21  1  0
 20 22  1  0
 21 23  1  0
  4  5  2  0
 22 23  1  0
 12 15  1  0
M  END
>  <MOLFORMULA>  (423) 
C15 H14 N4 O2 S2

>  <MOLWEIGHT>  (423) 
3.464336000000000e+002

>  <IDNUMBER>  (423) 
AP-853/J242162

>  <Similarity score>  (423) 
0.20

$$$$

     RDKit          2D

 26 29  0  0  0  0  0  0  0  0999 V2000
    4.6250   -2.4750    0.0000 N   0  0  0  0  0  0  0  0  0  0  0  0
   10.5917   -2.5000    0.0000 C   0  0  0  0  0  0  0  0  0  0  0  0
    5.4042   -3.5292    0.0000 C   0  0  0  0  0  0  0  0  0  0  0  0
    3.3500   -2.8750    0.0000 C   0  0  0  0  0  0  0  0  0  0  0  0
    6.7500   -3.5292    0.0000 C   0  0  0  0  0  0  0  0  0  0  0  0
    3.3500   -4.1917    0.0000 N   0  0  0  0  0  0  0  0  0  0  0  0
   11.7750   -0.7042    0.0000 N   0  0  0  0  0  0  0  0  0  0  0  0
    4.6250   -4.6042    0.0000 O   0  0  0  0  0  0  0  0  0  0  0  0
   10.4917   -0.3542    0.0000 O   0  0  0  0  0  0  0  0  0  0  0  0
    9.7667   -1.4750    0.0000 C   0  0  0  0  0  0  0  0  0  0  0  0
   11.8417   -2.0250    0.0000 C   0  0  0  0  0  0  0  0  0  0  0  0
    8.9667   -4.1250    0.0000 N   0  0  0  0  0  0  0  0  0  0  0  0
   10.2542   -3.7917    0.0000 C   0  0  0  0  0  0  0  0  0  0  0  0
    8.0250   -3.2000    0.0000 C   0  0  0  0  0  0  0  0  0  0  0  0
    2.2917   -2.0750    0.0000 C   0  0  0  0  0  0  0  0  0  0  0  0
    6.4000   -4.8250    0.0000 C   0  0  0  0  0  0  0  0  0  0  0  0
    7.2500   -2.3000    0.0000 C   0  0  0  0  0  0  0  0  0  0  0  0
    8.6250   -5.4250    0.0000 C   0  0  0  0  0  0  0  0  0  0  0  0
    8.4250   -1.5417    0.0000 C   0  0  0  0  0  0  0  0  0  0  0  0
    7.3250   -5.7542    0.0000 C   0  0  0  0  0  0  0  0  0  0  0  0
   12.9500   -2.7500    0.0000 C   0  0  0  0  0  0  0  0  0  0  0  0
    1.0750   -2.6417    0.0000 C   0  0  0  0  0  0  0  0  0  0  0  0
    2.4167   -0.7750    0.0000 C   0  0  0  0  0  0  0  0  0  0  0  0
    1.3417   -0.0000    0.0000 C   0  0  0  0  0  0  0  0  0  0  0  0
    0.0000   -1.8500    0.0000 C   0  0  0  0  0  0  0  0  0  0  0  0
    0.1250   -0.5250    0.0000 C   0  0  0  0  0  0  0  0  0  0  0  0
  2 13  1  0
  1  3  2  0
  1  4  1  0
  3  5  1  0
  4  6  2  0
  7 11  2  0
  3  8  1  0
  9 10  1  0
  2 10  2  0
  2 11  1  0
 12 14  1  0
 12 13  1  0
  5 14  1  0
  4 15  1  0
  5 16  1  0
  5 17  1  0
 18 20  1  0
 10 19  1  0
 16 20  1  0
 11 21  1  0
 15 22  2  0
 15 23  1  0
 23 24  2  0
 22 25  1  0
 24 26  1  0
  6  8  1  0
 25 26  2  0
 12 18  1  0
  7  9  1  0
M  END
>  <MOLFORMULA>  (424) 
C20 H24 N4 O2

>  <MOLWEIGHT>  (424) 
3.524356000000000e+002

>  <IDNUMBER>  (424) 
AT-687/PE19330

>  <PRICE>  (424) 
EUR 80/10 mg

>  <Similarity score>  (424) 
0.20

$$$$

     RDKit          2D

 25 28  0  0  0  0  0  0  0  0999 V2000
    3.6667   -1.5792    0.0000 N   0  0  0  0  0  0  0  0  0  0  0  0
    4.4500   -2.6750    0.0000 C   0  0  0  0  0  0  0  0  0  0  0  0
    2.4000   -2.0000    0.0000 C   0  0  0  0  0  0  0  0  0  0  0  0
    5.7750   -2.6750    0.0000 C   0  0  0  0  0  0  0  0  0  0  0  0
    7.9917   -3.2667    0.0000 N   0  0  0  0  0  0  0  0  0  0  0  0
    2.4000   -3.3292    0.0000 N   0  0  0  0  0  0  0  0  0  0  0  0
    9.2792   -2.9167    0.0000 C   0  0  0  0  0  0  0  0  0  0  0  0
    3.6667   -3.7500    0.0000 O   0  0  0  0  0  0  0  0  0  0  0  0
    1.3250   -1.2250    0.0000 C   0  0  0  0  0  0  0  0  0  0  0  0
   10.2250   -3.8667    0.0000 C   0  0  0  0  0  0  0  0  0  0  0  0
    7.0667   -2.3167    0.0000 C   0  0  0  0  0  0  0  0  0  0  0  0
    0.0000   -1.0750    0.0000 C   0  0  0  0  0  0  0  0  0  0  0  0
    0.8000   -0.0000    0.0000 C   0  0  0  0  0  0  0  0  0  0  0  0
   10.8167   -6.0750    0.0000 N   0  0  0  0  0  0  0  0  0  0  0  0
    9.8917   -5.1417    0.0000 C   0  0  0  0  0  0  0  0  0  0  0  0
   12.1042   -5.7417    0.0000 C   0  0  0  0  0  0  0  0  0  0  0  0
    9.6250   -1.6417    0.0000 O   0  0  0  0  0  0  0  0  0  0  0  0
   11.5000   -3.5250    0.0000 C   0  0  0  0  0  0  0  0  0  0  0  0
   12.4417   -4.4417    0.0000 C   0  0  0  0  0  0  0  0  0  0  0  0
    7.6500   -4.5500    0.0000 C   0  0  0  0  0  0  0  0  0  0  0  0
    5.4250   -3.9500    0.0000 C   0  0  0  0  0  0  0  0  0  0  0  0
    6.2750   -1.4417    0.0000 C   0  0  0  0  0  0  0  0  0  0  0  0
   13.0417   -6.6750    0.0000 O   0  0  0  0  0  0  0  0  0  0  0  0
    6.3750   -4.9000    0.0000 C   0  0  0  0  0  0  0  0  0  0  0  0
   14.3250   -6.3500    0.0000 C   0  0  0  0  0  0  0  0  0  0  0  0
  1  2  2  0
  1  3  1  0
  2  4  1  0
  5 11  1  0
  3  6  2  0
  5  7  1  0
  2  8  1  0
  3  9  1  0
  7 10  1  0
  4 11  1  0
  9 12  1  0
  9 13  1  0
 14 15  1  0
 10 15  2  0
 16 19  1  0
  7 17  2  0
 10 18  1  0
 18 19  2  0
 20 24  1  0
  4 21  1  0
  4 22  1  0
 16 23  1  0
 21 24  1  0
 23 25  1  0
  6  8  1  0
 12 13  1  0
  5 20  1  0
 14 16  2  0
M  END
>  <MOLFORMULA>  (425) 
C18 H22 N4 O3

>  <MOLWEIGHT>  (425) 
3.423968000000000e+002

>  <IDNUMBER>  (425) 
AT-687/PE19320

>  <PRICE>  (425) 
EUR 80/10 mg

>  <Similarity score>  (425) 
0.20

$$$$

     RDKit          2D

 25 28  0  0  0  0  0  0  0  0999 V2000
    4.6250   -2.5917    0.0000 N   0  0  0  0  0  0  0  0  0  0  0  0
    5.4000   -3.6667    0.0000 C   0  0  0  0  0  0  0  0  0  0  0  0
    3.3542   -3.0000    0.0000 C   0  0  0  0  0  0  0  0  0  0  0  0
   11.8250   -2.1500    0.0000 N   0  0  0  0  0  0  0  0  0  0  0  0
    6.7292   -3.6667    0.0000 C   0  0  0  0  0  0  0  0  0  0  0  0
    3.3542   -4.3167    0.0000 N   0  0  0  0  0  0  0  0  0  0  0  0
   10.5917   -2.6417    0.0000 C   0  0  0  0  0  0  0  0  0  0  0  0
    4.6250   -4.7417    0.0000 O   0  0  0  0  0  0  0  0  0  0  0  0
   10.4750   -0.4917    0.0000 N   0  0  0  0  0  0  0  0  0  0  0  0
   11.7500   -0.8250    0.0000 C   0  0  0  0  0  0  0  0  0  0  0  0
    9.7500   -1.6000    0.0000 O   0  0  0  0  0  0  0  0  0  0  0  0
    8.9667   -4.2667    0.0000 N   0  0  0  0  0  0  0  0  0  0  0  0
    8.0167   -3.3250    0.0000 C   0  0  0  0  0  0  0  0  0  0  0  0
   10.2417   -3.9250    0.0000 C   0  0  0  0  0  0  0  0  0  0  0  0
    2.2792   -2.2250    0.0000 C   0  0  0  0  0  0  0  0  0  0  0  0
    6.3917   -4.9500    0.0000 C   0  0  0  0  0  0  0  0  0  0  0  0
    7.2500   -2.4417    0.0000 C   0  0  0  0  0  0  0  0  0  0  0  0
    8.6000   -5.5500    0.0000 C   0  0  0  0  0  0  0  0  0  0  0  0
    7.3417   -5.8917    0.0000 C   0  0  0  0  0  0  0  0  0  0  0  0
   12.7917   -0.0000    0.0000 C   0  0  0  0  0  0  0  0  0  0  0  0
    2.4417   -0.9000    0.0000 C   0  0  0  0  0  0  0  0  0  0  0  0
    1.0667   -2.7750    0.0000 C   0  0  0  0  0  0  0  0  0  0  0  0
    0.0000   -1.9917    0.0000 C   0  0  0  0  0  0  0  0  0  0  0  0
    1.3500   -0.1042    0.0000 C   0  0  0  0  0  0  0  0  0  0  0  0
    0.1250   -0.6542    0.0000 C   0  0  0  0  0  0  0  0  0  0  0  0
  1  2  2  0
  1  3  1  0
  4  7  2  0
  2  5  1  0
  3  6  2  0
  7 14  1  0
  2  8  1  0
  9 11  1  0
  4 10  1  0
  7 11  1  0
 12 13  1  0
  5 13  1  0
 12 14  1  0
  3 15  1  0
  5 16  1  0
  5 17  1  0
 18 19  1  0
 16 19  1  0
 10 20  1  0
 15 21  2  0
 15 22  1  0
 22 23  2  0
 21 24  1  0
 23 25  1  0
  6  8  1  0
 24 25  2  0
 12 18  1  0
  9 10  2  0
M  END
>  <MOLFORMULA>  (426) 
C18 H21 N5 O2

>  <MOLWEIGHT>  (426) 
3.393969000000000e+002

>  <IDNUMBER>  (426) 
AT-687/PE19331

>  <PRICE>  (426) 
EUR 80/10 mg

>  <Similarity score>  (426) 
0.20

$$$$

     RDKit          2D

 26 29  0  0  0  0  0  0  0  0999 V2000
    4.4917   -2.5875    0.0000 N   0  0  0  0  0  0  0  0  0  0  0  0
    4.9792   -3.2542    0.0000 C   0  0  0  0  0  0  0  0  0  0  0  0
    3.7042   -2.8417    0.0000 C   0  0  0  0  0  0  0  0  0  0  0  0
    8.9625   -2.3167    0.0000 N   0  0  0  0  0  0  0  0  0  0  0  0
    5.8042   -3.2542    0.0000 C   0  0  0  0  0  0  0  0  0  0  0  0
    3.7042   -3.6667    0.0000 N   0  0  0  0  0  0  0  0  0  0  0  0
    8.1917   -2.6167    0.0000 C   0  0  0  0  0  0  0  0  0  0  0  0
    7.6667   -1.9792    0.0000 N   0  0  0  0  0  0  0  0  0  0  0  0
    4.4917   -3.9250    0.0000 O   0  0  0  0  0  0  0  0  0  0  0  0
    8.9167   -1.4917    0.0000 C   0  0  0  0  0  0  0  0  0  0  0  0
    7.1792   -3.6292    0.0000 N   0  0  0  0  0  0  0  0  0  0  0  0
    8.1167   -1.2875    0.0000 O   0  0  0  0  0  0  0  0  0  0  0  0
    6.6000   -3.0417    0.0000 C   0  0  0  0  0  0  0  0  0  0  0  0
    7.9792   -3.4125    0.0000 C   0  0  0  0  0  0  0  0  0  0  0  0
    3.0417   -2.3625    0.0000 C   0  0  0  0  0  0  0  0  0  0  0  0
    5.5875   -4.0542    0.0000 C   0  0  0  0  0  0  0  0  0  0  0  0
    6.1167   -2.4917    0.0000 C   0  0  0  0  0  0  0  0  0  0  0  0
    6.9667   -4.4250    0.0000 C   0  0  0  0  0  0  0  0  0  0  0  0
    9.5542   -0.9792    0.0000 C   0  0  0  0  0  0  0  0  0  0  0  0
    6.1750   -4.6417    0.0000 C   0  0  0  0  0  0  0  0  0  0  0  0
    3.1250   -1.5417    0.0000 C   0  0  0  0  0  0  0  0  0  0  0  0
    2.2875   -2.7000    0.0000 C   0  0  0  0  0  0  0  0  0  0  0  0
   10.3292   -1.2750    0.0000 C   0  0  0  0  0  0  0  0  0  0  0  0
    2.4542   -1.0542    0.0000 C   0  0  0  0  0  0  0  0  0  0  0  0
    1.6167   -2.2125    0.0000 C   0  0  0  0  0  0  0  0  0  0  0  0
    1.7000   -1.3917    0.0000 C   0  0  0  0  0  0  0  0  0  0  0  0
  1  2  2  0
  1  3  1  0
  4  7  1  0
  2  5  1  0
  3  6  2  0
  7 14  1  0
  7  8  2  0
  2  9  1  0
  4 10  2  0
 11 13  1  0
  8 12  1  0
  5 13  1  0
 11 14  1  0
  3 15  1  0
  5 16  1  0
  5 17  1  0
 18 20  1  0
 10 19  1  0
 16 20  1  0
 15 21  1  0
 15 22  2  0
 19 23  1  0
 21 24  2  0
 22 25  1  0
 25 26  2  0
  6  9  1  0
 24 26  1  0
 11 18  1  0
 10 12  1  0
M  END
>  <MOLFORMULA>  (427) 
C19 H23 N5 O2

>  <MOLWEIGHT>  (427) 
3.534237000000000e+002

>  <IDNUMBER>  (427) 
AT-687/SK17725

>  <PRICE>  (427) 
EUR 80/10 mg

>  <Similarity score>  (427) 
0.20

$$$$

     RDKit          2D

 26 29  0  0  0  0  0  0  0  0999 V2000
    8.4542   -3.6250    0.0000 C   0  0  0  0  0  0  0  0  0  0  0  0
    4.3667   -2.2042    0.0000 N   0  0  0  0  0  0  0  0  0  0  0  0
    4.8542   -2.8667    0.0000 C   0  0  0  0  0  0  0  0  0  0  0  0
    3.5792   -2.4667    0.0000 C   0  0  0  0  0  0  0  0  0  0  0  0
    7.8667   -3.0375    0.0000 C   0  0  0  0  0  0  0  0  0  0  0  0
    5.6792   -2.8667    0.0000 C   0  0  0  0  0  0  0  0  0  0  0  0
    7.0667   -3.2542    0.0000 N   0  0  0  0  0  0  0  0  0  0  0  0
    3.5792   -3.2917    0.0000 N   0  0  0  0  0  0  0  0  0  0  0  0
    8.3167   -4.4417    0.0000 N   0  0  0  0  0  0  0  0  0  0  0  0
    9.2750   -3.4917    0.0000 C   0  0  0  0  0  0  0  0  0  0  0  0
    4.3667   -3.5417    0.0000 O   0  0  0  0  0  0  0  0  0  0  0  0
    9.0667   -4.8167    0.0000 N   0  0  0  0  0  0  0  0  0  0  0  0
    6.4875   -2.6667    0.0000 C   0  0  0  0  0  0  0  0  0  0  0  0
    9.6417   -4.2292    0.0000 C   0  0  0  0  0  0  0  0  0  0  0  0
    8.0792   -2.2375    0.0000 O   0  0  0  0  0  0  0  0  0  0  0  0
    2.9042   -1.9792    0.0000 C   0  0  0  0  0  0  0  0  0  0  0  0
    6.8500   -4.0542    0.0000 C   0  0  0  0  0  0  0  0  0  0  0  0
    5.4667   -3.6792    0.0000 C   0  0  0  0  0  0  0  0  0  0  0  0
    6.0000   -2.1167    0.0000 C   0  0  0  0  0  0  0  0  0  0  0  0
    6.0542   -4.2667    0.0000 C   0  0  0  0  0  0  0  0  0  0  0  0
   10.4667   -4.3542    0.0000 C   0  0  0  0  0  0  0  0  0  0  0  0
    2.1500   -2.3125    0.0000 C   0  0  0  0  0  0  0  0  0  0  0  0
    3.0000   -1.1542    0.0000 C   0  0  0  0  0  0  0  0  0  0  0  0
    2.3167   -0.6667    0.0000 C   0  0  0  0  0  0  0  0  0  0  0  0
    1.4792   -1.8250    0.0000 C   0  0  0  0  0  0  0  0  0  0  0  0
    1.5667   -1.0042    0.0000 C   0  0  0  0  0  0  0  0  0  0  0  0
  2  3  2  0
  3  6  1  0
  2  4  1  0
  1  5  1  0
  6 13  1  0
  5  7  1  0
  8 11  1  0
  1  9  1  0
  1 10  2  0
  3 11  1  0
  9 12  1  0
  7 13  1  0
 10 14  1  0
  5 15  2  0
  4 16  1  0
  7 17  1  0
 18 20  1  0
  6 19  1  0
 17 20  1  0
 14 21  1  0
 16 22  2  0
 16 23  1  0
 23 24  2  0
 22 25  1  0
 24 26  1  0
 12 14  2  0
  6 18  1  0
  4  8  2  0
 25 26  2  0
M  END
>  <MOLFORMULA>  (428) 
C19 H21 N5 O2

>  <MOLWEIGHT>  (428) 
3.514079000000000e+002

>  <IDNUMBER>  (428) 
AT-687/SK17721

>  <PRICE>  (428) 
EUR 80/10 mg

>  <Similarity score>  (428) 
0.20

$$$$

     RDKit          2D

 16 17  0  0  0  0  0  0  0  0999 V2000
    0.1375    0.9458    0.0000 C   0  0  0  0  0  0  0  0  0  0  0  0
    0.1375    0.2833    0.0000 C   0  0  0  0  0  0  0  0  0  0  0  0
   -1.0208    0.2833    0.0000 C   0  0  0  0  0  0  0  0  0  0  0  0
   -1.0208    0.9458    0.0000 C   0  0  0  0  0  0  0  0  0  0  0  0
   -0.4458   -0.0500    0.0000 S   0  0  0  0  0  0  0  0  0  0  0  0
    0.7500    1.2833    0.0000 C   0  0  0  0  0  0  0  0  0  0  0  0
   -1.6000   -0.0500    0.0000 C   0  0  0  0  0  0  0  0  0  0  0  0
    1.3542    1.6208    0.0000 N   0  0  0  0  0  0  0  0  0  0  0  0
   -1.6000    1.2708    0.0000 C   0  0  0  0  0  0  0  0  0  0  0  0
   -2.1833    0.2833    0.0000 C   0  0  0  0  0  0  0  0  0  0  0  0
   -2.7958   -0.0667    0.0000 C   0  0  0  0  0  0  0  0  0  0  0  0
    0.7500   -0.0667    0.0000 N   0  0  0  0  0  0  0  0  0  0  0  0
   -2.1833    0.9458    0.0000 C   0  0  0  0  0  0  0  0  0  0  0  0
   -3.4833   -0.3542    0.0000 C   0  0  0  0  0  0  0  0  0  0  0  0
   -3.0458    0.5208    0.0000 C   0  0  0  0  0  0  0  0  0  0  0  0
   -2.5000   -0.7375    0.0000 C   0  0  0  0  0  0  0  0  0  0  0  0
  1  2  2  0
  3  4  2  0
  1  4  1  0
  2  5  1  0
  1  6  1  0
  3  7  1  0
  6  8  3  0
  4  9  1  0
 10 13  1  0
 10 11  1  0
  2 12  1  0
  9 13  1  0
 11 14  1  0
 11 15  1  0
 11 16  1  0
  3  5  1  0
  7 10  1  0
M  END
>  <MOLFORMULA>  (429) 
C13 H18 N2 S

>  <MOLWEIGHT>  (429) 
2.343652000000000e+002

>  <IDNUMBER>  (429) 
AT-225/JK21267

>  <PRICE>  (429) 
EUR 140/10 mg

>  <Similarity score>  (429) 
0.20

$$$$

     RDKit          2D

 16 17  0  0  0  0  0  0  0  0999 V2000
    5.8667   -2.5542    0.0000 C   0  0  0  0  0  0  0  0  0  0  0  0
    6.6417   -3.6292    0.0000 C   0  0  0  0  0  0  0  0  0  0  0  0
    4.6042   -4.2917    0.0000 C   0  0  0  0  0  0  0  0  0  0  0  0
    4.6042   -2.9667    0.0000 C   0  0  0  0  0  0  0  0  0  0  0  0
    5.8667   -4.7042    0.0000 S   0  0  0  0  0  0  0  0  0  0  0  0
    6.2792   -1.2917    0.0000 C   0  0  0  0  0  0  0  0  0  0  0  0
    3.4542   -4.9542    0.0000 C   0  0  0  0  0  0  0  0  0  0  0  0
    6.6292   -0.0000    0.0000 N   0  0  0  0  0  0  0  0  0  0  0  0
    3.4542   -2.2917    0.0000 C   0  0  0  0  0  0  0  0  0  0  0  0
    2.3042   -4.3000    0.0000 C   0  0  0  0  0  0  0  0  0  0  0  0
    1.1542   -4.9667    0.0000 C   0  0  0  0  0  0  0  0  0  0  0  0
    7.9750   -3.6292    0.0000 N   0  0  0  0  0  0  0  0  0  0  0  0
    2.3042   -2.9667    0.0000 C   0  0  0  0  0  0  0  0  0  0  0  0
    0.0000   -5.6167    0.0000 C   0  0  0  0  0  0  0  0  0  0  0  0
    1.8250   -6.1167    0.0000 C   0  0  0  0  0  0  0  0  0  0  0  0
    0.4917   -3.8125    0.0000 C   0  0  0  0  0  0  0  0  0  0  0  0
  1  2  2  0
  3  4  2  0
  1  4  1  0
  2  5  1  0
  1  6  1  0
  3  7  1  0
  6  8  3  0
  4  9  1  0
 10 13  1  0
 10 11  1  0
  2 12  1  0
  9 13  1  0
 11 14  1  0
 11 15  1  0
 11 16  1  0
  3  5  1  0
  7 10  1  0
M  END
>  <MOLFORMULA>  (430) 
C13 H18 N2 S

>  <MOLWEIGHT>  (430) 
2.343652000000000e+002

>  <IDNUMBER>  (430) 
AT-687/NB00958

>  <PRICE>  (430) 
EUR 80/10 mg

>  <Similarity score>  (430) 
0.20

$$$$

     RDKit          2D

 16 17  0  0  0  0  0  0  0  0999 V2000
   -1.6500   -0.5542    0.0000 C   0  0  0  0  0  0  0  0  0  0  0  0
   -2.0583    0.3583    0.0000 C   0  0  0  0  0  0  0  0  0  0  0  0
   -0.4500    0.5250    0.0000 C   0  0  0  0  0  0  0  0  0  0  0  0
   -0.6583   -0.4500    0.0000 C   0  0  0  0  0  0  0  0  0  0  0  0
   -1.3167    1.0250    0.0000 S   0  0  0  0  0  0  0  0  0  0  0  0
   -2.1500   -1.4208    0.0000 C   0  0  0  0  0  0  0  0  0  0  0  0
    0.5000    0.8333    0.0000 C   0  0  0  0  0  0  0  0  0  0  0  0
   -3.1500   -1.4208    0.0000 N   0  0  0  0  0  0  0  0  0  0  0  0
    0.0875   -1.1208    0.0000 C   0  0  0  0  0  0  0  0  0  0  0  0
    1.2458    0.1667    0.0000 C   0  0  0  0  0  0  0  0  0  0  0  0
    2.1958    0.4750    0.0000 C   0  0  0  0  0  0  0  0  0  0  0  0
   -3.0375    0.5667    0.0000 N   0  0  0  0  0  0  0  0  0  0  0  0
    1.0375   -0.8125    0.0000 C   0  0  0  0  0  0  0  0  0  0  0  0
    1.8875    1.4250    0.0000 C   0  0  0  0  0  0  0  0  0  0  0  0
    2.5042   -0.4750    0.0000 C   0  0  0  0  0  0  0  0  0  0  0  0
    3.1458    0.7833    0.0000 C   0  0  0  0  0  0  0  0  0  0  0  0
  1  2  2  0
  3  4  2  0
  1  4  1  0
  2  5  1  0
  1  6  1  0
  3  7  1  0
  6  8  3  0
  4  9  1  0
 10 13  1  0
 10 11  1  0
  2 12  1  0
  9 13  1  0
 11 14  1  0
 11 15  1  0
 11 16  1  0
  3  5  1  0
  7 10  1  0
M  END
>  <MOLFORMULA>  (431) 
C13 H18 N2 S

>  <MOLWEIGHT>  (431) 
2.343652000000000e+002

>  <IDNUMBER>  (431) 
AN-153/I124583

>  <PRICE>  (431) 
EUR 130/10 mg

>  <Similarity score>  (431) 
0.20

$$$$

     RDKit          2D

 16 17  0  0  0  0  0  0  0  0999 V2000
    4.0292   -0.4000    0.0000 C   0  0  0  0  0  0  0  0  0  0  0  0
    4.5167   -1.0542    0.0000 C   0  0  0  0  0  0  0  0  0  0  0  0
    3.2500   -1.4750    0.0000 C   0  0  0  0  0  0  0  0  0  0  0  0
    3.2500   -0.6500    0.0000 C   0  0  0  0  0  0  0  0  0  0  0  0
    4.0292   -1.7250    0.0000 S   0  0  0  0  0  0  0  0  0  0  0  0
    4.2917    0.3875    0.0000 C   0  0  0  0  0  0  0  0  0  0  0  0
    2.5417   -1.8792    0.0000 C   0  0  0  0  0  0  0  0  0  0  0  0
    4.5000    1.1875    0.0000 N   0  0  0  0  0  0  0  0  0  0  0  0
    2.5417   -0.2292    0.0000 C   0  0  0  0  0  0  0  0  0  0  0  0
    1.8250   -1.4750    0.0000 C   0  0  0  0  0  0  0  0  0  0  0  0
    1.1167   -1.8917    0.0000 C   0  0  0  0  0  0  0  0  0  0  0  0
    5.3417   -1.0542    0.0000 N   0  0  0  0  0  0  0  0  0  0  0  0
    1.8250   -0.6500    0.0000 C   0  0  0  0  0  0  0  0  0  0  0  0
    0.4000   -2.3000    0.0000 C   0  0  0  0  0  0  0  0  0  0  0  0
    1.5250   -2.6000    0.0000 C   0  0  0  0  0  0  0  0  0  0  0  0
    0.7000   -1.1750    0.0000 C   0  0  0  0  0  0  0  0  0  0  0  0
  1  2  2  0
  3  4  2  0
  1  4  1  0
  2  5  1  0
  1  6  1  0
  3  7  1  0
  6  8  3  0
  4  9  1  0
 10 13  1  0
 10 11  1  0
  2 12  1  0
  9 13  1  0
 11 14  1  0
 11 15  1  0
 11 16  1  0
  3  5  1  0
  7 10  1  0
M  END
>  <MOLFORMULA>  (432) 
C13 H18 N2 S

>  <MOLWEIGHT>  (432) 
2.343652000000000e+002

>  <IDNUMBER>  (432) 
AT-687/PE32216

>  <PRICE>  (432) 
EUR 80/10 mg

>  <Similarity score>  (432) 
0.20

$$$$

     RDKit          2D

 14 15  0  0  0  0  0  0  0  0999 V2000
    0.1375    0.9458    0.0000 C   0  0  0  0  0  0  0  0  0  0  0  0
    0.1375    0.2833    0.0000 C   0  0  0  0  0  0  0  0  0  0  0  0
   -1.0208    0.9458    0.0000 C   0  0  0  0  0  0  0  0  0  0  0  0
   -1.0208    0.2833    0.0000 C   0  0  0  0  0  0  0  0  0  0  0  0
   -0.4458   -0.0500    0.0000 S   0  0  0  0  0  0  0  0  0  0  0  0
    0.7500    1.2833    0.0000 C   0  0  0  0  0  0  0  0  0  0  0  0
    1.3542    1.6208    0.0000 N   0  0  0  0  0  0  0  0  0  0  0  0
   -1.6000    1.2708    0.0000 C   0  0  0  0  0  0  0  0  0  0  0  0
   -1.6000   -0.0500    0.0000 C   0  0  0  0  0  0  0  0  0  0  0  0
    0.7500   -0.0667    0.0000 N   0  0  0  0  0  0  0  0  0  0  0  0
   -2.1833    0.9458    0.0000 C   0  0  0  0  0  0  0  0  0  0  0  0
   -2.1833    0.2833    0.0000 C   0  0  0  0  0  0  0  0  0  0  0  0
   -2.7958   -0.0667    0.0000 C   0  0  0  0  0  0  0  0  0  0  0  0
   -3.4000    0.2833    0.0000 C   0  0  0  0  0  0  0  0  0  0  0  0
  1  2  2  0
  1  3  1  0
  3  4  2  0
  2  5  1  0
  1  6  1  0
  6  7  3  0
  3  8  1  0
  4  9  1  0
  2 10  1  0
  8 11  1  0
 11 12  1  0
 12 13  1  0
 13 14  1  0
  4  5  1  0
  9 12  1  0
M  END
>  <MOLFORMULA>  (433) 
C11 H14 N2 S

>  <MOLWEIGHT>  (433) 
2.063116000000000e+002

>  <IDNUMBER>  (433) 
AT-225/JK21271

>  <PRICE>  (433) 
EUR 140/10 mg

>  <Similarity score>  (433) 
0.20

$$$$

     RDKit          2D

 26 29  0  0  0  0  0  0  0  0999 V2000
    4.6125   -3.9042    0.0000 N   0  0  0  0  0  0  0  0  0  0  0  0
    5.1000   -3.2292    0.0000 C   0  0  0  0  0  0  0  0  0  0  0  0
    3.8292   -3.6500    0.0000 C   0  0  0  0  0  0  0  0  0  0  0  0
    8.5750   -1.6667    0.0000 N   0  0  0  0  0  0  0  0  0  0  0  0
    5.9292   -3.2292    0.0000 C   0  0  0  0  0  0  0  0  0  0  0  0
    3.8292   -2.8167    0.0000 N   0  0  0  0  0  0  0  0  0  0  0  0
    8.7042   -2.4875    0.0000 C   0  0  0  0  0  0  0  0  0  0  0  0
    4.6125   -2.5625    0.0000 O   0  0  0  0  0  0  0  0  0  0  0  0
    9.8917   -1.8875    0.0000 N   0  0  0  0  0  0  0  0  0  0  0  0
    9.3167   -1.3000    0.0000 C   0  0  0  0  0  0  0  0  0  0  0  0
    9.5167   -2.6250    0.0000 O   0  0  0  0  0  0  0  0  0  0  0  0
    7.3167   -2.8625    0.0000 N   0  0  0  0  0  0  0  0  0  0  0  0
    6.7292   -3.4500    0.0000 C   0  0  0  0  0  0  0  0  0  0  0  0
    8.1167   -3.0792    0.0000 C   0  0  0  0  0  0  0  0  0  0  0  0
    3.1625   -4.1292    0.0000 C   0  0  0  0  0  0  0  0  0  0  0  0
    5.7167   -2.4375    0.0000 C   0  0  0  0  0  0  0  0  0  0  0  0
    6.2500   -4.0000    0.0000 C   0  0  0  0  0  0  0  0  0  0  0  0
    7.1042   -2.0667    0.0000 C   0  0  0  0  0  0  0  0  0  0  0  0
    9.4417   -0.4792    0.0000 C   0  0  0  0  0  0  0  0  0  0  0  0
    6.3042   -1.8417    0.0000 C   0  0  0  0  0  0  0  0  0  0  0  0
    3.2417   -4.9625    0.0000 C   0  0  0  0  0  0  0  0  0  0  0  0
    2.4042   -3.8000    0.0000 C   0  0  0  0  0  0  0  0  0  0  0  0
   10.2042   -0.1792    0.0000 C   0  0  0  0  0  0  0  0  0  0  0  0
    2.5750   -5.4417    0.0000 C   0  0  0  0  0  0  0  0  0  0  0  0
    1.7292   -4.2875    0.0000 C   0  0  0  0  0  0  0  0  0  0  0  0
    1.8167   -5.1042    0.0000 C   0  0  0  0  0  0  0  0  0  0  0  0
  1  2  2  0
  1  3  1  0
  4  7  2  0
  2  5  1  0
  3  6  2  0
  7 14  1  0
  2  8  1  0
  9 11  1  0
  4 10  1  0
  7 11  1  0
 12 13  1  0
  5 13  1  0
 12 14  1  0
  3 15  1  0
  5 16  1  0
  5 17  1  0
 18 20  1  0
 10 19  1  0
 16 20  1  0
 15 21  1  0
 15 22  2  0
 19 23  1  0
 21 24  2  0
 22 25  1  0
 25 26  2  0
  6  8  1  0
 24 26  1  0
 12 18  1  0
  9 10  2  0
M  END
>  <MOLFORMULA>  (434) 
C19 H23 N5 O2

>  <MOLWEIGHT>  (434) 
3.534237000000000e+002

>  <IDNUMBER>  (434) 
AT-687/SK17724

>  <PRICE>  (434) 
EUR 80/10 mg

>  <Similarity score>  (434) 
0.20

$$$$

     RDKit          2D

 26 29  0  0  0  0  0  0  0  0999 V2000
    8.8542   -3.6917    0.0000 C   0  0  0  0  0  0  0  0  0  0  0  0
    4.7667   -2.2792    0.0000 N   0  0  0  0  0  0  0  0  0  0  0  0
    8.2750   -3.1042    0.0000 C   0  0  0  0  0  0  0  0  0  0  0  0
    5.2542   -2.9417    0.0000 C   0  0  0  0  0  0  0  0  0  0  0  0
    3.9792   -2.5292    0.0000 C   0  0  0  0  0  0  0  0  0  0  0  0
    7.4750   -3.3167    0.0000 N   0  0  0  0  0  0  0  0  0  0  0  0
    6.0875   -2.9417    0.0000 C   0  0  0  0  0  0  0  0  0  0  0  0
    3.9792   -3.3625    0.0000 N   0  0  0  0  0  0  0  0  0  0  0  0
    9.6792   -3.5625    0.0000 N   0  0  0  0  0  0  0  0  0  0  0  0
    4.7667   -3.6125    0.0000 O   0  0  0  0  0  0  0  0  0  0  0  0
    6.8875   -2.7292    0.0000 C   0  0  0  0  0  0  0  0  0  0  0  0
   10.0542   -4.2917    0.0000 N   0  0  0  0  0  0  0  0  0  0  0  0
    8.7292   -4.5042    0.0000 C   0  0  0  0  0  0  0  0  0  0  0  0
    9.4625   -4.8875    0.0000 C   0  0  0  0  0  0  0  0  0  0  0  0
    8.4917   -2.3042    0.0000 O   0  0  0  0  0  0  0  0  0  0  0  0
    3.3125   -2.0417    0.0000 C   0  0  0  0  0  0  0  0  0  0  0  0
    7.2542   -4.1167    0.0000 C   0  0  0  0  0  0  0  0  0  0  0  0
    5.8667   -3.7500    0.0000 C   0  0  0  0  0  0  0  0  0  0  0  0
    6.4000   -2.1792    0.0000 C   0  0  0  0  0  0  0  0  0  0  0  0
   10.0542   -2.8167    0.0000 C   0  0  0  0  0  0  0  0  0  0  0  0
    6.4625   -4.3292    0.0000 C   0  0  0  0  0  0  0  0  0  0  0  0
    2.5542   -2.3792    0.0000 C   0  0  0  0  0  0  0  0  0  0  0  0
    3.3917   -1.2167    0.0000 C   0  0  0  0  0  0  0  0  0  0  0  0
    2.7292   -0.7292    0.0000 C   0  0  0  0  0  0  0  0  0  0  0  0
    1.8792   -1.8917    0.0000 C   0  0  0  0  0  0  0  0  0  0  0  0
    1.9667   -1.0667    0.0000 C   0  0  0  0  0  0  0  0  0  0  0  0
  2  4  2  0
  1  3  1  0
  4  7  1  0
  2  5  1  0
  3  6  1  0
  7 11  1  0
  8 10  1  0
  1  9  1  0
  4 10  1  0
  6 11  1  0
  9 12  1  0
  1 13  2  0
 13 14  1  0
  3 15  2  0
  5 16  1  0
  6 17  1  0
 18 21  1  0
  7 19  1  0
  9 20  1  0
 17 21  1  0
 16 22  2  0
 16 23  1  0
 23 24  2  0
 22 25  1  0
 24 26  1  0
 12 14  2  0
  7 18  1  0
  5  8  2  0
 25 26  2  0
M  END
>  <MOLFORMULA>  (435) 
C19 H21 N5 O2

>  <MOLWEIGHT>  (435) 
3.514079000000000e+002

>  <IDNUMBER>  (435) 
AT-687/SK17722

>  <PRICE>  (435) 
EUR 80/10 mg

>  <Similarity score>  (435) 
0.19

$$$$

     RDKit          2D

 26 29  0  0  0  0  0  0  0  0999 V2000
    4.7750   -2.2792    0.0000 N   0  0  0  0  0  0  0  0  0  0  0  0
    5.2625   -2.9417    0.0000 C   0  0  0  0  0  0  0  0  0  0  0  0
    8.2792   -3.1042    0.0000 C   0  0  0  0  0  0  0  0  0  0  0  0
    3.9875   -2.5292    0.0000 C   0  0  0  0  0  0  0  0  0  0  0  0
    7.4792   -3.3167    0.0000 N   0  0  0  0  0  0  0  0  0  0  0  0
    8.8542   -3.6917    0.0000 C   0  0  0  0  0  0  0  0  0  0  0  0
    6.0917   -2.9417    0.0000 C   0  0  0  0  0  0  0  0  0  0  0  0
    3.9875   -3.3625    0.0000 N   0  0  0  0  0  0  0  0  0  0  0  0
    4.7750   -3.6125    0.0000 O   0  0  0  0  0  0  0  0  0  0  0  0
    8.7292   -4.5042    0.0000 N   0  0  0  0  0  0  0  0  0  0  0  0
    6.8917   -2.7292    0.0000 C   0  0  0  0  0  0  0  0  0  0  0  0
    9.6875   -3.5625    0.0000 C   0  0  0  0  0  0  0  0  0  0  0  0
    9.4667   -4.8875    0.0000 C   0  0  0  0  0  0  0  0  0  0  0  0
   10.0542   -4.2917    0.0000 C   0  0  0  0  0  0  0  0  0  0  0  0
    8.4917   -2.3042    0.0000 O   0  0  0  0  0  0  0  0  0  0  0  0
    3.3167   -2.0417    0.0000 C   0  0  0  0  0  0  0  0  0  0  0  0
    7.2625   -4.1167    0.0000 C   0  0  0  0  0  0  0  0  0  0  0  0
    5.8750   -3.7500    0.0000 C   0  0  0  0  0  0  0  0  0  0  0  0
    6.4042   -2.1792    0.0000 C   0  0  0  0  0  0  0  0  0  0  0  0
    7.9917   -4.8875    0.0000 C   0  0  0  0  0  0  0  0  0  0  0  0
    6.4667   -4.3292    0.0000 C   0  0  0  0  0  0  0  0  0  0  0  0
    2.5625   -2.3792    0.0000 C   0  0  0  0  0  0  0  0  0  0  0  0
    3.4000   -1.2167    0.0000 C   0  0  0  0  0  0  0  0  0  0  0  0
    2.7292   -0.7292    0.0000 C   0  0  0  0  0  0  0  0  0  0  0  0
    1.8875   -1.8917    0.0000 C   0  0  0  0  0  0  0  0  0  0  0  0
    1.9667   -1.0667    0.0000 C   0  0  0  0  0  0  0  0  0  0  0  0
  1  2  2  0
  3  5  1  0
  1  4  1  0
  5 11  1  0
  3  6  1  0
  2  7  1  0
  4  8  2  0
  2  9  1  0
  6 10  1  0
  7 11  1  0
  6 12  2  0
 10 13  1  0
 12 14  1  0
  3 15  2  0
  4 16  1  0
 17 21  1  0
  7 18  1  0
  7 19  1  0
 10 20  1  0
 18 21  1  0
 16 22  2  0
 16 23  1  0
 23 24  2  0
 22 25  1  0
 24 26  1  0
  8  9  1  0
 25 26  2  0
  5 17  1  0
 13 14  2  0
M  END
>  <MOLFORMULA>  (436) 
C20 H22 N4 O2

>  <MOLWEIGHT>  (436) 
3.504198000000000e+002

>  <IDNUMBER>  (436) 
AT-687/SK17720

>  <PRICE>  (436) 
EUR 80/10 mg

>  <Similarity score>  (436) 
0.19

$$$$

     RDKit          2D

 19 21  0  0  0  0  0  0  0  0999 V2000
    2.1583    0.9500    0.0000 C   0  0  0  0  0  0  0  0  0  0  0  0
    2.4458   -0.0083    0.0000 C   0  0  0  0  0  0  0  0  0  0  0  0
    0.8542   -0.0083    0.0000 C   0  0  0  0  0  0  0  0  0  0  0  0
    1.1625    0.9208    0.0000 C   0  0  0  0  0  0  0  0  0  0  0  0
    1.6792   -0.6000    0.0000 S   0  0  0  0  0  0  0  0  0  0  0  0
    2.7583    1.7583    0.0000 C   0  0  0  0  0  0  0  0  0  0  0  0
   -0.7792    0.4833    0.0000 N   0  0  0  0  0  0  0  0  0  0  0  0
    3.3583    2.5625    0.0000 N   0  0  0  0  0  0  0  0  0  0  0  0
   -0.1167   -0.2250    0.0000 C   0  0  0  0  0  0  0  0  0  0  0  0
    0.4792    1.6625    0.0000 C   0  0  0  0  0  0  0  0  0  0  0  0
    3.4208   -0.3542    0.0000 N   0  0  0  0  0  0  0  0  0  0  0  0
   -0.4833    1.4417    0.0000 C   0  0  0  0  0  0  0  0  0  0  0  0
   -1.7917    0.2958    0.0000 C   0  0  0  0  0  0  0  0  0  0  0  0
   -2.1208   -0.6583    0.0000 C   0  0  0  0  0  0  0  0  0  0  0  0
   -1.4583   -1.4125    0.0000 C   0  0  0  0  0  0  0  0  0  0  0  0
   -3.0917   -0.8500    0.0000 C   0  0  0  0  0  0  0  0  0  0  0  0
   -3.4250   -1.8125    0.0000 C   0  0  0  0  0  0  0  0  0  0  0  0
   -1.7917   -2.3417    0.0000 C   0  0  0  0  0  0  0  0  0  0  0  0
   -2.7625   -2.5583    0.0000 C   0  0  0  0  0  0  0  0  0  0  0  0
  1  2  2  0
  3  4  2  0
  1  4  1  0
  2  5  1  0
  1  6  1  0
  7 12  1  0
  6  8  3  0
  3  9  1  0
  4 10  1  0
  2 11  1  0
 10 12  1  0
  7 13  1  0
 13 14  1  0
 14 15  1  0
 14 16  2  0
 16 17  1  0
 15 18  2  0
 18 19  1  0
  3  5  1  0
  7  9  1  0
 17 19  2  0
M  END
>  <MOLFORMULA>  (437) 
C15 H15 N3 S

>  <MOLWEIGHT>  (437) 
2.693705000000000e+002

>  <IDNUMBER>  (437) 
AN-153/NB12164

>  <PRICE>  (437) 
EUR 130/10 mg

>  <Similarity score>  (437) 
0.19

$$$$

     RDKit          2D

 19 21  0  0  0  0  0  0  0  0999 V2000
    1.4292    0.2000    0.0000 C   0  0  0  0  0  0  0  0  0  0  0  0
    1.4292   -0.5500    0.0000 C   0  0  0  0  0  0  0  0  0  0  0  0
    0.1167   -0.5500    0.0000 C   0  0  0  0  0  0  0  0  0  0  0  0
    0.1167    0.2083    0.0000 C   0  0  0  0  0  0  0  0  0  0  0  0
    0.7750   -0.9250    0.0000 S   0  0  0  0  0  0  0  0  0  0  0  0
    2.0667    0.5833    0.0000 C   0  0  0  0  0  0  0  0  0  0  0  0
   -1.1833   -0.5500    0.0000 N   0  0  0  0  0  0  0  0  0  0  0  0
    2.7292    0.2208    0.0000 N   0  0  0  0  0  0  0  0  0  0  0  0
   -0.5333   -0.9250    0.0000 C   0  0  0  0  0  0  0  0  0  0  0  0
   -0.5333    0.5833    0.0000 C   0  0  0  0  0  0  0  0  0  0  0  0
    2.0792   -0.9250    0.0000 N   0  0  0  0  0  0  0  0  0  0  0  0
   -1.1833    0.2083    0.0000 C   0  0  0  0  0  0  0  0  0  0  0  0
   -1.8333   -0.9250    0.0000 C   0  0  0  0  0  0  0  0  0  0  0  0
   -2.4833   -0.5500    0.0000 C   0  0  0  0  0  0  0  0  0  0  0  0
   -3.1333   -0.9250    0.0000 C   0  0  0  0  0  0  0  0  0  0  0  0
   -2.4833    0.2000    0.0000 C   0  0  0  0  0  0  0  0  0  0  0  0
   -3.1333    0.5750    0.0000 C   0  0  0  0  0  0  0  0  0  0  0  0
   -3.7833   -0.5500    0.0000 C   0  0  0  0  0  0  0  0  0  0  0  0
   -3.7833    0.2000    0.0000 C   0  0  0  0  0  0  0  0  0  0  0  0
  1  2  2  0
  3  4  2  0
  1  4  1  0
  2  5  1  0
  1  6  1  0
  7 12  1  0
  6  8  3  0
  3  9  1  0
  4 10  1  0
  2 11  1  0
 10 12  1  0
  7 13  1  0
 13 14  1  0
 14 15  2  0
 14 16  1  0
 16 17  2  0
 15 18  1  0
 17 19  1  0
  3  5  1  0
  7  9  1  0
 18 19  2  0
M  END
>  <MOLFORMULA>  (438) 
C15 H15 N3 S

>  <MOLWEIGHT>  (438) 
2.693705000000000e+002

>  <IDNUMBER>  (438) 
AT-225/JK18545

>  <PRICE>  (438) 
EUR 140/10 mg

>  <Similarity score>  (438) 
0.19

$$$$

     RDKit          2D

 23 26  0  0  0  0  0  0  0  0999 V2000
    4.0000   -2.2792    0.0000 N   0  0  0  0  0  0  0  0  0  0  0  0
    4.4875   -2.9417    0.0000 C   0  0  0  0  0  0  0  0  0  0  0  0
    3.2125   -2.5375    0.0000 C   0  0  0  0  0  0  0  0  0  0  0  0
    5.3167   -2.9417    0.0000 C   0  0  0  0  0  0  0  0  0  0  0  0
    3.2125   -3.3667    0.0000 N   0  0  0  0  0  0  0  0  0  0  0  0
    6.7042   -3.3167    0.0000 N   0  0  0  0  0  0  0  0  0  0  0  0
    7.5000   -3.1042    0.0000 C   0  0  0  0  0  0  0  0  0  0  0  0
    4.0000   -3.6167    0.0000 O   0  0  0  0  0  0  0  0  0  0  0  0
    2.5417   -2.0500    0.0000 C   0  0  0  0  0  0  0  0  0  0  0  0
    8.0917   -3.6875    0.0000 C   0  0  0  0  0  0  0  0  0  0  0  0
    6.1125   -2.7375    0.0000 C   0  0  0  0  0  0  0  0  0  0  0  0
    8.8917   -3.4792    0.0000 C   0  0  0  0  0  0  0  0  0  0  0  0
    2.2042   -1.2917    0.0000 C   0  0  0  0  0  0  0  0  0  0  0  0
    1.7125   -1.9542    0.0000 C   0  0  0  0  0  0  0  0  0  0  0  0
    9.1875   -2.7042    0.0000 S   0  0  0  0  0  0  0  0  0  0  0  0
    7.7167   -2.3042    0.0000 O   0  0  0  0  0  0  0  0  0  0  0  0
   10.0167   -2.7417    0.0000 C   0  0  0  0  0  0  0  0  0  0  0  0
    9.5375   -4.0000    0.0000 C   0  0  0  0  0  0  0  0  0  0  0  0
   10.2292   -3.5417    0.0000 C   0  0  0  0  0  0  0  0  0  0  0  0
    5.1000   -3.7500    0.0000 C   0  0  0  0  0  0  0  0  0  0  0  0
    5.6375   -2.1792    0.0000 C   0  0  0  0  0  0  0  0  0  0  0  0
    6.4875   -4.1250    0.0000 C   0  0  0  0  0  0  0  0  0  0  0  0
    5.6875   -4.3292    0.0000 C   0  0  0  0  0  0  0  0  0  0  0  0
  1  2  2  0
  1  3  1  0
  2  4  1  0
  3  5  2  0
  6 11  1  0
  6  7  1  0
  2  8  1  0
  3  9  1  0
  7 10  1  0
  4 11  1  0
 10 12  1  0
  9 13  1  0
  9 14  1  0
 12 15  1  0
  7 16  2  0
 15 17  1  0
 12 18  2  0
 18 19  1  0
  4 20  1  0
  4 21  1  0
 22 23  1  0
 20 23  1  0
  5  8  1  0
 13 14  1  0
  6 22  1  0
 17 19  2  0
M  END
>  <MOLFORMULA>  (439) 
C17 H21 N3 O2 S

>  <MOLWEIGHT>  (439) 
3.314379000000000e+002

>  <IDNUMBER>  (439) 
AT-687/SK17710

>  <PRICE>  (439) 
EUR 80/10 mg

>  <Similarity score>  (439) 
0.19

$$$$

     RDKit          2D

 17 18  0  0  0  0  0  0  0  0999 V2000
    0.1375    0.9458    0.0000 C   0  0  0  0  0  0  0  0  0  0  0  0
    0.1375    0.2833    0.0000 C   0  0  0  0  0  0  0  0  0  0  0  0
   -1.0208    0.2833    0.0000 C   0  0  0  0  0  0  0  0  0  0  0  0
   -1.0208    0.9458    0.0000 C   0  0  0  0  0  0  0  0  0  0  0  0
   -0.4458   -0.0500    0.0000 S   0  0  0  0  0  0  0  0  0  0  0  0
    0.7500    1.2833    0.0000 C   0  0  0  0  0  0  0  0  0  0  0  0
   -1.6000   -0.0500    0.0000 C   0  0  0  0  0  0  0  0  0  0  0  0
    1.3542    1.6208    0.0000 N   0  0  0  0  0  0  0  0  0  0  0  0
   -1.6000    1.2708    0.0000 C   0  0  0  0  0  0  0  0  0  0  0  0
   -2.1833    0.2833    0.0000 C   0  0  0  0  0  0  0  0  0  0  0  0
   -2.7958   -0.0667    0.0000 C   0  0  0  0  0  0  0  0  0  0  0  0
    0.7500   -0.0667    0.0000 N   0  0  0  0  0  0  0  0  0  0  0  0
   -2.1833    0.9458    0.0000 C   0  0  0  0  0  0  0  0  0  0  0  0
   -3.4833   -0.3542    0.0000 C   0  0  0  0  0  0  0  0  0  0  0  0
   -3.0458    0.5208    0.0000 C   0  0  0  0  0  0  0  0  0  0  0  0
   -2.5000   -0.7375    0.0000 C   0  0  0  0  0  0  0  0  0  0  0  0
   -3.5625   -1.0542    0.0000 C   0  0  0  0  0  0  0  0  0  0  0  0
  1  2  2  0
  3  4  2  0
  1  4  1  0
  2  5  1  0
  1  6  1  0
  3  7  1  0
  6  8  3  0
  4  9  1  0
 10 13  1  0
 10 11  1  0
  2 12  1  0
  9 13  1  0
 11 14  1  0
 11 15  1  0
 11 16  1  0
 14 17  1  0
  3  5  1  0
  7 10  1  0
M  END
>  <MOLFORMULA>  (440) 
C14 H20 N2 S

>  <MOLWEIGHT>  (440) 
2.483920000000000e+002

>  <IDNUMBER>  (440) 
AT-225/JK21280

>  <PRICE>  (440) 
EUR 140/10 mg

>  <Similarity score>  (440) 
0.19

$$$$

     RDKit          2D

 23 26  0  0  0  0  0  0  0  0999 V2000
    3.6667   -1.5750    0.0000 N   0  0  0  0  0  0  0  0  0  0  0  0
    4.4500   -2.6500    0.0000 C   0  0  0  0  0  0  0  0  0  0  0  0
    2.4000   -1.9917    0.0000 C   0  0  0  0  0  0  0  0  0  0  0  0
    5.7750   -2.6500    0.0000 C   0  0  0  0  0  0  0  0  0  0  0  0
    2.4000   -3.3250    0.0000 N   0  0  0  0  0  0  0  0  0  0  0  0
    8.0000   -3.2292    0.0000 N   0  0  0  0  0  0  0  0  0  0  0  0
    3.6667   -3.7167    0.0000 O   0  0  0  0  0  0  0  0  0  0  0  0
    9.2792   -2.9042    0.0000 C   0  0  0  0  0  0  0  0  0  0  0  0
    1.3250   -1.2042    0.0000 C   0  0  0  0  0  0  0  0  0  0  0  0
    7.0500   -2.3042    0.0000 C   0  0  0  0  0  0  0  0  0  0  0  0
    0.7750   -0.0000    0.0000 C   0  0  0  0  0  0  0  0  0  0  0  0
    0.0000   -1.0667    0.0000 C   0  0  0  0  0  0  0  0  0  0  0  0
   10.8917   -1.2750    0.0000 C   0  0  0  0  0  0  0  0  0  0  0  0
   12.7250   -0.0917    0.0000 S   0  0  0  0  0  0  0  0  0  0  0  0
    9.6250   -1.6250    0.0000 C   0  0  0  0  0  0  0  0  0  0  0  0
   11.3917   -0.0292    0.0000 C   0  0  0  0  0  0  0  0  0  0  0  0
   10.2250   -3.8417    0.0000 O   0  0  0  0  0  0  0  0  0  0  0  0
   13.0667   -1.3917    0.0000 C   0  0  0  0  0  0  0  0  0  0  0  0
   11.9500   -2.1167    0.0000 C   0  0  0  0  0  0  0  0  0  0  0  0
    5.4250   -3.9417    0.0000 C   0  0  0  0  0  0  0  0  0  0  0  0
    6.2750   -1.4167    0.0000 C   0  0  0  0  0  0  0  0  0  0  0  0
    7.6500   -4.5417    0.0000 C   0  0  0  0  0  0  0  0  0  0  0  0
    6.3750   -4.8667    0.0000 C   0  0  0  0  0  0  0  0  0  0  0  0
  1  2  2  0
  1  3  1  0
  2  4  1  0
  3  5  2  0
  6 10  1  0
  2  7  1  0
  6  8  1  0
  3  9  1  0
  4 10  1  0
  9 11  1  0
  9 12  1  0
 13 15  1  0
 14 16  1  0
  8 15  1  0
 13 16  2  0
  8 17  2  0
 18 19  2  0
 13 19  1  0
  4 20  1  0
  4 21  1  0
 22 23  1  0
 20 23  1  0
  5  7  1  0
 11 12  1  0
  6 22  1  0
 14 18  1  0
M  END
>  <MOLFORMULA>  (441) 
C17 H21 N3 O2 S

>  <MOLWEIGHT>  (441) 
3.314379000000000e+002

>  <IDNUMBER>  (441) 
AT-687/PE19316

>  <PRICE>  (441) 
EUR 80/10 mg

>  <Similarity score>  (441) 
0.19

$$$$

     RDKit          2D

 23 26  0  0  0  0  0  0  0  0999 V2000
    2.2542   -2.7167    0.0000 N   0  0  0  0  0  0  0  0  0  0  0  0
    2.7500   -2.0417    0.0000 C   0  0  0  0  0  0  0  0  0  0  0  0
    1.4750   -2.4542    0.0000 C   0  0  0  0  0  0  0  0  0  0  0  0
    3.5750   -2.0417    0.0000 C   0  0  0  0  0  0  0  0  0  0  0  0
    4.9625   -1.6667    0.0000 N   0  0  0  0  0  0  0  0  0  0  0  0
    1.4750   -1.6292    0.0000 N   0  0  0  0  0  0  0  0  0  0  0  0
    5.7667   -1.8875    0.0000 C   0  0  0  0  0  0  0  0  0  0  0  0
    2.2542   -1.3792    0.0000 O   0  0  0  0  0  0  0  0  0  0  0  0
    0.8042   -2.9417    0.0000 C   0  0  0  0  0  0  0  0  0  0  0  0
    4.3792   -2.2542    0.0000 C   0  0  0  0  0  0  0  0  0  0  0  0
    0.4667   -3.7000    0.0000 C   0  0  0  0  0  0  0  0  0  0  0  0
   -0.0208   -3.0292    0.0000 C   0  0  0  0  0  0  0  0  0  0  0  0
    6.3500   -1.3042    0.0000 C   0  0  0  0  0  0  0  0  0  0  0  0
    7.1500   -1.5125    0.0000 N   0  0  0  0  0  0  0  0  0  0  0  0
    5.9792   -2.6792    0.0000 O   0  0  0  0  0  0  0  0  0  0  0  0
    4.7542   -0.8667    0.0000 C   0  0  0  0  0  0  0  0  0  0  0  0
    3.3667   -1.2417    0.0000 C   0  0  0  0  0  0  0  0  0  0  0  0
    3.8917   -2.8042    0.0000 C   0  0  0  0  0  0  0  0  0  0  0  0
    3.9500   -0.6542    0.0000 C   0  0  0  0  0  0  0  0  0  0  0  0
    7.7417   -0.9292    0.0000 C   0  0  0  0  0  0  0  0  0  0  0  0
    6.1292   -0.5000    0.0000 C   0  0  0  0  0  0  0  0  0  0  0  0
    7.5167   -0.1250    0.0000 C   0  0  0  0  0  0  0  0  0  0  0  0
    6.7250    0.0833    0.0000 C   0  0  0  0  0  0  0  0  0  0  0  0
  1  2  2  0
  1  3  1  0
  2  4  1  0
  5 10  1  0
  3  6  2  0
  5  7  1  0
  2  8  1  0
  3  9  1  0
  4 10  1  0
  9 11  1  0
  9 12  1  0
  7 13  1  0
 13 14  2  0
  7 15  2  0
 16 19  1  0
  4 17  1  0
  4 18  1  0
 17 19  1  0
 14 20  1  0
 13 21  1  0
 22 23  1  0
 21 23  2  0
  6  8  1  0
 11 12  1  0
  5 16  1  0
 20 22  2  0
M  END
>  <MOLFORMULA>  (442) 
C17 H20 N4 O2

>  <MOLWEIGHT>  (442) 
3.123710000000000e+002

>  <IDNUMBER>  (442) 
AT-687/SK17711

>  <PRICE>  (442) 
EUR 80/10 mg

>  <Similarity score>  (442) 
0.19

$$$$

     RDKit          2D

 13 14  0  0  0  0  0  0  0  0999 V2000
    0.9042    0.3458    0.0000 C   0  0  0  0  0  0  0  0  0  0  0  0
    1.1500   -0.3375    0.0000 C   0  0  0  0  0  0  0  0  0  0  0  0
    0.2000    0.3458    0.0000 C   0  0  0  0  0  0  0  0  0  0  0  0
    0.0000   -0.3375    0.0000 C   0  0  0  0  0  0  0  0  0  0  0  0
    0.5875   -0.7542    0.0000 S   0  0  0  0  0  0  0  0  0  0  0  0
    1.3292    0.9458    0.0000 C   0  0  0  0  0  0  0  0  0  0  0  0
    1.7292    1.5333    0.0000 N   0  0  0  0  0  0  0  0  0  0  0  0
   -1.1958    0.0125    0.0000 N   0  0  0  0  0  0  0  0  0  0  0  0
   -0.7125   -0.5042    0.0000 C   0  0  0  0  0  0  0  0  0  0  0  0
   -0.2958    0.8708    0.0000 C   0  0  0  0  0  0  0  0  0  0  0  0
    1.8500   -0.5667    0.0000 N   0  0  0  0  0  0  0  0  0  0  0  0
   -0.9833    0.7125    0.0000 C   0  0  0  0  0  0  0  0  0  0  0  0
   -1.8958   -0.1667    0.0000 C   0  0  0  0  0  0  0  0  0  0  0  0
  1  2  2  0
  1  3  1  0
  3  4  2  0
  2  5  1  0
  1  6  1  0
  6  7  3  0
  8 12  1  0
  4  9  1  0
  3 10  1  0
  2 11  1  0
 10 12  1  0
  8 13  1  0
  4  5  1  0
  8  9  1  0
M  END
>  <MOLFORMULA>  (443) 
C9 H11 N3 S

>  <MOLWEIGHT>  (443) 
1.932729000000000e+002

>  <IDNUMBER>  (443) 
AT-225/JK15585

>  <PRICE>  (443) 
EUR 140/10 mg

>  <Similarity score>  (443) 
0.19

$$$$

     RDKit          2D

 13 14  0  0  0  0  0  0  0  0999 V2000
    7.0667   -2.7917    0.0000 C   0  0  0  0  0  0  0  0  0  0  0  0
    7.3167   -3.5750    0.0000 C   0  0  0  0  0  0  0  0  0  0  0  0
    6.2417   -2.7917    0.0000 C   0  0  0  0  0  0  0  0  0  0  0  0
    5.9917   -3.5750    0.0000 C   0  0  0  0  0  0  0  0  0  0  0  0
    6.6625   -4.0542    0.0000 S   0  0  0  0  0  0  0  0  0  0  0  0
    7.5542   -2.1167    0.0000 C   0  0  0  0  0  0  0  0  0  0  0  0
    8.0417   -1.4500    0.0000 N   0  0  0  0  0  0  0  0  0  0  0  0
    4.6292   -3.1375    0.0000 N   0  0  0  0  0  0  0  0  0  0  0  0
    5.1875   -3.7500    0.0000 C   0  0  0  0  0  0  0  0  0  0  0  0
    5.6917   -2.1792    0.0000 C   0  0  0  0  0  0  0  0  0  0  0  0
    8.1042   -3.8292    0.0000 N   0  0  0  0  0  0  0  0  0  0  0  0
    4.8917   -2.3542    0.0000 C   0  0  0  0  0  0  0  0  0  0  0  0
    3.8167   -3.3042    0.0000 C   0  0  0  0  0  0  0  0  0  0  0  0
  1  2  2  0
  1  3  1  0
  3  4  2  0
  2  5  1  0
  1  6  1  0
  6  7  3  0
  8 12  1  0
  4  9  1  0
  3 10  1  0
  2 11  1  0
 10 12  1  0
  8 13  1  0
  4  5  1  0
  8  9  1  0
M  END
>  <MOLFORMULA>  (444) 
C9 H11 N3 S

>  <MOLWEIGHT>  (444) 
1.932729000000000e+002

>  <IDNUMBER>  (444) 
AT-687/SK15998

>  <PRICE>  (444) 
EUR 80/10 mg

>  <Similarity score>  (444) 
0.19

$$$$

     RDKit          2D

 13 14  0  0  0  0  0  0  0  0999 V2000
   -1.1750   -0.3542    0.0000 C   0  0  0  0  0  0  0  0  0  0  0  0
   -1.5833    0.5583    0.0000 C   0  0  0  0  0  0  0  0  0  0  0  0
   -0.1833   -0.2500    0.0000 C   0  0  0  0  0  0  0  0  0  0  0  0
    0.0250    0.7250    0.0000 C   0  0  0  0  0  0  0  0  0  0  0  0
   -0.8375    1.2250    0.0000 S   0  0  0  0  0  0  0  0  0  0  0  0
   -1.6750   -1.2208    0.0000 C   0  0  0  0  0  0  0  0  0  0  0  0
   -2.6750   -1.2208    0.0000 N   0  0  0  0  0  0  0  0  0  0  0  0
    1.7208    0.3667    0.0000 N   0  0  0  0  0  0  0  0  0  0  0  0
    0.9792    1.0375    0.0000 C   0  0  0  0  0  0  0  0  0  0  0  0
    0.5625   -0.9208    0.0000 C   0  0  0  0  0  0  0  0  0  0  0  0
   -2.5625    0.7667    0.0000 N   0  0  0  0  0  0  0  0  0  0  0  0
    1.5125   -0.6125    0.0000 C   0  0  0  0  0  0  0  0  0  0  0  0
    2.6708    0.6750    0.0000 C   0  0  0  0  0  0  0  0  0  0  0  0
  1  2  2  0
  1  3  1  0
  3  4  2  0
  2  5  1  0
  1  6  1  0
  6  7  3  0
  8 12  1  0
  4  9  1  0
  3 10  1  0
  2 11  1  0
 10 12  1  0
  8 13  1  0
  4  5  1  0
  8  9  1  0
M  END
>  <MOLFORMULA>  (445) 
C9 H11 N3 S

>  <MOLWEIGHT>  (445) 
1.932729000000000e+002

>  <IDNUMBER>  (445) 
AN-153/I108034

>  <PRICE>  (445) 
EUR 130/10 mg

>  <Similarity score>  (445) 
0.19

$$$$

     RDKit          2D

 19 20  0  0  0  0  0  0  0  0999 V2000
    2.3667   -5.3542    0.0000 C   0  0  0  0  0  0  0  0  0  0  0  0
    2.8542   -6.0250    0.0000 C   0  0  0  0  0  0  0  0  0  0  0  0
    1.5875   -6.4292    0.0000 C   0  0  0  0  0  0  0  0  0  0  0  0
    1.5875   -5.6042    0.0000 C   0  0  0  0  0  0  0  0  0  0  0  0
    2.3667   -6.6875    0.0000 S   0  0  0  0  0  0  0  0  0  0  0  0
   -0.5625   -6.8542    0.0000 C   0  0  0  0  0  0  0  0  0  0  0  0
    0.1542   -6.4292    0.0000 N   0  0  0  0  0  0  0  0  0  0  0  0
    0.8750   -6.8417    0.0000 C   0  0  0  0  0  0  0  0  0  0  0  0
    2.6250   -4.5667    0.0000 C   0  0  0  0  0  0  0  0  0  0  0  0
    2.8792   -3.7792    0.0000 N   0  0  0  0  0  0  0  0  0  0  0  0
    0.8750   -5.1917    0.0000 C   0  0  0  0  0  0  0  0  0  0  0  0
   -1.2833   -6.4417    0.0000 O   0  0  0  0  0  0  0  0  0  0  0  0
    0.1542   -5.6042    0.0000 C   0  0  0  0  0  0  0  0  0  0  0  0
   -0.5583   -7.6792    0.0000 O   0  0  0  0  0  0  0  0  0  0  0  0
    3.6792   -6.0292    0.0000 N   0  0  0  0  0  0  0  0  0  0  0  0
   -1.9958   -6.8542    0.0000 C   0  0  0  0  0  0  0  0  0  0  0  0
   -2.7125   -7.2792    0.0000 C   0  0  0  0  0  0  0  0  0  0  0  0
   -2.4208   -6.1417    0.0000 C   0  0  0  0  0  0  0  0  0  0  0  0
   -1.5750   -7.5750    0.0000 C   0  0  0  0  0  0  0  0  0  0  0  0
  1  2  2  0
  3  4  2  0
  1  4  1  0
  2  5  1  0
  6  7  1  0
  7 13  1  0
  3  8  1  0
  1  9  1  0
  9 10  3  0
  4 11  1  0
  6 12  1  0
 11 13  1  0
  6 14  2  0
  2 15  1  0
 12 16  1  0
 16 17  1  0
 16 18  1  0
 16 19  1  0
  3  5  1  0
  7  8  1  0
M  END
>  <MOLFORMULA>  (446) 
C13 H17 N3 O2 S

>  <MOLWEIGHT>  (446) 
2.793623000000000e+002

>  <IDNUMBER>  (446) 
AT-687/SK08594

>  <PRICE>  (446) 
EUR 80/10 mg

>  <Similarity score>  (446) 
0.18

$$$$

     RDKit          2D

 27 30  0  0  0  0  0  0  0  0999 V2000
    2.0667   -3.2000    0.0000 C   0  0  0  0  0  0  0  0  0  0  0  0
    1.3625   -2.7917    0.0000 C   0  0  0  0  0  0  0  0  0  0  0  0
    0.7417   -3.3417    0.0000 C   0  0  0  0  0  0  0  0  0  0  0  0
    1.8917   -4.0042    0.0000 C   0  0  0  0  0  0  0  0  0  0  0  0
    1.0792   -4.0917    0.0000 S   0  0  0  0  0  0  0  0  0  0  0  0
    2.7875    0.5083    0.0000 C   0  0  0  0  0  0  0  0  0  0  0  0
    2.7875   -0.3125    0.0000 C   0  0  0  0  0  0  0  0  0  0  0  0
    3.5667    0.7583    0.0000 S   0  0  0  0  0  0  0  0  0  0  0  0
    3.5667   -0.5667    0.0000 C   0  0  0  0  0  0  0  0  0  0  0  0
    4.0500    0.1000    0.0000 C   0  0  0  0  0  0  0  0  0  0  0  0
    2.0667   -0.7167    0.0000 C   0  0  0  0  0  0  0  0  0  0  0  0
    2.0667    0.9250    0.0000 N   0  0  0  0  0  0  0  0  0  0  0  0
   -0.0625   -3.1917    0.0000 C   0  0  0  0  0  0  0  0  0  0  0  0
    2.8417   -2.8667    0.0000 C   0  0  0  0  0  0  0  0  0  0  0  0
    1.3625   -1.9625    0.0000 C   0  0  0  0  0  0  0  0  0  0  0  0
    1.3625   -0.3125    0.0000 N   0  0  0  0  0  0  0  0  0  0  0  0
    3.6000   -2.5375    0.0000 N   0  0  0  0  0  0  0  0  0  0  0  0
    2.0667   -1.5417    0.0000 S   0  0  0  0  0  0  0  0  0  0  0  0
    1.3625    0.5083    0.0000 C   0  0  0  0  0  0  0  0  0  0  0  0
    2.4417   -4.6292    0.0000 N   0  0  0  0  0  0  0  0  0  0  0  0
   -0.3375   -2.4167    0.0000 O   0  0  0  0  0  0  0  0  0  0  0  0
   -0.6000   -3.8167    0.0000 O   0  0  0  0  0  0  0  0  0  0  0  0
    4.0542   -1.2375    0.0000 C   0  0  0  0  0  0  0  0  0  0  0  0
    4.8417   -0.1417    0.0000 C   0  0  0  0  0  0  0  0  0  0  0  0
    4.8417   -0.9667    0.0000 C   0  0  0  0  0  0  0  0  0  0  0  0
   -0.3250   -4.5917    0.0000 C   0  0  0  0  0  0  0  0  0  0  0  0
   -0.8583   -5.2167    0.0000 C   0  0  0  0  0  0  0  0  0  0  0  0
  1  2  1  0
  2  3  2  0
  1  4  2  0
  4  5  1  0
  6  7  1  0
  7 11  2  0
  6  8  1  0
  7  9  1  0
  9 10  2  0
 11 18  1  0
 12 19  1  0
  3 13  1  0
  1 14  1  0
  2 15  1  0
 11 16  1  0
 14 17  3  0
 15 18  1  0
 16 19  2  0
  4 20  1  0
 13 21  2  0
 13 22  1  0
  9 23  1  0
 10 24  1  0
 23 25  1  0
 22 26  1  0
 26 27  1  0
  3  5  1  0
  6 12  2  0
  8 10  1  0
 24 25  1  0
M  END
>  <MOLFORMULA>  (447) 
C18 H16 N4 O2 S3

>  <MOLWEIGHT>  (447) 
4.165484000000000e+002

>  <IDNUMBER>  (447) 
AT-687/SK06793

>  <PRICE>  (447) 
EUR 80/10 mg

>  <Similarity score>  (447) 
0.18

$$$$

     RDKit          2D

 23 26  0  0  0  0  0  0  0  0999 V2000
    1.1917   -0.2542    0.0000 N   0  0  0  0  0  0  0  0  0  0  0  0
    1.6792   -0.9292    0.0000 C   0  0  0  0  0  0  0  0  0  0  0  0
    0.4125   -0.5125    0.0000 C   0  0  0  0  0  0  0  0  0  0  0  0
    2.5042   -0.9292    0.0000 C   0  0  0  0  0  0  0  0  0  0  0  0
    3.8875   -1.2917    0.0000 N   0  0  0  0  0  0  0  0  0  0  0  0
    0.4125   -1.3417    0.0000 N   0  0  0  0  0  0  0  0  0  0  0  0
    4.6917   -1.0792    0.0000 C   0  0  0  0  0  0  0  0  0  0  0  0
    1.1917   -1.5875    0.0000 O   0  0  0  0  0  0  0  0  0  0  0  0
   -0.2500   -0.0292    0.0000 C   0  0  0  0  0  0  0  0  0  0  0  0
    3.3042   -0.7125    0.0000 C   0  0  0  0  0  0  0  0  0  0  0  0
    5.2667   -1.6667    0.0000 C   0  0  0  0  0  0  0  0  0  0  0  0
   -1.0708    0.0625    0.0000 C   0  0  0  0  0  0  0  0  0  0  0  0
   -0.5875    0.7250    0.0000 C   0  0  0  0  0  0  0  0  0  0  0  0
    5.0542   -2.4667    0.0000 N   0  0  0  0  0  0  0  0  0  0  0  0
    4.9000   -0.2875    0.0000 O   0  0  0  0  0  0  0  0  0  0  0  0
    6.6542   -2.0292    0.0000 N   0  0  0  0  0  0  0  0  0  0  0  0
    3.6792   -2.0917    0.0000 C   0  0  0  0  0  0  0  0  0  0  0  0
    2.2917   -1.7167    0.0000 C   0  0  0  0  0  0  0  0  0  0  0  0
    6.0667   -1.4542    0.0000 C   0  0  0  0  0  0  0  0  0  0  0  0
    2.8250   -0.1667    0.0000 C   0  0  0  0  0  0  0  0  0  0  0  0
    2.8792   -2.3125    0.0000 C   0  0  0  0  0  0  0  0  0  0  0  0
    5.6417   -3.0417    0.0000 C   0  0  0  0  0  0  0  0  0  0  0  0
    6.4375   -2.8375    0.0000 C   0  0  0  0  0  0  0  0  0  0  0  0
  1  2  2  0
  1  3  1  0
  2  4  1  0
  5 10  1  0
  3  6  2  0
  5  7  1  0
  2  8  1  0
  3  9  1  0
  4 10  1  0
  7 11  1  0
  9 12  1  0
  9 13  1  0
 11 14  2  0
  7 15  2  0
 16 19  2  0
 17 21  1  0
  4 18  1  0
 11 19  1  0
  4 20  1  0
 18 21  1  0
 14 22  1  0
 16 23  1  0
  6  8  1  0
 12 13  1  0
  5 17  1  0
 22 23  2  0
M  END
>  <MOLFORMULA>  (448) 
C16 H19 N5 O2

>  <MOLWEIGHT>  (448) 
3.133591000000000e+002

>  <IDNUMBER>  (448) 
AT-687/SK17712

>  <PRICE>  (448) 
EUR 80/10 mg

>  <Similarity score>  (448) 
0.18

$$$$

     RDKit          2D

 27 30  0  0  0  0  0  0  0  0999 V2000
    2.6125    1.3000    0.0000 C   0  0  0  0  0  0  0  0  0  0  0  0
    3.6083    1.4042    0.0000 C   0  0  0  0  0  0  0  0  0  0  0  0
    2.2083    2.2167    0.0000 S   0  0  0  0  0  0  0  0  0  0  0  0
    3.8167    2.3833    0.0000 C   0  0  0  0  0  0  0  0  0  0  0  0
   -0.8875   -1.2958    0.0000 C   0  0  0  0  0  0  0  0  0  0  0  0
   -1.8792   -1.4000    0.0000 N   0  0  0  0  0  0  0  0  0  0  0  0
    2.9500    2.8833    0.0000 C   0  0  0  0  0  0  0  0  0  0  0  0
   -0.4792   -2.2125    0.0000 N   0  0  0  0  0  0  0  0  0  0  0  0
    2.1125    0.4333    0.0000 N   0  0  0  0  0  0  0  0  0  0  0  0
   -2.0875   -2.3792    0.0000 C   0  0  0  0  0  0  0  0  0  0  0  0
    4.2792    0.6625    0.0000 C   0  0  0  0  0  0  0  0  0  0  0  0
   -1.2208   -2.8792    0.0000 C   0  0  0  0  0  0  0  0  0  0  0  0
    3.9667   -0.2875    0.0000 N   0  0  0  0  0  0  0  0  0  0  0  0
    1.1125    0.4333    0.0000 C   0  0  0  0  0  0  0  0  0  0  0  0
   -2.9542   -2.8792    0.0000 C   0  0  0  0  0  0  0  0  0  0  0  0
   -0.3875   -0.4292    0.0000 S   0  0  0  0  0  0  0  0  0  0  0  0
    0.6125    1.3000    0.0000 O   0  0  0  0  0  0  0  0  0  0  0  0
   -1.2208   -3.8792    0.0000 C   0  0  0  0  0  0  0  0  0  0  0  0
    0.6125   -0.4292    0.0000 C   0  0  0  0  0  0  0  0  0  0  0  0
   -2.9542   -3.8792    0.0000 C   0  0  0  0  0  0  0  0  0  0  0  0
   -2.0875   -4.3792    0.0000 C   0  0  0  0  0  0  0  0  0  0  0  0
    4.6833    2.8833    0.0000 C   0  0  0  0  0  0  0  0  0  0  0  0
    2.9500    3.8833    0.0000 C   0  0  0  0  0  0  0  0  0  0  0  0
   -3.8208   -4.3792    0.0000 O   0  0  0  0  0  0  0  0  0  0  0  0
   -4.6875   -3.8792    0.0000 C   0  0  0  0  0  0  0  0  0  0  0  0
    4.6833    3.8833    0.0000 C   0  0  0  0  0  0  0  0  0  0  0  0
    3.8167    4.3792    0.0000 C   0  0  0  0  0  0  0  0  0  0  0  0
  1  2  2  0
  1  3  1  0
  2  4  1  0
  5 16  1  0
  5  6  2  0
  3  7  1  0
  5  8  1  0
  1  9  1  0
  6 10  1  0
  2 11  1  0
  8 12  1  0
 11 13  3  0
  9 14  1  0
 10 15  1  0
 16 19  1  0
 14 17  2  0
 12 18  1  0
 14 19  1  0
 15 20  2  0
 18 21  2  0
  4 22  1  0
  7 23  1  0
 20 24  1  0
 24 25  1  0
 22 26  1  0
 23 27  1  0
  4  7  2  0
 26 27  1  0
 10 12  2  0
 20 21  1  0
M  END
>  <MOLFORMULA>  (449) 
C19 H18 N4 O2 S2

>  <MOLWEIGHT>  (449) 
3.985092000000000e+002

>  <IDNUMBER>  (449) 
AN-153/I137971

>  <PRICE>  (449) 
EUR 130/10 mg

>  <Similarity score>  (449) 
0.18

$$$$

     RDKit          2D

 12 13  0  0  0  0  0  0  0  0999 V2000
    2.1125   -2.4125    0.0000 C   0  0  0  0  0  0  0  0  0  0  0  0
    1.3292   -1.3292    0.0000 C   0  0  0  0  0  0  0  0  0  0  0  0
    3.3667   -1.9917    0.0000 C   0  0  0  0  0  0  0  0  0  0  0  0
    2.1125   -0.2542    0.0000 S   0  0  0  0  0  0  0  0  0  0  0  0
    3.3667   -0.6625    0.0000 C   0  0  0  0  0  0  0  0  0  0  0  0
    1.6917   -3.6792    0.0000 C   0  0  0  0  0  0  0  0  0  0  0  0
    1.2875   -4.9375    0.0000 N   0  0  0  0  0  0  0  0  0  0  0  0
    5.6792   -0.6625    0.0000 N   0  0  0  0  0  0  0  0  0  0  0  0
    0.0000   -1.3292    0.0000 N   0  0  0  0  0  0  0  0  0  0  0  0
    4.5292   -0.0000    0.0000 C   0  0  0  0  0  0  0  0  0  0  0  0
    4.5292   -2.6542    0.0000 C   0  0  0  0  0  0  0  0  0  0  0  0
    5.6792   -1.9917    0.0000 C   0  0  0  0  0  0  0  0  0  0  0  0
  1  2  2  0
  1  3  1  0
  2  4  1  0
  3  5  2  0
  1  6  1  0
  6  7  3  0
  8 12  1  0
  2  9  1  0
  5 10  1  0
  3 11  1  0
 11 12  1  0
  4  5  1  0
  8 10  1  0
M  END
>  <MOLFORMULA>  (450) 
C8 H9 N3 S

>  <MOLWEIGHT>  (450) 
1.792461000000000e+002

>  <IDNUMBER>  (450) 
AT-687/SK11951

>  <PRICE>  (450) 
EUR 80/10 mg

>  <Similarity score>  (450) 
0.18

$$$$

     RDKit          2D

 25 28  0  0  0  0  0  0  0  0999 V2000
    3.6500   -3.3000    0.0000 N   0  0  0  0  0  0  0  0  0  0  0  0
    4.4417   -2.2250    0.0000 C   0  0  0  0  0  0  0  0  0  0  0  0
    2.3917   -2.8792    0.0000 C   0  0  0  0  0  0  0  0  0  0  0  0
    5.7750   -2.2250    0.0000 C   0  0  0  0  0  0  0  0  0  0  0  0
    2.3917   -1.5500    0.0000 N   0  0  0  0  0  0  0  0  0  0  0  0
    8.0000   -1.6167    0.0000 N   0  0  0  0  0  0  0  0  0  0  0  0
    3.6500   -1.1417    0.0000 O   0  0  0  0  0  0  0  0  0  0  0  0
    1.3042   -3.6667    0.0000 C   0  0  0  0  0  0  0  0  0  0  0  0
    9.2750   -1.9667    0.0000 C   0  0  0  0  0  0  0  0  0  0  0  0
    7.0542   -2.5542    0.0000 C   0  0  0  0  0  0  0  0  0  0  0  0
    0.7750   -4.8750    0.0000 C   0  0  0  0  0  0  0  0  0  0  0  0
    0.0000   -3.8000    0.0000 C   0  0  0  0  0  0  0  0  0  0  0  0
   10.2292   -1.0250    0.0000 O   0  0  0  0  0  0  0  0  0  0  0  0
    9.6250   -3.2500    0.0000 C   0  0  0  0  0  0  0  0  0  0  0  0
    5.4292   -0.9292    0.0000 C   0  0  0  0  0  0  0  0  0  0  0  0
    6.2917   -3.4500    0.0000 C   0  0  0  0  0  0  0  0  0  0  0  0
    7.6500   -0.3417    0.0000 C   0  0  0  0  0  0  0  0  0  0  0  0
   10.8917   -3.6000    0.0000 C   0  0  0  0  0  0  0  0  0  0  0  0
   11.2667   -4.8750    0.0000 C   0  0  0  0  0  0  0  0  0  0  0  0
    6.3667   -0.0000    0.0000 C   0  0  0  0  0  0  0  0  0  0  0  0
   12.5417   -5.2250    0.0000 C   0  0  0  0  0  0  0  0  0  0  0  0
   10.3250   -5.8292    0.0000 C   0  0  0  0  0  0  0  0  0  0  0  0
   10.6542   -7.1167    0.0000 C   0  0  0  0  0  0  0  0  0  0  0  0
   12.8917   -6.5000    0.0000 C   0  0  0  0  0  0  0  0  0  0  0  0
   11.9500   -7.4542    0.0000 C   0  0  0  0  0  0  0  0  0  0  0  0
  1  2  2  0
  1  3  1  0
  2  4  1  0
  3  5  2  0
  6 10  1  0
  2  7  1  0
  3  8  1  0
  6  9  1  0
  4 10  1  0
  8 11  1  0
  8 12  1  0
  9 13  2  0
  9 14  1  0
  4 15  1  0
  4 16  1  0
 17 20  1  0
 14 18  1  0
 18 19  1  0
 15 20  1  0
 19 21  2  0
 19 22  1  0
 22 23  2  0
 21 24  1  0
 23 25  1  0
  5  7  1  0
 11 12  1  0
  6 17  1  0
 24 25  2  0
M  END
>  <MOLFORMULA>  (451) 
C20 H25 N3 O2

>  <MOLWEIGHT>  (451) 
3.394365000000000e+002

>  <IDNUMBER>  (451) 
AT-687/PE19321

>  <PRICE>  (451) 
EUR 80/10 mg

>  <Similarity score>  (451) 
0.18

$$$$

     RDKit          2D

 26 30  0  0  0  0  0  0  0  0999 V2000
    4.2667   -1.3542    0.0000 N   0  0  0  0  0  0  0  0  0  0  0  0
    4.7500   -2.0125    0.0000 C   0  0  0  0  0  0  0  0  0  0  0  0
    3.4792   -1.6000    0.0000 C   0  0  0  0  0  0  0  0  0  0  0  0
    5.5750   -2.0125    0.0000 C   0  0  0  0  0  0  0  0  0  0  0  0
    6.9542   -2.3792    0.0000 N   0  0  0  0  0  0  0  0  0  0  0  0
    3.4792   -2.4250    0.0000 N   0  0  0  0  0  0  0  0  0  0  0  0
    7.7542   -2.1792    0.0000 C   0  0  0  0  0  0  0  0  0  0  0  0
    4.2667   -2.6792    0.0000 O   0  0  0  0  0  0  0  0  0  0  0  0
    2.8125   -1.1167    0.0000 C   0  0  0  0  0  0  0  0  0  0  0  0
    6.3667   -1.8042    0.0000 C   0  0  0  0  0  0  0  0  0  0  0  0
    8.3417   -2.7542    0.0000 C   0  0  0  0  0  0  0  0  0  0  0  0
    1.9875   -1.0292    0.0000 C   0  0  0  0  0  0  0  0  0  0  0  0
    2.4792   -0.3625    0.0000 C   0  0  0  0  0  0  0  0  0  0  0  0
    8.7125   -4.1292    0.0000 C   0  0  0  0  0  0  0  0  0  0  0  0
    8.1250   -3.5500    0.0000 C   0  0  0  0  0  0  0  0  0  0  0  0
    9.9500   -4.6125    0.0000 N   0  0  0  0  0  0  0  0  0  0  0  0
    9.5042   -3.9167    0.0000 C   0  0  0  0  0  0  0  0  0  0  0  0
    9.4292   -5.2542    0.0000 C   0  0  0  0  0  0  0  0  0  0  0  0
    7.9667   -1.3667    0.0000 O   0  0  0  0  0  0  0  0  0  0  0  0
    8.6542   -4.9625    0.0000 C   0  0  0  0  0  0  0  0  0  0  0  0
    9.1292   -2.5417    0.0000 C   0  0  0  0  0  0  0  0  0  0  0  0
    9.7167   -3.1250    0.0000 C   0  0  0  0  0  0  0  0  0  0  0  0
    6.7417   -3.1792    0.0000 C   0  0  0  0  0  0  0  0  0  0  0  0
    5.3542   -2.8125    0.0000 C   0  0  0  0  0  0  0  0  0  0  0  0
    5.8917   -1.2500    0.0000 C   0  0  0  0  0  0  0  0  0  0  0  0
    5.9417   -3.3917    0.0000 C   0  0  0  0  0  0  0  0  0  0  0  0
  1  2  2  0
  1  3  1  0
  2  4  1  0
  5 10  1  0
  3  6  2  0
  5  7  1  0
  2  8  1  0
  3  9  1  0
  4 10  1  0
  7 11  1  0
  9 12  1  0
  9 13  1  0
 14 15  2  0
 11 15  1  0
 16 17  1  0
 17 22  2  0
 18 20  2  0
  7 19  2  0
 14 20  1  0
 11 21  2  0
 21 22  1  0
 23 26  1  0
  4 24  1  0
  4 25  1  0
 24 26  1  0
  6  8  1  0
 12 13  1  0
  5 23  1  0
 14 17  1  0
 16 18  1  0
M  END
>  <MOLFORMULA>  (452) 
C20 H22 N4 O2

>  <MOLWEIGHT>  (452) 
3.504198000000000e+002

>  <IDNUMBER>  (452) 
AT-687/SK17713

>  <PRICE>  (452) 
EUR 80/10 mg

>  <Similarity score>  (452) 
0.18

$$$$

     RDKit          2D

 22 25  0  0  0  0  0  0  0  0999 V2000
    4.4792   -1.9292    0.0000 N   0  0  0  0  0  0  0  0  0  0  0  0
    4.9667   -2.6042    0.0000 C   0  0  0  0  0  0  0  0  0  0  0  0
    3.7000   -2.1917    0.0000 C   0  0  0  0  0  0  0  0  0  0  0  0
    5.7917   -2.6042    0.0000 C   0  0  0  0  0  0  0  0  0  0  0  0
    7.1667   -2.9750    0.0000 N   0  0  0  0  0  0  0  0  0  0  0  0
    3.7000   -3.0167    0.0000 N   0  0  0  0  0  0  0  0  0  0  0  0
    7.9667   -2.7542    0.0000 C   0  0  0  0  0  0  0  0  0  0  0  0
    8.5417   -3.3417    0.0000 C   0  0  0  0  0  0  0  0  0  0  0  0
    4.4792   -3.2667    0.0000 O   0  0  0  0  0  0  0  0  0  0  0  0
    3.0292   -1.7042    0.0000 C   0  0  0  0  0  0  0  0  0  0  0  0
    6.5875   -2.3875    0.0000 C   0  0  0  0  0  0  0  0  0  0  0  0
    2.2042   -1.6167    0.0000 C   0  0  0  0  0  0  0  0  0  0  0  0
    2.6875   -0.9542    0.0000 C   0  0  0  0  0  0  0  0  0  0  0  0
    9.1542   -4.5292    0.0000 S   0  0  0  0  0  0  0  0  0  0  0  0
    8.4250   -4.1542    0.0000 C   0  0  0  0  0  0  0  0  0  0  0  0
    9.3625   -3.2125    0.0000 C   0  0  0  0  0  0  0  0  0  0  0  0
    8.1792   -1.9667    0.0000 O   0  0  0  0  0  0  0  0  0  0  0  0
    9.7417   -3.9542    0.0000 C   0  0  0  0  0  0  0  0  0  0  0  0
    6.9542   -3.7667    0.0000 C   0  0  0  0  0  0  0  0  0  0  0  0
    5.5750   -3.4000    0.0000 C   0  0  0  0  0  0  0  0  0  0  0  0
    6.1042   -1.8417    0.0000 C   0  0  0  0  0  0  0  0  0  0  0  0
    6.1625   -3.9875    0.0000 C   0  0  0  0  0  0  0  0  0  0  0  0
  1  2  2  0
  1  3  1  0
  2  4  1  0
  5 11  1  0
  3  6  2  0
  5  7  1  0
  7  8  1  0
  2  9  1  0
  3 10  1  0
  4 11  1  0
 10 12  1  0
 10 13  1  0
 14 15  1  0
  8 15  2  0
  8 16  1  0
  7 17  2  0
 16 18  2  0
 19 22  1  0
  4 20  1  0
  4 21  1  0
 20 22  1  0
  6  9  1  0
 12 13  1  0
  5 19  1  0
 14 18  1  0
M  END
>  <MOLFORMULA>  (453) 
C16 H19 N3 O2 S

>  <MOLWEIGHT>  (453) 
3.174111000000000e+002

>  <IDNUMBER>  (453) 
AT-687/SK17714

>  <PRICE>  (453) 
EUR 80/10 mg

>  <Similarity score>  (453) 
0.18

$$$$

     RDKit          2D

 23 26  0  0  0  0  0  0  0  0999 V2000
    4.0125   -3.3417    0.0000 N   0  0  0  0  0  0  0  0  0  0  0  0
    4.5000   -2.6750    0.0000 C   0  0  0  0  0  0  0  0  0  0  0  0
    3.2292   -3.0875    0.0000 C   0  0  0  0  0  0  0  0  0  0  0  0
    5.3250   -2.6750    0.0000 C   0  0  0  0  0  0  0  0  0  0  0  0
    3.2292   -2.2625    0.0000 N   0  0  0  0  0  0  0  0  0  0  0  0
    6.7042   -2.3125    0.0000 N   0  0  0  0  0  0  0  0  0  0  0  0
    4.0125   -2.0125    0.0000 O   0  0  0  0  0  0  0  0  0  0  0  0
    7.5000   -2.5167    0.0000 C   0  0  0  0  0  0  0  0  0  0  0  0
    2.5542   -3.5667    0.0000 C   0  0  0  0  0  0  0  0  0  0  0  0
    6.1167   -2.8917    0.0000 C   0  0  0  0  0  0  0  0  0  0  0  0
    8.8792   -2.1500    0.0000 N   0  0  0  0  0  0  0  0  0  0  0  0
   10.0042   -2.8792    0.0000 N   0  0  0  0  0  0  0  0  0  0  0  0
    2.2292   -4.3167    0.0000 C   0  0  0  0  0  0  0  0  0  0  0  0
    1.7292   -3.6667    0.0000 C   0  0  0  0  0  0  0  0  0  0  0  0
    9.1792   -2.9167    0.0000 C   0  0  0  0  0  0  0  0  0  0  0  0
    8.0875   -1.9375    0.0000 C   0  0  0  0  0  0  0  0  0  0  0  0
   10.2167   -2.0792    0.0000 C   0  0  0  0  0  0  0  0  0  0  0  0
    9.5167   -1.6292    0.0000 C   0  0  0  0  0  0  0  0  0  0  0  0
    7.7167   -3.3125    0.0000 O   0  0  0  0  0  0  0  0  0  0  0  0
    5.1042   -1.8792    0.0000 C   0  0  0  0  0  0  0  0  0  0  0  0
    5.6417   -3.4375    0.0000 C   0  0  0  0  0  0  0  0  0  0  0  0
    6.4875   -1.5042    0.0000 C   0  0  0  0  0  0  0  0  0  0  0  0
    5.6917   -1.3000    0.0000 C   0  0  0  0  0  0  0  0  0  0  0  0
  1  2  2  0
  1  3  1  0
  2  4  1  0
  3  5  2  0
  6 10  1  0
  2  7  1  0
  6  8  1  0
  3  9  1  0
  4 10  1  0
 11 16  1  0
 12 15  2  0
  9 13  1  0
  9 14  1  0
 11 15  1  0
  8 16  1  0
 17 18  2  0
 11 18  1  0
  8 19  2  0
  4 20  1  0
  4 21  1  0
 22 23  1  0
 20 23  1  0
  5  7  1  0
 13 14  1  0
  6 22  1  0
 12 17  1  0
M  END
>  <MOLFORMULA>  (454) 
C16 H21 N5 O2

>  <MOLWEIGHT>  (454) 
3.153749000000000e+002

>  <IDNUMBER>  (454) 
AT-687/SK17717

>  <PRICE>  (454) 
EUR 80/10 mg

>  <Similarity score>  (454) 
0.18

$$$$

     RDKit          2D

 15 16  0  0  0  0  0  0  0  0999 V2000
    1.4250    0.4667    0.0000 C   0  0  0  0  0  0  0  0  0  0  0  0
    2.0000   -0.3583    0.0000 C   0  0  0  0  0  0  0  0  0  0  0  0
    0.4750   -0.8333    0.0000 C   0  0  0  0  0  0  0  0  0  0  0  0
    0.4750    0.1667    0.0000 C   0  0  0  0  0  0  0  0  0  0  0  0
    1.4250   -1.1333    0.0000 S   0  0  0  0  0  0  0  0  0  0  0  0
   -1.2500   -0.8333    0.0000 N   0  0  0  0  0  0  0  0  0  0  0  0
   -0.3750   -1.3333    0.0000 C   0  0  0  0  0  0  0  0  0  0  0  0
    1.7750    1.4167    0.0000 C   0  0  0  0  0  0  0  0  0  0  0  0
    2.1208    2.3625    0.0000 N   0  0  0  0  0  0  0  0  0  0  0  0
   -0.3750    0.6625    0.0000 C   0  0  0  0  0  0  0  0  0  0  0  0
   -1.2500    0.1667    0.0000 C   0  0  0  0  0  0  0  0  0  0  0  0
    2.9958   -0.3583    0.0000 N   0  0  0  0  0  0  0  0  0  0  0  0
   -2.1500   -1.3583    0.0000 C   0  0  0  0  0  0  0  0  0  0  0  0
   -3.0000   -0.8583    0.0000 C   0  0  0  0  0  0  0  0  0  0  0  0
   -2.1500   -2.3583    0.0000 C   0  0  0  0  0  0  0  0  0  0  0  0
  1  2  2  0
  3  4  2  0
  1  4  1  0
  2  5  1  0
  6 11  1  0
  3  7  1  0
  1  8  1  0
  8  9  3  0
  4 10  1  0
 10 11  1  0
  2 12  1  0
  6 13  1  0
 13 14  1  0
 13 15  1  0
  3  5  1  0
  6  7  1  0
M  END
>  <MOLFORMULA>  (455) 
C11 H15 N3 S

>  <MOLWEIGHT>  (455) 
2.213265000000000e+002

>  <IDNUMBER>  (455) 
AN-153/PE00329

>  <PRICE>  (455) 
EUR 130/10 mg

>  <Similarity score>  (455) 
0.18

$$$$

     RDKit          2D

 26 30  0  0  0  0  0  0  0  0999 V2000
    7.9250   -3.3417    0.0000 C   0  0  0  0  0  0  0  0  0  0  0  0
    3.8500   -1.9292    0.0000 N   0  0  0  0  0  0  0  0  0  0  0  0
    7.7917   -4.1542    0.0000 N   0  0  0  0  0  0  0  0  0  0  0  0
    7.3375   -2.7542    0.0000 C   0  0  0  0  0  0  0  0  0  0  0  0
    8.7375   -3.2125    0.0000 C   0  0  0  0  0  0  0  0  0  0  0  0
    4.3292   -2.6042    0.0000 C   0  0  0  0  0  0  0  0  0  0  0  0
    3.0667   -2.1917    0.0000 C   0  0  0  0  0  0  0  0  0  0  0  0
    6.5417   -2.9750    0.0000 N   0  0  0  0  0  0  0  0  0  0  0  0
    5.1542   -2.6042    0.0000 C   0  0  0  0  0  0  0  0  0  0  0  0
    3.0667   -3.0167    0.0000 N   0  0  0  0  0  0  0  0  0  0  0  0
    8.5167   -4.5292    0.0000 N   0  0  0  0  0  0  0  0  0  0  0  0
    3.8500   -3.2667    0.0000 O   0  0  0  0  0  0  0  0  0  0  0  0
    9.1042   -3.9542    0.0000 C   0  0  0  0  0  0  0  0  0  0  0  0
    2.3917   -1.7042    0.0000 C   0  0  0  0  0  0  0  0  0  0  0  0
    5.9542   -2.3875    0.0000 C   0  0  0  0  0  0  0  0  0  0  0  0
    1.5667   -1.6167    0.0000 C   0  0  0  0  0  0  0  0  0  0  0  0
    2.0667   -0.9542    0.0000 C   0  0  0  0  0  0  0  0  0  0  0  0
    7.5542   -1.9667    0.0000 O   0  0  0  0  0  0  0  0  0  0  0  0
    6.3250   -3.7667    0.0000 C   0  0  0  0  0  0  0  0  0  0  0  0
    4.9417   -3.4000    0.0000 C   0  0  0  0  0  0  0  0  0  0  0  0
    9.1792   -2.5167    0.0000 C   0  0  0  0  0  0  0  0  0  0  0  0
    5.4792   -1.8417    0.0000 C   0  0  0  0  0  0  0  0  0  0  0  0
    9.9292   -3.9917    0.0000 C   0  0  0  0  0  0  0  0  0  0  0  0
    5.5292   -3.9875    0.0000 C   0  0  0  0  0  0  0  0  0  0  0  0
   10.0042   -2.5625    0.0000 C   0  0  0  0  0  0  0  0  0  0  0  0
   10.3792   -3.3042    0.0000 C   0  0  0  0  0  0  0  0  0  0  0  0
  2  6  2  0
  1  3  2  0
  1  4  1  0
  1  5  1  0
  6  9  1  0
  2  7  1  0
  4  8  1  0
  9 15  1  0
 10 12  1  0
  3 11  1  0
  6 12  1  0
  5 13  2  0
  7 14  1  0
  8 15  1  0
 14 16  1  0
 14 17  1  0
  4 18  2  0
  8 19  1  0
 20 24  1  0
  5 21  1  0
  9 22  1  0
 13 23  1  0
 19 24  1  0
 21 25  1  0
 25 26  1  0
 11 13  1  0
 23 26  1  0
  9 20  1  0
  7 10  2  0
 16 17  1  0
M  END
>  <MOLFORMULA>  (456) 
C19 H25 N5 O2

>  <MOLWEIGHT>  (456) 
3.554395000000000e+002

>  <IDNUMBER>  (456) 
AT-687/SK17716

>  <PRICE>  (456) 
EUR 80/10 mg

>  <Similarity score>  (456) 
0.18

$$$$

     RDKit          2D

 31 34  0  0  0  0  0  0  0  0999 V2000
   11.3875   -4.8167    0.0000 C   0  0  0  0  0  0  0  0  0  0  0  0
   12.0542   -5.3042    0.0000 C   0  0  0  0  0  0  0  0  0  0  0  0
    7.1375   -3.9792    0.0000 N   0  0  0  0  0  0  0  0  0  0  0  0
   11.6417   -4.0375    0.0000 S   0  0  0  0  0  0  0  0  0  0  0  0
    6.4667   -4.4667    0.0000 C   0  0  0  0  0  0  0  0  0  0  0  0
   12.7292   -4.8292    0.0000 C   0  0  0  0  0  0  0  0  0  0  0  0
    6.7167   -5.2542    0.0000 N   0  0  0  0  0  0  0  0  0  0  0  0
   12.4667   -4.0292    0.0000 C   0  0  0  0  0  0  0  0  0  0  0  0
    7.8042   -4.4667    0.0000 C   0  0  0  0  0  0  0  0  0  0  0  0
    7.5500   -5.2542    0.0000 N   0  0  0  0  0  0  0  0  0  0  0  0
   10.6042   -5.0667    0.0000 N   0  0  0  0  0  0  0  0  0  0  0  0
    5.6792   -4.2125    0.0000 C   0  0  0  0  0  0  0  0  0  0  0  0
   12.0542   -6.1292    0.0000 C   0  0  0  0  0  0  0  0  0  0  0  0
   11.3417   -6.5417    0.0000 N   0  0  0  0  0  0  0  0  0  0  0  0
    9.9917   -4.5167    0.0000 C   0  0  0  0  0  0  0  0  0  0  0  0
    8.5917   -4.2167    0.0000 S   0  0  0  0  0  0  0  0  0  0  0  0
    5.5042   -3.4000    0.0000 C   0  0  0  0  0  0  0  0  0  0  0  0
    5.0667   -4.7625    0.0000 C   0  0  0  0  0  0  0  0  0  0  0  0
    4.1000   -3.6917    0.0000 C   0  0  0  0  0  0  0  0  0  0  0  0
    4.2792   -4.5042    0.0000 C   0  0  0  0  0  0  0  0  0  0  0  0
    4.7167   -3.1417    0.0000 C   0  0  0  0  0  0  0  0  0  0  0  0
   10.1667   -3.7125    0.0000 O   0  0  0  0  0  0  0  0  0  0  0  0
    9.2042   -4.7667    0.0000 C   0  0  0  0  0  0  0  0  0  0  0  0
   13.5375   -5.0042    0.0000 C   0  0  0  0  0  0  0  0  0  0  0  0
   13.0292   -3.4167    0.0000 C   0  0  0  0  0  0  0  0  0  0  0  0
    3.6625   -5.0667    0.0000 O   0  0  0  0  0  0  0  0  0  0  0  0
    4.5500   -2.3292    0.0000 O   0  0  0  0  0  0  0  0  0  0  0  0
    2.8750   -4.8167    0.0000 C   0  0  0  0  0  0  0  0  0  0  0  0
    5.1625   -1.7792    0.0000 C   0  0  0  0  0  0  0  0  0  0  0  0
   14.1000   -4.3792    0.0000 C   0  0  0  0  0  0  0  0  0  0  0  0
   13.8417   -3.5917    0.0000 C   0  0  0  0  0  0  0  0  0  0  0  0
  1  2  2  0
  3  9  1  0
  1  4  1  0
  3  5  1  0
  2  6  1  0
  7 10  1  0
  4  8  1  0
  9 16  1  0
  9 10  2  0
  1 11  1  0
  5 12  1  0
  2 13  1  0
 13 14  3  0
 11 15  1  0
 16 23  1  0
 12 17  2  0
 12 18  1  0
 19 20  1  0
 18 20  2  0
 17 21  1  0
 15 22  2  0
 15 23  1  0
  6 24  1  0
  8 25  1  0
 20 26  1  0
 21 27  1  0
 26 28  1  0
 27 29  1  0
 24 30  1  0
 25 31  1  0
  6  8  2  0
 30 31  1  0
  5  7  2  0
 19 21  2  0
M  END
>  <MOLFORMULA>  (457) 
C21 H21 N5 O3 S2

>  <MOLWEIGHT>  (457) 
4.555609000000000e+002

>  <IDNUMBER>  (457) 
AM-879/J185590

>  <PRICE>  (457) 
EUR 55.00/10 mg

>  <Similarity score>  (457) 
0.18

$$$$

     RDKit          2D

 15 17  0  0  0  0  0  0  0  0999 V2000
    4.9167    1.9583    0.0000 N   0  0  0  0  0  0  0  0  0  0  0  0
    5.9917    3.0000    0.0000 C   0  0  0  0  0  0  0  0  0  0  0  0
    3.5917    2.6583    0.0000 C   0  0  0  0  0  0  0  0  0  0  0  0
    3.8500    4.1250    0.0000 N   0  0  0  0  0  0  0  0  0  0  0  0
    5.3292    4.3250    0.0000 O   0  0  0  0  0  0  0  0  0  0  0  0
    7.4750    2.7333    0.0000 C   0  0  0  0  0  0  0  0  0  0  0  0
    2.2417    2.0000    0.0000 C   0  0  0  0  0  0  0  0  0  0  0  0
    0.7500    2.1000    0.0000 C   0  0  0  0  0  0  0  0  0  0  0  0
    1.4000    0.7500    0.0000 C   0  0  0  0  0  0  0  0  0  0  0  0
   10.0667    2.7333    0.0000 N   0  0  0  0  0  0  0  0  0  0  0  0
    8.7667    1.9833    0.0000 C   0  0  0  0  0  0  0  0  0  0  0  0
    6.9500    1.3250    0.0000 C   0  0  0  0  0  0  0  0  0  0  0  0
    7.4750    4.2167    0.0000 C   0  0  0  0  0  0  0  0  0  0  0  0
   10.0667    4.2167    0.0000 C   0  0  0  0  0  0  0  0  0  0  0  0
    8.7667    4.9667    0.0000 C   0  0  0  0  0  0  0  0  0  0  0  0
  1  2  2  0
  1  3  1  0
  3  4  2  0
  2  5  1  0
  2  6  1  0
  3  7  1  0
  7  8  1  0
  7  9  1  0
 10 11  1  0
  6 11  1  0
  6 12  1  0
  6 13  1  0
 14 15  1  0
 13 15  1  0
  4  5  1  0
  8  9  1  0
 10 14  1  0
M  END
>  <MOLFORMULA>  (458) 
C11 H17 N3 O

>  <MOLWEIGHT>  (458) 
2.072753000000000e+002

>  <IDNUMBER>  (458) 
AT-687/PE34656

>  <PRICE>  (458) 
EUR 80/10 mg

>  <Similarity score>  (458) 
0.18

$$$$

     RDKit          2D

 24 27  0  0  0  0  0  0  0  0999 V2000
    4.0125   -3.3417    0.0000 N   0  0  0  0  0  0  0  0  0  0  0  0
    4.5000   -2.6750    0.0000 C   0  0  0  0  0  0  0  0  0  0  0  0
    3.2292   -3.0875    0.0000 C   0  0  0  0  0  0  0  0  0  0  0  0
    5.3250   -2.6750    0.0000 C   0  0  0  0  0  0  0  0  0  0  0  0
    3.2292   -2.2625    0.0000 N   0  0  0  0  0  0  0  0  0  0  0  0
    8.8792   -2.1500    0.0000 N   0  0  0  0  0  0  0  0  0  0  0  0
    6.7042   -2.3125    0.0000 N   0  0  0  0  0  0  0  0  0  0  0  0
    7.5000   -2.5167    0.0000 C   0  0  0  0  0  0  0  0  0  0  0  0
    4.0125   -2.0125    0.0000 O   0  0  0  0  0  0  0  0  0  0  0  0
    9.1792   -2.9167    0.0000 C   0  0  0  0  0  0  0  0  0  0  0  0
    2.5542   -3.5667    0.0000 C   0  0  0  0  0  0  0  0  0  0  0  0
   10.0042   -2.8792    0.0000 N   0  0  0  0  0  0  0  0  0  0  0  0
    6.1167   -2.8917    0.0000 C   0  0  0  0  0  0  0  0  0  0  0  0
    8.0875   -1.9375    0.0000 C   0  0  0  0  0  0  0  0  0  0  0  0
    2.2292   -4.3167    0.0000 C   0  0  0  0  0  0  0  0  0  0  0  0
    1.7292   -3.6667    0.0000 C   0  0  0  0  0  0  0  0  0  0  0  0
   10.2167   -2.0792    0.0000 C   0  0  0  0  0  0  0  0  0  0  0  0
    9.5167   -1.6292    0.0000 C   0  0  0  0  0  0  0  0  0  0  0  0
    7.7167   -3.3125    0.0000 O   0  0  0  0  0  0  0  0  0  0  0  0
    5.1042   -1.8792    0.0000 C   0  0  0  0  0  0  0  0  0  0  0  0
    5.6417   -3.4375    0.0000 C   0  0  0  0  0  0  0  0  0  0  0  0
    6.4875   -1.5042    0.0000 C   0  0  0  0  0  0  0  0  0  0  0  0
    8.7250   -3.6125    0.0000 C   0  0  0  0  0  0  0  0  0  0  0  0
    5.6917   -1.3000    0.0000 C   0  0  0  0  0  0  0  0  0  0  0  0
  1  2  2  0
  1  3  1  0
  2  4  1  0
  3  5  2  0
  6 14  1  0
  7 13  1  0
  7  8  1  0
  2  9  1  0
  6 10  1  0
  3 11  1  0
 10 12  2  0
  4 13  1  0
  8 14  1  0
 11 15  1  0
 11 16  1  0
 17 18  2  0
  6 18  1  0
  8 19  2  0
  4 20  1  0
  4 21  1  0
 22 24  1  0
 10 23  1  0
 20 24  1  0
  5  9  1  0
 15 16  1  0
  7 22  1  0
 12 17  1  0
M  END
>  <MOLFORMULA>  (459) 
C17 H23 N5 O2

>  <MOLWEIGHT>  (459) 
3.294017000000000e+002

>  <IDNUMBER>  (459) 
AT-687/SK17718

>  <PRICE>  (459) 
EUR 80/10 mg

>  <Similarity score>  (459) 
0.18

$$$$

     RDKit          2D

 25 28  0  0  0  0  0  0  0  0999 V2000
    2.7000   -0.4708    0.0000 C   0  0  0  0  0  0  0  0  0  0  0  0
    3.7000   -0.5750    0.0000 C   0  0  0  0  0  0  0  0  0  0  0  0
    2.3000   -1.3833    0.0000 S   0  0  0  0  0  0  0  0  0  0  0  0
    3.9083   -1.5500    0.0000 C   0  0  0  0  0  0  0  0  0  0  0  0
   -2.3958    2.9417    0.0000 N   0  0  0  0  0  0  0  0  0  0  0  0
    3.0458   -2.0542    0.0000 C   0  0  0  0  0  0  0  0  0  0  0  0
   -1.8125    2.1292    0.0000 C   0  0  0  0  0  0  0  0  0  0  0  0
    2.2000    0.3958    0.0000 N   0  0  0  0  0  0  0  0  0  0  0  0
   -2.3958    1.3250    0.0000 O   0  0  0  0  0  0  0  0  0  0  0  0
    4.3667    0.1708    0.0000 C   0  0  0  0  0  0  0  0  0  0  0  0
   -3.3458    2.6292    0.0000 C   0  0  0  0  0  0  0  0  0  0  0  0
    1.1958    0.3958    0.0000 C   0  0  0  0  0  0  0  0  0  0  0  0
    5.0750    0.8833    0.0000 N   0  0  0  0  0  0  0  0  0  0  0  0
   -3.3458    1.6333    0.0000 C   0  0  0  0  0  0  0  0  0  0  0  0
    0.6958    1.2625    0.0000 C   0  0  0  0  0  0  0  0  0  0  0  0
   -0.8125    2.1208    0.0000 S   0  0  0  0  0  0  0  0  0  0  0  0
    0.6917   -0.4708    0.0000 O   0  0  0  0  0  0  0  0  0  0  0  0
   -0.3125    1.2625    0.0000 C   0  0  0  0  0  0  0  0  0  0  0  0
    4.6500   -2.2167    0.0000 C   0  0  0  0  0  0  0  0  0  0  0  0
    3.2583   -3.0292    0.0000 C   0  0  0  0  0  0  0  0  0  0  0  0
    4.2500   -3.1292    0.0000 C   0  0  0  0  0  0  0  0  0  0  0  0
   -4.2083    3.1333    0.0000 C   0  0  0  0  0  0  0  0  0  0  0  0
   -4.2083    1.1333    0.0000 C   0  0  0  0  0  0  0  0  0  0  0  0
   -5.0750    1.6292    0.0000 C   0  0  0  0  0  0  0  0  0  0  0  0
   -5.0792    2.6333    0.0000 C   0  0  0  0  0  0  0  0  0  0  0  0
  1  2  2  0
  1  3  1  0
  2  4  1  0
  5  7  2  0
  3  6  1  0
  7 16  1  0
  1  8  1  0
  7  9  1  0
  2 10  1  0
  5 11  1  0
  8 12  1  0
 10 13  3  0
  9 14  1  0
 12 15  1  0
 16 18  1  0
 12 17  2  0
 15 18  1  0
  4 19  1  0
  6 20  1  0
 20 21  1  0
 11 22  1  0
 14 23  1  0
 23 24  2  0
 22 25  2  0
  4  6  2  0
 19 21  1  0
 11 14  2  0
 24 25  1  0
M  END
>  <MOLFORMULA>  (460) 
C18 H15 N3 O2 S2

>  <MOLWEIGHT>  (460) 
3.694675000000000e+002

>  <IDNUMBER>  (460) 
AN-153/NB25396

>  <PRICE>  (460) 
EUR 130/10 mg

>  <Similarity score>  (460) 
0.18

$$$$

     RDKit          2D

 26 30  0  0  0  0  0  0  0  0999 V2000
    3.6500   -4.8667    0.0000 N   0  0  0  0  0  0  0  0  0  0  0  0
    4.4417   -3.8000    0.0000 C   0  0  0  0  0  0  0  0  0  0  0  0
    2.3917   -4.4667    0.0000 C   0  0  0  0  0  0  0  0  0  0  0  0
    5.7667   -3.8000    0.0000 C   0  0  0  0  0  0  0  0  0  0  0  0
    7.9917   -3.2000    0.0000 N   0  0  0  0  0  0  0  0  0  0  0  0
    2.3917   -3.1250    0.0000 N   0  0  0  0  0  0  0  0  0  0  0  0
    9.2667   -3.5500    0.0000 C   0  0  0  0  0  0  0  0  0  0  0  0
    3.6500   -2.7250    0.0000 O   0  0  0  0  0  0  0  0  0  0  0  0
    1.3167   -5.2500    0.0000 C   0  0  0  0  0  0  0  0  0  0  0  0
    7.0500   -4.1417    0.0000 C   0  0  0  0  0  0  0  0  0  0  0  0
   10.2250   -2.6000    0.0000 C   0  0  0  0  0  0  0  0  0  0  0  0
   13.7750   -2.0750    0.0000 N   0  0  0  0  0  0  0  0  0  0  0  0
   12.4500   -2.0000    0.0000 C   0  0  0  0  0  0  0  0  0  0  0  0
   14.2417   -0.8292    0.0000 C   0  0  0  0  0  0  0  0  0  0  0  0
    0.7667   -6.4667    0.0000 C   0  0  0  0  0  0  0  0  0  0  0  0
    0.0000   -5.3750    0.0000 C   0  0  0  0  0  0  0  0  0  0  0  0
   11.5000   -2.9417    0.0000 C   0  0  0  0  0  0  0  0  0  0  0  0
   13.2167   -0.0000    0.0000 N   0  0  0  0  0  0  0  0  0  0  0  0
   12.1000   -0.7000    0.0000 C   0  0  0  0  0  0  0  0  0  0  0  0
    9.6250   -4.8417    0.0000 O   0  0  0  0  0  0  0  0  0  0  0  0
    9.8667   -1.3167    0.0000 C   0  0  0  0  0  0  0  0  0  0  0  0
   10.8250   -0.3750    0.0000 C   0  0  0  0  0  0  0  0  0  0  0  0
    7.6417   -1.9167    0.0000 C   0  0  0  0  0  0  0  0  0  0  0  0
    5.4250   -2.5000    0.0000 C   0  0  0  0  0  0  0  0  0  0  0  0
    6.2750   -5.0417    0.0000 C   0  0  0  0  0  0  0  0  0  0  0  0
    6.3667   -1.5750    0.0000 C   0  0  0  0  0  0  0  0  0  0  0  0
  1  2  2  0
  1  3  1  0
  2  4  1  0
  5 10  1  0
  3  6  2  0
  5  7  1  0
  2  8  1  0
  3  9  1  0
  4 10  1  0
  7 11  1  0
 12 13  1  0
 13 17  1  0
 12 14  2  0
  9 15  1  0
  9 16  1  0
 11 17  2  0
 18 19  1  0
 19 22  1  0
  7 20  2  0
 11 21  1  0
 21 22  2  0
 23 26  1  0
  4 24  1  0
  4 25  1  0
 24 26  1  0
  6  8  1  0
 15 16  1  0
  5 23  1  0
 13 19  2  0
 14 18  1  0
M  END
>  <MOLFORMULA>  (461) 
C19 H21 N5 O2

>  <MOLWEIGHT>  (461) 
3.514079000000000e+002

>  <IDNUMBER>  (461) 
AT-687/PE19318

>  <PRICE>  (461) 
EUR 80/10 mg

>  <Similarity score>  (461) 
0.18

$$$$

     RDKit          2D

 26 30  0  0  0  0  0  0  0  0999 V2000
    3.6667   -1.6000    0.0000 N   0  0  0  0  0  0  0  0  0  0  0  0
    4.4500   -2.6500    0.0000 C   0  0  0  0  0  0  0  0  0  0  0  0
    2.4000   -2.0000    0.0000 C   0  0  0  0  0  0  0  0  0  0  0  0
    5.7750   -2.6500    0.0000 C   0  0  0  0  0  0  0  0  0  0  0  0
    8.0000   -3.2500    0.0000 N   0  0  0  0  0  0  0  0  0  0  0  0
    2.4000   -3.3167    0.0000 N   0  0  0  0  0  0  0  0  0  0  0  0
    9.2750   -2.9167    0.0000 C   0  0  0  0  0  0  0  0  0  0  0  0
    3.6667   -3.7417    0.0000 O   0  0  0  0  0  0  0  0  0  0  0  0
    1.3250   -1.2167    0.0000 C   0  0  0  0  0  0  0  0  0  0  0  0
    7.0667   -2.3167    0.0000 C   0  0  0  0  0  0  0  0  0  0  0  0
   10.2250   -3.8500    0.0000 C   0  0  0  0  0  0  0  0  0  0  0  0
    0.0000   -1.0750    0.0000 C   0  0  0  0  0  0  0  0  0  0  0  0
    0.7917   -0.0000    0.0000 C   0  0  0  0  0  0  0  0  0  0  0  0
   10.8292   -6.0750    0.0000 C   0  0  0  0  0  0  0  0  0  0  0  0
    9.8792   -5.1250    0.0000 C   0  0  0  0  0  0  0  0  0  0  0  0
   12.1000   -5.7250    0.0000 C   0  0  0  0  0  0  0  0  0  0  0  0
   10.7417   -7.4042    0.0000 O   0  0  0  0  0  0  0  0  0  0  0  0
   12.8250   -6.8500    0.0000 O   0  0  0  0  0  0  0  0  0  0  0  0
    9.6250   -1.6250    0.0000 O   0  0  0  0  0  0  0  0  0  0  0  0
   11.9917   -7.8792    0.0000 C   0  0  0  0  0  0  0  0  0  0  0  0
   11.5167   -3.5042    0.0000 C   0  0  0  0  0  0  0  0  0  0  0  0
   12.4667   -4.4417    0.0000 C   0  0  0  0  0  0  0  0  0  0  0  0
    7.6500   -4.5500    0.0000 C   0  0  0  0  0  0  0  0  0  0  0  0
    5.4292   -3.9500    0.0000 C   0  0  0  0  0  0  0  0  0  0  0  0
    6.2917   -1.4250    0.0000 C   0  0  0  0  0  0  0  0  0  0  0  0
    6.3750   -4.8750    0.0000 C   0  0  0  0  0  0  0  0  0  0  0  0
  1  2  2  0
  1  3  1  0
  2  4  1  0
  5 10  1  0
  3  6  2  0
  5  7  1  0
  2  8  1  0
  3  9  1  0
  4 10  1  0
  7 11  1  0
  9 12  1  0
  9 13  1  0
 14 15  1  0
 11 15  2  0
 16 22  1  0
 14 17  1  0
 16 18  1  0
  7 19  2  0
 17 20  1  0
 11 21  1  0
 21 22  2  0
 23 26  1  0
  4 24  1  0
  4 25  1  0
 24 26  1  0
  6  8  1  0
 12 13  1  0
  5 23  1  0
 14 16  2  0
 18 20  1  0
M  END
>  <MOLFORMULA>  (462) 
C19 H21 N3 O4

>  <MOLWEIGHT>  (462) 
3.553919000000000e+002

>  <IDNUMBER>  (462) 
AT-687/PE19317

>  <PRICE>  (462) 
EUR 80/10 mg

>  <Similarity score>  (462) 
0.18

$$$$

     RDKit          2D

 26 29  0  0  0  0  0  0  0  0999 V2000
   -1.8125    1.9083    0.0000 C   0  0  0  0  0  0  0  0  0  0  0  0
   -2.4042    2.7167    0.0000 C   0  0  0  0  0  0  0  0  0  0  0  0
   -2.4042    1.1000    0.0000 S   0  0  0  0  0  0  0  0  0  0  0  0
   -3.3542    2.4125    0.0000 C   0  0  0  0  0  0  0  0  0  0  0  0
    2.4542   -1.5833    0.0000 N   0  0  0  0  0  0  0  0  0  0  0  0
    2.7708   -0.6375    0.0000 C   0  0  0  0  0  0  0  0  0  0  0  0
   -3.3542    1.4083    0.0000 C   0  0  0  0  0  0  0  0  0  0  0  0
   -0.8167    1.9083    0.0000 N   0  0  0  0  0  0  0  0  0  0  0  0
    3.7708   -0.6417    0.0000 O   0  0  0  0  0  0  0  0  0  0  0  0
   -1.9042    3.5875    0.0000 C   0  0  0  0  0  0  0  0  0  0  0  0
    3.2625   -2.1750    0.0000 C   0  0  0  0  0  0  0  0  0  0  0  0
   -0.3125    1.0458    0.0000 C   0  0  0  0  0  0  0  0  0  0  0  0
   -0.9000    3.5875    0.0000 N   0  0  0  0  0  0  0  0  0  0  0  0
    4.0708   -1.5958    0.0000 C   0  0  0  0  0  0  0  0  0  0  0  0
    0.6875    1.0458    0.0000 C   0  0  0  0  0  0  0  0  0  0  0  0
    2.1875    0.1792    0.0000 S   0  0  0  0  0  0  0  0  0  0  0  0
   -0.8167    0.1792    0.0000 O   0  0  0  0  0  0  0  0  0  0  0  0
    1.1833    0.1792    0.0000 C   0  0  0  0  0  0  0  0  0  0  0  0
   -4.2167    2.9083    0.0000 C   0  0  0  0  0  0  0  0  0  0  0  0
   -4.2167    0.9083    0.0000 C   0  0  0  0  0  0  0  0  0  0  0  0
    3.3583   -3.1667    0.0000 C   0  0  0  0  0  0  0  0  0  0  0  0
    4.9833   -2.0042    0.0000 C   0  0  0  0  0  0  0  0  0  0  0  0
   -5.0833    2.4125    0.0000 C   0  0  0  0  0  0  0  0  0  0  0  0
   -5.0833    1.4083    0.0000 C   0  0  0  0  0  0  0  0  0  0  0  0
    5.0792   -3.0000    0.0000 C   0  0  0  0  0  0  0  0  0  0  0  0
    4.2708   -3.5833    0.0000 C   0  0  0  0  0  0  0  0  0  0  0  0
  1  2  2  0
  1  3  1  0
  2  4  1  0
  5  6  2  0
  6 16  1  0
  3  7  1  0
  1  8  1  0
  6  9  1  0
  2 10  1  0
  5 11  1  0
  8 12  1  0
 10 13  3  0
  9 14  1  0
 12 15  1  0
 16 18  1  0
 12 17  2  0
 15 18  1  0
  4 19  1  0
  7 20  1  0
 11 21  1  0
 14 22  1  0
 19 23  1  0
 20 24  1  0
 22 25  2  0
 21 26  2  0
  4  7  2  0
 23 24  1  0
 11 14  2  0
 25 26  1  0
M  END
>  <MOLFORMULA>  (463) 
C19 H17 N3 O2 S2

>  <MOLWEIGHT>  (463) 
3.834943000000000e+002

>  <IDNUMBER>  (463) 
AN-153/NB15616

>  <PRICE>  (463) 
EUR 130/10 mg

>  <Similarity score>  (463) 
0.18

$$$$

     RDKit          2D

 25 29  0  0  0  0  0  0  0  0999 V2000
   10.2167   -4.4667    0.0000 C   0  0  0  0  0  0  0  0  0  0  0  0
    3.6667   -6.7417    0.0000 N   0  0  0  0  0  0  0  0  0  0  0  0
    4.4417   -5.6500    0.0000 C   0  0  0  0  0  0  0  0  0  0  0  0
    2.3750   -6.3250    0.0000 C   0  0  0  0  0  0  0  0  0  0  0  0
    9.2750   -5.4000    0.0000 C   0  0  0  0  0  0  0  0  0  0  0  0
    5.7750   -5.6500    0.0000 C   0  0  0  0  0  0  0  0  0  0  0  0
   10.0042   -3.1500    0.0000 C   0  0  0  0  0  0  0  0  0  0  0  0
    7.9917   -5.0667    0.0000 N   0  0  0  0  0  0  0  0  0  0  0  0
    2.3750   -4.9917    0.0000 N   0  0  0  0  0  0  0  0  0  0  0  0
   11.5250   -4.6750    0.0000 N   0  0  0  0  0  0  0  0  0  0  0  0
   12.1250   -3.4792    0.0000 N   0  0  0  0  0  0  0  0  0  0  0  0
   11.1792   -2.5500    0.0000 C   0  0  0  0  0  0  0  0  0  0  0  0
    3.6667   -4.5792    0.0000 O   0  0  0  0  0  0  0  0  0  0  0  0
    1.3250   -7.1042    0.0000 C   0  0  0  0  0  0  0  0  0  0  0  0
    7.0500   -6.0000    0.0000 C   0  0  0  0  0  0  0  0  0  0  0  0
   11.3917   -1.2167    0.0000 C   0  0  0  0  0  0  0  0  0  0  0  0
    0.0000   -7.2417    0.0000 C   0  0  0  0  0  0  0  0  0  0  0  0
    0.7750   -8.3250    0.0000 C   0  0  0  0  0  0  0  0  0  0  0  0
   10.9250   -0.0000    0.0000 C   0  0  0  0  0  0  0  0  0  0  0  0
   12.2417   -0.1917    0.0000 C   0  0  0  0  0  0  0  0  0  0  0  0
    9.6167   -6.6917    0.0000 O   0  0  0  0  0  0  0  0  0  0  0  0
    7.6500   -3.7750    0.0000 C   0  0  0  0  0  0  0  0  0  0  0  0
    5.4250   -4.3667    0.0000 C   0  0  0  0  0  0  0  0  0  0  0  0
    6.2750   -6.8917    0.0000 C   0  0  0  0  0  0  0  0  0  0  0  0
    6.3542   -3.4292    0.0000 C   0  0  0  0  0  0  0  0  0  0  0  0
  2  3  2  0
  3  6  1  0
  2  4  1  0
  1  5  1  0
  6 15  1  0
  1  7  2  0
  5  8  1  0
  9 13  1  0
  1 10  1  0
 10 11  1  0
  7 12  1  0
  3 13  1  0
  4 14  1  0
  8 15  1  0
 12 16  1  0
 14 17  1  0
 14 18  1  0
 16 19  1  0
 16 20  1  0
  5 21  2  0
  8 22  1  0
 23 25  1  0
  6 24  1  0
 22 25  1  0
 11 12  2  0
 19 20  1  0
  6 23  1  0
  4  9  2  0
 17 18  1  0
M  END
>  <MOLFORMULA>  (464) 
C18 H23 N5 O2

>  <MOLWEIGHT>  (464) 
3.414127000000000e+002

>  <IDNUMBER>  (464) 
AT-687/PE19324

>  <PRICE>  (464) 
EUR 80/10 mg

>  <Similarity score>  (464) 
0.17

$$$$

     RDKit          2D

 26 30  0  0  0  0  0  0  0  0999 V2000
   10.2250   -3.8417    0.0000 C   0  0  0  0  0  0  0  0  0  0  0  0
    3.6667   -1.5667    0.0000 N   0  0  0  0  0  0  0  0  0  0  0  0
   10.0042   -5.1417    0.0000 N   0  0  0  0  0  0  0  0  0  0  0  0
    9.2792   -2.9000    0.0000 C   0  0  0  0  0  0  0  0  0  0  0  0
    4.4500   -2.6500    0.0000 C   0  0  0  0  0  0  0  0  0  0  0  0
    2.4000   -1.9750    0.0000 C   0  0  0  0  0  0  0  0  0  0  0  0
    7.9917   -3.2417    0.0000 N   0  0  0  0  0  0  0  0  0  0  0  0
    5.7667   -2.6500    0.0000 C   0  0  0  0  0  0  0  0  0  0  0  0
    2.4000   -3.3167    0.0000 N   0  0  0  0  0  0  0  0  0  0  0  0
   11.5417   -3.6250    0.0000 C   0  0  0  0  0  0  0  0  0  0  0  0
   11.1792   -5.7500    0.0000 N   0  0  0  0  0  0  0  0  0  0  0  0
    3.6667   -3.7250    0.0000 O   0  0  0  0  0  0  0  0  0  0  0  0
    1.3250   -1.2000    0.0000 C   0  0  0  0  0  0  0  0  0  0  0  0
    7.0542   -2.2917    0.0000 C   0  0  0  0  0  0  0  0  0  0  0  0
    0.7917   -0.0000    0.0000 C   0  0  0  0  0  0  0  0  0  0  0  0
    0.0000   -1.0542    0.0000 C   0  0  0  0  0  0  0  0  0  0  0  0
   12.1417   -4.8167    0.0000 C   0  0  0  0  0  0  0  0  0  0  0  0
    9.6250   -1.6167    0.0000 O   0  0  0  0  0  0  0  0  0  0  0  0
    7.6500   -4.5167    0.0000 C   0  0  0  0  0  0  0  0  0  0  0  0
    5.4250   -3.9250    0.0000 C   0  0  0  0  0  0  0  0  0  0  0  0
    6.2917   -1.4167    0.0000 C   0  0  0  0  0  0  0  0  0  0  0  0
   12.2500   -2.5167    0.0000 C   0  0  0  0  0  0  0  0  0  0  0  0
    6.3750   -4.8750    0.0000 C   0  0  0  0  0  0  0  0  0  0  0  0
   13.4750   -4.8917    0.0000 C   0  0  0  0  0  0  0  0  0  0  0  0
   13.5792   -2.5750    0.0000 C   0  0  0  0  0  0  0  0  0  0  0  0
   14.1750   -3.7667    0.0000 C   0  0  0  0  0  0  0  0  0  0  0  0
  2  5  2  0
  1  3  2  0
  1  4  1  0
  5  8  1  0
  2  6  1  0
  4  7  1  0
  8 14  1  0
  9 12  1  0
  1 10  1  0
  3 11  1  0
  5 12  1  0
  6 13  1  0
  7 14  1  0
 13 15  1  0
 13 16  1  0
 10 17  2  0
  4 18  2  0
  7 19  1  0
 20 23  1  0
  8 21  1  0
 10 22  1  0
 19 23  1  0
 17 24  1  0
 22 25  2  0
 25 26  1  0
 11 17  1  0
 24 26  2  0
  8 20  1  0
  6  9  2  0
 15 16  1  0
M  END
>  <MOLFORMULA>  (465) 
C19 H21 N5 O2

>  <MOLWEIGHT>  (465) 
3.514079000000000e+002

>  <IDNUMBER>  (465) 
AT-687/PE19322

>  <PRICE>  (465) 
EUR 80/10 mg

>  <Similarity score>  (465) 
0.17

$$$$

     RDKit          2D

 25 28  0  0  0  0  0  0  0  0999 V2000
    3.6500   -4.1000    0.0000 N   0  0  0  0  0  0  0  0  0  0  0  0
    4.4250   -3.0250    0.0000 C   0  0  0  0  0  0  0  0  0  0  0  0
    2.4000   -3.6917    0.0000 C   0  0  0  0  0  0  0  0  0  0  0  0
   11.4917   -2.1750    0.0000 C   0  0  0  0  0  0  0  0  0  0  0  0
    5.7667   -3.0250    0.0000 C   0  0  0  0  0  0  0  0  0  0  0  0
    2.4000   -2.3500    0.0000 N   0  0  0  0  0  0  0  0  0  0  0  0
   13.6292   -2.0500    0.0000 N   0  0  0  0  0  0  0  0  0  0  0  0
    7.9917   -2.4250    0.0000 N   0  0  0  0  0  0  0  0  0  0  0  0
    9.2750   -2.7750    0.0000 C   0  0  0  0  0  0  0  0  0  0  0  0
    3.6500   -1.9500    0.0000 O   0  0  0  0  0  0  0  0  0  0  0  0
   10.2042   -1.8250    0.0000 C   0  0  0  0  0  0  0  0  0  0  0  0
   13.2917   -3.3500    0.0000 O   0  0  0  0  0  0  0  0  0  0  0  0
   11.9750   -3.4167    0.0000 C   0  0  0  0  0  0  0  0  0  0  0  0
    1.3000   -4.4667    0.0000 C   0  0  0  0  0  0  0  0  0  0  0  0
   12.5167   -1.3500    0.0000 C   0  0  0  0  0  0  0  0  0  0  0  0
    7.0292   -3.3750    0.0000 C   0  0  0  0  0  0  0  0  0  0  0  0
    0.7750   -5.6792    0.0000 C   0  0  0  0  0  0  0  0  0  0  0  0
    0.0000   -4.6000    0.0000 C   0  0  0  0  0  0  0  0  0  0  0  0
    9.6042   -4.0542    0.0000 O   0  0  0  0  0  0  0  0  0  0  0  0
    5.4042   -1.7417    0.0000 C   0  0  0  0  0  0  0  0  0  0  0  0
    6.2667   -4.2500    0.0000 C   0  0  0  0  0  0  0  0  0  0  0  0
    7.6292   -1.1417    0.0000 C   0  0  0  0  0  0  0  0  0  0  0  0
   11.2500   -4.5417    0.0000 C   0  0  0  0  0  0  0  0  0  0  0  0
    6.3667   -0.8000    0.0000 C   0  0  0  0  0  0  0  0  0  0  0  0
   12.4667   -0.0000    0.0000 C   0  0  0  0  0  0  0  0  0  0  0  0
  1  2  2  0
  1  3  1  0
  4 11  1  0
  2  5  1  0
  3  6  2  0
  7 15  2  0
  8 16  1  0
  8  9  1  0
  2 10  1  0
  9 11  1  0
 12 13  1  0
  4 13  2  0
  3 14  1  0
  4 15  1  0
  5 16  1  0
 14 17  1  0
 14 18  1  0
  9 19  2  0
  5 20  1  0
  5 21  1  0
 22 24  1  0
 13 23  1  0
 20 24  1  0
 15 25  1  0
  6 10  1  0
 17 18  1  0
  8 22  1  0
  7 12  1  0
M  END
>  <MOLFORMULA>  (466) 
C18 H24 N4 O3

>  <MOLWEIGHT>  (466) 
3.444126000000000e+002

>  <IDNUMBER>  (466) 
AT-687/PE19323

>  <PRICE>  (466) 
EUR 80/10 mg

>  <Similarity score>  (466) 
0.17

$$$$

     RDKit          2D

 22 25  0  0  0  0  0  0  0  0999 V2000
    4.4792   -1.9292    0.0000 N   0  0  0  0  0  0  0  0  0  0  0  0
    4.9667   -2.6042    0.0000 C   0  0  0  0  0  0  0  0  0  0  0  0
    3.7000   -2.1917    0.0000 C   0  0  0  0  0  0  0  0  0  0  0  0
    5.7917   -2.6042    0.0000 C   0  0  0  0  0  0  0  0  0  0  0  0
    7.1667   -2.9750    0.0000 N   0  0  0  0  0  0  0  0  0  0  0  0
    3.7000   -3.0167    0.0000 N   0  0  0  0  0  0  0  0  0  0  0  0
    7.9667   -2.7542    0.0000 C   0  0  0  0  0  0  0  0  0  0  0  0
    8.5417   -3.3417    0.0000 C   0  0  0  0  0  0  0  0  0  0  0  0
    4.4792   -3.2667    0.0000 O   0  0  0  0  0  0  0  0  0  0  0  0
    3.0292   -1.7042    0.0000 C   0  0  0  0  0  0  0  0  0  0  0  0
    6.5875   -2.3875    0.0000 C   0  0  0  0  0  0  0  0  0  0  0  0
    2.2042   -1.6167    0.0000 C   0  0  0  0  0  0  0  0  0  0  0  0
    2.6875   -0.9542    0.0000 C   0  0  0  0  0  0  0  0  0  0  0  0
    8.4250   -4.1542    0.0000 C   0  0  0  0  0  0  0  0  0  0  0  0
    9.3625   -3.2125    0.0000 C   0  0  0  0  0  0  0  0  0  0  0  0
    9.1542   -4.5292    0.0000 O   0  0  0  0  0  0  0  0  0  0  0  0
    8.1792   -1.9667    0.0000 O   0  0  0  0  0  0  0  0  0  0  0  0
    9.7417   -3.9542    0.0000 C   0  0  0  0  0  0  0  0  0  0  0  0
    6.9542   -3.7667    0.0000 C   0  0  0  0  0  0  0  0  0  0  0  0
    5.5750   -3.4000    0.0000 C   0  0  0  0  0  0  0  0  0  0  0  0
    6.1042   -1.8417    0.0000 C   0  0  0  0  0  0  0  0  0  0  0  0
    6.1625   -3.9875    0.0000 C   0  0  0  0  0  0  0  0  0  0  0  0
  1  2  2  0
  1  3  1  0
  2  4  1  0
  5 11  1  0
  3  6  2  0
  5  7  1  0
  7  8  1  0
  2  9  1  0
  3 10  1  0
  4 11  1  0
 10 12  1  0
 10 13  1  0
  8 14  2  0
  8 15  1  0
 14 16  1  0
  7 17  2  0
 15 18  2  0
 19 22  1  0
  4 20  1  0
  4 21  1  0
 20 22  1  0
  6  9  1  0
 12 13  1  0
  5 19  1  0
 16 18  1  0
M  END
>  <MOLFORMULA>  (467) 
C16 H19 N3 O3

>  <MOLWEIGHT>  (467) 
3.013441000000000e+002

>  <IDNUMBER>  (467) 
AT-687/SK17709

>  <PRICE>  (467) 
EUR 80/10 mg

>  <Similarity score>  (467) 
0.17

$$$$

     RDKit          2D

 23 26  0  0  0  0  0  0  0  0999 V2000
    4.4792   -2.0000    0.0000 N   0  0  0  0  0  0  0  0  0  0  0  0
    4.9667   -2.6667    0.0000 C   0  0  0  0  0  0  0  0  0  0  0  0
    3.7000   -2.2542    0.0000 C   0  0  0  0  0  0  0  0  0  0  0  0
    7.9667   -2.8250    0.0000 C   0  0  0  0  0  0  0  0  0  0  0  0
    7.1667   -3.0417    0.0000 N   0  0  0  0  0  0  0  0  0  0  0  0
    8.5417   -3.4125    0.0000 C   0  0  0  0  0  0  0  0  0  0  0  0
    5.7917   -2.6667    0.0000 C   0  0  0  0  0  0  0  0  0  0  0  0
    3.7000   -3.0792    0.0000 N   0  0  0  0  0  0  0  0  0  0  0  0
    4.4792   -3.3375    0.0000 O   0  0  0  0  0  0  0  0  0  0  0  0
    8.4250   -4.2250    0.0000 N   0  0  0  0  0  0  0  0  0  0  0  0
    3.0292   -1.7750    0.0000 C   0  0  0  0  0  0  0  0  0  0  0  0
    6.5875   -2.4542    0.0000 C   0  0  0  0  0  0  0  0  0  0  0  0
    2.6875   -1.0167    0.0000 C   0  0  0  0  0  0  0  0  0  0  0  0
    2.2042   -1.6875    0.0000 C   0  0  0  0  0  0  0  0  0  0  0  0
    9.3625   -3.2792    0.0000 C   0  0  0  0  0  0  0  0  0  0  0  0
    9.1542   -4.6000    0.0000 C   0  0  0  0  0  0  0  0  0  0  0  0
    9.7417   -4.0167    0.0000 C   0  0  0  0  0  0  0  0  0  0  0  0
    8.1792   -2.0292    0.0000 O   0  0  0  0  0  0  0  0  0  0  0  0
    6.9542   -3.8375    0.0000 C   0  0  0  0  0  0  0  0  0  0  0  0
    5.5750   -3.4667    0.0000 C   0  0  0  0  0  0  0  0  0  0  0  0
    6.1042   -1.9042    0.0000 C   0  0  0  0  0  0  0  0  0  0  0  0
    7.6792   -4.6000    0.0000 C   0  0  0  0  0  0  0  0  0  0  0  0
    6.1625   -4.0542    0.0000 C   0  0  0  0  0  0  0  0  0  0  0  0
  1  2  2  0
  1  3  1  0
  4  5  1  0
  5 12  1  0
  4  6  1  0
  2  7  1  0
  3  8  2  0
  2  9  1  0
  6 10  1  0
  3 11  1  0
  7 12  1  0
 11 13  1  0
 11 14  1  0
  6 15  2  0
 10 16  1  0
 15 17  1  0
  4 18  2  0
 19 23  1  0
  7 20  1  0
  7 21  1  0
 10 22  1  0
 20 23  1  0
  8  9  1  0
 13 14  1  0
  5 19  1  0
 16 17  2  0
M  END
>  <MOLFORMULA>  (468) 
C17 H22 N4 O2

>  <MOLWEIGHT>  (468) 
3.143868000000000e+002

>  <IDNUMBER>  (468) 
AT-687/SK17715

>  <PRICE>  (468) 
EUR 80/10 mg

>  <Similarity score>  (468) 
0.17

$$$$

     RDKit          2D

 25 28  0  0  0  0  0  0  0  0999 V2000
    1.7500    1.3000    0.0000 C   0  0  0  0  0  0  0  0  0  0  0  0
    2.7417    1.4042    0.0000 C   0  0  0  0  0  0  0  0  0  0  0  0
    1.3417    2.2167    0.0000 S   0  0  0  0  0  0  0  0  0  0  0  0
    2.9500    2.3833    0.0000 C   0  0  0  0  0  0  0  0  0  0  0  0
   -1.7542   -1.2958    0.0000 C   0  0  0  0  0  0  0  0  0  0  0  0
   -1.3458   -2.2125    0.0000 N   0  0  0  0  0  0  0  0  0  0  0  0
    2.0833    2.8833    0.0000 C   0  0  0  0  0  0  0  0  0  0  0  0
    1.2458    0.4333    0.0000 N   0  0  0  0  0  0  0  0  0  0  0  0
   -2.7458   -1.4000    0.0000 O   0  0  0  0  0  0  0  0  0  0  0  0
    3.4125    0.6625    0.0000 C   0  0  0  0  0  0  0  0  0  0  0  0
   -2.0875   -2.8792    0.0000 C   0  0  0  0  0  0  0  0  0  0  0  0
    3.1042   -0.2875    0.0000 N   0  0  0  0  0  0  0  0  0  0  0  0
   -2.9542   -2.3792    0.0000 C   0  0  0  0  0  0  0  0  0  0  0  0
    0.2500    0.4333    0.0000 C   0  0  0  0  0  0  0  0  0  0  0  0
   -1.2500   -0.4292    0.0000 S   0  0  0  0  0  0  0  0  0  0  0  0
   -0.2500    1.3000    0.0000 O   0  0  0  0  0  0  0  0  0  0  0  0
   -0.2500   -0.4292    0.0000 C   0  0  0  0  0  0  0  0  0  0  0  0
    3.8167    2.8833    0.0000 C   0  0  0  0  0  0  0  0  0  0  0  0
    2.0833    3.8833    0.0000 C   0  0  0  0  0  0  0  0  0  0  0  0
   -2.0875   -3.8792    0.0000 C   0  0  0  0  0  0  0  0  0  0  0  0
   -3.8208   -2.8792    0.0000 C   0  0  0  0  0  0  0  0  0  0  0  0
    3.8167    3.8833    0.0000 C   0  0  0  0  0  0  0  0  0  0  0  0
    2.9500    4.3792    0.0000 C   0  0  0  0  0  0  0  0  0  0  0  0
   -3.8208   -3.8792    0.0000 C   0  0  0  0  0  0  0  0  0  0  0  0
   -2.9542   -4.3792    0.0000 C   0  0  0  0  0  0  0  0  0  0  0  0
  1  2  2  0
  1  3  1  0
  2  4  1  0
  5 15  1  0
  5  6  2  0
  3  7  1  0
  1  8  1  0
  5  9  1  0
  2 10  1  0
  6 11  1  0
 10 12  3  0
  9 13  1  0
  8 14  1  0
 15 17  1  0
 14 16  2  0
 14 17  1  0
  4 18  1  0
  7 19  1  0
 11 20  2  0
 13 21  2  0
 18 22  1  0
 19 23  1  0
 21 24  1  0
 20 25  1  0
  4  7  2  0
 22 23  1  0
 11 13  1  0
 24 25  2  0
M  END
>  <MOLFORMULA>  (469) 
C18 H15 N3 O2 S2

>  <MOLWEIGHT>  (469) 
3.694675000000000e+002

>  <IDNUMBER>  (469) 
AN-153/I135718

>  <PRICE>  (469) 
EUR 130/10 mg

>  <Similarity score>  (469) 
0.17

$$$$

     RDKit          2D

 18 20  0  0  0  0  0  0  0  0999 V2000
   -0.3542    1.7500    0.0000 C   0  0  0  0  0  0  0  0  0  0  0  0
    0.0542    0.8333    0.0000 C   0  0  0  0  0  0  0  0  0  0  0  0
    1.0458    0.9375    0.0000 S   0  0  0  0  0  0  0  0  0  0  0  0
    0.3875    2.4167    0.0000 C   0  0  0  0  0  0  0  0  0  0  0  0
    1.2542    1.9167    0.0000 C   0  0  0  0  0  0  0  0  0  0  0  0
   -0.4458   -0.0333    0.0000 N   0  0  0  0  0  0  0  0  0  0  0  0
   -1.3333    1.9542    0.0000 C   0  0  0  0  0  0  0  0  0  0  0  0
   -2.0000    1.2125    0.0000 N   0  0  0  0  0  0  0  0  0  0  0  0
    0.0542   -0.8958    0.0000 C   0  0  0  0  0  0  0  0  0  0  0  0
   -0.4458   -3.4958    0.0000 N   0  0  0  0  0  0  0  0  0  0  0  0
   -0.4458   -1.7625    0.0000 C   0  0  0  0  0  0  0  0  0  0  0  0
    0.5958    3.3958    0.0000 C   0  0  0  0  0  0  0  0  0  0  0  0
    1.9958    2.5875    0.0000 C   0  0  0  0  0  0  0  0  0  0  0  0
    0.0542   -2.6292    0.0000 C   0  0  0  0  0  0  0  0  0  0  0  0
    1.5917    3.5000    0.0000 C   0  0  0  0  0  0  0  0  0  0  0  0
   -1.4458   -3.4958    0.0000 C   0  0  0  0  0  0  0  0  0  0  0  0
   -1.4458   -1.7625    0.0000 C   0  0  0  0  0  0  0  0  0  0  0  0
   -1.9500   -2.6292    0.0000 C   0  0  0  0  0  0  0  0  0  0  0  0
  1  2  2  0
  2  3  1  0
  1  4  1  0
  4  5  2  0
  2  6  1  0
  1  7  1  0
  7  8  3  0
  6  9  2  0
 10 14  2  0
  9 11  1  0
  4 12  1  0
  5 13  1  0
 11 14  1  0
 12 15  1  0
 16 18  2  0
 11 17  2  0
 17 18  1  0
  3  5  1  0
 13 15  1  0
 10 16  1  0
M  END
>  <MOLFORMULA>  (470) 
C14 H11 N3 S

>  <MOLWEIGHT>  (470) 
2.533279000000000e+002

>  <IDNUMBER>  (470) 
AN-153/I120893

>  <PRICE>  (470) 
EUR 130/10 mg

>  <Similarity score>  (470) 
0.17

$$$$

     RDKit          2D

 18 20  0  0  0  0  0  0  0  0999 V2000
   -1.0875    0.1583    0.0000 C   0  0  0  0  0  0  0  0  0  0  0  0
   -0.4333   -0.1417    0.0000 C   0  0  0  0  0  0  0  0  0  0  0  0
   -0.5083   -0.8625    0.0000 S   0  0  0  0  0  0  0  0  0  0  0  0
   -1.5708   -0.3792    0.0000 C   0  0  0  0  0  0  0  0  0  0  0  0
   -1.2083   -1.0125    0.0000 C   0  0  0  0  0  0  0  0  0  0  0  0
    0.2125    0.2208    0.0000 N   0  0  0  0  0  0  0  0  0  0  0  0
   -1.2375    0.8708    0.0000 C   0  0  0  0  0  0  0  0  0  0  0  0
   -1.3875    1.5833    0.0000 N   0  0  0  0  0  0  0  0  0  0  0  0
    0.8500   -0.1667    0.0000 C   0  0  0  0  0  0  0  0  0  0  0  0
    2.7500    0.1708    0.0000 N   0  0  0  0  0  0  0  0  0  0  0  0
    1.4917    0.1708    0.0000 C   0  0  0  0  0  0  0  0  0  0  0  0
   -2.2875   -0.5625    0.0000 C   0  0  0  0  0  0  0  0  0  0  0  0
   -1.7083   -1.5500    0.0000 C   0  0  0  0  0  0  0  0  0  0  0  0
    2.1167   -0.2000    0.0000 C   0  0  0  0  0  0  0  0  0  0  0  0
   -2.3500   -1.2500    0.0000 C   0  0  0  0  0  0  0  0  0  0  0  0
    2.7500    0.8875    0.0000 C   0  0  0  0  0  0  0  0  0  0  0  0
    1.4917    0.8833    0.0000 C   0  0  0  0  0  0  0  0  0  0  0  0
    2.1167    1.2375    0.0000 C   0  0  0  0  0  0  0  0  0  0  0  0
  1  2  2  0
  2  3  1  0
  1  4  1  0
  4  5  2  0
  2  6  1  0
  1  7  1  0
  7  8  3  0
  6  9  2  0
 10 14  1  0
  9 11  1  0
  4 12  1  0
  5 13  1  0
 11 14  2  0
 12 15  1  0
 16 18  1  0
 11 17  1  0
 17 18  2  0
  3  5  1  0
 13 15  1  0
 10 16  2  0
M  END
>  <MOLFORMULA>  (471) 
C14 H11 N3 S

>  <MOLWEIGHT>  (471) 
2.533279000000000e+002

>  <IDNUMBER>  (471) 
AT-084/J158713

>  <PRICE>  (471) 
EUR 37.00/10 mg

>  <Similarity score>  (471) 
0.17

$$$$

     RDKit          2D

 25 28  0  0  0  0  0  0  0  0999 V2000
    3.6667   -1.5917    0.0000 N   0  0  0  0  0  0  0  0  0  0  0  0
    4.4500   -2.6667    0.0000 C   0  0  0  0  0  0  0  0  0  0  0  0
    9.2917   -2.9042    0.0000 C   0  0  0  0  0  0  0  0  0  0  0  0
   10.2250   -3.8500    0.0000 C   0  0  0  0  0  0  0  0  0  0  0  0
    2.4000   -1.9917    0.0000 C   0  0  0  0  0  0  0  0  0  0  0  0
    8.0042   -3.2417    0.0000 N   0  0  0  0  0  0  0  0  0  0  0  0
    5.7750   -2.6667    0.0000 C   0  0  0  0  0  0  0  0  0  0  0  0
    2.4000   -3.3250    0.0000 N   0  0  0  0  0  0  0  0  0  0  0  0
    3.6667   -3.7292    0.0000 O   0  0  0  0  0  0  0  0  0  0  0  0
    1.3250   -1.2167    0.0000 C   0  0  0  0  0  0  0  0  0  0  0  0
    7.0667   -2.3167    0.0000 C   0  0  0  0  0  0  0  0  0  0  0  0
    0.0000   -1.0667    0.0000 C   0  0  0  0  0  0  0  0  0  0  0  0
    0.7750   -0.0000    0.0000 C   0  0  0  0  0  0  0  0  0  0  0  0
    9.8667   -5.1417    0.0000 C   0  0  0  0  0  0  0  0  0  0  0  0
   11.5167   -3.5167    0.0000 C   0  0  0  0  0  0  0  0  0  0  0  0
    9.6250   -1.6250    0.0000 O   0  0  0  0  0  0  0  0  0  0  0  0
   10.8167   -6.0750    0.0000 C   0  0  0  0  0  0  0  0  0  0  0  0
   12.4500   -4.4292    0.0000 C   0  0  0  0  0  0  0  0  0  0  0  0
    7.6500   -4.5500    0.0000 C   0  0  0  0  0  0  0  0  0  0  0  0
    5.4250   -3.9417    0.0000 C   0  0  0  0  0  0  0  0  0  0  0  0
    8.6000   -5.4667    0.0000 F   0  0  0  0  0  0  0  0  0  0  0  0
    6.2750   -1.4417    0.0000 C   0  0  0  0  0  0  0  0  0  0  0  0
   12.1042   -5.7417    0.0000 C   0  0  0  0  0  0  0  0  0  0  0  0
   13.7500   -4.1000    0.0000 F   0  0  0  0  0  0  0  0  0  0  0  0
    6.3750   -4.8917    0.0000 C   0  0  0  0  0  0  0  0  0  0  0  0
  1  2  2  0
  3  6  1  0
  3  4  1  0
  1  5  1  0
  6 11  1  0
  2  7  1  0
  5  8  2  0
  2  9  1  0
  5 10  1  0
  7 11  1  0
 10 12  1  0
 10 13  1  0
  4 14  2  0
  4 15  1  0
  3 16  2  0
 14 17  1  0
 15 18  2  0
 19 25  1  0
  7 20  1  0
 14 21  1  0
  7 22  1  0
 18 23  1  0
 18 24  1  0
 20 25  1  0
  8  9  1  0
 12 13  1  0
  6 19  1  0
 17 23  2  0
M  END
>  <MOLFORMULA>  (472) 
C18 H19 F2 N3 O2

>  <MOLWEIGHT>  (472) 
3.473631000000000e+002

>  <IDNUMBER>  (472) 
AT-687/PE19315

>  <PRICE>  (472) 
EUR 80/10 mg

>  <Similarity score>  (472) 
0.17

$$$$

     RDKit          2D

 21 23  0  0  0  0  0  0  0  0999 V2000
    0.0250    1.7000    0.0000 C   0  0  0  0  0  0  0  0  0  0  0  0
   -0.3833    2.6125    0.0000 C   0  0  0  0  0  0  0  0  0  0  0  0
    1.0208    1.8042    0.0000 S   0  0  0  0  0  0  0  0  0  0  0  0
    0.3625    3.2833    0.0000 C   0  0  0  0  0  0  0  0  0  0  0  0
   -0.4750    0.8333    0.0000 N   0  0  0  0  0  0  0  0  0  0  0  0
    1.2292    2.7833    0.0000 C   0  0  0  0  0  0  0  0  0  0  0  0
    0.0250   -0.0333    0.0000 C   0  0  0  0  0  0  0  0  0  0  0  0
   -1.3583    2.8208    0.0000 C   0  0  0  0  0  0  0  0  0  0  0  0
   -1.6708    3.7708    0.0000 N   0  0  0  0  0  0  0  0  0  0  0  0
   -0.4750   -0.8958    0.0000 C   0  0  0  0  0  0  0  0  0  0  0  0
    1.0250   -0.0333    0.0000 O   0  0  0  0  0  0  0  0  0  0  0  0
   -1.4750   -0.8958    0.0000 C   0  0  0  0  0  0  0  0  0  0  0  0
    0.0250   -1.7625    0.0000 C   0  0  0  0  0  0  0  0  0  0  0  0
    0.5708    4.2583    0.0000 C   0  0  0  0  0  0  0  0  0  0  0  0
   -1.4750   -2.6292    0.0000 C   0  0  0  0  0  0  0  0  0  0  0  0
    1.9708    3.4542    0.0000 C   0  0  0  0  0  0  0  0  0  0  0  0
   -0.4750   -2.6292    0.0000 C   0  0  0  0  0  0  0  0  0  0  0  0
   -1.9750   -1.7625    0.0000 C   0  0  0  0  0  0  0  0  0  0  0  0
   -1.9750   -3.4958    0.0000 O   0  0  0  0  0  0  0  0  0  0  0  0
    1.5625    4.3625    0.0000 C   0  0  0  0  0  0  0  0  0  0  0  0
   -1.4750   -4.3625    0.0000 C   0  0  0  0  0  0  0  0  0  0  0  0
  1  2  2  0
  1  3  1  0
  2  4  1  0
  1  5  1  0
  3  6  1  0
  5  7  1  0
  2  8  1  0
  8  9  3  0
  7 10  1  0
  7 11  2  0
 10 12  1  0
 10 13  2  0
  4 14  1  0
 15 17  2  0
  6 16  1  0
 13 17  1  0
 12 18  2  0
 15 19  1  0
 16 20  1  0
 19 21  1  0
  4  6  2  0
 14 20  1  0
 15 18  1  0
M  END
>  <MOLFORMULA>  (473) 
C16 H14 N2 O2 S

>  <MOLWEIGHT>  (473) 
2.983646000000000e+002

>  <IDNUMBER>  (473) 
AN-153/I236325

>  <PRICE>  (473) 
EUR 130/10 mg

>  <Similarity score>  (473) 
0.17

$$$$

     RDKit          2D

 23 25  0  0  0  0  0  0  0  0999 V2000
   -0.6833    2.0250    0.0000 C   0  0  0  0  0  0  0  0  0  0  0  0
   -0.0542    2.8000    0.0000 C   0  0  0  0  0  0  0  0  0  0  0  0
   -1.6167    2.3833    0.0000 S   0  0  0  0  0  0  0  0  0  0  0  0
   -0.5958    3.6417    0.0000 C   0  0  0  0  0  0  0  0  0  0  0  0
   -0.4208    1.0583    0.0000 N   0  0  0  0  0  0  0  0  0  0  0  0
   -1.5625    3.3792    0.0000 C   0  0  0  0  0  0  0  0  0  0  0  0
   -1.1292    0.3500    0.0000 C   0  0  0  0  0  0  0  0  0  0  0  0
    0.9458    2.7500    0.0000 C   0  0  0  0  0  0  0  0  0  0  0  0
    1.4917    3.5875    0.0000 N   0  0  0  0  0  0  0  0  0  0  0  0
   -0.8667   -0.6167    0.0000 C   0  0  0  0  0  0  0  0  0  0  0  0
   -2.0958    0.6083    0.0000 O   0  0  0  0  0  0  0  0  0  0  0  0
    0.1000   -0.8708    0.0000 C   0  0  0  0  0  0  0  0  0  0  0  0
   -1.5750   -1.3250    0.0000 C   0  0  0  0  0  0  0  0  0  0  0  0
   -0.5458    4.6333    0.0000 C   0  0  0  0  0  0  0  0  0  0  0  0
   -0.3500   -2.5458    0.0000 C   0  0  0  0  0  0  0  0  0  0  0  0
   -2.1083    4.2125    0.0000 C   0  0  0  0  0  0  0  0  0  0  0  0
   -1.3125   -2.2875    0.0000 C   0  0  0  0  0  0  0  0  0  0  0  0
    0.3583   -1.8375    0.0000 C   0  0  0  0  0  0  0  0  0  0  0  0
   -0.0875   -3.5125    0.0000 O   0  0  0  0  0  0  0  0  0  0  0  0
   -1.4792    4.9917    0.0000 C   0  0  0  0  0  0  0  0  0  0  0  0
    0.8792   -3.7708    0.0000 C   0  0  0  0  0  0  0  0  0  0  0  0
    1.1375   -4.7333    0.0000 C   0  0  0  0  0  0  0  0  0  0  0  0
    2.1042   -4.9917    0.0000 C   0  0  0  0  0  0  0  0  0  0  0  0
  1  2  2  0
  1  3  1  0
  2  4  1  0
  1  5  1  0
  3  6  1  0
  5  7  1  0
  2  8  1  0
  8  9  3  0
  7 10  1  0
  7 11  2  0
 10 12  1  0
 10 13  2  0
  4 14  1  0
 15 17  2  0
  6 16  1  0
 13 17  1  0
 12 18  2  0
 15 19  1  0
 16 20  1  0
 19 21  1  0
 21 22  1  0
 22 23  1  0
  4  6  2  0
 14 20  1  0
 15 18  1  0
M  END
>  <MOLFORMULA>  (474) 
C18 H18 N2 O2 S

>  <MOLWEIGHT>  (474) 
3.264182000000000e+002

>  <IDNUMBER>  (474) 
AN-153/I215686

>  <PRICE>  (474) 
EUR 130/10 mg

>  <Similarity score>  (474) 
0.17

$$$$

     RDKit          2D

 33 37  0  0  0  0  0  0  0  0999 V2000
    4.9917    4.0792    0.0000 C   0  0  0  0  0  0  0  0  0  0  0  0
    4.8917    3.2833    0.0000 N   0  0  0  0  0  0  0  0  0  0  0  0
    5.7125    4.4792    0.0000 C   0  0  0  0  0  0  0  0  0  0  0  0
    4.4042    4.6417    0.0000 S   0  0  0  0  0  0  0  0  0  0  0  0
    4.3167    0.5583    0.0000 C   0  0  0  0  0  0  0  0  0  0  0  0
    5.1542    1.9833    0.0000 C   0  0  0  0  0  0  0  0  0  0  0  0
    3.8292   -0.1042    0.0000 N   0  0  0  0  0  0  0  0  0  0  0  0
    5.1417    0.5583    0.0000 C   0  0  0  0  0  0  0  0  0  0  0  0
    4.1917    2.8750    0.0000 C   0  0  0  0  0  0  0  0  0  0  0  0
    5.5042    2.7250    0.0000 C   0  0  0  0  0  0  0  0  0  0  0  0
    5.5542    5.2792    0.0000 C   0  0  0  0  0  0  0  0  0  0  0  0
    4.7417    5.3875    0.0000 C   0  0  0  0  0  0  0  0  0  0  0  0
    3.8292    1.2333    0.0000 N   0  0  0  0  0  0  0  0  0  0  0  0
    5.5542    1.2750    0.0000 C   0  0  0  0  0  0  0  0  0  0  0  0
    4.3417    2.0708    0.0000 C   0  0  0  0  0  0  0  0  0  0  0  0
    3.0417    0.1458    0.0000 C   0  0  0  0  0  0  0  0  0  0  0  0
    6.4542    4.1375    0.0000 C   0  0  0  0  0  0  0  0  0  0  0  0
    3.0417    0.9708    0.0000 C   0  0  0  0  0  0  0  0  0  0  0  0
    5.5542   -0.1542    0.0000 C   0  0  0  0  0  0  0  0  0  0  0  0
    7.2000    3.8000    0.0000 N   0  0  0  0  0  0  0  0  0  0  0  0
    5.9625   -0.8667    0.0000 N   0  0  0  0  0  0  0  0  0  0  0  0
    2.3292   -0.2667    0.0000 C   0  0  0  0  0  0  0  0  0  0  0  0
    2.3292    1.3833    0.0000 C   0  0  0  0  0  0  0  0  0  0  0  0
    1.6167    0.1458    0.0000 C   0  0  0  0  0  0  0  0  0  0  0  0
    3.4375    3.2208    0.0000 C   0  0  0  0  0  0  0  0  0  0  0  0
    6.0417    5.9292    0.0000 C   0  0  0  0  0  0  0  0  0  0  0  0
    6.3042    2.8833    0.0000 C   0  0  0  0  0  0  0  0  0  0  0  0
    1.6167    0.9708    0.0000 C   0  0  0  0  0  0  0  0  0  0  0  0
    4.4167    6.1292    0.0000 C   0  0  0  0  0  0  0  0  0  0  0  0
    0.9042   -0.2667    0.0000 O   0  0  0  0  0  0  0  0  0  0  0  0
    0.9042   -1.0917    0.0000 C   0  0  0  0  0  0  0  0  0  0  0  0
    5.7292    6.6917    0.0000 C   0  0  0  0  0  0  0  0  0  0  0  0
    4.9167    6.7917    0.0000 C   0  0  0  0  0  0  0  0  0  0  0  0
  1  2  1  0
  1  3  2  0
  1  4  1  0
  5  8  1  0
  6 10  2  0
  5  7  2  0
  8 14  2  0
  2  9  1  0
  2 10  1  0
  3 11  1  0
  4 12  1  0
  5 13  1  0
  6 14  1  0
  9 15  2  0
  7 16  1  0
  3 17  1  0
 13 18  1  0
  8 19  1  0
 17 20  3  0
 19 21  3  0
 16 22  2  0
 18 23  2  0
 22 24  1  0
  9 25  1  0
 11 26  1  0
 10 27  1  0
 23 28  1  0
 12 29  1  0
 24 30  1  0
 30 31  1  0
 26 32  1  0
 29 33  1  0
 11 12  2  0
  6 15  1  0
 32 33  1  0
 16 18  1  0
 24 28  2  0
M  END
>  <MOLFORMULA>  (475) 
C26 H23 N5 O S

>  <MOLWEIGHT>  (475) 
4.535677000000000e+002

>  <IDNUMBER>  (475) 
AM-879/MD25802

>  <PRICE>  (475) 
EUR 55.00/10 mg

>  <Similarity score>  (475) 
0.17

$$$$

     RDKit          2D

 33 37  0  0  0  0  0  0  0  0999 V2000
    8.6875   -5.5000    0.0000 C   0  0  0  0  0  0  0  0  0  0  0  0
    8.0125   -5.9750    0.0000 N   0  0  0  0  0  0  0  0  0  0  0  0
    8.7000   -4.6750    0.0000 C   0  0  0  0  0  0  0  0  0  0  0  0
    9.4750   -5.7667    0.0000 S   0  0  0  0  0  0  0  0  0  0  0  0
    4.6417   -7.0917    0.0000 C   0  0  0  0  0  0  0  0  0  0  0  0
    6.7292   -6.3875    0.0000 C   0  0  0  0  0  0  0  0  0  0  0  0
    4.1542   -6.4125    0.0000 N   0  0  0  0  0  0  0  0  0  0  0  0
    5.4750   -7.1042    0.0000 C   0  0  0  0  0  0  0  0  0  0  0  0
    8.0000   -6.8042    0.0000 C   0  0  0  0  0  0  0  0  0  0  0  0
    7.2292   -5.7125    0.0000 C   0  0  0  0  0  0  0  0  0  0  0  0
    9.4750   -4.4250    0.0000 C   0  0  0  0  0  0  0  0  0  0  0  0
    9.9542   -5.1042    0.0000 C   0  0  0  0  0  0  0  0  0  0  0  0
    4.1542   -7.7625    0.0000 N   0  0  0  0  0  0  0  0  0  0  0  0
    5.8917   -6.3875    0.0000 C   0  0  0  0  0  0  0  0  0  0  0  0
    7.2042   -7.0542    0.0000 C   0  0  0  0  0  0  0  0  0  0  0  0
    3.3792   -6.6667    0.0000 C   0  0  0  0  0  0  0  0  0  0  0  0
    8.0292   -4.1792    0.0000 C   0  0  0  0  0  0  0  0  0  0  0  0
    3.3667   -7.4917    0.0000 C   0  0  0  0  0  0  0  0  0  0  0  0
    5.8875   -7.8250    0.0000 C   0  0  0  0  0  0  0  0  0  0  0  0
    7.4417   -3.5917    0.0000 N   0  0  0  0  0  0  0  0  0  0  0  0
    6.2917   -8.5500    0.0000 N   0  0  0  0  0  0  0  0  0  0  0  0
    2.6625   -6.2417    0.0000 C   0  0  0  0  0  0  0  0  0  0  0  0
    2.6500   -7.9042    0.0000 C   0  0  0  0  0  0  0  0  0  0  0  0
    1.9417   -6.6542    0.0000 C   0  0  0  0  0  0  0  0  0  0  0  0
    8.6625   -7.3042    0.0000 C   0  0  0  0  0  0  0  0  0  0  0  0
    9.8167   -3.6667    0.0000 C   0  0  0  0  0  0  0  0  0  0  0  0
    6.9792   -4.9292    0.0000 C   0  0  0  0  0  0  0  0  0  0  0  0
    1.9292   -7.4792    0.0000 C   0  0  0  0  0  0  0  0  0  0  0  0
   10.7792   -5.0250    0.0000 C   0  0  0  0  0  0  0  0  0  0  0  0
    1.2292   -6.2375    0.0000 O   0  0  0  0  0  0  0  0  0  0  0  0
    1.2417   -5.4125    0.0000 C   0  0  0  0  0  0  0  0  0  0  0  0
   10.6417   -3.5792    0.0000 C   0  0  0  0  0  0  0  0  0  0  0  0
   11.1292   -4.2667    0.0000 C   0  0  0  0  0  0  0  0  0  0  0  0
  1  2  1  0
  1  3  2  0
  1  4  1  0
  5  8  1  0
  6 10  2  0
  5  7  2  0
  8 14  2  0
  2  9  1  0
  2 10  1  0
  3 11  1  0
  4 12  1  0
  5 13  1  0
  6 14  1  0
  9 15  2  0
  7 16  1  0
  3 17  1  0
 13 18  1  0
  8 19  1  0
 17 20  3  0
 19 21  3  0
 16 22  1  0
 18 23  1  0
 22 24  2  0
  9 25  1  0
 11 26  1  0
 10 27  1  0
 23 28  2  0
 12 29  1  0
 24 30  1  0
 30 31  1  0
 26 32  1  0
 29 33  1  0
 11 12  2  0
  6 15  1  0
 32 33  1  0
 16 18  2  0
 24 28  1  0
M  END
>  <MOLFORMULA>  (476) 
C26 H23 N5 O S

>  <MOLWEIGHT>  (476) 
4.535677000000000e+002

>  <IDNUMBER>  (476) 
AT-139/J204542

>  <PRICE>  (476) 
EUR 125.00/10 mg

>  <Similarity score>  (476) 
0.17

$$$$

     RDKit          2D

 21 23  0  0  0  0  0  0  0  0999 V2000
   -0.4750   -1.5167    0.0000 C   0  0  0  0  0  0  0  0  0  0  0  0
   -0.6833   -2.4958    0.0000 C   0  0  0  0  0  0  0  0  0  0  0  0
   -1.3417   -1.0167    0.0000 S   0  0  0  0  0  0  0  0  0  0  0  0
   -1.6792   -2.6000    0.0000 C   0  0  0  0  0  0  0  0  0  0  0  0
    0.4375   -1.1125    0.0000 N   0  0  0  0  0  0  0  0  0  0  0  0
   -2.0833   -1.6875    0.0000 C   0  0  0  0  0  0  0  0  0  0  0  0
    0.5417   -0.1167    0.0000 C   0  0  0  0  0  0  0  0  0  0  0  0
   -0.0125   -3.2375    0.0000 C   0  0  0  0  0  0  0  0  0  0  0  0
    0.9625   -3.0292    0.0000 N   0  0  0  0  0  0  0  0  0  0  0  0
    1.4542    0.2917    0.0000 C   0  0  0  0  0  0  0  0  0  0  0  0
   -0.2667    0.4708    0.0000 O   0  0  0  0  0  0  0  0  0  0  0  0
    1.5583    1.2833    0.0000 C   0  0  0  0  0  0  0  0  0  0  0  0
   -2.4208   -3.2708    0.0000 C   0  0  0  0  0  0  0  0  0  0  0  0
    2.4750    1.6917    0.0000 C   0  0  0  0  0  0  0  0  0  0  0  0
   -3.0792   -1.7917    0.0000 C   0  0  0  0  0  0  0  0  0  0  0  0
    2.5792    2.6875    0.0000 O   0  0  0  0  0  0  0  0  0  0  0  0
    2.2667   -0.2958    0.0000 C   0  0  0  0  0  0  0  0  0  0  0  0
   -3.2875   -2.7708    0.0000 C   0  0  0  0  0  0  0  0  0  0  0  0
    3.1792    0.1083    0.0000 C   0  0  0  0  0  0  0  0  0  0  0  0
    3.2833    1.1042    0.0000 C   0  0  0  0  0  0  0  0  0  0  0  0
    1.7708    3.2750    0.0000 C   0  0  0  0  0  0  0  0  0  0  0  0
  1  2  2  0
  1  3  1  0
  2  4  1  0
  1  5  1  0
  3  6  1  0
  5  7  1  0
  2  8  1  0
  8  9  3  0
  7 10  1  0
  7 11  2  0
 10 12  2  0
  4 13  1  0
 12 14  1  0
  6 15  1  0
 14 16  1  0
 10 17  1  0
 15 18  1  0
 17 19  2  0
 19 20  1  0
 16 21  1  0
  4  6  2  0
 13 18  1  0
 14 20  2  0
M  END
>  <MOLFORMULA>  (477) 
C16 H14 N2 O2 S

>  <MOLWEIGHT>  (477) 
2.983646000000000e+002

>  <IDNUMBER>  (477) 
AN-153/I181368

>  <PRICE>  (477) 
EUR 130/10 mg

>  <Similarity score>  (477) 
0.17

$$$$

     RDKit          2D

 25 27  0  0  0  0  0  0  0  0999 V2000
   -0.2500    1.8375    0.0000 C   0  0  0  0  0  0  0  0  0  0  0  0
    0.2625    2.6958    0.0000 C   0  0  0  0  0  0  0  0  0  0  0  0
   -0.2708   -2.5208    0.0000 C   0  0  0  0  0  0  0  0  0  0  0  0
   -0.8708   -3.3208    0.0000 N   0  0  0  0  0  0  0  0  0  0  0  0
   -1.2250    2.0625    0.0000 S   0  0  0  0  0  0  0  0  0  0  0  0
    0.7250   -2.6375    0.0000 N   0  0  0  0  0  0  0  0  0  0  0  0
   -0.3958    3.4500    0.0000 C   0  0  0  0  0  0  0  0  0  0  0  0
    0.1458    0.9208    0.0000 N   0  0  0  0  0  0  0  0  0  0  0  0
   -1.3125    3.0583    0.0000 C   0  0  0  0  0  0  0  0  0  0  0  0
   -0.4750   -4.2375    0.0000 C   0  0  0  0  0  0  0  0  0  0  0  0
    0.5167   -4.3583    0.0000 C   0  0  0  0  0  0  0  0  0  0  0  0
    1.1167   -3.5583    0.0000 C   0  0  0  0  0  0  0  0  0  0  0  0
   -0.4542    0.1208    0.0000 C   0  0  0  0  0  0  0  0  0  0  0  0
    1.2583    2.7875    0.0000 C   0  0  0  0  0  0  0  0  0  0  0  0
   -0.6625   -1.6000    0.0000 S   0  0  0  0  0  0  0  0  0  0  0  0
    1.6792    3.6958    0.0000 N   0  0  0  0  0  0  0  0  0  0  0  0
   -0.0625   -0.8000    0.0000 C   0  0  0  0  0  0  0  0  0  0  0  0
   -1.4500    0.2375    0.0000 O   0  0  0  0  0  0  0  0  0  0  0  0
    2.1083   -3.6792    0.0000 O   0  0  0  0  0  0  0  0  0  0  0  0
   -1.0750   -5.0375    0.0000 N   0  0  0  0  0  0  0  0  0  0  0  0
   -0.2750    4.4375    0.0000 C   0  0  0  0  0  0  0  0  0  0  0  0
   -2.1125    3.6583    0.0000 C   0  0  0  0  0  0  0  0  0  0  0  0
    0.9292   -0.9208    0.0000 C   0  0  0  0  0  0  0  0  0  0  0  0
   -1.0750    5.0375    0.0000 C   0  0  0  0  0  0  0  0  0  0  0  0
   -1.9958    4.6458    0.0000 C   0  0  0  0  0  0  0  0  0  0  0  0
  1  2  2  0
  3 15  1  0
  3  4  2  0
  1  5  1  0
  3  6  1  0
  2  7  1  0
  1  8  1  0
  5  9  1  0
  4 10  1  0
 11 12  1  0
  6 12  1  0
  8 13  1  0
  2 14  1  0
 15 17  1  0
 14 16  3  0
 13 17  1  0
 13 18  2  0
 12 19  2  0
 10 20  1  0
  7 21  1  0
  9 22  1  0
 17 23  1  0
 21 24  1  0
 22 25  1  0
  7  9  2  0
 24 25  1  0
 10 11  2  0
M  END
>  <MOLFORMULA>  (478) 
C16 H17 N5 O2 S2

>  <MOLWEIGHT>  (478) 
3.754753000000000e+002

>  <IDNUMBER>  (478) 
AN-153/I240410

>  <PRICE>  (478) 
EUR 130/10 mg

>  <Similarity score>  (478) 
0.17

$$$$

     RDKit          2D

 21 23  0  0  0  0  0  0  0  0999 V2000
    1.5250    0.8333    0.0000 C   0  0  0  0  0  0  0  0  0  0  0  0
    2.5208    0.9375    0.0000 C   0  0  0  0  0  0  0  0  0  0  0  0
    1.1167    1.7500    0.0000 S   0  0  0  0  0  0  0  0  0  0  0  0
    2.7292    1.9167    0.0000 C   0  0  0  0  0  0  0  0  0  0  0  0
    1.8625    2.4167    0.0000 C   0  0  0  0  0  0  0  0  0  0  0  0
    1.0250   -0.0333    0.0000 N   0  0  0  0  0  0  0  0  0  0  0  0
    3.1875    0.1958    0.0000 C   0  0  0  0  0  0  0  0  0  0  0  0
    2.8792   -0.7542    0.0000 N   0  0  0  0  0  0  0  0  0  0  0  0
    0.0250   -0.0333    0.0000 C   0  0  0  0  0  0  0  0  0  0  0  0
   -1.9750   -1.7625    0.0000 C   0  0  0  0  0  0  0  0  0  0  0  0
   -1.4750   -2.6292    0.0000 N   0  0  0  0  0  0  0  0  0  0  0  0
   -1.4750   -0.8958    0.0000 S   0  0  0  0  0  0  0  0  0  0  0  0
   -0.4750    0.8333    0.0000 O   0  0  0  0  0  0  0  0  0  0  0  0
   -0.4750   -0.8958    0.0000 C   0  0  0  0  0  0  0  0  0  0  0  0
    3.4708    2.5875    0.0000 C   0  0  0  0  0  0  0  0  0  0  0  0
    2.0708    3.3958    0.0000 C   0  0  0  0  0  0  0  0  0  0  0  0
    3.0625    3.5000    0.0000 C   0  0  0  0  0  0  0  0  0  0  0  0
   -1.9750   -3.4958    0.0000 C   0  0  0  0  0  0  0  0  0  0  0  0
   -2.9750   -1.7625    0.0000 C   0  0  0  0  0  0  0  0  0  0  0  0
   -2.9750   -3.4958    0.0000 C   0  0  0  0  0  0  0  0  0  0  0  0
   -3.4750   -2.6292    0.0000 C   0  0  0  0  0  0  0  0  0  0  0  0
  1  2  2  0
  1  3  1  0
  2  4  1  0
  3  5  1  0
  1  6  1  0
  2  7  1  0
  7  8  3  0
  6  9  1  0
 10 12  1  0
 10 11  2  0
 12 14  1  0
  9 13  2  0
  9 14  1  0
  4 15  1  0
  5 16  1  0
 16 17  1  0
 11 18  1  0
 10 19  1  0
 20 21  1  0
 19 21  2  0
  4  5  2  0
 15 17  1  0
 18 20  2  0
M  END
>  <MOLFORMULA>  (479) 
C15 H13 N3 O S2

>  <MOLWEIGHT>  (479) 
3.154197000000000e+002

>  <IDNUMBER>  (479) 
AN-153/I135555

>  <PRICE>  (479) 
EUR 130/10 mg

>  <Similarity score>  (479) 
0.17

$$$$

     RDKit          2D

 21 23  0  0  0  0  0  0  0  0999 V2000
    3.6500   -2.2750    0.0000 C   0  0  0  0  0  0  0  0  0  0  0  0
    4.1167   -2.9292    0.0000 C   0  0  0  0  0  0  0  0  0  0  0  0
    3.6500   -3.5875    0.0000 S   0  0  0  0  0  0  0  0  0  0  0  0
    2.8792   -2.5292    0.0000 C   0  0  0  0  0  0  0  0  0  0  0  0
    2.8792   -3.3375    0.0000 C   0  0  0  0  0  0  0  0  0  0  0  0
    4.9250   -2.9292    0.0000 N   0  0  0  0  0  0  0  0  0  0  0  0
    3.9000   -1.5167    0.0000 C   0  0  0  0  0  0  0  0  0  0  0  0
    4.1417   -0.7500    0.0000 N   0  0  0  0  0  0  0  0  0  0  0  0
    5.3292   -3.6292    0.0000 C   0  0  0  0  0  0  0  0  0  0  0  0
    6.1375   -3.6292    0.0000 C   0  0  0  0  0  0  0  0  0  0  0  0
    7.7542   -3.6292    0.0000 C   0  0  0  0  0  0  0  0  0  0  0  0
    2.1750   -2.1250    0.0000 C   0  0  0  0  0  0  0  0  0  0  0  0
    2.1750   -3.7417    0.0000 C   0  0  0  0  0  0  0  0  0  0  0  0
    6.5417   -4.3292    0.0000 C   0  0  0  0  0  0  0  0  0  0  0  0
    6.5417   -2.9292    0.0000 C   0  0  0  0  0  0  0  0  0  0  0  0
    7.3500   -2.9292    0.0000 C   0  0  0  0  0  0  0  0  0  0  0  0
    7.3500   -4.3292    0.0000 C   0  0  0  0  0  0  0  0  0  0  0  0
    8.5625   -3.6292    0.0000 O   0  0  0  0  0  0  0  0  0  0  0  0
    8.9667   -4.3292    0.0000 C   0  0  0  0  0  0  0  0  0  0  0  0
    1.4792   -2.5292    0.0000 C   0  0  0  0  0  0  0  0  0  0  0  0
    1.4792   -3.3375    0.0000 C   0  0  0  0  0  0  0  0  0  0  0  0
  1  2  2  0
  2  3  1  0
  1  4  1  0
  4  5  2  0
  2  6  1  0
  1  7  1  0
  7  8  3  0
  6  9  2  0
  9 10  1  0
 11 16  2  0
  4 12  1  0
  5 13  1  0
 10 14  1  0
 10 15  2  0
 15 16  1  0
 14 17  2  0
 11 18  1  0
 18 19  1  0
 12 20  1  0
 20 21  1  0
  3  5  1  0
 13 21  1  0
 11 17  1  0
M  END
>  <MOLFORMULA>  (480) 
C17 H16 N2 O S

>  <MOLWEIGHT>  (480) 
2.963924000000000e+002

>  <IDNUMBER>  (480) 
AM-879/PD02471

>  <PRICE>  (480) 
EUR 55.00/10 mg

>  <Similarity score>  (480) 
0.17

$$$$

     RDKit          2D

 25 28  0  0  0  0  0  0  0  0999 V2000
   -2.5333    0.3833    0.0000 C   0  0  0  0  0  0  0  0  0  0  0  0
   -3.1208    1.1917    0.0000 C   0  0  0  0  0  0  0  0  0  0  0  0
   -3.1208   -0.4250    0.0000 S   0  0  0  0  0  0  0  0  0  0  0  0
   -4.0708    0.8833    0.0000 C   0  0  0  0  0  0  0  0  0  0  0  0
    1.4667   -1.3458    0.0000 C   0  0  0  0  0  0  0  0  0  0  0  0
    2.0542   -0.5375    0.0000 N   0  0  0  0  0  0  0  0  0  0  0  0
   -4.0708   -0.1167    0.0000 C   0  0  0  0  0  0  0  0  0  0  0  0
    2.0542   -2.1583    0.0000 N   0  0  0  0  0  0  0  0  0  0  0  0
   -1.5333    0.3833    0.0000 N   0  0  0  0  0  0  0  0  0  0  0  0
    3.0083   -0.8500    0.0000 C   0  0  0  0  0  0  0  0  0  0  0  0
   -2.8125    2.1458    0.0000 C   0  0  0  0  0  0  0  0  0  0  0  0
    3.0083   -1.8500    0.0000 C   0  0  0  0  0  0  0  0  0  0  0  0
   -1.8333    2.3500    0.0000 N   0  0  0  0  0  0  0  0  0  0  0  0
   -1.0333   -0.4833    0.0000 C   0  0  0  0  0  0  0  0  0  0  0  0
    0.4667   -1.3458    0.0000 S   0  0  0  0  0  0  0  0  0  0  0  0
    3.8750   -0.3500    0.0000 C   0  0  0  0  0  0  0  0  0  0  0  0
   -1.5333   -1.3458    0.0000 O   0  0  0  0  0  0  0  0  0  0  0  0
    3.8750   -2.3500    0.0000 C   0  0  0  0  0  0  0  0  0  0  0  0
   -0.0333   -0.4833    0.0000 C   0  0  0  0  0  0  0  0  0  0  0  0
    4.7375   -0.8500    0.0000 C   0  0  0  0  0  0  0  0  0  0  0  0
   -5.0208    1.1917    0.0000 C   0  0  0  0  0  0  0  0  0  0  0  0
   -5.0208   -0.4250    0.0000 C   0  0  0  0  0  0  0  0  0  0  0  0
    4.7375   -1.8500    0.0000 C   0  0  0  0  0  0  0  0  0  0  0  0
   -5.6083    0.3833    0.0000 C   0  0  0  0  0  0  0  0  0  0  0  0
    5.6042   -0.3500    0.0000 C   0  0  0  0  0  0  0  0  0  0  0  0
  1  2  2  0
  1  3  1  0
  2  4  1  0
  5 15  1  0
  5  6  2  0
  3  7  1  0
  5  8  1  0
  1  9  1  0
  6 10  1  0
  2 11  1  0
  8 12  1  0
 11 13  3  0
  9 14  1  0
 15 19  1  0
 10 16  1  0
 14 17  2  0
 12 18  1  0
 14 19  1  0
 16 20  2  0
  4 21  1  0
  7 22  1  0
 18 23  2  0
 22 24  1  0
 20 25  1  0
  4  7  2  0
 21 24  1  0
 10 12  2  0
 20 23  1  0
M  END
>  <MOLFORMULA>  (481) 
C18 H16 N4 O S2

>  <MOLWEIGHT>  (481) 
3.684834000000000e+002

>  <IDNUMBER>  (481) 
AN-153/I152895

>  <PRICE>  (481) 
EUR 130/10 mg

>  <Similarity score>  (481) 
0.17

$$$$

     RDKit          2D

 24 26  0  0  0  0  0  0  0  0999 V2000
   -0.1458    2.2750    0.0000 C   0  0  0  0  0  0  0  0  0  0  0  0
    0.3958    3.1167    0.0000 C   0  0  0  0  0  0  0  0  0  0  0  0
   -1.1125    2.5333    0.0000 S   0  0  0  0  0  0  0  0  0  0  0  0
   -0.2333    3.8917    0.0000 C   0  0  0  0  0  0  0  0  0  0  0  0
    0.2125    1.3417    0.0000 N   0  0  0  0  0  0  0  0  0  0  0  0
   -1.1667    3.5292    0.0000 C   0  0  0  0  0  0  0  0  0  0  0  0
   -0.4125    0.5625    0.0000 C   0  0  0  0  0  0  0  0  0  0  0  0
    1.3958    3.1708    0.0000 C   0  0  0  0  0  0  0  0  0  0  0  0
    1.9417    2.3292    0.0000 N   0  0  0  0  0  0  0  0  0  0  0  0
   -0.0542   -0.3708    0.0000 C   0  0  0  0  0  0  0  0  0  0  0  0
   -1.4042    0.7167    0.0000 O   0  0  0  0  0  0  0  0  0  0  0  0
   -0.6833   -1.1458    0.0000 C   0  0  0  0  0  0  0  0  0  0  0  0
   -0.3208   -2.0792    0.0000 C   0  0  0  0  0  0  0  0  0  0  0  0
   -0.0792    4.8750    0.0000 C   0  0  0  0  0  0  0  0  0  0  0  0
   -1.9458    4.1542    0.0000 C   0  0  0  0  0  0  0  0  0  0  0  0
   -0.9500   -2.8583    0.0000 O   0  0  0  0  0  0  0  0  0  0  0  0
    0.9333   -0.5250    0.0000 C   0  0  0  0  0  0  0  0  0  0  0  0
    1.2958   -1.4583    0.0000 C   0  0  0  0  0  0  0  0  0  0  0  0
    0.6667   -2.2333    0.0000 C   0  0  0  0  0  0  0  0  0  0  0  0
   -0.5875   -3.7917    0.0000 C   0  0  0  0  0  0  0  0  0  0  0  0
   -1.2167   -4.5708    0.0000 C   0  0  0  0  0  0  0  0  0  0  0  0
   -0.8583    5.5042    0.0000 C   0  0  0  0  0  0  0  0  0  0  0  0
   -1.7917    5.1417    0.0000 C   0  0  0  0  0  0  0  0  0  0  0  0
   -0.8583   -5.5042    0.0000 C   0  0  0  0  0  0  0  0  0  0  0  0
  1  2  2  0
  1  3  1  0
  2  4  1  0
  1  5  1  0
  3  6  1  0
  5  7  1  0
  2  8  1  0
  8  9  3  0
  7 10  1  0
  7 11  2  0
 10 12  2  0
 12 13  1  0
  4 14  1  0
  6 15  1  0
 13 16  1  0
 10 17  1  0
 17 18  2  0
 18 19  1  0
 16 20  1  0
 20 21  1  0
 14 22  1  0
 15 23  1  0
 21 24  1  0
  4  6  2  0
 22 23  1  0
 13 19  2  0
M  END
>  <MOLFORMULA>  (482) 
C19 H20 N2 O2 S

>  <MOLWEIGHT>  (482) 
3.404450000000000e+002

>  <IDNUMBER>  (482) 
AN-153/I224048

>  <PRICE>  (482) 
EUR 130/10 mg

>  <Similarity score>  (482) 
0.17

$$$$

     RDKit          2D

 24 28  0  0  0  0  0  0  0  0999 V2000
    3.6500   -3.8250    0.0000 N   0  0  0  0  0  0  0  0  0  0  0  0
   10.8750   -3.3917    0.0000 N   0  0  0  0  0  0  0  0  0  0  0  0
    4.4417   -4.9000    0.0000 C   0  0  0  0  0  0  0  0  0  0  0  0
    2.3917   -4.2250    0.0000 C   0  0  0  0  0  0  0  0  0  0  0  0
   10.8000   -2.0542    0.0000 C   0  0  0  0  0  0  0  0  0  0  0  0
    9.6250   -3.8667    0.0000 C   0  0  0  0  0  0  0  0  0  0  0  0
    2.3917   -5.5542    0.0000 N   0  0  0  0  0  0  0  0  0  0  0  0
    5.7750   -4.9000    0.0000 C   0  0  0  0  0  0  0  0  0  0  0  0
    8.8000   -2.8417    0.0000 N   0  0  0  0  0  0  0  0  0  0  0  0
    3.6500   -5.9750    0.0000 O   0  0  0  0  0  0  0  0  0  0  0  0
    9.5042   -1.7167    0.0000 O   0  0  0  0  0  0  0  0  0  0  0  0
    1.3042   -3.4500    0.0000 C   0  0  0  0  0  0  0  0  0  0  0  0
   11.8417   -1.2167    0.0000 C   0  0  0  0  0  0  0  0  0  0  0  0
    8.0000   -5.5000    0.0000 N   0  0  0  0  0  0  0  0  0  0  0  0
   12.3042   -0.0000    0.0000 C   0  0  0  0  0  0  0  0  0  0  0  0
   13.1500   -1.0250    0.0000 C   0  0  0  0  0  0  0  0  0  0  0  0
    0.0000   -3.3042    0.0000 C   0  0  0  0  0  0  0  0  0  0  0  0
    0.7750   -2.2250    0.0000 C   0  0  0  0  0  0  0  0  0  0  0  0
    7.0542   -4.5542    0.0000 C   0  0  0  0  0  0  0  0  0  0  0  0
    9.2792   -5.1500    0.0000 C   0  0  0  0  0  0  0  0  0  0  0  0
    5.4250   -6.1917    0.0000 C   0  0  0  0  0  0  0  0  0  0  0  0
    6.2792   -3.6750    0.0000 C   0  0  0  0  0  0  0  0  0  0  0  0
    7.6500   -6.7792    0.0000 C   0  0  0  0  0  0  0  0  0  0  0  0
    6.3667   -7.1250    0.0000 C   0  0  0  0  0  0  0  0  0  0  0  0
  2  6  1  0
  1  3  2  0
  1  4  1  0
  2  5  2  0
  6 20  1  0
  4  7  2  0
  3  8  1  0
  6  9  2  0
  3 10  1  0
  9 11  1  0
  4 12  1  0
  5 13  1  0
 14 19  1  0
 13 15  1  0
 13 16  1  0
 12 17  1  0
 12 18  1  0
  8 19  1  0
 14 20  1  0
  8 21  1  0
  8 22  1  0
 23 24  1  0
 21 24  1  0
  7 10  1  0
 17 18  1  0
 14 23  1  0
  5 11  1  0
 15 16  1  0
M  END
>  <MOLFORMULA>  (483) 
C17 H23 N5 O2

>  <MOLWEIGHT>  (483) 
3.294017000000000e+002

>  <IDNUMBER>  (483) 
AT-687/PE19326

>  <PRICE>  (483) 
EUR 80/10 mg

>  <Similarity score>  (483) 
0.17

$$$$

     RDKit          2D

 26 29  0  0  0  0  0  0  0  0999 V2000
    2.1792    1.3000    0.0000 C   0  0  0  0  0  0  0  0  0  0  0  0
    3.1750    1.4042    0.0000 C   0  0  0  0  0  0  0  0  0  0  0  0
    1.7750    2.2167    0.0000 S   0  0  0  0  0  0  0  0  0  0  0  0
    3.3833    2.3833    0.0000 C   0  0  0  0  0  0  0  0  0  0  0  0
   -1.3208   -1.2958    0.0000 C   0  0  0  0  0  0  0  0  0  0  0  0
   -2.3125   -1.4000    0.0000 N   0  0  0  0  0  0  0  0  0  0  0  0
    2.5167    2.8833    0.0000 C   0  0  0  0  0  0  0  0  0  0  0  0
   -0.9125   -2.2083    0.0000 N   0  0  0  0  0  0  0  0  0  0  0  0
    1.6792    0.4333    0.0000 N   0  0  0  0  0  0  0  0  0  0  0  0
   -2.5208   -2.3792    0.0000 C   0  0  0  0  0  0  0  0  0  0  0  0
    3.8458    0.6625    0.0000 C   0  0  0  0  0  0  0  0  0  0  0  0
   -1.6542   -2.8792    0.0000 C   0  0  0  0  0  0  0  0  0  0  0  0
    3.5375   -0.2875    0.0000 N   0  0  0  0  0  0  0  0  0  0  0  0
    0.6792    0.4333    0.0000 C   0  0  0  0  0  0  0  0  0  0  0  0
   -0.8208   -0.4292    0.0000 S   0  0  0  0  0  0  0  0  0  0  0  0
   -3.3875   -2.8792    0.0000 C   0  0  0  0  0  0  0  0  0  0  0  0
    0.1792    1.3000    0.0000 O   0  0  0  0  0  0  0  0  0  0  0  0
   -1.6542   -3.8792    0.0000 C   0  0  0  0  0  0  0  0  0  0  0  0
    0.1792   -0.4292    0.0000 C   0  0  0  0  0  0  0  0  0  0  0  0
   -3.3875   -3.8792    0.0000 C   0  0  0  0  0  0  0  0  0  0  0  0
    4.2500    2.8833    0.0000 C   0  0  0  0  0  0  0  0  0  0  0  0
   -2.5208   -4.3792    0.0000 C   0  0  0  0  0  0  0  0  0  0  0  0
    2.5167    3.8833    0.0000 C   0  0  0  0  0  0  0  0  0  0  0  0
   -4.2542   -4.3792    0.0000 C   0  0  0  0  0  0  0  0  0  0  0  0
    4.2500    3.8833    0.0000 C   0  0  0  0  0  0  0  0  0  0  0  0
    3.3833    4.3792    0.0000 C   0  0  0  0  0  0  0  0  0  0  0  0
  1  2  2  0
  1  3  1  0
  2  4  1  0
  5 15  1  0
  5  6  2  0
  3  7  1  0
  5  8  1  0
  1  9  1  0
  6 10  1  0
  2 11  1  0
  8 12  1  0
 11 13  3  0
  9 14  1  0
 15 19  1  0
 10 16  1  0
 14 17  2  0
 12 18  1  0
 14 19  1  0
 16 20  2  0
  4 21  1  0
 18 22  2  0
  7 23  1  0
 20 24  1  0
 21 25  1  0
 23 26  1  0
  4  7  2  0
 25 26  1  0
 10 12  2  0
 20 22  1  0
M  END
>  <MOLFORMULA>  (484) 
C19 H18 N4 O S2

>  <MOLWEIGHT>  (484) 
3.825102000000000e+002

>  <IDNUMBER>  (484) 
AN-153/I137970

>  <PRICE>  (484) 
EUR 130/10 mg

>  <Similarity score>  (484) 
0.17

$$$$

     RDKit          2D

 22 24  0  0  0  0  0  0  0  0999 V2000
    0.7750    1.7000    0.0000 C   0  0  0  0  0  0  0  0  0  0  0  0
    1.7708    1.8042    0.0000 C   0  0  0  0  0  0  0  0  0  0  0  0
    0.3667    2.6125    0.0000 S   0  0  0  0  0  0  0  0  0  0  0  0
    1.9792    2.7833    0.0000 C   0  0  0  0  0  0  0  0  0  0  0  0
    0.2750    0.8333    0.0000 N   0  0  0  0  0  0  0  0  0  0  0  0
    1.1125    3.2833    0.0000 C   0  0  0  0  0  0  0  0  0  0  0  0
   -0.7250    0.8333    0.0000 C   0  0  0  0  0  0  0  0  0  0  0  0
    2.4375    1.0625    0.0000 C   0  0  0  0  0  0  0  0  0  0  0  0
    2.1292    0.1125    0.0000 N   0  0  0  0  0  0  0  0  0  0  0  0
   -1.2250   -0.0333    0.0000 C   0  0  0  0  0  0  0  0  0  0  0  0
   -1.2250    1.7000    0.0000 O   0  0  0  0  0  0  0  0  0  0  0  0
   -0.7250   -0.8958    0.0000 C   0  0  0  0  0  0  0  0  0  0  0  0
   -2.2250   -0.0333    0.0000 C   0  0  0  0  0  0  0  0  0  0  0  0
    2.7208    3.4542    0.0000 C   0  0  0  0  0  0  0  0  0  0  0  0
   -2.2250   -1.7625    0.0000 C   0  0  0  0  0  0  0  0  0  0  0  0
    1.3208    4.2583    0.0000 C   0  0  0  0  0  0  0  0  0  0  0  0
   -1.2250   -1.7625    0.0000 C   0  0  0  0  0  0  0  0  0  0  0  0
   -2.7250   -0.8958    0.0000 C   0  0  0  0  0  0  0  0  0  0  0  0
   -2.7250   -2.6292    0.0000 O   0  0  0  0  0  0  0  0  0  0  0  0
    2.3125    4.3625    0.0000 C   0  0  0  0  0  0  0  0  0  0  0  0
   -2.2250   -3.4958    0.0000 C   0  0  0  0  0  0  0  0  0  0  0  0
   -2.7250   -4.3625    0.0000 C   0  0  0  0  0  0  0  0  0  0  0  0
  1  2  2  0
  1  3  1  0
  2  4  1  0
  1  5  1  0
  3  6  1  0
  5  7  1  0
  2  8  1  0
  8  9  3  0
  7 10  1  0
  7 11  2  0
 10 12  1  0
 10 13  2  0
  4 14  1  0
 15 18  2  0
  6 16  1  0
 12 17  2  0
 13 18  1  0
 15 19  1  0
 16 20  1  0
 19 21  1  0
 21 22  1  0
  4  6  2  0
 14 20  1  0
 15 17  1  0
M  END
>  <MOLFORMULA>  (485) 
C17 H16 N2 O2 S

>  <MOLWEIGHT>  (485) 
3.123914000000000e+002

>  <IDNUMBER>  (485) 
AN-153/I226308

>  <PRICE>  (485) 
EUR 130/10 mg

>  <Similarity score>  (485) 
0.17

$$$$

     RDKit          2D

 24 27  0  0  0  0  0  0  0  0999 V2000
    3.6500   -3.3000    0.0000 N   0  0  0  0  0  0  0  0  0  0  0  0
    4.4250   -2.2167    0.0000 C   0  0  0  0  0  0  0  0  0  0  0  0
    2.3917   -2.8917    0.0000 C   0  0  0  0  0  0  0  0  0  0  0  0
    5.7667   -2.2167    0.0000 C   0  0  0  0  0  0  0  0  0  0  0  0
    2.3917   -1.5542    0.0000 N   0  0  0  0  0  0  0  0  0  0  0  0
    7.9917   -1.6250    0.0000 N   0  0  0  0  0  0  0  0  0  0  0  0
    3.6500   -1.1417    0.0000 O   0  0  0  0  0  0  0  0  0  0  0  0
    9.2667   -1.9750    0.0000 C   0  0  0  0  0  0  0  0  0  0  0  0
    1.3000   -3.6750    0.0000 C   0  0  0  0  0  0  0  0  0  0  0  0
    7.0542   -2.5667    0.0000 C   0  0  0  0  0  0  0  0  0  0  0  0
    0.7750   -4.8917    0.0000 C   0  0  0  0  0  0  0  0  0  0  0  0
    0.0000   -3.8000    0.0000 C   0  0  0  0  0  0  0  0  0  0  0  0
    9.6167   -3.2500    0.0000 C   0  0  0  0  0  0  0  0  0  0  0  0
   10.2042   -1.0167    0.0000 O   0  0  0  0  0  0  0  0  0  0  0  0
    5.4250   -0.9417    0.0000 C   0  0  0  0  0  0  0  0  0  0  0  0
    6.2750   -3.4500    0.0000 C   0  0  0  0  0  0  0  0  0  0  0  0
    7.6500   -0.3500    0.0000 C   0  0  0  0  0  0  0  0  0  0  0  0
   10.8917   -3.6000    0.0000 C   0  0  0  0  0  0  0  0  0  0  0  0
    6.3500   -0.0000    0.0000 C   0  0  0  0  0  0  0  0  0  0  0  0
   11.2500   -4.8917    0.0000 C   0  0  0  0  0  0  0  0  0  0  0  0
   11.8417   -2.6500    0.0000 C   0  0  0  0  0  0  0  0  0  0  0  0
   13.1250   -3.0000    0.0000 C   0  0  0  0  0  0  0  0  0  0  0  0
   12.5250   -5.2250    0.0000 C   0  0  0  0  0  0  0  0  0  0  0  0
   13.4750   -4.2750    0.0000 C   0  0  0  0  0  0  0  0  0  0  0  0
  1  2  2  0
  1  3  1  0
  2  4  1  0
  3  5  2  0
  6 10  1  0
  2  7  1  0
  6  8  1  0
  3  9  1  0
  4 10  1  0
  9 11  1  0
  9 12  1  0
  8 13  1  0
  8 14  2  0
  4 15  1  0
  4 16  1  0
 17 19  1  0
 13 18  1  0
 15 19  1  0
 18 20  1  0
 18 21  1  0
 21 22  1  0
 20 23  1  0
 22 24  1  0
  5  7  1  0
 11 12  1  0
  6 17  1  0
 23 24  1  0
M  END
>  <MOLFORMULA>  (486) 
C19 H29 N3 O2

>  <MOLWEIGHT>  (486) 
3.314571000000000e+002

>  <IDNUMBER>  (486) 
AT-687/PE19312

>  <PRICE>  (486) 
EUR 80/10 mg

>  <Similarity score>  (486) 
0.17

$$$$

     RDKit          2D

 26 28  0  0  0  0  0  0  0  0999 V2000
    2.2125    6.0417    0.0000 C   0  0  0  0  0  0  0  0  0  0  0  0
    0.1667    4.2542    0.0000 C   0  0  0  0  0  0  0  0  0  0  0  0
    4.4250    4.6375    0.0000 S   0  0  0  0  0  0  0  0  0  0  0  0
    1.2750    1.8333    0.0000 C   0  0  0  0  0  0  0  0  0  0  0  0
    9.7792    3.3625    0.0000 N   0  0  0  0  0  0  0  0  0  0  0  0
    9.2750    6.0417    0.0000 C   0  0  0  0  0  0  0  0  0  0  0  0
    3.8292    1.9583    0.0000 C   0  0  0  0  0  0  0  0  0  0  0  0
   11.4042    7.8292    0.0000 N   0  0  0  0  0  0  0  0  0  0  0  0
   12.3375    2.4708    0.0000 C   0  0  0  0  0  0  0  0  0  0  0  0
    1.6167    8.5917    0.0000 N   0  0  0  0  0  0  0  0  0  0  0  0
   14.3792    4.2542    0.0000 C   0  0  0  0  0  0  0  0  0  0  0  0
   13.8667    6.8042    0.0000 C   0  0  0  0  0  0  0  0  0  0  0  0
   -2.5583    4.7625    0.0000 C   0  0  0  0  0  0  0  0  0  0  0  0
   -5.2833    5.2750    0.0000 N   0  0  0  0  0  0  0  0  0  0  0  0
    3.6542   10.3792    0.0000 C   0  0  0  0  0  0  0  0  0  0  0  0
    6.7167    6.9292    0.0000 S   0  0  0  0  0  0  0  0  0  0  0  0
   12.7625   -0.3375    0.0000 O   0  0  0  0  0  0  0  0  0  0  0  0
    3.0625   12.9292    0.0000 O   0  0  0  0  0  0  0  0  0  0  0  0
    6.1250    9.4875    0.0000 C   0  0  0  0  0  0  0  0  0  0  0  0
   -0.5958   -0.2125    0.0000 C   0  0  0  0  0  0  0  0  0  0  0  0
    5.7792    0.1708    0.0000 C   0  0  0  0  0  0  0  0  0  0  0  0
   16.0000    8.5917    0.0000 C   0  0  0  0  0  0  0  0  0  0  0  0
   -0.4333   -2.8917    0.0000 C   0  0  0  0  0  0  0  0  0  0  0  0
    5.9542   -2.5042    0.0000 C   0  0  0  0  0  0  0  0  0  0  0  0
    1.5292   -4.6792    0.0000 C   0  0  0  0  0  0  0  0  0  0  0  0
    4.0792   -4.5500    0.0000 C   0  0  0  0  0  0  0  0  0  0  0  0
  1  2  2  0
  1  3  1  0
  2  4  1  0
  5  6  1  0
  6 16  1  0
  3  7  1  0
  6  8  2  0
  5  9  1  0
  1 10  1  0
 11 12  2  0
  8 12  1  0
  2 13  1  0
 13 14  3  0
 10 15  1  0
 16 19  1  0
  9 17  2  0
 15 18  2  0
 15 19  1  0
  4 20  1  0
  7 21  1  0
 12 22  1  0
 20 23  1  0
 21 24  1  0
 23 25  1  0
 24 26  1  0
  4  7  2  0
 25 26  1  0
  9 11  1  0
M  END
>  <MOLFORMULA>  (487) 
C18 H20 N4 O2 S2

>  <MOLWEIGHT>  (487) 
3.885140000000000e+002

>  <IDNUMBER>  (487) 
AT-225/NB85496

>  <PRICE>  (487) 
EUR 140/10 mg

>  <Similarity score>  (487) 
0.17

$$$$

     RDKit          2D

 24 26  0  0  0  0  0  0  0  0999 V2000
   -1.4000    0.3833    0.0000 C   0  0  0  0  0  0  0  0  0  0  0  0
   -1.9750    1.1958    0.0000 C   0  0  0  0  0  0  0  0  0  0  0  0
    3.1208   -0.4792    0.0000 N   0  0  0  0  0  0  0  0  0  0  0  0
    2.6125   -1.3417    0.0000 C   0  0  0  0  0  0  0  0  0  0  0  0
   -1.9750   -0.4042    0.0000 S   0  0  0  0  0  0  0  0  0  0  0  0
   -2.9208    0.8917    0.0000 C   0  0  0  0  0  0  0  0  0  0  0  0
    3.1208   -2.2083    0.0000 N   0  0  0  0  0  0  0  0  0  0  0  0
   -2.9208   -0.1000    0.0000 C   0  0  0  0  0  0  0  0  0  0  0  0
    4.1208   -0.4792    0.0000 C   0  0  0  0  0  0  0  0  0  0  0  0
    4.6292   -1.3417    0.0000 C   0  0  0  0  0  0  0  0  0  0  0  0
    4.1208   -2.2083    0.0000 C   0  0  0  0  0  0  0  0  0  0  0  0
   -0.4000    0.3833    0.0000 N   0  0  0  0  0  0  0  0  0  0  0  0
   -1.6708    2.1333    0.0000 C   0  0  0  0  0  0  0  0  0  0  0  0
   -1.3458    3.1000    0.0000 N   0  0  0  0  0  0  0  0  0  0  0  0
    0.0917   -0.4792    0.0000 C   0  0  0  0  0  0  0  0  0  0  0  0
    1.6125   -1.3417    0.0000 S   0  0  0  0  0  0  0  0  0  0  0  0
    4.6458   -3.0958    0.0000 O   0  0  0  0  0  0  0  0  0  0  0  0
   -0.4000   -1.3417    0.0000 O   0  0  0  0  0  0  0  0  0  0  0  0
    4.6458    0.3833    0.0000 N   0  0  0  0  0  0  0  0  0  0  0  0
    1.1083   -0.4792    0.0000 C   0  0  0  0  0  0  0  0  0  0  0  0
   -3.7833    1.4000    0.0000 C   0  0  0  0  0  0  0  0  0  0  0  0
   -3.7833   -0.6083    0.0000 C   0  0  0  0  0  0  0  0  0  0  0  0
   -4.6500    0.8917    0.0000 C   0  0  0  0  0  0  0  0  0  0  0  0
   -4.6500   -0.1000    0.0000 C   0  0  0  0  0  0  0  0  0  0  0  0
  1  2  2  0
  3  4  2  0
  4 16  1  0
  1  5  1  0
  2  6  1  0
  4  7  1  0
  5  8  1  0
  3  9  1  0
 10 11  1  0
  7 11  1  0
  1 12  1  0
  2 13  1  0
 13 14  3  0
 12 15  1  0
 16 20  1  0
 11 17  2  0
 15 18  2  0
  9 19  1  0
 15 20  1  0
  6 21  1  0
  8 22  1  0
 21 23  1  0
 22 24  1  0
  6  8  2  0
 23 24  1  0
  9 10  2  0
M  END
>  <MOLFORMULA>  (488) 
C15 H15 N5 O2 S2

>  <MOLWEIGHT>  (488) 
3.614485000000000e+002

>  <IDNUMBER>  (488) 
AN-153/I162547

>  <PRICE>  (488) 
EUR 130/10 mg

>  <Similarity score>  (488) 
0.17

$$$$

     RDKit          2D

 24 26  0  0  0  0  0  0  0  0999 V2000
    0.4625    1.9250    0.0000 C   0  0  0  0  0  0  0  0  0  0  0  0
    0.0583    2.8375    0.0000 C   0  0  0  0  0  0  0  0  0  0  0  0
   -1.0375   -2.4042    0.0000 N   0  0  0  0  0  0  0  0  0  0  0  0
   -0.0375   -2.4042    0.0000 C   0  0  0  0  0  0  0  0  0  0  0  0
    1.4583    2.0292    0.0000 S   0  0  0  0  0  0  0  0  0  0  0  0
    0.4625   -3.2708    0.0000 N   0  0  0  0  0  0  0  0  0  0  0  0
    0.8000    3.5083    0.0000 C   0  0  0  0  0  0  0  0  0  0  0  0
    1.6667    3.0083    0.0000 C   0  0  0  0  0  0  0  0  0  0  0  0
   -0.0375   -4.1375    0.0000 C   0  0  0  0  0  0  0  0  0  0  0  0
   -1.5375   -3.2708    0.0000 C   0  0  0  0  0  0  0  0  0  0  0  0
   -1.0375   -4.1375    0.0000 C   0  0  0  0  0  0  0  0  0  0  0  0
   -0.0375    1.0583    0.0000 N   0  0  0  0  0  0  0  0  0  0  0  0
   -0.9208    3.0458    0.0000 C   0  0  0  0  0  0  0  0  0  0  0  0
   -1.2292    3.9958    0.0000 N   0  0  0  0  0  0  0  0  0  0  0  0
    0.4625    0.1917    0.0000 C   0  0  0  0  0  0  0  0  0  0  0  0
    0.4625   -1.5375    0.0000 S   0  0  0  0  0  0  0  0  0  0  0  0
   -2.5375   -3.2708    0.0000 O   0  0  0  0  0  0  0  0  0  0  0  0
    1.4625    0.1917    0.0000 O   0  0  0  0  0  0  0  0  0  0  0  0
    0.4625   -5.0042    0.0000 N   0  0  0  0  0  0  0  0  0  0  0  0
   -0.0375   -0.6750    0.0000 C   0  0  0  0  0  0  0  0  0  0  0  0
    0.8000    4.5042    0.0000 C   0  0  0  0  0  0  0  0  0  0  0  0
    2.5333    3.5083    0.0000 C   0  0  0  0  0  0  0  0  0  0  0  0
    1.6667    5.0042    0.0000 C   0  0  0  0  0  0  0  0  0  0  0  0
    2.5333    4.5042    0.0000 C   0  0  0  0  0  0  0  0  0  0  0  0
  1  2  2  0
  3  4  2  0
  4 16  1  0
  1  5  1  0
  4  6  1  0
  2  7  1  0
  5  8  1  0
  6  9  1  0
  3 10  1  0
  9 11  2  0
  1 12  1  0
  2 13  1  0
 13 14  3  0
 12 15  1  0
 16 20  1  0
 10 17  2  0
 15 18  2  0
  9 19  1  0
 15 20  1  0
  7 21  1  0
  8 22  1  0
 21 23  1  0
 22 24  1  0
  7  8  2  0
 23 24  1  0
 10 11  1  0
M  END
>  <MOLFORMULA>  (489) 
C15 H15 N5 O2 S2

>  <MOLWEIGHT>  (489) 
3.614485000000000e+002

>  <IDNUMBER>  (489) 
AN-153/I169830

>  <PRICE>  (489) 
EUR 130/10 mg

>  <Similarity score>  (489) 
0.17

$$$$

     RDKit          2D

 26 30  0  0  0  0  0  0  0  0999 V2000
    3.9542   -2.4667    0.0000 N   0  0  0  0  0  0  0  0  0  0  0  0
    8.4250   -2.7292    0.0000 N   0  0  0  0  0  0  0  0  0  0  0  0
    8.3792   -3.5542    0.0000 C   0  0  0  0  0  0  0  0  0  0  0  0
    4.4375   -1.8042    0.0000 C   0  0  0  0  0  0  0  0  0  0  0  0
    3.1625   -2.2167    0.0000 C   0  0  0  0  0  0  0  0  0  0  0  0
    7.6500   -2.4417    0.0000 C   0  0  0  0  0  0  0  0  0  0  0  0
    3.1625   -1.3917    0.0000 N   0  0  0  0  0  0  0  0  0  0  0  0
    5.2625   -1.8042    0.0000 C   0  0  0  0  0  0  0  0  0  0  0  0
    7.1292   -3.0792    0.0000 N   0  0  0  0  0  0  0  0  0  0  0  0
    7.5792   -3.7750    0.0000 O   0  0  0  0  0  0  0  0  0  0  0  0
    3.9542   -1.1375    0.0000 O   0  0  0  0  0  0  0  0  0  0  0  0
    2.4917   -2.7042    0.0000 C   0  0  0  0  0  0  0  0  0  0  0  0
    9.0167   -4.0792    0.0000 C   0  0  0  0  0  0  0  0  0  0  0  0
    6.6375   -1.4292    0.0000 N   0  0  0  0  0  0  0  0  0  0  0  0
    1.6792   -2.7875    0.0000 C   0  0  0  0  0  0  0  0  0  0  0  0
    2.1625   -3.4542    0.0000 C   0  0  0  0  0  0  0  0  0  0  0  0
    6.0542   -2.0125    0.0000 C   0  0  0  0  0  0  0  0  0  0  0  0
    9.8167   -3.8667    0.0000 O   0  0  0  0  0  0  0  0  0  0  0  0
    7.4417   -1.6417    0.0000 C   0  0  0  0  0  0  0  0  0  0  0  0
    8.9792   -4.9042    0.0000 C   0  0  0  0  0  0  0  0  0  0  0  0
   10.2667   -4.5542    0.0000 C   0  0  0  0  0  0  0  0  0  0  0  0
    9.7500   -5.2000    0.0000 C   0  0  0  0  0  0  0  0  0  0  0  0
    5.0417   -1.0000    0.0000 C   0  0  0  0  0  0  0  0  0  0  0  0
    5.5750   -2.5667    0.0000 C   0  0  0  0  0  0  0  0  0  0  0  0
    6.4292   -0.6292    0.0000 C   0  0  0  0  0  0  0  0  0  0  0  0
    5.6292   -0.4250    0.0000 C   0  0  0  0  0  0  0  0  0  0  0  0
  2  6  1  0
  2  3  2  0
  1  4  2  0
  1  5  1  0
  6 19  1  0
  5  7  2  0
  4  8  1  0
  6  9  2  0
  9 10  1  0
  4 11  1  0
  5 12  1  0
  3 13  1  0
 14 17  1  0
 12 15  1  0
 12 16  1  0
  8 17  1  0
 13 18  1  0
 14 19  1  0
 13 20  2  0
 18 21  1  0
 20 22  1  0
  8 23  1  0
  8 24  1  0
 25 26  1  0
 23 26  1  0
  7 11  1  0
 15 16  1  0
 14 25  1  0
  3 10  1  0
 21 22  2  0
M  END
>  <MOLFORMULA>  (490) 
C18 H21 N5 O3

>  <MOLWEIGHT>  (490) 
3.553959000000000e+002

>  <IDNUMBER>  (490) 
AT-687/SK17719

>  <PRICE>  (490) 
EUR 80/10 mg

>  <Similarity score>  (490) 
0.17

$$$$

     RDKit          2D

 28 32  0  0  0  0  0  0  0  0999 V2000
    9.5000   -3.0000    0.0000 C   0  0  0  0  0  0  0  0  0  0  0  0
   10.3417   -4.0500    0.0000 C   0  0  0  0  0  0  0  0  0  0  0  0
    8.1917   -3.0000    0.0000 C   0  0  0  0  0  0  0  0  0  0  0  0
   11.6667   -3.9167    0.0000 N   0  0  0  0  0  0  0  0  0  0  0  0
    7.7750   -1.7250    0.0000 N   0  0  0  0  0  0  0  0  0  0  0  0
    9.9250   -1.7417    0.0000 N   0  0  0  0  0  0  0  0  0  0  0  0
    8.8667   -0.9500    0.0000 N   0  0  0  0  0  0  0  0  0  0  0  0
   12.1750   -5.1500    0.0000 C   0  0  0  0  0  0  0  0  0  0  0  0
   10.0500   -5.3417    0.0000 N   0  0  0  0  0  0  0  0  0  0  0  0
   11.1917   -6.0167    0.0000 O   0  0  0  0  0  0  0  0  0  0  0  0
    6.4750   -1.4292    0.0000 C   0  0  0  0  0  0  0  0  0  0  0  0
    7.3000   -3.9750    0.0000 C   0  0  0  0  0  0  0  0  0  0  0  0
    6.0000   -3.6917    0.0000 O   0  0  0  0  0  0  0  0  0  0  0  0
    5.6000   -2.4250    0.0000 C   0  0  0  0  0  0  0  0  0  0  0  0
   13.4667   -5.5167    0.0000 C   0  0  0  0  0  0  0  0  0  0  0  0
    4.3000   -2.1417    0.0000 C   0  0  0  0  0  0  0  0  0  0  0  0
   14.4250   -4.6000    0.0000 N   0  0  0  0  0  0  0  0  0  0  0  0
    3.4000   -3.1167    0.0000 C   0  0  0  0  0  0  0  0  0  0  0  0
    3.8792   -0.8750    0.0000 C   0  0  0  0  0  0  0  0  0  0  0  0
    1.6917   -1.5667    0.0000 C   0  0  0  0  0  0  0  0  0  0  0  0
    2.5917   -0.5750    0.0000 C   0  0  0  0  0  0  0  0  0  0  0  0
    2.1042   -2.8500    0.0000 C   0  0  0  0  0  0  0  0  0  0  0  0
    0.3750   -1.2750    0.0000 O   0  0  0  0  0  0  0  0  0  0  0  0
   15.7000   -4.9750    0.0000 C   0  0  0  0  0  0  0  0  0  0  0  0
   13.7750   -6.8167    0.0000 C   0  0  0  0  0  0  0  0  0  0  0  0
    0.0000   -0.0000    0.0000 C   0  0  0  0  0  0  0  0  0  0  0  0
   16.0042   -6.2750    0.0000 C   0  0  0  0  0  0  0  0  0  0  0  0
   15.0500   -7.1792    0.0000 C   0  0  0  0  0  0  0  0  0  0  0  0
  1  2  1  0
  1  3  2  0
  2  4  1  0
  3  5  1  0
  1  6  1  0
  6  7  2  0
  4  8  2  0
  2  9  2  0
  9 10  1  0
  5 11  1  0
  3 12  1  0
 12 13  1  0
 13 14  1  0
  8 15  1  0
 14 16  1  0
 15 17  1  0
 16 18  2  0
 16 19  1  0
 20 21  1  0
 19 21  2  0
 18 22  1  0
 20 23  1  0
 17 24  2  0
 15 25  2  0
 23 26  1  0
 27 28  2  0
 25 28  1  0
  5  7  1  0
  8 10  1  0
 11 14  1  0
 20 22  2  0
 24 27  1  0
M  END
>  <MOLFORMULA>  (491) 
C19 H16 N6 O3

>  <MOLWEIGHT>  (491) 
3.763744000000000e+002

>  <IDNUMBER>  (491) 
AT-687/PE23614

>  <PRICE>  (491) 
EUR 80/10 mg

>  <Similarity score>  (491) 
0.17

$$$$

     RDKit          2D

 24 26  0  0  0  0  0  0  0  0999 V2000
    0.4625    1.9250    0.0000 C   0  0  0  0  0  0  0  0  0  0  0  0
    0.0583    2.8375    0.0000 C   0  0  0  0  0  0  0  0  0  0  0  0
    1.4583    2.0292    0.0000 S   0  0  0  0  0  0  0  0  0  0  0  0
    0.8000    3.5083    0.0000 C   0  0  0  0  0  0  0  0  0  0  0  0
    1.6667    3.0083    0.0000 C   0  0  0  0  0  0  0  0  0  0  0  0
   -1.0375   -2.4042    0.0000 N   0  0  0  0  0  0  0  0  0  0  0  0
    0.4625   -3.2708    0.0000 N   0  0  0  0  0  0  0  0  0  0  0  0
   -0.0375   -2.4042    0.0000 C   0  0  0  0  0  0  0  0  0  0  0  0
   -0.0375    1.0583    0.0000 N   0  0  0  0  0  0  0  0  0  0  0  0
   -0.9208    3.0458    0.0000 C   0  0  0  0  0  0  0  0  0  0  0  0
   -1.5375   -3.2708    0.0000 C   0  0  0  0  0  0  0  0  0  0  0  0
   -0.0375   -4.1375    0.0000 C   0  0  0  0  0  0  0  0  0  0  0  0
   -1.0375   -4.1375    0.0000 C   0  0  0  0  0  0  0  0  0  0  0  0
   -1.2292    3.9958    0.0000 N   0  0  0  0  0  0  0  0  0  0  0  0
    0.4625    0.1917    0.0000 C   0  0  0  0  0  0  0  0  0  0  0  0
    0.4625   -1.5375    0.0000 S   0  0  0  0  0  0  0  0  0  0  0  0
    1.4625    0.1917    0.0000 O   0  0  0  0  0  0  0  0  0  0  0  0
   -0.0375   -0.6750    0.0000 C   0  0  0  0  0  0  0  0  0  0  0  0
   -2.5375   -3.2708    0.0000 N   0  0  0  0  0  0  0  0  0  0  0  0
    0.4625   -5.0042    0.0000 O   0  0  0  0  0  0  0  0  0  0  0  0
    0.8000    4.5042    0.0000 C   0  0  0  0  0  0  0  0  0  0  0  0
    2.5333    3.5083    0.0000 C   0  0  0  0  0  0  0  0  0  0  0  0
    1.6667    5.0042    0.0000 C   0  0  0  0  0  0  0  0  0  0  0  0
    2.5333    4.5042    0.0000 C   0  0  0  0  0  0  0  0  0  0  0  0
  1  2  2  0
  1  3  1  0
  2  4  1  0
  3  5  1  0
  6  8  2  0
  7  8  1  0
  8 16  1  0
  1  9  1  0
  2 10  1  0
  6 11  1  0
  7 12  2  0
 12 13  1  0
 10 14  3  0
  9 15  1  0
 16 18  1  0
 15 17  2  0
 15 18  1  0
 11 19  1  0
 12 20  1  0
  4 21  1  0
  5 22  1  0
 21 23  1  0
 22 24  1  0
  4  5  2  0
 23 24  1  0
 11 13  2  0
M  END
>  <MOLFORMULA>  (492) 
C15 H15 N5 O2 S2

>  <MOLWEIGHT>  (492) 
3.614485000000000e+002

>  <IDNUMBER>  (492) 
AN-153/I189190

>  <PRICE>  (492) 
EUR 130/10 mg

>  <Similarity score>  (492) 
0.17

$$$$

     RDKit          2D

 30 33  0  0  0  0  0  0  0  0999 V2000
   -0.9250   -2.9125    0.0000 C   0  0  0  0  0  0  0  0  0  0  0  0
   -0.0583   -3.4125    0.0000 C   0  0  0  0  0  0  0  0  0  0  0  0
   -1.6667   -3.5792    0.0000 S   0  0  0  0  0  0  0  0  0  0  0  0
   -0.2667   -4.3875    0.0000 C   0  0  0  0  0  0  0  0  0  0  0  0
   -1.0292   -1.9167    0.0000 N   0  0  0  0  0  0  0  0  0  0  0  0
   -1.2625   -4.4958    0.0000 C   0  0  0  0  0  0  0  0  0  0  0  0
   -0.2208   -1.3292    0.0000 C   0  0  0  0  0  0  0  0  0  0  0  0
    0.3792    1.2500    0.0000 C   0  0  0  0  0  0  0  0  0  0  0  0
   -0.6375    2.6500    0.0000 N   0  0  0  0  0  0  0  0  0  0  0  0
    0.8542   -3.0042    0.0000 C   0  0  0  0  0  0  0  0  0  0  0  0
   -0.5333    1.6542    0.0000 N   0  0  0  0  0  0  0  0  0  0  0  0
    1.1875    1.8375    0.0000 N   0  0  0  0  0  0  0  0  0  0  0  0
    0.1708    3.2375    0.0000 C   0  0  0  0  0  0  0  0  0  0  0  0
    1.6625   -3.5917    0.0000 N   0  0  0  0  0  0  0  0  0  0  0  0
    0.4833    0.2542    0.0000 S   0  0  0  0  0  0  0  0  0  0  0  0
   -0.3250   -0.3333    0.0000 C   0  0  0  0  0  0  0  0  0  0  0  0
    1.0833    2.8292    0.0000 C   0  0  0  0  0  0  0  0  0  0  0  0
    0.6917   -1.7375    0.0000 O   0  0  0  0  0  0  0  0  0  0  0  0
    0.0667    4.2292    0.0000 C   0  0  0  0  0  0  0  0  0  0  0  0
    0.3208   -5.2000    0.0000 C   0  0  0  0  0  0  0  0  0  0  0  0
   -1.6667   -5.4083    0.0000 C   0  0  0  0  0  0  0  0  0  0  0  0
   -1.2375    0.0708    0.0000 C   0  0  0  0  0  0  0  0  0  0  0  0
   -0.8500    4.6333    0.0000 C   0  0  0  0  0  0  0  0  0  0  0  0
    0.8750    4.8167    0.0000 C   0  0  0  0  0  0  0  0  0  0  0  0
   -0.0875   -6.1125    0.0000 C   0  0  0  0  0  0  0  0  0  0  0  0
   -1.0792   -6.2167    0.0000 C   0  0  0  0  0  0  0  0  0  0  0  0
   -1.3417    1.0667    0.0000 C   0  0  0  0  0  0  0  0  0  0  0  0
   -0.9542    5.6292    0.0000 C   0  0  0  0  0  0  0  0  0  0  0  0
    0.7708    5.8083    0.0000 C   0  0  0  0  0  0  0  0  0  0  0  0
   -0.1458    6.2167    0.0000 C   0  0  0  0  0  0  0  0  0  0  0  0
  1  2  2  0
  1  3  1  0
  2  4  1  0
  1  5  1  0
  3  6  1  0
  5  7  1  0
  8 15  1  0
  9 11  1  0
  2 10  1  0
  8 11  2  0
  8 12  1  0
 13 17  1  0
 10 14  3  0
 15 16  1  0
  7 16  1  0
 12 17  2  0
  7 18  2  0
 13 19  1  0
  4 20  1  0
  6 21  1  0
 16 22  1  0
 19 23  2  0
 19 24  1  0
 20 25  1  0
 21 26  1  0
 22 27  1  0
 23 28  1  0
 24 29  2  0
 29 30  1  0
  4  6  2  0
 25 26  1  0
  9 13  2  0
 28 30  2  0
M  END
>  <MOLFORMULA>  (493) 
C22 H21 N5 O S2

>  <MOLWEIGHT>  (493) 
4.355739000000000e+002

>  <IDNUMBER>  (493) 
AN-153/I283643

>  <PRICE>  (493) 
EUR 130/10 mg

>  <Similarity score>  (493) 
0.17

$$$$

     RDKit          2D

 23 25  0  0  0  0  0  0  0  0999 V2000
    1.5250    1.2667    0.0000 C   0  0  0  0  0  0  0  0  0  0  0  0
    2.5208    1.3708    0.0000 C   0  0  0  0  0  0  0  0  0  0  0  0
    1.1167    2.1792    0.0000 S   0  0  0  0  0  0  0  0  0  0  0  0
    2.7292    2.3500    0.0000 C   0  0  0  0  0  0  0  0  0  0  0  0
    1.0250    0.4000    0.0000 N   0  0  0  0  0  0  0  0  0  0  0  0
    1.8625    2.8500    0.0000 C   0  0  0  0  0  0  0  0  0  0  0  0
    0.0250    0.4000    0.0000 C   0  0  0  0  0  0  0  0  0  0  0  0
    3.1875    0.6292    0.0000 C   0  0  0  0  0  0  0  0  0  0  0  0
   -0.4750   -0.4667    0.0000 C   0  0  0  0  0  0  0  0  0  0  0  0
    2.8792   -0.3208    0.0000 N   0  0  0  0  0  0  0  0  0  0  0  0
   -1.4750   -0.4667    0.0000 C   0  0  0  0  0  0  0  0  0  0  0  0
    0.0250   -1.3292    0.0000 C   0  0  0  0  0  0  0  0  0  0  0  0
   -0.4750    1.2667    0.0000 O   0  0  0  0  0  0  0  0  0  0  0  0
   -1.4750   -2.1958    0.0000 C   0  0  0  0  0  0  0  0  0  0  0  0
   -1.9750   -1.3292    0.0000 C   0  0  0  0  0  0  0  0  0  0  0  0
   -0.4750   -2.1958    0.0000 C   0  0  0  0  0  0  0  0  0  0  0  0
    3.4708    3.0208    0.0000 C   0  0  0  0  0  0  0  0  0  0  0  0
    2.0708    3.8292    0.0000 C   0  0  0  0  0  0  0  0  0  0  0  0
    0.0250   -3.0625    0.0000 O   0  0  0  0  0  0  0  0  0  0  0  0
   -2.9750   -1.3292    0.0000 O   0  0  0  0  0  0  0  0  0  0  0  0
    3.0625    3.9333    0.0000 C   0  0  0  0  0  0  0  0  0  0  0  0
   -0.4750   -3.9292    0.0000 C   0  0  0  0  0  0  0  0  0  0  0  0
   -3.4750   -2.1958    0.0000 C   0  0  0  0  0  0  0  0  0  0  0  0
  1  2  2  0
  1  3  1  0
  2  4  1  0
  1  5  1  0
  3  6  1  0
  5  7  1  0
  2  8  1  0
  7  9  1  0
  8 10  3  0
  9 11  2  0
  9 12  1  0
  7 13  2  0
 14 16  1  0
 11 15  1  0
 12 16  2  0
  4 17  1  0
  6 18  1  0
 16 19  1  0
 15 20  1  0
 18 21  1  0
 19 22  1  0
 20 23  1  0
  4  6  2  0
 17 21  1  0
 14 15  2  0
M  END
>  <MOLFORMULA>  (494) 
C17 H16 N2 O3 S

>  <MOLWEIGHT>  (494) 
3.283904000000000e+002

>  <IDNUMBER>  (494) 
AN-153/I226312

>  <PRICE>  (494) 
EUR 130/10 mg

>  <Similarity score>  (494) 
0.17

$$$$

     RDKit          2D

 24 27  0  0  0  0  0  0  0  0999 V2000
    3.6750   -3.3000    0.0000 N   0  0  0  0  0  0  0  0  0  0  0  0
    4.4500   -2.2250    0.0000 C   0  0  0  0  0  0  0  0  0  0  0  0
    2.4042   -2.8792    0.0000 C   0  0  0  0  0  0  0  0  0  0  0  0
    5.7792   -2.2250    0.0000 C   0  0  0  0  0  0  0  0  0  0  0  0
    2.4042   -1.5542    0.0000 N   0  0  0  0  0  0  0  0  0  0  0  0
    8.0042   -1.6292    0.0000 N   0  0  0  0  0  0  0  0  0  0  0  0
    3.6750   -1.1500    0.0000 O   0  0  0  0  0  0  0  0  0  0  0  0
    1.3250   -3.6750    0.0000 C   0  0  0  0  0  0  0  0  0  0  0  0
    9.2792   -1.9750    0.0000 C   0  0  0  0  0  0  0  0  0  0  0  0
    7.0542   -2.5542    0.0000 C   0  0  0  0  0  0  0  0  0  0  0  0
    0.8000   -4.8792    0.0000 C   0  0  0  0  0  0  0  0  0  0  0  0
    0.0000   -3.8042    0.0000 C   0  0  0  0  0  0  0  0  0  0  0  0
   10.2292   -1.0292    0.0000 O   0  0  0  0  0  0  0  0  0  0  0  0
    9.6292   -3.2542    0.0000 C   0  0  0  0  0  0  0  0  0  0  0  0
    5.4292   -0.9292    0.0000 C   0  0  0  0  0  0  0  0  0  0  0  0
    6.3000   -3.4542    0.0000 C   0  0  0  0  0  0  0  0  0  0  0  0
    7.6542   -0.3292    0.0000 C   0  0  0  0  0  0  0  0  0  0  0  0
   10.9250   -3.6042    0.0000 C   0  0  0  0  0  0  0  0  0  0  0  0
    6.3792   -0.0000    0.0000 C   0  0  0  0  0  0  0  0  0  0  0  0
   11.2750   -4.8792    0.0000 C   0  0  0  0  0  0  0  0  0  0  0  0
   12.5000   -5.3750    0.0000 C   0  0  0  0  0  0  0  0  0  0  0  0
   10.4250   -5.9250    0.0000 C   0  0  0  0  0  0  0  0  0  0  0  0
   11.1500   -7.0292    0.0000 C   0  0  0  0  0  0  0  0  0  0  0  0
   12.4292   -6.6792    0.0000 C   0  0  0  0  0  0  0  0  0  0  0  0
  1  2  2  0
  1  3  1  0
  2  4  1  0
  3  5  2  0
  6 10  1  0
  2  7  1  0
  3  8  1  0
  6  9  1  0
  4 10  1  0
  8 11  1  0
  8 12  1  0
  9 13  2  0
  9 14  1  0
  4 15  1  0
  4 16  1  0
 17 19  1  0
 14 18  1  0
 15 19  1  0
 18 20  1  0
 20 21  1  0
 20 22  1  0
 22 23  1  0
 21 24  1  0
  5  7  1  0
 11 12  1  0
  6 17  1  0
 23 24  1  0
M  END
>  <MOLFORMULA>  (495) 
C19 H29 N3 O2

>  <MOLWEIGHT>  (495) 
3.314571000000000e+002

>  <IDNUMBER>  (495) 
AT-687/PE19313

>  <PRICE>  (495) 
EUR 80/10 mg

>  <Similarity score>  (495) 
0.17

$$$$

     RDKit          2D

 23 25  0  0  0  0  0  0  0  0999 V2000
   -0.2250    2.0125    0.0000 C   0  0  0  0  0  0  0  0  0  0  0  0
    0.4750    2.7250    0.0000 C   0  0  0  0  0  0  0  0  0  0  0  0
    0.2375    1.1250    0.0000 S   0  0  0  0  0  0  0  0  0  0  0  0
    1.3708    2.2792    0.0000 C   0  0  0  0  0  0  0  0  0  0  0  0
   -1.2125    2.1583    0.0000 N   0  0  0  0  0  0  0  0  0  0  0  0
    1.2250    1.2917    0.0000 C   0  0  0  0  0  0  0  0  0  0  0  0
   -1.8333    1.3750    0.0000 C   0  0  0  0  0  0  0  0  0  0  0  0
    0.3125    3.7125    0.0000 C   0  0  0  0  0  0  0  0  0  0  0  0
   -0.6250    4.0583    0.0000 N   0  0  0  0  0  0  0  0  0  0  0  0
   -1.4708    0.4458    0.0000 C   0  0  0  0  0  0  0  0  0  0  0  0
   -2.8250    1.5250    0.0000 O   0  0  0  0  0  0  0  0  0  0  0  0
   -0.4792    0.3000    0.0000 C   0  0  0  0  0  0  0  0  0  0  0  0
   -2.0917   -0.3375    0.0000 C   0  0  0  0  0  0  0  0  0  0  0  0
   -0.3708   -2.3458    0.0000 O   0  0  0  0  0  0  0  0  0  0  0  0
   -0.7375   -1.4125    0.0000 C   0  0  0  0  0  0  0  0  0  0  0  0
    2.3583    2.4458    0.0000 C   0  0  0  0  0  0  0  0  0  0  0  0
    2.1208    0.8458    0.0000 C   0  0  0  0  0  0  0  0  0  0  0  0
   -1.7250   -1.2667    0.0000 C   0  0  0  0  0  0  0  0  0  0  0  0
   -0.1125   -0.6333    0.0000 C   0  0  0  0  0  0  0  0  0  0  0  0
    2.8208    1.5583    0.0000 C   0  0  0  0  0  0  0  0  0  0  0  0
   -0.9917   -3.1292    0.0000 C   0  0  0  0  0  0  0  0  0  0  0  0
   -0.6250   -4.0583    0.0000 C   0  0  0  0  0  0  0  0  0  0  0  0
   -1.9792   -2.9792    0.0000 C   0  0  0  0  0  0  0  0  0  0  0  0
  1  2  2  0
  1  3  1  0
  2  4  1  0
  1  5  1  0
  3  6  1  0
  5  7  1  0
  2  8  1  0
  8  9  3  0
  7 10  1  0
  7 11  2  0
 10 12  2  0
 10 13  1  0
 14 15  1  0
 15 18  1  0
  4 16  1  0
  6 17  1  0
 13 18  2  0
 12 19  1  0
 17 20  1  0
 14 21  1  0
 21 22  1  0
 21 23  1  0
  4  6  2  0
 16 20  1  0
 15 19  2  0
M  END
>  <MOLFORMULA>  (496) 
C18 H18 N2 O2 S

>  <MOLWEIGHT>  (496) 
3.264182000000000e+002

>  <IDNUMBER>  (496) 
AN-153/I224141

>  <PRICE>  (496) 
EUR 130/10 mg

>  <Similarity score>  (496) 
0.17

$$$$

     RDKit          2D

 25 28  0  0  0  0  0  0  0  0999 V2000
    3.6500   -1.5750    0.0000 N   0  0  0  0  0  0  0  0  0  0  0  0
    4.4417   -2.6500    0.0000 C   0  0  0  0  0  0  0  0  0  0  0  0
    2.3917   -1.9917    0.0000 C   0  0  0  0  0  0  0  0  0  0  0  0
    5.7667   -2.6500    0.0000 C   0  0  0  0  0  0  0  0  0  0  0  0
    7.9792   -3.2500    0.0000 N   0  0  0  0  0  0  0  0  0  0  0  0
    2.3917   -3.3167    0.0000 N   0  0  0  0  0  0  0  0  0  0  0  0
    9.2667   -2.9000    0.0000 C   0  0  0  0  0  0  0  0  0  0  0  0
    3.6500   -3.7292    0.0000 O   0  0  0  0  0  0  0  0  0  0  0  0
    1.3250   -1.2000    0.0000 C   0  0  0  0  0  0  0  0  0  0  0  0
    7.0500   -2.3000    0.0000 C   0  0  0  0  0  0  0  0  0  0  0  0
   10.2000   -3.8500    0.0000 C   0  0  0  0  0  0  0  0  0  0  0  0
    0.0000   -1.0667    0.0000 C   0  0  0  0  0  0  0  0  0  0  0  0
    0.7750   -0.0000    0.0000 C   0  0  0  0  0  0  0  0  0  0  0  0
    9.8667   -5.1250    0.0000 C   0  0  0  0  0  0  0  0  0  0  0  0
   10.8000   -6.0667    0.0000 C   0  0  0  0  0  0  0  0  0  0  0  0
   12.0750   -5.7250    0.0000 C   0  0  0  0  0  0  0  0  0  0  0  0
    9.6167   -1.6250    0.0000 O   0  0  0  0  0  0  0  0  0  0  0  0
   11.4750   -3.5000    0.0000 C   0  0  0  0  0  0  0  0  0  0  0  0
   12.4250   -4.4417    0.0000 C   0  0  0  0  0  0  0  0  0  0  0  0
   10.4500   -7.3500    0.0000 F   0  0  0  0  0  0  0  0  0  0  0  0
    7.6500   -4.5250    0.0000 C   0  0  0  0  0  0  0  0  0  0  0  0
    5.4167   -3.9250    0.0000 C   0  0  0  0  0  0  0  0  0  0  0  0
   13.0250   -6.6667    0.0000 F   0  0  0  0  0  0  0  0  0  0  0  0
    6.2750   -1.4167    0.0000 C   0  0  0  0  0  0  0  0  0  0  0  0
    6.3500   -4.8792    0.0000 C   0  0  0  0  0  0  0  0  0  0  0  0
  1  2  2  0
  1  3  1  0
  2  4  1  0
  5 10  1  0
  3  6  2  0
  5  7  1  0
  2  8  1  0
  3  9  1  0
  4 10  1  0
  7 11  1  0
  9 12  1  0
  9 13  1  0
 11 14  2  0
 14 15  1  0
 16 19  1  0
  7 17  2  0
 11 18  1  0
 18 19  2  0
 15 20  1  0
 21 25  1  0
  4 22  1  0
 16 23  1  0
  4 24  1  0
 22 25  1  0
  6  8  1  0
 12 13  1  0
  5 21  1  0
 15 16  2  0
M  END
>  <MOLFORMULA>  (497) 
C18 H19 F2 N3 O2

>  <MOLWEIGHT>  (497) 
3.473631000000000e+002

>  <IDNUMBER>  (497) 
AT-687/PE19314

>  <PRICE>  (497) 
EUR 80/10 mg

>  <Similarity score>  (497) 
0.17

$$$$

     RDKit          2D

 27 30  0  0  0  0  0  0  0  0999 V2000
   -3.3958   -0.1125    0.0000 C   0  0  0  0  0  0  0  0  0  0  0  0
   -3.9875   -0.9208    0.0000 C   0  0  0  0  0  0  0  0  0  0  0  0
   -3.9875    0.6958    0.0000 S   0  0  0  0  0  0  0  0  0  0  0  0
   -4.9375   -0.6125    0.0000 C   0  0  0  0  0  0  0  0  0  0  0  0
    0.6042    1.6208    0.0000 C   0  0  0  0  0  0  0  0  0  0  0  0
    1.1917    2.4292    0.0000 N   0  0  0  0  0  0  0  0  0  0  0  0
   -4.9375    0.3875    0.0000 C   0  0  0  0  0  0  0  0  0  0  0  0
    1.1917    0.8125    0.0000 S   0  0  0  0  0  0  0  0  0  0  0  0
   -2.3958   -0.1125    0.0000 N   0  0  0  0  0  0  0  0  0  0  0  0
    2.1417    1.1208    0.0000 C   0  0  0  0  0  0  0  0  0  0  0  0
   -3.6750   -1.8708    0.0000 C   0  0  0  0  0  0  0  0  0  0  0  0
    2.1417    2.1208    0.0000 C   0  0  0  0  0  0  0  0  0  0  0  0
   -4.3458   -2.6167    0.0000 N   0  0  0  0  0  0  0  0  0  0  0  0
   -1.8958    0.7542    0.0000 C   0  0  0  0  0  0  0  0  0  0  0  0
    3.0083    0.6208    0.0000 C   0  0  0  0  0  0  0  0  0  0  0  0
   -0.3958    1.6208    0.0000 S   0  0  0  0  0  0  0  0  0  0  0  0
   -2.3958    1.6208    0.0000 O   0  0  0  0  0  0  0  0  0  0  0  0
    3.0083    2.6208    0.0000 C   0  0  0  0  0  0  0  0  0  0  0  0
   -0.8958    0.7542    0.0000 C   0  0  0  0  0  0  0  0  0  0  0  0
    3.8750    1.1208    0.0000 C   0  0  0  0  0  0  0  0  0  0  0  0
   -5.8875   -0.9208    0.0000 C   0  0  0  0  0  0  0  0  0  0  0  0
   -5.8875    0.6958    0.0000 C   0  0  0  0  0  0  0  0  0  0  0  0
    3.8750    2.1208    0.0000 C   0  0  0  0  0  0  0  0  0  0  0  0
    4.7375    0.6208    0.0000 O   0  0  0  0  0  0  0  0  0  0  0  0
   -6.4708   -0.1125    0.0000 C   0  0  0  0  0  0  0  0  0  0  0  0
    5.6042    1.1208    0.0000 C   0  0  0  0  0  0  0  0  0  0  0  0
    6.4708    0.6208    0.0000 C   0  0  0  0  0  0  0  0  0  0  0  0
  1  2  2  0
  1  3  1  0
  2  4  1  0
  5 16  1  0
  5  6  2  0
  3  7  1  0
  5  8  1  0
  1  9  1  0
  8 10  1  0
  2 11  1  0
  6 12  1  0
 11 13  3  0
  9 14  1  0
 10 15  2  0
 16 19  1  0
 14 17  2  0
 12 18  2  0
 14 19  1  0
 15 20  1  0
  4 21  1  0
  7 22  1  0
 18 23  1  0
 20 24  1  0
 22 25  1  0
 24 26  1  0
 26 27  1  0
  4  7  2  0
 21 25  1  0
 10 12  1  0
 20 23  2  0
M  END
>  <MOLFORMULA>  (498) 
C19 H17 N3 O2 S3

>  <MOLWEIGHT>  (498) 
4.155603000000000e+002

>  <IDNUMBER>  (498) 
AN-153/I184185

>  <PRICE>  (498) 
EUR 130/10 mg

>  <Similarity score>  (498) 
0.17

$$$$

     RDKit          2D

 24 26  0  0  0  0  0  0  0  0999 V2000
    0.7125    1.4917    0.0000 C   0  0  0  0  0  0  0  0  0  0  0  0
    0.3042    2.4042    0.0000 C   0  0  0  0  0  0  0  0  0  0  0  0
    1.7083    1.5958    0.0000 S   0  0  0  0  0  0  0  0  0  0  0  0
    1.0500    3.0750    0.0000 C   0  0  0  0  0  0  0  0  0  0  0  0
    0.2125    0.6250    0.0000 N   0  0  0  0  0  0  0  0  0  0  0  0
    1.9167    2.5750    0.0000 C   0  0  0  0  0  0  0  0  0  0  0  0
    0.7125   -0.2417    0.0000 C   0  0  0  0  0  0  0  0  0  0  0  0
   -0.6708    2.6125    0.0000 C   0  0  0  0  0  0  0  0  0  0  0  0
    0.2125   -1.1042    0.0000 C   0  0  0  0  0  0  0  0  0  0  0  0
   -1.3417    1.8708    0.0000 N   0  0  0  0  0  0  0  0  0  0  0  0
    0.7125   -1.9708    0.0000 C   0  0  0  0  0  0  0  0  0  0  0  0
   -0.7875   -1.1083    0.0000 C   0  0  0  0  0  0  0  0  0  0  0  0
    1.7125   -0.2417    0.0000 O   0  0  0  0  0  0  0  0  0  0  0  0
   -0.7875   -2.8375    0.0000 C   0  0  0  0  0  0  0  0  0  0  0  0
    0.2125   -2.8375    0.0000 C   0  0  0  0  0  0  0  0  0  0  0  0
   -1.2875   -1.9708    0.0000 C   0  0  0  0  0  0  0  0  0  0  0  0
    1.0500    4.0708    0.0000 C   0  0  0  0  0  0  0  0  0  0  0  0
    2.7833    3.0750    0.0000 C   0  0  0  0  0  0  0  0  0  0  0  0
   -2.2875   -1.9708    0.0000 O   0  0  0  0  0  0  0  0  0  0  0  0
    0.7125   -3.7042    0.0000 O   0  0  0  0  0  0  0  0  0  0  0  0
   -2.7875   -2.8375    0.0000 C   0  0  0  0  0  0  0  0  0  0  0  0
    0.2125   -4.5708    0.0000 C   0  0  0  0  0  0  0  0  0  0  0  0
    1.9167    4.5708    0.0000 C   0  0  0  0  0  0  0  0  0  0  0  0
    2.7833    4.0708    0.0000 C   0  0  0  0  0  0  0  0  0  0  0  0
  1  2  2  0
  1  3  1  0
  2  4  1  0
  1  5  1  0
  3  6  1  0
  5  7  1  0
  2  8  1  0
  7  9  1  0
  8 10  3  0
  9 11  2  0
  9 12  1  0
  7 13  2  0
 14 16  1  0
 11 15  1  0
 12 16  2  0
  4 17  1  0
  6 18  1  0
 16 19  1  0
 15 20  1  0
 19 21  1  0
 20 22  1  0
 17 23  1  0
 18 24  1  0
  4  6  2  0
 23 24  1  0
 14 15  2  0
M  END
>  <MOLFORMULA>  (499) 
C18 H18 N2 O3 S

>  <MOLWEIGHT>  (499) 
3.424172000000000e+002

>  <IDNUMBER>  (499) 
AN-153/I176664

>  <PRICE>  (499) 
EUR 130/10 mg

>  <Similarity score>  (499) 
0.17

$$$$

     RDKit          2D

 23 26  0  0  0  0  0  0  0  0999 V2000
    3.6667   -3.3000    0.0000 N   0  0  0  0  0  0  0  0  0  0  0  0
    4.4417   -2.2167    0.0000 C   0  0  0  0  0  0  0  0  0  0  0  0
    2.4000   -2.8750    0.0000 C   0  0  0  0  0  0  0  0  0  0  0  0
    5.7667   -2.2167    0.0000 C   0  0  0  0  0  0  0  0  0  0  0  0
    2.4000   -1.5500    0.0000 N   0  0  0  0  0  0  0  0  0  0  0  0
    8.0000   -1.6250    0.0000 N   0  0  0  0  0  0  0  0  0  0  0  0
    3.6667   -1.1417    0.0000 O   0  0  0  0  0  0  0  0  0  0  0  0
    9.2792   -1.9667    0.0000 C   0  0  0  0  0  0  0  0  0  0  0  0
    1.3167   -3.6667    0.0000 C   0  0  0  0  0  0  0  0  0  0  0  0
    7.0500   -2.5667    0.0000 C   0  0  0  0  0  0  0  0  0  0  0  0
    0.7667   -4.8750    0.0000 C   0  0  0  0  0  0  0  0  0  0  0  0
    0.0000   -3.8250    0.0000 C   0  0  0  0  0  0  0  0  0  0  0  0
    9.6417   -3.2500    0.0000 C   0  0  0  0  0  0  0  0  0  0  0  0
   10.2417   -1.0250    0.0000 O   0  0  0  0  0  0  0  0  0  0  0  0
    5.4250   -0.9292    0.0000 C   0  0  0  0  0  0  0  0  0  0  0  0
    6.2750   -3.4417    0.0000 C   0  0  0  0  0  0  0  0  0  0  0  0
    7.6500   -0.3292    0.0000 C   0  0  0  0  0  0  0  0  0  0  0  0
   10.9167   -3.6000    0.0000 C   0  0  0  0  0  0  0  0  0  0  0  0
    6.3750   -0.0000    0.0000 C   0  0  0  0  0  0  0  0  0  0  0  0
   11.4000   -4.8417    0.0000 C   0  0  0  0  0  0  0  0  0  0  0  0
   11.9500   -2.7667    0.0000 C   0  0  0  0  0  0  0  0  0  0  0  0
   13.0542   -3.4792    0.0000 C   0  0  0  0  0  0  0  0  0  0  0  0
   12.7292   -4.7750    0.0000 C   0  0  0  0  0  0  0  0  0  0  0  0
  1  2  2  0
  1  3  1  0
  2  4  1  0
  3  5  2  0
  6 10  1  0
  2  7  1  0
  6  8  1  0
  3  9  1  0
  4 10  1  0
  9 11  1  0
  9 12  1  0
  8 13  1  0
  8 14  2  0
  4 15  1  0
  4 16  1  0
 17 19  1  0
 13 18  1  0
 15 19  1  0
 18 20  1  0
 18 21  1  0
 21 22  1  0
 20 23  1  0
  5  7  1  0
 11 12  1  0
  6 17  1  0
 22 23  1  0
M  END
>  <MOLFORMULA>  (500) 
C18 H27 N3 O2

>  <MOLWEIGHT>  (500) 
3.174303000000000e+002

>  <IDNUMBER>  (500) 
AT-687/PE19319

>  <PRICE>  (500) 
EUR 80/10 mg

>  <Similarity score>  (500) 
0.17

$$$$

     RDKit          2D

 18 20  0  0  0  0  0  0  0  0999 V2000
    5.9000    3.7833    0.0000 N   0  0  0  0  0  0  0  0  0  0  0  0
    4.8250    2.7500    0.0000 C   0  0  0  0  0  0  0  0  0  0  0  0
    7.2250    3.0833    0.0000 C   0  0  0  0  0  0  0  0  0  0  0  0
    6.9667    1.6083    0.0000 N   0  0  0  0  0  0  0  0  0  0  0  0
    5.4750    1.4000    0.0000 O   0  0  0  0  0  0  0  0  0  0  0  0
    3.3417    3.0000    0.0000 C   0  0  0  0  0  0  0  0  0  0  0  0
    8.5750    3.7375    0.0000 C   0  0  0  0  0  0  0  0  0  0  0  0
    0.7500    3.0000    0.0000 N   0  0  0  0  0  0  0  0  0  0  0  0
    2.0417    3.7500    0.0000 C   0  0  0  0  0  0  0  0  0  0  0  0
    3.8500    4.4000    0.0000 C   0  0  0  0  0  0  0  0  0  0  0  0
    3.3417    1.5000    0.0000 C   0  0  0  0  0  0  0  0  0  0  0  0
    0.7500    1.5000    0.0000 C   0  0  0  0  0  0  0  0  0  0  0  0
    9.8167    2.9000    0.0000 C   0  0  0  0  0  0  0  0  0  0  0  0
    8.6750    5.2167    0.0000 C   0  0  0  0  0  0  0  0  0  0  0  0
    2.0417    0.7500    0.0000 C   0  0  0  0  0  0  0  0  0  0  0  0
   11.1667    3.5583    0.0000 C   0  0  0  0  0  0  0  0  0  0  0  0
   10.0167    5.8792    0.0000 C   0  0  0  0  0  0  0  0  0  0  0  0
   11.2667    5.0417    0.0000 C   0  0  0  0  0  0  0  0  0  0  0  0
  1  2  2  0
  1  3  1  0
  3  4  2  0
  2  5  1  0
  2  6  1  0
  3  7  1  0
  8  9  1  0
  6  9  1  0
  6 10  1  0
  6 11  1  0
 12 15  1  0
  7 13  2  0
  7 14  1  0
 11 15  1  0
 13 16  1  0
 14 17  2  0
 17 18  1  0
  4  5  1  0
 16 18  2  0
  8 12  1  0
M  END
>  <MOLFORMULA>  (501) 
C14 H17 N3 O

>  <MOLWEIGHT>  (501) 
2.433083000000000e+002

>  <IDNUMBER>  (501) 
AT-687/PE31689

>  <SALTDATA>  (501) 
HCl

>  <PRICE>  (501) 
EUR 80/10 mg

>  <Similarity score>  (501) 
0.22

$$$$

     RDKit          2D

 18 20  0  0  0  0  0  0  0  0999 V2000
    3.8667   -4.3167    0.0000 N   0  0  0  0  0  0  0  0  0  0  0  0
    2.6167   -4.8167    0.0000 C   0  0  0  0  0  0  0  0  0  0  0  0
    3.7875   -2.9917    0.0000 C   0  0  0  0  0  0  0  0  0  0  0  0
    2.4917   -2.6542    0.0000 N   0  0  0  0  0  0  0  0  0  0  0  0
    1.7792   -3.7792    0.0000 O   0  0  0  0  0  0  0  0  0  0  0  0
    2.2792   -6.1042    0.0000 C   0  0  0  0  0  0  0  0  0  0  0  0
    4.8167   -2.1542    0.0000 C   0  0  0  0  0  0  0  0  0  0  0  0
    1.1292   -8.0917    0.0000 N   0  0  0  0  0  0  0  0  0  0  0  0
    2.2792   -7.4292    0.0000 C   0  0  0  0  0  0  0  0  0  0  0  0
    3.5667   -6.4417    0.0000 C   0  0  0  0  0  0  0  0  0  0  0  0
    1.1292   -5.4417    0.0000 C   0  0  0  0  0  0  0  0  0  0  0  0
    0.0000   -7.4292    0.0000 C   0  0  0  0  0  0  0  0  0  0  0  0
    6.0625   -2.6125    0.0000 C   0  0  0  0  0  0  0  0  0  0  0  0
    4.6000   -0.8417    0.0000 C   0  0  0  0  0  0  0  0  0  0  0  0
    0.0000   -6.1042    0.0000 C   0  0  0  0  0  0  0  0  0  0  0  0
    5.6167   -0.0000    0.0000 C   0  0  0  0  0  0  0  0  0  0  0  0
    7.0917   -1.7875    0.0000 C   0  0  0  0  0  0  0  0  0  0  0  0
    6.8750   -0.4542    0.0000 C   0  0  0  0  0  0  0  0  0  0  0  0
  1  2  2  0
  1  3  1  0
  3  4  2  0
  2  5  1  0
  2  6  1  0
  3  7  1  0
  8  9  1  0
  6  9  1  0
  6 10  1  0
  6 11  1  0
 12 15  1  0
  7 13  2  0
  7 14  1  0
 11 15  1  0
 14 16  2  0
 13 17  1  0
 16 18  1  0
  4  5  1  0
 17 18  2  0
  8 12  1  0
M  END
>  <MOLFORMULA>  (502) 
C14 H17 N3 O

>  <MOLWEIGHT>  (502) 
2.433083000000000e+002

>  <IDNUMBER>  (502) 
AT-687/NB08502

>  <PRICE>  (502) 
EUR 80/10 mg

>  <Similarity score>  (502) 
0.22

$$$$

     RDKit          2D

 18 20  0  0  0  0  0  0  0  0999 V2000
    6.2583   -5.1167    0.0000 N   0  0  0  0  0  0  0  0  0  0  0  0
    5.0167   -5.6083    0.0000 C   0  0  0  0  0  0  0  0  0  0  0  0
    6.1833   -3.7958    0.0000 C   0  0  0  0  0  0  0  0  0  0  0  0
    4.8917   -3.4500    0.0000 N   0  0  0  0  0  0  0  0  0  0  0  0
    4.1667   -4.5750    0.0000 O   0  0  0  0  0  0  0  0  0  0  0  0
    4.6708   -6.9000    0.0000 C   0  0  0  0  0  0  0  0  0  0  0  0
    7.2042   -2.9500    0.0000 C   0  0  0  0  0  0  0  0  0  0  0  0
    3.5208   -8.8958    0.0000 N   0  0  0  0  0  0  0  0  0  0  0  0
    4.6708   -8.2250    0.0000 C   0  0  0  0  0  0  0  0  0  0  0  0
    5.9583   -7.2458    0.0000 C   0  0  0  0  0  0  0  0  0  0  0  0
    3.5208   -6.2375    0.0000 C   0  0  0  0  0  0  0  0  0  0  0  0
    2.3917   -8.2250    0.0000 C   0  0  0  0  0  0  0  0  0  0  0  0
    6.9958   -1.6458    0.0000 C   0  0  0  0  0  0  0  0  0  0  0  0
    8.4583   -3.4125    0.0000 C   0  0  0  0  0  0  0  0  0  0  0  0
    2.3917   -6.9000    0.0000 C   0  0  0  0  0  0  0  0  0  0  0  0
    9.4833   -2.5750    0.0000 C   0  0  0  0  0  0  0  0  0  0  0  0
    8.0167   -0.7958    0.0000 C   0  0  0  0  0  0  0  0  0  0  0  0
    9.2708   -1.2625    0.0000 C   0  0  0  0  0  0  0  0  0  0  0  0
  1  2  2  0
  1  3  1  0
  3  4  2  0
  2  5  1  0
  2  6  1  0
  3  7  1  0
  8  9  1  0
  6  9  1  0
  6 10  1  0
  6 11  1  0
 12 15  1  0
  7 13  1  0
  7 14  2  0
 11 15  1  0
 14 16  1  0
 13 17  2  0
 17 18  1  0
  4  5  1  0
 16 18  2  0
  8 12  1  0
M  END
>  <MOLFORMULA>  (503) 
C14 H17 N3 O

>  <MOLWEIGHT>  (503) 
2.433083000000000e+002

>  <IDNUMBER>  (503) 
AT-687/NB00035

>  <SALTDATA>  (503) 
HCl

>  <PRICE>  (503) 
EUR 80/10 mg

>  <Similarity score>  (503) 
0.22

$$$$

     RDKit          2D

 11 12  0  0  0  0  0  0  0  0999 V2000
    3.4875   -2.1542    0.0000 C   0  0  0  0  0  0  0  0  0  0  0  0
    3.8917   -3.4250    0.0000 C   0  0  0  0  0  0  0  0  0  0  0  0
    2.1542   -2.1542    0.0000 C   0  0  0  0  0  0  0  0  0  0  0  0
    2.8292   -4.2042    0.0000 S   0  0  0  0  0  0  0  0  0  0  0  0
    1.7542   -3.4250    0.0000 C   0  0  0  0  0  0  0  0  0  0  0  0
    4.2667   -1.0792    0.0000 C   0  0  0  0  0  0  0  0  0  0  0  0
    5.0542   -0.0000    0.0000 N   0  0  0  0  0  0  0  0  0  0  0  0
    5.1542   -3.8292    0.0000 N   0  0  0  0  0  0  0  0  0  0  0  0
    1.0792   -1.3792    0.0000 C   0  0  0  0  0  0  0  0  0  0  0  0
    0.4167   -3.4250    0.0000 C   0  0  0  0  0  0  0  0  0  0  0  0
    0.0000   -2.1750    0.0000 C   0  0  0  0  0  0  0  0  0  0  0  0
  1  2  2  0
  1  3  1  0
  2  4  1  0
  3  5  2  0
  1  6  1  0
  6  7  3  0
  2  8  1  0
  3  9  1  0
  5 10  1  0
  9 11  1  0
  4  5  1  0
 10 11  1  0
M  END
>  <MOLFORMULA>  (504) 
C8 H8 N2 S

>  <MOLWEIGHT>  (504) 
1.642312000000000e+002

>  <IDNUMBER>  (504) 
AT-687/NB01828

>  <PRICE>  (504) 
EUR 80/10 mg

>  <Similarity score>  (504) 
0.21

$$$$

     RDKit          2D

 11 12  0  0  0  0  0  0  0  0999 V2000
   -0.5542   -0.3542    0.0000 C   0  0  0  0  0  0  0  0  0  0  0  0
   -0.9625    0.5583    0.0000 C   0  0  0  0  0  0  0  0  0  0  0  0
    0.4417   -0.2500    0.0000 C   0  0  0  0  0  0  0  0  0  0  0  0
   -0.2167    1.2250    0.0000 S   0  0  0  0  0  0  0  0  0  0  0  0
    0.6500    0.7250    0.0000 C   0  0  0  0  0  0  0  0  0  0  0  0
   -1.0542   -1.2208    0.0000 C   0  0  0  0  0  0  0  0  0  0  0  0
   -2.0542   -1.2208    0.0000 N   0  0  0  0  0  0  0  0  0  0  0  0
   -1.9375    0.7667    0.0000 N   0  0  0  0  0  0  0  0  0  0  0  0
    1.3083   -0.7500    0.0000 C   0  0  0  0  0  0  0  0  0  0  0  0
    1.6417    0.8292    0.0000 C   0  0  0  0  0  0  0  0  0  0  0  0
    2.0500   -0.0833    0.0000 C   0  0  0  0  0  0  0  0  0  0  0  0
  1  2  2  0
  1  3  1  0
  2  4  1  0
  3  5  2  0
  1  6  1  0
  6  7  3  0
  2  8  1  0
  3  9  1  0
  5 10  1  0
  9 11  1  0
  4  5  1  0
 10 11  1  0
M  END
>  <MOLFORMULA>  (505) 
C8 H8 N2 S

>  <MOLWEIGHT>  (505) 
1.642312000000000e+002

>  <IDNUMBER>  (505) 
AN-153/I105018

>  <PRICE>  (505) 
EUR 130/10 mg

>  <Similarity score>  (505) 
0.21

$$$$

     RDKit          2D

 11 12  0  0  0  0  0  0  0  0999 V2000
    3.0667   -2.4667    0.0000 C   0  0  0  0  0  0  0  0  0  0  0  0
    2.4167   -3.6417    0.0000 C   0  0  0  0  0  0  0  0  0  0  0  0
    2.1542   -1.5125    0.0000 C   0  0  0  0  0  0  0  0  0  0  0  0
    1.1250   -3.4167    0.0000 S   0  0  0  0  0  0  0  0  0  0  0  0
    0.9375   -2.1042    0.0000 C   0  0  0  0  0  0  0  0  0  0  0  0
    4.3875   -2.2792    0.0000 C   0  0  0  0  0  0  0  0  0  0  0  0
    5.7000   -2.1000    0.0000 N   0  0  0  0  0  0  0  0  0  0  0  0
    3.0125   -4.8417    0.0000 N   0  0  0  0  0  0  0  0  0  0  0  0
    1.9417   -0.2042    0.0000 C   0  0  0  0  0  0  0  0  0  0  0  0
    0.0000   -1.1542    0.0000 C   0  0  0  0  0  0  0  0  0  0  0  0
    0.6167   -0.0000    0.0000 C   0  0  0  0  0  0  0  0  0  0  0  0
  1  2  2  0
  1  3  1  0
  2  4  1  0
  3  5  2  0
  1  6  1  0
  6  7  3  0
  2  8  1  0
  3  9  1  0
  5 10  1  0
  9 11  1  0
  4  5  1  0
 10 11  1  0
M  END
>  <MOLFORMULA>  (506) 
C8 H8 N2 S

>  <MOLWEIGHT>  (506) 
1.642312000000000e+002

>  <IDNUMBER>  (506) 
AT-084/J157520

>  <PRICE>  (506) 
EUR 37.00/10 mg

>  <Similarity score>  (506) 
0.21

$$$$

     RDKit          2D

 11 12  0  0  0  0  0  0  0  0999 V2000
    5.9500   -3.8167    0.0000 C   0  0  0  0  0  0  0  0  0  0  0  0
    6.2000   -4.6000    0.0000 C   0  0  0  0  0  0  0  0  0  0  0  0
    5.1250   -3.8167    0.0000 C   0  0  0  0  0  0  0  0  0  0  0  0
    5.5500   -5.0792    0.0000 S   0  0  0  0  0  0  0  0  0  0  0  0
    4.8750   -4.6000    0.0000 C   0  0  0  0  0  0  0  0  0  0  0  0
    6.4417   -3.1500    0.0000 C   0  0  0  0  0  0  0  0  0  0  0  0
    6.9250   -2.4750    0.0000 N   0  0  0  0  0  0  0  0  0  0  0  0
    6.9917   -4.8500    0.0000 N   0  0  0  0  0  0  0  0  0  0  0  0
    4.4542   -3.3292    0.0000 C   0  0  0  0  0  0  0  0  0  0  0  0
    4.0500   -4.6000    0.0000 C   0  0  0  0  0  0  0  0  0  0  0  0
    3.7917   -3.8250    0.0000 C   0  0  0  0  0  0  0  0  0  0  0  0
  1  2  2  0
  1  3  1  0
  2  4  1  0
  3  5  2  0
  1  6  1  0
  6  7  3  0
  2  8  1  0
  3  9  1  0
  5 10  1  0
  9 11  1  0
  4  5  1  0
 10 11  1  0
M  END
>  <MOLFORMULA>  (507) 
C8 H8 N2 S

>  <MOLWEIGHT>  (507) 
1.642312000000000e+002

>  <IDNUMBER>  (507) 
AT-687/PE32837

>  <PRICE>  (507) 
EUR 80/10 mg

>  <Similarity score>  (507) 
0.21

$$$$

     RDKit          2D

 11 12  0  0  0  0  0  0  0  0999 V2000
    0.1000    1.0958    0.0000 C   0  0  0  0  0  0  0  0  0  0  0  0
    0.3167    0.4125    0.0000 C   0  0  0  0  0  0  0  0  0  0  0  0
   -0.6208    1.0958    0.0000 C   0  0  0  0  0  0  0  0  0  0  0  0
   -0.2625   -0.0042    0.0000 S   0  0  0  0  0  0  0  0  0  0  0  0
   -0.8458    0.4125    0.0000 C   0  0  0  0  0  0  0  0  0  0  0  0
    0.5167    1.6958    0.0000 C   0  0  0  0  0  0  0  0  0  0  0  0
    0.9375    2.2708    0.0000 N   0  0  0  0  0  0  0  0  0  0  0  0
    1.0167    0.1958    0.0000 N   0  0  0  0  0  0  0  0  0  0  0  0
   -1.2000    1.4958    0.0000 C   0  0  0  0  0  0  0  0  0  0  0  0
   -1.5458    0.3958    0.0000 C   0  0  0  0  0  0  0  0  0  0  0  0
   -1.7625    1.0500    0.0000 C   0  0  0  0  0  0  0  0  0  0  0  0
  1  2  2  0
  1  3  1  0
  2  4  1  0
  3  5  2  0
  1  6  1  0
  6  7  3  0
  2  8  1  0
  3  9  1  0
  5 10  1  0
  9 11  1  0
  4  5  1  0
 10 11  1  0
M  END
>  <MOLFORMULA>  (508) 
C8 H8 N2 S

>  <MOLWEIGHT>  (508) 
1.642312000000000e+002

>  <IDNUMBER>  (508) 
AT-225/JK21174

>  <PRICE>  (508) 
EUR 140/10 mg

>  <Similarity score>  (508) 
0.21

$$$$

     RDKit          2D

 12 13  0  0  0  0  0  0  0  0999 V2000
    2.7917   -1.2292    0.0000 C   0  0  0  0  0  0  0  0  0  0  0  0
    3.2750   -1.8917    0.0000 C   0  0  0  0  0  0  0  0  0  0  0  0
    2.0000   -1.4917    0.0000 C   0  0  0  0  0  0  0  0  0  0  0  0
    2.8000   -2.5667    0.0000 S   0  0  0  0  0  0  0  0  0  0  0  0
    2.0167   -2.3167    0.0000 C   0  0  0  0  0  0  0  0  0  0  0  0
    3.0417   -0.4500    0.0000 C   0  0  0  0  0  0  0  0  0  0  0  0
    3.2500    0.3500    0.0000 N   0  0  0  0  0  0  0  0  0  0  0  0
    4.1000   -1.8917    0.0000 N   0  0  0  0  0  0  0  0  0  0  0  0
    1.3000   -1.0750    0.0000 C   0  0  0  0  0  0  0  0  0  0  0  0
    1.3000   -2.7250    0.0000 C   0  0  0  0  0  0  0  0  0  0  0  0
    0.5917   -1.4917    0.0000 C   0  0  0  0  0  0  0  0  0  0  0  0
    0.5917   -2.3167    0.0000 C   0  0  0  0  0  0  0  0  0  0  0  0
  1  2  2  0
  1  3  1  0
  2  4  1  0
  3  5  2  0
  1  6  1  0
  6  7  3  0
  2  8  1  0
  3  9  1  0
  5 10  1  0
  9 11  1  0
 11 12  1  0
  4  5  1  0
 10 12  1  0
M  END
>  <MOLFORMULA>  (509) 
C9 H10 N2 S

>  <MOLWEIGHT>  (509) 
1.782580000000000e+002

>  <IDNUMBER>  (509) 
AT-687/PE31884

>  <PRICE>  (509) 
EUR 80/10 mg

>  <Similarity score>  (509) 
0.21

$$$$

     RDKit          2D

 12 13  0  0  0  0  0  0  0  0999 V2000
    6.2292   -7.9292    0.0000 C   0  0  0  0  0  0  0  0  0  0  0  0
    6.4875   -8.7167    0.0000 C   0  0  0  0  0  0  0  0  0  0  0  0
    5.4042   -7.9292    0.0000 C   0  0  0  0  0  0  0  0  0  0  0  0
    5.8167   -9.2000    0.0000 S   0  0  0  0  0  0  0  0  0  0  0  0
    5.1500   -8.7167    0.0000 C   0  0  0  0  0  0  0  0  0  0  0  0
    6.7167   -7.2625    0.0000 C   0  0  0  0  0  0  0  0  0  0  0  0
    7.2000   -6.5917    0.0000 N   0  0  0  0  0  0  0  0  0  0  0  0
    7.2667   -8.9750    0.0000 N   0  0  0  0  0  0  0  0  0  0  0  0
    4.8542   -7.3167    0.0000 C   0  0  0  0  0  0  0  0  0  0  0  0
    4.3417   -8.8917    0.0000 C   0  0  0  0  0  0  0  0  0  0  0  0
    4.0417   -7.4875    0.0000 C   0  0  0  0  0  0  0  0  0  0  0  0
    3.7875   -8.2750    0.0000 C   0  0  0  0  0  0  0  0  0  0  0  0
  1  2  2  0
  1  3  1  0
  2  4  1  0
  3  5  2  0
  1  6  1  0
  6  7  3  0
  2  8  1  0
  3  9  1  0
  5 10  1  0
  9 11  1  0
 11 12  1  0
  4  5  1  0
 10 12  1  0
M  END
>  <MOLFORMULA>  (510) 
C9 H10 N2 S

>  <MOLWEIGHT>  (510) 
1.782580000000000e+002

>  <IDNUMBER>  (510) 
AP-853/J242318

>  <Similarity score>  (510) 
0.21

$$$$

     RDKit          2D

 12 13  0  0  0  0  0  0  0  0999 V2000
   -0.7000   -0.3542    0.0000 C   0  0  0  0  0  0  0  0  0  0  0  0
   -1.1083    0.5583    0.0000 C   0  0  0  0  0  0  0  0  0  0  0  0
    0.2958   -0.2500    0.0000 C   0  0  0  0  0  0  0  0  0  0  0  0
   -0.3625    1.2250    0.0000 S   0  0  0  0  0  0  0  0  0  0  0  0
    0.5042    0.7250    0.0000 C   0  0  0  0  0  0  0  0  0  0  0  0
   -1.2000   -1.2208    0.0000 C   0  0  0  0  0  0  0  0  0  0  0  0
   -2.2000   -1.2208    0.0000 N   0  0  0  0  0  0  0  0  0  0  0  0
   -2.0833    0.7667    0.0000 N   0  0  0  0  0  0  0  0  0  0  0  0
    1.0375   -0.9208    0.0000 C   0  0  0  0  0  0  0  0  0  0  0  0
    1.4542    1.0375    0.0000 C   0  0  0  0  0  0  0  0  0  0  0  0
    1.9875   -0.6125    0.0000 C   0  0  0  0  0  0  0  0  0  0  0  0
    2.1958    0.3667    0.0000 C   0  0  0  0  0  0  0  0  0  0  0  0
  1  2  2  0
  1  3  1  0
  2  4  1  0
  3  5  2  0
  1  6  1  0
  6  7  3  0
  2  8  1  0
  3  9  1  0
  5 10  1  0
  9 11  1  0
 11 12  1  0
  4  5  1  0
 10 12  1  0
M  END
>  <MOLFORMULA>  (511) 
C9 H10 N2 S

>  <MOLWEIGHT>  (511) 
1.782580000000000e+002

>  <IDNUMBER>  (511) 
AN-153/I100232

>  <PRICE>  (511) 
EUR 130/10 mg

>  <Similarity score>  (511) 
0.21

$$$$

     RDKit          2D

 12 13  0  0  0  0  0  0  0  0999 V2000
    4.0542   -2.1250    0.0000 C   0  0  0  0  0  0  0  0  0  0  0  0
    4.0542   -2.8750    0.0000 C   0  0  0  0  0  0  0  0  0  0  0  0
    2.7542   -2.1250    0.0000 C   0  0  0  0  0  0  0  0  0  0  0  0
    3.4042   -3.2500    0.0000 S   0  0  0  0  0  0  0  0  0  0  0  0
    2.7542   -2.8750    0.0000 C   0  0  0  0  0  0  0  0  0  0  0  0
    4.5875   -1.5917    0.0000 C   0  0  0  0  0  0  0  0  0  0  0  0
    5.1167   -1.0625    0.0000 N   0  0  0  0  0  0  0  0  0  0  0  0
    4.7042   -3.2500    0.0000 N   0  0  0  0  0  0  0  0  0  0  0  0
    2.1042   -1.7500    0.0000 C   0  0  0  0  0  0  0  0  0  0  0  0
    2.1042   -3.2500    0.0000 C   0  0  0  0  0  0  0  0  0  0  0  0
    1.4625   -2.1250    0.0000 C   0  0  0  0  0  0  0  0  0  0  0  0
    1.4625   -2.8750    0.0000 C   0  0  0  0  0  0  0  0  0  0  0  0
  1  2  2  0
  1  3  1  0
  2  4  1  0
  3  5  2  0
  1  6  1  0
  6  7  3  0
  2  8  1  0
  3  9  1  0
  5 10  1  0
  9 11  1  0
 11 12  1  0
  4  5  1  0
 10 12  1  0
M  END
>  <MOLFORMULA>  (512) 
C9 H10 N2 S

>  <MOLWEIGHT>  (512) 
1.782580000000000e+002

>  <IDNUMBER>  (512) 
AT-819/OC00072

>  <PRICE>  (512) 
EUR 128/10 mg

>  <Similarity score>  (512) 
0.21

$$$$

     RDKit          2D

 12 13  0  0  0  0  0  0  0  0999 V2000
    3.5667   -2.5167    0.0000 C   0  0  0  0  0  0  0  0  0  0  0  0
    4.3375   -3.5917    0.0000 C   0  0  0  0  0  0  0  0  0  0  0  0
    2.3292   -2.9167    0.0000 C   0  0  0  0  0  0  0  0  0  0  0  0
    3.5792   -4.6750    0.0000 S   0  0  0  0  0  0  0  0  0  0  0  0
    2.3292   -4.2542    0.0000 C   0  0  0  0  0  0  0  0  0  0  0  0
    4.0000   -1.2542    0.0000 C   0  0  0  0  0  0  0  0  0  0  0  0
    4.4375   -0.0000    0.0000 N   0  0  0  0  0  0  0  0  0  0  0  0
    5.6792   -3.5500    0.0000 N   0  0  0  0  0  0  0  0  0  0  0  0
    1.1500   -2.2875    0.0000 C   0  0  0  0  0  0  0  0  0  0  0  0
    1.1750   -4.9292    0.0000 C   0  0  0  0  0  0  0  0  0  0  0  0
    0.0000   -2.9375    0.0000 C   0  0  0  0  0  0  0  0  0  0  0  0
    0.0000   -4.2667    0.0000 C   0  0  0  0  0  0  0  0  0  0  0  0
  1  2  2  0
  1  3  1  0
  2  4  1  0
  3  5  2  0
  1  6  1  0
  6  7  3  0
  2  8  1  0
  3  9  1  0
  5 10  1  0
  9 11  1  0
 11 12  1  0
  4  5  1  0
 10 12  1  0
M  END
>  <MOLFORMULA>  (513) 
C9 H10 N2 S

>  <MOLWEIGHT>  (513) 
1.782580000000000e+002

>  <IDNUMBER>  (513) 
AT-084/J157521

>  <PRICE>  (513) 
EUR 37.00/10 mg

>  <Similarity score>  (513) 
0.21

$$$$

     RDKit          2D

 12 13  0  0  0  0  0  0  0  0999 V2000
    3.5500   -2.5625    0.0000 C   0  0  0  0  0  0  0  0  0  0  0  0
    4.3375   -3.6167    0.0000 C   0  0  0  0  0  0  0  0  0  0  0  0
    2.2792   -2.9750    0.0000 C   0  0  0  0  0  0  0  0  0  0  0  0
    3.5667   -4.7125    0.0000 S   0  0  0  0  0  0  0  0  0  0  0  0
    2.3000   -4.3042    0.0000 C   0  0  0  0  0  0  0  0  0  0  0  0
    3.9542   -1.2917    0.0000 C   0  0  0  0  0  0  0  0  0  0  0  0
    4.2917   -0.0000    0.0000 N   0  0  0  0  0  0  0  0  0  0  0  0
    5.6667   -3.6167    0.0000 N   0  0  0  0  0  0  0  0  0  0  0  0
    1.1417   -2.3042    0.0000 C   0  0  0  0  0  0  0  0  0  0  0  0
    1.1417   -4.9667    0.0000 C   0  0  0  0  0  0  0  0  0  0  0  0
    0.0000   -2.9750    0.0000 C   0  0  0  0  0  0  0  0  0  0  0  0
    0.0000   -4.3042    0.0000 C   0  0  0  0  0  0  0  0  0  0  0  0
  1  2  2  0
  1  3  1  0
  2  4  1  0
  3  5  2  0
  1  6  1  0
  6  7  3  0
  2  8  1  0
  3  9  1  0
  5 10  1  0
  9 11  1  0
 11 12  1  0
  4  5  1  0
 10 12  1  0
M  END
>  <MOLFORMULA>  (514) 
C9 H10 N2 S

>  <MOLWEIGHT>  (514) 
1.782580000000000e+002

>  <IDNUMBER>  (514) 
AT-687/NB00447

>  <PRICE>  (514) 
EUR 80/10 mg

>  <Similarity score>  (514) 
0.21

$$$$

     RDKit          2D

 13 14  0  0  0  0  0  0  0  0999 V2000
    0.2292    0.0458    0.0000 C   0  0  0  0  0  0  0  0  0  0  0  0
    0.5667   -1.0375    0.0000 C   0  0  0  0  0  0  0  0  0  0  0  0
   -0.9625    0.0458    0.0000 C   0  0  0  0  0  0  0  0  0  0  0  0
   -0.3125   -1.7292    0.0000 S   0  0  0  0  0  0  0  0  0  0  0  0
   -1.2958   -1.0542    0.0000 C   0  0  0  0  0  0  0  0  0  0  0  0
    0.9292    0.9208    0.0000 C   0  0  0  0  0  0  0  0  0  0  0  0
    1.6375    1.8208    0.0000 N   0  0  0  0  0  0  0  0  0  0  0  0
    1.6542   -1.3875    0.0000 N   0  0  0  0  0  0  0  0  0  0  0  0
   -1.5958    0.9708    0.0000 C   0  0  0  0  0  0  0  0  0  0  0  0
   -2.3625   -1.4792    0.0000 C   0  0  0  0  0  0  0  0  0  0  0  0
   -2.7458    1.0958    0.0000 C   0  0  0  0  0  0  0  0  0  0  0  0
   -3.3500   -0.8667    0.0000 C   0  0  0  0  0  0  0  0  0  0  0  0
   -3.5208    0.2625    0.0000 C   0  0  0  0  0  0  0  0  0  0  0  0
  1  2  2  0
  1  3  1  0
  2  4  1  0
  3  5  2  0
  1  6  1  0
  6  7  3  0
  2  8  1  0
  3  9  1  0
  5 10  1  0
  9 11  1  0
 10 12  1  0
 11 13  1  0
  4  5  1  0
 12 13  1  0
M  END
>  <MOLFORMULA>  (515) 
C10 H12 N2 S

>  <MOLWEIGHT>  (515) 
1.922848000000000e+002

>  <IDNUMBER>  (515) 
AT-225/JK21285

>  <PRICE>  (515) 
EUR 140/10 mg

>  <Similarity score>  (515) 
0.21

$$$$

     RDKit          2D

 13 14  0  0  0  0  0  0  0  0999 V2000
    2.1167   -2.5750    0.0000 C   0  0  0  0  0  0  0  0  0  0  0  0
    1.3292   -1.5000    0.0000 C   0  0  0  0  0  0  0  0  0  0  0  0
    3.3667   -2.1667    0.0000 C   0  0  0  0  0  0  0  0  0  0  0  0
    2.1167   -0.4167    0.0000 S   0  0  0  0  0  0  0  0  0  0  0  0
    3.3667   -0.8417    0.0000 C   0  0  0  0  0  0  0  0  0  0  0  0
    1.7000   -3.8375    0.0000 C   0  0  0  0  0  0  0  0  0  0  0  0
    1.2875   -5.1042    0.0000 N   0  0  0  0  0  0  0  0  0  0  0  0
    0.0000   -1.5000    0.0000 N   0  0  0  0  0  0  0  0  0  0  0  0
    4.4042   -2.9875    0.0000 C   0  0  0  0  0  0  0  0  0  0  0  0
    4.4042   -0.0000    0.0000 C   0  0  0  0  0  0  0  0  0  0  0  0
    5.7042   -2.6917    0.0000 C   0  0  0  0  0  0  0  0  0  0  0  0
    5.7042   -0.3000    0.0000 C   0  0  0  0  0  0  0  0  0  0  0  0
    6.2792   -1.5000    0.0000 C   0  0  0  0  0  0  0  0  0  0  0  0
  1  2  2  0
  1  3  1  0
  2  4  1  0
  3  5  2  0
  1  6  1  0
  6  7  3  0
  2  8  1  0
  3  9  1  0
  5 10  1  0
  9 11  1  0
 10 12  1  0
 11 13  1  0
  4  5  1  0
 12 13  1  0
M  END
>  <MOLFORMULA>  (516) 
C10 H12 N2 S

>  <MOLWEIGHT>  (516) 
1.922848000000000e+002

>  <IDNUMBER>  (516) 
AT-687/SK12402

>  <PRICE>  (516) 
EUR 80/10 mg

>  <Similarity score>  (516) 
0.21

$$$$

     RDKit          2D

 13 14  0  0  0  0  0  0  0  0999 V2000
   -2.4625   -0.0167    0.0000 C   0  0  0  0  0  0  0  0  0  0  0  0
   -2.0833   -0.5375    0.0000 C   0  0  0  0  0  0  0  0  0  0  0  0
   -3.0833   -0.2167    0.0000 C   0  0  0  0  0  0  0  0  0  0  0  0
   -2.4625   -1.0792    0.0000 S   0  0  0  0  0  0  0  0  0  0  0  0
   -3.0833   -0.8792    0.0000 C   0  0  0  0  0  0  0  0  0  0  0  0
   -2.2458    0.6458    0.0000 C   0  0  0  0  0  0  0  0  0  0  0  0
   -2.0458    1.2833    0.0000 N   0  0  0  0  0  0  0  0  0  0  0  0
   -1.4208   -0.5375    0.0000 N   0  0  0  0  0  0  0  0  0  0  0  0
   -3.5833    0.2000    0.0000 C   0  0  0  0  0  0  0  0  0  0  0  0
   -3.5833   -1.2792    0.0000 C   0  0  0  0  0  0  0  0  0  0  0  0
   -4.2208    0.0625    0.0000 C   0  0  0  0  0  0  0  0  0  0  0  0
   -4.2208   -1.1375    0.0000 C   0  0  0  0  0  0  0  0  0  0  0  0
   -4.5000   -0.5167    0.0000 C   0  0  0  0  0  0  0  0  0  0  0  0
  1  2  2  0
  1  3  1  0
  2  4  1  0
  3  5  2  0
  1  6  1  0
  6  7  3  0
  2  8  1  0
  3  9  1  0
  5 10  1  0
  9 11  1  0
 10 12  1  0
 11 13  1  0
  4  5  1  0
 12 13  1  0
M  END
>  <MOLFORMULA>  (517) 
C10 H12 N2 S

>  <MOLWEIGHT>  (517) 
1.922848000000000e+002

>  <IDNUMBER>  (517) 
AT-225/JK15582

>  <PRICE>  (517) 
EUR 140/10 mg

>  <Similarity score>  (517) 
0.21

$$$$

     RDKit          2D

 14 15  0  0  0  0  0  0  0  0999 V2000
    1.8167   -0.0292    0.0000 C   0  0  0  0  0  0  0  0  0  0  0  0
    1.2167   -0.8875    0.0000 C   0  0  0  0  0  0  0  0  0  0  0  0
    2.8000   -0.3500    0.0000 C   0  0  0  0  0  0  0  0  0  0  0  0
    1.8167   -1.7042    0.0000 S   0  0  0  0  0  0  0  0  0  0  0  0
    2.8000   -1.3875    0.0000 C   0  0  0  0  0  0  0  0  0  0  0  0
    1.5000    0.9708    0.0000 C   0  0  0  0  0  0  0  0  0  0  0  0
    1.1792    1.9708    0.0000 N   0  0  0  0  0  0  0  0  0  0  0  0
    0.1792   -0.8875    0.0000 N   0  0  0  0  0  0  0  0  0  0  0  0
    3.5375    0.3958    0.0000 C   0  0  0  0  0  0  0  0  0  0  0  0
    3.5375   -2.1292    0.0000 C   0  0  0  0  0  0  0  0  0  0  0  0
    4.5542    0.3958    0.0000 C   0  0  0  0  0  0  0  0  0  0  0  0
    4.5542   -2.1292    0.0000 C   0  0  0  0  0  0  0  0  0  0  0  0
    5.2792   -1.3875    0.0000 C   0  0  0  0  0  0  0  0  0  0  0  0
    5.2792   -0.3500    0.0000 C   0  0  0  0  0  0  0  0  0  0  0  0
  1  2  2  0
  1  3  1  0
  2  4  1  0
  3  5  2  0
  1  6  1  0
  6  7  3  0
  2  8  1  0
  3  9  1  0
  5 10  1  0
  9 11  1  0
 10 12  1  0
 13 14  1  0
 11 14  1  0
  4  5  1  0
 12 13  1  0
M  END
>  <MOLFORMULA>  (518) 
C11 H14 N2 S

>  <MOLWEIGHT>  (518) 
2.063116000000000e+002

>  <IDNUMBER>  (518) 
AT-225/JK15581

>  <PRICE>  (518) 
EUR 140/10 mg

>  <Similarity score>  (518) 
0.21

$$$$

     RDKit          2D

 26 29  0  0  0  0  0  0  0  0999 V2000
    4.6250   -2.4667    0.0000 N   0  0  0  0  0  0  0  0  0  0  0  0
    5.4167   -3.5500    0.0000 C   0  0  0  0  0  0  0  0  0  0  0  0
    3.3500   -2.8750    0.0000 C   0  0  0  0  0  0  0  0  0  0  0  0
    6.7500   -3.5500    0.0000 C   0  0  0  0  0  0  0  0  0  0  0  0
    8.9542   -4.1250    0.0000 N   0  0  0  0  0  0  0  0  0  0  0  0
    3.3500   -4.2042    0.0000 N   0  0  0  0  0  0  0  0  0  0  0  0
   10.2500   -3.7917    0.0000 C   0  0  0  0  0  0  0  0  0  0  0  0
    4.6250   -4.6042    0.0000 O   0  0  0  0  0  0  0  0  0  0  0  0
    8.0167   -3.2000    0.0000 C   0  0  0  0  0  0  0  0  0  0  0  0
   11.1917   -4.7250    0.0000 C   0  0  0  0  0  0  0  0  0  0  0  0
   10.8500   -6.0250    0.0000 N   0  0  0  0  0  0  0  0  0  0  0  0
   10.5792   -2.5000    0.0000 O   0  0  0  0  0  0  0  0  0  0  0  0
    2.2917   -2.0917    0.0000 C   0  0  0  0  0  0  0  0  0  0  0  0
   13.4167   -5.3292    0.0000 N   0  0  0  0  0  0  0  0  0  0  0  0
    8.6250   -5.4250    0.0000 C   0  0  0  0  0  0  0  0  0  0  0  0
    6.4000   -4.8250    0.0000 C   0  0  0  0  0  0  0  0  0  0  0  0
   12.4750   -4.4000    0.0000 C   0  0  0  0  0  0  0  0  0  0  0  0
    7.2417   -2.3167    0.0000 C   0  0  0  0  0  0  0  0  0  0  0  0
    7.3250   -5.7667    0.0000 C   0  0  0  0  0  0  0  0  0  0  0  0
   11.7917   -6.9542    0.0000 C   0  0  0  0  0  0  0  0  0  0  0  0
   13.0667   -6.6042    0.0000 C   0  0  0  0  0  0  0  0  0  0  0  0
    1.0667   -2.6417    0.0000 C   0  0  0  0  0  0  0  0  0  0  0  0
    2.4250   -0.7750    0.0000 C   0  0  0  0  0  0  0  0  0  0  0  0
    1.3417   -0.0000    0.0000 C   0  0  0  0  0  0  0  0  0  0  0  0
    0.0000   -1.8542    0.0000 C   0  0  0  0  0  0  0  0  0  0  0  0
    0.1250   -0.5167    0.0000 C   0  0  0  0  0  0  0  0  0  0  0  0
  1  2  2  0
  1  3  1  0
  2  4  1  0
  5  9  1  0
  3  6  2  0
  5  7  1  0
  2  8  1  0
  4  9  1  0
  7 10  1  0
 10 11  1  0
  7 12  2  0
  3 13  1  0
 14 17  1  0
 15 19  1  0
  4 16  1  0
 10 17  2  0
  4 18  1  0
 16 19  1  0
 11 20  2  0
 14 21  2  0
 13 22  2  0
 13 23  1  0
 23 24  2  0
 22 25  1  0
 24 26  1  0
  6  8  1  0
 25 26  2  0
  5 15  1  0
 20 21  1  0
M  END
>  <MOLFORMULA>  (519) 
C19 H19 N5 O2

>  <MOLWEIGHT>  (519) 
3.493921000000000e+002

>  <IDNUMBER>  (519) 
AT-687/PE19329

>  <PRICE>  (519) 
EUR 80/10 mg

>  <Similarity score>  (519) 
0.21

$$$$

     RDKit          2D

 26 29  0  0  0  0  0  0  0  0999 V2000
    4.3125   -3.0625    0.0000 N   0  0  0  0  0  0  0  0  0  0  0  0
    4.7917   -2.4000    0.0000 C   0  0  0  0  0  0  0  0  0  0  0  0
    3.5292   -2.8167    0.0000 C   0  0  0  0  0  0  0  0  0  0  0  0
    5.6167   -2.4000    0.0000 C   0  0  0  0  0  0  0  0  0  0  0  0
    3.5292   -1.9875    0.0000 N   0  0  0  0  0  0  0  0  0  0  0  0
    7.0042   -2.0292    0.0000 N   0  0  0  0  0  0  0  0  0  0  0  0
    4.3125   -1.7292    0.0000 O   0  0  0  0  0  0  0  0  0  0  0  0
    7.7917   -2.2375    0.0000 C   0  0  0  0  0  0  0  0  0  0  0  0
    6.4167   -2.6125    0.0000 C   0  0  0  0  0  0  0  0  0  0  0  0
    9.1792   -1.8750    0.0000 N   0  0  0  0  0  0  0  0  0  0  0  0
   10.3042   -2.6000    0.0000 N   0  0  0  0  0  0  0  0  0  0  0  0
    9.4792   -2.6417    0.0000 C   0  0  0  0  0  0  0  0  0  0  0  0
    8.3792   -1.6625    0.0000 C   0  0  0  0  0  0  0  0  0  0  0  0
   10.5167   -1.8042    0.0000 C   0  0  0  0  0  0  0  0  0  0  0  0
    9.8167   -1.3542    0.0000 C   0  0  0  0  0  0  0  0  0  0  0  0
    2.8542   -3.3000    0.0000 C   0  0  0  0  0  0  0  0  0  0  0  0
    8.0125   -3.0417    0.0000 O   0  0  0  0  0  0  0  0  0  0  0  0
    5.4125   -1.6000    0.0000 C   0  0  0  0  0  0  0  0  0  0  0  0
    5.9375   -3.1667    0.0000 C   0  0  0  0  0  0  0  0  0  0  0  0
    6.7875   -1.2292    0.0000 C   0  0  0  0  0  0  0  0  0  0  0  0
    5.9917   -1.0167    0.0000 C   0  0  0  0  0  0  0  0  0  0  0  0
    2.1042   -2.9625    0.0000 C   0  0  0  0  0  0  0  0  0  0  0  0
    2.9417   -4.1167    0.0000 C   0  0  0  0  0  0  0  0  0  0  0  0
    2.2792   -4.6000    0.0000 C   0  0  0  0  0  0  0  0  0  0  0  0
    1.4292   -3.4417    0.0000 C   0  0  0  0  0  0  0  0  0  0  0  0
    1.5167   -4.2667    0.0000 C   0  0  0  0  0  0  0  0  0  0  0  0
  1  2  2  0
  1  3  1  0
  2  4  1  0
  3  5  2  0
  6  9  1  0
  2  7  1  0
  6  8  1  0
  4  9  1  0
 10 13  1  0
 11 12  2  0
 10 12  1  0
  8 13  1  0
 14 15  2  0
 10 15  1  0
  3 16  1  0
  8 17  2  0
  4 18  1  0
  4 19  1  0
 20 21  1  0
 18 21  1  0
 16 22  2  0
 16 23  1  0
 23 24  2  0
 22 25  1  0
 24 26  1  0
  5  7  1  0
 25 26  2  0
  6 20  1  0
 11 14  1  0
M  END
>  <MOLFORMULA>  (520) 
C19 H21 N5 O2

>  <MOLWEIGHT>  (520) 
3.514079000000000e+002

>  <IDNUMBER>  (520) 
AT-687/SK17723

>  <PRICE>  (520) 
EUR 80/10 mg

>  <Similarity score>  (520) 
0.21

$$$$

     RDKit          2D

 13 14  0  0  0  0  0  0  0  0999 V2000
    3.2542    2.4375    0.0000 C   0  0  0  0  0  0  0  0  0  0  0  0
    5.5792   -0.7417    0.0000 C   0  0  0  0  0  0  0  0  0  0  0  0
   -0.5083    1.2333    0.0000 C   0  0  0  0  0  0  0  0  0  0  0  0
   -0.5083   -2.7292    0.0000 C   0  0  0  0  0  0  0  0  0  0  0  0
    3.2542   -3.9500    0.0000 S   0  0  0  0  0  0  0  0  0  0  0  0
    4.4750    6.2125    0.0000 C   0  0  0  0  0  0  0  0  0  0  0  0
    8.3625    7.0292    0.0000 N   0  0  0  0  0  0  0  0  0  0  0  0
   -3.9333    3.2125    0.0000 C   0  0  0  0  0  0  0  0  0  0  0  0
   -3.9333   -4.7125    0.0000 C   0  0  0  0  0  0  0  0  0  0  0  0
    9.4042   -1.7667    0.0000 N   0  0  0  0  0  0  0  0  0  0  0  0
   -7.3542    1.2333    0.0000 C   0  0  0  0  0  0  0  0  0  0  0  0
   -7.3542   -2.7292    0.0000 C   0  0  0  0  0  0  0  0  0  0  0  0
  -10.7792   -4.7125    0.0000 C   0  0  0  0  0  0  0  0  0  0  0  0
  1  2  2  0
  1  3  1  0
  3  4  2  0
  2  5  1  0
  1  6  1  0
  6  7  3  0
  3  8  1  0
  4  9  1  0
  2 10  1  0
  8 11  1  0
 11 12  1  0
 12 13  1  0
  4  5  1  0
  9 12  1  0
M  END
>  <MOLFORMULA>  (521) 
C10 H12 N2 S

>  <MOLWEIGHT>  (521) 
1.922848000000000e+002

>  <IDNUMBER>  (521) 
AT-084/J162226

>  <PRICE>  (521) 
EUR 37.00/10 mg

>  <Similarity score>  (521) 
0.20

$$$$

     RDKit          2D

 13 14  0  0  0  0  0  0  0  0999 V2000
   -1.2333    0.0750    0.0000 C   0  0  0  0  0  0  0  0  0  0  0  0
   -1.6417    0.9917    0.0000 C   0  0  0  0  0  0  0  0  0  0  0  0
   -0.2375    0.1833    0.0000 C   0  0  0  0  0  0  0  0  0  0  0  0
   -0.0292    1.1583    0.0000 C   0  0  0  0  0  0  0  0  0  0  0  0
   -0.8958    1.6583    0.0000 S   0  0  0  0  0  0  0  0  0  0  0  0
   -1.7333   -0.7875    0.0000 C   0  0  0  0  0  0  0  0  0  0  0  0
   -1.2333   -1.6542    0.0000 N   0  0  0  0  0  0  0  0  0  0  0  0
    0.5042   -0.4875    0.0000 C   0  0  0  0  0  0  0  0  0  0  0  0
    0.9208    1.4667    0.0000 C   0  0  0  0  0  0  0  0  0  0  0  0
   -2.6167    1.2000    0.0000 N   0  0  0  0  0  0  0  0  0  0  0  0
    1.4542   -0.1792    0.0000 C   0  0  0  0  0  0  0  0  0  0  0  0
    1.6625    0.8000    0.0000 C   0  0  0  0  0  0  0  0  0  0  0  0
    2.6125    1.1083    0.0000 C   0  0  0  0  0  0  0  0  0  0  0  0
  1  2  2  0
  1  3  1  0
  3  4  2  0
  2  5  1  0
  1  6  1  0
  6  7  3  0
  3  8  1  0
  4  9  1  0
  2 10  1  0
  8 11  1  0
 11 12  1  0
 12 13  1  0
  4  5  1  0
  9 12  1  0
M  END
>  <MOLFORMULA>  (522) 
C10 H12 N2 S

>  <MOLWEIGHT>  (522) 
1.922848000000000e+002

>  <IDNUMBER>  (522) 
AN-153/I124580

>  <PRICE>  (522) 
EUR 130/10 mg

>  <Similarity score>  (522) 
0.20

$$$$

     RDKit          2D

 23 25  0  0  0  0  0  0  0  0999 V2000
    7.8250   -9.7000    0.0000 C   0  0  0  0  0  0  0  0  0  0  0  0
    8.5750   -9.3625    0.0000 C   0  0  0  0  0  0  0  0  0  0  0  0
    7.9167  -10.5250    0.0000 S   0  0  0  0  0  0  0  0  0  0  0  0
    9.1292   -9.9542    0.0000 C   0  0  0  0  0  0  0  0  0  0  0  0
    8.7167  -10.6792    0.0000 C   0  0  0  0  0  0  0  0  0  0  0  0
    4.9542   -7.2417    0.0000 N   0  0  0  0  0  0  0  0  0  0  0  0
    7.1042   -9.2917    0.0000 N   0  0  0  0  0  0  0  0  0  0  0  0
    4.9542   -8.0667    0.0000 C   0  0  0  0  0  0  0  0  0  0  0  0
    8.7375   -8.5542    0.0000 C   0  0  0  0  0  0  0  0  0  0  0  0
    8.9000   -7.7417    0.0000 N   0  0  0  0  0  0  0  0  0  0  0  0
    7.1000   -8.4667    0.0000 C   0  0  0  0  0  0  0  0  0  0  0  0
    4.2375   -6.8292    0.0000 C   0  0  0  0  0  0  0  0  0  0  0  0
    4.2375   -8.4792    0.0000 N   0  0  0  0  0  0  0  0  0  0  0  0
    5.6667   -8.4792    0.0000 S   0  0  0  0  0  0  0  0  0  0  0  0
    3.5250   -7.2417    0.0000 C   0  0  0  0  0  0  0  0  0  0  0  0
    7.8125   -8.0500    0.0000 O   0  0  0  0  0  0  0  0  0  0  0  0
    6.3792   -8.0667    0.0000 C   0  0  0  0  0  0  0  0  0  0  0  0
    3.5250   -8.0667    0.0000 C   0  0  0  0  0  0  0  0  0  0  0  0
    4.2292   -6.0042    0.0000 O   0  0  0  0  0  0  0  0  0  0  0  0
    9.9667   -9.9417    0.0000 C   0  0  0  0  0  0  0  0  0  0  0  0
    9.1417  -11.4000    0.0000 C   0  0  0  0  0  0  0  0  0  0  0  0
   10.3875  -10.6667    0.0000 C   0  0  0  0  0  0  0  0  0  0  0  0
    9.9750  -11.3917    0.0000 C   0  0  0  0  0  0  0  0  0  0  0  0
  1  2  2  0
  1  3  1  0
  2  4  1  0
  3  5  1  0
  6  8  1  0
  1  7  1  0
  8 14  1  0
  2  9  1  0
  9 10  3  0
  7 11  1  0
  6 12  2  0
  8 13  2  0
 14 17  1  0
 15 18  2  0
 11 16  2  0
 11 17  1  0
 13 18  1  0
 12 19  1  0
  4 20  1  0
  5 21  1  0
 20 22  1  0
 21 23  1  0
  4  5  2  0
 22 23  1  0
 12 15  1  0
M  END
>  <MOLFORMULA>  (523) 
C15 H14 N4 O2 S2

>  <MOLWEIGHT>  (523) 
3.464336000000000e+002

>  <IDNUMBER>  (523) 
AP-853/J242162

>  <Similarity score>  (523) 
0.20

$$$$

     RDKit          2D

 26 29  0  0  0  0  0  0  0  0999 V2000
    4.6250   -2.4750    0.0000 N   0  0  0  0  0  0  0  0  0  0  0  0
   10.5917   -2.5000    0.0000 C   0  0  0  0  0  0  0  0  0  0  0  0
    5.4042   -3.5292    0.0000 C   0  0  0  0  0  0  0  0  0  0  0  0
    3.3500   -2.8750    0.0000 C   0  0  0  0  0  0  0  0  0  0  0  0
    6.7500   -3.5292    0.0000 C   0  0  0  0  0  0  0  0  0  0  0  0
    3.3500   -4.1917    0.0000 N   0  0  0  0  0  0  0  0  0  0  0  0
   11.7750   -0.7042    0.0000 N   0  0  0  0  0  0  0  0  0  0  0  0
    4.6250   -4.6042    0.0000 O   0  0  0  0  0  0  0  0  0  0  0  0
   10.4917   -0.3542    0.0000 O   0  0  0  0  0  0  0  0  0  0  0  0
    9.7667   -1.4750    0.0000 C   0  0  0  0  0  0  0  0  0  0  0  0
   11.8417   -2.0250    0.0000 C   0  0  0  0  0  0  0  0  0  0  0  0
    8.9667   -4.1250    0.0000 N   0  0  0  0  0  0  0  0  0  0  0  0
   10.2542   -3.7917    0.0000 C   0  0  0  0  0  0  0  0  0  0  0  0
    8.0250   -3.2000    0.0000 C   0  0  0  0  0  0  0  0  0  0  0  0
    2.2917   -2.0750    0.0000 C   0  0  0  0  0  0  0  0  0  0  0  0
    6.4000   -4.8250    0.0000 C   0  0  0  0  0  0  0  0  0  0  0  0
    7.2500   -2.3000    0.0000 C   0  0  0  0  0  0  0  0  0  0  0  0
    8.6250   -5.4250    0.0000 C   0  0  0  0  0  0  0  0  0  0  0  0
    8.4250   -1.5417    0.0000 C   0  0  0  0  0  0  0  0  0  0  0  0
    7.3250   -5.7542    0.0000 C   0  0  0  0  0  0  0  0  0  0  0  0
   12.9500   -2.7500    0.0000 C   0  0  0  0  0  0  0  0  0  0  0  0
    1.0750   -2.6417    0.0000 C   0  0  0  0  0  0  0  0  0  0  0  0
    2.4167   -0.7750    0.0000 C   0  0  0  0  0  0  0  0  0  0  0  0
    1.3417   -0.0000    0.0000 C   0  0  0  0  0  0  0  0  0  0  0  0
    0.0000   -1.8500    0.0000 C   0  0  0  0  0  0  0  0  0  0  0  0
    0.1250   -0.5250    0.0000 C   0  0  0  0  0  0  0  0  0  0  0  0
  2 13  1  0
  1  3  2  0
  1  4  1  0
  3  5  1  0
  4  6  2  0
  7 11  2  0
  3  8  1  0
  9 10  1  0
  2 10  2  0
  2 11  1  0
 12 14  1  0
 12 13  1  0
  5 14  1  0
  4 15  1  0
  5 16  1  0
  5 17  1  0
 18 20  1  0
 10 19  1  0
 16 20  1  0
 11 21  1  0
 15 22  2  0
 15 23  1  0
 23 24  2  0
 22 25  1  0
 24 26  1  0
  6  8  1  0
 25 26  2  0
 12 18  1  0
  7  9  1  0
M  END
>  <MOLFORMULA>  (524) 
C20 H24 N4 O2

>  <MOLWEIGHT>  (524) 
3.524356000000000e+002

>  <IDNUMBER>  (524) 
AT-687/PE19330

>  <PRICE>  (524) 
EUR 80/10 mg

>  <Similarity score>  (524) 
0.20

$$$$

     RDKit          2D

 25 28  0  0  0  0  0  0  0  0999 V2000
    3.6667   -1.5792    0.0000 N   0  0  0  0  0  0  0  0  0  0  0  0
    4.4500   -2.6750    0.0000 C   0  0  0  0  0  0  0  0  0  0  0  0
    2.4000   -2.0000    0.0000 C   0  0  0  0  0  0  0  0  0  0  0  0
    5.7750   -2.6750    0.0000 C   0  0  0  0  0  0  0  0  0  0  0  0
    7.9917   -3.2667    0.0000 N   0  0  0  0  0  0  0  0  0  0  0  0
    2.4000   -3.3292    0.0000 N   0  0  0  0  0  0  0  0  0  0  0  0
    9.2792   -2.9167    0.0000 C   0  0  0  0  0  0  0  0  0  0  0  0
    3.6667   -3.7500    0.0000 O   0  0  0  0  0  0  0  0  0  0  0  0
    1.3250   -1.2250    0.0000 C   0  0  0  0  0  0  0  0  0  0  0  0
   10.2250   -3.8667    0.0000 C   0  0  0  0  0  0  0  0  0  0  0  0
    7.0667   -2.3167    0.0000 C   0  0  0  0  0  0  0  0  0  0  0  0
    0.0000   -1.0750    0.0000 C   0  0  0  0  0  0  0  0  0  0  0  0
    0.8000   -0.0000    0.0000 C   0  0  0  0  0  0  0  0  0  0  0  0
   10.8167   -6.0750    0.0000 N   0  0  0  0  0  0  0  0  0  0  0  0
    9.8917   -5.1417    0.0000 C   0  0  0  0  0  0  0  0  0  0  0  0
   12.1042   -5.7417    0.0000 C   0  0  0  0  0  0  0  0  0  0  0  0
    9.6250   -1.6417    0.0000 O   0  0  0  0  0  0  0  0  0  0  0  0
   11.5000   -3.5250    0.0000 C   0  0  0  0  0  0  0  0  0  0  0  0
   12.4417   -4.4417    0.0000 C   0  0  0  0  0  0  0  0  0  0  0  0
    7.6500   -4.5500    0.0000 C   0  0  0  0  0  0  0  0  0  0  0  0
    5.4250   -3.9500    0.0000 C   0  0  0  0  0  0  0  0  0  0  0  0
    6.2750   -1.4417    0.0000 C   0  0  0  0  0  0  0  0  0  0  0  0
   13.0417   -6.6750    0.0000 O   0  0  0  0  0  0  0  0  0  0  0  0
    6.3750   -4.9000    0.0000 C   0  0  0  0  0  0  0  0  0  0  0  0
   14.3250   -6.3500    0.0000 C   0  0  0  0  0  0  0  0  0  0  0  0
  1  2  2  0
  1  3  1  0
  2  4  1  0
  5 11  1  0
  3  6  2  0
  5  7  1  0
  2  8  1  0
  3  9  1  0
  7 10  1  0
  4 11  1  0
  9 12  1  0
  9 13  1  0
 14 15  1  0
 10 15  2  0
 16 19  1  0
  7 17  2  0
 10 18  1  0
 18 19  2  0
 20 24  1  0
  4 21  1  0
  4 22  1  0
 16 23  1  0
 21 24  1  0
 23 25  1  0
  6  8  1  0
 12 13  1  0
  5 20  1  0
 14 16  2  0
M  END
>  <MOLFORMULA>  (525) 
C18 H22 N4 O3

>  <MOLWEIGHT>  (525) 
3.423968000000000e+002

>  <IDNUMBER>  (525) 
AT-687/PE19320

>  <PRICE>  (525) 
EUR 80/10 mg

>  <Similarity score>  (525) 
0.20

$$$$

     RDKit          2D

 25 28  0  0  0  0  0  0  0  0999 V2000
    4.6250   -2.5917    0.0000 N   0  0  0  0  0  0  0  0  0  0  0  0
    5.4000   -3.6667    0.0000 C   0  0  0  0  0  0  0  0  0  0  0  0
    3.3542   -3.0000    0.0000 C   0  0  0  0  0  0  0  0  0  0  0  0
   11.8250   -2.1500    0.0000 N   0  0  0  0  0  0  0  0  0  0  0  0
    6.7292   -3.6667    0.0000 C   0  0  0  0  0  0  0  0  0  0  0  0
    3.3542   -4.3167    0.0000 N   0  0  0  0  0  0  0  0  0  0  0  0
   10.5917   -2.6417    0.0000 C   0  0  0  0  0  0  0  0  0  0  0  0
    4.6250   -4.7417    0.0000 O   0  0  0  0  0  0  0  0  0  0  0  0
   10.4750   -0.4917    0.0000 N   0  0  0  0  0  0  0  0  0  0  0  0
   11.7500   -0.8250    0.0000 C   0  0  0  0  0  0  0  0  0  0  0  0
    9.7500   -1.6000    0.0000 O   0  0  0  0  0  0  0  0  0  0  0  0
    8.9667   -4.2667    0.0000 N   0  0  0  0  0  0  0  0  0  0  0  0
    8.0167   -3.3250    0.0000 C   0  0  0  0  0  0  0  0  0  0  0  0
   10.2417   -3.9250    0.0000 C   0  0  0  0  0  0  0  0  0  0  0  0
    2.2792   -2.2250    0.0000 C   0  0  0  0  0  0  0  0  0  0  0  0
    6.3917   -4.9500    0.0000 C   0  0  0  0  0  0  0  0  0  0  0  0
    7.2500   -2.4417    0.0000 C   0  0  0  0  0  0  0  0  0  0  0  0
    8.6000   -5.5500    0.0000 C   0  0  0  0  0  0  0  0  0  0  0  0
    7.3417   -5.8917    0.0000 C   0  0  0  0  0  0  0  0  0  0  0  0
   12.7917   -0.0000    0.0000 C   0  0  0  0  0  0  0  0  0  0  0  0
    2.4417   -0.9000    0.0000 C   0  0  0  0  0  0  0  0  0  0  0  0
    1.0667   -2.7750    0.0000 C   0  0  0  0  0  0  0  0  0  0  0  0
    0.0000   -1.9917    0.0000 C   0  0  0  0  0  0  0  0  0  0  0  0
    1.3500   -0.1042    0.0000 C   0  0  0  0  0  0  0  0  0  0  0  0
    0.1250   -0.6542    0.0000 C   0  0  0  0  0  0  0  0  0  0  0  0
  1  2  2  0
  1  3  1  0
  4  7  2  0
  2  5  1  0
  3  6  2  0
  7 14  1  0
  2  8  1  0
  9 11  1  0
  4 10  1  0
  7 11  1  0
 12 13  1  0
  5 13  1  0
 12 14  1  0
  3 15  1  0
  5 16  1  0
  5 17  1  0
 18 19  1  0
 16 19  1  0
 10 20  1  0
 15 21  2  0
 15 22  1  0
 22 23  2  0
 21 24  1  0
 23 25  1  0
  6  8  1  0
 24 25  2  0
 12 18  1  0
  9 10  2  0
M  END
>  <MOLFORMULA>  (526) 
C18 H21 N5 O2

>  <MOLWEIGHT>  (526) 
3.393969000000000e+002

>  <IDNUMBER>  (526) 
AT-687/PE19331

>  <PRICE>  (526) 
EUR 80/10 mg

>  <Similarity score>  (526) 
0.20

$$$$

     RDKit          2D

 26 29  0  0  0  0  0  0  0  0999 V2000
    4.4917   -2.5875    0.0000 N   0  0  0  0  0  0  0  0  0  0  0  0
    4.9792   -3.2542    0.0000 C   0  0  0  0  0  0  0  0  0  0  0  0
    3.7042   -2.8417    0.0000 C   0  0  0  0  0  0  0  0  0  0  0  0
    8.9625   -2.3167    0.0000 N   0  0  0  0  0  0  0  0  0  0  0  0
    5.8042   -3.2542    0.0000 C   0  0  0  0  0  0  0  0  0  0  0  0
    3.7042   -3.6667    0.0000 N   0  0  0  0  0  0  0  0  0  0  0  0
    8.1917   -2.6167    0.0000 C   0  0  0  0  0  0  0  0  0  0  0  0
    7.6667   -1.9792    0.0000 N   0  0  0  0  0  0  0  0  0  0  0  0
    4.4917   -3.9250    0.0000 O   0  0  0  0  0  0  0  0  0  0  0  0
    8.9167   -1.4917    0.0000 C   0  0  0  0  0  0  0  0  0  0  0  0
    7.1792   -3.6292    0.0000 N   0  0  0  0  0  0  0  0  0  0  0  0
    8.1167   -1.2875    0.0000 O   0  0  0  0  0  0  0  0  0  0  0  0
    6.6000   -3.0417    0.0000 C   0  0  0  0  0  0  0  0  0  0  0  0
    7.9792   -3.4125    0.0000 C   0  0  0  0  0  0  0  0  0  0  0  0
    3.0417   -2.3625    0.0000 C   0  0  0  0  0  0  0  0  0  0  0  0
    5.5875   -4.0542    0.0000 C   0  0  0  0  0  0  0  0  0  0  0  0
    6.1167   -2.4917    0.0000 C   0  0  0  0  0  0  0  0  0  0  0  0
    6.9667   -4.4250    0.0000 C   0  0  0  0  0  0  0  0  0  0  0  0
    9.5542   -0.9792    0.0000 C   0  0  0  0  0  0  0  0  0  0  0  0
    6.1750   -4.6417    0.0000 C   0  0  0  0  0  0  0  0  0  0  0  0
    3.1250   -1.5417    0.0000 C   0  0  0  0  0  0  0  0  0  0  0  0
    2.2875   -2.7000    0.0000 C   0  0  0  0  0  0  0  0  0  0  0  0
   10.3292   -1.2750    0.0000 C   0  0  0  0  0  0  0  0  0  0  0  0
    2.4542   -1.0542    0.0000 C   0  0  0  0  0  0  0  0  0  0  0  0
    1.6167   -2.2125    0.0000 C   0  0  0  0  0  0  0  0  0  0  0  0
    1.7000   -1.3917    0.0000 C   0  0  0  0  0  0  0  0  0  0  0  0
  1  2  2  0
  1  3  1  0
  4  7  1  0
  2  5  1  0
  3  6  2  0
  7 14  1  0
  7  8  2  0
  2  9  1  0
  4 10  2  0
 11 13  1  0
  8 12  1  0
  5 13  1  0
 11 14  1  0
  3 15  1  0
  5 16  1  0
  5 17  1  0
 18 20  1  0
 10 19  1  0
 16 20  1  0
 15 21  1  0
 15 22  2  0
 19 23  1  0
 21 24  2  0
 22 25  1  0
 25 26  2  0
  6  9  1  0
 24 26  1  0
 11 18  1  0
 10 12  1  0
M  END
>  <MOLFORMULA>  (527) 
C19 H23 N5 O2

>  <MOLWEIGHT>  (527) 
3.534237000000000e+002

>  <IDNUMBER>  (527) 
AT-687/SK17725

>  <PRICE>  (527) 
EUR 80/10 mg

>  <Similarity score>  (527) 
0.20

$$$$

     RDKit          2D

 26 29  0  0  0  0  0  0  0  0999 V2000
    8.4542   -3.6250    0.0000 C   0  0  0  0  0  0  0  0  0  0  0  0
    4.3667   -2.2042    0.0000 N   0  0  0  0  0  0  0  0  0  0  0  0
    4.8542   -2.8667    0.0000 C   0  0  0  0  0  0  0  0  0  0  0  0
    3.5792   -2.4667    0.0000 C   0  0  0  0  0  0  0  0  0  0  0  0
    7.8667   -3.0375    0.0000 C   0  0  0  0  0  0  0  0  0  0  0  0
    5.6792   -2.8667    0.0000 C   0  0  0  0  0  0  0  0  0  0  0  0
    7.0667   -3.2542    0.0000 N   0  0  0  0  0  0  0  0  0  0  0  0
    3.5792   -3.2917    0.0000 N   0  0  0  0  0  0  0  0  0  0  0  0
    8.3167   -4.4417    0.0000 N   0  0  0  0  0  0  0  0  0  0  0  0
    9.2750   -3.4917    0.0000 C   0  0  0  0  0  0  0  0  0  0  0  0
    4.3667   -3.5417    0.0000 O   0  0  0  0  0  0  0  0  0  0  0  0
    9.0667   -4.8167    0.0000 N   0  0  0  0  0  0  0  0  0  0  0  0
    6.4875   -2.6667    0.0000 C   0  0  0  0  0  0  0  0  0  0  0  0
    9.6417   -4.2292    0.0000 C   0  0  0  0  0  0  0  0  0  0  0  0
    8.0792   -2.2375    0.0000 O   0  0  0  0  0  0  0  0  0  0  0  0
    2.9042   -1.9792    0.0000 C   0  0  0  0  0  0  0  0  0  0  0  0
    6.8500   -4.0542    0.0000 C   0  0  0  0  0  0  0  0  0  0  0  0
    5.4667   -3.6792    0.0000 C   0  0  0  0  0  0  0  0  0  0  0  0
    6.0000   -2.1167    0.0000 C   0  0  0  0  0  0  0  0  0  0  0  0
    6.0542   -4.2667    0.0000 C   0  0  0  0  0  0  0  0  0  0  0  0
   10.4667   -4.3542    0.0000 C   0  0  0  0  0  0  0  0  0  0  0  0
    2.1500   -2.3125    0.0000 C   0  0  0  0  0  0  0  0  0  0  0  0
    3.0000   -1.1542    0.0000 C   0  0  0  0  0  0  0  0  0  0  0  0
    2.3167   -0.6667    0.0000 C   0  0  0  0  0  0  0  0  0  0  0  0
    1.4792   -1.8250    0.0000 C   0  0  0  0  0  0  0  0  0  0  0  0
    1.5667   -1.0042    0.0000 C   0  0  0  0  0  0  0  0  0  0  0  0
  2  3  2  0
  3  6  1  0
  2  4  1  0
  1  5  1  0
  6 13  1  0
  5  7  1  0
  8 11  1  0
  1  9  1  0
  1 10  2  0
  3 11  1  0
  9 12  1  0
  7 13  1  0
 10 14  1  0
  5 15  2  0
  4 16  1  0
  7 17  1  0
 18 20  1  0
  6 19  1  0
 17 20  1  0
 14 21  1  0
 16 22  2  0
 16 23  1  0
 23 24  2  0
 22 25  1  0
 24 26  1  0
 12 14  2  0
  6 18  1  0
  4  8  2  0
 25 26  2  0
M  END
>  <MOLFORMULA>  (528) 
C19 H21 N5 O2

>  <MOLWEIGHT>  (528) 
3.514079000000000e+002

>  <IDNUMBER>  (528) 
AT-687/SK17721

>  <PRICE>  (528) 
EUR 80/10 mg

>  <Similarity score>  (528) 
0.20

$$$$

     RDKit          2D

 16 17  0  0  0  0  0  0  0  0999 V2000
    0.1375    0.9458    0.0000 C   0  0  0  0  0  0  0  0  0  0  0  0
    0.1375    0.2833    0.0000 C   0  0  0  0  0  0  0  0  0  0  0  0
   -1.0208    0.2833    0.0000 C   0  0  0  0  0  0  0  0  0  0  0  0
   -1.0208    0.9458    0.0000 C   0  0  0  0  0  0  0  0  0  0  0  0
   -0.4458   -0.0500    0.0000 S   0  0  0  0  0  0  0  0  0  0  0  0
    0.7500    1.2833    0.0000 C   0  0  0  0  0  0  0  0  0  0  0  0
   -1.6000   -0.0500    0.0000 C   0  0  0  0  0  0  0  0  0  0  0  0
    1.3542    1.6208    0.0000 N   0  0  0  0  0  0  0  0  0  0  0  0
   -1.6000    1.2708    0.0000 C   0  0  0  0  0  0  0  0  0  0  0  0
   -2.1833    0.2833    0.0000 C   0  0  0  0  0  0  0  0  0  0  0  0
   -2.7958   -0.0667    0.0000 C   0  0  0  0  0  0  0  0  0  0  0  0
    0.7500   -0.0667    0.0000 N   0  0  0  0  0  0  0  0  0  0  0  0
   -2.1833    0.9458    0.0000 C   0  0  0  0  0  0  0  0  0  0  0  0
   -3.4833   -0.3542    0.0000 C   0  0  0  0  0  0  0  0  0  0  0  0
   -3.0458    0.5208    0.0000 C   0  0  0  0  0  0  0  0  0  0  0  0
   -2.5000   -0.7375    0.0000 C   0  0  0  0  0  0  0  0  0  0  0  0
  1  2  2  0
  3  4  2  0
  1  4  1  0
  2  5  1  0
  1  6  1  0
  3  7  1  0
  6  8  3  0
  4  9  1  0
 10 13  1  0
 10 11  1  0
  2 12  1  0
  9 13  1  0
 11 14  1  0
 11 15  1  0
 11 16  1  0
  3  5  1  0
  7 10  1  0
M  END
>  <MOLFORMULA>  (529) 
C13 H18 N2 S

>  <MOLWEIGHT>  (529) 
2.343652000000000e+002

>  <IDNUMBER>  (529) 
AT-225/JK21267

>  <PRICE>  (529) 
EUR 140/10 mg

>  <Similarity score>  (529) 
0.20

$$$$

     RDKit          2D

 16 17  0  0  0  0  0  0  0  0999 V2000
    5.8667   -2.5542    0.0000 C   0  0  0  0  0  0  0  0  0  0  0  0
    6.6417   -3.6292    0.0000 C   0  0  0  0  0  0  0  0  0  0  0  0
    4.6042   -4.2917    0.0000 C   0  0  0  0  0  0  0  0  0  0  0  0
    4.6042   -2.9667    0.0000 C   0  0  0  0  0  0  0  0  0  0  0  0
    5.8667   -4.7042    0.0000 S   0  0  0  0  0  0  0  0  0  0  0  0
    6.2792   -1.2917    0.0000 C   0  0  0  0  0  0  0  0  0  0  0  0
    3.4542   -4.9542    0.0000 C   0  0  0  0  0  0  0  0  0  0  0  0
    6.6292   -0.0000    0.0000 N   0  0  0  0  0  0  0  0  0  0  0  0
    3.4542   -2.2917    0.0000 C   0  0  0  0  0  0  0  0  0  0  0  0
    2.3042   -4.3000    0.0000 C   0  0  0  0  0  0  0  0  0  0  0  0
    1.1542   -4.9667    0.0000 C   0  0  0  0  0  0  0  0  0  0  0  0
    7.9750   -3.6292    0.0000 N   0  0  0  0  0  0  0  0  0  0  0  0
    2.3042   -2.9667    0.0000 C   0  0  0  0  0  0  0  0  0  0  0  0
    0.0000   -5.6167    0.0000 C   0  0  0  0  0  0  0  0  0  0  0  0
    1.8250   -6.1167    0.0000 C   0  0  0  0  0  0  0  0  0  0  0  0
    0.4917   -3.8125    0.0000 C   0  0  0  0  0  0  0  0  0  0  0  0
  1  2  2  0
  3  4  2  0
  1  4  1  0
  2  5  1  0
  1  6  1  0
  3  7  1  0
  6  8  3  0
  4  9  1  0
 10 13  1  0
 10 11  1  0
  2 12  1  0
  9 13  1  0
 11 14  1  0
 11 15  1  0
 11 16  1  0
  3  5  1  0
  7 10  1  0
M  END
>  <MOLFORMULA>  (530) 
C13 H18 N2 S

>  <MOLWEIGHT>  (530) 
2.343652000000000e+002

>  <IDNUMBER>  (530) 
AT-687/NB00958

>  <PRICE>  (530) 
EUR 80/10 mg

>  <Similarity score>  (530) 
0.20

$$$$

     RDKit          2D

 16 17  0  0  0  0  0  0  0  0999 V2000
   -1.6500   -0.5542    0.0000 C   0  0  0  0  0  0  0  0  0  0  0  0
   -2.0583    0.3583    0.0000 C   0  0  0  0  0  0  0  0  0  0  0  0
   -0.4500    0.5250    0.0000 C   0  0  0  0  0  0  0  0  0  0  0  0
   -0.6583   -0.4500    0.0000 C   0  0  0  0  0  0  0  0  0  0  0  0
   -1.3167    1.0250    0.0000 S   0  0  0  0  0  0  0  0  0  0  0  0
   -2.1500   -1.4208    0.0000 C   0  0  0  0  0  0  0  0  0  0  0  0
    0.5000    0.8333    0.0000 C   0  0  0  0  0  0  0  0  0  0  0  0
   -3.1500   -1.4208    0.0000 N   0  0  0  0  0  0  0  0  0  0  0  0
    0.0875   -1.1208    0.0000 C   0  0  0  0  0  0  0  0  0  0  0  0
    1.2458    0.1667    0.0000 C   0  0  0  0  0  0  0  0  0  0  0  0
    2.1958    0.4750    0.0000 C   0  0  0  0  0  0  0  0  0  0  0  0
   -3.0375    0.5667    0.0000 N   0  0  0  0  0  0  0  0  0  0  0  0
    1.0375   -0.8125    0.0000 C   0  0  0  0  0  0  0  0  0  0  0  0
    1.8875    1.4250    0.0000 C   0  0  0  0  0  0  0  0  0  0  0  0
    2.5042   -0.4750    0.0000 C   0  0  0  0  0  0  0  0  0  0  0  0
    3.1458    0.7833    0.0000 C   0  0  0  0  0  0  0  0  0  0  0  0
  1  2  2  0
  3  4  2  0
  1  4  1  0
  2  5  1  0
  1  6  1  0
  3  7  1  0
  6  8  3  0
  4  9  1  0
 10 13  1  0
 10 11  1  0
  2 12  1  0
  9 13  1  0
 11 14  1  0
 11 15  1  0
 11 16  1  0
  3  5  1  0
  7 10  1  0
M  END
>  <MOLFORMULA>  (531) 
C13 H18 N2 S

>  <MOLWEIGHT>  (531) 
2.343652000000000e+002

>  <IDNUMBER>  (531) 
AN-153/I124583

>  <PRICE>  (531) 
EUR 130/10 mg

>  <Similarity score>  (531) 
0.20

$$$$

     RDKit          2D

 16 17  0  0  0  0  0  0  0  0999 V2000
    4.0292   -0.4000    0.0000 C   0  0  0  0  0  0  0  0  0  0  0  0
    4.5167   -1.0542    0.0000 C   0  0  0  0  0  0  0  0  0  0  0  0
    3.2500   -1.4750    0.0000 C   0  0  0  0  0  0  0  0  0  0  0  0
    3.2500   -0.6500    0.0000 C   0  0  0  0  0  0  0  0  0  0  0  0
    4.0292   -1.7250    0.0000 S   0  0  0  0  0  0  0  0  0  0  0  0
    4.2917    0.3875    0.0000 C   0  0  0  0  0  0  0  0  0  0  0  0
    2.5417   -1.8792    0.0000 C   0  0  0  0  0  0  0  0  0  0  0  0
    4.5000    1.1875    0.0000 N   0  0  0  0  0  0  0  0  0  0  0  0
    2.5417   -0.2292    0.0000 C   0  0  0  0  0  0  0  0  0  0  0  0
    1.8250   -1.4750    0.0000 C   0  0  0  0  0  0  0  0  0  0  0  0
    1.1167   -1.8917    0.0000 C   0  0  0  0  0  0  0  0  0  0  0  0
    5.3417   -1.0542    0.0000 N   0  0  0  0  0  0  0  0  0  0  0  0
    1.8250   -0.6500    0.0000 C   0  0  0  0  0  0  0  0  0  0  0  0
    0.4000   -2.3000    0.0000 C   0  0  0  0  0  0  0  0  0  0  0  0
    1.5250   -2.6000    0.0000 C   0  0  0  0  0  0  0  0  0  0  0  0
    0.7000   -1.1750    0.0000 C   0  0  0  0  0  0  0  0  0  0  0  0
  1  2  2  0
  3  4  2  0
  1  4  1  0
  2  5  1  0
  1  6  1  0
  3  7  1  0
  6  8  3  0
  4  9  1  0
 10 13  1  0
 10 11  1  0
  2 12  1  0
  9 13  1  0
 11 14  1  0
 11 15  1  0
 11 16  1  0
  3  5  1  0
  7 10  1  0
M  END
>  <MOLFORMULA>  (532) 
C13 H18 N2 S

>  <MOLWEIGHT>  (532) 
2.343652000000000e+002

>  <IDNUMBER>  (532) 
AT-687/PE32216

>  <PRICE>  (532) 
EUR 80/10 mg

>  <Similarity score>  (532) 
0.20

$$$$

     RDKit          2D

 14 15  0  0  0  0  0  0  0  0999 V2000
    0.1375    0.9458    0.0000 C   0  0  0  0  0  0  0  0  0  0  0  0
    0.1375    0.2833    0.0000 C   0  0  0  0  0  0  0  0  0  0  0  0
   -1.0208    0.9458    0.0000 C   0  0  0  0  0  0  0  0  0  0  0  0
   -1.0208    0.2833    0.0000 C   0  0  0  0  0  0  0  0  0  0  0  0
   -0.4458   -0.0500    0.0000 S   0  0  0  0  0  0  0  0  0  0  0  0
    0.7500    1.2833    0.0000 C   0  0  0  0  0  0  0  0  0  0  0  0
    1.3542    1.6208    0.0000 N   0  0  0  0  0  0  0  0  0  0  0  0
   -1.6000    1.2708    0.0000 C   0  0  0  0  0  0  0  0  0  0  0  0
   -1.6000   -0.0500    0.0000 C   0  0  0  0  0  0  0  0  0  0  0  0
    0.7500   -0.0667    0.0000 N   0  0  0  0  0  0  0  0  0  0  0  0
   -2.1833    0.9458    0.0000 C   0  0  0  0  0  0  0  0  0  0  0  0
   -2.1833    0.2833    0.0000 C   0  0  0  0  0  0  0  0  0  0  0  0
   -2.7958   -0.0667    0.0000 C   0  0  0  0  0  0  0  0  0  0  0  0
   -3.4000    0.2833    0.0000 C   0  0  0  0  0  0  0  0  0  0  0  0
  1  2  2  0
  1  3  1  0
  3  4  2  0
  2  5  1  0
  1  6  1  0
  6  7  3  0
  3  8  1  0
  4  9  1  0
  2 10  1  0
  8 11  1  0
 11 12  1  0
 12 13  1  0
 13 14  1  0
  4  5  1  0
  9 12  1  0
M  END
>  <MOLFORMULA>  (533) 
C11 H14 N2 S

>  <MOLWEIGHT>  (533) 
2.063116000000000e+002

>  <IDNUMBER>  (533) 
AT-225/JK21271

>  <PRICE>  (533) 
EUR 140/10 mg

>  <Similarity score>  (533) 
0.20

$$$$

     RDKit          2D

 26 29  0  0  0  0  0  0  0  0999 V2000
    4.6125   -3.9042    0.0000 N   0  0  0  0  0  0  0  0  0  0  0  0
    5.1000   -3.2292    0.0000 C   0  0  0  0  0  0  0  0  0  0  0  0
    3.8292   -3.6500    0.0000 C   0  0  0  0  0  0  0  0  0  0  0  0
    8.5750   -1.6667    0.0000 N   0  0  0  0  0  0  0  0  0  0  0  0
    5.9292   -3.2292    0.0000 C   0  0  0  0  0  0  0  0  0  0  0  0
    3.8292   -2.8167    0.0000 N   0  0  0  0  0  0  0  0  0  0  0  0
    8.7042   -2.4875    0.0000 C   0  0  0  0  0  0  0  0  0  0  0  0
    4.6125   -2.5625    0.0000 O   0  0  0  0  0  0  0  0  0  0  0  0
    9.8917   -1.8875    0.0000 N   0  0  0  0  0  0  0  0  0  0  0  0
    9.3167   -1.3000    0.0000 C   0  0  0  0  0  0  0  0  0  0  0  0
    9.5167   -2.6250    0.0000 O   0  0  0  0  0  0  0  0  0  0  0  0
    7.3167   -2.8625    0.0000 N   0  0  0  0  0  0  0  0  0  0  0  0
    6.7292   -3.4500    0.0000 C   0  0  0  0  0  0  0  0  0  0  0  0
    8.1167   -3.0792    0.0000 C   0  0  0  0  0  0  0  0  0  0  0  0
    3.1625   -4.1292    0.0000 C   0  0  0  0  0  0  0  0  0  0  0  0
    5.7167   -2.4375    0.0000 C   0  0  0  0  0  0  0  0  0  0  0  0
    6.2500   -4.0000    0.0000 C   0  0  0  0  0  0  0  0  0  0  0  0
    7.1042   -2.0667    0.0000 C   0  0  0  0  0  0  0  0  0  0  0  0
    9.4417   -0.4792    0.0000 C   0  0  0  0  0  0  0  0  0  0  0  0
    6.3042   -1.8417    0.0000 C   0  0  0  0  0  0  0  0  0  0  0  0
    3.2417   -4.9625    0.0000 C   0  0  0  0  0  0  0  0  0  0  0  0
    2.4042   -3.8000    0.0000 C   0  0  0  0  0  0  0  0  0  0  0  0
   10.2042   -0.1792    0.0000 C   0  0  0  0  0  0  0  0  0  0  0  0
    2.5750   -5.4417    0.0000 C   0  0  0  0  0  0  0  0  0  0  0  0
    1.7292   -4.2875    0.0000 C   0  0  0  0  0  0  0  0  0  0  0  0
    1.8167   -5.1042    0.0000 C   0  0  0  0  0  0  0  0  0  0  0  0
  1  2  2  0
  1  3  1  0
  4  7  2  0
  2  5  1  0
  3  6  2  0
  7 14  1  0
  2  8  1  0
  9 11  1  0
  4 10  1  0
  7 11  1  0
 12 13  1  0
  5 13  1  0
 12 14  1  0
  3 15  1  0
  5 16  1  0
  5 17  1  0
 18 20  1  0
 10 19  1  0
 16 20  1  0
 15 21  1  0
 15 22  2  0
 19 23  1  0
 21 24  2  0
 22 25  1  0
 25 26  2  0
  6  8  1  0
 24 26  1  0
 12 18  1  0
  9 10  2  0
M  END
>  <MOLFORMULA>  (534) 
C19 H23 N5 O2

>  <MOLWEIGHT>  (534) 
3.534237000000000e+002

>  <IDNUMBER>  (534) 
AT-687/SK17724

>  <PRICE>  (534) 
EUR 80/10 mg

>  <Similarity score>  (534) 
0.20

$$$$

     RDKit          2D

 26 29  0  0  0  0  0  0  0  0999 V2000
    8.8542   -3.6917    0.0000 C   0  0  0  0  0  0  0  0  0  0  0  0
    4.7667   -2.2792    0.0000 N   0  0  0  0  0  0  0  0  0  0  0  0
    8.2750   -3.1042    0.0000 C   0  0  0  0  0  0  0  0  0  0  0  0
    5.2542   -2.9417    0.0000 C   0  0  0  0  0  0  0  0  0  0  0  0
    3.9792   -2.5292    0.0000 C   0  0  0  0  0  0  0  0  0  0  0  0
    7.4750   -3.3167    0.0000 N   0  0  0  0  0  0  0  0  0  0  0  0
    6.0875   -2.9417    0.0000 C   0  0  0  0  0  0  0  0  0  0  0  0
    3.9792   -3.3625    0.0000 N   0  0  0  0  0  0  0  0  0  0  0  0
    9.6792   -3.5625    0.0000 N   0  0  0  0  0  0  0  0  0  0  0  0
    4.7667   -3.6125    0.0000 O   0  0  0  0  0  0  0  0  0  0  0  0
    6.8875   -2.7292    0.0000 C   0  0  0  0  0  0  0  0  0  0  0  0
   10.0542   -4.2917    0.0000 N   0  0  0  0  0  0  0  0  0  0  0  0
    8.7292   -4.5042    0.0000 C   0  0  0  0  0  0  0  0  0  0  0  0
    9.4625   -4.8875    0.0000 C   0  0  0  0  0  0  0  0  0  0  0  0
    8.4917   -2.3042    0.0000 O   0  0  0  0  0  0  0  0  0  0  0  0
    3.3125   -2.0417    0.0000 C   0  0  0  0  0  0  0  0  0  0  0  0
    7.2542   -4.1167    0.0000 C   0  0  0  0  0  0  0  0  0  0  0  0
    5.8667   -3.7500    0.0000 C   0  0  0  0  0  0  0  0  0  0  0  0
    6.4000   -2.1792    0.0000 C   0  0  0  0  0  0  0  0  0  0  0  0
   10.0542   -2.8167    0.0000 C   0  0  0  0  0  0  0  0  0  0  0  0
    6.4625   -4.3292    0.0000 C   0  0  0  0  0  0  0  0  0  0  0  0
    2.5542   -2.3792    0.0000 C   0  0  0  0  0  0  0  0  0  0  0  0
    3.3917   -1.2167    0.0000 C   0  0  0  0  0  0  0  0  0  0  0  0
    2.7292   -0.7292    0.0000 C   0  0  0  0  0  0  0  0  0  0  0  0
    1.8792   -1.8917    0.0000 C   0  0  0  0  0  0  0  0  0  0  0  0
    1.9667   -1.0667    0.0000 C   0  0  0  0  0  0  0  0  0  0  0  0
  2  4  2  0
  1  3  1  0
  4  7  1  0
  2  5  1  0
  3  6  1  0
  7 11  1  0
  8 10  1  0
  1  9  1  0
  4 10  1  0
  6 11  1  0
  9 12  1  0
  1 13  2  0
 13 14  1  0
  3 15  2  0
  5 16  1  0
  6 17  1  0
 18 21  1  0
  7 19  1  0
  9 20  1  0
 17 21  1  0
 16 22  2  0
 16 23  1  0
 23 24  2  0
 22 25  1  0
 24 26  1  0
 12 14  2  0
  7 18  1  0
  5  8  2  0
 25 26  2  0
M  END
>  <MOLFORMULA>  (535) 
C19 H21 N5 O2

>  <MOLWEIGHT>  (535) 
3.514079000000000e+002

>  <IDNUMBER>  (535) 
AT-687/SK17722

>  <PRICE>  (535) 
EUR 80/10 mg

>  <Similarity score>  (535) 
0.19

$$$$

     RDKit          2D

 26 29  0  0  0  0  0  0  0  0999 V2000
    4.7750   -2.2792    0.0000 N   0  0  0  0  0  0  0  0  0  0  0  0
    5.2625   -2.9417    0.0000 C   0  0  0  0  0  0  0  0  0  0  0  0
    8.2792   -3.1042    0.0000 C   0  0  0  0  0  0  0  0  0  0  0  0
    3.9875   -2.5292    0.0000 C   0  0  0  0  0  0  0  0  0  0  0  0
    7.4792   -3.3167    0.0000 N   0  0  0  0  0  0  0  0  0  0  0  0
    8.8542   -3.6917    0.0000 C   0  0  0  0  0  0  0  0  0  0  0  0
    6.0917   -2.9417    0.0000 C   0  0  0  0  0  0  0  0  0  0  0  0
    3.9875   -3.3625    0.0000 N   0  0  0  0  0  0  0  0  0  0  0  0
    4.7750   -3.6125    0.0000 O   0  0  0  0  0  0  0  0  0  0  0  0
    8.7292   -4.5042    0.0000 N   0  0  0  0  0  0  0  0  0  0  0  0
    6.8917   -2.7292    0.0000 C   0  0  0  0  0  0  0  0  0  0  0  0
    9.6875   -3.5625    0.0000 C   0  0  0  0  0  0  0  0  0  0  0  0
    9.4667   -4.8875    0.0000 C   0  0  0  0  0  0  0  0  0  0  0  0
   10.0542   -4.2917    0.0000 C   0  0  0  0  0  0  0  0  0  0  0  0
    8.4917   -2.3042    0.0000 O   0  0  0  0  0  0  0  0  0  0  0  0
    3.3167   -2.0417    0.0000 C   0  0  0  0  0  0  0  0  0  0  0  0
    7.2625   -4.1167    0.0000 C   0  0  0  0  0  0  0  0  0  0  0  0
    5.8750   -3.7500    0.0000 C   0  0  0  0  0  0  0  0  0  0  0  0
    6.4042   -2.1792    0.0000 C   0  0  0  0  0  0  0  0  0  0  0  0
    7.9917   -4.8875    0.0000 C   0  0  0  0  0  0  0  0  0  0  0  0
    6.4667   -4.3292    0.0000 C   0  0  0  0  0  0  0  0  0  0  0  0
    2.5625   -2.3792    0.0000 C   0  0  0  0  0  0  0  0  0  0  0  0
    3.4000   -1.2167    0.0000 C   0  0  0  0  0  0  0  0  0  0  0  0
    2.7292   -0.7292    0.0000 C   0  0  0  0  0  0  0  0  0  0  0  0
    1.8875   -1.8917    0.0000 C   0  0  0  0  0  0  0  0  0  0  0  0
    1.9667   -1.0667    0.0000 C   0  0  0  0  0  0  0  0  0  0  0  0
  1  2  2  0
  3  5  1  0
  1  4  1  0
  5 11  1  0
  3  6  1  0
  2  7  1  0
  4  8  2  0
  2  9  1  0
  6 10  1  0
  7 11  1  0
  6 12  2  0
 10 13  1  0
 12 14  1  0
  3 15  2  0
  4 16  1  0
 17 21  1  0
  7 18  1  0
  7 19  1  0
 10 20  1  0
 18 21  1  0
 16 22  2  0
 16 23  1  0
 23 24  2  0
 22 25  1  0
 24 26  1  0
  8  9  1  0
 25 26  2  0
  5 17  1  0
 13 14  2  0
M  END
>  <MOLFORMULA>  (536) 
C20 H22 N4 O2

>  <MOLWEIGHT>  (536) 
3.504198000000000e+002

>  <IDNUMBER>  (536) 
AT-687/SK17720

>  <PRICE>  (536) 
EUR 80/10 mg

>  <Similarity score>  (536) 
0.19

$$$$

     RDKit          2D

 19 21  0  0  0  0  0  0  0  0999 V2000
    2.1583    0.9500    0.0000 C   0  0  0  0  0  0  0  0  0  0  0  0
    2.4458   -0.0083    0.0000 C   0  0  0  0  0  0  0  0  0  0  0  0
    0.8542   -0.0083    0.0000 C   0  0  0  0  0  0  0  0  0  0  0  0
    1.1625    0.9208    0.0000 C   0  0  0  0  0  0  0  0  0  0  0  0
    1.6792   -0.6000    0.0000 S   0  0  0  0  0  0  0  0  0  0  0  0
    2.7583    1.7583    0.0000 C   0  0  0  0  0  0  0  0  0  0  0  0
   -0.7792    0.4833    0.0000 N   0  0  0  0  0  0  0  0  0  0  0  0
    3.3583    2.5625    0.0000 N   0  0  0  0  0  0  0  0  0  0  0  0
   -0.1167   -0.2250    0.0000 C   0  0  0  0  0  0  0  0  0  0  0  0
    0.4792    1.6625    0.0000 C   0  0  0  0  0  0  0  0  0  0  0  0
    3.4208   -0.3542    0.0000 N   0  0  0  0  0  0  0  0  0  0  0  0
   -0.4833    1.4417    0.0000 C   0  0  0  0  0  0  0  0  0  0  0  0
   -1.7917    0.2958    0.0000 C   0  0  0  0  0  0  0  0  0  0  0  0
   -2.1208   -0.6583    0.0000 C   0  0  0  0  0  0  0  0  0  0  0  0
   -1.4583   -1.4125    0.0000 C   0  0  0  0  0  0  0  0  0  0  0  0
   -3.0917   -0.8500    0.0000 C   0  0  0  0  0  0  0  0  0  0  0  0
   -3.4250   -1.8125    0.0000 C   0  0  0  0  0  0  0  0  0  0  0  0
   -1.7917   -2.3417    0.0000 C   0  0  0  0  0  0  0  0  0  0  0  0
   -2.7625   -2.5583    0.0000 C   0  0  0  0  0  0  0  0  0  0  0  0
  1  2  2  0
  3  4  2  0
  1  4  1  0
  2  5  1  0
  1  6  1  0
  7 12  1  0
  6  8  3  0
  3  9  1  0
  4 10  1  0
  2 11  1  0
 10 12  1  0
  7 13  1  0
 13 14  1  0
 14 15  1  0
 14 16  2  0
 16 17  1  0
 15 18  2  0
 18 19  1  0
  3  5  1  0
  7  9  1  0
 17 19  2  0
M  END
>  <MOLFORMULA>  (537) 
C15 H15 N3 S

>  <MOLWEIGHT>  (537) 
2.693705000000000e+002

>  <IDNUMBER>  (537) 
AN-153/NB12164

>  <PRICE>  (537) 
EUR 130/10 mg

>  <Similarity score>  (537) 
0.19

$$$$

     RDKit          2D

 19 21  0  0  0  0  0  0  0  0999 V2000
    1.4292    0.2000    0.0000 C   0  0  0  0  0  0  0  0  0  0  0  0
    1.4292   -0.5500    0.0000 C   0  0  0  0  0  0  0  0  0  0  0  0
    0.1167   -0.5500    0.0000 C   0  0  0  0  0  0  0  0  0  0  0  0
    0.1167    0.2083    0.0000 C   0  0  0  0  0  0  0  0  0  0  0  0
    0.7750   -0.9250    0.0000 S   0  0  0  0  0  0  0  0  0  0  0  0
    2.0667    0.5833    0.0000 C   0  0  0  0  0  0  0  0  0  0  0  0
   -1.1833   -0.5500    0.0000 N   0  0  0  0  0  0  0  0  0  0  0  0
    2.7292    0.2208    0.0000 N   0  0  0  0  0  0  0  0  0  0  0  0
   -0.5333   -0.9250    0.0000 C   0  0  0  0  0  0  0  0  0  0  0  0
   -0.5333    0.5833    0.0000 C   0  0  0  0  0  0  0  0  0  0  0  0
    2.0792   -0.9250    0.0000 N   0  0  0  0  0  0  0  0  0  0  0  0
   -1.1833    0.2083    0.0000 C   0  0  0  0  0  0  0  0  0  0  0  0
   -1.8333   -0.9250    0.0000 C   0  0  0  0  0  0  0  0  0  0  0  0
   -2.4833   -0.5500    0.0000 C   0  0  0  0  0  0  0  0  0  0  0  0
   -3.1333   -0.9250    0.0000 C   0  0  0  0  0  0  0  0  0  0  0  0
   -2.4833    0.2000    0.0000 C   0  0  0  0  0  0  0  0  0  0  0  0
   -3.1333    0.5750    0.0000 C   0  0  0  0  0  0  0  0  0  0  0  0
   -3.7833   -0.5500    0.0000 C   0  0  0  0  0  0  0  0  0  0  0  0
   -3.7833    0.2000    0.0000 C   0  0  0  0  0  0  0  0  0  0  0  0
  1  2  2  0
  3  4  2  0
  1  4  1  0
  2  5  1  0
  1  6  1  0
  7 12  1  0
  6  8  3  0
  3  9  1  0
  4 10  1  0
  2 11  1  0
 10 12  1  0
  7 13  1  0
 13 14  1  0
 14 15  2  0
 14 16  1  0
 16 17  2  0
 15 18  1  0
 17 19  1  0
  3  5  1  0
  7  9  1  0
 18 19  2  0
M  END
>  <MOLFORMULA>  (538) 
C15 H15 N3 S

>  <MOLWEIGHT>  (538) 
2.693705000000000e+002

>  <IDNUMBER>  (538) 
AT-225/JK18545

>  <PRICE>  (538) 
EUR 140/10 mg

>  <Similarity score>  (538) 
0.19

$$$$

     RDKit          2D

 23 26  0  0  0  0  0  0  0  0999 V2000
    4.0000   -2.2792    0.0000 N   0  0  0  0  0  0  0  0  0  0  0  0
    4.4875   -2.9417    0.0000 C   0  0  0  0  0  0  0  0  0  0  0  0
    3.2125   -2.5375    0.0000 C   0  0  0  0  0  0  0  0  0  0  0  0
    5.3167   -2.9417    0.0000 C   0  0  0  0  0  0  0  0  0  0  0  0
    3.2125   -3.3667    0.0000 N   0  0  0  0  0  0  0  0  0  0  0  0
    6.7042   -3.3167    0.0000 N   0  0  0  0  0  0  0  0  0  0  0  0
    7.5000   -3.1042    0.0000 C   0  0  0  0  0  0  0  0  0  0  0  0
    4.0000   -3.6167    0.0000 O   0  0  0  0  0  0  0  0  0  0  0  0
    2.5417   -2.0500    0.0000 C   0  0  0  0  0  0  0  0  0  0  0  0
    8.0917   -3.6875    0.0000 C   0  0  0  0  0  0  0  0  0  0  0  0
    6.1125   -2.7375    0.0000 C   0  0  0  0  0  0  0  0  0  0  0  0
    8.8917   -3.4792    0.0000 C   0  0  0  0  0  0  0  0  0  0  0  0
    2.2042   -1.2917    0.0000 C   0  0  0  0  0  0  0  0  0  0  0  0
    1.7125   -1.9542    0.0000 C   0  0  0  0  0  0  0  0  0  0  0  0
    9.1875   -2.7042    0.0000 S   0  0  0  0  0  0  0  0  0  0  0  0
    7.7167   -2.3042    0.0000 O   0  0  0  0  0  0  0  0  0  0  0  0
   10.0167   -2.7417    0.0000 C   0  0  0  0  0  0  0  0  0  0  0  0
    9.5375   -4.0000    0.0000 C   0  0  0  0  0  0  0  0  0  0  0  0
   10.2292   -3.5417    0.0000 C   0  0  0  0  0  0  0  0  0  0  0  0
    5.1000   -3.7500    0.0000 C   0  0  0  0  0  0  0  0  0  0  0  0
    5.6375   -2.1792    0.0000 C   0  0  0  0  0  0  0  0  0  0  0  0
    6.4875   -4.1250    0.0000 C   0  0  0  0  0  0  0  0  0  0  0  0
    5.6875   -4.3292    0.0000 C   0  0  0  0  0  0  0  0  0  0  0  0
  1  2  2  0
  1  3  1  0
  2  4  1  0
  3  5  2  0
  6 11  1  0
  6  7  1  0
  2  8  1  0
  3  9  1  0
  7 10  1  0
  4 11  1  0
 10 12  1  0
  9 13  1  0
  9 14  1  0
 12 15  1  0
  7 16  2  0
 15 17  1  0
 12 18  2  0
 18 19  1  0
  4 20  1  0
  4 21  1  0
 22 23  1  0
 20 23  1  0
  5  8  1  0
 13 14  1  0
  6 22  1  0
 17 19  2  0
M  END
>  <MOLFORMULA>  (539) 
C17 H21 N3 O2 S

>  <MOLWEIGHT>  (539) 
3.314379000000000e+002

>  <IDNUMBER>  (539) 
AT-687/SK17710

>  <PRICE>  (539) 
EUR 80/10 mg

>  <Similarity score>  (539) 
0.19

$$$$

     RDKit          2D

 17 18  0  0  0  0  0  0  0  0999 V2000
    0.1375    0.9458    0.0000 C   0  0  0  0  0  0  0  0  0  0  0  0
    0.1375    0.2833    0.0000 C   0  0  0  0  0  0  0  0  0  0  0  0
   -1.0208    0.2833    0.0000 C   0  0  0  0  0  0  0  0  0  0  0  0
   -1.0208    0.9458    0.0000 C   0  0  0  0  0  0  0  0  0  0  0  0
   -0.4458   -0.0500    0.0000 S   0  0  0  0  0  0  0  0  0  0  0  0
    0.7500    1.2833    0.0000 C   0  0  0  0  0  0  0  0  0  0  0  0
   -1.6000   -0.0500    0.0000 C   0  0  0  0  0  0  0  0  0  0  0  0
    1.3542    1.6208    0.0000 N   0  0  0  0  0  0  0  0  0  0  0  0
   -1.6000    1.2708    0.0000 C   0  0  0  0  0  0  0  0  0  0  0  0
   -2.1833    0.2833    0.0000 C   0  0  0  0  0  0  0  0  0  0  0  0
   -2.7958   -0.0667    0.0000 C   0  0  0  0  0  0  0  0  0  0  0  0
    0.7500   -0.0667    0.0000 N   0  0  0  0  0  0  0  0  0  0  0  0
   -2.1833    0.9458    0.0000 C   0  0  0  0  0  0  0  0  0  0  0  0
   -3.4833   -0.3542    0.0000 C   0  0  0  0  0  0  0  0  0  0  0  0
   -3.0458    0.5208    0.0000 C   0  0  0  0  0  0  0  0  0  0  0  0
   -2.5000   -0.7375    0.0000 C   0  0  0  0  0  0  0  0  0  0  0  0
   -3.5625   -1.0542    0.0000 C   0  0  0  0  0  0  0  0  0  0  0  0
  1  2  2  0
  3  4  2  0
  1  4  1  0
  2  5  1  0
  1  6  1  0
  3  7  1  0
  6  8  3  0
  4  9  1  0
 10 13  1  0
 10 11  1  0
  2 12  1  0
  9 13  1  0
 11 14  1  0
 11 15  1  0
 11 16  1  0
 14 17  1  0
  3  5  1  0
  7 10  1  0
M  END
>  <MOLFORMULA>  (540) 
C14 H20 N2 S

>  <MOLWEIGHT>  (540) 
2.483920000000000e+002

>  <IDNUMBER>  (540) 
AT-225/JK21280

>  <PRICE>  (540) 
EUR 140/10 mg

>  <Similarity score>  (540) 
0.19

$$$$

     RDKit          2D

 23 26  0  0  0  0  0  0  0  0999 V2000
    3.6667   -1.5750    0.0000 N   0  0  0  0  0  0  0  0  0  0  0  0
    4.4500   -2.6500    0.0000 C   0  0  0  0  0  0  0  0  0  0  0  0
    2.4000   -1.9917    0.0000 C   0  0  0  0  0  0  0  0  0  0  0  0
    5.7750   -2.6500    0.0000 C   0  0  0  0  0  0  0  0  0  0  0  0
    2.4000   -3.3250    0.0000 N   0  0  0  0  0  0  0  0  0  0  0  0
    8.0000   -3.2292    0.0000 N   0  0  0  0  0  0  0  0  0  0  0  0
    3.6667   -3.7167    0.0000 O   0  0  0  0  0  0  0  0  0  0  0  0
    9.2792   -2.9042    0.0000 C   0  0  0  0  0  0  0  0  0  0  0  0
    1.3250   -1.2042    0.0000 C   0  0  0  0  0  0  0  0  0  0  0  0
    7.0500   -2.3042    0.0000 C   0  0  0  0  0  0  0  0  0  0  0  0
    0.7750   -0.0000    0.0000 C   0  0  0  0  0  0  0  0  0  0  0  0
    0.0000   -1.0667    0.0000 C   0  0  0  0  0  0  0  0  0  0  0  0
   10.8917   -1.2750    0.0000 C   0  0  0  0  0  0  0  0  0  0  0  0
   12.7250   -0.0917    0.0000 S   0  0  0  0  0  0  0  0  0  0  0  0
    9.6250   -1.6250    0.0000 C   0  0  0  0  0  0  0  0  0  0  0  0
   11.3917   -0.0292    0.0000 C   0  0  0  0  0  0  0  0  0  0  0  0
   10.2250   -3.8417    0.0000 O   0  0  0  0  0  0  0  0  0  0  0  0
   13.0667   -1.3917    0.0000 C   0  0  0  0  0  0  0  0  0  0  0  0
   11.9500   -2.1167    0.0000 C   0  0  0  0  0  0  0  0  0  0  0  0
    5.4250   -3.9417    0.0000 C   0  0  0  0  0  0  0  0  0  0  0  0
    6.2750   -1.4167    0.0000 C   0  0  0  0  0  0  0  0  0  0  0  0
    7.6500   -4.5417    0.0000 C   0  0  0  0  0  0  0  0  0  0  0  0
    6.3750   -4.8667    0.0000 C   0  0  0  0  0  0  0  0  0  0  0  0
  1  2  2  0
  1  3  1  0
  2  4  1  0
  3  5  2  0
  6 10  1  0
  2  7  1  0
  6  8  1  0
  3  9  1  0
  4 10  1  0
  9 11  1  0
  9 12  1  0
 13 15  1  0
 14 16  1  0
  8 15  1  0
 13 16  2  0
  8 17  2  0
 18 19  2  0
 13 19  1  0
  4 20  1  0
  4 21  1  0
 22 23  1  0
 20 23  1  0
  5  7  1  0
 11 12  1  0
  6 22  1  0
 14 18  1  0
M  END
>  <MOLFORMULA>  (541) 
C17 H21 N3 O2 S

>  <MOLWEIGHT>  (541) 
3.314379000000000e+002

>  <IDNUMBER>  (541) 
AT-687/PE19316

>  <PRICE>  (541) 
EUR 80/10 mg

>  <Similarity score>  (541) 
0.19

$$$$

     RDKit          2D

 23 26  0  0  0  0  0  0  0  0999 V2000
    2.2542   -2.7167    0.0000 N   0  0  0  0  0  0  0  0  0  0  0  0
    2.7500   -2.0417    0.0000 C   0  0  0  0  0  0  0  0  0  0  0  0
    1.4750   -2.4542    0.0000 C   0  0  0  0  0  0  0  0  0  0  0  0
    3.5750   -2.0417    0.0000 C   0  0  0  0  0  0  0  0  0  0  0  0
    4.9625   -1.6667    0.0000 N   0  0  0  0  0  0  0  0  0  0  0  0
    1.4750   -1.6292    0.0000 N   0  0  0  0  0  0  0  0  0  0  0  0
    5.7667   -1.8875    0.0000 C   0  0  0  0  0  0  0  0  0  0  0  0
    2.2542   -1.3792    0.0000 O   0  0  0  0  0  0  0  0  0  0  0  0
    0.8042   -2.9417    0.0000 C   0  0  0  0  0  0  0  0  0  0  0  0
    4.3792   -2.2542    0.0000 C   0  0  0  0  0  0  0  0  0  0  0  0
    0.4667   -3.7000    0.0000 C   0  0  0  0  0  0  0  0  0  0  0  0
   -0.0208   -3.0292    0.0000 C   0  0  0  0  0  0  0  0  0  0  0  0
    6.3500   -1.3042    0.0000 C   0  0  0  0  0  0  0  0  0  0  0  0
    7.1500   -1.5125    0.0000 N   0  0  0  0  0  0  0  0  0  0  0  0
    5.9792   -2.6792    0.0000 O   0  0  0  0  0  0  0  0  0  0  0  0
    4.7542   -0.8667    0.0000 C   0  0  0  0  0  0  0  0  0  0  0  0
    3.3667   -1.2417    0.0000 C   0  0  0  0  0  0  0  0  0  0  0  0
    3.8917   -2.8042    0.0000 C   0  0  0  0  0  0  0  0  0  0  0  0
    3.9500   -0.6542    0.0000 C   0  0  0  0  0  0  0  0  0  0  0  0
    7.7417   -0.9292    0.0000 C   0  0  0  0  0  0  0  0  0  0  0  0
    6.1292   -0.5000    0.0000 C   0  0  0  0  0  0  0  0  0  0  0  0
    7.5167   -0.1250    0.0000 C   0  0  0  0  0  0  0  0  0  0  0  0
    6.7250    0.0833    0.0000 C   0  0  0  0  0  0  0  0  0  0  0  0
  1  2  2  0
  1  3  1  0
  2  4  1  0
  5 10  1  0
  3  6  2  0
  5  7  1  0
  2  8  1  0
  3  9  1  0
  4 10  1  0
  9 11  1  0
  9 12  1  0
  7 13  1  0
 13 14  2  0
  7 15  2  0
 16 19  1  0
  4 17  1  0
  4 18  1  0
 17 19  1  0
 14 20  1  0
 13 21  1  0
 22 23  1  0
 21 23  2  0
  6  8  1  0
 11 12  1  0
  5 16  1  0
 20 22  2  0
M  END
>  <MOLFORMULA>  (542) 
C17 H20 N4 O2

>  <MOLWEIGHT>  (542) 
3.123710000000000e+002

>  <IDNUMBER>  (542) 
AT-687/SK17711

>  <PRICE>  (542) 
EUR 80/10 mg

>  <Similarity score>  (542) 
0.19

$$$$

     RDKit          2D

 13 14  0  0  0  0  0  0  0  0999 V2000
    0.9042    0.3458    0.0000 C   0  0  0  0  0  0  0  0  0  0  0  0
    1.1500   -0.3375    0.0000 C   0  0  0  0  0  0  0  0  0  0  0  0
    0.2000    0.3458    0.0000 C   0  0  0  0  0  0  0  0  0  0  0  0
    0.0000   -0.3375    0.0000 C   0  0  0  0  0  0  0  0  0  0  0  0
    0.5875   -0.7542    0.0000 S   0  0  0  0  0  0  0  0  0  0  0  0
    1.3292    0.9458    0.0000 C   0  0  0  0  0  0  0  0  0  0  0  0
    1.7292    1.5333    0.0000 N   0  0  0  0  0  0  0  0  0  0  0  0
   -1.1958    0.0125    0.0000 N   0  0  0  0  0  0  0  0  0  0  0  0
   -0.7125   -0.5042    0.0000 C   0  0  0  0  0  0  0  0  0  0  0  0
   -0.2958    0.8708    0.0000 C   0  0  0  0  0  0  0  0  0  0  0  0
    1.8500   -0.5667    0.0000 N   0  0  0  0  0  0  0  0  0  0  0  0
   -0.9833    0.7125    0.0000 C   0  0  0  0  0  0  0  0  0  0  0  0
   -1.8958   -0.1667    0.0000 C   0  0  0  0  0  0  0  0  0  0  0  0
  1  2  2  0
  1  3  1  0
  3  4  2  0
  2  5  1  0
  1  6  1  0
  6  7  3  0
  8 12  1  0
  4  9  1  0
  3 10  1  0
  2 11  1  0
 10 12  1  0
  8 13  1  0
  4  5  1  0
  8  9  1  0
M  END
>  <MOLFORMULA>  (543) 
C9 H11 N3 S

>  <MOLWEIGHT>  (543) 
1.932729000000000e+002

>  <IDNUMBER>  (543) 
AT-225/JK15585

>  <PRICE>  (543) 
EUR 140/10 mg

>  <Similarity score>  (543) 
0.19

$$$$

     RDKit          2D

 13 14  0  0  0  0  0  0  0  0999 V2000
    7.0667   -2.7917    0.0000 C   0  0  0  0  0  0  0  0  0  0  0  0
    7.3167   -3.5750    0.0000 C   0  0  0  0  0  0  0  0  0  0  0  0
    6.2417   -2.7917    0.0000 C   0  0  0  0  0  0  0  0  0  0  0  0
    5.9917   -3.5750    0.0000 C   0  0  0  0  0  0  0  0  0  0  0  0
    6.6625   -4.0542    0.0000 S   0  0  0  0  0  0  0  0  0  0  0  0
    7.5542   -2.1167    0.0000 C   0  0  0  0  0  0  0  0  0  0  0  0
    8.0417   -1.4500    0.0000 N   0  0  0  0  0  0  0  0  0  0  0  0
    4.6292   -3.1375    0.0000 N   0  0  0  0  0  0  0  0  0  0  0  0
    5.1875   -3.7500    0.0000 C   0  0  0  0  0  0  0  0  0  0  0  0
    5.6917   -2.1792    0.0000 C   0  0  0  0  0  0  0  0  0  0  0  0
    8.1042   -3.8292    0.0000 N   0  0  0  0  0  0  0  0  0  0  0  0
    4.8917   -2.3542    0.0000 C   0  0  0  0  0  0  0  0  0  0  0  0
    3.8167   -3.3042    0.0000 C   0  0  0  0  0  0  0  0  0  0  0  0
  1  2  2  0
  1  3  1  0
  3  4  2  0
  2  5  1  0
  1  6  1  0
  6  7  3  0
  8 12  1  0
  4  9  1  0
  3 10  1  0
  2 11  1  0
 10 12  1  0
  8 13  1  0
  4  5  1  0
  8  9  1  0
M  END
>  <MOLFORMULA>  (544) 
C9 H11 N3 S

>  <MOLWEIGHT>  (544) 
1.932729000000000e+002

>  <IDNUMBER>  (544) 
AT-687/SK15998

>  <PRICE>  (544) 
EUR 80/10 mg

>  <Similarity score>  (544) 
0.19

$$$$

     RDKit          2D

 13 14  0  0  0  0  0  0  0  0999 V2000
   -1.1750   -0.3542    0.0000 C   0  0  0  0  0  0  0  0  0  0  0  0
   -1.5833    0.5583    0.0000 C   0  0  0  0  0  0  0  0  0  0  0  0
   -0.1833   -0.2500    0.0000 C   0  0  0  0  0  0  0  0  0  0  0  0
    0.0250    0.7250    0.0000 C   0  0  0  0  0  0  0  0  0  0  0  0
   -0.8375    1.2250    0.0000 S   0  0  0  0  0  0  0  0  0  0  0  0
   -1.6750   -1.2208    0.0000 C   0  0  0  0  0  0  0  0  0  0  0  0
   -2.6750   -1.2208    0.0000 N   0  0  0  0  0  0  0  0  0  0  0  0
    1.7208    0.3667    0.0000 N   0  0  0  0  0  0  0  0  0  0  0  0
    0.9792    1.0375    0.0000 C   0  0  0  0  0  0  0  0  0  0  0  0
    0.5625   -0.9208    0.0000 C   0  0  0  0  0  0  0  0  0  0  0  0
   -2.5625    0.7667    0.0000 N   0  0  0  0  0  0  0  0  0  0  0  0
    1.5125   -0.6125    0.0000 C   0  0  0  0  0  0  0  0  0  0  0  0
    2.6708    0.6750    0.0000 C   0  0  0  0  0  0  0  0  0  0  0  0
  1  2  2  0
  1  3  1  0
  3  4  2  0
  2  5  1  0
  1  6  1  0
  6  7  3  0
  8 12  1  0
  4  9  1  0
  3 10  1  0
  2 11  1  0
 10 12  1  0
  8 13  1  0
  4  5  1  0
  8  9  1  0
M  END
>  <MOLFORMULA>  (545) 
C9 H11 N3 S

>  <MOLWEIGHT>  (545) 
1.932729000000000e+002

>  <IDNUMBER>  (545) 
AN-153/I108034

>  <PRICE>  (545) 
EUR 130/10 mg

>  <Similarity score>  (545) 
0.19

$$$$

     RDKit          2D

 19 20  0  0  0  0  0  0  0  0999 V2000
    2.3667   -5.3542    0.0000 C   0  0  0  0  0  0  0  0  0  0  0  0
    2.8542   -6.0250    0.0000 C   0  0  0  0  0  0  0  0  0  0  0  0
    1.5875   -6.4292    0.0000 C   0  0  0  0  0  0  0  0  0  0  0  0
    1.5875   -5.6042    0.0000 C   0  0  0  0  0  0  0  0  0  0  0  0
    2.3667   -6.6875    0.0000 S   0  0  0  0  0  0  0  0  0  0  0  0
   -0.5625   -6.8542    0.0000 C   0  0  0  0  0  0  0  0  0  0  0  0
    0.1542   -6.4292    0.0000 N   0  0  0  0  0  0  0  0  0  0  0  0
    0.8750   -6.8417    0.0000 C   0  0  0  0  0  0  0  0  0  0  0  0
    2.6250   -4.5667    0.0000 C   0  0  0  0  0  0  0  0  0  0  0  0
    2.8792   -3.7792    0.0000 N   0  0  0  0  0  0  0  0  0  0  0  0
    0.8750   -5.1917    0.0000 C   0  0  0  0  0  0  0  0  0  0  0  0
   -1.2833   -6.4417    0.0000 O   0  0  0  0  0  0  0  0  0  0  0  0
    0.1542   -5.6042    0.0000 C   0  0  0  0  0  0  0  0  0  0  0  0
   -0.5583   -7.6792    0.0000 O   0  0  0  0  0  0  0  0  0  0  0  0
    3.6792   -6.0292    0.0000 N   0  0  0  0  0  0  0  0  0  0  0  0
   -1.9958   -6.8542    0.0000 C   0  0  0  0  0  0  0  0  0  0  0  0
   -2.7125   -7.2792    0.0000 C   0  0  0  0  0  0  0  0  0  0  0  0
   -2.4208   -6.1417    0.0000 C   0  0  0  0  0  0  0  0  0  0  0  0
   -1.5750   -7.5750    0.0000 C   0  0  0  0  0  0  0  0  0  0  0  0
  1  2  2  0
  3  4  2  0
  1  4  1  0
  2  5  1  0
  6  7  1  0
  7 13  1  0
  3  8  1  0
  1  9  1  0
  9 10  3  0
  4 11  1  0
  6 12  1  0
 11 13  1  0
  6 14  2  0
  2 15  1  0
 12 16  1  0
 16 17  1  0
 16 18  1  0
 16 19  1  0
  3  5  1  0
  7  8  1  0
M  END
>  <MOLFORMULA>  (546) 
C13 H17 N3 O2 S

>  <MOLWEIGHT>  (546) 
2.793623000000000e+002

>  <IDNUMBER>  (546) 
AT-687/SK08594

>  <PRICE>  (546) 
EUR 80/10 mg

>  <Similarity score>  (546) 
0.18

$$$$

     RDKit          2D

 27 30  0  0  0  0  0  0  0  0999 V2000
    2.0667   -3.2000    0.0000 C   0  0  0  0  0  0  0  0  0  0  0  0
    1.3625   -2.7917    0.0000 C   0  0  0  0  0  0  0  0  0  0  0  0
    0.7417   -3.3417    0.0000 C   0  0  0  0  0  0  0  0  0  0  0  0
    1.8917   -4.0042    0.0000 C   0  0  0  0  0  0  0  0  0  0  0  0
    1.0792   -4.0917    0.0000 S   0  0  0  0  0  0  0  0  0  0  0  0
    2.7875    0.5083    0.0000 C   0  0  0  0  0  0  0  0  0  0  0  0
    2.7875   -0.3125    0.0000 C   0  0  0  0  0  0  0  0  0  0  0  0
    3.5667    0.7583    0.0000 S   0  0  0  0  0  0  0  0  0  0  0  0
    3.5667   -0.5667    0.0000 C   0  0  0  0  0  0  0  0  0  0  0  0
    4.0500    0.1000    0.0000 C   0  0  0  0  0  0  0  0  0  0  0  0
    2.0667   -0.7167    0.0000 C   0  0  0  0  0  0  0  0  0  0  0  0
    2.0667    0.9250    0.0000 N   0  0  0  0  0  0  0  0  0  0  0  0
   -0.0625   -3.1917    0.0000 C   0  0  0  0  0  0  0  0  0  0  0  0
    2.8417   -2.8667    0.0000 C   0  0  0  0  0  0  0  0  0  0  0  0
    1.3625   -1.9625    0.0000 C   0  0  0  0  0  0  0  0  0  0  0  0
    1.3625   -0.3125    0.0000 N   0  0  0  0  0  0  0  0  0  0  0  0
    3.6000   -2.5375    0.0000 N   0  0  0  0  0  0  0  0  0  0  0  0
    2.0667   -1.5417    0.0000 S   0  0  0  0  0  0  0  0  0  0  0  0
    1.3625    0.5083    0.0000 C   0  0  0  0  0  0  0  0  0  0  0  0
    2.4417   -4.6292    0.0000 N   0  0  0  0  0  0  0  0  0  0  0  0
   -0.3375   -2.4167    0.0000 O   0  0  0  0  0  0  0  0  0  0  0  0
   -0.6000   -3.8167    0.0000 O   0  0  0  0  0  0  0  0  0  0  0  0
    4.0542   -1.2375    0.0000 C   0  0  0  0  0  0  0  0  0  0  0  0
    4.8417   -0.1417    0.0000 C   0  0  0  0  0  0  0  0  0  0  0  0
    4.8417   -0.9667    0.0000 C   0  0  0  0  0  0  0  0  0  0  0  0
   -0.3250   -4.5917    0.0000 C   0  0  0  0  0  0  0  0  0  0  0  0
   -0.8583   -5.2167    0.0000 C   0  0  0  0  0  0  0  0  0  0  0  0
  1  2  1  0
  2  3  2  0
  1  4  2  0
  4  5  1  0
  6  7  1  0
  7 11  2  0
  6  8  1  0
  7  9  1  0
  9 10  2  0
 11 18  1  0
 12 19  1  0
  3 13  1  0
  1 14  1  0
  2 15  1  0
 11 16  1  0
 14 17  3  0
 15 18  1  0
 16 19  2  0
  4 20  1  0
 13 21  2  0
 13 22  1  0
  9 23  1  0
 10 24  1  0
 23 25  1  0
 22 26  1  0
 26 27  1  0
  3  5  1  0
  6 12  2  0
  8 10  1  0
 24 25  1  0
M  END
>  <MOLFORMULA>  (547) 
C18 H16 N4 O2 S3

>  <MOLWEIGHT>  (547) 
4.165484000000000e+002

>  <IDNUMBER>  (547) 
AT-687/SK06793

>  <PRICE>  (547) 
EUR 80/10 mg

>  <Similarity score>  (547) 
0.18

$$$$

     RDKit          2D

 23 26  0  0  0  0  0  0  0  0999 V2000
    1.1917   -0.2542    0.0000 N   0  0  0  0  0  0  0  0  0  0  0  0
    1.6792   -0.9292    0.0000 C   0  0  0  0  0  0  0  0  0  0  0  0
    0.4125   -0.5125    0.0000 C   0  0  0  0  0  0  0  0  0  0  0  0
    2.5042   -0.9292    0.0000 C   0  0  0  0  0  0  0  0  0  0  0  0
    3.8875   -1.2917    0.0000 N   0  0  0  0  0  0  0  0  0  0  0  0
    0.4125   -1.3417    0.0000 N   0  0  0  0  0  0  0  0  0  0  0  0
    4.6917   -1.0792    0.0000 C   0  0  0  0  0  0  0  0  0  0  0  0
    1.1917   -1.5875    0.0000 O   0  0  0  0  0  0  0  0  0  0  0  0
   -0.2500   -0.0292    0.0000 C   0  0  0  0  0  0  0  0  0  0  0  0
    3.3042   -0.7125    0.0000 C   0  0  0  0  0  0  0  0  0  0  0  0
    5.2667   -1.6667    0.0000 C   0  0  0  0  0  0  0  0  0  0  0  0
   -1.0708    0.0625    0.0000 C   0  0  0  0  0  0  0  0  0  0  0  0
   -0.5875    0.7250    0.0000 C   0  0  0  0  0  0  0  0  0  0  0  0
    5.0542   -2.4667    0.0000 N   0  0  0  0  0  0  0  0  0  0  0  0
    4.9000   -0.2875    0.0000 O   0  0  0  0  0  0  0  0  0  0  0  0
    6.6542   -2.0292    0.0000 N   0  0  0  0  0  0  0  0  0  0  0  0
    3.6792   -2.0917    0.0000 C   0  0  0  0  0  0  0  0  0  0  0  0
    2.2917   -1.7167    0.0000 C   0  0  0  0  0  0  0  0  0  0  0  0
    6.0667   -1.4542    0.0000 C   0  0  0  0  0  0  0  0  0  0  0  0
    2.8250   -0.1667    0.0000 C   0  0  0  0  0  0  0  0  0  0  0  0
    2.8792   -2.3125    0.0000 C   0  0  0  0  0  0  0  0  0  0  0  0
    5.6417   -3.0417    0.0000 C   0  0  0  0  0  0  0  0  0  0  0  0
    6.4375   -2.8375    0.0000 C   0  0  0  0  0  0  0  0  0  0  0  0
  1  2  2  0
  1  3  1  0
  2  4  1  0
  5 10  1  0
  3  6  2  0
  5  7  1  0
  2  8  1  0
  3  9  1  0
  4 10  1  0
  7 11  1  0
  9 12  1  0
  9 13  1  0
 11 14  2  0
  7 15  2  0
 16 19  2  0
 17 21  1  0
  4 18  1  0
 11 19  1  0
  4 20  1  0
 18 21  1  0
 14 22  1  0
 16 23  1  0
  6  8  1  0
 12 13  1  0
  5 17  1  0
 22 23  2  0
M  END
>  <MOLFORMULA>  (548) 
C16 H19 N5 O2

>  <MOLWEIGHT>  (548) 
3.133591000000000e+002

>  <IDNUMBER>  (548) 
AT-687/SK17712

>  <PRICE>  (548) 
EUR 80/10 mg

>  <Similarity score>  (548) 
0.18

$$$$

     RDKit          2D

 27 30  0  0  0  0  0  0  0  0999 V2000
    2.6125    1.3000    0.0000 C   0  0  0  0  0  0  0  0  0  0  0  0
    3.6083    1.4042    0.0000 C   0  0  0  0  0  0  0  0  0  0  0  0
    2.2083    2.2167    0.0000 S   0  0  0  0  0  0  0  0  0  0  0  0
    3.8167    2.3833    0.0000 C   0  0  0  0  0  0  0  0  0  0  0  0
   -0.8875   -1.2958    0.0000 C   0  0  0  0  0  0  0  0  0  0  0  0
   -1.8792   -1.4000    0.0000 N   0  0  0  0  0  0  0  0  0  0  0  0
    2.9500    2.8833    0.0000 C   0  0  0  0  0  0  0  0  0  0  0  0
   -0.4792   -2.2125    0.0000 N   0  0  0  0  0  0  0  0  0  0  0  0
    2.1125    0.4333    0.0000 N   0  0  0  0  0  0  0  0  0  0  0  0
   -2.0875   -2.3792    0.0000 C   0  0  0  0  0  0  0  0  0  0  0  0
    4.2792    0.6625    0.0000 C   0  0  0  0  0  0  0  0  0  0  0  0
   -1.2208   -2.8792    0.0000 C   0  0  0  0  0  0  0  0  0  0  0  0
    3.9667   -0.2875    0.0000 N   0  0  0  0  0  0  0  0  0  0  0  0
    1.1125    0.4333    0.0000 C   0  0  0  0  0  0  0  0  0  0  0  0
   -2.9542   -2.8792    0.0000 C   0  0  0  0  0  0  0  0  0  0  0  0
   -0.3875   -0.4292    0.0000 S   0  0  0  0  0  0  0  0  0  0  0  0
    0.6125    1.3000    0.0000 O   0  0  0  0  0  0  0  0  0  0  0  0
   -1.2208   -3.8792    0.0000 C   0  0  0  0  0  0  0  0  0  0  0  0
    0.6125   -0.4292    0.0000 C   0  0  0  0  0  0  0  0  0  0  0  0
   -2.9542   -3.8792    0.0000 C   0  0  0  0  0  0  0  0  0  0  0  0
   -2.0875   -4.3792    0.0000 C   0  0  0  0  0  0  0  0  0  0  0  0
    4.6833    2.8833    0.0000 C   0  0  0  0  0  0  0  0  0  0  0  0
    2.9500    3.8833    0.0000 C   0  0  0  0  0  0  0  0  0  0  0  0
   -3.8208   -4.3792    0.0000 O   0  0  0  0  0  0  0  0  0  0  0  0
   -4.6875   -3.8792    0.0000 C   0  0  0  0  0  0  0  0  0  0  0  0
    4.6833    3.8833    0.0000 C   0  0  0  0  0  0  0  0  0  0  0  0
    3.8167    4.3792    0.0000 C   0  0  0  0  0  0  0  0  0  0  0  0
  1  2  2  0
  1  3  1  0
  2  4  1  0
  5 16  1  0
  5  6  2  0
  3  7  1  0
  5  8  1  0
  1  9  1  0
  6 10  1  0
  2 11  1  0
  8 12  1  0
 11 13  3  0
  9 14  1  0
 10 15  1  0
 16 19  1  0
 14 17  2  0
 12 18  1  0
 14 19  1  0
 15 20  2  0
 18 21  2  0
  4 22  1  0
  7 23  1  0
 20 24  1  0
 24 25  1  0
 22 26  1  0
 23 27  1  0
  4  7  2  0
 26 27  1  0
 10 12  2  0
 20 21  1  0
M  END
>  <MOLFORMULA>  (549) 
C19 H18 N4 O2 S2

>  <MOLWEIGHT>  (549) 
3.985092000000000e+002

>  <IDNUMBER>  (549) 
AN-153/I137971

>  <PRICE>  (549) 
EUR 130/10 mg

>  <Similarity score>  (549) 
0.18

$$$$

     RDKit          2D

 12 13  0  0  0  0  0  0  0  0999 V2000
    2.1125   -2.4125    0.0000 C   0  0  0  0  0  0  0  0  0  0  0  0
    1.3292   -1.3292    0.0000 C   0  0  0  0  0  0  0  0  0  0  0  0
    3.3667   -1.9917    0.0000 C   0  0  0  0  0  0  0  0  0  0  0  0
    2.1125   -0.2542    0.0000 S   0  0  0  0  0  0  0  0  0  0  0  0
    3.3667   -0.6625    0.0000 C   0  0  0  0  0  0  0  0  0  0  0  0
    1.6917   -3.6792    0.0000 C   0  0  0  0  0  0  0  0  0  0  0  0
    1.2875   -4.9375    0.0000 N   0  0  0  0  0  0  0  0  0  0  0  0
    5.6792   -0.6625    0.0000 N   0  0  0  0  0  0  0  0  0  0  0  0
    0.0000   -1.3292    0.0000 N   0  0  0  0  0  0  0  0  0  0  0  0
    4.5292   -0.0000    0.0000 C   0  0  0  0  0  0  0  0  0  0  0  0
    4.5292   -2.6542    0.0000 C   0  0  0  0  0  0  0  0  0  0  0  0
    5.6792   -1.9917    0.0000 C   0  0  0  0  0  0  0  0  0  0  0  0
  1  2  2  0
  1  3  1  0
  2  4  1  0
  3  5  2  0
  1  6  1  0
  6  7  3  0
  8 12  1  0
  2  9  1  0
  5 10  1  0
  3 11  1  0
 11 12  1  0
  4  5  1  0
  8 10  1  0
M  END
>  <MOLFORMULA>  (550) 
C8 H9 N3 S

>  <MOLWEIGHT>  (550) 
1.792461000000000e+002

>  <IDNUMBER>  (550) 
AT-687/SK11951

>  <PRICE>  (550) 
EUR 80/10 mg

>  <Similarity score>  (550) 
0.18

$$$$

     RDKit          2D

 25 28  0  0  0  0  0  0  0  0999 V2000
    3.6500   -3.3000    0.0000 N   0  0  0  0  0  0  0  0  0  0  0  0
    4.4417   -2.2250    0.0000 C   0  0  0  0  0  0  0  0  0  0  0  0
    2.3917   -2.8792    0.0000 C   0  0  0  0  0  0  0  0  0  0  0  0
    5.7750   -2.2250    0.0000 C   0  0  0  0  0  0  0  0  0  0  0  0
    2.3917   -1.5500    0.0000 N   0  0  0  0  0  0  0  0  0  0  0  0
    8.0000   -1.6167    0.0000 N   0  0  0  0  0  0  0  0  0  0  0  0
    3.6500   -1.1417    0.0000 O   0  0  0  0  0  0  0  0  0  0  0  0
    1.3042   -3.6667    0.0000 C   0  0  0  0  0  0  0  0  0  0  0  0
    9.2750   -1.9667    0.0000 C   0  0  0  0  0  0  0  0  0  0  0  0
    7.0542   -2.5542    0.0000 C   0  0  0  0  0  0  0  0  0  0  0  0
    0.7750   -4.8750    0.0000 C   0  0  0  0  0  0  0  0  0  0  0  0
    0.0000   -3.8000    0.0000 C   0  0  0  0  0  0  0  0  0  0  0  0
   10.2292   -1.0250    0.0000 O   0  0  0  0  0  0  0  0  0  0  0  0
    9.6250   -3.2500    0.0000 C   0  0  0  0  0  0  0  0  0  0  0  0
    5.4292   -0.9292    0.0000 C   0  0  0  0  0  0  0  0  0  0  0  0
    6.2917   -3.4500    0.0000 C   0  0  0  0  0  0  0  0  0  0  0  0
    7.6500   -0.3417    0.0000 C   0  0  0  0  0  0  0  0  0  0  0  0
   10.8917   -3.6000    0.0000 C   0  0  0  0  0  0  0  0  0  0  0  0
   11.2667   -4.8750    0.0000 C   0  0  0  0  0  0  0  0  0  0  0  0
    6.3667   -0.0000    0.0000 C   0  0  0  0  0  0  0  0  0  0  0  0
   12.5417   -5.2250    0.0000 C   0  0  0  0  0  0  0  0  0  0  0  0
   10.3250   -5.8292    0.0000 C   0  0  0  0  0  0  0  0  0  0  0  0
   10.6542   -7.1167    0.0000 C   0  0  0  0  0  0  0  0  0  0  0  0
   12.8917   -6.5000    0.0000 C   0  0  0  0  0  0  0  0  0  0  0  0
   11.9500   -7.4542    0.0000 C   0  0  0  0  0  0  0  0  0  0  0  0
  1  2  2  0
  1  3  1  0
  2  4  1  0
  3  5  2  0
  6 10  1  0
  2  7  1  0
  3  8  1  0
  6  9  1  0
  4 10  1  0
  8 11  1  0
  8 12  1  0
  9 13  2  0
  9 14  1  0
  4 15  1  0
  4 16  1  0
 17 20  1  0
 14 18  1  0
 18 19  1  0
 15 20  1  0
 19 21  2  0
 19 22  1  0
 22 23  2  0
 21 24  1  0
 23 25  1  0
  5  7  1  0
 11 12  1  0
  6 17  1  0
 24 25  2  0
M  END
>  <MOLFORMULA>  (551) 
C20 H25 N3 O2

>  <MOLWEIGHT>  (551) 
3.394365000000000e+002

>  <IDNUMBER>  (551) 
AT-687/PE19321

>  <PRICE>  (551) 
EUR 80/10 mg

>  <Similarity score>  (551) 
0.18

$$$$

     RDKit          2D

 26 30  0  0  0  0  0  0  0  0999 V2000
    4.2667   -1.3542    0.0000 N   0  0  0  0  0  0  0  0  0  0  0  0
    4.7500   -2.0125    0.0000 C   0  0  0  0  0  0  0  0  0  0  0  0
    3.4792   -1.6000    0.0000 C   0  0  0  0  0  0  0  0  0  0  0  0
    5.5750   -2.0125    0.0000 C   0  0  0  0  0  0  0  0  0  0  0  0
    6.9542   -2.3792    0.0000 N   0  0  0  0  0  0  0  0  0  0  0  0
    3.4792   -2.4250    0.0000 N   0  0  0  0  0  0  0  0  0  0  0  0
    7.7542   -2.1792    0.0000 C   0  0  0  0  0  0  0  0  0  0  0  0
    4.2667   -2.6792    0.0000 O   0  0  0  0  0  0  0  0  0  0  0  0
    2.8125   -1.1167    0.0000 C   0  0  0  0  0  0  0  0  0  0  0  0
    6.3667   -1.8042    0.0000 C   0  0  0  0  0  0  0  0  0  0  0  0
    8.3417   -2.7542    0.0000 C   0  0  0  0  0  0  0  0  0  0  0  0
    1.9875   -1.0292    0.0000 C   0  0  0  0  0  0  0  0  0  0  0  0
    2.4792   -0.3625    0.0000 C   0  0  0  0  0  0  0  0  0  0  0  0
    8.7125   -4.1292    0.0000 C   0  0  0  0  0  0  0  0  0  0  0  0
    8.1250   -3.5500    0.0000 C   0  0  0  0  0  0  0  0  0  0  0  0
    9.9500   -4.6125    0.0000 N   0  0  0  0  0  0  0  0  0  0  0  0
    9.5042   -3.9167    0.0000 C   0  0  0  0  0  0  0  0  0  0  0  0
    9.4292   -5.2542    0.0000 C   0  0  0  0  0  0  0  0  0  0  0  0
    7.9667   -1.3667    0.0000 O   0  0  0  0  0  0  0  0  0  0  0  0
    8.6542   -4.9625    0.0000 C   0  0  0  0  0  0  0  0  0  0  0  0
    9.1292   -2.5417    0.0000 C   0  0  0  0  0  0  0  0  0  0  0  0
    9.7167   -3.1250    0.0000 C   0  0  0  0  0  0  0  0  0  0  0  0
    6.7417   -3.1792    0.0000 C   0  0  0  0  0  0  0  0  0  0  0  0
    5.3542   -2.8125    0.0000 C   0  0  0  0  0  0  0  0  0  0  0  0
    5.8917   -1.2500    0.0000 C   0  0  0  0  0  0  0  0  0  0  0  0
    5.9417   -3.3917    0.0000 C   0  0  0  0  0  0  0  0  0  0  0  0
  1  2  2  0
  1  3  1  0
  2  4  1  0
  5 10  1  0
  3  6  2  0
  5  7  1  0
  2  8  1  0
  3  9  1  0
  4 10  1  0
  7 11  1  0
  9 12  1  0
  9 13  1  0
 14 15  2  0
 11 15  1  0
 16 17  1  0
 17 22  2  0
 18 20  2  0
  7 19  2  0
 14 20  1  0
 11 21  2  0
 21 22  1  0
 23 26  1  0
  4 24  1  0
  4 25  1  0
 24 26  1  0
  6  8  1  0
 12 13  1  0
  5 23  1  0
 14 17  1  0
 16 18  1  0
M  END
>  <MOLFORMULA>  (552) 
C20 H22 N4 O2

>  <MOLWEIGHT>  (552) 
3.504198000000000e+002

>  <IDNUMBER>  (552) 
AT-687/SK17713

>  <PRICE>  (552) 
EUR 80/10 mg

>  <Similarity score>  (552) 
0.18

$$$$

     RDKit          2D

 22 25  0  0  0  0  0  0  0  0999 V2000
    4.4792   -1.9292    0.0000 N   0  0  0  0  0  0  0  0  0  0  0  0
    4.9667   -2.6042    0.0000 C   0  0  0  0  0  0  0  0  0  0  0  0
    3.7000   -2.1917    0.0000 C   0  0  0  0  0  0  0  0  0  0  0  0
    5.7917   -2.6042    0.0000 C   0  0  0  0  0  0  0  0  0  0  0  0
    7.1667   -2.9750    0.0000 N   0  0  0  0  0  0  0  0  0  0  0  0
    3.7000   -3.0167    0.0000 N   0  0  0  0  0  0  0  0  0  0  0  0
    7.9667   -2.7542    0.0000 C   0  0  0  0  0  0  0  0  0  0  0  0
    8.5417   -3.3417    0.0000 C   0  0  0  0  0  0  0  0  0  0  0  0
    4.4792   -3.2667    0.0000 O   0  0  0  0  0  0  0  0  0  0  0  0
    3.0292   -1.7042    0.0000 C   0  0  0  0  0  0  0  0  0  0  0  0
    6.5875   -2.3875    0.0000 C   0  0  0  0  0  0  0  0  0  0  0  0
    2.2042   -1.6167    0.0000 C   0  0  0  0  0  0  0  0  0  0  0  0
    2.6875   -0.9542    0.0000 C   0  0  0  0  0  0  0  0  0  0  0  0
    9.1542   -4.5292    0.0000 S   0  0  0  0  0  0  0  0  0  0  0  0
    8.4250   -4.1542    0.0000 C   0  0  0  0  0  0  0  0  0  0  0  0
    9.3625   -3.2125    0.0000 C   0  0  0  0  0  0  0  0  0  0  0  0
    8.1792   -1.9667    0.0000 O   0  0  0  0  0  0  0  0  0  0  0  0
    9.7417   -3.9542    0.0000 C   0  0  0  0  0  0  0  0  0  0  0  0
    6.9542   -3.7667    0.0000 C   0  0  0  0  0  0  0  0  0  0  0  0
    5.5750   -3.4000    0.0000 C   0  0  0  0  0  0  0  0  0  0  0  0
    6.1042   -1.8417    0.0000 C   0  0  0  0  0  0  0  0  0  0  0  0
    6.1625   -3.9875    0.0000 C   0  0  0  0  0  0  0  0  0  0  0  0
  1  2  2  0
  1  3  1  0
  2  4  1  0
  5 11  1  0
  3  6  2  0
  5  7  1  0
  7  8  1  0
  2  9  1  0
  3 10  1  0
  4 11  1  0
 10 12  1  0
 10 13  1  0
 14 15  1  0
  8 15  2  0
  8 16  1  0
  7 17  2  0
 16 18  2  0
 19 22  1  0
  4 20  1  0
  4 21  1  0
 20 22  1  0
  6  9  1  0
 12 13  1  0
  5 19  1  0
 14 18  1  0
M  END
>  <MOLFORMULA>  (553) 
C16 H19 N3 O2 S

>  <MOLWEIGHT>  (553) 
3.174111000000000e+002

>  <IDNUMBER>  (553) 
AT-687/SK17714

>  <PRICE>  (553) 
EUR 80/10 mg

>  <Similarity score>  (553) 
0.18

$$$$

     RDKit          2D

 23 26  0  0  0  0  0  0  0  0999 V2000
    4.0125   -3.3417    0.0000 N   0  0  0  0  0  0  0  0  0  0  0  0
    4.5000   -2.6750    0.0000 C   0  0  0  0  0  0  0  0  0  0  0  0
    3.2292   -3.0875    0.0000 C   0  0  0  0  0  0  0  0  0  0  0  0
    5.3250   -2.6750    0.0000 C   0  0  0  0  0  0  0  0  0  0  0  0
    3.2292   -2.2625    0.0000 N   0  0  0  0  0  0  0  0  0  0  0  0
    6.7042   -2.3125    0.0000 N   0  0  0  0  0  0  0  0  0  0  0  0
    4.0125   -2.0125    0.0000 O   0  0  0  0  0  0  0  0  0  0  0  0
    7.5000   -2.5167    0.0000 C   0  0  0  0  0  0  0  0  0  0  0  0
    2.5542   -3.5667    0.0000 C   0  0  0  0  0  0  0  0  0  0  0  0
    6.1167   -2.8917    0.0000 C   0  0  0  0  0  0  0  0  0  0  0  0
    8.8792   -2.1500    0.0000 N   0  0  0  0  0  0  0  0  0  0  0  0
   10.0042   -2.8792    0.0000 N   0  0  0  0  0  0  0  0  0  0  0  0
    2.2292   -4.3167    0.0000 C   0  0  0  0  0  0  0  0  0  0  0  0
    1.7292   -3.6667    0.0000 C   0  0  0  0  0  0  0  0  0  0  0  0
    9.1792   -2.9167    0.0000 C   0  0  0  0  0  0  0  0  0  0  0  0
    8.0875   -1.9375    0.0000 C   0  0  0  0  0  0  0  0  0  0  0  0
   10.2167   -2.0792    0.0000 C   0  0  0  0  0  0  0  0  0  0  0  0
    9.5167   -1.6292    0.0000 C   0  0  0  0  0  0  0  0  0  0  0  0
    7.7167   -3.3125    0.0000 O   0  0  0  0  0  0  0  0  0  0  0  0
    5.1042   -1.8792    0.0000 C   0  0  0  0  0  0  0  0  0  0  0  0
    5.6417   -3.4375    0.0000 C   0  0  0  0  0  0  0  0  0  0  0  0
    6.4875   -1.5042    0.0000 C   0  0  0  0  0  0  0  0  0  0  0  0
    5.6917   -1.3000    0.0000 C   0  0  0  0  0  0  0  0  0  0  0  0
  1  2  2  0
  1  3  1  0
  2  4  1  0
  3  5  2  0
  6 10  1  0
  2  7  1  0
  6  8  1  0
  3  9  1  0
  4 10  1  0
 11 16  1  0
 12 15  2  0
  9 13  1  0
  9 14  1  0
 11 15  1  0
  8 16  1  0
 17 18  2  0
 11 18  1  0
  8 19  2  0
  4 20  1  0
  4 21  1  0
 22 23  1  0
 20 23  1  0
  5  7  1  0
 13 14  1  0
  6 22  1  0
 12 17  1  0
M  END
>  <MOLFORMULA>  (554) 
C16 H21 N5 O2

>  <MOLWEIGHT>  (554) 
3.153749000000000e+002

>  <IDNUMBER>  (554) 
AT-687/SK17717

>  <PRICE>  (554) 
EUR 80/10 mg

>  <Similarity score>  (554) 
0.18

$$$$

     RDKit          2D

 15 16  0  0  0  0  0  0  0  0999 V2000
    1.4250    0.4667    0.0000 C   0  0  0  0  0  0  0  0  0  0  0  0
    2.0000   -0.3583    0.0000 C   0  0  0  0  0  0  0  0  0  0  0  0
    0.4750   -0.8333    0.0000 C   0  0  0  0  0  0  0  0  0  0  0  0
    0.4750    0.1667    0.0000 C   0  0  0  0  0  0  0  0  0  0  0  0
    1.4250   -1.1333    0.0000 S   0  0  0  0  0  0  0  0  0  0  0  0
   -1.2500   -0.8333    0.0000 N   0  0  0  0  0  0  0  0  0  0  0  0
   -0.3750   -1.3333    0.0000 C   0  0  0  0  0  0  0  0  0  0  0  0
    1.7750    1.4167    0.0000 C   0  0  0  0  0  0  0  0  0  0  0  0
    2.1208    2.3625    0.0000 N   0  0  0  0  0  0  0  0  0  0  0  0
   -0.3750    0.6625    0.0000 C   0  0  0  0  0  0  0  0  0  0  0  0
   -1.2500    0.1667    0.0000 C   0  0  0  0  0  0  0  0  0  0  0  0
    2.9958   -0.3583    0.0000 N   0  0  0  0  0  0  0  0  0  0  0  0
   -2.1500   -1.3583    0.0000 C   0  0  0  0  0  0  0  0  0  0  0  0
   -3.0000   -0.8583    0.0000 C   0  0  0  0  0  0  0  0  0  0  0  0
   -2.1500   -2.3583    0.0000 C   0  0  0  0  0  0  0  0  0  0  0  0
  1  2  2  0
  3  4  2  0
  1  4  1  0
  2  5  1  0
  6 11  1  0
  3  7  1  0
  1  8  1  0
  8  9  3  0
  4 10  1  0
 10 11  1  0
  2 12  1  0
  6 13  1  0
 13 14  1  0
 13 15  1  0
  3  5  1  0
  6  7  1  0
M  END
>  <MOLFORMULA>  (555) 
C11 H15 N3 S

>  <MOLWEIGHT>  (555) 
2.213265000000000e+002

>  <IDNUMBER>  (555) 
AN-153/PE00329

>  <PRICE>  (555) 
EUR 130/10 mg

>  <Similarity score>  (555) 
0.18

$$$$

     RDKit          2D

 26 30  0  0  0  0  0  0  0  0999 V2000
    7.9250   -3.3417    0.0000 C   0  0  0  0  0  0  0  0  0  0  0  0
    3.8500   -1.9292    0.0000 N   0  0  0  0  0  0  0  0  0  0  0  0
    7.7917   -4.1542    0.0000 N   0  0  0  0  0  0  0  0  0  0  0  0
    7.3375   -2.7542    0.0000 C   0  0  0  0  0  0  0  0  0  0  0  0
    8.7375   -3.2125    0.0000 C   0  0  0  0  0  0  0  0  0  0  0  0
    4.3292   -2.6042    0.0000 C   0  0  0  0  0  0  0  0  0  0  0  0
    3.0667   -2.1917    0.0000 C   0  0  0  0  0  0  0  0  0  0  0  0
    6.5417   -2.9750    0.0000 N   0  0  0  0  0  0  0  0  0  0  0  0
    5.1542   -2.6042    0.0000 C   0  0  0  0  0  0  0  0  0  0  0  0
    3.0667   -3.0167    0.0000 N   0  0  0  0  0  0  0  0  0  0  0  0
    8.5167   -4.5292    0.0000 N   0  0  0  0  0  0  0  0  0  0  0  0
    3.8500   -3.2667    0.0000 O   0  0  0  0  0  0  0  0  0  0  0  0
    9.1042   -3.9542    0.0000 C   0  0  0  0  0  0  0  0  0  0  0  0
    2.3917   -1.7042    0.0000 C   0  0  0  0  0  0  0  0  0  0  0  0
    5.9542   -2.3875    0.0000 C   0  0  0  0  0  0  0  0  0  0  0  0
    1.5667   -1.6167    0.0000 C   0  0  0  0  0  0  0  0  0  0  0  0
    2.0667   -0.9542    0.0000 C   0  0  0  0  0  0  0  0  0  0  0  0
    7.5542   -1.9667    0.0000 O   0  0  0  0  0  0  0  0  0  0  0  0
    6.3250   -3.7667    0.0000 C   0  0  0  0  0  0  0  0  0  0  0  0
    4.9417   -3.4000    0.0000 C   0  0  0  0  0  0  0  0  0  0  0  0
    9.1792   -2.5167    0.0000 C   0  0  0  0  0  0  0  0  0  0  0  0
    5.4792   -1.8417    0.0000 C   0  0  0  0  0  0  0  0  0  0  0  0
    9.9292   -3.9917    0.0000 C   0  0  0  0  0  0  0  0  0  0  0  0
    5.5292   -3.9875    0.0000 C   0  0  0  0  0  0  0  0  0  0  0  0
   10.0042   -2.5625    0.0000 C   0  0  0  0  0  0  0  0  0  0  0  0
   10.3792   -3.3042    0.0000 C   0  0  0  0  0  0  0  0  0  0  0  0
  2  6  2  0
  1  3  2  0
  1  4  1  0
  1  5  1  0
  6  9  1  0
  2  7  1  0
  4  8  1  0
  9 15  1  0
 10 12  1  0
  3 11  1  0
  6 12  1  0
  5 13  2  0
  7 14  1  0
  8 15  1  0
 14 16  1  0
 14 17  1  0
  4 18  2  0
  8 19  1  0
 20 24  1  0
  5 21  1  0
  9 22  1  0
 13 23  1  0
 19 24  1  0
 21 25  1  0
 25 26  1  0
 11 13  1  0
 23 26  1  0
  9 20  1  0
  7 10  2  0
 16 17  1  0
M  END
>  <MOLFORMULA>  (556) 
C19 H25 N5 O2

>  <MOLWEIGHT>  (556) 
3.554395000000000e+002

>  <IDNUMBER>  (556) 
AT-687/SK17716

>  <PRICE>  (556) 
EUR 80/10 mg

>  <Similarity score>  (556) 
0.18

$$$$

     RDKit          2D

 31 34  0  0  0  0  0  0  0  0999 V2000
   11.3875   -4.8167    0.0000 C   0  0  0  0  0  0  0  0  0  0  0  0
   12.0542   -5.3042    0.0000 C   0  0  0  0  0  0  0  0  0  0  0  0
    7.1375   -3.9792    0.0000 N   0  0  0  0  0  0  0  0  0  0  0  0
   11.6417   -4.0375    0.0000 S   0  0  0  0  0  0  0  0  0  0  0  0
    6.4667   -4.4667    0.0000 C   0  0  0  0  0  0  0  0  0  0  0  0
   12.7292   -4.8292    0.0000 C   0  0  0  0  0  0  0  0  0  0  0  0
    6.7167   -5.2542    0.0000 N   0  0  0  0  0  0  0  0  0  0  0  0
   12.4667   -4.0292    0.0000 C   0  0  0  0  0  0  0  0  0  0  0  0
    7.8042   -4.4667    0.0000 C   0  0  0  0  0  0  0  0  0  0  0  0
    7.5500   -5.2542    0.0000 N   0  0  0  0  0  0  0  0  0  0  0  0
   10.6042   -5.0667    0.0000 N   0  0  0  0  0  0  0  0  0  0  0  0
    5.6792   -4.2125    0.0000 C   0  0  0  0  0  0  0  0  0  0  0  0
   12.0542   -6.1292    0.0000 C   0  0  0  0  0  0  0  0  0  0  0  0
   11.3417   -6.5417    0.0000 N   0  0  0  0  0  0  0  0  0  0  0  0
    9.9917   -4.5167    0.0000 C   0  0  0  0  0  0  0  0  0  0  0  0
    8.5917   -4.2167    0.0000 S   0  0  0  0  0  0  0  0  0  0  0  0
    5.5042   -3.4000    0.0000 C   0  0  0  0  0  0  0  0  0  0  0  0
    5.0667   -4.7625    0.0000 C   0  0  0  0  0  0  0  0  0  0  0  0
    4.1000   -3.6917    0.0000 C   0  0  0  0  0  0  0  0  0  0  0  0
    4.2792   -4.5042    0.0000 C   0  0  0  0  0  0  0  0  0  0  0  0
    4.7167   -3.1417    0.0000 C   0  0  0  0  0  0  0  0  0  0  0  0
   10.1667   -3.7125    0.0000 O   0  0  0  0  0  0  0  0  0  0  0  0
    9.2042   -4.7667    0.0000 C   0  0  0  0  0  0  0  0  0  0  0  0
   13.5375   -5.0042    0.0000 C   0  0  0  0  0  0  0  0  0  0  0  0
   13.0292   -3.4167    0.0000 C   0  0  0  0  0  0  0  0  0  0  0  0
    3.6625   -5.0667    0.0000 O   0  0  0  0  0  0  0  0  0  0  0  0
    4.5500   -2.3292    0.0000 O   0  0  0  0  0  0  0  0  0  0  0  0
    2.8750   -4.8167    0.0000 C   0  0  0  0  0  0  0  0  0  0  0  0
    5.1625   -1.7792    0.0000 C   0  0  0  0  0  0  0  0  0  0  0  0
   14.1000   -4.3792    0.0000 C   0  0  0  0  0  0  0  0  0  0  0  0
   13.8417   -3.5917    0.0000 C   0  0  0  0  0  0  0  0  0  0  0  0
  1  2  2  0
  3  9  1  0
  1  4  1  0
  3  5  1  0
  2  6  1  0
  7 10  1  0
  4  8  1  0
  9 16  1  0
  9 10  2  0
  1 11  1  0
  5 12  1  0
  2 13  1  0
 13 14  3  0
 11 15  1  0
 16 23  1  0
 12 17  2  0
 12 18  1  0
 19 20  1  0
 18 20  2  0
 17 21  1  0
 15 22  2  0
 15 23  1  0
  6 24  1  0
  8 25  1  0
 20 26  1  0
 21 27  1  0
 26 28  1  0
 27 29  1  0
 24 30  1  0
 25 31  1  0
  6  8  2  0
 30 31  1  0
  5  7  2  0
 19 21  2  0
M  END
>  <MOLFORMULA>  (557) 
C21 H21 N5 O3 S2

>  <MOLWEIGHT>  (557) 
4.555609000000000e+002

>  <IDNUMBER>  (557) 
AM-879/J185590

>  <PRICE>  (557) 
EUR 55.00/10 mg

>  <Similarity score>  (557) 
0.18

$$$$

     RDKit          2D

 15 17  0  0  0  0  0  0  0  0999 V2000
    4.9167    1.9583    0.0000 N   0  0  0  0  0  0  0  0  0  0  0  0
    5.9917    3.0000    0.0000 C   0  0  0  0  0  0  0  0  0  0  0  0
    3.5917    2.6583    0.0000 C   0  0  0  0  0  0  0  0  0  0  0  0
    3.8500    4.1250    0.0000 N   0  0  0  0  0  0  0  0  0  0  0  0
    5.3292    4.3250    0.0000 O   0  0  0  0  0  0  0  0  0  0  0  0
    7.4750    2.7333    0.0000 C   0  0  0  0  0  0  0  0  0  0  0  0
    2.2417    2.0000    0.0000 C   0  0  0  0  0  0  0  0  0  0  0  0
    0.7500    2.1000    0.0000 C   0  0  0  0  0  0  0  0  0  0  0  0
    1.4000    0.7500    0.0000 C   0  0  0  0  0  0  0  0  0  0  0  0
   10.0667    2.7333    0.0000 N   0  0  0  0  0  0  0  0  0  0  0  0
    8.7667    1.9833    0.0000 C   0  0  0  0  0  0  0  0  0  0  0  0
    6.9500    1.3250    0.0000 C   0  0  0  0  0  0  0  0  0  0  0  0
    7.4750    4.2167    0.0000 C   0  0  0  0  0  0  0  0  0  0  0  0
   10.0667    4.2167    0.0000 C   0  0  0  0  0  0  0  0  0  0  0  0
    8.7667    4.9667    0.0000 C   0  0  0  0  0  0  0  0  0  0  0  0
  1  2  2  0
  1  3  1  0
  3  4  2  0
  2  5  1  0
  2  6  1  0
  3  7  1  0
  7  8  1  0
  7  9  1  0
 10 11  1  0
  6 11  1  0
  6 12  1  0
  6 13  1  0
 14 15  1  0
 13 15  1  0
  4  5  1  0
  8  9  1  0
 10 14  1  0
M  END
>  <MOLFORMULA>  (558) 
C11 H17 N3 O

>  <MOLWEIGHT>  (558) 
2.072753000000000e+002

>  <IDNUMBER>  (558) 
AT-687/PE34656

>  <PRICE>  (558) 
EUR 80/10 mg

>  <Similarity score>  (558) 
0.18

$$$$

     RDKit          2D

 24 27  0  0  0  0  0  0  0  0999 V2000
    4.0125   -3.3417    0.0000 N   0  0  0  0  0  0  0  0  0  0  0  0
    4.5000   -2.6750    0.0000 C   0  0  0  0  0  0  0  0  0  0  0  0
    3.2292   -3.0875    0.0000 C   0  0  0  0  0  0  0  0  0  0  0  0
    5.3250   -2.6750    0.0000 C   0  0  0  0  0  0  0  0  0  0  0  0
    3.2292   -2.2625    0.0000 N   0  0  0  0  0  0  0  0  0  0  0  0
    8.8792   -2.1500    0.0000 N   0  0  0  0  0  0  0  0  0  0  0  0
    6.7042   -2.3125    0.0000 N   0  0  0  0  0  0  0  0  0  0  0  0
    7.5000   -2.5167    0.0000 C   0  0  0  0  0  0  0  0  0  0  0  0
    4.0125   -2.0125    0.0000 O   0  0  0  0  0  0  0  0  0  0  0  0
    9.1792   -2.9167    0.0000 C   0  0  0  0  0  0  0  0  0  0  0  0
    2.5542   -3.5667    0.0000 C   0  0  0  0  0  0  0  0  0  0  0  0
   10.0042   -2.8792    0.0000 N   0  0  0  0  0  0  0  0  0  0  0  0
    6.1167   -2.8917    0.0000 C   0  0  0  0  0  0  0  0  0  0  0  0
    8.0875   -1.9375    0.0000 C   0  0  0  0  0  0  0  0  0  0  0  0
    2.2292   -4.3167    0.0000 C   0  0  0  0  0  0  0  0  0  0  0  0
    1.7292   -3.6667    0.0000 C   0  0  0  0  0  0  0  0  0  0  0  0
   10.2167   -2.0792    0.0000 C   0  0  0  0  0  0  0  0  0  0  0  0
    9.5167   -1.6292    0.0000 C   0  0  0  0  0  0  0  0  0  0  0  0
    7.7167   -3.3125    0.0000 O   0  0  0  0  0  0  0  0  0  0  0  0
    5.1042   -1.8792    0.0000 C   0  0  0  0  0  0  0  0  0  0  0  0
    5.6417   -3.4375    0.0000 C   0  0  0  0  0  0  0  0  0  0  0  0
    6.4875   -1.5042    0.0000 C   0  0  0  0  0  0  0  0  0  0  0  0
    8.7250   -3.6125    0.0000 C   0  0  0  0  0  0  0  0  0  0  0  0
    5.6917   -1.3000    0.0000 C   0  0  0  0  0  0  0  0  0  0  0  0
  1  2  2  0
  1  3  1  0
  2  4  1  0
  3  5  2  0
  6 14  1  0
  7 13  1  0
  7  8  1  0
  2  9  1  0
  6 10  1  0
  3 11  1  0
 10 12  2  0
  4 13  1  0
  8 14  1  0
 11 15  1  0
 11 16  1  0
 17 18  2  0
  6 18  1  0
  8 19  2  0
  4 20  1  0
  4 21  1  0
 22 24  1  0
 10 23  1  0
 20 24  1  0
  5  9  1  0
 15 16  1  0
  7 22  1  0
 12 17  1  0
M  END
>  <MOLFORMULA>  (559) 
C17 H23 N5 O2

>  <MOLWEIGHT>  (559) 
3.294017000000000e+002

>  <IDNUMBER>  (559) 
AT-687/SK17718

>  <PRICE>  (559) 
EUR 80/10 mg

>  <Similarity score>  (559) 
0.18

$$$$

     RDKit          2D

 25 28  0  0  0  0  0  0  0  0999 V2000
    2.7000   -0.4708    0.0000 C   0  0  0  0  0  0  0  0  0  0  0  0
    3.7000   -0.5750    0.0000 C   0  0  0  0  0  0  0  0  0  0  0  0
    2.3000   -1.3833    0.0000 S   0  0  0  0  0  0  0  0  0  0  0  0
    3.9083   -1.5500    0.0000 C   0  0  0  0  0  0  0  0  0  0  0  0
   -2.3958    2.9417    0.0000 N   0  0  0  0  0  0  0  0  0  0  0  0
    3.0458   -2.0542    0.0000 C   0  0  0  0  0  0  0  0  0  0  0  0
   -1.8125    2.1292    0.0000 C   0  0  0  0  0  0  0  0  0  0  0  0
    2.2000    0.3958    0.0000 N   0  0  0  0  0  0  0  0  0  0  0  0
   -2.3958    1.3250    0.0000 O   0  0  0  0  0  0  0  0  0  0  0  0
    4.3667    0.1708    0.0000 C   0  0  0  0  0  0  0  0  0  0  0  0
   -3.3458    2.6292    0.0000 C   0  0  0  0  0  0  0  0  0  0  0  0
    1.1958    0.3958    0.0000 C   0  0  0  0  0  0  0  0  0  0  0  0
    5.0750    0.8833    0.0000 N   0  0  0  0  0  0  0  0  0  0  0  0
   -3.3458    1.6333    0.0000 C   0  0  0  0  0  0  0  0  0  0  0  0
    0.6958    1.2625    0.0000 C   0  0  0  0  0  0  0  0  0  0  0  0
   -0.8125    2.1208    0.0000 S   0  0  0  0  0  0  0  0  0  0  0  0
    0.6917   -0.4708    0.0000 O   0  0  0  0  0  0  0  0  0  0  0  0
   -0.3125    1.2625    0.0000 C   0  0  0  0  0  0  0  0  0  0  0  0
    4.6500   -2.2167    0.0000 C   0  0  0  0  0  0  0  0  0  0  0  0
    3.2583   -3.0292    0.0000 C   0  0  0  0  0  0  0  0  0  0  0  0
    4.2500   -3.1292    0.0000 C   0  0  0  0  0  0  0  0  0  0  0  0
   -4.2083    3.1333    0.0000 C   0  0  0  0  0  0  0  0  0  0  0  0
   -4.2083    1.1333    0.0000 C   0  0  0  0  0  0  0  0  0  0  0  0
   -5.0750    1.6292    0.0000 C   0  0  0  0  0  0  0  0  0  0  0  0
   -5.0792    2.6333    0.0000 C   0  0  0  0  0  0  0  0  0  0  0  0
  1  2  2  0
  1  3  1  0
  2  4  1  0
  5  7  2  0
  3  6  1  0
  7 16  1  0
  1  8  1  0
  7  9  1  0
  2 10  1  0
  5 11  1  0
  8 12  1  0
 10 13  3  0
  9 14  1  0
 12 15  1  0
 16 18  1  0
 12 17  2  0
 15 18  1  0
  4 19  1  0
  6 20  1  0
 20 21  1  0
 11 22  1  0
 14 23  1  0
 23 24  2  0
 22 25  2  0
  4  6  2  0
 19 21  1  0
 11 14  2  0
 24 25  1  0
M  END
>  <MOLFORMULA>  (560) 
C18 H15 N3 O2 S2

>  <MOLWEIGHT>  (560) 
3.694675000000000e+002

>  <IDNUMBER>  (560) 
AN-153/NB25396

>  <PRICE>  (560) 
EUR 130/10 mg

>  <Similarity score>  (560) 
0.18

$$$$

     RDKit          2D

 26 30  0  0  0  0  0  0  0  0999 V2000
    3.6500   -4.8667    0.0000 N   0  0  0  0  0  0  0  0  0  0  0  0
    4.4417   -3.8000    0.0000 C   0  0  0  0  0  0  0  0  0  0  0  0
    2.3917   -4.4667    0.0000 C   0  0  0  0  0  0  0  0  0  0  0  0
    5.7667   -3.8000    0.0000 C   0  0  0  0  0  0  0  0  0  0  0  0
    7.9917   -3.2000    0.0000 N   0  0  0  0  0  0  0  0  0  0  0  0
    2.3917   -3.1250    0.0000 N   0  0  0  0  0  0  0  0  0  0  0  0
    9.2667   -3.5500    0.0000 C   0  0  0  0  0  0  0  0  0  0  0  0
    3.6500   -2.7250    0.0000 O   0  0  0  0  0  0  0  0  0  0  0  0
    1.3167   -5.2500    0.0000 C   0  0  0  0  0  0  0  0  0  0  0  0
    7.0500   -4.1417    0.0000 C   0  0  0  0  0  0  0  0  0  0  0  0
   10.2250   -2.6000    0.0000 C   0  0  0  0  0  0  0  0  0  0  0  0
   13.7750   -2.0750    0.0000 N   0  0  0  0  0  0  0  0  0  0  0  0
   12.4500   -2.0000    0.0000 C   0  0  0  0  0  0  0  0  0  0  0  0
   14.2417   -0.8292    0.0000 C   0  0  0  0  0  0  0  0  0  0  0  0
    0.7667   -6.4667    0.0000 C   0  0  0  0  0  0  0  0  0  0  0  0
    0.0000   -5.3750    0.0000 C   0  0  0  0  0  0  0  0  0  0  0  0
   11.5000   -2.9417    0.0000 C   0  0  0  0  0  0  0  0  0  0  0  0
   13.2167   -0.0000    0.0000 N   0  0  0  0  0  0  0  0  0  0  0  0
   12.1000   -0.7000    0.0000 C   0  0  0  0  0  0  0  0  0  0  0  0
    9.6250   -4.8417    0.0000 O   0  0  0  0  0  0  0  0  0  0  0  0
    9.8667   -1.3167    0.0000 C   0  0  0  0  0  0  0  0  0  0  0  0
   10.8250   -0.3750    0.0000 C   0  0  0  0  0  0  0  0  0  0  0  0
    7.6417   -1.9167    0.0000 C   0  0  0  0  0  0  0  0  0  0  0  0
    5.4250   -2.5000    0.0000 C   0  0  0  0  0  0  0  0  0  0  0  0
    6.2750   -5.0417    0.0000 C   0  0  0  0  0  0  0  0  0  0  0  0
    6.3667   -1.5750    0.0000 C   0  0  0  0  0  0  0  0  0  0  0  0
  1  2  2  0
  1  3  1  0
  2  4  1  0
  5 10  1  0
  3  6  2  0
  5  7  1  0
  2  8  1  0
  3  9  1  0
  4 10  1  0
  7 11  1  0
 12 13  1  0
 13 17  1  0
 12 14  2  0
  9 15  1  0
  9 16  1  0
 11 17  2  0
 18 19  1  0
 19 22  1  0
  7 20  2  0
 11 21  1  0
 21 22  2  0
 23 26  1  0
  4 24  1  0
  4 25  1  0
 24 26  1  0
  6  8  1  0
 15 16  1  0
  5 23  1  0
 13 19  2  0
 14 18  1  0
M  END
>  <MOLFORMULA>  (561) 
C19 H21 N5 O2

>  <MOLWEIGHT>  (561) 
3.514079000000000e+002

>  <IDNUMBER>  (561) 
AT-687/PE19318

>  <PRICE>  (561) 
EUR 80/10 mg

>  <Similarity score>  (561) 
0.18

$$$$

     RDKit          2D

 26 30  0  0  0  0  0  0  0  0999 V2000
    3.6667   -1.6000    0.0000 N   0  0  0  0  0  0  0  0  0  0  0  0
    4.4500   -2.6500    0.0000 C   0  0  0  0  0  0  0  0  0  0  0  0
    2.4000   -2.0000    0.0000 C   0  0  0  0  0  0  0  0  0  0  0  0
    5.7750   -2.6500    0.0000 C   0  0  0  0  0  0  0  0  0  0  0  0
    8.0000   -3.2500    0.0000 N   0  0  0  0  0  0  0  0  0  0  0  0
    2.4000   -3.3167    0.0000 N   0  0  0  0  0  0  0  0  0  0  0  0
    9.2750   -2.9167    0.0000 C   0  0  0  0  0  0  0  0  0  0  0  0
    3.6667   -3.7417    0.0000 O   0  0  0  0  0  0  0  0  0  0  0  0
    1.3250   -1.2167    0.0000 C   0  0  0  0  0  0  0  0  0  0  0  0
    7.0667   -2.3167    0.0000 C   0  0  0  0  0  0  0  0  0  0  0  0
   10.2250   -3.8500    0.0000 C   0  0  0  0  0  0  0  0  0  0  0  0
    0.0000   -1.0750    0.0000 C   0  0  0  0  0  0  0  0  0  0  0  0
    0.7917   -0.0000    0.0000 C   0  0  0  0  0  0  0  0  0  0  0  0
   10.8292   -6.0750    0.0000 C   0  0  0  0  0  0  0  0  0  0  0  0
    9.8792   -5.1250    0.0000 C   0  0  0  0  0  0  0  0  0  0  0  0
   12.1000   -5.7250    0.0000 C   0  0  0  0  0  0  0  0  0  0  0  0
   10.7417   -7.4042    0.0000 O   0  0  0  0  0  0  0  0  0  0  0  0
   12.8250   -6.8500    0.0000 O   0  0  0  0  0  0  0  0  0  0  0  0
    9.6250   -1.6250    0.0000 O   0  0  0  0  0  0  0  0  0  0  0  0
   11.9917   -7.8792    0.0000 C   0  0  0  0  0  0  0  0  0  0  0  0
   11.5167   -3.5042    0.0000 C   0  0  0  0  0  0  0  0  0  0  0  0
   12.4667   -4.4417    0.0000 C   0  0  0  0  0  0  0  0  0  0  0  0
    7.6500   -4.5500    0.0000 C   0  0  0  0  0  0  0  0  0  0  0  0
    5.4292   -3.9500    0.0000 C   0  0  0  0  0  0  0  0  0  0  0  0
    6.2917   -1.4250    0.0000 C   0  0  0  0  0  0  0  0  0  0  0  0
    6.3750   -4.8750    0.0000 C   0  0  0  0  0  0  0  0  0  0  0  0
  1  2  2  0
  1  3  1  0
  2  4  1  0
  5 10  1  0
  3  6  2  0
  5  7  1  0
  2  8  1  0
  3  9  1  0
  4 10  1  0
  7 11  1  0
  9 12  1  0
  9 13  1  0
 14 15  1  0
 11 15  2  0
 16 22  1  0
 14 17  1  0
 16 18  1  0
  7 19  2  0
 17 20  1  0
 11 21  1  0
 21 22  2  0
 23 26  1  0
  4 24  1  0
  4 25  1  0
 24 26  1  0
  6  8  1  0
 12 13  1  0
  5 23  1  0
 14 16  2  0
 18 20  1  0
M  END
>  <MOLFORMULA>  (562) 
C19 H21 N3 O4

>  <MOLWEIGHT>  (562) 
3.553919000000000e+002

>  <IDNUMBER>  (562) 
AT-687/PE19317

>  <PRICE>  (562) 
EUR 80/10 mg

>  <Similarity score>  (562) 
0.18

$$$$

     RDKit          2D

 26 29  0  0  0  0  0  0  0  0999 V2000
   -1.8125    1.9083    0.0000 C   0  0  0  0  0  0  0  0  0  0  0  0
   -2.4042    2.7167    0.0000 C   0  0  0  0  0  0  0  0  0  0  0  0
   -2.4042    1.1000    0.0000 S   0  0  0  0  0  0  0  0  0  0  0  0
   -3.3542    2.4125    0.0000 C   0  0  0  0  0  0  0  0  0  0  0  0
    2.4542   -1.5833    0.0000 N   0  0  0  0  0  0  0  0  0  0  0  0
    2.7708   -0.6375    0.0000 C   0  0  0  0  0  0  0  0  0  0  0  0
   -3.3542    1.4083    0.0000 C   0  0  0  0  0  0  0  0  0  0  0  0
   -0.8167    1.9083    0.0000 N   0  0  0  0  0  0  0  0  0  0  0  0
    3.7708   -0.6417    0.0000 O   0  0  0  0  0  0  0  0  0  0  0  0
   -1.9042    3.5875    0.0000 C   0  0  0  0  0  0  0  0  0  0  0  0
    3.2625   -2.1750    0.0000 C   0  0  0  0  0  0  0  0  0  0  0  0
   -0.3125    1.0458    0.0000 C   0  0  0  0  0  0  0  0  0  0  0  0
   -0.9000    3.5875    0.0000 N   0  0  0  0  0  0  0  0  0  0  0  0
    4.0708   -1.5958    0.0000 C   0  0  0  0  0  0  0  0  0  0  0  0
    0.6875    1.0458    0.0000 C   0  0  0  0  0  0  0  0  0  0  0  0
    2.1875    0.1792    0.0000 S   0  0  0  0  0  0  0  0  0  0  0  0
   -0.8167    0.1792    0.0000 O   0  0  0  0  0  0  0  0  0  0  0  0
    1.1833    0.1792    0.0000 C   0  0  0  0  0  0  0  0  0  0  0  0
   -4.2167    2.9083    0.0000 C   0  0  0  0  0  0  0  0  0  0  0  0
   -4.2167    0.9083    0.0000 C   0  0  0  0  0  0  0  0  0  0  0  0
    3.3583   -3.1667    0.0000 C   0  0  0  0  0  0  0  0  0  0  0  0
    4.9833   -2.0042    0.0000 C   0  0  0  0  0  0  0  0  0  0  0  0
   -5.0833    2.4125    0.0000 C   0  0  0  0  0  0  0  0  0  0  0  0
   -5.0833    1.4083    0.0000 C   0  0  0  0  0  0  0  0  0  0  0  0
    5.0792   -3.0000    0.0000 C   0  0  0  0  0  0  0  0  0  0  0  0
    4.2708   -3.5833    0.0000 C   0  0  0  0  0  0  0  0  0  0  0  0
  1  2  2  0
  1  3  1  0
  2  4  1  0
  5  6  2  0
  6 16  1  0
  3  7  1  0
  1  8  1  0
  6  9  1  0
  2 10  1  0
  5 11  1  0
  8 12  1  0
 10 13  3  0
  9 14  1  0
 12 15  1  0
 16 18  1  0
 12 17  2  0
 15 18  1  0
  4 19  1  0
  7 20  1  0
 11 21  1  0
 14 22  1  0
 19 23  1  0
 20 24  1  0
 22 25  2  0
 21 26  2  0
  4  7  2  0
 23 24  1  0
 11 14  2  0
 25 26  1  0
M  END
>  <MOLFORMULA>  (563) 
C19 H17 N3 O2 S2

>  <MOLWEIGHT>  (563) 
3.834943000000000e+002

>  <IDNUMBER>  (563) 
AN-153/NB15616

>  <PRICE>  (563) 
EUR 130/10 mg

>  <Similarity score>  (563) 
0.18

$$$$

     RDKit          2D

 25 29  0  0  0  0  0  0  0  0999 V2000
   10.2167   -4.4667    0.0000 C   0  0  0  0  0  0  0  0  0  0  0  0
    3.6667   -6.7417    0.0000 N   0  0  0  0  0  0  0  0  0  0  0  0
    4.4417   -5.6500    0.0000 C   0  0  0  0  0  0  0  0  0  0  0  0
    2.3750   -6.3250    0.0000 C   0  0  0  0  0  0  0  0  0  0  0  0
    9.2750   -5.4000    0.0000 C   0  0  0  0  0  0  0  0  0  0  0  0
    5.7750   -5.6500    0.0000 C   0  0  0  0  0  0  0  0  0  0  0  0
   10.0042   -3.1500    0.0000 C   0  0  0  0  0  0  0  0  0  0  0  0
    7.9917   -5.0667    0.0000 N   0  0  0  0  0  0  0  0  0  0  0  0
    2.3750   -4.9917    0.0000 N   0  0  0  0  0  0  0  0  0  0  0  0
   11.5250   -4.6750    0.0000 N   0  0  0  0  0  0  0  0  0  0  0  0
   12.1250   -3.4792    0.0000 N   0  0  0  0  0  0  0  0  0  0  0  0
   11.1792   -2.5500    0.0000 C   0  0  0  0  0  0  0  0  0  0  0  0
    3.6667   -4.5792    0.0000 O   0  0  0  0  0  0  0  0  0  0  0  0
    1.3250   -7.1042    0.0000 C   0  0  0  0  0  0  0  0  0  0  0  0
    7.0500   -6.0000    0.0000 C   0  0  0  0  0  0  0  0  0  0  0  0
   11.3917   -1.2167    0.0000 C   0  0  0  0  0  0  0  0  0  0  0  0
    0.0000   -7.2417    0.0000 C   0  0  0  0  0  0  0  0  0  0  0  0
    0.7750   -8.3250    0.0000 C   0  0  0  0  0  0  0  0  0  0  0  0
   10.9250   -0.0000    0.0000 C   0  0  0  0  0  0  0  0  0  0  0  0
   12.2417   -0.1917    0.0000 C   0  0  0  0  0  0  0  0  0  0  0  0
    9.6167   -6.6917    0.0000 O   0  0  0  0  0  0  0  0  0  0  0  0
    7.6500   -3.7750    0.0000 C   0  0  0  0  0  0  0  0  0  0  0  0
    5.4250   -4.3667    0.0000 C   0  0  0  0  0  0  0  0  0  0  0  0
    6.2750   -6.8917    0.0000 C   0  0  0  0  0  0  0  0  0  0  0  0
    6.3542   -3.4292    0.0000 C   0  0  0  0  0  0  0  0  0  0  0  0
  2  3  2  0
  3  6  1  0
  2  4  1  0
  1  5  1  0
  6 15  1  0
  1  7  2  0
  5  8  1  0
  9 13  1  0
  1 10  1  0
 10 11  1  0
  7 12  1  0
  3 13  1  0
  4 14  1  0
  8 15  1  0
 12 16  1  0
 14 17  1  0
 14 18  1  0
 16 19  1  0
 16 20  1  0
  5 21  2  0
  8 22  1  0
 23 25  1  0
  6 24  1  0
 22 25  1  0
 11 12  2  0
 19 20  1  0
  6 23  1  0
  4  9  2  0
 17 18  1  0
M  END
>  <MOLFORMULA>  (564) 
C18 H23 N5 O2

>  <MOLWEIGHT>  (564) 
3.414127000000000e+002

>  <IDNUMBER>  (564) 
AT-687/PE19324

>  <PRICE>  (564) 
EUR 80/10 mg

>  <Similarity score>  (564) 
0.17

$$$$

     RDKit          2D

 26 30  0  0  0  0  0  0  0  0999 V2000
   10.2250   -3.8417    0.0000 C   0  0  0  0  0  0  0  0  0  0  0  0
    3.6667   -1.5667    0.0000 N   0  0  0  0  0  0  0  0  0  0  0  0
   10.0042   -5.1417    0.0000 N   0  0  0  0  0  0  0  0  0  0  0  0
    9.2792   -2.9000    0.0000 C   0  0  0  0  0  0  0  0  0  0  0  0
    4.4500   -2.6500    0.0000 C   0  0  0  0  0  0  0  0  0  0  0  0
    2.4000   -1.9750    0.0000 C   0  0  0  0  0  0  0  0  0  0  0  0
    7.9917   -3.2417    0.0000 N   0  0  0  0  0  0  0  0  0  0  0  0
    5.7667   -2.6500    0.0000 C   0  0  0  0  0  0  0  0  0  0  0  0
    2.4000   -3.3167    0.0000 N   0  0  0  0  0  0  0  0  0  0  0  0
   11.5417   -3.6250    0.0000 C   0  0  0  0  0  0  0  0  0  0  0  0
   11.1792   -5.7500    0.0000 N   0  0  0  0  0  0  0  0  0  0  0  0
    3.6667   -3.7250    0.0000 O   0  0  0  0  0  0  0  0  0  0  0  0
    1.3250   -1.2000    0.0000 C   0  0  0  0  0  0  0  0  0  0  0  0
    7.0542   -2.2917    0.0000 C   0  0  0  0  0  0  0  0  0  0  0  0
    0.7917   -0.0000    0.0000 C   0  0  0  0  0  0  0  0  0  0  0  0
    0.0000   -1.0542    0.0000 C   0  0  0  0  0  0  0  0  0  0  0  0
   12.1417   -4.8167    0.0000 C   0  0  0  0  0  0  0  0  0  0  0  0
    9.6250   -1.6167    0.0000 O   0  0  0  0  0  0  0  0  0  0  0  0
    7.6500   -4.5167    0.0000 C   0  0  0  0  0  0  0  0  0  0  0  0
    5.4250   -3.9250    0.0000 C   0  0  0  0  0  0  0  0  0  0  0  0
    6.2917   -1.4167    0.0000 C   0  0  0  0  0  0  0  0  0  0  0  0
   12.2500   -2.5167    0.0000 C   0  0  0  0  0  0  0  0  0  0  0  0
    6.3750   -4.8750    0.0000 C   0  0  0  0  0  0  0  0  0  0  0  0
   13.4750   -4.8917    0.0000 C   0  0  0  0  0  0  0  0  0  0  0  0
   13.5792   -2.5750    0.0000 C   0  0  0  0  0  0  0  0  0  0  0  0
   14.1750   -3.7667    0.0000 C   0  0  0  0  0  0  0  0  0  0  0  0
  2  5  2  0
  1  3  2  0
  1  4  1  0
  5  8  1  0
  2  6  1  0
  4  7  1  0
  8 14  1  0
  9 12  1  0
  1 10  1  0
  3 11  1  0
  5 12  1  0
  6 13  1  0
  7 14  1  0
 13 15  1  0
 13 16  1  0
 10 17  2  0
  4 18  2  0
  7 19  1  0
 20 23  1  0
  8 21  1  0
 10 22  1  0
 19 23  1  0
 17 24  1  0
 22 25  2  0
 25 26  1  0
 11 17  1  0
 24 26  2  0
  8 20  1  0
  6  9  2  0
 15 16  1  0
M  END
>  <MOLFORMULA>  (565) 
C19 H21 N5 O2

>  <MOLWEIGHT>  (565) 
3.514079000000000e+002

>  <IDNUMBER>  (565) 
AT-687/PE19322

>  <PRICE>  (565) 
EUR 80/10 mg

>  <Similarity score>  (565) 
0.17

$$$$

     RDKit          2D

 25 28  0  0  0  0  0  0  0  0999 V2000
    3.6500   -4.1000    0.0000 N   0  0  0  0  0  0  0  0  0  0  0  0
    4.4250   -3.0250    0.0000 C   0  0  0  0  0  0  0  0  0  0  0  0
    2.4000   -3.6917    0.0000 C   0  0  0  0  0  0  0  0  0  0  0  0
   11.4917   -2.1750    0.0000 C   0  0  0  0  0  0  0  0  0  0  0  0
    5.7667   -3.0250    0.0000 C   0  0  0  0  0  0  0  0  0  0  0  0
    2.4000   -2.3500    0.0000 N   0  0  0  0  0  0  0  0  0  0  0  0
   13.6292   -2.0500    0.0000 N   0  0  0  0  0  0  0  0  0  0  0  0
    7.9917   -2.4250    0.0000 N   0  0  0  0  0  0  0  0  0  0  0  0
    9.2750   -2.7750    0.0000 C   0  0  0  0  0  0  0  0  0  0  0  0
    3.6500   -1.9500    0.0000 O   0  0  0  0  0  0  0  0  0  0  0  0
   10.2042   -1.8250    0.0000 C   0  0  0  0  0  0  0  0  0  0  0  0
   13.2917   -3.3500    0.0000 O   0  0  0  0  0  0  0  0  0  0  0  0
   11.9750   -3.4167    0.0000 C   0  0  0  0  0  0  0  0  0  0  0  0
    1.3000   -4.4667    0.0000 C   0  0  0  0  0  0  0  0  0  0  0  0
   12.5167   -1.3500    0.0000 C   0  0  0  0  0  0  0  0  0  0  0  0
    7.0292   -3.3750    0.0000 C   0  0  0  0  0  0  0  0  0  0  0  0
    0.7750   -5.6792    0.0000 C   0  0  0  0  0  0  0  0  0  0  0  0
    0.0000   -4.6000    0.0000 C   0  0  0  0  0  0  0  0  0  0  0  0
    9.6042   -4.0542    0.0000 O   0  0  0  0  0  0  0  0  0  0  0  0
    5.4042   -1.7417    0.0000 C   0  0  0  0  0  0  0  0  0  0  0  0
    6.2667   -4.2500    0.0000 C   0  0  0  0  0  0  0  0  0  0  0  0
    7.6292   -1.1417    0.0000 C   0  0  0  0  0  0  0  0  0  0  0  0
   11.2500   -4.5417    0.0000 C   0  0  0  0  0  0  0  0  0  0  0  0
    6.3667   -0.8000    0.0000 C   0  0  0  0  0  0  0  0  0  0  0  0
   12.4667   -0.0000    0.0000 C   0  0  0  0  0  0  0  0  0  0  0  0
  1  2  2  0
  1  3  1  0
  4 11  1  0
  2  5  1  0
  3  6  2  0
  7 15  2  0
  8 16  1  0
  8  9  1  0
  2 10  1  0
  9 11  1  0
 12 13  1  0
  4 13  2  0
  3 14  1  0
  4 15  1  0
  5 16  1  0
 14 17  1  0
 14 18  1  0
  9 19  2  0
  5 20  1  0
  5 21  1  0
 22 24  1  0
 13 23  1  0
 20 24  1  0
 15 25  1  0
  6 10  1  0
 17 18  1  0
  8 22  1  0
  7 12  1  0
M  END
>  <MOLFORMULA>  (566) 
C18 H24 N4 O3

>  <MOLWEIGHT>  (566) 
3.444126000000000e+002

>  <IDNUMBER>  (566) 
AT-687/PE19323

>  <PRICE>  (566) 
EUR 80/10 mg

>  <Similarity score>  (566) 
0.17

$$$$

     RDKit          2D

 22 25  0  0  0  0  0  0  0  0999 V2000
    4.4792   -1.9292    0.0000 N   0  0  0  0  0  0  0  0  0  0  0  0
    4.9667   -2.6042    0.0000 C   0  0  0  0  0  0  0  0  0  0  0  0
    3.7000   -2.1917    0.0000 C   0  0  0  0  0  0  0  0  0  0  0  0
    5.7917   -2.6042    0.0000 C   0  0  0  0  0  0  0  0  0  0  0  0
    7.1667   -2.9750    0.0000 N   0  0  0  0  0  0  0  0  0  0  0  0
    3.7000   -3.0167    0.0000 N   0  0  0  0  0  0  0  0  0  0  0  0
    7.9667   -2.7542    0.0000 C   0  0  0  0  0  0  0  0  0  0  0  0
    8.5417   -3.3417    0.0000 C   0  0  0  0  0  0  0  0  0  0  0  0
    4.4792   -3.2667    0.0000 O   0  0  0  0  0  0  0  0  0  0  0  0
    3.0292   -1.7042    0.0000 C   0  0  0  0  0  0  0  0  0  0  0  0
    6.5875   -2.3875    0.0000 C   0  0  0  0  0  0  0  0  0  0  0  0
    2.2042   -1.6167    0.0000 C   0  0  0  0  0  0  0  0  0  0  0  0
    2.6875   -0.9542    0.0000 C   0  0  0  0  0  0  0  0  0  0  0  0
    8.4250   -4.1542    0.0000 C   0  0  0  0  0  0  0  0  0  0  0  0
    9.3625   -3.2125    0.0000 C   0  0  0  0  0  0  0  0  0  0  0  0
    9.1542   -4.5292    0.0000 O   0  0  0  0  0  0  0  0  0  0  0  0
    8.1792   -1.9667    0.0000 O   0  0  0  0  0  0  0  0  0  0  0  0
    9.7417   -3.9542    0.0000 C   0  0  0  0  0  0  0  0  0  0  0  0
    6.9542   -3.7667    0.0000 C   0  0  0  0  0  0  0  0  0  0  0  0
    5.5750   -3.4000    0.0000 C   0  0  0  0  0  0  0  0  0  0  0  0
    6.1042   -1.8417    0.0000 C   0  0  0  0  0  0  0  0  0  0  0  0
    6.1625   -3.9875    0.0000 C   0  0  0  0  0  0  0  0  0  0  0  0
  1  2  2  0
  1  3  1  0
  2  4  1  0
  5 11  1  0
  3  6  2  0
  5  7  1  0
  7  8  1  0
  2  9  1  0
  3 10  1  0
  4 11  1  0
 10 12  1  0
 10 13  1  0
  8 14  2  0
  8 15  1  0
 14 16  1  0
  7 17  2  0
 15 18  2  0
 19 22  1  0
  4 20  1  0
  4 21  1  0
 20 22  1  0
  6  9  1  0
 12 13  1  0
  5 19  1  0
 16 18  1  0
M  END
>  <MOLFORMULA>  (567) 
C16 H19 N3 O3

>  <MOLWEIGHT>  (567) 
3.013441000000000e+002

>  <IDNUMBER>  (567) 
AT-687/SK17709

>  <PRICE>  (567) 
EUR 80/10 mg

>  <Similarity score>  (567) 
0.17

$$$$

     RDKit          2D

 23 26  0  0  0  0  0  0  0  0999 V2000
    4.4792   -2.0000    0.0000 N   0  0  0  0  0  0  0  0  0  0  0  0
    4.9667   -2.6667    0.0000 C   0  0  0  0  0  0  0  0  0  0  0  0
    3.7000   -2.2542    0.0000 C   0  0  0  0  0  0  0  0  0  0  0  0
    7.9667   -2.8250    0.0000 C   0  0  0  0  0  0  0  0  0  0  0  0
    7.1667   -3.0417    0.0000 N   0  0  0  0  0  0  0  0  0  0  0  0
    8.5417   -3.4125    0.0000 C   0  0  0  0  0  0  0  0  0  0  0  0
    5.7917   -2.6667    0.0000 C   0  0  0  0  0  0  0  0  0  0  0  0
    3.7000   -3.0792    0.0000 N   0  0  0  0  0  0  0  0  0  0  0  0
    4.4792   -3.3375    0.0000 O   0  0  0  0  0  0  0  0  0  0  0  0
    8.4250   -4.2250    0.0000 N   0  0  0  0  0  0  0  0  0  0  0  0
    3.0292   -1.7750    0.0000 C   0  0  0  0  0  0  0  0  0  0  0  0
    6.5875   -2.4542    0.0000 C   0  0  0  0  0  0  0  0  0  0  0  0
    2.6875   -1.0167    0.0000 C   0  0  0  0  0  0  0  0  0  0  0  0
    2.2042   -1.6875    0.0000 C   0  0  0  0  0  0  0  0  0  0  0  0
    9.3625   -3.2792    0.0000 C   0  0  0  0  0  0  0  0  0  0  0  0
    9.1542   -4.6000    0.0000 C   0  0  0  0  0  0  0  0  0  0  0  0
    9.7417   -4.0167    0.0000 C   0  0  0  0  0  0  0  0  0  0  0  0
    8.1792   -2.0292    0.0000 O   0  0  0  0  0  0  0  0  0  0  0  0
    6.9542   -3.8375    0.0000 C   0  0  0  0  0  0  0  0  0  0  0  0
    5.5750   -3.4667    0.0000 C   0  0  0  0  0  0  0  0  0  0  0  0
    6.1042   -1.9042    0.0000 C   0  0  0  0  0  0  0  0  0  0  0  0
    7.6792   -4.6000    0.0000 C   0  0  0  0  0  0  0  0  0  0  0  0
    6.1625   -4.0542    0.0000 C   0  0  0  0  0  0  0  0  0  0  0  0
  1  2  2  0
  1  3  1  0
  4  5  1  0
  5 12  1  0
  4  6  1  0
  2  7  1  0
  3  8  2  0
  2  9  1  0
  6 10  1  0
  3 11  1  0
  7 12  1  0
 11 13  1  0
 11 14  1  0
  6 15  2  0
 10 16  1  0
 15 17  1  0
  4 18  2  0
 19 23  1  0
  7 20  1  0
  7 21  1  0
 10 22  1  0
 20 23  1  0
  8  9  1  0
 13 14  1  0
  5 19  1  0
 16 17  2  0
M  END
>  <MOLFORMULA>  (568) 
C17 H22 N4 O2

>  <MOLWEIGHT>  (568) 
3.143868000000000e+002

>  <IDNUMBER>  (568) 
AT-687/SK17715

>  <PRICE>  (568) 
EUR 80/10 mg

>  <Similarity score>  (568) 
0.17

$$$$

     RDKit          2D

 25 28  0  0  0  0  0  0  0  0999 V2000
    1.7500    1.3000    0.0000 C   0  0  0  0  0  0  0  0  0  0  0  0
    2.7417    1.4042    0.0000 C   0  0  0  0  0  0  0  0  0  0  0  0
    1.3417    2.2167    0.0000 S   0  0  0  0  0  0  0  0  0  0  0  0
    2.9500    2.3833    0.0000 C   0  0  0  0  0  0  0  0  0  0  0  0
   -1.7542   -1.2958    0.0000 C   0  0  0  0  0  0  0  0  0  0  0  0
   -1.3458   -2.2125    0.0000 N   0  0  0  0  0  0  0  0  0  0  0  0
    2.0833    2.8833    0.0000 C   0  0  0  0  0  0  0  0  0  0  0  0
    1.2458    0.4333    0.0000 N   0  0  0  0  0  0  0  0  0  0  0  0
   -2.7458   -1.4000    0.0000 O   0  0  0  0  0  0  0  0  0  0  0  0
    3.4125    0.6625    0.0000 C   0  0  0  0  0  0  0  0  0  0  0  0
   -2.0875   -2.8792    0.0000 C   0  0  0  0  0  0  0  0  0  0  0  0
    3.1042   -0.2875    0.0000 N   0  0  0  0  0  0  0  0  0  0  0  0
   -2.9542   -2.3792    0.0000 C   0  0  0  0  0  0  0  0  0  0  0  0
    0.2500    0.4333    0.0000 C   0  0  0  0  0  0  0  0  0  0  0  0
   -1.2500   -0.4292    0.0000 S   0  0  0  0  0  0  0  0  0  0  0  0
   -0.2500    1.3000    0.0000 O   0  0  0  0  0  0  0  0  0  0  0  0
   -0.2500   -0.4292    0.0000 C   0  0  0  0  0  0  0  0  0  0  0  0
    3.8167    2.8833    0.0000 C   0  0  0  0  0  0  0  0  0  0  0  0
    2.0833    3.8833    0.0000 C   0  0  0  0  0  0  0  0  0  0  0  0
   -2.0875   -3.8792    0.0000 C   0  0  0  0  0  0  0  0  0  0  0  0
   -3.8208   -2.8792    0.0000 C   0  0  0  0  0  0  0  0  0  0  0  0
    3.8167    3.8833    0.0000 C   0  0  0  0  0  0  0  0  0  0  0  0
    2.9500    4.3792    0.0000 C   0  0  0  0  0  0  0  0  0  0  0  0
   -3.8208   -3.8792    0.0000 C   0  0  0  0  0  0  0  0  0  0  0  0
   -2.9542   -4.3792    0.0000 C   0  0  0  0  0  0  0  0  0  0  0  0
  1  2  2  0
  1  3  1  0
  2  4  1  0
  5 15  1  0
  5  6  2  0
  3  7  1  0
  1  8  1  0
  5  9  1  0
  2 10  1  0
  6 11  1  0
 10 12  3  0
  9 13  1  0
  8 14  1  0
 15 17  1  0
 14 16  2  0
 14 17  1  0
  4 18  1  0
  7 19  1  0
 11 20  2  0
 13 21  2  0
 18 22  1  0
 19 23  1  0
 21 24  1  0
 20 25  1  0
  4  7  2  0
 22 23  1  0
 11 13  1  0
 24 25  2  0
M  END
>  <MOLFORMULA>  (569) 
C18 H15 N3 O2 S2

>  <MOLWEIGHT>  (569) 
3.694675000000000e+002

>  <IDNUMBER>  (569) 
AN-153/I135718

>  <PRICE>  (569) 
EUR 130/10 mg

>  <Similarity score>  (569) 
0.17

$$$$

     RDKit          2D

 18 20  0  0  0  0  0  0  0  0999 V2000
   -0.3542    1.7500    0.0000 C   0  0  0  0  0  0  0  0  0  0  0  0
    0.0542    0.8333    0.0000 C   0  0  0  0  0  0  0  0  0  0  0  0
    1.0458    0.9375    0.0000 S   0  0  0  0  0  0  0  0  0  0  0  0
    0.3875    2.4167    0.0000 C   0  0  0  0  0  0  0  0  0  0  0  0
    1.2542    1.9167    0.0000 C   0  0  0  0  0  0  0  0  0  0  0  0
   -0.4458   -0.0333    0.0000 N   0  0  0  0  0  0  0  0  0  0  0  0
   -1.3333    1.9542    0.0000 C   0  0  0  0  0  0  0  0  0  0  0  0
   -2.0000    1.2125    0.0000 N   0  0  0  0  0  0  0  0  0  0  0  0
    0.0542   -0.8958    0.0000 C   0  0  0  0  0  0  0  0  0  0  0  0
   -0.4458   -3.4958    0.0000 N   0  0  0  0  0  0  0  0  0  0  0  0
   -0.4458   -1.7625    0.0000 C   0  0  0  0  0  0  0  0  0  0  0  0
    0.5958    3.3958    0.0000 C   0  0  0  0  0  0  0  0  0  0  0  0
    1.9958    2.5875    0.0000 C   0  0  0  0  0  0  0  0  0  0  0  0
    0.0542   -2.6292    0.0000 C   0  0  0  0  0  0  0  0  0  0  0  0
    1.5917    3.5000    0.0000 C   0  0  0  0  0  0  0  0  0  0  0  0
   -1.4458   -3.4958    0.0000 C   0  0  0  0  0  0  0  0  0  0  0  0
   -1.4458   -1.7625    0.0000 C   0  0  0  0  0  0  0  0  0  0  0  0
   -1.9500   -2.6292    0.0000 C   0  0  0  0  0  0  0  0  0  0  0  0
  1  2  2  0
  2  3  1  0
  1  4  1  0
  4  5  2  0
  2  6  1  0
  1  7  1  0
  7  8  3  0
  6  9  2  0
 10 14  2  0
  9 11  1  0
  4 12  1  0
  5 13  1  0
 11 14  1  0
 12 15  1  0
 16 18  2  0
 11 17  2  0
 17 18  1  0
  3  5  1  0
 13 15  1  0
 10 16  1  0
M  END
>  <MOLFORMULA>  (570) 
C14 H11 N3 S

>  <MOLWEIGHT>  (570) 
2.533279000000000e+002

>  <IDNUMBER>  (570) 
AN-153/I120893

>  <PRICE>  (570) 
EUR 130/10 mg

>  <Similarity score>  (570) 
0.17

$$$$

     RDKit          2D

 18 20  0  0  0  0  0  0  0  0999 V2000
   -1.0875    0.1583    0.0000 C   0  0  0  0  0  0  0  0  0  0  0  0
   -0.4333   -0.1417    0.0000 C   0  0  0  0  0  0  0  0  0  0  0  0
   -0.5083   -0.8625    0.0000 S   0  0  0  0  0  0  0  0  0  0  0  0
   -1.5708   -0.3792    0.0000 C   0  0  0  0  0  0  0  0  0  0  0  0
   -1.2083   -1.0125    0.0000 C   0  0  0  0  0  0  0  0  0  0  0  0
    0.2125    0.2208    0.0000 N   0  0  0  0  0  0  0  0  0  0  0  0
   -1.2375    0.8708    0.0000 C   0  0  0  0  0  0  0  0  0  0  0  0
   -1.3875    1.5833    0.0000 N   0  0  0  0  0  0  0  0  0  0  0  0
    0.8500   -0.1667    0.0000 C   0  0  0  0  0  0  0  0  0  0  0  0
    2.7500    0.1708    0.0000 N   0  0  0  0  0  0  0  0  0  0  0  0
    1.4917    0.1708    0.0000 C   0  0  0  0  0  0  0  0  0  0  0  0
   -2.2875   -0.5625    0.0000 C   0  0  0  0  0  0  0  0  0  0  0  0
   -1.7083   -1.5500    0.0000 C   0  0  0  0  0  0  0  0  0  0  0  0
    2.1167   -0.2000    0.0000 C   0  0  0  0  0  0  0  0  0  0  0  0
   -2.3500   -1.2500    0.0000 C   0  0  0  0  0  0  0  0  0  0  0  0
    2.7500    0.8875    0.0000 C   0  0  0  0  0  0  0  0  0  0  0  0
    1.4917    0.8833    0.0000 C   0  0  0  0  0  0  0  0  0  0  0  0
    2.1167    1.2375    0.0000 C   0  0  0  0  0  0  0  0  0  0  0  0
  1  2  2  0
  2  3  1  0
  1  4  1  0
  4  5  2  0
  2  6  1  0
  1  7  1  0
  7  8  3  0
  6  9  2  0
 10 14  1  0
  9 11  1  0
  4 12  1  0
  5 13  1  0
 11 14  2  0
 12 15  1  0
 16 18  1  0
 11 17  1  0
 17 18  2  0
  3  5  1  0
 13 15  1  0
 10 16  2  0
M  END
>  <MOLFORMULA>  (571) 
C14 H11 N3 S

>  <MOLWEIGHT>  (571) 
2.533279000000000e+002

>  <IDNUMBER>  (571) 
AT-084/J158713

>  <PRICE>  (571) 
EUR 37.00/10 mg

>  <Similarity score>  (571) 
0.17

$$$$

     RDKit          2D

 25 28  0  0  0  0  0  0  0  0999 V2000
    3.6667   -1.5917    0.0000 N   0  0  0  0  0  0  0  0  0  0  0  0
    4.4500   -2.6667    0.0000 C   0  0  0  0  0  0  0  0  0  0  0  0
    9.2917   -2.9042    0.0000 C   0  0  0  0  0  0  0  0  0  0  0  0
   10.2250   -3.8500    0.0000 C   0  0  0  0  0  0  0  0  0  0  0  0
    2.4000   -1.9917    0.0000 C   0  0  0  0  0  0  0  0  0  0  0  0
    8.0042   -3.2417    0.0000 N   0  0  0  0  0  0  0  0  0  0  0  0
    5.7750   -2.6667    0.0000 C   0  0  0  0  0  0  0  0  0  0  0  0
    2.4000   -3.3250    0.0000 N   0  0  0  0  0  0  0  0  0  0  0  0
    3.6667   -3.7292    0.0000 O   0  0  0  0  0  0  0  0  0  0  0  0
    1.3250   -1.2167    0.0000 C   0  0  0  0  0  0  0  0  0  0  0  0
    7.0667   -2.3167    0.0000 C   0  0  0  0  0  0  0  0  0  0  0  0
    0.0000   -1.0667    0.0000 C   0  0  0  0  0  0  0  0  0  0  0  0
    0.7750   -0.0000    0.0000 C   0  0  0  0  0  0  0  0  0  0  0  0
    9.8667   -5.1417    0.0000 C   0  0  0  0  0  0  0  0  0  0  0  0
   11.5167   -3.5167    0.0000 C   0  0  0  0  0  0  0  0  0  0  0  0
    9.6250   -1.6250    0.0000 O   0  0  0  0  0  0  0  0  0  0  0  0
   10.8167   -6.0750    0.0000 C   0  0  0  0  0  0  0  0  0  0  0  0
   12.4500   -4.4292    0.0000 C   0  0  0  0  0  0  0  0  0  0  0  0
    7.6500   -4.5500    0.0000 C   0  0  0  0  0  0  0  0  0  0  0  0
    5.4250   -3.9417    0.0000 C   0  0  0  0  0  0  0  0  0  0  0  0
    8.6000   -5.4667    0.0000 F   0  0  0  0  0  0  0  0  0  0  0  0
    6.2750   -1.4417    0.0000 C   0  0  0  0  0  0  0  0  0  0  0  0
   12.1042   -5.7417    0.0000 C   0  0  0  0  0  0  0  0  0  0  0  0
   13.7500   -4.1000    0.0000 F   0  0  0  0  0  0  0  0  0  0  0  0
    6.3750   -4.8917    0.0000 C   0  0  0  0  0  0  0  0  0  0  0  0
  1  2  2  0
  3  6  1  0
  3  4  1  0
  1  5  1  0
  6 11  1  0
  2  7  1  0
  5  8  2  0
  2  9  1  0
  5 10  1  0
  7 11  1  0
 10 12  1  0
 10 13  1  0
  4 14  2  0
  4 15  1  0
  3 16  2  0
 14 17  1  0
 15 18  2  0
 19 25  1  0
  7 20  1  0
 14 21  1  0
  7 22  1  0
 18 23  1  0
 18 24  1  0
 20 25  1  0
  8  9  1  0
 12 13  1  0
  6 19  1  0
 17 23  2  0
M  END
>  <MOLFORMULA>  (572) 
C18 H19 F2 N3 O2

>  <MOLWEIGHT>  (572) 
3.473631000000000e+002

>  <IDNUMBER>  (572) 
AT-687/PE19315

>  <PRICE>  (572) 
EUR 80/10 mg

>  <Similarity score>  (572) 
0.17

$$$$

     RDKit          2D

 21 23  0  0  0  0  0  0  0  0999 V2000
    0.0250    1.7000    0.0000 C   0  0  0  0  0  0  0  0  0  0  0  0
   -0.3833    2.6125    0.0000 C   0  0  0  0  0  0  0  0  0  0  0  0
    1.0208    1.8042    0.0000 S   0  0  0  0  0  0  0  0  0  0  0  0
    0.3625    3.2833    0.0000 C   0  0  0  0  0  0  0  0  0  0  0  0
   -0.4750    0.8333    0.0000 N   0  0  0  0  0  0  0  0  0  0  0  0
    1.2292    2.7833    0.0000 C   0  0  0  0  0  0  0  0  0  0  0  0
    0.0250   -0.0333    0.0000 C   0  0  0  0  0  0  0  0  0  0  0  0
   -1.3583    2.8208    0.0000 C   0  0  0  0  0  0  0  0  0  0  0  0
   -1.6708    3.7708    0.0000 N   0  0  0  0  0  0  0  0  0  0  0  0
   -0.4750   -0.8958    0.0000 C   0  0  0  0  0  0  0  0  0  0  0  0
    1.0250   -0.0333    0.0000 O   0  0  0  0  0  0  0  0  0  0  0  0
   -1.4750   -0.8958    0.0000 C   0  0  0  0  0  0  0  0  0  0  0  0
    0.0250   -1.7625    0.0000 C   0  0  0  0  0  0  0  0  0  0  0  0
    0.5708    4.2583    0.0000 C   0  0  0  0  0  0  0  0  0  0  0  0
   -1.4750   -2.6292    0.0000 C   0  0  0  0  0  0  0  0  0  0  0  0
    1.9708    3.4542    0.0000 C   0  0  0  0  0  0  0  0  0  0  0  0
   -0.4750   -2.6292    0.0000 C   0  0  0  0  0  0  0  0  0  0  0  0
   -1.9750   -1.7625    0.0000 C   0  0  0  0  0  0  0  0  0  0  0  0
   -1.9750   -3.4958    0.0000 O   0  0  0  0  0  0  0  0  0  0  0  0
    1.5625    4.3625    0.0000 C   0  0  0  0  0  0  0  0  0  0  0  0
   -1.4750   -4.3625    0.0000 C   0  0  0  0  0  0  0  0  0  0  0  0
  1  2  2  0
  1  3  1  0
  2  4  1  0
  1  5  1  0
  3  6  1  0
  5  7  1  0
  2  8  1  0
  8  9  3  0
  7 10  1  0
  7 11  2  0
 10 12  1  0
 10 13  2  0
  4 14  1  0
 15 17  2  0
  6 16  1  0
 13 17  1  0
 12 18  2  0
 15 19  1  0
 16 20  1  0
 19 21  1  0
  4  6  2  0
 14 20  1  0
 15 18  1  0
M  END
>  <MOLFORMULA>  (573) 
C16 H14 N2 O2 S

>  <MOLWEIGHT>  (573) 
2.983646000000000e+002

>  <IDNUMBER>  (573) 
AN-153/I236325

>  <PRICE>  (573) 
EUR 130/10 mg

>  <Similarity score>  (573) 
0.17

$$$$

     RDKit          2D

 23 25  0  0  0  0  0  0  0  0999 V2000
   -0.6833    2.0250    0.0000 C   0  0  0  0  0  0  0  0  0  0  0  0
   -0.0542    2.8000    0.0000 C   0  0  0  0  0  0  0  0  0  0  0  0
   -1.6167    2.3833    0.0000 S   0  0  0  0  0  0  0  0  0  0  0  0
   -0.5958    3.6417    0.0000 C   0  0  0  0  0  0  0  0  0  0  0  0
   -0.4208    1.0583    0.0000 N   0  0  0  0  0  0  0  0  0  0  0  0
   -1.5625    3.3792    0.0000 C   0  0  0  0  0  0  0  0  0  0  0  0
   -1.1292    0.3500    0.0000 C   0  0  0  0  0  0  0  0  0  0  0  0
    0.9458    2.7500    0.0000 C   0  0  0  0  0  0  0  0  0  0  0  0
    1.4917    3.5875    0.0000 N   0  0  0  0  0  0  0  0  0  0  0  0
   -0.8667   -0.6167    0.0000 C   0  0  0  0  0  0  0  0  0  0  0  0
   -2.0958    0.6083    0.0000 O   0  0  0  0  0  0  0  0  0  0  0  0
    0.1000   -0.8708    0.0000 C   0  0  0  0  0  0  0  0  0  0  0  0
   -1.5750   -1.3250    0.0000 C   0  0  0  0  0  0  0  0  0  0  0  0
   -0.5458    4.6333    0.0000 C   0  0  0  0  0  0  0  0  0  0  0  0
   -0.3500   -2.5458    0.0000 C   0  0  0  0  0  0  0  0  0  0  0  0
   -2.1083    4.2125    0.0000 C   0  0  0  0  0  0  0  0  0  0  0  0
   -1.3125   -2.2875    0.0000 C   0  0  0  0  0  0  0  0  0  0  0  0
    0.3583   -1.8375    0.0000 C   0  0  0  0  0  0  0  0  0  0  0  0
   -0.0875   -3.5125    0.0000 O   0  0  0  0  0  0  0  0  0  0  0  0
   -1.4792    4.9917    0.0000 C   0  0  0  0  0  0  0  0  0  0  0  0
    0.8792   -3.7708    0.0000 C   0  0  0  0  0  0  0  0  0  0  0  0
    1.1375   -4.7333    0.0000 C   0  0  0  0  0  0  0  0  0  0  0  0
    2.1042   -4.9917    0.0000 C   0  0  0  0  0  0  0  0  0  0  0  0
  1  2  2  0
  1  3  1  0
  2  4  1  0
  1  5  1  0
  3  6  1  0
  5  7  1  0
  2  8  1  0
  8  9  3  0
  7 10  1  0
  7 11  2  0
 10 12  1  0
 10 13  2  0
  4 14  1  0
 15 17  2  0
  6 16  1  0
 13 17  1  0
 12 18  2  0
 15 19  1  0
 16 20  1  0
 19 21  1  0
 21 22  1  0
 22 23  1  0
  4  6  2  0
 14 20  1  0
 15 18  1  0
M  END
>  <MOLFORMULA>  (574) 
C18 H18 N2 O2 S

>  <MOLWEIGHT>  (574) 
3.264182000000000e+002

>  <IDNUMBER>  (574) 
AN-153/I215686

>  <PRICE>  (574) 
EUR 130/10 mg

>  <Similarity score>  (574) 
0.17

$$$$

     RDKit          2D

 33 37  0  0  0  0  0  0  0  0999 V2000
    4.9917    4.0792    0.0000 C   0  0  0  0  0  0  0  0  0  0  0  0
    4.8917    3.2833    0.0000 N   0  0  0  0  0  0  0  0  0  0  0  0
    5.7125    4.4792    0.0000 C   0  0  0  0  0  0  0  0  0  0  0  0
    4.4042    4.6417    0.0000 S   0  0  0  0  0  0  0  0  0  0  0  0
    4.3167    0.5583    0.0000 C   0  0  0  0  0  0  0  0  0  0  0  0
    5.1542    1.9833    0.0000 C   0  0  0  0  0  0  0  0  0  0  0  0
    3.8292   -0.1042    0.0000 N   0  0  0  0  0  0  0  0  0  0  0  0
    5.1417    0.5583    0.0000 C   0  0  0  0  0  0  0  0  0  0  0  0
    4.1917    2.8750    0.0000 C   0  0  0  0  0  0  0  0  0  0  0  0
    5.5042    2.7250    0.0000 C   0  0  0  0  0  0  0  0  0  0  0  0
    5.5542    5.2792    0.0000 C   0  0  0  0  0  0  0  0  0  0  0  0
    4.7417    5.3875    0.0000 C   0  0  0  0  0  0  0  0  0  0  0  0
    3.8292    1.2333    0.0000 N   0  0  0  0  0  0  0  0  0  0  0  0
    5.5542    1.2750    0.0000 C   0  0  0  0  0  0  0  0  0  0  0  0
    4.3417    2.0708    0.0000 C   0  0  0  0  0  0  0  0  0  0  0  0
    3.0417    0.1458    0.0000 C   0  0  0  0  0  0  0  0  0  0  0  0
    6.4542    4.1375    0.0000 C   0  0  0  0  0  0  0  0  0  0  0  0
    3.0417    0.9708    0.0000 C   0  0  0  0  0  0  0  0  0  0  0  0
    5.5542   -0.1542    0.0000 C   0  0  0  0  0  0  0  0  0  0  0  0
    7.2000    3.8000    0.0000 N   0  0  0  0  0  0  0  0  0  0  0  0
    5.9625   -0.8667    0.0000 N   0  0  0  0  0  0  0  0  0  0  0  0
    2.3292   -0.2667    0.0000 C   0  0  0  0  0  0  0  0  0  0  0  0
    2.3292    1.3833    0.0000 C   0  0  0  0  0  0  0  0  0  0  0  0
    1.6167    0.1458    0.0000 C   0  0  0  0  0  0  0  0  0  0  0  0
    3.4375    3.2208    0.0000 C   0  0  0  0  0  0  0  0  0  0  0  0
    6.0417    5.9292    0.0000 C   0  0  0  0  0  0  0  0  0  0  0  0
    6.3042    2.8833    0.0000 C   0  0  0  0  0  0  0  0  0  0  0  0
    1.6167    0.9708    0.0000 C   0  0  0  0  0  0  0  0  0  0  0  0
    4.4167    6.1292    0.0000 C   0  0  0  0  0  0  0  0  0  0  0  0
    0.9042   -0.2667    0.0000 O   0  0  0  0  0  0  0  0  0  0  0  0
    0.9042   -1.0917    0.0000 C   0  0  0  0  0  0  0  0  0  0  0  0
    5.7292    6.6917    0.0000 C   0  0  0  0  0  0  0  0  0  0  0  0
    4.9167    6.7917    0.0000 C   0  0  0  0  0  0  0  0  0  0  0  0
  1  2  1  0
  1  3  2  0
  1  4  1  0
  5  8  1  0
  6 10  2  0
  5  7  2  0
  8 14  2  0
  2  9  1  0
  2 10  1  0
  3 11  1  0
  4 12  1  0
  5 13  1  0
  6 14  1  0
  9 15  2  0
  7 16  1  0
  3 17  1  0
 13 18  1  0
  8 19  1  0
 17 20  3  0
 19 21  3  0
 16 22  2  0
 18 23  2  0
 22 24  1  0
  9 25  1  0
 11 26  1  0
 10 27  1  0
 23 28  1  0
 12 29  1  0
 24 30  1  0
 30 31  1  0
 26 32  1  0
 29 33  1  0
 11 12  2  0
  6 15  1  0
 32 33  1  0
 16 18  1  0
 24 28  2  0
M  END
>  <MOLFORMULA>  (575) 
C26 H23 N5 O S

>  <MOLWEIGHT>  (575) 
4.535677000000000e+002

>  <IDNUMBER>  (575) 
AM-879/MD25802

>  <PRICE>  (575) 
EUR 55.00/10 mg

>  <Similarity score>  (575) 
0.17

$$$$

     RDKit          2D

 33 37  0  0  0  0  0  0  0  0999 V2000
    8.6875   -5.5000    0.0000 C   0  0  0  0  0  0  0  0  0  0  0  0
    8.0125   -5.9750    0.0000 N   0  0  0  0  0  0  0  0  0  0  0  0
    8.7000   -4.6750    0.0000 C   0  0  0  0  0  0  0  0  0  0  0  0
    9.4750   -5.7667    0.0000 S   0  0  0  0  0  0  0  0  0  0  0  0
    4.6417   -7.0917    0.0000 C   0  0  0  0  0  0  0  0  0  0  0  0
    6.7292   -6.3875    0.0000 C   0  0  0  0  0  0  0  0  0  0  0  0
    4.1542   -6.4125    0.0000 N   0  0  0  0  0  0  0  0  0  0  0  0
    5.4750   -7.1042    0.0000 C   0  0  0  0  0  0  0  0  0  0  0  0
    8.0000   -6.8042    0.0000 C   0  0  0  0  0  0  0  0  0  0  0  0
    7.2292   -5.7125    0.0000 C   0  0  0  0  0  0  0  0  0  0  0  0
    9.4750   -4.4250    0.0000 C   0  0  0  0  0  0  0  0  0  0  0  0
    9.9542   -5.1042    0.0000 C   0  0  0  0  0  0  0  0  0  0  0  0
    4.1542   -7.7625    0.0000 N   0  0  0  0  0  0  0  0  0  0  0  0
    5.8917   -6.3875    0.0000 C   0  0  0  0  0  0  0  0  0  0  0  0
    7.2042   -7.0542    0.0000 C   0  0  0  0  0  0  0  0  0  0  0  0
    3.3792   -6.6667    0.0000 C   0  0  0  0  0  0  0  0  0  0  0  0
    8.0292   -4.1792    0.0000 C   0  0  0  0  0  0  0  0  0  0  0  0
    3.3667   -7.4917    0.0000 C   0  0  0  0  0  0  0  0  0  0  0  0
    5.8875   -7.8250    0.0000 C   0  0  0  0  0  0  0  0  0  0  0  0
    7.4417   -3.5917    0.0000 N   0  0  0  0  0  0  0  0  0  0  0  0
    6.2917   -8.5500    0.0000 N   0  0  0  0  0  0  0  0  0  0  0  0
    2.6625   -6.2417    0.0000 C   0  0  0  0  0  0  0  0  0  0  0  0
    2.6500   -7.9042    0.0000 C   0  0  0  0  0  0  0  0  0  0  0  0
    1.9417   -6.6542    0.0000 C   0  0  0  0  0  0  0  0  0  0  0  0
    8.6625   -7.3042    0.0000 C   0  0  0  0  0  0  0  0  0  0  0  0
    9.8167   -3.6667    0.0000 C   0  0  0  0  0  0  0  0  0  0  0  0
    6.9792   -4.9292    0.0000 C   0  0  0  0  0  0  0  0  0  0  0  0
    1.9292   -7.4792    0.0000 C   0  0  0  0  0  0  0  0  0  0  0  0
   10.7792   -5.0250    0.0000 C   0  0  0  0  0  0  0  0  0  0  0  0
    1.2292   -6.2375    0.0000 O   0  0  0  0  0  0  0  0  0  0  0  0
    1.2417   -5.4125    0.0000 C   0  0  0  0  0  0  0  0  0  0  0  0
   10.6417   -3.5792    0.0000 C   0  0  0  0  0  0  0  0  0  0  0  0
   11.1292   -4.2667    0.0000 C   0  0  0  0  0  0  0  0  0  0  0  0
  1  2  1  0
  1  3  2  0
  1  4  1  0
  5  8  1  0
  6 10  2  0
  5  7  2  0
  8 14  2  0
  2  9  1  0
  2 10  1  0
  3 11  1  0
  4 12  1  0
  5 13  1  0
  6 14  1  0
  9 15  2  0
  7 16  1  0
  3 17  1  0
 13 18  1  0
  8 19  1  0
 17 20  3  0
 19 21  3  0
 16 22  1  0
 18 23  1  0
 22 24  2  0
  9 25  1  0
 11 26  1  0
 10 27  1  0
 23 28  2  0
 12 29  1  0
 24 30  1  0
 30 31  1  0
 26 32  1  0
 29 33  1  0
 11 12  2  0
  6 15  1  0
 32 33  1  0
 16 18  2  0
 24 28  1  0
M  END
>  <MOLFORMULA>  (576) 
C26 H23 N5 O S

>  <MOLWEIGHT>  (576) 
4.535677000000000e+002

>  <IDNUMBER>  (576) 
AT-139/J204542

>  <PRICE>  (576) 
EUR 125.00/10 mg

>  <Similarity score>  (576) 
0.17

$$$$

     RDKit          2D

 21 23  0  0  0  0  0  0  0  0999 V2000
   -0.4750   -1.5167    0.0000 C   0  0  0  0  0  0  0  0  0  0  0  0
   -0.6833   -2.4958    0.0000 C   0  0  0  0  0  0  0  0  0  0  0  0
   -1.3417   -1.0167    0.0000 S   0  0  0  0  0  0  0  0  0  0  0  0
   -1.6792   -2.6000    0.0000 C   0  0  0  0  0  0  0  0  0  0  0  0
    0.4375   -1.1125    0.0000 N   0  0  0  0  0  0  0  0  0  0  0  0
   -2.0833   -1.6875    0.0000 C   0  0  0  0  0  0  0  0  0  0  0  0
    0.5417   -0.1167    0.0000 C   0  0  0  0  0  0  0  0  0  0  0  0
   -0.0125   -3.2375    0.0000 C   0  0  0  0  0  0  0  0  0  0  0  0
    0.9625   -3.0292    0.0000 N   0  0  0  0  0  0  0  0  0  0  0  0
    1.4542    0.2917    0.0000 C   0  0  0  0  0  0  0  0  0  0  0  0
   -0.2667    0.4708    0.0000 O   0  0  0  0  0  0  0  0  0  0  0  0
    1.5583    1.2833    0.0000 C   0  0  0  0  0  0  0  0  0  0  0  0
   -2.4208   -3.2708    0.0000 C   0  0  0  0  0  0  0  0  0  0  0  0
    2.4750    1.6917    0.0000 C   0  0  0  0  0  0  0  0  0  0  0  0
   -3.0792   -1.7917    0.0000 C   0  0  0  0  0  0  0  0  0  0  0  0
    2.5792    2.6875    0.0000 O   0  0  0  0  0  0  0  0  0  0  0  0
    2.2667   -0.2958    0.0000 C   0  0  0  0  0  0  0  0  0  0  0  0
   -3.2875   -2.7708    0.0000 C   0  0  0  0  0  0  0  0  0  0  0  0
    3.1792    0.1083    0.0000 C   0  0  0  0  0  0  0  0  0  0  0  0
    3.2833    1.1042    0.0000 C   0  0  0  0  0  0  0  0  0  0  0  0
    1.7708    3.2750    0.0000 C   0  0  0  0  0  0  0  0  0  0  0  0
  1  2  2  0
  1  3  1  0
  2  4  1  0
  1  5  1  0
  3  6  1  0
  5  7  1  0
  2  8  1  0
  8  9  3  0
  7 10  1  0
  7 11  2  0
 10 12  2  0
  4 13  1  0
 12 14  1  0
  6 15  1  0
 14 16  1  0
 10 17  1  0
 15 18  1  0
 17 19  2  0
 19 20  1  0
 16 21  1  0
  4  6  2  0
 13 18  1  0
 14 20  2  0
M  END
>  <MOLFORMULA>  (577) 
C16 H14 N2 O2 S

>  <MOLWEIGHT>  (577) 
2.983646000000000e+002

>  <IDNUMBER>  (577) 
AN-153/I181368

>  <PRICE>  (577) 
EUR 130/10 mg

>  <Similarity score>  (577) 
0.17

$$$$

     RDKit          2D

 25 27  0  0  0  0  0  0  0  0999 V2000
   -0.2500    1.8375    0.0000 C   0  0  0  0  0  0  0  0  0  0  0  0
    0.2625    2.6958    0.0000 C   0  0  0  0  0  0  0  0  0  0  0  0
   -0.2708   -2.5208    0.0000 C   0  0  0  0  0  0  0  0  0  0  0  0
   -0.8708   -3.3208    0.0000 N   0  0  0  0  0  0  0  0  0  0  0  0
   -1.2250    2.0625    0.0000 S   0  0  0  0  0  0  0  0  0  0  0  0
    0.7250   -2.6375    0.0000 N   0  0  0  0  0  0  0  0  0  0  0  0
   -0.3958    3.4500    0.0000 C   0  0  0  0  0  0  0  0  0  0  0  0
    0.1458    0.9208    0.0000 N   0  0  0  0  0  0  0  0  0  0  0  0
   -1.3125    3.0583    0.0000 C   0  0  0  0  0  0  0  0  0  0  0  0
   -0.4750   -4.2375    0.0000 C   0  0  0  0  0  0  0  0  0  0  0  0
    0.5167   -4.3583    0.0000 C   0  0  0  0  0  0  0  0  0  0  0  0
    1.1167   -3.5583    0.0000 C   0  0  0  0  0  0  0  0  0  0  0  0
   -0.4542    0.1208    0.0000 C   0  0  0  0  0  0  0  0  0  0  0  0
    1.2583    2.7875    0.0000 C   0  0  0  0  0  0  0  0  0  0  0  0
   -0.6625   -1.6000    0.0000 S   0  0  0  0  0  0  0  0  0  0  0  0
    1.6792    3.6958    0.0000 N   0  0  0  0  0  0  0  0  0  0  0  0
   -0.0625   -0.8000    0.0000 C   0  0  0  0  0  0  0  0  0  0  0  0
   -1.4500    0.2375    0.0000 O   0  0  0  0  0  0  0  0  0  0  0  0
    2.1083   -3.6792    0.0000 O   0  0  0  0  0  0  0  0  0  0  0  0
   -1.0750   -5.0375    0.0000 N   0  0  0  0  0  0  0  0  0  0  0  0
   -0.2750    4.4375    0.0000 C   0  0  0  0  0  0  0  0  0  0  0  0
   -2.1125    3.6583    0.0000 C   0  0  0  0  0  0  0  0  0  0  0  0
    0.9292   -0.9208    0.0000 C   0  0  0  0  0  0  0  0  0  0  0  0
   -1.0750    5.0375    0.0000 C   0  0  0  0  0  0  0  0  0  0  0  0
   -1.9958    4.6458    0.0000 C   0  0  0  0  0  0  0  0  0  0  0  0
  1  2  2  0
  3 15  1  0
  3  4  2  0
  1  5  1  0
  3  6  1  0
  2  7  1  0
  1  8  1  0
  5  9  1  0
  4 10  1  0
 11 12  1  0
  6 12  1  0
  8 13  1  0
  2 14  1  0
 15 17  1  0
 14 16  3  0
 13 17  1  0
 13 18  2  0
 12 19  2  0
 10 20  1  0
  7 21  1  0
  9 22  1  0
 17 23  1  0
 21 24  1  0
 22 25  1  0
  7  9  2  0
 24 25  1  0
 10 11  2  0
M  END
>  <MOLFORMULA>  (578) 
C16 H17 N5 O2 S2

>  <MOLWEIGHT>  (578) 
3.754753000000000e+002

>  <IDNUMBER>  (578) 
AN-153/I240410

>  <PRICE>  (578) 
EUR 130/10 mg

>  <Similarity score>  (578) 
0.17

$$$$

     RDKit          2D

 21 23  0  0  0  0  0  0  0  0999 V2000
    1.5250    0.8333    0.0000 C   0  0  0  0  0  0  0  0  0  0  0  0
    2.5208    0.9375    0.0000 C   0  0  0  0  0  0  0  0  0  0  0  0
    1.1167    1.7500    0.0000 S   0  0  0  0  0  0  0  0  0  0  0  0
    2.7292    1.9167    0.0000 C   0  0  0  0  0  0  0  0  0  0  0  0
    1.8625    2.4167    0.0000 C   0  0  0  0  0  0  0  0  0  0  0  0
    1.0250   -0.0333    0.0000 N   0  0  0  0  0  0  0  0  0  0  0  0
    3.1875    0.1958    0.0000 C   0  0  0  0  0  0  0  0  0  0  0  0
    2.8792   -0.7542    0.0000 N   0  0  0  0  0  0  0  0  0  0  0  0
    0.0250   -0.0333    0.0000 C   0  0  0  0  0  0  0  0  0  0  0  0
   -1.9750   -1.7625    0.0000 C   0  0  0  0  0  0  0  0  0  0  0  0
   -1.4750   -2.6292    0.0000 N   0  0  0  0  0  0  0  0  0  0  0  0
   -1.4750   -0.8958    0.0000 S   0  0  0  0  0  0  0  0  0  0  0  0
   -0.4750    0.8333    0.0000 O   0  0  0  0  0  0  0  0  0  0  0  0
   -0.4750   -0.8958    0.0000 C   0  0  0  0  0  0  0  0  0  0  0  0
    3.4708    2.5875    0.0000 C   0  0  0  0  0  0  0  0  0  0  0  0
    2.0708    3.3958    0.0000 C   0  0  0  0  0  0  0  0  0  0  0  0
    3.0625    3.5000    0.0000 C   0  0  0  0  0  0  0  0  0  0  0  0
   -1.9750   -3.4958    0.0000 C   0  0  0  0  0  0  0  0  0  0  0  0
   -2.9750   -1.7625    0.0000 C   0  0  0  0  0  0  0  0  0  0  0  0
   -2.9750   -3.4958    0.0000 C   0  0  0  0  0  0  0  0  0  0  0  0
   -3.4750   -2.6292    0.0000 C   0  0  0  0  0  0  0  0  0  0  0  0
  1  2  2  0
  1  3  1  0
  2  4  1  0
  3  5  1  0
  1  6  1  0
  2  7  1  0
  7  8  3  0
  6  9  1  0
 10 12  1  0
 10 11  2  0
 12 14  1  0
  9 13  2  0
  9 14  1  0
  4 15  1  0
  5 16  1  0
 16 17  1  0
 11 18  1  0
 10 19  1  0
 20 21  1  0
 19 21  2  0
  4  5  2  0
 15 17  1  0
 18 20  2  0
M  END
>  <MOLFORMULA>  (579) 
C15 H13 N3 O S2

>  <MOLWEIGHT>  (579) 
3.154197000000000e+002

>  <IDNUMBER>  (579) 
AN-153/I135555

>  <PRICE>  (579) 
EUR 130/10 mg

>  <Similarity score>  (579) 
0.17

$$$$

     RDKit          2D

 21 23  0  0  0  0  0  0  0  0999 V2000
    3.6500   -2.2750    0.0000 C   0  0  0  0  0  0  0  0  0  0  0  0
    4.1167   -2.9292    0.0000 C   0  0  0  0  0  0  0  0  0  0  0  0
    3.6500   -3.5875    0.0000 S   0  0  0  0  0  0  0  0  0  0  0  0
    2.8792   -2.5292    0.0000 C   0  0  0  0  0  0  0  0  0  0  0  0
    2.8792   -3.3375    0.0000 C   0  0  0  0  0  0  0  0  0  0  0  0
    4.9250   -2.9292    0.0000 N   0  0  0  0  0  0  0  0  0  0  0  0
    3.9000   -1.5167    0.0000 C   0  0  0  0  0  0  0  0  0  0  0  0
    4.1417   -0.7500    0.0000 N   0  0  0  0  0  0  0  0  0  0  0  0
    5.3292   -3.6292    0.0000 C   0  0  0  0  0  0  0  0  0  0  0  0
    6.1375   -3.6292    0.0000 C   0  0  0  0  0  0  0  0  0  0  0  0
    7.7542   -3.6292    0.0000 C   0  0  0  0  0  0  0  0  0  0  0  0
    2.1750   -2.1250    0.0000 C   0  0  0  0  0  0  0  0  0  0  0  0
    2.1750   -3.7417    0.0000 C   0  0  0  0  0  0  0  0  0  0  0  0
    6.5417   -4.3292    0.0000 C   0  0  0  0  0  0  0  0  0  0  0  0
    6.5417   -2.9292    0.0000 C   0  0  0  0  0  0  0  0  0  0  0  0
    7.3500   -2.9292    0.0000 C   0  0  0  0  0  0  0  0  0  0  0  0
    7.3500   -4.3292    0.0000 C   0  0  0  0  0  0  0  0  0  0  0  0
    8.5625   -3.6292    0.0000 O   0  0  0  0  0  0  0  0  0  0  0  0
    8.9667   -4.3292    0.0000 C   0  0  0  0  0  0  0  0  0  0  0  0
    1.4792   -2.5292    0.0000 C   0  0  0  0  0  0  0  0  0  0  0  0
    1.4792   -3.3375    0.0000 C   0  0  0  0  0  0  0  0  0  0  0  0
  1  2  2  0
  2  3  1  0
  1  4  1  0
  4  5  2  0
  2  6  1  0
  1  7  1  0
  7  8  3  0
  6  9  2  0
  9 10  1  0
 11 16  2  0
  4 12  1  0
  5 13  1  0
 10 14  1  0
 10 15  2  0
 15 16  1  0
 14 17  2  0
 11 18  1  0
 18 19  1  0
 12 20  1  0
 20 21  1  0
  3  5  1  0
 13 21  1  0
 11 17  1  0
M  END
>  <MOLFORMULA>  (580) 
C17 H16 N2 O S

>  <MOLWEIGHT>  (580) 
2.963924000000000e+002

>  <IDNUMBER>  (580) 
AM-879/PD02471

>  <PRICE>  (580) 
EUR 55.00/10 mg

>  <Similarity score>  (580) 
0.17

$$$$

     RDKit          2D

 25 28  0  0  0  0  0  0  0  0999 V2000
   -2.5333    0.3833    0.0000 C   0  0  0  0  0  0  0  0  0  0  0  0
   -3.1208    1.1917    0.0000 C   0  0  0  0  0  0  0  0  0  0  0  0
   -3.1208   -0.4250    0.0000 S   0  0  0  0  0  0  0  0  0  0  0  0
   -4.0708    0.8833    0.0000 C   0  0  0  0  0  0  0  0  0  0  0  0
    1.4667   -1.3458    0.0000 C   0  0  0  0  0  0  0  0  0  0  0  0
    2.0542   -0.5375    0.0000 N   0  0  0  0  0  0  0  0  0  0  0  0
   -4.0708   -0.1167    0.0000 C   0  0  0  0  0  0  0  0  0  0  0  0
    2.0542   -2.1583    0.0000 N   0  0  0  0  0  0  0  0  0  0  0  0
   -1.5333    0.3833    0.0000 N   0  0  0  0  0  0  0  0  0  0  0  0
    3.0083   -0.8500    0.0000 C   0  0  0  0  0  0  0  0  0  0  0  0
   -2.8125    2.1458    0.0000 C   0  0  0  0  0  0  0  0  0  0  0  0
    3.0083   -1.8500    0.0000 C   0  0  0  0  0  0  0  0  0  0  0  0
   -1.8333    2.3500    0.0000 N   0  0  0  0  0  0  0  0  0  0  0  0
   -1.0333   -0.4833    0.0000 C   0  0  0  0  0  0  0  0  0  0  0  0
    0.4667   -1.3458    0.0000 S   0  0  0  0  0  0  0  0  0  0  0  0
    3.8750   -0.3500    0.0000 C   0  0  0  0  0  0  0  0  0  0  0  0
   -1.5333   -1.3458    0.0000 O   0  0  0  0  0  0  0  0  0  0  0  0
    3.8750   -2.3500    0.0000 C   0  0  0  0  0  0  0  0  0  0  0  0
   -0.0333   -0.4833    0.0000 C   0  0  0  0  0  0  0  0  0  0  0  0
    4.7375   -0.8500    0.0000 C   0  0  0  0  0  0  0  0  0  0  0  0
   -5.0208    1.1917    0.0000 C   0  0  0  0  0  0  0  0  0  0  0  0
   -5.0208   -0.4250    0.0000 C   0  0  0  0  0  0  0  0  0  0  0  0
    4.7375   -1.8500    0.0000 C   0  0  0  0  0  0  0  0  0  0  0  0
   -5.6083    0.3833    0.0000 C   0  0  0  0  0  0  0  0  0  0  0  0
    5.6042   -0.3500    0.0000 C   0  0  0  0  0  0  0  0  0  0  0  0
  1  2  2  0
  1  3  1  0
  2  4  1  0
  5 15  1  0
  5  6  2  0
  3  7  1  0
  5  8  1  0
  1  9  1  0
  6 10  1  0
  2 11  1  0
  8 12  1  0
 11 13  3  0
  9 14  1  0
 15 19  1  0
 10 16  1  0
 14 17  2  0
 12 18  1  0
 14 19  1  0
 16 20  2  0
  4 21  1  0
  7 22  1  0
 18 23  2  0
 22 24  1  0
 20 25  1  0
  4  7  2  0
 21 24  1  0
 10 12  2  0
 20 23  1  0
M  END
>  <MOLFORMULA>  (581) 
C18 H16 N4 O S2

>  <MOLWEIGHT>  (581) 
3.684834000000000e+002

>  <IDNUMBER>  (581) 
AN-153/I152895

>  <PRICE>  (581) 
EUR 130/10 mg

>  <Similarity score>  (581) 
0.17

$$$$

     RDKit          2D

 24 26  0  0  0  0  0  0  0  0999 V2000
   -0.1458    2.2750    0.0000 C   0  0  0  0  0  0  0  0  0  0  0  0
    0.3958    3.1167    0.0000 C   0  0  0  0  0  0  0  0  0  0  0  0
   -1.1125    2.5333    0.0000 S   0  0  0  0  0  0  0  0  0  0  0  0
   -0.2333    3.8917    0.0000 C   0  0  0  0  0  0  0  0  0  0  0  0
    0.2125    1.3417    0.0000 N   0  0  0  0  0  0  0  0  0  0  0  0
   -1.1667    3.5292    0.0000 C   0  0  0  0  0  0  0  0  0  0  0  0
   -0.4125    0.5625    0.0000 C   0  0  0  0  0  0  0  0  0  0  0  0
    1.3958    3.1708    0.0000 C   0  0  0  0  0  0  0  0  0  0  0  0
    1.9417    2.3292    0.0000 N   0  0  0  0  0  0  0  0  0  0  0  0
   -0.0542   -0.3708    0.0000 C   0  0  0  0  0  0  0  0  0  0  0  0
   -1.4042    0.7167    0.0000 O   0  0  0  0  0  0  0  0  0  0  0  0
   -0.6833   -1.1458    0.0000 C   0  0  0  0  0  0  0  0  0  0  0  0
   -0.3208   -2.0792    0.0000 C   0  0  0  0  0  0  0  0  0  0  0  0
   -0.0792    4.8750    0.0000 C   0  0  0  0  0  0  0  0  0  0  0  0
   -1.9458    4.1542    0.0000 C   0  0  0  0  0  0  0  0  0  0  0  0
   -0.9500   -2.8583    0.0000 O   0  0  0  0  0  0  0  0  0  0  0  0
    0.9333   -0.5250    0.0000 C   0  0  0  0  0  0  0  0  0  0  0  0
    1.2958   -1.4583    0.0000 C   0  0  0  0  0  0  0  0  0  0  0  0
    0.6667   -2.2333    0.0000 C   0  0  0  0  0  0  0  0  0  0  0  0
   -0.5875   -3.7917    0.0000 C   0  0  0  0  0  0  0  0  0  0  0  0
   -1.2167   -4.5708    0.0000 C   0  0  0  0  0  0  0  0  0  0  0  0
   -0.8583    5.5042    0.0000 C   0  0  0  0  0  0  0  0  0  0  0  0
   -1.7917    5.1417    0.0000 C   0  0  0  0  0  0  0  0  0  0  0  0
   -0.8583   -5.5042    0.0000 C   0  0  0  0  0  0  0  0  0  0  0  0
  1  2  2  0
  1  3  1  0
  2  4  1  0
  1  5  1  0
  3  6  1  0
  5  7  1  0
  2  8  1  0
  8  9  3  0
  7 10  1  0
  7 11  2  0
 10 12  2  0
 12 13  1  0
  4 14  1  0
  6 15  1  0
 13 16  1  0
 10 17  1  0
 17 18  2  0
 18 19  1  0
 16 20  1  0
 20 21  1  0
 14 22  1  0
 15 23  1  0
 21 24  1  0
  4  6  2  0
 22 23  1  0
 13 19  2  0
M  END
>  <MOLFORMULA>  (582) 
C19 H20 N2 O2 S

>  <MOLWEIGHT>  (582) 
3.404450000000000e+002

>  <IDNUMBER>  (582) 
AN-153/I224048

>  <PRICE>  (582) 
EUR 130/10 mg

>  <Similarity score>  (582) 
0.17

$$$$

     RDKit          2D

 24 28  0  0  0  0  0  0  0  0999 V2000
    3.6500   -3.8250    0.0000 N   0  0  0  0  0  0  0  0  0  0  0  0
   10.8750   -3.3917    0.0000 N   0  0  0  0  0  0  0  0  0  0  0  0
    4.4417   -4.9000    0.0000 C   0  0  0  0  0  0  0  0  0  0  0  0
    2.3917   -4.2250    0.0000 C   0  0  0  0  0  0  0  0  0  0  0  0
   10.8000   -2.0542    0.0000 C   0  0  0  0  0  0  0  0  0  0  0  0
    9.6250   -3.8667    0.0000 C   0  0  0  0  0  0  0  0  0  0  0  0
    2.3917   -5.5542    0.0000 N   0  0  0  0  0  0  0  0  0  0  0  0
    5.7750   -4.9000    0.0000 C   0  0  0  0  0  0  0  0  0  0  0  0
    8.8000   -2.8417    0.0000 N   0  0  0  0  0  0  0  0  0  0  0  0
    3.6500   -5.9750    0.0000 O   0  0  0  0  0  0  0  0  0  0  0  0
    9.5042   -1.7167    0.0000 O   0  0  0  0  0  0  0  0  0  0  0  0
    1.3042   -3.4500    0.0000 C   0  0  0  0  0  0  0  0  0  0  0  0
   11.8417   -1.2167    0.0000 C   0  0  0  0  0  0  0  0  0  0  0  0
    8.0000   -5.5000    0.0000 N   0  0  0  0  0  0  0  0  0  0  0  0
   12.3042   -0.0000    0.0000 C   0  0  0  0  0  0  0  0  0  0  0  0
   13.1500   -1.0250    0.0000 C   0  0  0  0  0  0  0  0  0  0  0  0
    0.0000   -3.3042    0.0000 C   0  0  0  0  0  0  0  0  0  0  0  0
    0.7750   -2.2250    0.0000 C   0  0  0  0  0  0  0  0  0  0  0  0
    7.0542   -4.5542    0.0000 C   0  0  0  0  0  0  0  0  0  0  0  0
    9.2792   -5.1500    0.0000 C   0  0  0  0  0  0  0  0  0  0  0  0
    5.4250   -6.1917    0.0000 C   0  0  0  0  0  0  0  0  0  0  0  0
    6.2792   -3.6750    0.0000 C   0  0  0  0  0  0  0  0  0  0  0  0
    7.6500   -6.7792    0.0000 C   0  0  0  0  0  0  0  0  0  0  0  0
    6.3667   -7.1250    0.0000 C   0  0  0  0  0  0  0  0  0  0  0  0
  2  6  1  0
  1  3  2  0
  1  4  1  0
  2  5  2  0
  6 20  1  0
  4  7  2  0
  3  8  1  0
  6  9  2  0
  3 10  1  0
  9 11  1  0
  4 12  1  0
  5 13  1  0
 14 19  1  0
 13 15  1  0
 13 16  1  0
 12 17  1  0
 12 18  1  0
  8 19  1  0
 14 20  1  0
  8 21  1  0
  8 22  1  0
 23 24  1  0
 21 24  1  0
  7 10  1  0
 17 18  1  0
 14 23  1  0
  5 11  1  0
 15 16  1  0
M  END
>  <MOLFORMULA>  (583) 
C17 H23 N5 O2

>  <MOLWEIGHT>  (583) 
3.294017000000000e+002

>  <IDNUMBER>  (583) 
AT-687/PE19326

>  <PRICE>  (583) 
EUR 80/10 mg

>  <Similarity score>  (583) 
0.17

$$$$

     RDKit          2D

 26 29  0  0  0  0  0  0  0  0999 V2000
    2.1792    1.3000    0.0000 C   0  0  0  0  0  0  0  0  0  0  0  0
    3.1750    1.4042    0.0000 C   0  0  0  0  0  0  0  0  0  0  0  0
    1.7750    2.2167    0.0000 S   0  0  0  0  0  0  0  0  0  0  0  0
    3.3833    2.3833    0.0000 C   0  0  0  0  0  0  0  0  0  0  0  0
   -1.3208   -1.2958    0.0000 C   0  0  0  0  0  0  0  0  0  0  0  0
   -2.3125   -1.4000    0.0000 N   0  0  0  0  0  0  0  0  0  0  0  0
    2.5167    2.8833    0.0000 C   0  0  0  0  0  0  0  0  0  0  0  0
   -0.9125   -2.2083    0.0000 N   0  0  0  0  0  0  0  0  0  0  0  0
    1.6792    0.4333    0.0000 N   0  0  0  0  0  0  0  0  0  0  0  0
   -2.5208   -2.3792    0.0000 C   0  0  0  0  0  0  0  0  0  0  0  0
    3.8458    0.6625    0.0000 C   0  0  0  0  0  0  0  0  0  0  0  0
   -1.6542   -2.8792    0.0000 C   0  0  0  0  0  0  0  0  0  0  0  0
    3.5375   -0.2875    0.0000 N   0  0  0  0  0  0  0  0  0  0  0  0
    0.6792    0.4333    0.0000 C   0  0  0  0  0  0  0  0  0  0  0  0
   -0.8208   -0.4292    0.0000 S   0  0  0  0  0  0  0  0  0  0  0  0
   -3.3875   -2.8792    0.0000 C   0  0  0  0  0  0  0  0  0  0  0  0
    0.1792    1.3000    0.0000 O   0  0  0  0  0  0  0  0  0  0  0  0
   -1.6542   -3.8792    0.0000 C   0  0  0  0  0  0  0  0  0  0  0  0
    0.1792   -0.4292    0.0000 C   0  0  0  0  0  0  0  0  0  0  0  0
   -3.3875   -3.8792    0.0000 C   0  0  0  0  0  0  0  0  0  0  0  0
    4.2500    2.8833    0.0000 C   0  0  0  0  0  0  0  0  0  0  0  0
   -2.5208   -4.3792    0.0000 C   0  0  0  0  0  0  0  0  0  0  0  0
    2.5167    3.8833    0.0000 C   0  0  0  0  0  0  0  0  0  0  0  0
   -4.2542   -4.3792    0.0000 C   0  0  0  0  0  0  0  0  0  0  0  0
    4.2500    3.8833    0.0000 C   0  0  0  0  0  0  0  0  0  0  0  0
    3.3833    4.3792    0.0000 C   0  0  0  0  0  0  0  0  0  0  0  0
  1  2  2  0
  1  3  1  0
  2  4  1  0
  5 15  1  0
  5  6  2  0
  3  7  1  0
  5  8  1  0
  1  9  1  0
  6 10  1  0
  2 11  1  0
  8 12  1  0
 11 13  3  0
  9 14  1  0
 15 19  1  0
 10 16  1  0
 14 17  2  0
 12 18  1  0
 14 19  1  0
 16 20  2  0
  4 21  1  0
 18 22  2  0
  7 23  1  0
 20 24  1  0
 21 25  1  0
 23 26  1  0
  4  7  2  0
 25 26  1  0
 10 12  2  0
 20 22  1  0
M  END
>  <MOLFORMULA>  (584) 
C19 H18 N4 O S2

>  <MOLWEIGHT>  (584) 
3.825102000000000e+002

>  <IDNUMBER>  (584) 
AN-153/I137970

>  <PRICE>  (584) 
EUR 130/10 mg

>  <Similarity score>  (584) 
0.17

$$$$

     RDKit          2D

 22 24  0  0  0  0  0  0  0  0999 V2000
    0.7750    1.7000    0.0000 C   0  0  0  0  0  0  0  0  0  0  0  0
    1.7708    1.8042    0.0000 C   0  0  0  0  0  0  0  0  0  0  0  0
    0.3667    2.6125    0.0000 S   0  0  0  0  0  0  0  0  0  0  0  0
    1.9792    2.7833    0.0000 C   0  0  0  0  0  0  0  0  0  0  0  0
    0.2750    0.8333    0.0000 N   0  0  0  0  0  0  0  0  0  0  0  0
    1.1125    3.2833    0.0000 C   0  0  0  0  0  0  0  0  0  0  0  0
   -0.7250    0.8333    0.0000 C   0  0  0  0  0  0  0  0  0  0  0  0
    2.4375    1.0625    0.0000 C   0  0  0  0  0  0  0  0  0  0  0  0
    2.1292    0.1125    0.0000 N   0  0  0  0  0  0  0  0  0  0  0  0
   -1.2250   -0.0333    0.0000 C   0  0  0  0  0  0  0  0  0  0  0  0
   -1.2250    1.7000    0.0000 O   0  0  0  0  0  0  0  0  0  0  0  0
   -0.7250   -0.8958    0.0000 C   0  0  0  0  0  0  0  0  0  0  0  0
   -2.2250   -0.0333    0.0000 C   0  0  0  0  0  0  0  0  0  0  0  0
    2.7208    3.4542    0.0000 C   0  0  0  0  0  0  0  0  0  0  0  0
   -2.2250   -1.7625    0.0000 C   0  0  0  0  0  0  0  0  0  0  0  0
    1.3208    4.2583    0.0000 C   0  0  0  0  0  0  0  0  0  0  0  0
   -1.2250   -1.7625    0.0000 C   0  0  0  0  0  0  0  0  0  0  0  0
   -2.7250   -0.8958    0.0000 C   0  0  0  0  0  0  0  0  0  0  0  0
   -2.7250   -2.6292    0.0000 O   0  0  0  0  0  0  0  0  0  0  0  0
    2.3125    4.3625    0.0000 C   0  0  0  0  0  0  0  0  0  0  0  0
   -2.2250   -3.4958    0.0000 C   0  0  0  0  0  0  0  0  0  0  0  0
   -2.7250   -4.3625    0.0000 C   0  0  0  0  0  0  0  0  0  0  0  0
  1  2  2  0
  1  3  1  0
  2  4  1  0
  1  5  1  0
  3  6  1  0
  5  7  1  0
  2  8  1  0
  8  9  3  0
  7 10  1  0
  7 11  2  0
 10 12  1  0
 10 13  2  0
  4 14  1  0
 15 18  2  0
  6 16  1  0
 12 17  2  0
 13 18  1  0
 15 19  1  0
 16 20  1  0
 19 21  1  0
 21 22  1  0
  4  6  2  0
 14 20  1  0
 15 17  1  0
M  END
>  <MOLFORMULA>  (585) 
C17 H16 N2 O2 S

>  <MOLWEIGHT>  (585) 
3.123914000000000e+002

>  <IDNUMBER>  (585) 
AN-153/I226308

>  <PRICE>  (585) 
EUR 130/10 mg

>  <Similarity score>  (585) 
0.17

$$$$

     RDKit          2D

 24 27  0  0  0  0  0  0  0  0999 V2000
    3.6500   -3.3000    0.0000 N   0  0  0  0  0  0  0  0  0  0  0  0
    4.4250   -2.2167    0.0000 C   0  0  0  0  0  0  0  0  0  0  0  0
    2.3917   -2.8917    0.0000 C   0  0  0  0  0  0  0  0  0  0  0  0
    5.7667   -2.2167    0.0000 C   0  0  0  0  0  0  0  0  0  0  0  0
    2.3917   -1.5542    0.0000 N   0  0  0  0  0  0  0  0  0  0  0  0
    7.9917   -1.6250    0.0000 N   0  0  0  0  0  0  0  0  0  0  0  0
    3.6500   -1.1417    0.0000 O   0  0  0  0  0  0  0  0  0  0  0  0
    9.2667   -1.9750    0.0000 C   0  0  0  0  0  0  0  0  0  0  0  0
    1.3000   -3.6750    0.0000 C   0  0  0  0  0  0  0  0  0  0  0  0
    7.0542   -2.5667    0.0000 C   0  0  0  0  0  0  0  0  0  0  0  0
    0.7750   -4.8917    0.0000 C   0  0  0  0  0  0  0  0  0  0  0  0
    0.0000   -3.8000    0.0000 C   0  0  0  0  0  0  0  0  0  0  0  0
    9.6167   -3.2500    0.0000 C   0  0  0  0  0  0  0  0  0  0  0  0
   10.2042   -1.0167    0.0000 O   0  0  0  0  0  0  0  0  0  0  0  0
    5.4250   -0.9417    0.0000 C   0  0  0  0  0  0  0  0  0  0  0  0
    6.2750   -3.4500    0.0000 C   0  0  0  0  0  0  0  0  0  0  0  0
    7.6500   -0.3500    0.0000 C   0  0  0  0  0  0  0  0  0  0  0  0
   10.8917   -3.6000    0.0000 C   0  0  0  0  0  0  0  0  0  0  0  0
    6.3500   -0.0000    0.0000 C   0  0  0  0  0  0  0  0  0  0  0  0
   11.2500   -4.8917    0.0000 C   0  0  0  0  0  0  0  0  0  0  0  0
   11.8417   -2.6500    0.0000 C   0  0  0  0  0  0  0  0  0  0  0  0
   13.1250   -3.0000    0.0000 C   0  0  0  0  0  0  0  0  0  0  0  0
   12.5250   -5.2250    0.0000 C   0  0  0  0  0  0  0  0  0  0  0  0
   13.4750   -4.2750    0.0000 C   0  0  0  0  0  0  0  0  0  0  0  0
  1  2  2  0
  1  3  1  0
  2  4  1  0
  3  5  2  0
  6 10  1  0
  2  7  1  0
  6  8  1  0
  3  9  1  0
  4 10  1  0
  9 11  1  0
  9 12  1  0
  8 13  1  0
  8 14  2  0
  4 15  1  0
  4 16  1  0
 17 19  1  0
 13 18  1  0
 15 19  1  0
 18 20  1  0
 18 21  1  0
 21 22  1  0
 20 23  1  0
 22 24  1  0
  5  7  1  0
 11 12  1  0
  6 17  1  0
 23 24  1  0
M  END
>  <MOLFORMULA>  (586) 
C19 H29 N3 O2

>  <MOLWEIGHT>  (586) 
3.314571000000000e+002

>  <IDNUMBER>  (586) 
AT-687/PE19312

>  <PRICE>  (586) 
EUR 80/10 mg

>  <Similarity score>  (586) 
0.17

$$$$

     RDKit          2D

 26 28  0  0  0  0  0  0  0  0999 V2000
    2.2125    6.0417    0.0000 C   0  0  0  0  0  0  0  0  0  0  0  0
    0.1667    4.2542    0.0000 C   0  0  0  0  0  0  0  0  0  0  0  0
    4.4250    4.6375    0.0000 S   0  0  0  0  0  0  0  0  0  0  0  0
    1.2750    1.8333    0.0000 C   0  0  0  0  0  0  0  0  0  0  0  0
    9.7792    3.3625    0.0000 N   0  0  0  0  0  0  0  0  0  0  0  0
    9.2750    6.0417    0.0000 C   0  0  0  0  0  0  0  0  0  0  0  0
    3.8292    1.9583    0.0000 C   0  0  0  0  0  0  0  0  0  0  0  0
   11.4042    7.8292    0.0000 N   0  0  0  0  0  0  0  0  0  0  0  0
   12.3375    2.4708    0.0000 C   0  0  0  0  0  0  0  0  0  0  0  0
    1.6167    8.5917    0.0000 N   0  0  0  0  0  0  0  0  0  0  0  0
   14.3792    4.2542    0.0000 C   0  0  0  0  0  0  0  0  0  0  0  0
   13.8667    6.8042    0.0000 C   0  0  0  0  0  0  0  0  0  0  0  0
   -2.5583    4.7625    0.0000 C   0  0  0  0  0  0  0  0  0  0  0  0
   -5.2833    5.2750    0.0000 N   0  0  0  0  0  0  0  0  0  0  0  0
    3.6542   10.3792    0.0000 C   0  0  0  0  0  0  0  0  0  0  0  0
    6.7167    6.9292    0.0000 S   0  0  0  0  0  0  0  0  0  0  0  0
   12.7625   -0.3375    0.0000 O   0  0  0  0  0  0  0  0  0  0  0  0
    3.0625   12.9292    0.0000 O   0  0  0  0  0  0  0  0  0  0  0  0
    6.1250    9.4875    0.0000 C   0  0  0  0  0  0  0  0  0  0  0  0
   -0.5958   -0.2125    0.0000 C   0  0  0  0  0  0  0  0  0  0  0  0
    5.7792    0.1708    0.0000 C   0  0  0  0  0  0  0  0  0  0  0  0
   16.0000    8.5917    0.0000 C   0  0  0  0  0  0  0  0  0  0  0  0
   -0.4333   -2.8917    0.0000 C   0  0  0  0  0  0  0  0  0  0  0  0
    5.9542   -2.5042    0.0000 C   0  0  0  0  0  0  0  0  0  0  0  0
    1.5292   -4.6792    0.0000 C   0  0  0  0  0  0  0  0  0  0  0  0
    4.0792   -4.5500    0.0000 C   0  0  0  0  0  0  0  0  0  0  0  0
  1  2  2  0
  1  3  1  0
  2  4  1  0
  5  6  1  0
  6 16  1  0
  3  7  1  0
  6  8  2  0
  5  9  1  0
  1 10  1  0
 11 12  2  0
  8 12  1  0
  2 13  1  0
 13 14  3  0
 10 15  1  0
 16 19  1  0
  9 17  2  0
 15 18  2  0
 15 19  1  0
  4 20  1  0
  7 21  1  0
 12 22  1  0
 20 23  1  0
 21 24  1  0
 23 25  1  0
 24 26  1  0
  4  7  2  0
 25 26  1  0
  9 11  1  0
M  END
>  <MOLFORMULA>  (587) 
C18 H20 N4 O2 S2

>  <MOLWEIGHT>  (587) 
3.885140000000000e+002

>  <IDNUMBER>  (587) 
AT-225/NB85496

>  <PRICE>  (587) 
EUR 140/10 mg

>  <Similarity score>  (587) 
0.17

$$$$

     RDKit          2D

 24 26  0  0  0  0  0  0  0  0999 V2000
   -1.4000    0.3833    0.0000 C   0  0  0  0  0  0  0  0  0  0  0  0
   -1.9750    1.1958    0.0000 C   0  0  0  0  0  0  0  0  0  0  0  0
    3.1208   -0.4792    0.0000 N   0  0  0  0  0  0  0  0  0  0  0  0
    2.6125   -1.3417    0.0000 C   0  0  0  0  0  0  0  0  0  0  0  0
   -1.9750   -0.4042    0.0000 S   0  0  0  0  0  0  0  0  0  0  0  0
   -2.9208    0.8917    0.0000 C   0  0  0  0  0  0  0  0  0  0  0  0
    3.1208   -2.2083    0.0000 N   0  0  0  0  0  0  0  0  0  0  0  0
   -2.9208   -0.1000    0.0000 C   0  0  0  0  0  0  0  0  0  0  0  0
    4.1208   -0.4792    0.0000 C   0  0  0  0  0  0  0  0  0  0  0  0
    4.6292   -1.3417    0.0000 C   0  0  0  0  0  0  0  0  0  0  0  0
    4.1208   -2.2083    0.0000 C   0  0  0  0  0  0  0  0  0  0  0  0
   -0.4000    0.3833    0.0000 N   0  0  0  0  0  0  0  0  0  0  0  0
   -1.6708    2.1333    0.0000 C   0  0  0  0  0  0  0  0  0  0  0  0
   -1.3458    3.1000    0.0000 N   0  0  0  0  0  0  0  0  0  0  0  0
    0.0917   -0.4792    0.0000 C   0  0  0  0  0  0  0  0  0  0  0  0
    1.6125   -1.3417    0.0000 S   0  0  0  0  0  0  0  0  0  0  0  0
    4.6458   -3.0958    0.0000 O   0  0  0  0  0  0  0  0  0  0  0  0
   -0.4000   -1.3417    0.0000 O   0  0  0  0  0  0  0  0  0  0  0  0
    4.6458    0.3833    0.0000 N   0  0  0  0  0  0  0  0  0  0  0  0
    1.1083   -0.4792    0.0000 C   0  0  0  0  0  0  0  0  0  0  0  0
   -3.7833    1.4000    0.0000 C   0  0  0  0  0  0  0  0  0  0  0  0
   -3.7833   -0.6083    0.0000 C   0  0  0  0  0  0  0  0  0  0  0  0
   -4.6500    0.8917    0.0000 C   0  0  0  0  0  0  0  0  0  0  0  0
   -4.6500   -0.1000    0.0000 C   0  0  0  0  0  0  0  0  0  0  0  0
  1  2  2  0
  3  4  2  0
  4 16  1  0
  1  5  1  0
  2  6  1  0
  4  7  1  0
  5  8  1  0
  3  9  1  0
 10 11  1  0
  7 11  1  0
  1 12  1  0
  2 13  1  0
 13 14  3  0
 12 15  1  0
 16 20  1  0
 11 17  2  0
 15 18  2  0
  9 19  1  0
 15 20  1  0
  6 21  1  0
  8 22  1  0
 21 23  1  0
 22 24  1  0
  6  8  2  0
 23 24  1  0
  9 10  2  0
M  END
>  <MOLFORMULA>  (588) 
C15 H15 N5 O2 S2

>  <MOLWEIGHT>  (588) 
3.614485000000000e+002

>  <IDNUMBER>  (588) 
AN-153/I162547

>  <PRICE>  (588) 
EUR 130/10 mg

>  <Similarity score>  (588) 
0.17

$$$$

     RDKit          2D

 24 26  0  0  0  0  0  0  0  0999 V2000
    0.4625    1.9250    0.0000 C   0  0  0  0  0  0  0  0  0  0  0  0
    0.0583    2.8375    0.0000 C   0  0  0  0  0  0  0  0  0  0  0  0
   -1.0375   -2.4042    0.0000 N   0  0  0  0  0  0  0  0  0  0  0  0
   -0.0375   -2.4042    0.0000 C   0  0  0  0  0  0  0  0  0  0  0  0
    1.4583    2.0292    0.0000 S   0  0  0  0  0  0  0  0  0  0  0  0
    0.4625   -3.2708    0.0000 N   0  0  0  0  0  0  0  0  0  0  0  0
    0.8000    3.5083    0.0000 C   0  0  0  0  0  0  0  0  0  0  0  0
    1.6667    3.0083    0.0000 C   0  0  0  0  0  0  0  0  0  0  0  0
   -0.0375   -4.1375    0.0000 C   0  0  0  0  0  0  0  0  0  0  0  0
   -1.5375   -3.2708    0.0000 C   0  0  0  0  0  0  0  0  0  0  0  0
   -1.0375   -4.1375    0.0000 C   0  0  0  0  0  0  0  0  0  0  0  0
   -0.0375    1.0583    0.0000 N   0  0  0  0  0  0  0  0  0  0  0  0
   -0.9208    3.0458    0.0000 C   0  0  0  0  0  0  0  0  0  0  0  0
   -1.2292    3.9958    0.0000 N   0  0  0  0  0  0  0  0  0  0  0  0
    0.4625    0.1917    0.0000 C   0  0  0  0  0  0  0  0  0  0  0  0
    0.4625   -1.5375    0.0000 S   0  0  0  0  0  0  0  0  0  0  0  0
   -2.5375   -3.2708    0.0000 O   0  0  0  0  0  0  0  0  0  0  0  0
    1.4625    0.1917    0.0000 O   0  0  0  0  0  0  0  0  0  0  0  0
    0.4625   -5.0042    0.0000 N   0  0  0  0  0  0  0  0  0  0  0  0
   -0.0375   -0.6750    0.0000 C   0  0  0  0  0  0  0  0  0  0  0  0
    0.8000    4.5042    0.0000 C   0  0  0  0  0  0  0  0  0  0  0  0
    2.5333    3.5083    0.0000 C   0  0  0  0  0  0  0  0  0  0  0  0
    1.6667    5.0042    0.0000 C   0  0  0  0  0  0  0  0  0  0  0  0
    2.5333    4.5042    0.0000 C   0  0  0  0  0  0  0  0  0  0  0  0
  1  2  2  0
  3  4  2  0
  4 16  1  0
  1  5  1  0
  4  6  1  0
  2  7  1  0
  5  8  1  0
  6  9  1  0
  3 10  1  0
  9 11  2  0
  1 12  1  0
  2 13  1  0
 13 14  3  0
 12 15  1  0
 16 20  1  0
 10 17  2  0
 15 18  2  0
  9 19  1  0
 15 20  1  0
  7 21  1  0
  8 22  1  0
 21 23  1  0
 22 24  1  0
  7  8  2  0
 23 24  1  0
 10 11  1  0
M  END
>  <MOLFORMULA>  (589) 
C15 H15 N5 O2 S2

>  <MOLWEIGHT>  (589) 
3.614485000000000e+002

>  <IDNUMBER>  (589) 
AN-153/I169830

>  <PRICE>  (589) 
EUR 130/10 mg

>  <Similarity score>  (589) 
0.17

$$$$

     RDKit          2D

 26 30  0  0  0  0  0  0  0  0999 V2000
    3.9542   -2.4667    0.0000 N   0  0  0  0  0  0  0  0  0  0  0  0
    8.4250   -2.7292    0.0000 N   0  0  0  0  0  0  0  0  0  0  0  0
    8.3792   -3.5542    0.0000 C   0  0  0  0  0  0  0  0  0  0  0  0
    4.4375   -1.8042    0.0000 C   0  0  0  0  0  0  0  0  0  0  0  0
    3.1625   -2.2167    0.0000 C   0  0  0  0  0  0  0  0  0  0  0  0
    7.6500   -2.4417    0.0000 C   0  0  0  0  0  0  0  0  0  0  0  0
    3.1625   -1.3917    0.0000 N   0  0  0  0  0  0  0  0  0  0  0  0
    5.2625   -1.8042    0.0000 C   0  0  0  0  0  0  0  0  0  0  0  0
    7.1292   -3.0792    0.0000 N   0  0  0  0  0  0  0  0  0  0  0  0
    7.5792   -3.7750    0.0000 O   0  0  0  0  0  0  0  0  0  0  0  0
    3.9542   -1.1375    0.0000 O   0  0  0  0  0  0  0  0  0  0  0  0
    2.4917   -2.7042    0.0000 C   0  0  0  0  0  0  0  0  0  0  0  0
    9.0167   -4.0792    0.0000 C   0  0  0  0  0  0  0  0  0  0  0  0
    6.6375   -1.4292    0.0000 N   0  0  0  0  0  0  0  0  0  0  0  0
    1.6792   -2.7875    0.0000 C   0  0  0  0  0  0  0  0  0  0  0  0
    2.1625   -3.4542    0.0000 C   0  0  0  0  0  0  0  0  0  0  0  0
    6.0542   -2.0125    0.0000 C   0  0  0  0  0  0  0  0  0  0  0  0
    9.8167   -3.8667    0.0000 O   0  0  0  0  0  0  0  0  0  0  0  0
    7.4417   -1.6417    0.0000 C   0  0  0  0  0  0  0  0  0  0  0  0
    8.9792   -4.9042    0.0000 C   0  0  0  0  0  0  0  0  0  0  0  0
   10.2667   -4.5542    0.0000 C   0  0  0  0  0  0  0  0  0  0  0  0
    9.7500   -5.2000    0.0000 C   0  0  0  0  0  0  0  0  0  0  0  0
    5.0417   -1.0000    0.0000 C   0  0  0  0  0  0  0  0  0  0  0  0
    5.5750   -2.5667    0.0000 C   0  0  0  0  0  0  0  0  0  0  0  0
    6.4292   -0.6292    0.0000 C   0  0  0  0  0  0  0  0  0  0  0  0
    5.6292   -0.4250    0.0000 C   0  0  0  0  0  0  0  0  0  0  0  0
  2  6  1  0
  2  3  2  0
  1  4  2  0
  1  5  1  0
  6 19  1  0
  5  7  2  0
  4  8  1  0
  6  9  2  0
  9 10  1  0
  4 11  1  0
  5 12  1  0
  3 13  1  0
 14 17  1  0
 12 15  1  0
 12 16  1  0
  8 17  1  0
 13 18  1  0
 14 19  1  0
 13 20  2  0
 18 21  1  0
 20 22  1  0
  8 23  1  0
  8 24  1  0
 25 26  1  0
 23 26  1  0
  7 11  1  0
 15 16  1  0
 14 25  1  0
  3 10  1  0
 21 22  2  0
M  END
>  <MOLFORMULA>  (590) 
C18 H21 N5 O3

>  <MOLWEIGHT>  (590) 
3.553959000000000e+002

>  <IDNUMBER>  (590) 
AT-687/SK17719

>  <PRICE>  (590) 
EUR 80/10 mg

>  <Similarity score>  (590) 
0.17

$$$$

     RDKit          2D

 28 32  0  0  0  0  0  0  0  0999 V2000
    9.5000   -3.0000    0.0000 C   0  0  0  0  0  0  0  0  0  0  0  0
   10.3417   -4.0500    0.0000 C   0  0  0  0  0  0  0  0  0  0  0  0
    8.1917   -3.0000    0.0000 C   0  0  0  0  0  0  0  0  0  0  0  0
   11.6667   -3.9167    0.0000 N   0  0  0  0  0  0  0  0  0  0  0  0
    7.7750   -1.7250    0.0000 N   0  0  0  0  0  0  0  0  0  0  0  0
    9.9250   -1.7417    0.0000 N   0  0  0  0  0  0  0  0  0  0  0  0
    8.8667   -0.9500    0.0000 N   0  0  0  0  0  0  0  0  0  0  0  0
   12.1750   -5.1500    0.0000 C   0  0  0  0  0  0  0  0  0  0  0  0
   10.0500   -5.3417    0.0000 N   0  0  0  0  0  0  0  0  0  0  0  0
   11.1917   -6.0167    0.0000 O   0  0  0  0  0  0  0  0  0  0  0  0
    6.4750   -1.4292    0.0000 C   0  0  0  0  0  0  0  0  0  0  0  0
    7.3000   -3.9750    0.0000 C   0  0  0  0  0  0  0  0  0  0  0  0
    6.0000   -3.6917    0.0000 O   0  0  0  0  0  0  0  0  0  0  0  0
    5.6000   -2.4250    0.0000 C   0  0  0  0  0  0  0  0  0  0  0  0
   13.4667   -5.5167    0.0000 C   0  0  0  0  0  0  0  0  0  0  0  0
    4.3000   -2.1417    0.0000 C   0  0  0  0  0  0  0  0  0  0  0  0
   14.4250   -4.6000    0.0000 N   0  0  0  0  0  0  0  0  0  0  0  0
    3.4000   -3.1167    0.0000 C   0  0  0  0  0  0  0  0  0  0  0  0
    3.8792   -0.8750    0.0000 C   0  0  0  0  0  0  0  0  0  0  0  0
    1.6917   -1.5667    0.0000 C   0  0  0  0  0  0  0  0  0  0  0  0
    2.5917   -0.5750    0.0000 C   0  0  0  0  0  0  0  0  0  0  0  0
    2.1042   -2.8500    0.0000 C   0  0  0  0  0  0  0  0  0  0  0  0
    0.3750   -1.2750    0.0000 O   0  0  0  0  0  0  0  0  0  0  0  0
   15.7000   -4.9750    0.0000 C   0  0  0  0  0  0  0  0  0  0  0  0
   13.7750   -6.8167    0.0000 C   0  0  0  0  0  0  0  0  0  0  0  0
    0.0000   -0.0000    0.0000 C   0  0  0  0  0  0  0  0  0  0  0  0
   16.0042   -6.2750    0.0000 C   0  0  0  0  0  0  0  0  0  0  0  0
   15.0500   -7.1792    0.0000 C   0  0  0  0  0  0  0  0  0  0  0  0
  1  2  1  0
  1  3  2  0
  2  4  1  0
  3  5  1  0
  1  6  1  0
  6  7  2  0
  4  8  2  0
  2  9  2  0
  9 10  1  0
  5 11  1  0
  3 12  1  0
 12 13  1  0
 13 14  1  0
  8 15  1  0
 14 16  1  0
 15 17  1  0
 16 18  2  0
 16 19  1  0
 20 21  1  0
 19 21  2  0
 18 22  1  0
 20 23  1  0
 17 24  2  0
 15 25  2  0
 23 26  1  0
 27 28  2  0
 25 28  1  0
  5  7  1  0
  8 10  1  0
 11 14  1  0
 20 22  2  0
 24 27  1  0
M  END
>  <MOLFORMULA>  (591) 
C19 H16 N6 O3

>  <MOLWEIGHT>  (591) 
3.763744000000000e+002

>  <IDNUMBER>  (591) 
AT-687/PE23614

>  <PRICE>  (591) 
EUR 80/10 mg

>  <Similarity score>  (591) 
0.17

$$$$

     RDKit          2D

 24 26  0  0  0  0  0  0  0  0999 V2000
    0.4625    1.9250    0.0000 C   0  0  0  0  0  0  0  0  0  0  0  0
    0.0583    2.8375    0.0000 C   0  0  0  0  0  0  0  0  0  0  0  0
    1.4583    2.0292    0.0000 S   0  0  0  0  0  0  0  0  0  0  0  0
    0.8000    3.5083    0.0000 C   0  0  0  0  0  0  0  0  0  0  0  0
    1.6667    3.0083    0.0000 C   0  0  0  0  0  0  0  0  0  0  0  0
   -1.0375   -2.4042    0.0000 N   0  0  0  0  0  0  0  0  0  0  0  0
    0.4625   -3.2708    0.0000 N   0  0  0  0  0  0  0  0  0  0  0  0
   -0.0375   -2.4042    0.0000 C   0  0  0  0  0  0  0  0  0  0  0  0
   -0.0375    1.0583    0.0000 N   0  0  0  0  0  0  0  0  0  0  0  0
   -0.9208    3.0458    0.0000 C   0  0  0  0  0  0  0  0  0  0  0  0
   -1.5375   -3.2708    0.0000 C   0  0  0  0  0  0  0  0  0  0  0  0
   -0.0375   -4.1375    0.0000 C   0  0  0  0  0  0  0  0  0  0  0  0
   -1.0375   -4.1375    0.0000 C   0  0  0  0  0  0  0  0  0  0  0  0
   -1.2292    3.9958    0.0000 N   0  0  0  0  0  0  0  0  0  0  0  0
    0.4625    0.1917    0.0000 C   0  0  0  0  0  0  0  0  0  0  0  0
    0.4625   -1.5375    0.0000 S   0  0  0  0  0  0  0  0  0  0  0  0
    1.4625    0.1917    0.0000 O   0  0  0  0  0  0  0  0  0  0  0  0
   -0.0375   -0.6750    0.0000 C   0  0  0  0  0  0  0  0  0  0  0  0
   -2.5375   -3.2708    0.0000 N   0  0  0  0  0  0  0  0  0  0  0  0
    0.4625   -5.0042    0.0000 O   0  0  0  0  0  0  0  0  0  0  0  0
    0.8000    4.5042    0.0000 C   0  0  0  0  0  0  0  0  0  0  0  0
    2.5333    3.5083    0.0000 C   0  0  0  0  0  0  0  0  0  0  0  0
    1.6667    5.0042    0.0000 C   0  0  0  0  0  0  0  0  0  0  0  0
    2.5333    4.5042    0.0000 C   0  0  0  0  0  0  0  0  0  0  0  0
  1  2  2  0
  1  3  1  0
  2  4  1  0
  3  5  1  0
  6  8  2  0
  7  8  1  0
  8 16  1  0
  1  9  1  0
  2 10  1  0
  6 11  1  0
  7 12  2  0
 12 13  1  0
 10 14  3  0
  9 15  1  0
 16 18  1  0
 15 17  2  0
 15 18  1  0
 11 19  1  0
 12 20  1  0
  4 21  1  0
  5 22  1  0
 21 23  1  0
 22 24  1  0
  4  5  2  0
 23 24  1  0
 11 13  2  0
M  END
>  <MOLFORMULA>  (592) 
C15 H15 N5 O2 S2

>  <MOLWEIGHT>  (592) 
3.614485000000000e+002

>  <IDNUMBER>  (592) 
AN-153/I189190

>  <PRICE>  (592) 
EUR 130/10 mg

>  <Similarity score>  (592) 
0.17

$$$$

     RDKit          2D

 30 33  0  0  0  0  0  0  0  0999 V2000
   -0.9250   -2.9125    0.0000 C   0  0  0  0  0  0  0  0  0  0  0  0
   -0.0583   -3.4125    0.0000 C   0  0  0  0  0  0  0  0  0  0  0  0
   -1.6667   -3.5792    0.0000 S   0  0  0  0  0  0  0  0  0  0  0  0
   -0.2667   -4.3875    0.0000 C   0  0  0  0  0  0  0  0  0  0  0  0
   -1.0292   -1.9167    0.0000 N   0  0  0  0  0  0  0  0  0  0  0  0
   -1.2625   -4.4958    0.0000 C   0  0  0  0  0  0  0  0  0  0  0  0
   -0.2208   -1.3292    0.0000 C   0  0  0  0  0  0  0  0  0  0  0  0
    0.3792    1.2500    0.0000 C   0  0  0  0  0  0  0  0  0  0  0  0
   -0.6375    2.6500    0.0000 N   0  0  0  0  0  0  0  0  0  0  0  0
    0.8542   -3.0042    0.0000 C   0  0  0  0  0  0  0  0  0  0  0  0
   -0.5333    1.6542    0.0000 N   0  0  0  0  0  0  0  0  0  0  0  0
    1.1875    1.8375    0.0000 N   0  0  0  0  0  0  0  0  0  0  0  0
    0.1708    3.2375    0.0000 C   0  0  0  0  0  0  0  0  0  0  0  0
    1.6625   -3.5917    0.0000 N   0  0  0  0  0  0  0  0  0  0  0  0
    0.4833    0.2542    0.0000 S   0  0  0  0  0  0  0  0  0  0  0  0
   -0.3250   -0.3333    0.0000 C   0  0  0  0  0  0  0  0  0  0  0  0
    1.0833    2.8292    0.0000 C   0  0  0  0  0  0  0  0  0  0  0  0
    0.6917   -1.7375    0.0000 O   0  0  0  0  0  0  0  0  0  0  0  0
    0.0667    4.2292    0.0000 C   0  0  0  0  0  0  0  0  0  0  0  0
    0.3208   -5.2000    0.0000 C   0  0  0  0  0  0  0  0  0  0  0  0
   -1.6667   -5.4083    0.0000 C   0  0  0  0  0  0  0  0  0  0  0  0
   -1.2375    0.0708    0.0000 C   0  0  0  0  0  0  0  0  0  0  0  0
   -0.8500    4.6333    0.0000 C   0  0  0  0  0  0  0  0  0  0  0  0
    0.8750    4.8167    0.0000 C   0  0  0  0  0  0  0  0  0  0  0  0
   -0.0875   -6.1125    0.0000 C   0  0  0  0  0  0  0  0  0  0  0  0
   -1.0792   -6.2167    0.0000 C   0  0  0  0  0  0  0  0  0  0  0  0
   -1.3417    1.0667    0.0000 C   0  0  0  0  0  0  0  0  0  0  0  0
   -0.9542    5.6292    0.0000 C   0  0  0  0  0  0  0  0  0  0  0  0
    0.7708    5.8083    0.0000 C   0  0  0  0  0  0  0  0  0  0  0  0
   -0.1458    6.2167    0.0000 C   0  0  0  0  0  0  0  0  0  0  0  0
  1  2  2  0
  1  3  1  0
  2  4  1  0
  1  5  1  0
  3  6  1  0
  5  7  1  0
  8 15  1  0
  9 11  1  0
  2 10  1  0
  8 11  2  0
  8 12  1  0
 13 17  1  0
 10 14  3  0
 15 16  1  0
  7 16  1  0
 12 17  2  0
  7 18  2  0
 13 19  1  0
  4 20  1  0
  6 21  1  0
 16 22  1  0
 19 23  2  0
 19 24  1  0
 20 25  1  0
 21 26  1  0
 22 27  1  0
 23 28  1  0
 24 29  2  0
 29 30  1  0
  4  6  2  0
 25 26  1  0
  9 13  2  0
 28 30  2  0
M  END
>  <MOLFORMULA>  (593) 
C22 H21 N5 O S2

>  <MOLWEIGHT>  (593) 
4.355739000000000e+002

>  <IDNUMBER>  (593) 
AN-153/I283643

>  <PRICE>  (593) 
EUR 130/10 mg

>  <Similarity score>  (593) 
0.17

$$$$

     RDKit          2D

 23 25  0  0  0  0  0  0  0  0999 V2000
    1.5250    1.2667    0.0000 C   0  0  0  0  0  0  0  0  0  0  0  0
    2.5208    1.3708    0.0000 C   0  0  0  0  0  0  0  0  0  0  0  0
    1.1167    2.1792    0.0000 S   0  0  0  0  0  0  0  0  0  0  0  0
    2.7292    2.3500    0.0000 C   0  0  0  0  0  0  0  0  0  0  0  0
    1.0250    0.4000    0.0000 N   0  0  0  0  0  0  0  0  0  0  0  0
    1.8625    2.8500    0.0000 C   0  0  0  0  0  0  0  0  0  0  0  0
    0.0250    0.4000    0.0000 C   0  0  0  0  0  0  0  0  0  0  0  0
    3.1875    0.6292    0.0000 C   0  0  0  0  0  0  0  0  0  0  0  0
   -0.4750   -0.4667    0.0000 C   0  0  0  0  0  0  0  0  0  0  0  0
    2.8792   -0.3208    0.0000 N   0  0  0  0  0  0  0  0  0  0  0  0
   -1.4750   -0.4667    0.0000 C   0  0  0  0  0  0  0  0  0  0  0  0
    0.0250   -1.3292    0.0000 C   0  0  0  0  0  0  0  0  0  0  0  0
   -0.4750    1.2667    0.0000 O   0  0  0  0  0  0  0  0  0  0  0  0
   -1.4750   -2.1958    0.0000 C   0  0  0  0  0  0  0  0  0  0  0  0
   -1.9750   -1.3292    0.0000 C   0  0  0  0  0  0  0  0  0  0  0  0
   -0.4750   -2.1958    0.0000 C   0  0  0  0  0  0  0  0  0  0  0  0
    3.4708    3.0208    0.0000 C   0  0  0  0  0  0  0  0  0  0  0  0
    2.0708    3.8292    0.0000 C   0  0  0  0  0  0  0  0  0  0  0  0
    0.0250   -3.0625    0.0000 O   0  0  0  0  0  0  0  0  0  0  0  0
   -2.9750   -1.3292    0.0000 O   0  0  0  0  0  0  0  0  0  0  0  0
    3.0625    3.9333    0.0000 C   0  0  0  0  0  0  0  0  0  0  0  0
   -0.4750   -3.9292    0.0000 C   0  0  0  0  0  0  0  0  0  0  0  0
   -3.4750   -2.1958    0.0000 C   0  0  0  0  0  0  0  0  0  0  0  0
  1  2  2  0
  1  3  1  0
  2  4  1  0
  1  5  1  0
  3  6  1  0
  5  7  1  0
  2  8  1  0
  7  9  1  0
  8 10  3  0
  9 11  2  0
  9 12  1  0
  7 13  2  0
 14 16  1  0
 11 15  1  0
 12 16  2  0
  4 17  1  0
  6 18  1  0
 16 19  1  0
 15 20  1  0
 18 21  1  0
 19 22  1  0
 20 23  1  0
  4  6  2  0
 17 21  1  0
 14 15  2  0
M  END
>  <MOLFORMULA>  (594) 
C17 H16 N2 O3 S

>  <MOLWEIGHT>  (594) 
3.283904000000000e+002

>  <IDNUMBER>  (594) 
AN-153/I226312

>  <PRICE>  (594) 
EUR 130/10 mg

>  <Similarity score>  (594) 
0.17

$$$$

     RDKit          2D

 24 27  0  0  0  0  0  0  0  0999 V2000
    3.6750   -3.3000    0.0000 N   0  0  0  0  0  0  0  0  0  0  0  0
    4.4500   -2.2250    0.0000 C   0  0  0  0  0  0  0  0  0  0  0  0
    2.4042   -2.8792    0.0000 C   0  0  0  0  0  0  0  0  0  0  0  0
    5.7792   -2.2250    0.0000 C   0  0  0  0  0  0  0  0  0  0  0  0
    2.4042   -1.5542    0.0000 N   0  0  0  0  0  0  0  0  0  0  0  0
    8.0042   -1.6292    0.0000 N   0  0  0  0  0  0  0  0  0  0  0  0
    3.6750   -1.1500    0.0000 O   0  0  0  0  0  0  0  0  0  0  0  0
    1.3250   -3.6750    0.0000 C   0  0  0  0  0  0  0  0  0  0  0  0
    9.2792   -1.9750    0.0000 C   0  0  0  0  0  0  0  0  0  0  0  0
    7.0542   -2.5542    0.0000 C   0  0  0  0  0  0  0  0  0  0  0  0
    0.8000   -4.8792    0.0000 C   0  0  0  0  0  0  0  0  0  0  0  0
    0.0000   -3.8042    0.0000 C   0  0  0  0  0  0  0  0  0  0  0  0
   10.2292   -1.0292    0.0000 O   0  0  0  0  0  0  0  0  0  0  0  0
    9.6292   -3.2542    0.0000 C   0  0  0  0  0  0  0  0  0  0  0  0
    5.4292   -0.9292    0.0000 C   0  0  0  0  0  0  0  0  0  0  0  0
    6.3000   -3.4542    0.0000 C   0  0  0  0  0  0  0  0  0  0  0  0
    7.6542   -0.3292    0.0000 C   0  0  0  0  0  0  0  0  0  0  0  0
   10.9250   -3.6042    0.0000 C   0  0  0  0  0  0  0  0  0  0  0  0
    6.3792   -0.0000    0.0000 C   0  0  0  0  0  0  0  0  0  0  0  0
   11.2750   -4.8792    0.0000 C   0  0  0  0  0  0  0  0  0  0  0  0
   12.5000   -5.3750    0.0000 C   0  0  0  0  0  0  0  0  0  0  0  0
   10.4250   -5.9250    0.0000 C   0  0  0  0  0  0  0  0  0  0  0  0
   11.1500   -7.0292    0.0000 C   0  0  0  0  0  0  0  0  0  0  0  0
   12.4292   -6.6792    0.0000 C   0  0  0  0  0  0  0  0  0  0  0  0
  1  2  2  0
  1  3  1  0
  2  4  1  0
  3  5  2  0
  6 10  1  0
  2  7  1  0
  3  8  1  0
  6  9  1  0
  4 10  1  0
  8 11  1  0
  8 12  1  0
  9 13  2  0
  9 14  1  0
  4 15  1  0
  4 16  1  0
 17 19  1  0
 14 18  1  0
 15 19  1  0
 18 20  1  0
 20 21  1  0
 20 22  1  0
 22 23  1  0
 21 24  1  0
  5  7  1  0
 11 12  1  0
  6 17  1  0
 23 24  1  0
M  END
>  <MOLFORMULA>  (595) 
C19 H29 N3 O2

>  <MOLWEIGHT>  (595) 
3.314571000000000e+002

>  <IDNUMBER>  (595) 
AT-687/PE19313

>  <PRICE>  (595) 
EUR 80/10 mg

>  <Similarity score>  (595) 
0.17

$$$$

     RDKit          2D

 23 25  0  0  0  0  0  0  0  0999 V2000
   -0.2250    2.0125    0.0000 C   0  0  0  0  0  0  0  0  0  0  0  0
    0.4750    2.7250    0.0000 C   0  0  0  0  0  0  0  0  0  0  0  0
    0.2375    1.1250    0.0000 S   0  0  0  0  0  0  0  0  0  0  0  0
    1.3708    2.2792    0.0000 C   0  0  0  0  0  0  0  0  0  0  0  0
   -1.2125    2.1583    0.0000 N   0  0  0  0  0  0  0  0  0  0  0  0
    1.2250    1.2917    0.0000 C   0  0  0  0  0  0  0  0  0  0  0  0
   -1.8333    1.3750    0.0000 C   0  0  0  0  0  0  0  0  0  0  0  0
    0.3125    3.7125    0.0000 C   0  0  0  0  0  0  0  0  0  0  0  0
   -0.6250    4.0583    0.0000 N   0  0  0  0  0  0  0  0  0  0  0  0
   -1.4708    0.4458    0.0000 C   0  0  0  0  0  0  0  0  0  0  0  0
   -2.8250    1.5250    0.0000 O   0  0  0  0  0  0  0  0  0  0  0  0
   -0.4792    0.3000    0.0000 C   0  0  0  0  0  0  0  0  0  0  0  0
   -2.0917   -0.3375    0.0000 C   0  0  0  0  0  0  0  0  0  0  0  0
   -0.3708   -2.3458    0.0000 O   0  0  0  0  0  0  0  0  0  0  0  0
   -0.7375   -1.4125    0.0000 C   0  0  0  0  0  0  0  0  0  0  0  0
    2.3583    2.4458    0.0000 C   0  0  0  0  0  0  0  0  0  0  0  0
    2.1208    0.8458    0.0000 C   0  0  0  0  0  0  0  0  0  0  0  0
   -1.7250   -1.2667    0.0000 C   0  0  0  0  0  0  0  0  0  0  0  0
   -0.1125   -0.6333    0.0000 C   0  0  0  0  0  0  0  0  0  0  0  0
    2.8208    1.5583    0.0000 C   0  0  0  0  0  0  0  0  0  0  0  0
   -0.9917   -3.1292    0.0000 C   0  0  0  0  0  0  0  0  0  0  0  0
   -0.6250   -4.0583    0.0000 C   0  0  0  0  0  0  0  0  0  0  0  0
   -1.9792   -2.9792    0.0000 C   0  0  0  0  0  0  0  0  0  0  0  0
  1  2  2  0
  1  3  1  0
  2  4  1  0
  1  5  1  0
  3  6  1  0
  5  7  1  0
  2  8  1  0
  8  9  3  0
  7 10  1  0
  7 11  2  0
 10 12  2  0
 10 13  1  0
 14 15  1  0
 15 18  1  0
  4 16  1  0
  6 17  1  0
 13 18  2  0
 12 19  1  0
 17 20  1  0
 14 21  1  0
 21 22  1  0
 21 23  1  0
  4  6  2  0
 16 20  1  0
 15 19  2  0
M  END
>  <MOLFORMULA>  (596) 
C18 H18 N2 O2 S

>  <MOLWEIGHT>  (596) 
3.264182000000000e+002

>  <IDNUMBER>  (596) 
AN-153/I224141

>  <PRICE>  (596) 
EUR 130/10 mg

>  <Similarity score>  (596) 
0.17

$$$$

     RDKit          2D

 25 28  0  0  0  0  0  0  0  0999 V2000
    3.6500   -1.5750    0.0000 N   0  0  0  0  0  0  0  0  0  0  0  0
    4.4417   -2.6500    0.0000 C   0  0  0  0  0  0  0  0  0  0  0  0
    2.3917   -1.9917    0.0000 C   0  0  0  0  0  0  0  0  0  0  0  0
    5.7667   -2.6500    0.0000 C   0  0  0  0  0  0  0  0  0  0  0  0
    7.9792   -3.2500    0.0000 N   0  0  0  0  0  0  0  0  0  0  0  0
    2.3917   -3.3167    0.0000 N   0  0  0  0  0  0  0  0  0  0  0  0
    9.2667   -2.9000    0.0000 C   0  0  0  0  0  0  0  0  0  0  0  0
    3.6500   -3.7292    0.0000 O   0  0  0  0  0  0  0  0  0  0  0  0
    1.3250   -1.2000    0.0000 C   0  0  0  0  0  0  0  0  0  0  0  0
    7.0500   -2.3000    0.0000 C   0  0  0  0  0  0  0  0  0  0  0  0
   10.2000   -3.8500    0.0000 C   0  0  0  0  0  0  0  0  0  0  0  0
    0.0000   -1.0667    0.0000 C   0  0  0  0  0  0  0  0  0  0  0  0
    0.7750   -0.0000    0.0000 C   0  0  0  0  0  0  0  0  0  0  0  0
    9.8667   -5.1250    0.0000 C   0  0  0  0  0  0  0  0  0  0  0  0
   10.8000   -6.0667    0.0000 C   0  0  0  0  0  0  0  0  0  0  0  0
   12.0750   -5.7250    0.0000 C   0  0  0  0  0  0  0  0  0  0  0  0
    9.6167   -1.6250    0.0000 O   0  0  0  0  0  0  0  0  0  0  0  0
   11.4750   -3.5000    0.0000 C   0  0  0  0  0  0  0  0  0  0  0  0
   12.4250   -4.4417    0.0000 C   0  0  0  0  0  0  0  0  0  0  0  0
   10.4500   -7.3500    0.0000 F   0  0  0  0  0  0  0  0  0  0  0  0
    7.6500   -4.5250    0.0000 C   0  0  0  0  0  0  0  0  0  0  0  0
    5.4167   -3.9250    0.0000 C   0  0  0  0  0  0  0  0  0  0  0  0
   13.0250   -6.6667    0.0000 F   0  0  0  0  0  0  0  0  0  0  0  0
    6.2750   -1.4167    0.0000 C   0  0  0  0  0  0  0  0  0  0  0  0
    6.3500   -4.8792    0.0000 C   0  0  0  0  0  0  0  0  0  0  0  0
  1  2  2  0
  1  3  1  0
  2  4  1  0
  5 10  1  0
  3  6  2  0
  5  7  1  0
  2  8  1  0
  3  9  1  0
  4 10  1  0
  7 11  1  0
  9 12  1  0
  9 13  1  0
 11 14  2  0
 14 15  1  0
 16 19  1  0
  7 17  2  0
 11 18  1  0
 18 19  2  0
 15 20  1  0
 21 25  1  0
  4 22  1  0
 16 23  1  0
  4 24  1  0
 22 25  1  0
  6  8  1  0
 12 13  1  0
  5 21  1  0
 15 16  2  0
M  END
>  <MOLFORMULA>  (597) 
C18 H19 F2 N3 O2

>  <MOLWEIGHT>  (597) 
3.473631000000000e+002

>  <IDNUMBER>  (597) 
AT-687/PE19314

>  <PRICE>  (597) 
EUR 80/10 mg

>  <Similarity score>  (597) 
0.17

$$$$

     RDKit          2D

 27 30  0  0  0  0  0  0  0  0999 V2000
   -3.3958   -0.1125    0.0000 C   0  0  0  0  0  0  0  0  0  0  0  0
   -3.9875   -0.9208    0.0000 C   0  0  0  0  0  0  0  0  0  0  0  0
   -3.9875    0.6958    0.0000 S   0  0  0  0  0  0  0  0  0  0  0  0
   -4.9375   -0.6125    0.0000 C   0  0  0  0  0  0  0  0  0  0  0  0
    0.6042    1.6208    0.0000 C   0  0  0  0  0  0  0  0  0  0  0  0
    1.1917    2.4292    0.0000 N   0  0  0  0  0  0  0  0  0  0  0  0
   -4.9375    0.3875    0.0000 C   0  0  0  0  0  0  0  0  0  0  0  0
    1.1917    0.8125    0.0000 S   0  0  0  0  0  0  0  0  0  0  0  0
   -2.3958   -0.1125    0.0000 N   0  0  0  0  0  0  0  0  0  0  0  0
    2.1417    1.1208    0.0000 C   0  0  0  0  0  0  0  0  0  0  0  0
   -3.6750   -1.8708    0.0000 C   0  0  0  0  0  0  0  0  0  0  0  0
    2.1417    2.1208    0.0000 C   0  0  0  0  0  0  0  0  0  0  0  0
   -4.3458   -2.6167    0.0000 N   0  0  0  0  0  0  0  0  0  0  0  0
   -1.8958    0.7542    0.0000 C   0  0  0  0  0  0  0  0  0  0  0  0
    3.0083    0.6208    0.0000 C   0  0  0  0  0  0  0  0  0  0  0  0
   -0.3958    1.6208    0.0000 S   0  0  0  0  0  0  0  0  0  0  0  0
   -2.3958    1.6208    0.0000 O   0  0  0  0  0  0  0  0  0  0  0  0
    3.0083    2.6208    0.0000 C   0  0  0  0  0  0  0  0  0  0  0  0
   -0.8958    0.7542    0.0000 C   0  0  0  0  0  0  0  0  0  0  0  0
    3.8750    1.1208    0.0000 C   0  0  0  0  0  0  0  0  0  0  0  0
   -5.8875   -0.9208    0.0000 C   0  0  0  0  0  0  0  0  0  0  0  0
   -5.8875    0.6958    0.0000 C   0  0  0  0  0  0  0  0  0  0  0  0
    3.8750    2.1208    0.0000 C   0  0  0  0  0  0  0  0  0  0  0  0
    4.7375    0.6208    0.0000 O   0  0  0  0  0  0  0  0  0  0  0  0
   -6.4708   -0.1125    0.0000 C   0  0  0  0  0  0  0  0  0  0  0  0
    5.6042    1.1208    0.0000 C   0  0  0  0  0  0  0  0  0  0  0  0
    6.4708    0.6208    0.0000 C   0  0  0  0  0  0  0  0  0  0  0  0
  1  2  2  0
  1  3  1  0
  2  4  1  0
  5 16  1  0
  5  6  2  0
  3  7  1  0
  5  8  1  0
  1  9  1  0
  8 10  1  0
  2 11  1  0
  6 12  1  0
 11 13  3  0
  9 14  1  0
 10 15  2  0
 16 19  1  0
 14 17  2  0
 12 18  2  0
 14 19  1  0
 15 20  1  0
  4 21  1  0
  7 22  1  0
 18 23  1  0
 20 24  1  0
 22 25  1  0
 24 26  1  0
 26 27  1  0
  4  7  2  0
 21 25  1  0
 10 12  1  0
 20 23  2  0
M  END
>  <MOLFORMULA>  (598) 
C19 H17 N3 O2 S3

>  <MOLWEIGHT>  (598) 
4.155603000000000e+002

>  <IDNUMBER>  (598) 
AN-153/I184185

>  <PRICE>  (598) 
EUR 130/10 mg

>  <Similarity score>  (598) 
0.17

$$$$

     RDKit          2D

 24 26  0  0  0  0  0  0  0  0999 V2000
    0.7125    1.4917    0.0000 C   0  0  0  0  0  0  0  0  0  0  0  0
    0.3042    2.4042    0.0000 C   0  0  0  0  0  0  0  0  0  0  0  0
    1.7083    1.5958    0.0000 S   0  0  0  0  0  0  0  0  0  0  0  0
    1.0500    3.0750    0.0000 C   0  0  0  0  0  0  0  0  0  0  0  0
    0.2125    0.6250    0.0000 N   0  0  0  0  0  0  0  0  0  0  0  0
    1.9167    2.5750    0.0000 C   0  0  0  0  0  0  0  0  0  0  0  0
    0.7125   -0.2417    0.0000 C   0  0  0  0  0  0  0  0  0  0  0  0
   -0.6708    2.6125    0.0000 C   0  0  0  0  0  0  0  0  0  0  0  0
    0.2125   -1.1042    0.0000 C   0  0  0  0  0  0  0  0  0  0  0  0
   -1.3417    1.8708    0.0000 N   0  0  0  0  0  0  0  0  0  0  0  0
    0.7125   -1.9708    0.0000 C   0  0  0  0  0  0  0  0  0  0  0  0
   -0.7875   -1.1083    0.0000 C   0  0  0  0  0  0  0  0  0  0  0  0
    1.7125   -0.2417    0.0000 O   0  0  0  0  0  0  0  0  0  0  0  0
   -0.7875   -2.8375    0.0000 C   0  0  0  0  0  0  0  0  0  0  0  0
    0.2125   -2.8375    0.0000 C   0  0  0  0  0  0  0  0  0  0  0  0
   -1.2875   -1.9708    0.0000 C   0  0  0  0  0  0  0  0  0  0  0  0
    1.0500    4.0708    0.0000 C   0  0  0  0  0  0  0  0  0  0  0  0
    2.7833    3.0750    0.0000 C   0  0  0  0  0  0  0  0  0  0  0  0
   -2.2875   -1.9708    0.0000 O   0  0  0  0  0  0  0  0  0  0  0  0
    0.7125   -3.7042    0.0000 O   0  0  0  0  0  0  0  0  0  0  0  0
   -2.7875   -2.8375    0.0000 C   0  0  0  0  0  0  0  0  0  0  0  0
    0.2125   -4.5708    0.0000 C   0  0  0  0  0  0  0  0  0  0  0  0
    1.9167    4.5708    0.0000 C   0  0  0  0  0  0  0  0  0  0  0  0
    2.7833    4.0708    0.0000 C   0  0  0  0  0  0  0  0  0  0  0  0
  1  2  2  0
  1  3  1  0
  2  4  1  0
  1  5  1  0
  3  6  1  0
  5  7  1  0
  2  8  1  0
  7  9  1  0
  8 10  3  0
  9 11  2  0
  9 12  1  0
  7 13  2  0
 14 16  1  0
 11 15  1  0
 12 16  2  0
  4 17  1  0
  6 18  1  0
 16 19  1  0
 15 20  1  0
 19 21  1  0
 20 22  1  0
 17 23  1  0
 18 24  1  0
  4  6  2  0
 23 24  1  0
 14 15  2  0
M  END
>  <MOLFORMULA>  (599) 
C18 H18 N2 O3 S

>  <MOLWEIGHT>  (599) 
3.424172000000000e+002

>  <IDNUMBER>  (599) 
AN-153/I176664

>  <PRICE>  (599) 
EUR 130/10 mg

>  <Similarity score>  (599) 
0.17

$$$$

     RDKit          2D

 23 26  0  0  0  0  0  0  0  0999 V2000
    3.6667   -3.3000    0.0000 N   0  0  0  0  0  0  0  0  0  0  0  0
    4.4417   -2.2167    0.0000 C   0  0  0  0  0  0  0  0  0  0  0  0
    2.4000   -2.8750    0.0000 C   0  0  0  0  0  0  0  0  0  0  0  0
    5.7667   -2.2167    0.0000 C   0  0  0  0  0  0  0  0  0  0  0  0
    2.4000   -1.5500    0.0000 N   0  0  0  0  0  0  0  0  0  0  0  0
    8.0000   -1.6250    0.0000 N   0  0  0  0  0  0  0  0  0  0  0  0
    3.6667   -1.1417    0.0000 O   0  0  0  0  0  0  0  0  0  0  0  0
    9.2792   -1.9667    0.0000 C   0  0  0  0  0  0  0  0  0  0  0  0
    1.3167   -3.6667    0.0000 C   0  0  0  0  0  0  0  0  0  0  0  0
    7.0500   -2.5667    0.0000 C   0  0  0  0  0  0  0  0  0  0  0  0
    0.7667   -4.8750    0.0000 C   0  0  0  0  0  0  0  0  0  0  0  0
    0.0000   -3.8250    0.0000 C   0  0  0  0  0  0  0  0  0  0  0  0
    9.6417   -3.2500    0.0000 C   0  0  0  0  0  0  0  0  0  0  0  0
   10.2417   -1.0250    0.0000 O   0  0  0  0  0  0  0  0  0  0  0  0
    5.4250   -0.9292    0.0000 C   0  0  0  0  0  0  0  0  0  0  0  0
    6.2750   -3.4417    0.0000 C   0  0  0  0  0  0  0  0  0  0  0  0
    7.6500   -0.3292    0.0000 C   0  0  0  0  0  0  0  0  0  0  0  0
   10.9167   -3.6000    0.0000 C   0  0  0  0  0  0  0  0  0  0  0  0
    6.3750   -0.0000    0.0000 C   0  0  0  0  0  0  0  0  0  0  0  0
   11.4000   -4.8417    0.0000 C   0  0  0  0  0  0  0  0  0  0  0  0
   11.9500   -2.7667    0.0000 C   0  0  0  0  0  0  0  0  0  0  0  0
   13.0542   -3.4792    0.0000 C   0  0  0  0  0  0  0  0  0  0  0  0
   12.7292   -4.7750    0.0000 C   0  0  0  0  0  0  0  0  0  0  0  0
  1  2  2  0
  1  3  1  0
  2  4  1  0
  3  5  2  0
  6 10  1  0
  2  7  1  0
  6  8  1  0
  3  9  1  0
  4 10  1  0
  9 11  1  0
  9 12  1  0
  8 13  1  0
  8 14  2  0
  4 15  1  0
  4 16  1  0
 17 19  1  0
 13 18  1  0
 15 19  1  0
 18 20  1  0
 18 21  1  0
 21 22  1  0
 20 23  1  0
  5  7  1  0
 11 12  1  0
  6 17  1  0
 22 23  1  0
M  END
>  <MOLFORMULA>  (600) 
C18 H27 N3 O2

>  <MOLWEIGHT>  (600) 
3.174303000000000e+002

>  <IDNUMBER>  (600) 
AT-687/PE19319

>  <PRICE>  (600) 
EUR 80/10 mg

>  <Similarity score>  (600) 
0.17

$$$$

     RDKit          2D

 16 17  0  0  0  0  0  0  0  0999 V2000
   -1.6500   -0.5542    0.0000 C   0  0  0  0  0  0  0  0  0  0  0  0
   -2.0583    0.3583    0.0000 C   0  0  0  0  0  0  0  0  0  0  0  0
   -0.4500    0.5250    0.0000 C   0  0  0  0  0  0  0  0  0  0  0  0
   -0.6583   -0.4500    0.0000 C   0  0  0  0  0  0  0  0  0  0  0  0
   -1.3167    1.0250    0.0000 S   0  0  0  0  0  0  0  0  0  0  0  0
   -2.1500   -1.4208    0.0000 C   0  0  0  0  0  0  0  0  0  0  0  0
    0.5000    0.8333    0.0000 C   0  0  0  0  0  0  0  0  0  0  0  0
   -3.1500   -1.4208    0.0000 N   0  0  0  0  0  0  0  0  0  0  0  0
    0.0875   -1.1208    0.0000 C   0  0  0  0  0  0  0  0  0  0  0  0
    1.2458    0.1667    0.0000 C   0  0  0  0  0  0  0  0  0  0  0  0
    2.1958    0.4750    0.0000 C   0  0  0  0  0  0  0  0  0  0  0  0
   -3.0375    0.5667    0.0000 N   0  0  0  0  0  0  0  0  0  0  0  0
    1.0375   -0.8125    0.0000 C   0  0  0  0  0  0  0  0  0  0  0  0
    1.8875    1.4250    0.0000 C   0  0  0  0  0  0  0  0  0  0  0  0
    2.5042   -0.4750    0.0000 C   0  0  0  0  0  0  0  0  0  0  0  0
    3.1458    0.7833    0.0000 C   0  0  0  0  0  0  0  0  0  0  0  0
  1  2  2  0
  3  4  2  0
  1  4  1  0
  2  5  1  0
  1  6  1  0
  3  7  1  0
  6  8  3  0
  4  9  1  0
 10 13  1  0
 10 11  1  0
  2 12  1  0
  9 13  1  0
 11 14  1  0
 11 15  1  0
 11 16  1  0
  3  5  1  0
  7 10  1  0
M  END
>  <MOLFORMULA>  (601) 
C13 H18 N2 S

>  <MOLWEIGHT>  (601) 
2.343652000000000e+002

>  <IDNUMBER>  (601) 
AN-153/I124583

>  <PRICE>  (601) 
EUR 130/10 mg

>  <Similarity score>  (601) 
0.21

$$$$

     RDKit          2D

 16 17  0  0  0  0  0  0  0  0999 V2000
    5.8667   -2.5542    0.0000 C   0  0  0  0  0  0  0  0  0  0  0  0
    6.6417   -3.6292    0.0000 C   0  0  0  0  0  0  0  0  0  0  0  0
    4.6042   -4.2917    0.0000 C   0  0  0  0  0  0  0  0  0  0  0  0
    4.6042   -2.9667    0.0000 C   0  0  0  0  0  0  0  0  0  0  0  0
    5.8667   -4.7042    0.0000 S   0  0  0  0  0  0  0  0  0  0  0  0
    6.2792   -1.2917    0.0000 C   0  0  0  0  0  0  0  0  0  0  0  0
    3.4542   -4.9542    0.0000 C   0  0  0  0  0  0  0  0  0  0  0  0
    6.6292   -0.0000    0.0000 N   0  0  0  0  0  0  0  0  0  0  0  0
    3.4542   -2.2917    0.0000 C   0  0  0  0  0  0  0  0  0  0  0  0
    2.3042   -4.3000    0.0000 C   0  0  0  0  0  0  0  0  0  0  0  0
    1.1542   -4.9667    0.0000 C   0  0  0  0  0  0  0  0  0  0  0  0
    7.9750   -3.6292    0.0000 N   0  0  0  0  0  0  0  0  0  0  0  0
    2.3042   -2.9667    0.0000 C   0  0  0  0  0  0  0  0  0  0  0  0
    0.0000   -5.6167    0.0000 C   0  0  0  0  0  0  0  0  0  0  0  0
    1.8250   -6.1167    0.0000 C   0  0  0  0  0  0  0  0  0  0  0  0
    0.4917   -3.8125    0.0000 C   0  0  0  0  0  0  0  0  0  0  0  0
  1  2  2  0
  3  4  2  0
  1  4  1  0
  2  5  1  0
  1  6  1  0
  3  7  1  0
  6  8  3  0
  4  9  1  0
 10 13  1  0
 10 11  1  0
  2 12  1  0
  9 13  1  0
 11 14  1  0
 11 15  1  0
 11 16  1  0
  3  5  1  0
  7 10  1  0
M  END
>  <MOLFORMULA>  (602) 
C13 H18 N2 S

>  <MOLWEIGHT>  (602) 
2.343652000000000e+002

>  <IDNUMBER>  (602) 
AT-687/NB00958

>  <PRICE>  (602) 
EUR 80/10 mg

>  <Similarity score>  (602) 
0.21

$$$$

     RDKit          2D

 16 17  0  0  0  0  0  0  0  0999 V2000
    0.1375    0.9458    0.0000 C   0  0  0  0  0  0  0  0  0  0  0  0
    0.1375    0.2833    0.0000 C   0  0  0  0  0  0  0  0  0  0  0  0
   -1.0208    0.2833    0.0000 C   0  0  0  0  0  0  0  0  0  0  0  0
   -1.0208    0.9458    0.0000 C   0  0  0  0  0  0  0  0  0  0  0  0
   -0.4458   -0.0500    0.0000 S   0  0  0  0  0  0  0  0  0  0  0  0
    0.7500    1.2833    0.0000 C   0  0  0  0  0  0  0  0  0  0  0  0
   -1.6000   -0.0500    0.0000 C   0  0  0  0  0  0  0  0  0  0  0  0
    1.3542    1.6208    0.0000 N   0  0  0  0  0  0  0  0  0  0  0  0
   -1.6000    1.2708    0.0000 C   0  0  0  0  0  0  0  0  0  0  0  0
   -2.1833    0.2833    0.0000 C   0  0  0  0  0  0  0  0  0  0  0  0
   -2.7958   -0.0667    0.0000 C   0  0  0  0  0  0  0  0  0  0  0  0
    0.7500   -0.0667    0.0000 N   0  0  0  0  0  0  0  0  0  0  0  0
   -2.1833    0.9458    0.0000 C   0  0  0  0  0  0  0  0  0  0  0  0
   -3.4833   -0.3542    0.0000 C   0  0  0  0  0  0  0  0  0  0  0  0
   -3.0458    0.5208    0.0000 C   0  0  0  0  0  0  0  0  0  0  0  0
   -2.5000   -0.7375    0.0000 C   0  0  0  0  0  0  0  0  0  0  0  0
  1  2  2  0
  3  4  2  0
  1  4  1  0
  2  5  1  0
  1  6  1  0
  3  7  1  0
  6  8  3  0
  4  9  1  0
 10 13  1  0
 10 11  1  0
  2 12  1  0
  9 13  1  0
 11 14  1  0
 11 15  1  0
 11 16  1  0
  3  5  1  0
  7 10  1  0
M  END
>  <MOLFORMULA>  (603) 
C13 H18 N2 S

>  <MOLWEIGHT>  (603) 
2.343652000000000e+002

>  <IDNUMBER>  (603) 
AT-225/JK21267

>  <PRICE>  (603) 
EUR 140/10 mg

>  <Similarity score>  (603) 
0.21

$$$$

     RDKit          2D

 16 17  0  0  0  0  0  0  0  0999 V2000
    4.0292   -0.4000    0.0000 C   0  0  0  0  0  0  0  0  0  0  0  0
    4.5167   -1.0542    0.0000 C   0  0  0  0  0  0  0  0  0  0  0  0
    3.2500   -1.4750    0.0000 C   0  0  0  0  0  0  0  0  0  0  0  0
    3.2500   -0.6500    0.0000 C   0  0  0  0  0  0  0  0  0  0  0  0
    4.0292   -1.7250    0.0000 S   0  0  0  0  0  0  0  0  0  0  0  0
    4.2917    0.3875    0.0000 C   0  0  0  0  0  0  0  0  0  0  0  0
    2.5417   -1.8792    0.0000 C   0  0  0  0  0  0  0  0  0  0  0  0
    4.5000    1.1875    0.0000 N   0  0  0  0  0  0  0  0  0  0  0  0
    2.5417   -0.2292    0.0000 C   0  0  0  0  0  0  0  0  0  0  0  0
    1.8250   -1.4750    0.0000 C   0  0  0  0  0  0  0  0  0  0  0  0
    1.1167   -1.8917    0.0000 C   0  0  0  0  0  0  0  0  0  0  0  0
    5.3417   -1.0542    0.0000 N   0  0  0  0  0  0  0  0  0  0  0  0
    1.8250   -0.6500    0.0000 C   0  0  0  0  0  0  0  0  0  0  0  0
    0.4000   -2.3000    0.0000 C   0  0  0  0  0  0  0  0  0  0  0  0
    1.5250   -2.6000    0.0000 C   0  0  0  0  0  0  0  0  0  0  0  0
    0.7000   -1.1750    0.0000 C   0  0  0  0  0  0  0  0  0  0  0  0
  1  2  2  0
  3  4  2  0
  1  4  1  0
  2  5  1  0
  1  6  1  0
  3  7  1  0
  6  8  3  0
  4  9  1  0
 10 13  1  0
 10 11  1  0
  2 12  1  0
  9 13  1  0
 11 14  1  0
 11 15  1  0
 11 16  1  0
  3  5  1  0
  7 10  1  0
M  END
>  <MOLFORMULA>  (604) 
C13 H18 N2 S

>  <MOLWEIGHT>  (604) 
2.343652000000000e+002

>  <IDNUMBER>  (604) 
AT-687/PE32216

>  <PRICE>  (604) 
EUR 80/10 mg

>  <Similarity score>  (604) 
0.21

$$$$

     RDKit          2D

 17 18  0  0  0  0  0  0  0  0999 V2000
    0.1375    0.9458    0.0000 C   0  0  0  0  0  0  0  0  0  0  0  0
    0.1375    0.2833    0.0000 C   0  0  0  0  0  0  0  0  0  0  0  0
   -1.0208    0.2833    0.0000 C   0  0  0  0  0  0  0  0  0  0  0  0
   -1.0208    0.9458    0.0000 C   0  0  0  0  0  0  0  0  0  0  0  0
   -0.4458   -0.0500    0.0000 S   0  0  0  0  0  0  0  0  0  0  0  0
    0.7500    1.2833    0.0000 C   0  0  0  0  0  0  0  0  0  0  0  0
   -1.6000   -0.0500    0.0000 C   0  0  0  0  0  0  0  0  0  0  0  0
    1.3542    1.6208    0.0000 N   0  0  0  0  0  0  0  0  0  0  0  0
   -1.6000    1.2708    0.0000 C   0  0  0  0  0  0  0  0  0  0  0  0
   -2.1833    0.2833    0.0000 C   0  0  0  0  0  0  0  0  0  0  0  0
   -2.7958   -0.0667    0.0000 C   0  0  0  0  0  0  0  0  0  0  0  0
    0.7500   -0.0667    0.0000 N   0  0  0  0  0  0  0  0  0  0  0  0
   -2.1833    0.9458    0.0000 C   0  0  0  0  0  0  0  0  0  0  0  0
   -3.4833   -0.3542    0.0000 C   0  0  0  0  0  0  0  0  0  0  0  0
   -3.0458    0.5208    0.0000 C   0  0  0  0  0  0  0  0  0  0  0  0
   -2.5000   -0.7375    0.0000 C   0  0  0  0  0  0  0  0  0  0  0  0
   -3.5625   -1.0542    0.0000 C   0  0  0  0  0  0  0  0  0  0  0  0
  1  2  2  0
  3  4  2  0
  1  4  1  0
  2  5  1  0
  1  6  1  0
  3  7  1  0
  6  8  3  0
  4  9  1  0
 10 13  1  0
 10 11  1  0
  2 12  1  0
  9 13  1  0
 11 14  1  0
 11 15  1  0
 11 16  1  0
 14 17  1  0
  3  5  1  0
  7 10  1  0
M  END
>  <MOLFORMULA>  (605) 
C14 H20 N2 S

>  <MOLWEIGHT>  (605) 
2.483920000000000e+002

>  <IDNUMBER>  (605) 
AT-225/JK21280

>  <PRICE>  (605) 
EUR 140/10 mg

>  <Similarity score>  (605) 
0.21

$$$$

     RDKit          2D

 11 12  0  0  0  0  0  0  0  0999 V2000
   -0.5542   -0.3542    0.0000 C   0  0  0  0  0  0  0  0  0  0  0  0
   -0.9625    0.5583    0.0000 C   0  0  0  0  0  0  0  0  0  0  0  0
    0.4417   -0.2500    0.0000 C   0  0  0  0  0  0  0  0  0  0  0  0
   -0.2167    1.2250    0.0000 S   0  0  0  0  0  0  0  0  0  0  0  0
    0.6500    0.7250    0.0000 C   0  0  0  0  0  0  0  0  0  0  0  0
   -1.0542   -1.2208    0.0000 C   0  0  0  0  0  0  0  0  0  0  0  0
   -2.0542   -1.2208    0.0000 N   0  0  0  0  0  0  0  0  0  0  0  0
   -1.9375    0.7667    0.0000 N   0  0  0  0  0  0  0  0  0  0  0  0
    1.3083   -0.7500    0.0000 C   0  0  0  0  0  0  0  0  0  0  0  0
    1.6417    0.8292    0.0000 C   0  0  0  0  0  0  0  0  0  0  0  0
    2.0500   -0.0833    0.0000 C   0  0  0  0  0  0  0  0  0  0  0  0
  1  2  2  0
  1  3  1  0
  2  4  1  0
  3  5  2  0
  1  6  1  0
  6  7  3  0
  2  8  1  0
  3  9  1  0
  5 10  1  0
  9 11  1  0
  4  5  1  0
 10 11  1  0
M  END
>  <MOLFORMULA>  (606) 
C8 H8 N2 S

>  <MOLWEIGHT>  (606) 
1.642312000000000e+002

>  <IDNUMBER>  (606) 
AN-153/I105018

>  <PRICE>  (606) 
EUR 130/10 mg

>  <Similarity score>  (606) 
0.21

$$$$

     RDKit          2D

 11 12  0  0  0  0  0  0  0  0999 V2000
    3.0667   -2.4667    0.0000 C   0  0  0  0  0  0  0  0  0  0  0  0
    2.4167   -3.6417    0.0000 C   0  0  0  0  0  0  0  0  0  0  0  0
    2.1542   -1.5125    0.0000 C   0  0  0  0  0  0  0  0  0  0  0  0
    1.1250   -3.4167    0.0000 S   0  0  0  0  0  0  0  0  0  0  0  0
    0.9375   -2.1042    0.0000 C   0  0  0  0  0  0  0  0  0  0  0  0
    4.3875   -2.2792    0.0000 C   0  0  0  0  0  0  0  0  0  0  0  0
    5.7000   -2.1000    0.0000 N   0  0  0  0  0  0  0  0  0  0  0  0
    3.0125   -4.8417    0.0000 N   0  0  0  0  0  0  0  0  0  0  0  0
    1.9417   -0.2042    0.0000 C   0  0  0  0  0  0  0  0  0  0  0  0
    0.0000   -1.1542    0.0000 C   0  0  0  0  0  0  0  0  0  0  0  0
    0.6167   -0.0000    0.0000 C   0  0  0  0  0  0  0  0  0  0  0  0
  1  2  2  0
  1  3  1  0
  2  4  1  0
  3  5  2  0
  1  6  1  0
  6  7  3  0
  2  8  1  0
  3  9  1  0
  5 10  1  0
  9 11  1  0
  4  5  1  0
 10 11  1  0
M  END
>  <MOLFORMULA>  (607) 
C8 H8 N2 S

>  <MOLWEIGHT>  (607) 
1.642312000000000e+002

>  <IDNUMBER>  (607) 
AT-084/J157520

>  <PRICE>  (607) 
EUR 37.00/10 mg

>  <Similarity score>  (607) 
0.21

$$$$

     RDKit          2D

 11 12  0  0  0  0  0  0  0  0999 V2000
    3.4875   -2.1542    0.0000 C   0  0  0  0  0  0  0  0  0  0  0  0
    3.8917   -3.4250    0.0000 C   0  0  0  0  0  0  0  0  0  0  0  0
    2.1542   -2.1542    0.0000 C   0  0  0  0  0  0  0  0  0  0  0  0
    2.8292   -4.2042    0.0000 S   0  0  0  0  0  0  0  0  0  0  0  0
    1.7542   -3.4250    0.0000 C   0  0  0  0  0  0  0  0  0  0  0  0
    4.2667   -1.0792    0.0000 C   0  0  0  0  0  0  0  0  0  0  0  0
    5.0542   -0.0000    0.0000 N   0  0  0  0  0  0  0  0  0  0  0  0
    5.1542   -3.8292    0.0000 N   0  0  0  0  0  0  0  0  0  0  0  0
    1.0792   -1.3792    0.0000 C   0  0  0  0  0  0  0  0  0  0  0  0
    0.4167   -3.4250    0.0000 C   0  0  0  0  0  0  0  0  0  0  0  0
    0.0000   -2.1750    0.0000 C   0  0  0  0  0  0  0  0  0  0  0  0
  1  2  2  0
  1  3  1  0
  2  4  1  0
  3  5  2  0
  1  6  1  0
  6  7  3  0
  2  8  1  0
  3  9  1  0
  5 10  1  0
  9 11  1  0
  4  5  1  0
 10 11  1  0
M  END
>  <MOLFORMULA>  (608) 
C8 H8 N2 S

>  <MOLWEIGHT>  (608) 
1.642312000000000e+002

>  <IDNUMBER>  (608) 
AT-687/NB01828

>  <PRICE>  (608) 
EUR 80/10 mg

>  <Similarity score>  (608) 
0.21

$$$$

     RDKit          2D

 11 12  0  0  0  0  0  0  0  0999 V2000
    0.1000    1.0958    0.0000 C   0  0  0  0  0  0  0  0  0  0  0  0
    0.3167    0.4125    0.0000 C   0  0  0  0  0  0  0  0  0  0  0  0
   -0.6208    1.0958    0.0000 C   0  0  0  0  0  0  0  0  0  0  0  0
   -0.2625   -0.0042    0.0000 S   0  0  0  0  0  0  0  0  0  0  0  0
   -0.8458    0.4125    0.0000 C   0  0  0  0  0  0  0  0  0  0  0  0
    0.5167    1.6958    0.0000 C   0  0  0  0  0  0  0  0  0  0  0  0
    0.9375    2.2708    0.0000 N   0  0  0  0  0  0  0  0  0  0  0  0
    1.0167    0.1958    0.0000 N   0  0  0  0  0  0  0  0  0  0  0  0
   -1.2000    1.4958    0.0000 C   0  0  0  0  0  0  0  0  0  0  0  0
   -1.5458    0.3958    0.0000 C   0  0  0  0  0  0  0  0  0  0  0  0
   -1.7625    1.0500    0.0000 C   0  0  0  0  0  0  0  0  0  0  0  0
  1  2  2  0
  1  3  1  0
  2  4  1  0
  3  5  2  0
  1  6  1  0
  6  7  3  0
  2  8  1  0
  3  9  1  0
  5 10  1  0
  9 11  1  0
  4  5  1  0
 10 11  1  0
M  END
>  <MOLFORMULA>  (609) 
C8 H8 N2 S

>  <MOLWEIGHT>  (609) 
1.642312000000000e+002

>  <IDNUMBER>  (609) 
AT-225/JK21174

>  <PRICE>  (609) 
EUR 140/10 mg

>  <Similarity score>  (609) 
0.21

$$$$

     RDKit          2D

 11 12  0  0  0  0  0  0  0  0999 V2000
    5.9500   -3.8167    0.0000 C   0  0  0  0  0  0  0  0  0  0  0  0
    6.2000   -4.6000    0.0000 C   0  0  0  0  0  0  0  0  0  0  0  0
    5.1250   -3.8167    0.0000 C   0  0  0  0  0  0  0  0  0  0  0  0
    5.5500   -5.0792    0.0000 S   0  0  0  0  0  0  0  0  0  0  0  0
    4.8750   -4.6000    0.0000 C   0  0  0  0  0  0  0  0  0  0  0  0
    6.4417   -3.1500    0.0000 C   0  0  0  0  0  0  0  0  0  0  0  0
    6.9250   -2.4750    0.0000 N   0  0  0  0  0  0  0  0  0  0  0  0
    6.9917   -4.8500    0.0000 N   0  0  0  0  0  0  0  0  0  0  0  0
    4.4542   -3.3292    0.0000 C   0  0  0  0  0  0  0  0  0  0  0  0
    4.0500   -4.6000    0.0000 C   0  0  0  0  0  0  0  0  0  0  0  0
    3.7917   -3.8250    0.0000 C   0  0  0  0  0  0  0  0  0  0  0  0
  1  2  2  0
  1  3  1  0
  2  4  1  0
  3  5  2  0
  1  6  1  0
  6  7  3  0
  2  8  1  0
  3  9  1  0
  5 10  1  0
  9 11  1  0
  4  5  1  0
 10 11  1  0
M  END
>  <MOLFORMULA>  (610) 
C8 H8 N2 S

>  <MOLWEIGHT>  (610) 
1.642312000000000e+002

>  <IDNUMBER>  (610) 
AT-687/PE32837

>  <PRICE>  (610) 
EUR 80/10 mg

>  <Similarity score>  (610) 
0.21

$$$$

     RDKit          2D

 12 13  0  0  0  0  0  0  0  0999 V2000
    3.5500   -2.5625    0.0000 C   0  0  0  0  0  0  0  0  0  0  0  0
    4.3375   -3.6167    0.0000 C   0  0  0  0  0  0  0  0  0  0  0  0
    2.2792   -2.9750    0.0000 C   0  0  0  0  0  0  0  0  0  0  0  0
    3.5667   -4.7125    0.0000 S   0  0  0  0  0  0  0  0  0  0  0  0
    2.3000   -4.3042    0.0000 C   0  0  0  0  0  0  0  0  0  0  0  0
    3.9542   -1.2917    0.0000 C   0  0  0  0  0  0  0  0  0  0  0  0
    4.2917   -0.0000    0.0000 N   0  0  0  0  0  0  0  0  0  0  0  0
    5.6667   -3.6167    0.0000 N   0  0  0  0  0  0  0  0  0  0  0  0
    1.1417   -2.3042    0.0000 C   0  0  0  0  0  0  0  0  0  0  0  0
    1.1417   -4.9667    0.0000 C   0  0  0  0  0  0  0  0  0  0  0  0
    0.0000   -2.9750    0.0000 C   0  0  0  0  0  0  0  0  0  0  0  0
    0.0000   -4.3042    0.0000 C   0  0  0  0  0  0  0  0  0  0  0  0
  1  2  2  0
  1  3  1  0
  2  4  1  0
  3  5  2  0
  1  6  1  0
  6  7  3  0
  2  8  1  0
  3  9  1  0
  5 10  1  0
  9 11  1  0
 11 12  1  0
  4  5  1  0
 10 12  1  0
M  END
>  <MOLFORMULA>  (611) 
C9 H10 N2 S

>  <MOLWEIGHT>  (611) 
1.782580000000000e+002

>  <IDNUMBER>  (611) 
AT-687/NB00447

>  <PRICE>  (611) 
EUR 80/10 mg

>  <Similarity score>  (611) 
0.20

$$$$

     RDKit          2D

 12 13  0  0  0  0  0  0  0  0999 V2000
    4.0542   -2.1250    0.0000 C   0  0  0  0  0  0  0  0  0  0  0  0
    4.0542   -2.8750    0.0000 C   0  0  0  0  0  0  0  0  0  0  0  0
    2.7542   -2.1250    0.0000 C   0  0  0  0  0  0  0  0  0  0  0  0
    3.4042   -3.2500    0.0000 S   0  0  0  0  0  0  0  0  0  0  0  0
    2.7542   -2.8750    0.0000 C   0  0  0  0  0  0  0  0  0  0  0  0
    4.5875   -1.5917    0.0000 C   0  0  0  0  0  0  0  0  0  0  0  0
    5.1167   -1.0625    0.0000 N   0  0  0  0  0  0  0  0  0  0  0  0
    4.7042   -3.2500    0.0000 N   0  0  0  0  0  0  0  0  0  0  0  0
    2.1042   -1.7500    0.0000 C   0  0  0  0  0  0  0  0  0  0  0  0
    2.1042   -3.2500    0.0000 C   0  0  0  0  0  0  0  0  0  0  0  0
    1.4625   -2.1250    0.0000 C   0  0  0  0  0  0  0  0  0  0  0  0
    1.4625   -2.8750    0.0000 C   0  0  0  0  0  0  0  0  0  0  0  0
  1  2  2  0
  1  3  1  0
  2  4  1  0
  3  5  2  0
  1  6  1  0
  6  7  3  0
  2  8  1  0
  3  9  1  0
  5 10  1  0
  9 11  1  0
 11 12  1  0
  4  5  1  0
 10 12  1  0
M  END
>  <MOLFORMULA>  (612) 
C9 H10 N2 S

>  <MOLWEIGHT>  (612) 
1.782580000000000e+002

>  <IDNUMBER>  (612) 
AT-819/OC00072

>  <PRICE>  (612) 
EUR 128/10 mg

>  <Similarity score>  (612) 
0.20

$$$$

     RDKit          2D

 12 13  0  0  0  0  0  0  0  0999 V2000
    6.2292   -7.9292    0.0000 C   0  0  0  0  0  0  0  0  0  0  0  0
    6.4875   -8.7167    0.0000 C   0  0  0  0  0  0  0  0  0  0  0  0
    5.4042   -7.9292    0.0000 C   0  0  0  0  0  0  0  0  0  0  0  0
    5.8167   -9.2000    0.0000 S   0  0  0  0  0  0  0  0  0  0  0  0
    5.1500   -8.7167    0.0000 C   0  0  0  0  0  0  0  0  0  0  0  0
    6.7167   -7.2625    0.0000 C   0  0  0  0  0  0  0  0  0  0  0  0
    7.2000   -6.5917    0.0000 N   0  0  0  0  0  0  0  0  0  0  0  0
    7.2667   -8.9750    0.0000 N   0  0  0  0  0  0  0  0  0  0  0  0
    4.8542   -7.3167    0.0000 C   0  0  0  0  0  0  0  0  0  0  0  0
    4.3417   -8.8917    0.0000 C   0  0  0  0  0  0  0  0  0  0  0  0
    4.0417   -7.4875    0.0000 C   0  0  0  0  0  0  0  0  0  0  0  0
    3.7875   -8.2750    0.0000 C   0  0  0  0  0  0  0  0  0  0  0  0
  1  2  2  0
  1  3  1  0
  2  4  1  0
  3  5  2  0
  1  6  1  0
  6  7  3  0
  2  8  1  0
  3  9  1  0
  5 10  1  0
  9 11  1  0
 11 12  1  0
  4  5  1  0
 10 12  1  0
M  END
>  <MOLFORMULA>  (613) 
C9 H10 N2 S

>  <MOLWEIGHT>  (613) 
1.782580000000000e+002

>  <IDNUMBER>  (613) 
AP-853/J242318

>  <Similarity score>  (613) 
0.20

$$$$

     RDKit          2D

 12 13  0  0  0  0  0  0  0  0999 V2000
    3.5667   -2.5167    0.0000 C   0  0  0  0  0  0  0  0  0  0  0  0
    4.3375   -3.5917    0.0000 C   0  0  0  0  0  0  0  0  0  0  0  0
    2.3292   -2.9167    0.0000 C   0  0  0  0  0  0  0  0  0  0  0  0
    3.5792   -4.6750    0.0000 S   0  0  0  0  0  0  0  0  0  0  0  0
    2.3292   -4.2542    0.0000 C   0  0  0  0  0  0  0  0  0  0  0  0
    4.0000   -1.2542    0.0000 C   0  0  0  0  0  0  0  0  0  0  0  0
    4.4375   -0.0000    0.0000 N   0  0  0  0  0  0  0  0  0  0  0  0
    5.6792   -3.5500    0.0000 N   0  0  0  0  0  0  0  0  0  0  0  0
    1.1500   -2.2875    0.0000 C   0  0  0  0  0  0  0  0  0  0  0  0
    1.1750   -4.9292    0.0000 C   0  0  0  0  0  0  0  0  0  0  0  0
    0.0000   -2.9375    0.0000 C   0  0  0  0  0  0  0  0  0  0  0  0
    0.0000   -4.2667    0.0000 C   0  0  0  0  0  0  0  0  0  0  0  0
  1  2  2  0
  1  3  1  0
  2  4  1  0
  3  5  2  0
  1  6  1  0
  6  7  3  0
  2  8  1  0
  3  9  1  0
  5 10  1  0
  9 11  1  0
 11 12  1  0
  4  5  1  0
 10 12  1  0
M  END
>  <MOLFORMULA>  (614) 
C9 H10 N2 S

>  <MOLWEIGHT>  (614) 
1.782580000000000e+002

>  <IDNUMBER>  (614) 
AT-084/J157521

>  <PRICE>  (614) 
EUR 37.00/10 mg

>  <Similarity score>  (614) 
0.20

$$$$

     RDKit          2D

 12 13  0  0  0  0  0  0  0  0999 V2000
    2.7917   -1.2292    0.0000 C   0  0  0  0  0  0  0  0  0  0  0  0
    3.2750   -1.8917    0.0000 C   0  0  0  0  0  0  0  0  0  0  0  0
    2.0000   -1.4917    0.0000 C   0  0  0  0  0  0  0  0  0  0  0  0
    2.8000   -2.5667    0.0000 S   0  0  0  0  0  0  0  0  0  0  0  0
    2.0167   -2.3167    0.0000 C   0  0  0  0  0  0  0  0  0  0  0  0
    3.0417   -0.4500    0.0000 C   0  0  0  0  0  0  0  0  0  0  0  0
    3.2500    0.3500    0.0000 N   0  0  0  0  0  0  0  0  0  0  0  0
    4.1000   -1.8917    0.0000 N   0  0  0  0  0  0  0  0  0  0  0  0
    1.3000   -1.0750    0.0000 C   0  0  0  0  0  0  0  0  0  0  0  0
    1.3000   -2.7250    0.0000 C   0  0  0  0  0  0  0  0  0  0  0  0
    0.5917   -1.4917    0.0000 C   0  0  0  0  0  0  0  0  0  0  0  0
    0.5917   -2.3167    0.0000 C   0  0  0  0  0  0  0  0  0  0  0  0
  1  2  2  0
  1  3  1  0
  2  4  1  0
  3  5  2  0
  1  6  1  0
  6  7  3  0
  2  8  1  0
  3  9  1  0
  5 10  1  0
  9 11  1  0
 11 12  1  0
  4  5  1  0
 10 12  1  0
M  END
>  <MOLFORMULA>  (615) 
C9 H10 N2 S

>  <MOLWEIGHT>  (615) 
1.782580000000000e+002

>  <IDNUMBER>  (615) 
AT-687/PE31884

>  <PRICE>  (615) 
EUR 80/10 mg

>  <Similarity score>  (615) 
0.20

$$$$

     RDKit          2D

 12 13  0  0  0  0  0  0  0  0999 V2000
   -0.7000   -0.3542    0.0000 C   0  0  0  0  0  0  0  0  0  0  0  0
   -1.1083    0.5583    0.0000 C   0  0  0  0  0  0  0  0  0  0  0  0
    0.2958   -0.2500    0.0000 C   0  0  0  0  0  0  0  0  0  0  0  0
   -0.3625    1.2250    0.0000 S   0  0  0  0  0  0  0  0  0  0  0  0
    0.5042    0.7250    0.0000 C   0  0  0  0  0  0  0  0  0  0  0  0
   -1.2000   -1.2208    0.0000 C   0  0  0  0  0  0  0  0  0  0  0  0
   -2.2000   -1.2208    0.0000 N   0  0  0  0  0  0  0  0  0  0  0  0
   -2.0833    0.7667    0.0000 N   0  0  0  0  0  0  0  0  0  0  0  0
    1.0375   -0.9208    0.0000 C   0  0  0  0  0  0  0  0  0  0  0  0
    1.4542    1.0375    0.0000 C   0  0  0  0  0  0  0  0  0  0  0  0
    1.9875   -0.6125    0.0000 C   0  0  0  0  0  0  0  0  0  0  0  0
    2.1958    0.3667    0.0000 C   0  0  0  0  0  0  0  0  0  0  0  0
  1  2  2  0
  1  3  1  0
  2  4  1  0
  3  5  2  0
  1  6  1  0
  6  7  3  0
  2  8  1  0
  3  9  1  0
  5 10  1  0
  9 11  1  0
 11 12  1  0
  4  5  1  0
 10 12  1  0
M  END
>  <MOLFORMULA>  (616) 
C9 H10 N2 S

>  <MOLWEIGHT>  (616) 
1.782580000000000e+002

>  <IDNUMBER>  (616) 
AN-153/I100232

>  <PRICE>  (616) 
EUR 130/10 mg

>  <Similarity score>  (616) 
0.20

$$$$

     RDKit          2D

 14 15  0  0  0  0  0  0  0  0999 V2000
    1.8167   -0.0292    0.0000 C   0  0  0  0  0  0  0  0  0  0  0  0
    1.2167   -0.8875    0.0000 C   0  0  0  0  0  0  0  0  0  0  0  0
    2.8000   -0.3500    0.0000 C   0  0  0  0  0  0  0  0  0  0  0  0
    1.8167   -1.7042    0.0000 S   0  0  0  0  0  0  0  0  0  0  0  0
    2.8000   -1.3875    0.0000 C   0  0  0  0  0  0  0  0  0  0  0  0
    1.5000    0.9708    0.0000 C   0  0  0  0  0  0  0  0  0  0  0  0
    1.1792    1.9708    0.0000 N   0  0  0  0  0  0  0  0  0  0  0  0
    0.1792   -0.8875    0.0000 N   0  0  0  0  0  0  0  0  0  0  0  0
    3.5375    0.3958    0.0000 C   0  0  0  0  0  0  0  0  0  0  0  0
    3.5375   -2.1292    0.0000 C   0  0  0  0  0  0  0  0  0  0  0  0
    4.5542    0.3958    0.0000 C   0  0  0  0  0  0  0  0  0  0  0  0
    4.5542   -2.1292    0.0000 C   0  0  0  0  0  0  0  0  0  0  0  0
    5.2792   -1.3875    0.0000 C   0  0  0  0  0  0  0  0  0  0  0  0
    5.2792   -0.3500    0.0000 C   0  0  0  0  0  0  0  0  0  0  0  0
  1  2  2  0
  1  3  1  0
  2  4  1  0
  3  5  2  0
  1  6  1  0
  6  7  3  0
  2  8  1  0
  3  9  1  0
  5 10  1  0
  9 11  1  0
 10 12  1  0
 13 14  1  0
 11 14  1  0
  4  5  1  0
 12 13  1  0
M  END
>  <MOLFORMULA>  (617) 
C11 H14 N2 S

>  <MOLWEIGHT>  (617) 
2.063116000000000e+002

>  <IDNUMBER>  (617) 
AT-225/JK15581

>  <PRICE>  (617) 
EUR 140/10 mg

>  <Similarity score>  (617) 
0.20

$$$$

     RDKit          2D

 13 14  0  0  0  0  0  0  0  0999 V2000
    0.2292    0.0458    0.0000 C   0  0  0  0  0  0  0  0  0  0  0  0
    0.5667   -1.0375    0.0000 C   0  0  0  0  0  0  0  0  0  0  0  0
   -0.9625    0.0458    0.0000 C   0  0  0  0  0  0  0  0  0  0  0  0
   -0.3125   -1.7292    0.0000 S   0  0  0  0  0  0  0  0  0  0  0  0
   -1.2958   -1.0542    0.0000 C   0  0  0  0  0  0  0  0  0  0  0  0
    0.9292    0.9208    0.0000 C   0  0  0  0  0  0  0  0  0  0  0  0
    1.6375    1.8208    0.0000 N   0  0  0  0  0  0  0  0  0  0  0  0
    1.6542   -1.3875    0.0000 N   0  0  0  0  0  0  0  0  0  0  0  0
   -1.5958    0.9708    0.0000 C   0  0  0  0  0  0  0  0  0  0  0  0
   -2.3625   -1.4792    0.0000 C   0  0  0  0  0  0  0  0  0  0  0  0
   -2.7458    1.0958    0.0000 C   0  0  0  0  0  0  0  0  0  0  0  0
   -3.3500   -0.8667    0.0000 C   0  0  0  0  0  0  0  0  0  0  0  0
   -3.5208    0.2625    0.0000 C   0  0  0  0  0  0  0  0  0  0  0  0
  1  2  2  0
  1  3  1  0
  2  4  1  0
  3  5  2  0
  1  6  1  0
  6  7  3  0
  2  8  1  0
  3  9  1  0
  5 10  1  0
  9 11  1  0
 10 12  1  0
 11 13  1  0
  4  5  1  0
 12 13  1  0
M  END
>  <MOLFORMULA>  (618) 
C10 H12 N2 S

>  <MOLWEIGHT>  (618) 
1.922848000000000e+002

>  <IDNUMBER>  (618) 
AT-225/JK21285

>  <PRICE>  (618) 
EUR 140/10 mg

>  <Similarity score>  (618) 
0.20

$$$$

     RDKit          2D

 13 14  0  0  0  0  0  0  0  0999 V2000
   -2.4625   -0.0167    0.0000 C   0  0  0  0  0  0  0  0  0  0  0  0
   -2.0833   -0.5375    0.0000 C   0  0  0  0  0  0  0  0  0  0  0  0
   -3.0833   -0.2167    0.0000 C   0  0  0  0  0  0  0  0  0  0  0  0
   -2.4625   -1.0792    0.0000 S   0  0  0  0  0  0  0  0  0  0  0  0
   -3.0833   -0.8792    0.0000 C   0  0  0  0  0  0  0  0  0  0  0  0
   -2.2458    0.6458    0.0000 C   0  0  0  0  0  0  0  0  0  0  0  0
   -2.0458    1.2833    0.0000 N   0  0  0  0  0  0  0  0  0  0  0  0
   -1.4208   -0.5375    0.0000 N   0  0  0  0  0  0  0  0  0  0  0  0
   -3.5833    0.2000    0.0000 C   0  0  0  0  0  0  0  0  0  0  0  0
   -3.5833   -1.2792    0.0000 C   0  0  0  0  0  0  0  0  0  0  0  0
   -4.2208    0.0625    0.0000 C   0  0  0  0  0  0  0  0  0  0  0  0
   -4.2208   -1.1375    0.0000 C   0  0  0  0  0  0  0  0  0  0  0  0
   -4.5000   -0.5167    0.0000 C   0  0  0  0  0  0  0  0  0  0  0  0
  1  2  2  0
  1  3  1  0
  2  4  1  0
  3  5  2  0
  1  6  1  0
  6  7  3  0
  2  8  1  0
  3  9  1  0
  5 10  1  0
  9 11  1  0
 10 12  1  0
 11 13  1  0
  4  5  1  0
 12 13  1  0
M  END
>  <MOLFORMULA>  (619) 
C10 H12 N2 S

>  <MOLWEIGHT>  (619) 
1.922848000000000e+002

>  <IDNUMBER>  (619) 
AT-225/JK15582

>  <PRICE>  (619) 
EUR 140/10 mg

>  <Similarity score>  (619) 
0.20

$$$$

     RDKit          2D

 13 14  0  0  0  0  0  0  0  0999 V2000
    2.1167   -2.5750    0.0000 C   0  0  0  0  0  0  0  0  0  0  0  0
    1.3292   -1.5000    0.0000 C   0  0  0  0  0  0  0  0  0  0  0  0
    3.3667   -2.1667    0.0000 C   0  0  0  0  0  0  0  0  0  0  0  0
    2.1167   -0.4167    0.0000 S   0  0  0  0  0  0  0  0  0  0  0  0
    3.3667   -0.8417    0.0000 C   0  0  0  0  0  0  0  0  0  0  0  0
    1.7000   -3.8375    0.0000 C   0  0  0  0  0  0  0  0  0  0  0  0
    1.2875   -5.1042    0.0000 N   0  0  0  0  0  0  0  0  0  0  0  0
    0.0000   -1.5000    0.0000 N   0  0  0  0  0  0  0  0  0  0  0  0
    4.4042   -2.9875    0.0000 C   0  0  0  0  0  0  0  0  0  0  0  0
    4.4042   -0.0000    0.0000 C   0  0  0  0  0  0  0  0  0  0  0  0
    5.7042   -2.6917    0.0000 C   0  0  0  0  0  0  0  0  0  0  0  0
    5.7042   -0.3000    0.0000 C   0  0  0  0  0  0  0  0  0  0  0  0
    6.2792   -1.5000    0.0000 C   0  0  0  0  0  0  0  0  0  0  0  0
  1  2  2  0
  1  3  1  0
  2  4  1  0
  3  5  2  0
  1  6  1  0
  6  7  3  0
  2  8  1  0
  3  9  1  0
  5 10  1  0
  9 11  1  0
 10 12  1  0
 11 13  1  0
  4  5  1  0
 12 13  1  0
M  END
>  <MOLFORMULA>  (620) 
C10 H12 N2 S

>  <MOLWEIGHT>  (620) 
1.922848000000000e+002

>  <IDNUMBER>  (620) 
AT-687/SK12402

>  <PRICE>  (620) 
EUR 80/10 mg

>  <Similarity score>  (620) 
0.20

$$$$

     RDKit          2D

 13 14  0  0  0  0  0  0  0  0999 V2000
   -1.2333    0.0750    0.0000 C   0  0  0  0  0  0  0  0  0  0  0  0
   -1.6417    0.9917    0.0000 C   0  0  0  0  0  0  0  0  0  0  0  0
   -0.2375    0.1833    0.0000 C   0  0  0  0  0  0  0  0  0  0  0  0
   -0.0292    1.1583    0.0000 C   0  0  0  0  0  0  0  0  0  0  0  0
   -0.8958    1.6583    0.0000 S   0  0  0  0  0  0  0  0  0  0  0  0
   -1.7333   -0.7875    0.0000 C   0  0  0  0  0  0  0  0  0  0  0  0
   -1.2333   -1.6542    0.0000 N   0  0  0  0  0  0  0  0  0  0  0  0
    0.5042   -0.4875    0.0000 C   0  0  0  0  0  0  0  0  0  0  0  0
    0.9208    1.4667    0.0000 C   0  0  0  0  0  0  0  0  0  0  0  0
   -2.6167    1.2000    0.0000 N   0  0  0  0  0  0  0  0  0  0  0  0
    1.4542   -0.1792    0.0000 C   0  0  0  0  0  0  0  0  0  0  0  0
    1.6625    0.8000    0.0000 C   0  0  0  0  0  0  0  0  0  0  0  0
    2.6125    1.1083    0.0000 C   0  0  0  0  0  0  0  0  0  0  0  0
  1  2  2  0
  1  3  1  0
  3  4  2  0
  2  5  1  0
  1  6  1  0
  6  7  3  0
  3  8  1  0
  4  9  1  0
  2 10  1  0
  8 11  1  0
 11 12  1  0
 12 13  1  0
  4  5  1  0
  9 12  1  0
M  END
>  <MOLFORMULA>  (621) 
C10 H12 N2 S

>  <MOLWEIGHT>  (621) 
1.922848000000000e+002

>  <IDNUMBER>  (621) 
AN-153/I124580

>  <PRICE>  (621) 
EUR 130/10 mg

>  <Similarity score>  (621) 
0.20

$$$$

     RDKit          2D

 13 14  0  0  0  0  0  0  0  0999 V2000
    3.2542    2.4375    0.0000 C   0  0  0  0  0  0  0  0  0  0  0  0
    5.5792   -0.7417    0.0000 C   0  0  0  0  0  0  0  0  0  0  0  0
   -0.5083    1.2333    0.0000 C   0  0  0  0  0  0  0  0  0  0  0  0
   -0.5083   -2.7292    0.0000 C   0  0  0  0  0  0  0  0  0  0  0  0
    3.2542   -3.9500    0.0000 S   0  0  0  0  0  0  0  0  0  0  0  0
    4.4750    6.2125    0.0000 C   0  0  0  0  0  0  0  0  0  0  0  0
    8.3625    7.0292    0.0000 N   0  0  0  0  0  0  0  0  0  0  0  0
   -3.9333    3.2125    0.0000 C   0  0  0  0  0  0  0  0  0  0  0  0
   -3.9333   -4.7125    0.0000 C   0  0  0  0  0  0  0  0  0  0  0  0
    9.4042   -1.7667    0.0000 N   0  0  0  0  0  0  0  0  0  0  0  0
   -7.3542    1.2333    0.0000 C   0  0  0  0  0  0  0  0  0  0  0  0
   -7.3542   -2.7292    0.0000 C   0  0  0  0  0  0  0  0  0  0  0  0
  -10.7792   -4.7125    0.0000 C   0  0  0  0  0  0  0  0  0  0  0  0
  1  2  2  0
  1  3  1  0
  3  4  2  0
  2  5  1  0
  1  6  1  0
  6  7  3  0
  3  8  1  0
  4  9  1  0
  2 10  1  0
  8 11  1  0
 11 12  1  0
 12 13  1  0
  4  5  1  0
  9 12  1  0
M  END
>  <MOLFORMULA>  (622) 
C10 H12 N2 S

>  <MOLWEIGHT>  (622) 
1.922848000000000e+002

>  <IDNUMBER>  (622) 
AT-084/J162226

>  <PRICE>  (622) 
EUR 37.00/10 mg

>  <Similarity score>  (622) 
0.20

$$$$

     RDKit          2D

 25 27  0  0  0  0  0  0  0  0999 V2000
   -0.2500    1.8375    0.0000 C   0  0  0  0  0  0  0  0  0  0  0  0
    0.2625    2.6958    0.0000 C   0  0  0  0  0  0  0  0  0  0  0  0
   -0.2708   -2.5208    0.0000 C   0  0  0  0  0  0  0  0  0  0  0  0
   -0.8708   -3.3208    0.0000 N   0  0  0  0  0  0  0  0  0  0  0  0
   -1.2250    2.0625    0.0000 S   0  0  0  0  0  0  0  0  0  0  0  0
    0.7250   -2.6375    0.0000 N   0  0  0  0  0  0  0  0  0  0  0  0
   -0.3958    3.4500    0.0000 C   0  0  0  0  0  0  0  0  0  0  0  0
    0.1458    0.9208    0.0000 N   0  0  0  0  0  0  0  0  0  0  0  0
   -1.3125    3.0583    0.0000 C   0  0  0  0  0  0  0  0  0  0  0  0
   -0.4750   -4.2375    0.0000 C   0  0  0  0  0  0  0  0  0  0  0  0
    0.5167   -4.3583    0.0000 C   0  0  0  0  0  0  0  0  0  0  0  0
    1.1167   -3.5583    0.0000 C   0  0  0  0  0  0  0  0  0  0  0  0
   -0.4542    0.1208    0.0000 C   0  0  0  0  0  0  0  0  0  0  0  0
    1.2583    2.7875    0.0000 C   0  0  0  0  0  0  0  0  0  0  0  0
   -0.6625   -1.6000    0.0000 S   0  0  0  0  0  0  0  0  0  0  0  0
    1.6792    3.6958    0.0000 N   0  0  0  0  0  0  0  0  0  0  0  0
   -0.0625   -0.8000    0.0000 C   0  0  0  0  0  0  0  0  0  0  0  0
   -1.4500    0.2375    0.0000 O   0  0  0  0  0  0  0  0  0  0  0  0
    2.1083   -3.6792    0.0000 O   0  0  0  0  0  0  0  0  0  0  0  0
   -1.0750   -5.0375    0.0000 N   0  0  0  0  0  0  0  0  0  0  0  0
   -0.2750    4.4375    0.0000 C   0  0  0  0  0  0  0  0  0  0  0  0
   -2.1125    3.6583    0.0000 C   0  0  0  0  0  0  0  0  0  0  0  0
    0.9292   -0.9208    0.0000 C   0  0  0  0  0  0  0  0  0  0  0  0
   -1.0750    5.0375    0.0000 C   0  0  0  0  0  0  0  0  0  0  0  0
   -1.9958    4.6458    0.0000 C   0  0  0  0  0  0  0  0  0  0  0  0
  1  2  2  0
  3 15  1  0
  3  4  2  0
  1  5  1  0
  3  6  1  0
  2  7  1  0
  1  8  1  0
  5  9  1  0
  4 10  1  0
 11 12  1  0
  6 12  1  0
  8 13  1  0
  2 14  1  0
 15 17  1  0
 14 16  3  0
 13 17  1  0
 13 18  2  0
 12 19  2  0
 10 20  1  0
  7 21  1  0
  9 22  1  0
 17 23  1  0
 21 24  1  0
 22 25  1  0
  7  9  2  0
 24 25  1  0
 10 11  2  0
M  END
>  <MOLFORMULA>  (623) 
C16 H17 N5 O2 S2

>  <MOLWEIGHT>  (623) 
3.754753000000000e+002

>  <IDNUMBER>  (623) 
AN-153/I240410

>  <PRICE>  (623) 
EUR 130/10 mg

>  <Similarity score>  (623) 
0.19

$$$$

     RDKit          2D

 27 30  0  0  0  0  0  0  0  0999 V2000
    2.6125    1.3000    0.0000 C   0  0  0  0  0  0  0  0  0  0  0  0
    3.6083    1.4042    0.0000 C   0  0  0  0  0  0  0  0  0  0  0  0
    2.2083    2.2167    0.0000 S   0  0  0  0  0  0  0  0  0  0  0  0
    3.8167    2.3833    0.0000 C   0  0  0  0  0  0  0  0  0  0  0  0
   -0.8875   -1.2958    0.0000 C   0  0  0  0  0  0  0  0  0  0  0  0
   -1.8792   -1.4000    0.0000 N   0  0  0  0  0  0  0  0  0  0  0  0
    2.9500    2.8833    0.0000 C   0  0  0  0  0  0  0  0  0  0  0  0
   -0.4792   -2.2125    0.0000 N   0  0  0  0  0  0  0  0  0  0  0  0
    2.1125    0.4333    0.0000 N   0  0  0  0  0  0  0  0  0  0  0  0
   -2.0875   -2.3792    0.0000 C   0  0  0  0  0  0  0  0  0  0  0  0
    4.2792    0.6625    0.0000 C   0  0  0  0  0  0  0  0  0  0  0  0
   -1.2208   -2.8792    0.0000 C   0  0  0  0  0  0  0  0  0  0  0  0
    3.9667   -0.2875    0.0000 N   0  0  0  0  0  0  0  0  0  0  0  0
    1.1125    0.4333    0.0000 C   0  0  0  0  0  0  0  0  0  0  0  0
   -2.9542   -2.8792    0.0000 C   0  0  0  0  0  0  0  0  0  0  0  0
   -0.3875   -0.4292    0.0000 S   0  0  0  0  0  0  0  0  0  0  0  0
    0.6125    1.3000    0.0000 O   0  0  0  0  0  0  0  0  0  0  0  0
   -1.2208   -3.8792    0.0000 C   0  0  0  0  0  0  0  0  0  0  0  0
    0.6125   -0.4292    0.0000 C   0  0  0  0  0  0  0  0  0  0  0  0
   -2.9542   -3.8792    0.0000 C   0  0  0  0  0  0  0  0  0  0  0  0
   -2.0875   -4.3792    0.0000 C   0  0  0  0  0  0  0  0  0  0  0  0
    4.6833    2.8833    0.0000 C   0  0  0  0  0  0  0  0  0  0  0  0
    2.9500    3.8833    0.0000 C   0  0  0  0  0  0  0  0  0  0  0  0
   -3.8208   -4.3792    0.0000 O   0  0  0  0  0  0  0  0  0  0  0  0
   -4.6875   -3.8792    0.0000 C   0  0  0  0  0  0  0  0  0  0  0  0
    4.6833    3.8833    0.0000 C   0  0  0  0  0  0  0  0  0  0  0  0
    3.8167    4.3792    0.0000 C   0  0  0  0  0  0  0  0  0  0  0  0
  1  2  2  0
  1  3  1  0
  2  4  1  0
  5 16  1  0
  5  6  2  0
  3  7  1  0
  5  8  1  0
  1  9  1  0
  6 10  1  0
  2 11  1  0
  8 12  1  0
 11 13  3  0
  9 14  1  0
 10 15  1  0
 16 19  1  0
 14 17  2  0
 12 18  1  0
 14 19  1  0
 15 20  2  0
 18 21  2  0
  4 22  1  0
  7 23  1  0
 20 24  1  0
 24 25  1  0
 22 26  1  0
 23 27  1  0
  4  7  2  0
 26 27  1  0
 10 12  2  0
 20 21  1  0
M  END
>  <MOLFORMULA>  (624) 
C19 H18 N4 O2 S2

>  <MOLWEIGHT>  (624) 
3.985092000000000e+002

>  <IDNUMBER>  (624) 
AN-153/I137971

>  <PRICE>  (624) 
EUR 130/10 mg

>  <Similarity score>  (624) 
0.19

$$$$

     RDKit          2D

 14 15  0  0  0  0  0  0  0  0999 V2000
    0.1375    0.9458    0.0000 C   0  0  0  0  0  0  0  0  0  0  0  0
    0.1375    0.2833    0.0000 C   0  0  0  0  0  0  0  0  0  0  0  0
   -1.0208    0.9458    0.0000 C   0  0  0  0  0  0  0  0  0  0  0  0
   -1.0208    0.2833    0.0000 C   0  0  0  0  0  0  0  0  0  0  0  0
   -0.4458   -0.0500    0.0000 S   0  0  0  0  0  0  0  0  0  0  0  0
    0.7500    1.2833    0.0000 C   0  0  0  0  0  0  0  0  0  0  0  0
    1.3542    1.6208    0.0000 N   0  0  0  0  0  0  0  0  0  0  0  0
   -1.6000    1.2708    0.0000 C   0  0  0  0  0  0  0  0  0  0  0  0
   -1.6000   -0.0500    0.0000 C   0  0  0  0  0  0  0  0  0  0  0  0
    0.7500   -0.0667    0.0000 N   0  0  0  0  0  0  0  0  0  0  0  0
   -2.1833    0.9458    0.0000 C   0  0  0  0  0  0  0  0  0  0  0  0
   -2.1833    0.2833    0.0000 C   0  0  0  0  0  0  0  0  0  0  0  0
   -2.7958   -0.0667    0.0000 C   0  0  0  0  0  0  0  0  0  0  0  0
   -3.4000    0.2833    0.0000 C   0  0  0  0  0  0  0  0  0  0  0  0
  1  2  2  0
  1  3  1  0
  3  4  2  0
  2  5  1  0
  1  6  1  0
  6  7  3  0
  3  8  1  0
  4  9  1  0
  2 10  1  0
  8 11  1  0
 11 12  1  0
 12 13  1  0
 13 14  1  0
  4  5  1  0
  9 12  1  0
M  END
>  <MOLFORMULA>  (625) 
C11 H14 N2 S

>  <MOLWEIGHT>  (625) 
2.063116000000000e+002

>  <IDNUMBER>  (625) 
AT-225/JK21271

>  <PRICE>  (625) 
EUR 140/10 mg

>  <Similarity score>  (625) 
0.19

$$$$

     RDKit          2D

 24 26  0  0  0  0  0  0  0  0999 V2000
    0.4625    1.9250    0.0000 C   0  0  0  0  0  0  0  0  0  0  0  0
    0.0583    2.8375    0.0000 C   0  0  0  0  0  0  0  0  0  0  0  0
   -1.0375   -2.4042    0.0000 N   0  0  0  0  0  0  0  0  0  0  0  0
   -0.0375   -2.4042    0.0000 C   0  0  0  0  0  0  0  0  0  0  0  0
    1.4583    2.0292    0.0000 S   0  0  0  0  0  0  0  0  0  0  0  0
    0.4625   -3.2708    0.0000 N   0  0  0  0  0  0  0  0  0  0  0  0
    0.8000    3.5083    0.0000 C   0  0  0  0  0  0  0  0  0  0  0  0
    1.6667    3.0083    0.0000 C   0  0  0  0  0  0  0  0  0  0  0  0
   -0.0375   -4.1375    0.0000 C   0  0  0  0  0  0  0  0  0  0  0  0
   -1.5375   -3.2708    0.0000 C   0  0  0  0  0  0  0  0  0  0  0  0
   -1.0375   -4.1375    0.0000 C   0  0  0  0  0  0  0  0  0  0  0  0
   -0.0375    1.0583    0.0000 N   0  0  0  0  0  0  0  0  0  0  0  0
   -0.9208    3.0458    0.0000 C   0  0  0  0  0  0  0  0  0  0  0  0
   -1.2292    3.9958    0.0000 N   0  0  0  0  0  0  0  0  0  0  0  0
    0.4625    0.1917    0.0000 C   0  0  0  0  0  0  0  0  0  0  0  0
    0.4625   -1.5375    0.0000 S   0  0  0  0  0  0  0  0  0  0  0  0
   -2.5375   -3.2708    0.0000 O   0  0  0  0  0  0  0  0  0  0  0  0
    1.4625    0.1917    0.0000 O   0  0  0  0  0  0  0  0  0  0  0  0
    0.4625   -5.0042    0.0000 N   0  0  0  0  0  0  0  0  0  0  0  0
   -0.0375   -0.6750    0.0000 C   0  0  0  0  0  0  0  0  0  0  0  0
    0.8000    4.5042    0.0000 C   0  0  0  0  0  0  0  0  0  0  0  0
    2.5333    3.5083    0.0000 C   0  0  0  0  0  0  0  0  0  0  0  0
    1.6667    5.0042    0.0000 C   0  0  0  0  0  0  0  0  0  0  0  0
    2.5333    4.5042    0.0000 C   0  0  0  0  0  0  0  0  0  0  0  0
  1  2  2  0
  3  4  2  0
  4 16  1  0
  1  5  1  0
  4  6  1  0
  2  7  1  0
  5  8  1  0
  6  9  1  0
  3 10  1  0
  9 11  2  0
  1 12  1  0
  2 13  1  0
 13 14  3  0
 12 15  1  0
 16 20  1  0
 10 17  2  0
 15 18  2  0
  9 19  1  0
 15 20  1  0
  7 21  1  0
  8 22  1  0
 21 23  1  0
 22 24  1  0
  7  8  2  0
 23 24  1  0
 10 11  1  0
M  END
>  <MOLFORMULA>  (626) 
C15 H15 N5 O2 S2

>  <MOLWEIGHT>  (626) 
3.614485000000000e+002

>  <IDNUMBER>  (626) 
AN-153/I169830

>  <PRICE>  (626) 
EUR 130/10 mg

>  <Similarity score>  (626) 
0.19

$$$$

     RDKit          2D

 24 26  0  0  0  0  0  0  0  0999 V2000
   -1.4000    0.3833    0.0000 C   0  0  0  0  0  0  0  0  0  0  0  0
   -1.9750    1.1958    0.0000 C   0  0  0  0  0  0  0  0  0  0  0  0
    3.1208   -0.4792    0.0000 N   0  0  0  0  0  0  0  0  0  0  0  0
    2.6125   -1.3417    0.0000 C   0  0  0  0  0  0  0  0  0  0  0  0
   -1.9750   -0.4042    0.0000 S   0  0  0  0  0  0  0  0  0  0  0  0
   -2.9208    0.8917    0.0000 C   0  0  0  0  0  0  0  0  0  0  0  0
    3.1208   -2.2083    0.0000 N   0  0  0  0  0  0  0  0  0  0  0  0
   -2.9208   -0.1000    0.0000 C   0  0  0  0  0  0  0  0  0  0  0  0
    4.1208   -0.4792    0.0000 C   0  0  0  0  0  0  0  0  0  0  0  0
    4.6292   -1.3417    0.0000 C   0  0  0  0  0  0  0  0  0  0  0  0
    4.1208   -2.2083    0.0000 C   0  0  0  0  0  0  0  0  0  0  0  0
   -0.4000    0.3833    0.0000 N   0  0  0  0  0  0  0  0  0  0  0  0
   -1.6708    2.1333    0.0000 C   0  0  0  0  0  0  0  0  0  0  0  0
   -1.3458    3.1000    0.0000 N   0  0  0  0  0  0  0  0  0  0  0  0
    0.0917   -0.4792    0.0000 C   0  0  0  0  0  0  0  0  0  0  0  0
    1.6125   -1.3417    0.0000 S   0  0  0  0  0  0  0  0  0  0  0  0
    4.6458   -3.0958    0.0000 O   0  0  0  0  0  0  0  0  0  0  0  0
   -0.4000   -1.3417    0.0000 O   0  0  0  0  0  0  0  0  0  0  0  0
    4.6458    0.3833    0.0000 N   0  0  0  0  0  0  0  0  0  0  0  0
    1.1083   -0.4792    0.0000 C   0  0  0  0  0  0  0  0  0  0  0  0
   -3.7833    1.4000    0.0000 C   0  0  0  0  0  0  0  0  0  0  0  0
   -3.7833   -0.6083    0.0000 C   0  0  0  0  0  0  0  0  0  0  0  0
   -4.6500    0.8917    0.0000 C   0  0  0  0  0  0  0  0  0  0  0  0
   -4.6500   -0.1000    0.0000 C   0  0  0  0  0  0  0  0  0  0  0  0
  1  2  2  0
  3  4  2  0
  4 16  1  0
  1  5  1  0
  2  6  1  0
  4  7  1  0
  5  8  1  0
  3  9  1  0
 10 11  1  0
  7 11  1  0
  1 12  1  0
  2 13  1  0
 13 14  3  0
 12 15  1  0
 16 20  1  0
 11 17  2  0
 15 18  2  0
  9 19  1  0
 15 20  1  0
  6 21  1  0
  8 22  1  0
 21 23  1  0
 22 24  1  0
  6  8  2  0
 23 24  1  0
  9 10  2  0
M  END
>  <MOLFORMULA>  (627) 
C15 H15 N5 O2 S2

>  <MOLWEIGHT>  (627) 
3.614485000000000e+002

>  <IDNUMBER>  (627) 
AN-153/I162547

>  <PRICE>  (627) 
EUR 130/10 mg

>  <Similarity score>  (627) 
0.19

$$$$

     RDKit          2D

 24 26  0  0  0  0  0  0  0  0999 V2000
    0.4625    1.9250    0.0000 C   0  0  0  0  0  0  0  0  0  0  0  0
    0.0583    2.8375    0.0000 C   0  0  0  0  0  0  0  0  0  0  0  0
    1.4583    2.0292    0.0000 S   0  0  0  0  0  0  0  0  0  0  0  0
    0.8000    3.5083    0.0000 C   0  0  0  0  0  0  0  0  0  0  0  0
    1.6667    3.0083    0.0000 C   0  0  0  0  0  0  0  0  0  0  0  0
   -1.0375   -2.4042    0.0000 N   0  0  0  0  0  0  0  0  0  0  0  0
    0.4625   -3.2708    0.0000 N   0  0  0  0  0  0  0  0  0  0  0  0
   -0.0375   -2.4042    0.0000 C   0  0  0  0  0  0  0  0  0  0  0  0
   -0.0375    1.0583    0.0000 N   0  0  0  0  0  0  0  0  0  0  0  0
   -0.9208    3.0458    0.0000 C   0  0  0  0  0  0  0  0  0  0  0  0
   -1.5375   -3.2708    0.0000 C   0  0  0  0  0  0  0  0  0  0  0  0
   -0.0375   -4.1375    0.0000 C   0  0  0  0  0  0  0  0  0  0  0  0
   -1.0375   -4.1375    0.0000 C   0  0  0  0  0  0  0  0  0  0  0  0
   -1.2292    3.9958    0.0000 N   0  0  0  0  0  0  0  0  0  0  0  0
    0.4625    0.1917    0.0000 C   0  0  0  0  0  0  0  0  0  0  0  0
    0.4625   -1.5375    0.0000 S   0  0  0  0  0  0  0  0  0  0  0  0
    1.4625    0.1917    0.0000 O   0  0  0  0  0  0  0  0  0  0  0  0
   -0.0375   -0.6750    0.0000 C   0  0  0  0  0  0  0  0  0  0  0  0
   -2.5375   -3.2708    0.0000 N   0  0  0  0  0  0  0  0  0  0  0  0
    0.4625   -5.0042    0.0000 O   0  0  0  0  0  0  0  0  0  0  0  0
    0.8000    4.5042    0.0000 C   0  0  0  0  0  0  0  0  0  0  0  0
    2.5333    3.5083    0.0000 C   0  0  0  0  0  0  0  0  0  0  0  0
    1.6667    5.0042    0.0000 C   0  0  0  0  0  0  0  0  0  0  0  0
    2.5333    4.5042    0.0000 C   0  0  0  0  0  0  0  0  0  0  0  0
  1  2  2  0
  1  3  1  0
  2  4  1  0
  3  5  1  0
  6  8  2  0
  7  8  1  0
  8 16  1  0
  1  9  1  0
  2 10  1  0
  6 11  1  0
  7 12  2  0
 12 13  1  0
 10 14  3  0
  9 15  1  0
 16 18  1  0
 15 17  2  0
 15 18  1  0
 11 19  1  0
 12 20  1  0
  4 21  1  0
  5 22  1  0
 21 23  1  0
 22 24  1  0
  4  5  2  0
 23 24  1  0
 11 13  2  0
M  END
>  <MOLFORMULA>  (628) 
C15 H15 N5 O2 S2

>  <MOLWEIGHT>  (628) 
3.614485000000000e+002

>  <IDNUMBER>  (628) 
AN-153/I189190

>  <PRICE>  (628) 
EUR 130/10 mg

>  <Similarity score>  (628) 
0.19

$$$$

     RDKit          2D

 31 34  0  0  0  0  0  0  0  0999 V2000
   11.3875   -4.8167    0.0000 C   0  0  0  0  0  0  0  0  0  0  0  0
   12.0542   -5.3042    0.0000 C   0  0  0  0  0  0  0  0  0  0  0  0
    7.1375   -3.9792    0.0000 N   0  0  0  0  0  0  0  0  0  0  0  0
   11.6417   -4.0375    0.0000 S   0  0  0  0  0  0  0  0  0  0  0  0
    6.4667   -4.4667    0.0000 C   0  0  0  0  0  0  0  0  0  0  0  0
   12.7292   -4.8292    0.0000 C   0  0  0  0  0  0  0  0  0  0  0  0
    6.7167   -5.2542    0.0000 N   0  0  0  0  0  0  0  0  0  0  0  0
   12.4667   -4.0292    0.0000 C   0  0  0  0  0  0  0  0  0  0  0  0
    7.8042   -4.4667    0.0000 C   0  0  0  0  0  0  0  0  0  0  0  0
    7.5500   -5.2542    0.0000 N   0  0  0  0  0  0  0  0  0  0  0  0
   10.6042   -5.0667    0.0000 N   0  0  0  0  0  0  0  0  0  0  0  0
    5.6792   -4.2125    0.0000 C   0  0  0  0  0  0  0  0  0  0  0  0
   12.0542   -6.1292    0.0000 C   0  0  0  0  0  0  0  0  0  0  0  0
   11.3417   -6.5417    0.0000 N   0  0  0  0  0  0  0  0  0  0  0  0
    9.9917   -4.5167    0.0000 C   0  0  0  0  0  0  0  0  0  0  0  0
    8.5917   -4.2167    0.0000 S   0  0  0  0  0  0  0  0  0  0  0  0
    5.5042   -3.4000    0.0000 C   0  0  0  0  0  0  0  0  0  0  0  0
    5.0667   -4.7625    0.0000 C   0  0  0  0  0  0  0  0  0  0  0  0
    4.1000   -3.6917    0.0000 C   0  0  0  0  0  0  0  0  0  0  0  0
    4.2792   -4.5042    0.0000 C   0  0  0  0  0  0  0  0  0  0  0  0
    4.7167   -3.1417    0.0000 C   0  0  0  0  0  0  0  0  0  0  0  0
   10.1667   -3.7125    0.0000 O   0  0  0  0  0  0  0  0  0  0  0  0
    9.2042   -4.7667    0.0000 C   0  0  0  0  0  0  0  0  0  0  0  0
   13.5375   -5.0042    0.0000 C   0  0  0  0  0  0  0  0  0  0  0  0
   13.0292   -3.4167    0.0000 C   0  0  0  0  0  0  0  0  0  0  0  0
    3.6625   -5.0667    0.0000 O   0  0  0  0  0  0  0  0  0  0  0  0
    4.5500   -2.3292    0.0000 O   0  0  0  0  0  0  0  0  0  0  0  0
    2.8750   -4.8167    0.0000 C   0  0  0  0  0  0  0  0  0  0  0  0
    5.1625   -1.7792    0.0000 C   0  0  0  0  0  0  0  0  0  0  0  0
   14.1000   -4.3792    0.0000 C   0  0  0  0  0  0  0  0  0  0  0  0
   13.8417   -3.5917    0.0000 C   0  0  0  0  0  0  0  0  0  0  0  0
  1  2  2  0
  3  9  1  0
  1  4  1  0
  3  5  1  0
  2  6  1  0
  7 10  1  0
  4  8  1  0
  9 16  1  0
  9 10  2  0
  1 11  1  0
  5 12  1  0
  2 13  1  0
 13 14  3  0
 11 15  1  0
 16 23  1  0
 12 17  2  0
 12 18  1  0
 19 20  1  0
 18 20  2  0
 17 21  1  0
 15 22  2  0
 15 23  1  0
  6 24  1  0
  8 25  1  0
 20 26  1  0
 21 27  1  0
 26 28  1  0
 27 29  1  0
 24 30  1  0
 25 31  1  0
  6  8  2  0
 30 31  1  0
  5  7  2  0
 19 21  2  0
M  END
>  <MOLFORMULA>  (629) 
C21 H21 N5 O3 S2

>  <MOLWEIGHT>  (629) 
4.555609000000000e+002

>  <IDNUMBER>  (629) 
AM-879/J185590

>  <PRICE>  (629) 
EUR 55.00/10 mg

>  <Similarity score>  (629) 
0.19

$$$$

     RDKit          2D

 26 28  0  0  0  0  0  0  0  0999 V2000
    2.2125    6.0417    0.0000 C   0  0  0  0  0  0  0  0  0  0  0  0
    0.1667    4.2542    0.0000 C   0  0  0  0  0  0  0  0  0  0  0  0
    4.4250    4.6375    0.0000 S   0  0  0  0  0  0  0  0  0  0  0  0
    1.2750    1.8333    0.0000 C   0  0  0  0  0  0  0  0  0  0  0  0
    9.7792    3.3625    0.0000 N   0  0  0  0  0  0  0  0  0  0  0  0
    9.2750    6.0417    0.0000 C   0  0  0  0  0  0  0  0  0  0  0  0
    3.8292    1.9583    0.0000 C   0  0  0  0  0  0  0  0  0  0  0  0
   11.4042    7.8292    0.0000 N   0  0  0  0  0  0  0  0  0  0  0  0
   12.3375    2.4708    0.0000 C   0  0  0  0  0  0  0  0  0  0  0  0
    1.6167    8.5917    0.0000 N   0  0  0  0  0  0  0  0  0  0  0  0
   14.3792    4.2542    0.0000 C   0  0  0  0  0  0  0  0  0  0  0  0
   13.8667    6.8042    0.0000 C   0  0  0  0  0  0  0  0  0  0  0  0
   -2.5583    4.7625    0.0000 C   0  0  0  0  0  0  0  0  0  0  0  0
   -5.2833    5.2750    0.0000 N   0  0  0  0  0  0  0  0  0  0  0  0
    3.6542   10.3792    0.0000 C   0  0  0  0  0  0  0  0  0  0  0  0
    6.7167    6.9292    0.0000 S   0  0  0  0  0  0  0  0  0  0  0  0
   12.7625   -0.3375    0.0000 O   0  0  0  0  0  0  0  0  0  0  0  0
    3.0625   12.9292    0.0000 O   0  0  0  0  0  0  0  0  0  0  0  0
    6.1250    9.4875    0.0000 C   0  0  0  0  0  0  0  0  0  0  0  0
   -0.5958   -0.2125    0.0000 C   0  0  0  0  0  0  0  0  0  0  0  0
    5.7792    0.1708    0.0000 C   0  0  0  0  0  0  0  0  0  0  0  0
   16.0000    8.5917    0.0000 C   0  0  0  0  0  0  0  0  0  0  0  0
   -0.4333   -2.8917    0.0000 C   0  0  0  0  0  0  0  0  0  0  0  0
    5.9542   -2.5042    0.0000 C   0  0  0  0  0  0  0  0  0  0  0  0
    1.5292   -4.6792    0.0000 C   0  0  0  0  0  0  0  0  0  0  0  0
    4.0792   -4.5500    0.0000 C   0  0  0  0  0  0  0  0  0  0  0  0
  1  2  2  0
  1  3  1  0
  2  4  1  0
  5  6  1  0
  6 16  1  0
  3  7  1  0
  6  8  2  0
  5  9  1  0
  1 10  1  0
 11 12  2  0
  8 12  1  0
  2 13  1  0
 13 14  3  0
 10 15  1  0
 16 19  1  0
  9 17  2  0
 15 18  2  0
 15 19  1  0
  4 20  1  0
  7 21  1  0
 12 22  1  0
 20 23  1  0
 21 24  1  0
 23 25  1  0
 24 26  1  0
  4  7  2  0
 25 26  1  0
  9 11  1  0
M  END
>  <MOLFORMULA>  (630) 
C18 H20 N4 O2 S2

>  <MOLWEIGHT>  (630) 
3.885140000000000e+002

>  <IDNUMBER>  (630) 
AT-225/NB85496

>  <PRICE>  (630) 
EUR 140/10 mg

>  <Similarity score>  (630) 
0.19

$$$$

     RDKit          2D

 19 20  0  0  0  0  0  0  0  0999 V2000
    2.3667   -5.3542    0.0000 C   0  0  0  0  0  0  0  0  0  0  0  0
    2.8542   -6.0250    0.0000 C   0  0  0  0  0  0  0  0  0  0  0  0
    1.5875   -6.4292    0.0000 C   0  0  0  0  0  0  0  0  0  0  0  0
    1.5875   -5.6042    0.0000 C   0  0  0  0  0  0  0  0  0  0  0  0
    2.3667   -6.6875    0.0000 S   0  0  0  0  0  0  0  0  0  0  0  0
   -0.5625   -6.8542    0.0000 C   0  0  0  0  0  0  0  0  0  0  0  0
    0.1542   -6.4292    0.0000 N   0  0  0  0  0  0  0  0  0  0  0  0
    0.8750   -6.8417    0.0000 C   0  0  0  0  0  0  0  0  0  0  0  0
    2.6250   -4.5667    0.0000 C   0  0  0  0  0  0  0  0  0  0  0  0
    2.8792   -3.7792    0.0000 N   0  0  0  0  0  0  0  0  0  0  0  0
    0.8750   -5.1917    0.0000 C   0  0  0  0  0  0  0  0  0  0  0  0
   -1.2833   -6.4417    0.0000 O   0  0  0  0  0  0  0  0  0  0  0  0
    0.1542   -5.6042    0.0000 C   0  0  0  0  0  0  0  0  0  0  0  0
   -0.5583   -7.6792    0.0000 O   0  0  0  0  0  0  0  0  0  0  0  0
    3.6792   -6.0292    0.0000 N   0  0  0  0  0  0  0  0  0  0  0  0
   -1.9958   -6.8542    0.0000 C   0  0  0  0  0  0  0  0  0  0  0  0
   -2.7125   -7.2792    0.0000 C   0  0  0  0  0  0  0  0  0  0  0  0
   -2.4208   -6.1417    0.0000 C   0  0  0  0  0  0  0  0  0  0  0  0
   -1.5750   -7.5750    0.0000 C   0  0  0  0  0  0  0  0  0  0  0  0
  1  2  2  0
  3  4  2  0
  1  4  1  0
  2  5  1  0
  6  7  1  0
  7 13  1  0
  3  8  1  0
  1  9  1  0
  9 10  3  0
  4 11  1  0
  6 12  1  0
 11 13  1  0
  6 14  2  0
  2 15  1  0
 12 16  1  0
 16 17  1  0
 16 18  1  0
 16 19  1  0
  3  5  1  0
  7  8  1  0
M  END
>  <MOLFORMULA>  (631) 
C13 H17 N3 O2 S

>  <MOLWEIGHT>  (631) 
2.793623000000000e+002

>  <IDNUMBER>  (631) 
AT-687/SK08594

>  <PRICE>  (631) 
EUR 80/10 mg

>  <Similarity score>  (631) 
0.19

$$$$

     RDKit          2D

 26 28  0  0  0  0  0  0  0  0999 V2000
    1.9625    1.0583    0.0000 C   0  0  0  0  0  0  0  0  0  0  0  0
    2.9583    1.1625    0.0000 C   0  0  0  0  0  0  0  0  0  0  0  0
    1.5583    1.9708    0.0000 S   0  0  0  0  0  0  0  0  0  0  0  0
    3.1667    2.1417    0.0000 C   0  0  0  0  0  0  0  0  0  0  0  0
    1.4625    0.1917    0.0000 N   0  0  0  0  0  0  0  0  0  0  0  0
   -1.5375   -1.5375    0.0000 C   0  0  0  0  0  0  0  0  0  0  0  0
    2.3000    2.6417    0.0000 C   0  0  0  0  0  0  0  0  0  0  0  0
    0.4625    0.1917    0.0000 C   0  0  0  0  0  0  0  0  0  0  0  0
   -2.5375   -1.5375    0.0000 N   0  0  0  0  0  0  0  0  0  0  0  0
   -1.0375   -2.4042    0.0000 N   0  0  0  0  0  0  0  0  0  0  0  0
    3.6292    0.4208    0.0000 C   0  0  0  0  0  0  0  0  0  0  0  0
   -1.0375   -0.6750    0.0000 S   0  0  0  0  0  0  0  0  0  0  0  0
    3.3167   -0.5292    0.0000 N   0  0  0  0  0  0  0  0  0  0  0  0
   -0.0375   -0.6750    0.0000 C   0  0  0  0  0  0  0  0  0  0  0  0
   -3.0375   -2.4042    0.0000 C   0  0  0  0  0  0  0  0  0  0  0  0
   -1.5375   -3.2708    0.0000 C   0  0  0  0  0  0  0  0  0  0  0  0
   -0.0375    1.0583    0.0000 O   0  0  0  0  0  0  0  0  0  0  0  0
   -2.5375   -3.2708    0.0000 C   0  0  0  0  0  0  0  0  0  0  0  0
    4.0333    2.6417    0.0000 C   0  0  0  0  0  0  0  0  0  0  0  0
    2.3000    3.6417    0.0000 C   0  0  0  0  0  0  0  0  0  0  0  0
    0.4625   -1.5375    0.0000 C   0  0  0  0  0  0  0  0  0  0  0  0
   -1.0375   -4.1375    0.0000 C   0  0  0  0  0  0  0  0  0  0  0  0
   -4.0375   -2.4042    0.0000 C   0  0  0  0  0  0  0  0  0  0  0  0
    4.0333    3.6417    0.0000 C   0  0  0  0  0  0  0  0  0  0  0  0
    3.1667    4.1375    0.0000 C   0  0  0  0  0  0  0  0  0  0  0  0
   -0.0375   -2.4042    0.0000 C   0  0  0  0  0  0  0  0  0  0  0  0
  1  2  2  0
  1  3  1  0
  2  4  1  0
  1  5  1  0
  6 12  1  0
  3  7  1  0
  5  8  1  0
  6  9  1  0
  6 10  2  0
  2 11  1  0
 12 14  1  0
 11 13  3  0
  8 14  1  0
  9 15  2  0
 10 16  1  0
  8 17  2  0
 16 18  2  0
  4 19  1  0
  7 20  1  0
 14 21  1  0
 16 22  1  0
 15 23  1  0
 19 24  1  0
 20 25  1  0
 21 26  1  0
  4  7  2  0
 24 25  1  0
 15 18  1  0
M  END
>  <MOLFORMULA>  (632) 
C19 H22 N4 O S2

>  <MOLWEIGHT>  (632) 
3.865418000000000e+002

>  <IDNUMBER>  (632) 
AN-153/I144955

>  <PRICE>  (632) 
EUR 130/10 mg

>  <Similarity score>  (632) 
0.18

$$$$

     RDKit          2D

 19 21  0  0  0  0  0  0  0  0999 V2000
    2.1583    0.9500    0.0000 C   0  0  0  0  0  0  0  0  0  0  0  0
    2.4458   -0.0083    0.0000 C   0  0  0  0  0  0  0  0  0  0  0  0
    0.8542   -0.0083    0.0000 C   0  0  0  0  0  0  0  0  0  0  0  0
    1.1625    0.9208    0.0000 C   0  0  0  0  0  0  0  0  0  0  0  0
    1.6792   -0.6000    0.0000 S   0  0  0  0  0  0  0  0  0  0  0  0
    2.7583    1.7583    0.0000 C   0  0  0  0  0  0  0  0  0  0  0  0
   -0.7792    0.4833    0.0000 N   0  0  0  0  0  0  0  0  0  0  0  0
    3.3583    2.5625    0.0000 N   0  0  0  0  0  0  0  0  0  0  0  0
   -0.1167   -0.2250    0.0000 C   0  0  0  0  0  0  0  0  0  0  0  0
    0.4792    1.6625    0.0000 C   0  0  0  0  0  0  0  0  0  0  0  0
    3.4208   -0.3542    0.0000 N   0  0  0  0  0  0  0  0  0  0  0  0
   -0.4833    1.4417    0.0000 C   0  0  0  0  0  0  0  0  0  0  0  0
   -1.7917    0.2958    0.0000 C   0  0  0  0  0  0  0  0  0  0  0  0
   -2.1208   -0.6583    0.0000 C   0  0  0  0  0  0  0  0  0  0  0  0
   -1.4583   -1.4125    0.0000 C   0  0  0  0  0  0  0  0  0  0  0  0
   -3.0917   -0.8500    0.0000 C   0  0  0  0  0  0  0  0  0  0  0  0
   -3.4250   -1.8125    0.0000 C   0  0  0  0  0  0  0  0  0  0  0  0
   -1.7917   -2.3417    0.0000 C   0  0  0  0  0  0  0  0  0  0  0  0
   -2.7625   -2.5583    0.0000 C   0  0  0  0  0  0  0  0  0  0  0  0
  1  2  2  0
  3  4  2  0
  1  4  1  0
  2  5  1  0
  1  6  1  0
  7 12  1  0
  6  8  3  0
  3  9  1  0
  4 10  1  0
  2 11  1  0
 10 12  1  0
  7 13  1  0
 13 14  1  0
 14 15  1  0
 14 16  2  0
 16 17  1  0
 15 18  2  0
 18 19  1  0
  3  5  1  0
  7  9  1  0
 17 19  2  0
M  END
>  <MOLFORMULA>  (633) 
C15 H15 N3 S

>  <MOLWEIGHT>  (633) 
2.693705000000000e+002

>  <IDNUMBER>  (633) 
AN-153/NB12164

>  <PRICE>  (633) 
EUR 130/10 mg

>  <Similarity score>  (633) 
0.18

$$$$

     RDKit          2D

 19 21  0  0  0  0  0  0  0  0999 V2000
    1.4292    0.2000    0.0000 C   0  0  0  0  0  0  0  0  0  0  0  0
    1.4292   -0.5500    0.0000 C   0  0  0  0  0  0  0  0  0  0  0  0
    0.1167   -0.5500    0.0000 C   0  0  0  0  0  0  0  0  0  0  0  0
    0.1167    0.2083    0.0000 C   0  0  0  0  0  0  0  0  0  0  0  0
    0.7750   -0.9250    0.0000 S   0  0  0  0  0  0  0  0  0  0  0  0
    2.0667    0.5833    0.0000 C   0  0  0  0  0  0  0  0  0  0  0  0
   -1.1833   -0.5500    0.0000 N   0  0  0  0  0  0  0  0  0  0  0  0
    2.7292    0.2208    0.0000 N   0  0  0  0  0  0  0  0  0  0  0  0
   -0.5333   -0.9250    0.0000 C   0  0  0  0  0  0  0  0  0  0  0  0
   -0.5333    0.5833    0.0000 C   0  0  0  0  0  0  0  0  0  0  0  0
    2.0792   -0.9250    0.0000 N   0  0  0  0  0  0  0  0  0  0  0  0
   -1.1833    0.2083    0.0000 C   0  0  0  0  0  0  0  0  0  0  0  0
   -1.8333   -0.9250    0.0000 C   0  0  0  0  0  0  0  0  0  0  0  0
   -2.4833   -0.5500    0.0000 C   0  0  0  0  0  0  0  0  0  0  0  0
   -3.1333   -0.9250    0.0000 C   0  0  0  0  0  0  0  0  0  0  0  0
   -2.4833    0.2000    0.0000 C   0  0  0  0  0  0  0  0  0  0  0  0
   -3.1333    0.5750    0.0000 C   0  0  0  0  0  0  0  0  0  0  0  0
   -3.7833   -0.5500    0.0000 C   0  0  0  0  0  0  0  0  0  0  0  0
   -3.7833    0.2000    0.0000 C   0  0  0  0  0  0  0  0  0  0  0  0
  1  2  2  0
  3  4  2  0
  1  4  1  0
  2  5  1  0
  1  6  1  0
  7 12  1  0
  6  8  3  0
  3  9  1  0
  4 10  1  0
  2 11  1  0
 10 12  1  0
  7 13  1  0
 13 14  1  0
 14 15  2  0
 14 16  1  0
 16 17  2  0
 15 18  1  0
 17 19  1  0
  3  5  1  0
  7  9  1  0
 18 19  2  0
M  END
>  <MOLFORMULA>  (634) 
C15 H15 N3 S

>  <MOLWEIGHT>  (634) 
2.693705000000000e+002

>  <IDNUMBER>  (634) 
AT-225/JK18545

>  <PRICE>  (634) 
EUR 140/10 mg

>  <Similarity score>  (634) 
0.18

$$$$

     RDKit          2D

 13 14  0  0  0  0  0  0  0  0999 V2000
   -1.1750   -0.3542    0.0000 C   0  0  0  0  0  0  0  0  0  0  0  0
   -1.5833    0.5583    0.0000 C   0  0  0  0  0  0  0  0  0  0  0  0
   -0.1833   -0.2500    0.0000 C   0  0  0  0  0  0  0  0  0  0  0  0
    0.0250    0.7250    0.0000 C   0  0  0  0  0  0  0  0  0  0  0  0
   -0.8375    1.2250    0.0000 S   0  0  0  0  0  0  0  0  0  0  0  0
   -1.6750   -1.2208    0.0000 C   0  0  0  0  0  0  0  0  0  0  0  0
   -2.6750   -1.2208    0.0000 N   0  0  0  0  0  0  0  0  0  0  0  0
    1.7208    0.3667    0.0000 N   0  0  0  0  0  0  0  0  0  0  0  0
    0.9792    1.0375    0.0000 C   0  0  0  0  0  0  0  0  0  0  0  0
    0.5625   -0.9208    0.0000 C   0  0  0  0  0  0  0  0  0  0  0  0
   -2.5625    0.7667    0.0000 N   0  0  0  0  0  0  0  0  0  0  0  0
    1.5125   -0.6125    0.0000 C   0  0  0  0  0  0  0  0  0  0  0  0
    2.6708    0.6750    0.0000 C   0  0  0  0  0  0  0  0  0  0  0  0
  1  2  2  0
  1  3  1  0
  3  4  2  0
  2  5  1  0
  1  6  1  0
  6  7  3  0
  8 12  1  0
  4  9  1  0
  3 10  1  0
  2 11  1  0
 10 12  1  0
  8 13  1  0
  4  5  1  0
  8  9  1  0
M  END
>  <MOLFORMULA>  (635) 
C9 H11 N3 S

>  <MOLWEIGHT>  (635) 
1.932729000000000e+002

>  <IDNUMBER>  (635) 
AN-153/I108034

>  <PRICE>  (635) 
EUR 130/10 mg

>  <Similarity score>  (635) 
0.18

$$$$

     RDKit          2D

 13 14  0  0  0  0  0  0  0  0999 V2000
    7.0667   -2.7917    0.0000 C   0  0  0  0  0  0  0  0  0  0  0  0
    7.3167   -3.5750    0.0000 C   0  0  0  0  0  0  0  0  0  0  0  0
    6.2417   -2.7917    0.0000 C   0  0  0  0  0  0  0  0  0  0  0  0
    5.9917   -3.5750    0.0000 C   0  0  0  0  0  0  0  0  0  0  0  0
    6.6625   -4.0542    0.0000 S   0  0  0  0  0  0  0  0  0  0  0  0
    7.5542   -2.1167    0.0000 C   0  0  0  0  0  0  0  0  0  0  0  0
    8.0417   -1.4500    0.0000 N   0  0  0  0  0  0  0  0  0  0  0  0
    4.6292   -3.1375    0.0000 N   0  0  0  0  0  0  0  0  0  0  0  0
    5.1875   -3.7500    0.0000 C   0  0  0  0  0  0  0  0  0  0  0  0
    5.6917   -2.1792    0.0000 C   0  0  0  0  0  0  0  0  0  0  0  0
    8.1042   -3.8292    0.0000 N   0  0  0  0  0  0  0  0  0  0  0  0
    4.8917   -2.3542    0.0000 C   0  0  0  0  0  0  0  0  0  0  0  0
    3.8167   -3.3042    0.0000 C   0  0  0  0  0  0  0  0  0  0  0  0
  1  2  2  0
  1  3  1  0
  3  4  2  0
  2  5  1  0
  1  6  1  0
  6  7  3  0
  8 12  1  0
  4  9  1  0
  3 10  1  0
  2 11  1  0
 10 12  1  0
  8 13  1  0
  4  5  1  0
  8  9  1  0
M  END
>  <MOLFORMULA>  (636) 
C9 H11 N3 S

>  <MOLWEIGHT>  (636) 
1.932729000000000e+002

>  <IDNUMBER>  (636) 
AT-687/SK15998

>  <PRICE>  (636) 
EUR 80/10 mg

>  <Similarity score>  (636) 
0.18

$$$$

     RDKit          2D

 13 14  0  0  0  0  0  0  0  0999 V2000
    0.9042    0.3458    0.0000 C   0  0  0  0  0  0  0  0  0  0  0  0
    1.1500   -0.3375    0.0000 C   0  0  0  0  0  0  0  0  0  0  0  0
    0.2000    0.3458    0.0000 C   0  0  0  0  0  0  0  0  0  0  0  0
    0.0000   -0.3375    0.0000 C   0  0  0  0  0  0  0  0  0  0  0  0
    0.5875   -0.7542    0.0000 S   0  0  0  0  0  0  0  0  0  0  0  0
    1.3292    0.9458    0.0000 C   0  0  0  0  0  0  0  0  0  0  0  0
    1.7292    1.5333    0.0000 N   0  0  0  0  0  0  0  0  0  0  0  0
   -1.1958    0.0125    0.0000 N   0  0  0  0  0  0  0  0  0  0  0  0
   -0.7125   -0.5042    0.0000 C   0  0  0  0  0  0  0  0  0  0  0  0
   -0.2958    0.8708    0.0000 C   0  0  0  0  0  0  0  0  0  0  0  0
    1.8500   -0.5667    0.0000 N   0  0  0  0  0  0  0  0  0  0  0  0
   -0.9833    0.7125    0.0000 C   0  0  0  0  0  0  0  0  0  0  0  0
   -1.8958   -0.1667    0.0000 C   0  0  0  0  0  0  0  0  0  0  0  0
  1  2  2  0
  1  3  1  0
  3  4  2  0
  2  5  1  0
  1  6  1  0
  6  7  3  0
  8 12  1  0
  4  9  1  0
  3 10  1  0
  2 11  1  0
 10 12  1  0
  8 13  1  0
  4  5  1  0
  8  9  1  0
M  END
>  <MOLFORMULA>  (637) 
C9 H11 N3 S

>  <MOLWEIGHT>  (637) 
1.932729000000000e+002

>  <IDNUMBER>  (637) 
AT-225/JK15585

>  <PRICE>  (637) 
EUR 140/10 mg

>  <Similarity score>  (637) 
0.18

$$$$

     RDKit          2D

 32 34  0  0  0  0  0  0  0  0999 V2000
    9.6667   -1.6292    0.0000 C   0  0  0  0  0  0  0  0  0  0  0  0
   10.4792   -1.4667    0.0000 C   0  0  0  0  0  0  0  0  0  0  0  0
   10.3250   -2.7917    0.0000 C   0  0  0  0  0  0  0  0  0  0  0  0
   10.8792   -2.1875    0.0000 C   0  0  0  0  0  0  0  0  0  0  0  0
    9.5750   -2.4500    0.0000 S   0  0  0  0  0  0  0  0  0  0  0  0
    5.8917   -2.0167    0.0000 C   0  0  0  0  0  0  0  0  0  0  0  0
    6.4917   -2.5875    0.0000 C   0  0  0  0  0  0  0  0  0  0  0  0
    9.0667   -1.0667    0.0000 N   0  0  0  0  0  0  0  0  0  0  0  0
    6.3000   -3.3917    0.0000 N   0  0  0  0  0  0  0  0  0  0  0  0
   10.8167   -0.7167    0.0000 C   0  0  0  0  0  0  0  0  0  0  0  0
    5.1042   -2.2542    0.0000 C   0  0  0  0  0  0  0  0  0  0  0  0
    6.0792   -1.2125    0.0000 C   0  0  0  0  0  0  0  0  0  0  0  0
   10.5667   -3.5750    0.0000 C   0  0  0  0  0  0  0  0  0  0  0  0
   11.1625    0.0333    0.0000 N   0  0  0  0  0  0  0  0  0  0  0  0
    6.2667   -0.4125    0.0000 N   0  0  0  0  0  0  0  0  0  0  0  0
   11.6792   -2.3625    0.0000 C   0  0  0  0  0  0  0  0  0  0  0  0
    8.2792   -1.3125    0.0000 C   0  0  0  0  0  0  0  0  0  0  0  0
    7.2875   -2.3542    0.0000 S   0  0  0  0  0  0  0  0  0  0  0  0
   11.3667   -3.7542    0.0000 C   0  0  0  0  0  0  0  0  0  0  0  0
    5.5042   -3.6250    0.0000 C   0  0  0  0  0  0  0  0  0  0  0  0
   11.6167   -4.5417    0.0000 C   0  0  0  0  0  0  0  0  0  0  0  0
    4.9125   -3.0542    0.0000 C   0  0  0  0  0  0  0  0  0  0  0  0
   11.9292   -3.1417    0.0000 C   0  0  0  0  0  0  0  0  0  0  0  0
    7.6667   -0.7417    0.0000 O   0  0  0  0  0  0  0  0  0  0  0  0
    8.0875   -2.1167    0.0000 C   0  0  0  0  0  0  0  0  0  0  0  0
    4.5042   -1.6875    0.0000 C   0  0  0  0  0  0  0  0  0  0  0  0
    4.6917   -0.8792    0.0000 O   0  0  0  0  0  0  0  0  0  0  0  0
   10.9042   -4.9500    0.0000 C   0  0  0  0  0  0  0  0  0  0  0  0
   12.4417   -4.5417    0.0000 C   0  0  0  0  0  0  0  0  0  0  0  0
   11.8292   -5.3375    0.0000 C   0  0  0  0  0  0  0  0  0  0  0  0
    5.3167   -4.4250    0.0000 C   0  0  0  0  0  0  0  0  0  0  0  0
    4.0917   -0.3167    0.0000 C   0  0  0  0  0  0  0  0  0  0  0  0
  1  2  2  0
  3  5  1  0
  2  4  1  0
  1  5  1  0
  6  7  1  0
  7 18  1  0
  1  8  1  0
  7  9  2  0
  2 10  1  0
  6 11  2  0
  6 12  1  0
  3 13  1  0
 10 14  3  0
 12 15  3  0
  4 16  1  0
  8 17  1  0
 18 25  1  0
 13 19  1  0
  9 20  1  0
 19 21  1  0
 20 22  2  0
 16 23  1  0
 17 24  2  0
 17 25  1  0
 11 26  1  0
 26 27  1  0
 21 28  1  0
 21 29  1  0
 21 30  1  0
 20 31  1  0
 27 32  1  0
  3  4  2  0
 19 23  1  0
 11 22  1  0
M  END
>  <MOLFORMULA>  (638) 
C24 H28 N4 O2 S2

>  <MOLWEIGHT>  (638) 
4.686432000000000e+002

>  <IDNUMBER>  (638) 
AT-138/QI00476

>  <CHIRALFLAG>  (638) 
-

>  <PRICE>  (638) 
EUR 125.00/10 mg

>  <Similarity score>  (638) 
0.18

$$$$

     RDKit          2D

 25 28  0  0  0  0  0  0  0  0999 V2000
   -2.5333    0.3833    0.0000 C   0  0  0  0  0  0  0  0  0  0  0  0
   -3.1208    1.1917    0.0000 C   0  0  0  0  0  0  0  0  0  0  0  0
   -3.1208   -0.4250    0.0000 S   0  0  0  0  0  0  0  0  0  0  0  0
   -4.0708    0.8833    0.0000 C   0  0  0  0  0  0  0  0  0  0  0  0
    1.4667   -1.3458    0.0000 C   0  0  0  0  0  0  0  0  0  0  0  0
    2.0542   -0.5375    0.0000 N   0  0  0  0  0  0  0  0  0  0  0  0
   -4.0708   -0.1167    0.0000 C   0  0  0  0  0  0  0  0  0  0  0  0
    2.0542   -2.1583    0.0000 N   0  0  0  0  0  0  0  0  0  0  0  0
   -1.5333    0.3833    0.0000 N   0  0  0  0  0  0  0  0  0  0  0  0
    3.0083   -0.8500    0.0000 C   0  0  0  0  0  0  0  0  0  0  0  0
   -2.8125    2.1458    0.0000 C   0  0  0  0  0  0  0  0  0  0  0  0
    3.0083   -1.8500    0.0000 C   0  0  0  0  0  0  0  0  0  0  0  0
   -1.8333    2.3500    0.0000 N   0  0  0  0  0  0  0  0  0  0  0  0
   -1.0333   -0.4833    0.0000 C   0  0  0  0  0  0  0  0  0  0  0  0
    0.4667   -1.3458    0.0000 S   0  0  0  0  0  0  0  0  0  0  0  0
    3.8750   -0.3500    0.0000 C   0  0  0  0  0  0  0  0  0  0  0  0
   -1.5333   -1.3458    0.0000 O   0  0  0  0  0  0  0  0  0  0  0  0
    3.8750   -2.3500    0.0000 C   0  0  0  0  0  0  0  0  0  0  0  0
   -0.0333   -0.4833    0.0000 C   0  0  0  0  0  0  0  0  0  0  0  0
    4.7375   -0.8500    0.0000 C   0  0  0  0  0  0  0  0  0  0  0  0
   -5.0208    1.1917    0.0000 C   0  0  0  0  0  0  0  0  0  0  0  0
   -5.0208   -0.4250    0.0000 C   0  0  0  0  0  0  0  0  0  0  0  0
    4.7375   -1.8500    0.0000 C   0  0  0  0  0  0  0  0  0  0  0  0
   -5.6083    0.3833    0.0000 C   0  0  0  0  0  0  0  0  0  0  0  0
    5.6042   -0.3500    0.0000 C   0  0  0  0  0  0  0  0  0  0  0  0
  1  2  2  0
  1  3  1  0
  2  4  1  0
  5 15  1  0
  5  6  2  0
  3  7  1  0
  5  8  1  0
  1  9  1  0
  6 10  1  0
  2 11  1  0
  8 12  1  0
 11 13  3  0
  9 14  1  0
 15 19  1  0
 10 16  1  0
 14 17  2  0
 12 18  1  0
 14 19  1  0
 16 20  2  0
  4 21  1  0
  7 22  1  0
 18 23  2  0
 22 24  1  0
 20 25  1  0
  4  7  2  0
 21 24  1  0
 10 12  2  0
 20 23  1  0
M  END
>  <MOLFORMULA>  (639) 
C18 H16 N4 O S2

>  <MOLWEIGHT>  (639) 
3.684834000000000e+002

>  <IDNUMBER>  (639) 
AN-153/I152895

>  <PRICE>  (639) 
EUR 130/10 mg

>  <Similarity score>  (639) 
0.18

$$$$

     RDKit          2D

 12 13  0  0  0  0  0  0  0  0999 V2000
    2.1125   -2.4125    0.0000 C   0  0  0  0  0  0  0  0  0  0  0  0
    1.3292   -1.3292    0.0000 C   0  0  0  0  0  0  0  0  0  0  0  0
    3.3667   -1.9917    0.0000 C   0  0  0  0  0  0  0  0  0  0  0  0
    2.1125   -0.2542    0.0000 S   0  0  0  0  0  0  0  0  0  0  0  0
    3.3667   -0.6625    0.0000 C   0  0  0  0  0  0  0  0  0  0  0  0
    1.6917   -3.6792    0.0000 C   0  0  0  0  0  0  0  0  0  0  0  0
    1.2875   -4.9375    0.0000 N   0  0  0  0  0  0  0  0  0  0  0  0
    5.6792   -0.6625    0.0000 N   0  0  0  0  0  0  0  0  0  0  0  0
    0.0000   -1.3292    0.0000 N   0  0  0  0  0  0  0  0  0  0  0  0
    4.5292   -0.0000    0.0000 C   0  0  0  0  0  0  0  0  0  0  0  0
    4.5292   -2.6542    0.0000 C   0  0  0  0  0  0  0  0  0  0  0  0
    5.6792   -1.9917    0.0000 C   0  0  0  0  0  0  0  0  0  0  0  0
  1  2  2  0
  1  3  1  0
  2  4  1  0
  3  5  2  0
  1  6  1  0
  6  7  3  0
  8 12  1  0
  2  9  1  0
  5 10  1  0
  3 11  1  0
 11 12  1  0
  4  5  1  0
  8 10  1  0
M  END
>  <MOLFORMULA>  (640) 
C8 H9 N3 S

>  <MOLWEIGHT>  (640) 
1.792461000000000e+002

>  <IDNUMBER>  (640) 
AT-687/SK11951

>  <PRICE>  (640) 
EUR 80/10 mg

>  <Similarity score>  (640) 
0.18

$$$$

     RDKit          2D

 15 16  0  0  0  0  0  0  0  0999 V2000
    1.4250    0.4667    0.0000 C   0  0  0  0  0  0  0  0  0  0  0  0
    2.0000   -0.3583    0.0000 C   0  0  0  0  0  0  0  0  0  0  0  0
    0.4750   -0.8333    0.0000 C   0  0  0  0  0  0  0  0  0  0  0  0
    0.4750    0.1667    0.0000 C   0  0  0  0  0  0  0  0  0  0  0  0
    1.4250   -1.1333    0.0000 S   0  0  0  0  0  0  0  0  0  0  0  0
   -1.2500   -0.8333    0.0000 N   0  0  0  0  0  0  0  0  0  0  0  0
   -0.3750   -1.3333    0.0000 C   0  0  0  0  0  0  0  0  0  0  0  0
    1.7750    1.4167    0.0000 C   0  0  0  0  0  0  0  0  0  0  0  0
    2.1208    2.3625    0.0000 N   0  0  0  0  0  0  0  0  0  0  0  0
   -0.3750    0.6625    0.0000 C   0  0  0  0  0  0  0  0  0  0  0  0
   -1.2500    0.1667    0.0000 C   0  0  0  0  0  0  0  0  0  0  0  0
    2.9958   -0.3583    0.0000 N   0  0  0  0  0  0  0  0  0  0  0  0
   -2.1500   -1.3583    0.0000 C   0  0  0  0  0  0  0  0  0  0  0  0
   -3.0000   -0.8583    0.0000 C   0  0  0  0  0  0  0  0  0  0  0  0
   -2.1500   -2.3583    0.0000 C   0  0  0  0  0  0  0  0  0  0  0  0
  1  2  2  0
  3  4  2  0
  1  4  1  0
  2  5  1  0
  6 11  1  0
  3  7  1  0
  1  8  1  0
  8  9  3  0
  4 10  1  0
 10 11  1  0
  2 12  1  0
  6 13  1  0
 13 14  1  0
 13 15  1  0
  3  5  1  0
  6  7  1  0
M  END
>  <MOLFORMULA>  (641) 
C11 H15 N3 S

>  <MOLWEIGHT>  (641) 
2.213265000000000e+002

>  <IDNUMBER>  (641) 
AN-153/PE00329

>  <PRICE>  (641) 
EUR 130/10 mg

>  <Similarity score>  (641) 
0.18

$$$$

     RDKit          2D

 26 29  0  0  0  0  0  0  0  0999 V2000
    2.1792    1.3000    0.0000 C   0  0  0  0  0  0  0  0  0  0  0  0
    3.1750    1.4042    0.0000 C   0  0  0  0  0  0  0  0  0  0  0  0
    1.7750    2.2167    0.0000 S   0  0  0  0  0  0  0  0  0  0  0  0
    3.3833    2.3833    0.0000 C   0  0  0  0  0  0  0  0  0  0  0  0
   -1.3208   -1.2958    0.0000 C   0  0  0  0  0  0  0  0  0  0  0  0
   -2.3125   -1.4000    0.0000 N   0  0  0  0  0  0  0  0  0  0  0  0
    2.5167    2.8833    0.0000 C   0  0  0  0  0  0  0  0  0  0  0  0
   -0.9125   -2.2083    0.0000 N   0  0  0  0  0  0  0  0  0  0  0  0
    1.6792    0.4333    0.0000 N   0  0  0  0  0  0  0  0  0  0  0  0
   -2.5208   -2.3792    0.0000 C   0  0  0  0  0  0  0  0  0  0  0  0
    3.8458    0.6625    0.0000 C   0  0  0  0  0  0  0  0  0  0  0  0
   -1.6542   -2.8792    0.0000 C   0  0  0  0  0  0  0  0  0  0  0  0
    3.5375   -0.2875    0.0000 N   0  0  0  0  0  0  0  0  0  0  0  0
    0.6792    0.4333    0.0000 C   0  0  0  0  0  0  0  0  0  0  0  0
   -0.8208   -0.4292    0.0000 S   0  0  0  0  0  0  0  0  0  0  0  0
   -3.3875   -2.8792    0.0000 C   0  0  0  0  0  0  0  0  0  0  0  0
    0.1792    1.3000    0.0000 O   0  0  0  0  0  0  0  0  0  0  0  0
   -1.6542   -3.8792    0.0000 C   0  0  0  0  0  0  0  0  0  0  0  0
    0.1792   -0.4292    0.0000 C   0  0  0  0  0  0  0  0  0  0  0  0
   -3.3875   -3.8792    0.0000 C   0  0  0  0  0  0  0  0  0  0  0  0
    4.2500    2.8833    0.0000 C   0  0  0  0  0  0  0  0  0  0  0  0
   -2.5208   -4.3792    0.0000 C   0  0  0  0  0  0  0  0  0  0  0  0
    2.5167    3.8833    0.0000 C   0  0  0  0  0  0  0  0  0  0  0  0
   -4.2542   -4.3792    0.0000 C   0  0  0  0  0  0  0  0  0  0  0  0
    4.2500    3.8833    0.0000 C   0  0  0  0  0  0  0  0  0  0  0  0
    3.3833    4.3792    0.0000 C   0  0  0  0  0  0  0  0  0  0  0  0
  1  2  2  0
  1  3  1  0
  2  4  1  0
  5 15  1  0
  5  6  2  0
  3  7  1  0
  5  8  1  0
  1  9  1  0
  6 10  1  0
  2 11  1  0
  8 12  1  0
 11 13  3  0
  9 14  1  0
 15 19  1  0
 10 16  1  0
 14 17  2  0
 12 18  1  0
 14 19  1  0
 16 20  2  0
  4 21  1  0
 18 22  2  0
  7 23  1  0
 20 24  1  0
 21 25  1  0
 23 26  1  0
  4  7  2  0
 25 26  1  0
 10 12  2  0
 20 22  1  0
M  END
>  <MOLFORMULA>  (642) 
C19 H18 N4 O S2

>  <MOLWEIGHT>  (642) 
3.825102000000000e+002

>  <IDNUMBER>  (642) 
AN-153/I137970

>  <PRICE>  (642) 
EUR 130/10 mg

>  <Similarity score>  (642) 
0.18

$$$$

     RDKit          2D

 33 37  0  0  0  0  0  0  0  0999 V2000
    4.9917    4.0792    0.0000 C   0  0  0  0  0  0  0  0  0  0  0  0
    4.8917    3.2833    0.0000 N   0  0  0  0  0  0  0  0  0  0  0  0
    5.7125    4.4792    0.0000 C   0  0  0  0  0  0  0  0  0  0  0  0
    4.4042    4.6417    0.0000 S   0  0  0  0  0  0  0  0  0  0  0  0
    4.3167    0.5583    0.0000 C   0  0  0  0  0  0  0  0  0  0  0  0
    5.1542    1.9833    0.0000 C   0  0  0  0  0  0  0  0  0  0  0  0
    3.8292   -0.1042    0.0000 N   0  0  0  0  0  0  0  0  0  0  0  0
    5.1417    0.5583    0.0000 C   0  0  0  0  0  0  0  0  0  0  0  0
    4.1917    2.8750    0.0000 C   0  0  0  0  0  0  0  0  0  0  0  0
    5.5042    2.7250    0.0000 C   0  0  0  0  0  0  0  0  0  0  0  0
    5.5542    5.2792    0.0000 C   0  0  0  0  0  0  0  0  0  0  0  0
    4.7417    5.3875    0.0000 C   0  0  0  0  0  0  0  0  0  0  0  0
    3.8292    1.2333    0.0000 N   0  0  0  0  0  0  0  0  0  0  0  0
    5.5542    1.2750    0.0000 C   0  0  0  0  0  0  0  0  0  0  0  0
    4.3417    2.0708    0.0000 C   0  0  0  0  0  0  0  0  0  0  0  0
    3.0417    0.1458    0.0000 C   0  0  0  0  0  0  0  0  0  0  0  0
    6.4542    4.1375    0.0000 C   0  0  0  0  0  0  0  0  0  0  0  0
    3.0417    0.9708    0.0000 C   0  0  0  0  0  0  0  0  0  0  0  0
    5.5542   -0.1542    0.0000 C   0  0  0  0  0  0  0  0  0  0  0  0
    7.2000    3.8000    0.0000 N   0  0  0  0  0  0  0  0  0  0  0  0
    5.9625   -0.8667    0.0000 N   0  0  0  0  0  0  0  0  0  0  0  0
    2.3292   -0.2667    0.0000 C   0  0  0  0  0  0  0  0  0  0  0  0
    2.3292    1.3833    0.0000 C   0  0  0  0  0  0  0  0  0  0  0  0
    1.6167    0.1458    0.0000 C   0  0  0  0  0  0  0  0  0  0  0  0
    3.4375    3.2208    0.0000 C   0  0  0  0  0  0  0  0  0  0  0  0
    6.0417    5.9292    0.0000 C   0  0  0  0  0  0  0  0  0  0  0  0
    6.3042    2.8833    0.0000 C   0  0  0  0  0  0  0  0  0  0  0  0
    1.6167    0.9708    0.0000 C   0  0  0  0  0  0  0  0  0  0  0  0
    4.4167    6.1292    0.0000 C   0  0  0  0  0  0  0  0  0  0  0  0
    0.9042   -0.2667    0.0000 O   0  0  0  0  0  0  0  0  0  0  0  0
    0.9042   -1.0917    0.0000 C   0  0  0  0  0  0  0  0  0  0  0  0
    5.7292    6.6917    0.0000 C   0  0  0  0  0  0  0  0  0  0  0  0
    4.9167    6.7917    0.0000 C   0  0  0  0  0  0  0  0  0  0  0  0
  1  2  1  0
  1  3  2  0
  1  4  1  0
  5  8  1  0
  6 10  2  0
  5  7  2  0
  8 14  2  0
  2  9  1  0
  2 10  1  0
  3 11  1  0
  4 12  1  0
  5 13  1  0
  6 14  1  0
  9 15  2  0
  7 16  1  0
  3 17  1  0
 13 18  1  0
  8 19  1  0
 17 20  3  0
 19 21  3  0
 16 22  2  0
 18 23  2  0
 22 24  1  0
  9 25  1  0
 11 26  1  0
 10 27  1  0
 23 28  1  0
 12 29  1  0
 24 30  1  0
 30 31  1  0
 26 32  1  0
 29 33  1  0
 11 12  2  0
  6 15  1  0
 32 33  1  0
 16 18  1  0
 24 28  2  0
M  END
>  <MOLFORMULA>  (643) 
C26 H23 N5 O S

>  <MOLWEIGHT>  (643) 
4.535677000000000e+002

>  <IDNUMBER>  (643) 
AM-879/MD25802

>  <PRICE>  (643) 
EUR 55.00/10 mg

>  <Similarity score>  (643) 
0.18

$$$$

     RDKit          2D

 33 37  0  0  0  0  0  0  0  0999 V2000
    8.6875   -5.5000    0.0000 C   0  0  0  0  0  0  0  0  0  0  0  0
    8.0125   -5.9750    0.0000 N   0  0  0  0  0  0  0  0  0  0  0  0
    8.7000   -4.6750    0.0000 C   0  0  0  0  0  0  0  0  0  0  0  0
    9.4750   -5.7667    0.0000 S   0  0  0  0  0  0  0  0  0  0  0  0
    4.6417   -7.0917    0.0000 C   0  0  0  0  0  0  0  0  0  0  0  0
    6.7292   -6.3875    0.0000 C   0  0  0  0  0  0  0  0  0  0  0  0
    4.1542   -6.4125    0.0000 N   0  0  0  0  0  0  0  0  0  0  0  0
    5.4750   -7.1042    0.0000 C   0  0  0  0  0  0  0  0  0  0  0  0
    8.0000   -6.8042    0.0000 C   0  0  0  0  0  0  0  0  0  0  0  0
    7.2292   -5.7125    0.0000 C   0  0  0  0  0  0  0  0  0  0  0  0
    9.4750   -4.4250    0.0000 C   0  0  0  0  0  0  0  0  0  0  0  0
    9.9542   -5.1042    0.0000 C   0  0  0  0  0  0  0  0  0  0  0  0
    4.1542   -7.7625    0.0000 N   0  0  0  0  0  0  0  0  0  0  0  0
    5.8917   -6.3875    0.0000 C   0  0  0  0  0  0  0  0  0  0  0  0
    7.2042   -7.0542    0.0000 C   0  0  0  0  0  0  0  0  0  0  0  0
    3.3792   -6.6667    0.0000 C   0  0  0  0  0  0  0  0  0  0  0  0
    8.0292   -4.1792    0.0000 C   0  0  0  0  0  0  0  0  0  0  0  0
    3.3667   -7.4917    0.0000 C   0  0  0  0  0  0  0  0  0  0  0  0
    5.8875   -7.8250    0.0000 C   0  0  0  0  0  0  0  0  0  0  0  0
    7.4417   -3.5917    0.0000 N   0  0  0  0  0  0  0  0  0  0  0  0
    6.2917   -8.5500    0.0000 N   0  0  0  0  0  0  0  0  0  0  0  0
    2.6625   -6.2417    0.0000 C   0  0  0  0  0  0  0  0  0  0  0  0
    2.6500   -7.9042    0.0000 C   0  0  0  0  0  0  0  0  0  0  0  0
    1.9417   -6.6542    0.0000 C   0  0  0  0  0  0  0  0  0  0  0  0
    8.6625   -7.3042    0.0000 C   0  0  0  0  0  0  0  0  0  0  0  0
    9.8167   -3.6667    0.0000 C   0  0  0  0  0  0  0  0  0  0  0  0
    6.9792   -4.9292    0.0000 C   0  0  0  0  0  0  0  0  0  0  0  0
    1.9292   -7.4792    0.0000 C   0  0  0  0  0  0  0  0  0  0  0  0
   10.7792   -5.0250    0.0000 C   0  0  0  0  0  0  0  0  0  0  0  0
    1.2292   -6.2375    0.0000 O   0  0  0  0  0  0  0  0  0  0  0  0
    1.2417   -5.4125    0.0000 C   0  0  0  0  0  0  0  0  0  0  0  0
   10.6417   -3.5792    0.0000 C   0  0  0  0  0  0  0  0  0  0  0  0
   11.1292   -4.2667    0.0000 C   0  0  0  0  0  0  0  0  0  0  0  0
  1  2  1  0
  1  3  2  0
  1  4  1  0
  5  8  1  0
  6 10  2  0
  5  7  2  0
  8 14  2  0
  2  9  1  0
  2 10  1  0
  3 11  1  0
  4 12  1  0
  5 13  1  0
  6 14  1  0
  9 15  2  0
  7 16  1  0
  3 17  1  0
 13 18  1  0
  8 19  1  0
 17 20  3  0
 19 21  3  0
 16 22  1  0
 18 23  1  0
 22 24  2  0
  9 25  1  0
 11 26  1  0
 10 27  1  0
 23 28  2  0
 12 29  1  0
 24 30  1  0
 30 31  1  0
 26 32  1  0
 29 33  1  0
 11 12  2  0
  6 15  1  0
 32 33  1  0
 16 18  2  0
 24 28  1  0
M  END
>  <MOLFORMULA>  (644) 
C26 H23 N5 O S

>  <MOLWEIGHT>  (644) 
4.535677000000000e+002

>  <IDNUMBER>  (644) 
AT-139/J204542

>  <PRICE>  (644) 
EUR 125.00/10 mg

>  <Similarity score>  (644) 
0.18

$$$$

     RDKit          2D

 27 30  0  0  0  0  0  0  0  0999 V2000
    2.0667   -3.2000    0.0000 C   0  0  0  0  0  0  0  0  0  0  0  0
    1.3625   -2.7917    0.0000 C   0  0  0  0  0  0  0  0  0  0  0  0
    0.7417   -3.3417    0.0000 C   0  0  0  0  0  0  0  0  0  0  0  0
    1.8917   -4.0042    0.0000 C   0  0  0  0  0  0  0  0  0  0  0  0
    1.0792   -4.0917    0.0000 S   0  0  0  0  0  0  0  0  0  0  0  0
    2.7875    0.5083    0.0000 C   0  0  0  0  0  0  0  0  0  0  0  0
    2.7875   -0.3125    0.0000 C   0  0  0  0  0  0  0  0  0  0  0  0
    3.5667    0.7583    0.0000 S   0  0  0  0  0  0  0  0  0  0  0  0
    3.5667   -0.5667    0.0000 C   0  0  0  0  0  0  0  0  0  0  0  0
    4.0500    0.1000    0.0000 C   0  0  0  0  0  0  0  0  0  0  0  0
    2.0667   -0.7167    0.0000 C   0  0  0  0  0  0  0  0  0  0  0  0
    2.0667    0.9250    0.0000 N   0  0  0  0  0  0  0  0  0  0  0  0
   -0.0625   -3.1917    0.0000 C   0  0  0  0  0  0  0  0  0  0  0  0
    2.8417   -2.8667    0.0000 C   0  0  0  0  0  0  0  0  0  0  0  0
    1.3625   -1.9625    0.0000 C   0  0  0  0  0  0  0  0  0  0  0  0
    1.3625   -0.3125    0.0000 N   0  0  0  0  0  0  0  0  0  0  0  0
    3.6000   -2.5375    0.0000 N   0  0  0  0  0  0  0  0  0  0  0  0
    2.0667   -1.5417    0.0000 S   0  0  0  0  0  0  0  0  0  0  0  0
    1.3625    0.5083    0.0000 C   0  0  0  0  0  0  0  0  0  0  0  0
    2.4417   -4.6292    0.0000 N   0  0  0  0  0  0  0  0  0  0  0  0
   -0.3375   -2.4167    0.0000 O   0  0  0  0  0  0  0  0  0  0  0  0
   -0.6000   -3.8167    0.0000 O   0  0  0  0  0  0  0  0  0  0  0  0
    4.0542   -1.2375    0.0000 C   0  0  0  0  0  0  0  0  0  0  0  0
    4.8417   -0.1417    0.0000 C   0  0  0  0  0  0  0  0  0  0  0  0
    4.8417   -0.9667    0.0000 C   0  0  0  0  0  0  0  0  0  0  0  0
   -0.3250   -4.5917    0.0000 C   0  0  0  0  0  0  0  0  0  0  0  0
   -0.8583   -5.2167    0.0000 C   0  0  0  0  0  0  0  0  0  0  0  0
  1  2  1  0
  2  3  2  0
  1  4  2  0
  4  5  1  0
  6  7  1  0
  7 11  2  0
  6  8  1  0
  7  9  1  0
  9 10  2  0
 11 18  1  0
 12 19  1  0
  3 13  1  0
  1 14  1  0
  2 15  1  0
 11 16  1  0
 14 17  3  0
 15 18  1  0
 16 19  2  0
  4 20  1  0
 13 21  2  0
 13 22  1  0
  9 23  1  0
 10 24  1  0
 23 25  1  0
 22 26  1  0
 26 27  1  0
  3  5  1  0
  6 12  2  0
  8 10  1  0
 24 25  1  0
M  END
>  <MOLFORMULA>  (645) 
C18 H16 N4 O2 S3

>  <MOLWEIGHT>  (645) 
4.165484000000000e+002

>  <IDNUMBER>  (645) 
AT-687/SK06793

>  <PRICE>  (645) 
EUR 80/10 mg

>  <Similarity score>  (645) 
0.17

$$$$

     RDKit          2D

 30 35  0  0  0  0  0  0  0  0999 V2000
    9.1250   -2.4000    0.0000 C   0  0  0  0  0  0  0  0  0  0  0  0
    9.9500   -3.4500    0.0000 C   0  0  0  0  0  0  0  0  0  0  0  0
    7.8000   -2.4000    0.0000 C   0  0  0  0  0  0  0  0  0  0  0  0
   12.9417   -5.1750    0.0000 C   0  0  0  0  0  0  0  0  0  0  0  0
   11.6792   -4.7000    0.0000 C   0  0  0  0  0  0  0  0  0  0  0  0
   11.2792   -3.4250    0.0000 N   0  0  0  0  0  0  0  0  0  0  0  0
    7.3917   -1.1500    0.0000 N   0  0  0  0  0  0  0  0  0  0  0  0
    9.5417   -1.1500    0.0000 N   0  0  0  0  0  0  0  0  0  0  0  0
    8.4750   -0.3667    0.0000 N   0  0  0  0  0  0  0  0  0  0  0  0
   14.0167   -4.4000    0.0000 N   0  0  0  0  0  0  0  0  0  0  0  0
   13.3417   -6.4417    0.0000 C   0  0  0  0  0  0  0  0  0  0  0  0
    9.5500   -4.7250    0.0000 N   0  0  0  0  0  0  0  0  0  0  0  0
   15.0917   -5.2000    0.0000 N   0  0  0  0  0  0  0  0  0  0  0  0
   10.6250   -5.4917    0.0000 O   0  0  0  0  0  0  0  0  0  0  0  0
   14.6750   -6.4500    0.0000 C   0  0  0  0  0  0  0  0  0  0  0  0
    6.1000   -0.8417    0.0000 C   0  0  0  0  0  0  0  0  0  0  0  0
    6.9000   -3.3792    0.0000 C   0  0  0  0  0  0  0  0  0  0  0  0
    5.6042   -3.1042    0.0000 O   0  0  0  0  0  0  0  0  0  0  0  0
    5.2000   -1.8292    0.0000 C   0  0  0  0  0  0  0  0  0  0  0  0
    3.9000   -1.5417    0.0000 C   0  0  0  0  0  0  0  0  0  0  0  0
    3.4917   -0.2750    0.0000 C   0  0  0  0  0  0  0  0  0  0  0  0
    3.0000   -2.5250    0.0000 C   0  0  0  0  0  0  0  0  0  0  0  0
   12.6750   -7.5917    0.0000 C   0  0  0  0  0  0  0  0  0  0  0  0
    1.7167   -2.2500    0.0000 C   0  0  0  0  0  0  0  0  0  0  0  0
    2.1917   -0.0000    0.0000 C   0  0  0  0  0  0  0  0  0  0  0  0
    1.3167   -0.9750    0.0000 C   0  0  0  0  0  0  0  0  0  0  0  0
   15.3292   -7.6000    0.0000 C   0  0  0  0  0  0  0  0  0  0  0  0
    0.0000   -0.6750    0.0000 C   0  0  0  0  0  0  0  0  0  0  0  0
   13.3417   -8.7500    0.0000 C   0  0  0  0  0  0  0  0  0  0  0  0
   14.6750   -8.7500    0.0000 C   0  0  0  0  0  0  0  0  0  0  0  0
  1  2  1  0
  1  3  2  0
  4  5  1  0
  5  6  2  0
  2  6  1  0
  3  7  1  0
  1  8  1  0
  8  9  2  0
  4 10  2  0
  4 11  1  0
  2 12  2  0
 10 13  1  0
 12 14  1  0
 11 15  2  0
  7 16  1  0
  3 17  1  0
 17 18  1  0
 18 19  1  0
 19 20  1  0
 20 21  2  0
 20 22  1  0
 11 23  1  0
 22 24  2  0
 21 25  1  0
 24 26  1  0
 15 27  1  0
 26 28  1  0
 23 29  1  0
 29 30  1  0
  7  9  1  0
  5 14  1  0
 16 19  1  0
 13 15  1  0
 25 26  2  0
 27 30  1  0
M  END
>  <MOLFORMULA>  (646) 
C21 H21 N7 O2

>  <MOLWEIGHT>  (646) 
4.034439000000000e+002

>  <IDNUMBER>  (646) 
AT-687/PE23587

>  <PRICE>  (646) 
EUR 80/10 mg

>  <Similarity score>  (646) 
0.17

$$$$

     RDKit          2D

 24 26  0  0  0  0  0  0  0  0999 V2000
    4.2042   -1.4917    0.0000 C   0  0  0  0  0  0  0  0  0  0  0  0
    4.8667   -1.9875    0.0000 C   0  0  0  0  0  0  0  0  0  0  0  0
    5.5542   -1.5167    0.0000 S   0  0  0  0  0  0  0  0  0  0  0  0
    4.4667   -0.7125    0.0000 C   0  0  0  0  0  0  0  0  0  0  0  0
    5.3042   -0.7292    0.0000 C   0  0  0  0  0  0  0  0  0  0  0  0
    4.8542   -2.8167    0.0000 N   0  0  0  0  0  0  0  0  0  0  0  0
    4.1125   -4.0417    0.0000 C   0  0  0  0  0  0  0  0  0  0  0  0
    3.4167   -1.7292    0.0000 C   0  0  0  0  0  0  0  0  0  0  0  0
    3.3750   -5.2625    0.0000 C   0  0  0  0  0  0  0  0  0  0  0  0
    2.6167   -1.9417    0.0000 N   0  0  0  0  0  0  0  0  0  0  0  0
    3.3917   -4.4375    0.0000 C   0  0  0  0  0  0  0  0  0  0  0  0
    4.1292   -3.2167    0.0000 C   0  0  0  0  0  0  0  0  0  0  0  0
    4.0792   -5.6875    0.0000 C   0  0  0  0  0  0  0  0  0  0  0  0
    4.8042   -5.2875    0.0000 C   0  0  0  0  0  0  0  0  0  0  0  0
    4.8167   -4.4625    0.0000 C   0  0  0  0  0  0  0  0  0  0  0  0
    5.5125   -5.7125    0.0000 Br  0  0  0  0  0  0  0  0  0  0  0  0
    2.6875   -4.0042    0.0000 O   0  0  0  0  0  0  0  0  0  0  0  0
    4.0625    0.0208    0.0000 C   0  0  0  0  0  0  0  0  0  0  0  0
    4.0625   -6.5125    0.0000 O   0  0  0  0  0  0  0  0  0  0  0  0
    5.7417   -0.0042    0.0000 C   0  0  0  0  0  0  0  0  0  0  0  0
    4.7667   -6.9417    0.0000 C   0  0  0  0  0  0  0  0  0  0  0  0
    2.7042   -3.1792    0.0000 C   0  0  0  0  0  0  0  0  0  0  0  0
    4.4875    0.7375    0.0000 C   0  0  0  0  0  0  0  0  0  0  0  0
    5.3292    0.7250    0.0000 C   0  0  0  0  0  0  0  0  0  0  0  0
  1  2  2  0
  2  3  1  0
  1  4  1  0
  4  5  2  0
  2  6  1  0
  7 12  1  0
  1  8  1  0
  9 11  1  0
  8 10  3  0
  7 11  2  0
  6 12  2  0
 13 14  1  0
 14 15  2  0
  7 15  1  0
 14 16  1  0
 11 17  1  0
  4 18  1  0
 13 19  1  0
  5 20  1  0
 19 21  1  0
 17 22  1  0
 18 23  1  0
 23 24  1  0
  3  5  1  0
 20 24  1  0
  9 13  2  0
M  END
>  <MOLFORMULA>  (647) 
C18 H17 Br N2 O2 S

>  <MOLWEIGHT>  (647) 
4.053143000000000e+002

>  <IDNUMBER>  (647) 
AT-139/J203131

>  <PRICE>  (647) 
EUR 125.00/10 mg

>  <Similarity score>  (647) 
0.17

$$$$

     RDKit          2D

 20 23  0  0  0  0  0  0  0  0999 V2000
   -0.4375   -0.0625    0.0000 C   0  0  0  0  0  0  0  0  0  0  0  0
    0.6083   -0.0167    0.0000 C   0  0  0  0  0  0  0  0  0  0  0  0
   -0.0958   -1.1792    0.0000 N   0  0  0  0  0  0  0  0  0  0  0  0
    0.7083   -1.1583    0.0000 N   0  0  0  0  0  0  0  0  0  0  0  0
    1.7333    0.4208    0.0000 C   0  0  0  0  0  0  0  0  0  0  0  0
   -1.6500   -0.0458    0.0000 C   0  0  0  0  0  0  0  0  0  0  0  0
   -1.0333   -1.8958    0.0000 O   0  0  0  0  0  0  0  0  0  0  0  0
    1.8167   -1.4667    0.0000 O   0  0  0  0  0  0  0  0  0  0  0  0
    2.4625   -0.4667    0.0000 C   0  0  0  0  0  0  0  0  0  0  0  0
   -2.0417   -1.1458    0.0000 C   0  0  0  0  0  0  0  0  0  0  0  0
    1.9375    1.5500    0.0000 C   0  0  0  0  0  0  0  0  0  0  0  0
   -2.3167    0.9667    0.0000 C   0  0  0  0  0  0  0  0  0  0  0  0
   -3.2000   -1.5792    0.0000 C   0  0  0  0  0  0  0  0  0  0  0  0
    3.5708   -0.4667    0.0000 C   0  0  0  0  0  0  0  0  0  0  0  0
   -3.5417    1.0625    0.0000 C   0  0  0  0  0  0  0  0  0  0  0  0
    3.0167    2.1167    0.0000 C   0  0  0  0  0  0  0  0  0  0  0  0
   -4.2083   -0.9583    0.0000 C   0  0  0  0  0  0  0  0  0  0  0  0
    4.3417    0.4875    0.0000 C   0  0  0  0  0  0  0  0  0  0  0  0
   -4.3458    0.2042    0.0000 C   0  0  0  0  0  0  0  0  0  0  0  0
    4.0667    1.6083    0.0000 C   0  0  0  0  0  0  0  0  0  0  0  0
  1  2  1  0
  1  3  2  0
  2  4  2  0
  2  5  1  0
  1  6  1  0
  3  7  1  0
  4  8  1  0
  5  9  2  0
  6 10  2  0
  5 11  1  0
  6 12  1  0
 10 13  1  0
  9 14  1  0
 12 15  1  0
 11 16  1  0
 13 17  1  0
 14 18  1  0
 15 19  1  0
 16 20  1  0
  7 10  1  0
  8  9  1  0
 17 19  1  0
 18 20  1  0
M  END
>  <MOLFORMULA>  (648) 
C16 H20 N2 O2

>  <MOLWEIGHT>  (648) 
2.723460000000000e+002

>  <IDNUMBER>  (648) 
AT-225/NB57100

>  <PRICE>  (648) 
EUR 140/10 mg

>  <Similarity score>  (648) 
0.17

$$$$

     RDKit          2D

 27 29  0  0  0  0  0  0  0  0999 V2000
    0.8417    2.1208    0.0000 C   0  0  0  0  0  0  0  0  0  0  0  0
    1.5708    2.8083    0.0000 C   0  0  0  0  0  0  0  0  0  0  0  0
   -0.0333    2.6042    0.0000 S   0  0  0  0  0  0  0  0  0  0  0  0
    1.1458    3.7125    0.0000 C   0  0  0  0  0  0  0  0  0  0  0  0
    0.5500   -2.4500    0.0000 N   0  0  0  0  0  0  0  0  0  0  0  0
    0.1542    3.5875    0.0000 C   0  0  0  0  0  0  0  0  0  0  0  0
   -0.3708   -2.0625    0.0000 C   0  0  0  0  0  0  0  0  0  0  0  0
   -1.1667   -2.6667    0.0000 C   0  0  0  0  0  0  0  0  0  0  0  0
   -0.1208   -4.0458    0.0000 C   0  0  0  0  0  0  0  0  0  0  0  0
    0.6750   -3.4417    0.0000 C   0  0  0  0  0  0  0  0  0  0  0  0
    0.9667    1.1292    0.0000 N   0  0  0  0  0  0  0  0  0  0  0  0
    2.5542    2.6208    0.0000 C   0  0  0  0  0  0  0  0  0  0  0  0
   -1.0417   -3.6583    0.0000 C   0  0  0  0  0  0  0  0  0  0  0  0
   -2.0917   -2.2792    0.0000 C   0  0  0  0  0  0  0  0  0  0  0  0
    0.0042   -5.0375    0.0000 C   0  0  0  0  0  0  0  0  0  0  0  0
    2.8833    1.6750    0.0000 N   0  0  0  0  0  0  0  0  0  0  0  0
    0.9250   -5.4250    0.0000 N   0  0  0  0  0  0  0  0  0  0  0  0
   -2.8875   -2.8875    0.0000 N   0  0  0  0  0  0  0  0  0  0  0  0
    0.1708    0.5250    0.0000 C   0  0  0  0  0  0  0  0  0  0  0  0
   -0.5000   -1.0708    0.0000 S   0  0  0  0  0  0  0  0  0  0  0  0
   -0.7500    0.9125    0.0000 O   0  0  0  0  0  0  0  0  0  0  0  0
    1.5958   -3.8292    0.0000 N   0  0  0  0  0  0  0  0  0  0  0  0
    0.2958   -0.4667    0.0000 C   0  0  0  0  0  0  0  0  0  0  0  0
    1.5333    4.6292    0.0000 C   0  0  0  0  0  0  0  0  0  0  0  0
   -0.4500    4.3792    0.0000 C   0  0  0  0  0  0  0  0  0  0  0  0
    0.9250    5.4250    0.0000 C   0  0  0  0  0  0  0  0  0  0  0  0
   -0.0667    5.3000    0.0000 C   0  0  0  0  0  0  0  0  0  0  0  0
  1  2  2  0
  1  3  1  0
  2  4  1  0
  5  7  1  0
  3  6  1  0
  7 20  1  0
  7  8  2  0
  9 13  2  0
  5 10  2  0
  1 11  1  0
  2 12  1  0
  8 13  1  0
  8 14  1  0
  9 15  1  0
 12 16  3  0
 15 17  3  0
 14 18  3  0
 11 19  1  0
 20 23  1  0
 19 21  2  0
 10 22  1  0
 19 23  1  0
  4 24  1  0
  6 25  1  0
 24 26  1  0
 25 27  1  0
  4  6  2  0
 26 27  1  0
  9 10  1  0
M  END
>  <MOLFORMULA>  (649) 
C18 H14 N6 O S2

>  <MOLWEIGHT>  (649) 
3.944816000000000e+002

>  <IDNUMBER>  (649) 
AN-153/I286268

>  <PRICE>  (649) 
EUR 130/10 mg

>  <Similarity score>  (649) 
0.17

$$$$

     RDKit          2D

 23 25  0  0  0  0  0  0  0  0999 V2000
    1.5250    1.2667    0.0000 C   0  0  0  0  0  0  0  0  0  0  0  0
    2.5208    1.3708    0.0000 C   0  0  0  0  0  0  0  0  0  0  0  0
    1.1167    2.1792    0.0000 S   0  0  0  0  0  0  0  0  0  0  0  0
    2.7292    2.3500    0.0000 C   0  0  0  0  0  0  0  0  0  0  0  0
    1.0250    0.4000    0.0000 N   0  0  0  0  0  0  0  0  0  0  0  0
    1.8625    2.8500    0.0000 C   0  0  0  0  0  0  0  0  0  0  0  0
    0.0250    0.4000    0.0000 C   0  0  0  0  0  0  0  0  0  0  0  0
    3.1875    0.6292    0.0000 C   0  0  0  0  0  0  0  0  0  0  0  0
   -0.4750   -0.4667    0.0000 C   0  0  0  0  0  0  0  0  0  0  0  0
    2.8792   -0.3208    0.0000 N   0  0  0  0  0  0  0  0  0  0  0  0
   -1.4750   -0.4667    0.0000 C   0  0  0  0  0  0  0  0  0  0  0  0
    0.0250   -1.3292    0.0000 C   0  0  0  0  0  0  0  0  0  0  0  0
   -0.4750    1.2667    0.0000 O   0  0  0  0  0  0  0  0  0  0  0  0
   -1.4750   -2.1958    0.0000 C   0  0  0  0  0  0  0  0  0  0  0  0
   -1.9750   -1.3292    0.0000 C   0  0  0  0  0  0  0  0  0  0  0  0
   -0.4750   -2.1958    0.0000 C   0  0  0  0  0  0  0  0  0  0  0  0
    3.4708    3.0208    0.0000 C   0  0  0  0  0  0  0  0  0  0  0  0
    2.0708    3.8292    0.0000 C   0  0  0  0  0  0  0  0  0  0  0  0
    0.0250   -3.0625    0.0000 O   0  0  0  0  0  0  0  0  0  0  0  0
   -2.9750   -1.3292    0.0000 O   0  0  0  0  0  0  0  0  0  0  0  0
    3.0625    3.9333    0.0000 C   0  0  0  0  0  0  0  0  0  0  0  0
   -0.4750   -3.9292    0.0000 C   0  0  0  0  0  0  0  0  0  0  0  0
   -3.4750   -2.1958    0.0000 C   0  0  0  0  0  0  0  0  0  0  0  0
  1  2  2  0
  1  3  1  0
  2  4  1  0
  1  5  1  0
  3  6  1  0
  5  7  1  0
  2  8  1  0
  7  9  1  0
  8 10  3  0
  9 11  2  0
  9 12  1  0
  7 13  2  0
 14 16  1  0
 11 15  1  0
 12 16  2  0
  4 17  1  0
  6 18  1  0
 16 19  1  0
 15 20  1  0
 18 21  1  0
 19 22  1  0
 20 23  1  0
  4  6  2  0
 17 21  1  0
 14 15  2  0
M  END
>  <MOLFORMULA>  (650) 
C17 H16 N2 O3 S

>  <MOLWEIGHT>  (650) 
3.283904000000000e+002

>  <IDNUMBER>  (650) 
AN-153/I226312

>  <PRICE>  (650) 
EUR 130/10 mg

>  <Similarity score>  (650) 
0.17

$$$$

     RDKit          2D

 36 40  0  0  0  0  0  0  0  0999 V2000
    6.8250   -5.4042    0.0000 C   0  0  0  0  0  0  0  0  0  0  0  0
    6.6542   -4.5917    0.0000 C   0  0  0  0  0  0  0  0  0  0  0  0
    0.7500   -4.3917    0.0000 C   0  0  0  0  0  0  0  0  0  0  0  0
    1.5625   -4.2167    0.0000 N   0  0  0  0  0  0  0  0  0  0  0  0
    3.7750   -2.1375    0.0000 N   0  0  0  0  0  0  0  0  0  0  0  0
    1.6417   -3.3917    0.0000 C   0  0  0  0  0  0  0  0  0  0  0  0
    3.7792   -2.9667    0.0000 C   0  0  0  0  0  0  0  0  0  0  0  0
    7.3667   -4.1917    0.0000 S   0  0  0  0  0  0  0  0  0  0  0  0
    7.6417   -5.5000    0.0000 C   0  0  0  0  0  0  0  0  0  0  0  0
    0.3292   -3.6792    0.0000 N   0  0  0  0  0  0  0  0  0  0  0  0
    0.4167   -5.1500    0.0000 C   0  0  0  0  0  0  0  0  0  0  0  0
    7.9792   -4.7417    0.0000 C   0  0  0  0  0  0  0  0  0  0  0  0
    0.8875   -3.0625    0.0000 N   0  0  0  0  0  0  0  0  0  0  0  0
    3.0792   -3.3792    0.0000 C   0  0  0  0  0  0  0  0  0  0  0  0
    5.9375   -4.1875    0.0000 N   0  0  0  0  0  0  0  0  0  0  0  0
   -0.4083   -5.2375    0.0000 C   0  0  0  0  0  0  0  0  0  0  0  0
    6.2750   -6.0167    0.0000 C   0  0  0  0  0  0  0  0  0  0  0  0
    2.3625   -2.9750    0.0000 S   0  0  0  0  0  0  0  0  0  0  0  0
    5.7167   -6.6292    0.0000 N   0  0  0  0  0  0  0  0  0  0  0  0
    0.9042   -5.8125    0.0000 C   0  0  0  0  0  0  0  0  0  0  0  0
   -0.7458   -5.9917    0.0000 C   0  0  0  0  0  0  0  0  0  0  0  0
    4.4792   -1.7167    0.0000 O   0  0  0  0  0  0  0  0  0  0  0  0
    4.5000   -3.3667    0.0000 C   0  0  0  0  0  0  0  0  0  0  0  0
    3.0542   -1.7292    0.0000 O   0  0  0  0  0  0  0  0  0  0  0  0
    5.2250   -4.6042    0.0000 C   0  0  0  0  0  0  0  0  0  0  0  0
    3.0792   -4.2042    0.0000 C   0  0  0  0  0  0  0  0  0  0  0  0
    4.5042   -4.1917    0.0000 C   0  0  0  0  0  0  0  0  0  0  0  0
   -0.2500   -6.6625    0.0000 C   0  0  0  0  0  0  0  0  0  0  0  0
   -0.8875   -4.5667    0.0000 Cl  0  0  0  0  0  0  0  0  0  0  0  0
    0.5750   -6.5667    0.0000 C   0  0  0  0  0  0  0  0  0  0  0  0
    3.7917   -4.6167    0.0000 C   0  0  0  0  0  0  0  0  0  0  0  0
    8.1250   -6.1750    0.0000 C   0  0  0  0  0  0  0  0  0  0  0  0
   -0.5875   -7.4167    0.0000 Cl  0  0  0  0  0  0  0  0  0  0  0  0
    8.8125   -4.6542    0.0000 C   0  0  0  0  0  0  0  0  0  0  0  0
    8.9542   -6.0917    0.0000 C   0  0  0  0  0  0  0  0  0  0  0  0
    9.3000   -5.3292    0.0000 C   0  0  0  0  0  0  0  0  0  0  0  0
  1  2  2  0
  3  4  1  0
  4  6  1  0
  5  7  1  0
  6 18  1  0
  7 23  2  0
  2  8  1  0
  1  9  1  0
 10 13  1  0
  3 11  1  0
  9 12  2  0
  6 13  2  0
 14 26  2  0
  2 15  1  0
 11 16  2  0
  1 17  1  0
 14 18  1  0
 17 19  3  0
 11 20  1  0
 16 21  1  0
  5 22  1  0
 23 27  1  0
  5 24  2  0
 15 25  2  0
 26 31  1  0
 25 27  1  0
 28 30  1  0
 16 29  1  0
 20 30  2  0
 27 31  2  0
  9 32  1  0
 28 33  1  0
 12 34  1  0
 32 35  1  0
 35 36  1  0
  8 12  1  0
 34 36  1  0
  7 14  1  0
  3 10  2  0
 21 28  2  0
M  CHG  2   5   1  22  -1
M  END
>  <MOLFORMULA>  (651) 
C24 H16 Cl2 N6 O2 S2

>  <MOLWEIGHT>  (651) 
5.554684000000000e+002

>  <IDNUMBER>  (651) 
AM-879/MD23769

>  <PRICE>  (651) 
EUR 55.00/10 mg

>  <Similarity score>  (651) 
0.17

$$$$

     RDKit          2D

 26 28  0  0  0  0  0  0  0  0999 V2000
    0.0292   -0.6792    0.0000 C   0  0  0  0  0  0  0  0  0  0  0  0
    0.4917   -1.3417    0.0000 C   0  0  0  0  0  0  0  0  0  0  0  0
    0.0292   -1.9917    0.0000 S   0  0  0  0  0  0  0  0  0  0  0  0
   -0.7458   -0.9375    0.0000 C   0  0  0  0  0  0  0  0  0  0  0  0
    2.5167   -0.6417    0.0000 N   0  0  0  0  0  0  0  0  0  0  0  0
   -0.7458   -1.7417    0.0000 C   0  0  0  0  0  0  0  0  0  0  0  0
    2.9167   -1.3417    0.0000 C   0  0  0  0  0  0  0  0  0  0  0  0
    2.5167   -2.0417    0.0000 C   0  0  0  0  0  0  0  0  0  0  0  0
    3.7292   -1.3417    0.0000 C   0  0  0  0  0  0  0  0  0  0  0  0
    1.3042   -1.3417    0.0000 N   0  0  0  0  0  0  0  0  0  0  0  0
    0.2792    0.0750    0.0000 C   0  0  0  0  0  0  0  0  0  0  0  0
    1.7042   -2.0417    0.0000 C   0  0  0  0  0  0  0  0  0  0  0  0
    4.1292   -2.0417    0.0000 C   0  0  0  0  0  0  0  0  0  0  0  0
    0.5167    0.8458    0.0000 N   0  0  0  0  0  0  0  0  0  0  0  0
    2.9167   -2.7417    0.0000 C   0  0  0  0  0  0  0  0  0  0  0  0
    3.7292   -2.7417    0.0000 C   0  0  0  0  0  0  0  0  0  0  0  0
    2.9167    0.0583    0.0000 O   0  0  0  0  0  0  0  0  0  0  0  0
    1.7042   -0.6417    0.0000 O   0  0  0  0  0  0  0  0  0  0  0  0
    4.9417   -2.0417    0.0000 O   0  0  0  0  0  0  0  0  0  0  0  0
   -1.4458   -0.5292    0.0000 C   0  0  0  0  0  0  0  0  0  0  0  0
    4.1292   -3.4417    0.0000 O   0  0  0  0  0  0  0  0  0  0  0  0
   -1.4458   -2.1500    0.0000 C   0  0  0  0  0  0  0  0  0  0  0  0
    5.3417   -2.7417    0.0000 C   0  0  0  0  0  0  0  0  0  0  0  0
    4.9417   -3.4417    0.0000 C   0  0  0  0  0  0  0  0  0  0  0  0
   -2.1375   -0.9375    0.0000 C   0  0  0  0  0  0  0  0  0  0  0  0
   -2.1375   -1.7417    0.0000 C   0  0  0  0  0  0  0  0  0  0  0  0
  1  2  2  0
  2  3  1  0
  1  4  1  0
  5  7  1  0
  4  6  2  0
  7  8  2  0
  8 12  1  0
  7  9  1  0
  2 10  1  0
  1 11  1  0
 10 12  2  0
 13 16  1  0
 11 14  3  0
  8 15  1  0
 15 16  2  0
  5 17  1  0
  5 18  2  0
 13 19  1  0
  4 20  1  0
 16 21  1  0
  6 22  1  0
 19 23  1  0
 21 24  1  0
 20 25  1  0
 25 26  1  0
  3  6  1  0
 22 26  1  0
  9 13  2  0
M  CHG  2   5   1  17  -1
M  END
>  <MOLFORMULA>  (652) 
C18 H17 N3 O4 S

>  <MOLWEIGHT>  (652) 
3.714153000000000e+002

>  <IDNUMBER>  (652) 
AM-879/PD02850

>  <PRICE>  (652) 
EUR 55.00/10 mg

>  <Similarity score>  (652) 
0.17

$$$$

     RDKit          2D

 28 30  0  0  0  0  0  0  0  0999 V2000
    1.7833    0.9458    0.0000 C   0  0  0  0  0  0  0  0  0  0  0  0
    1.3792    1.8625    0.0000 C   0  0  0  0  0  0  0  0  0  0  0  0
    2.7792    1.0542    0.0000 S   0  0  0  0  0  0  0  0  0  0  0  0
    2.1208    2.5292    0.0000 C   0  0  0  0  0  0  0  0  0  0  0  0
   -1.2167   -2.5167    0.0000 N   0  0  0  0  0  0  0  0  0  0  0  0
    2.9875    2.0292    0.0000 C   0  0  0  0  0  0  0  0  0  0  0  0
   -1.7167   -1.6500    0.0000 C   0  0  0  0  0  0  0  0  0  0  0  0
   -2.7167   -1.6500    0.0000 C   0  0  0  0  0  0  0  0  0  0  0  0
   -2.7167   -3.3833    0.0000 C   0  0  0  0  0  0  0  0  0  0  0  0
   -1.7167   -3.3833    0.0000 C   0  0  0  0  0  0  0  0  0  0  0  0
    1.2833    0.0833    0.0000 N   0  0  0  0  0  0  0  0  0  0  0  0
    0.4000    2.0708    0.0000 C   0  0  0  0  0  0  0  0  0  0  0  0
   -3.2167   -2.5167    0.0000 C   0  0  0  0  0  0  0  0  0  0  0  0
   -3.2167   -4.2500    0.0000 C   0  0  0  0  0  0  0  0  0  0  0  0
   -3.2167   -0.7833    0.0000 C   0  0  0  0  0  0  0  0  0  0  0  0
    0.0917    3.0208    0.0000 N   0  0  0  0  0  0  0  0  0  0  0  0
   -2.7167    0.0833    0.0000 N   0  0  0  0  0  0  0  0  0  0  0  0
   -4.2167   -4.2500    0.0000 N   0  0  0  0  0  0  0  0  0  0  0  0
    0.2833    0.0833    0.0000 C   0  0  0  0  0  0  0  0  0  0  0  0
   -1.2167   -0.7833    0.0000 S   0  0  0  0  0  0  0  0  0  0  0  0
   -0.2167    0.9458    0.0000 O   0  0  0  0  0  0  0  0  0  0  0  0
   -1.2167   -4.2500    0.0000 N   0  0  0  0  0  0  0  0  0  0  0  0
   -0.2167   -0.7833    0.0000 C   0  0  0  0  0  0  0  0  0  0  0  0
    1.9708    3.5208    0.0000 C   0  0  0  0  0  0  0  0  0  0  0  0
    3.9167    2.3958    0.0000 C   0  0  0  0  0  0  0  0  0  0  0  0
    2.6500    4.2500    0.0000 C   0  0  0  0  0  0  0  0  0  0  0  0
    4.2125    3.3500    0.0000 C   0  0  0  0  0  0  0  0  0  0  0  0
    3.6500    4.1750    0.0000 C   0  0  0  0  0  0  0  0  0  0  0  0
  1  2  2  0
  1  3  1  0
  2  4  1  0
  5  7  1  0
  3  6  1  0
  7 20  1  0
  7  8  2  0
  9 13  2  0
  5 10  2  0
  1 11  1  0
  2 12  1  0
  8 13  1  0
  9 14  1  0
  8 15  1  0
 12 16  3  0
 15 17  3  0
 14 18  3  0
 11 19  1  0
 20 23  1  0
 19 21  2  0
 10 22  1  0
 19 23  1  0
  4 24  1  0
  6 25  1  0
 24 26  1  0
 25 27  1  0
 27 28  1  0
  4  6  2  0
 26 28  1  0
  9 10  1  0
M  END
>  <MOLFORMULA>  (653) 
C19 H16 N6 O S2

>  <MOLWEIGHT>  (653) 
4.085084000000000e+002

>  <IDNUMBER>  (653) 
AN-153/I108687

>  <PRICE>  (653) 
EUR 130/10 mg

>  <Similarity score>  (653) 
0.17

$$$$

     RDKit          2D

 31 34  0  0  0  0  0  0  0  0999 V2000
    0.9917    0.2083    0.0000 N   0  0  0  0  0  0  0  0  0  0  0  0
    3.4625    0.6458    0.0000 C   0  0  0  0  0  0  0  0  0  0  0  0
    0.5667    0.3958    0.0000 C   0  0  0  0  0  0  0  0  0  0  0  0
    3.6167    0.2625    0.0000 C   0  0  0  0  0  0  0  0  0  0  0  0
    0.6417    0.7875    0.0000 N   0  0  0  0  0  0  0  0  0  0  0  0
    4.2625    0.6333    0.0000 C   0  0  0  0  0  0  0  0  0  0  0  0
    4.1042    0.2458    0.0000 C   0  0  0  0  0  0  0  0  0  0  0  0
    1.3500    0.4750    0.0000 C   0  0  0  0  0  0  0  0  0  0  0  0
    3.8542    0.8708    0.0000 S   0  0  0  0  0  0  0  0  0  0  0  0
    1.1292    0.8375    0.0000 N   0  0  0  0  0  0  0  0  0  0  0  0
    2.9875    0.7708    0.0000 N   0  0  0  0  0  0  0  0  0  0  0  0
    0.1417    0.2208    0.0000 C   0  0  0  0  0  0  0  0  0  0  0  0
    3.3250   -0.0625    0.0000 C   0  0  0  0  0  0  0  0  0  0  0  0
    4.7375    0.6958    0.0000 C   0  0  0  0  0  0  0  0  0  0  0  0
    3.0292   -0.3792    0.0000 N   0  0  0  0  0  0  0  0  0  0  0  0
    1.8167    0.3583    0.0000 S   0  0  0  0  0  0  0  0  0  0  0  0
    4.4417   -0.0542    0.0000 C   0  0  0  0  0  0  0  0  0  0  0  0
    2.6375    0.5083    0.0000 C   0  0  0  0  0  0  0  0  0  0  0  0
    5.0667    0.4000    0.0000 C   0  0  0  0  0  0  0  0  0  0  0  0
    0.1042   -0.1792    0.0000 O   0  0  0  0  0  0  0  0  0  0  0  0
    5.5542    0.4708    0.0000 C   0  0  0  0  0  0  0  0  0  0  0  0
   -0.3125    0.3833    0.0000 C   0  0  0  0  0  0  0  0  0  0  0  0
    4.9125    0.0125    0.0000 C   0  0  0  0  0  0  0  0  0  0  0  0
   -0.3708   -0.2667    0.0000 C   0  0  0  0  0  0  0  0  0  0  0  0
   -0.6375    0.0833    0.0000 C   0  0  0  0  0  0  0  0  0  0  0  0
    2.7542    0.1125    0.0000 O   0  0  0  0  0  0  0  0  0  0  0  0
    2.1750    0.6250    0.0000 C   0  0  0  0  0  0  0  0  0  0  0  0
    1.0625   -0.2000    0.0000 C   0  0  0  0  0  0  0  0  0  0  0  0
    6.0375    0.5458    0.0000 C   0  0  0  0  0  0  0  0  0  0  0  0
    5.6625    0.0750    0.0000 C   0  0  0  0  0  0  0  0  0  0  0  0
    5.4417    0.8625    0.0000 C   0  0  0  0  0  0  0  0  0  0  0  0
  2 11  1  0
  1  3  1  0
  2  4  2  0
  3  5  2  0
  6  9  1  0
  4  7  1  0
  1  8  1  0
  2  9  1  0
  8 10  2  0
 11 18  1  0
  3 12  1  0
  4 13  1  0
  6 14  1  0
 13 15  3  0
  8 16  1  0
  7 17  1  0
 18 27  1  0
 14 19  1  0
 12 20  1  0
 19 21  1  0
 12 22  2  0
 17 23  1  0
 20 24  1  0
 22 25  1  0
 18 26  2  0
 16 27  1  0
  1 28  1  0
 21 29  1  0
 21 30  1  0
 21 31  1  0
  5 10  1  0
 24 25  2  0
  6  7  2  0
 19 23  1  0
M  END
>  <MOLFORMULA>  (654) 
C22 H25 N5 O2 S2

>  <MOLWEIGHT>  (654) 
4.556045000000000e+002

>  <IDNUMBER>  (654) 
AM-879/PD04769

>  <PRICE>  (654) 
EUR 55.00/10 mg

>  <Similarity score>  (654) 
0.17

$$$$

     RDKit          2D

 26 28  0  0  0  0  0  0  0  0999 V2000
    2.5000   -3.4875    0.0000 C   0  0  0  0  0  0  0  0  0  0  0  0
    2.5792   -2.6625    0.0000 C   0  0  0  0  0  0  0  0  0  0  0  0
    3.7917   -3.1917    0.0000 C   0  0  0  0  0  0  0  0  0  0  0  0
    3.3792   -2.4875    0.0000 C   0  0  0  0  0  0  0  0  0  0  0  0
    3.2542   -3.8125    0.0000 S   0  0  0  0  0  0  0  0  0  0  0  0
   -0.4333   -5.9667    0.0000 N   0  0  0  0  0  0  0  0  0  0  0  0
   -0.3458   -5.1417    0.0000 C   0  0  0  0  0  0  0  0  0  0  0  0
   -1.1000   -4.8125    0.0000 N   0  0  0  0  0  0  0  0  0  0  0  0
   -1.6500   -5.4292    0.0000 N   0  0  0  0  0  0  0  0  0  0  0  0
    1.7875   -3.9042    0.0000 N   0  0  0  0  0  0  0  0  0  0  0  0
   -1.2375   -6.1417    0.0000 C   0  0  0  0  0  0  0  0  0  0  0  0
    1.9542   -2.1167    0.0000 C   0  0  0  0  0  0  0  0  0  0  0  0
    4.6125   -3.1917    0.0000 C   0  0  0  0  0  0  0  0  0  0  0  0
    2.1250   -1.3042    0.0000 N   0  0  0  0  0  0  0  0  0  0  0  0
    3.7875   -1.7750    0.0000 C   0  0  0  0  0  0  0  0  0  0  0  0
    1.7917   -4.7250    0.0000 C   0  0  0  0  0  0  0  0  0  0  0  0
    5.0250   -2.4792    0.0000 C   0  0  0  0  0  0  0  0  0  0  0  0
    0.3667   -4.7292    0.0000 S   0  0  0  0  0  0  0  0  0  0  0  0
    5.8500   -2.4792    0.0000 C   0  0  0  0  0  0  0  0  0  0  0  0
    4.6125   -1.7667    0.0000 C   0  0  0  0  0  0  0  0  0  0  0  0
    2.5042   -5.1375    0.0000 O   0  0  0  0  0  0  0  0  0  0  0  0
    1.0792   -5.1375    0.0000 C   0  0  0  0  0  0  0  0  0  0  0  0
   -1.5708   -6.8917    0.0000 C   0  0  0  0  0  0  0  0  0  0  0  0
    6.2542   -1.7667    0.0000 C   0  0  0  0  0  0  0  0  0  0  0  0
    5.6375   -3.2792    0.0000 C   0  0  0  0  0  0  0  0  0  0  0  0
    6.2625   -3.1917    0.0000 C   0  0  0  0  0  0  0  0  0  0  0  0
  1  2  2  0
  3  5  1  0
  2  4  1  0
  1  5  1  0
  6  7  1  0
  7 18  1  0
  7  8  2  0
  8  9  1  0
  1 10  1  0
  6 11  1  0
  2 12  1  0
  3 13  1  0
 12 14  3  0
  4 15  1  0
 10 16  1  0
 13 17  1  0
 18 22  1  0
 17 19  1  0
 15 20  1  0
 16 21  2  0
 16 22  1  0
 11 23  1  0
 19 24  1  0
 19 25  1  0
 19 26  1  0
  3  4  2  0
 17 20  1  0
  9 11  2  0
M  END
>  <MOLFORMULA>  (655) 
C18 H23 N5 O S2

>  <MOLWEIGHT>  (655) 
3.895457000000000e+002

>  <IDNUMBER>  (655) 
AM-879/J184541

>  <PRICE>  (655) 
EUR 55.00/10 mg

>  <Similarity score>  (655) 
0.17

$$$$

     RDKit          2D

 26 30  0  0  0  0  0  0  0  0999 V2000
    3.5542   -8.0042    0.0000 C   0  0  0  0  0  0  0  0  0  0  0  0
    6.2792   -4.1958    0.0000 C   0  0  0  0  0  0  0  0  0  0  0  0
    3.9542   -6.7292    0.0000 C   0  0  0  0  0  0  0  0  0  0  0  0
    4.3417   -9.0792    0.0000 C   0  0  0  0  0  0  0  0  0  0  0  0
    5.2167   -6.3167    0.0000 N   0  0  0  0  0  0  0  0  0  0  0  0
    5.2125   -4.9792    0.0000 C   0  0  0  0  0  0  0  0  0  0  0  0
    7.5167   -4.7417    0.0000 C   0  0  0  0  0  0  0  0  0  0  0  0
    3.5750  -10.1625    0.0000 S   0  0  0  0  0  0  0  0  0  0  0  0
    2.2792   -8.4292    0.0000 C   0  0  0  0  0  0  0  0  0  0  0  0
    6.1375   -2.8875    0.0000 C   0  0  0  0  0  0  0  0  0  0  0  0
    2.3000   -9.7667    0.0000 C   0  0  0  0  0  0  0  0  0  0  0  0
    8.5792   -3.9500    0.0000 O   0  0  0  0  0  0  0  0  0  0  0  0
    3.1792   -5.6667    0.0000 S   0  0  0  0  0  0  0  0  0  0  0  0
    3.9500   -4.5750    0.0000 C   0  0  0  0  0  0  0  0  0  0  0  0
    7.2250   -2.0917    0.0000 C   0  0  0  0  0  0  0  0  0  0  0  0
    8.4292   -2.6375    0.0000 C   0  0  0  0  0  0  0  0  0  0  0  0
    7.6500   -6.0667    0.0000 O   0  0  0  0  0  0  0  0  0  0  0  0
    5.6792   -9.0792    0.0000 N   0  0  0  0  0  0  0  0  0  0  0  0
    1.1292   -7.7667    0.0000 C   0  0  0  0  0  0  0  0  0  0  0  0
    1.1292  -10.4250    0.0000 C   0  0  0  0  0  0  0  0  0  0  0  0
    7.0750   -0.7792    0.0000 C   0  0  0  0  0  0  0  0  0  0  0  0
    9.5042   -1.8542    0.0000 C   0  0  0  0  0  0  0  0  0  0  0  0
    0.0000   -8.4292    0.0000 C   0  0  0  0  0  0  0  0  0  0  0  0
    0.0000   -9.7667    0.0000 C   0  0  0  0  0  0  0  0  0  0  0  0
    8.1417   -0.0000    0.0000 C   0  0  0  0  0  0  0  0  0  0  0  0
    9.3667   -0.5417    0.0000 C   0  0  0  0  0  0  0  0  0  0  0  0
  2  6  1  0
  1  3  1  0
  1  4  2  0
  3  5  2  0
  5  6  1  0
  2  7  1  0
  4  8  1  0
  1  9  1  0
  2 10  2  0
  9 11  2  0
  7 12  1  0
  3 13  1  0
 13 14  1  0
 10 15  1  0
 15 16  2  0
  7 17  2  0
  4 18  1  0
  9 19  1  0
 11 20  1  0
 15 21  1  0
 16 22  1  0
 19 23  1  0
 23 24  1  0
 21 25  2  0
 25 26  1  0
  8 11  1  0
  6 14  2  0
 20 24  1  0
 12 16  1  0
 22 26  2  0
M  END
>  <MOLFORMULA>  (656) 
C20 H16 N2 O2 S2

>  <MOLWEIGHT>  (656) 
3.804904000000000e+002

>  <IDNUMBER>  (656) 
AT-687/NB04344

>  <PRICE>  (656) 
EUR 80/10 mg

>  <Similarity score>  (656) 
0.17

$$$$

     RDKit          2D

 24 26  0  0  0  0  0  0  0  0999 V2000
    0.7125    1.4917    0.0000 C   0  0  0  0  0  0  0  0  0  0  0  0
    0.3042    2.4042    0.0000 C   0  0  0  0  0  0  0  0  0  0  0  0
    1.7083    1.5958    0.0000 S   0  0  0  0  0  0  0  0  0  0  0  0
    1.0500    3.0750    0.0000 C   0  0  0  0  0  0  0  0  0  0  0  0
    0.2125    0.6250    0.0000 N   0  0  0  0  0  0  0  0  0  0  0  0
    1.9167    2.5750    0.0000 C   0  0  0  0  0  0  0  0  0  0  0  0
    0.7125   -0.2417    0.0000 C   0  0  0  0  0  0  0  0  0  0  0  0
   -0.6708    2.6125    0.0000 C   0  0  0  0  0  0  0  0  0  0  0  0
    0.2125   -1.1042    0.0000 C   0  0  0  0  0  0  0  0  0  0  0  0
   -1.3417    1.8708    0.0000 N   0  0  0  0  0  0  0  0  0  0  0  0
    0.7125   -1.9708    0.0000 C   0  0  0  0  0  0  0  0  0  0  0  0
   -0.7875   -1.1083    0.0000 C   0  0  0  0  0  0  0  0  0  0  0  0
    1.7125   -0.2417    0.0000 O   0  0  0  0  0  0  0  0  0  0  0  0
   -0.7875   -2.8375    0.0000 C   0  0  0  0  0  0  0  0  0  0  0  0
    0.2125   -2.8375    0.0000 C   0  0  0  0  0  0  0  0  0  0  0  0
   -1.2875   -1.9708    0.0000 C   0  0  0  0  0  0  0  0  0  0  0  0
    1.0500    4.0708    0.0000 C   0  0  0  0  0  0  0  0  0  0  0  0
    2.7833    3.0750    0.0000 C   0  0  0  0  0  0  0  0  0  0  0  0
   -2.2875   -1.9708    0.0000 O   0  0  0  0  0  0  0  0  0  0  0  0
    0.7125   -3.7042    0.0000 O   0  0  0  0  0  0  0  0  0  0  0  0
   -2.7875   -2.8375    0.0000 C   0  0  0  0  0  0  0  0  0  0  0  0
    0.2125   -4.5708    0.0000 C   0  0  0  0  0  0  0  0  0  0  0  0
    1.9167    4.5708    0.0000 C   0  0  0  0  0  0  0  0  0  0  0  0
    2.7833    4.0708    0.0000 C   0  0  0  0  0  0  0  0  0  0  0  0
  1  2  2  0
  1  3  1  0
  2  4  1  0
  1  5  1  0
  3  6  1  0
  5  7  1  0
  2  8  1  0
  7  9  1  0
  8 10  3  0
  9 11  2  0
  9 12  1  0
  7 13  2  0
 14 16  1  0
 11 15  1  0
 12 16  2  0
  4 17  1  0
  6 18  1  0
 16 19  1  0
 15 20  1  0
 19 21  1  0
 20 22  1  0
 17 23  1  0
 18 24  1  0
  4  6  2  0
 23 24  1  0
 14 15  2  0
M  END
>  <MOLFORMULA>  (657) 
C18 H18 N2 O3 S

>  <MOLWEIGHT>  (657) 
3.424172000000000e+002

>  <IDNUMBER>  (657) 
AN-153/I176664

>  <PRICE>  (657) 
EUR 130/10 mg

>  <Similarity score>  (657) 
0.17

$$$$

     RDKit          2D

 25 28  0  0  0  0  0  0  0  0999 V2000
    1.7500    1.3000    0.0000 C   0  0  0  0  0  0  0  0  0  0  0  0
    2.7417    1.4042    0.0000 C   0  0  0  0  0  0  0  0  0  0  0  0
    1.3417    2.2167    0.0000 S   0  0  0  0  0  0  0  0  0  0  0  0
    2.9500    2.3833    0.0000 C   0  0  0  0  0  0  0  0  0  0  0  0
   -1.7542   -1.2958    0.0000 C   0  0  0  0  0  0  0  0  0  0  0  0
   -1.3458   -2.2125    0.0000 N   0  0  0  0  0  0  0  0  0  0  0  0
    2.0833    2.8833    0.0000 C   0  0  0  0  0  0  0  0  0  0  0  0
    1.2458    0.4333    0.0000 N   0  0  0  0  0  0  0  0  0  0  0  0
   -2.7458   -1.4000    0.0000 O   0  0  0  0  0  0  0  0  0  0  0  0
    3.4125    0.6625    0.0000 C   0  0  0  0  0  0  0  0  0  0  0  0
   -2.0875   -2.8792    0.0000 C   0  0  0  0  0  0  0  0  0  0  0  0
    3.1042   -0.2875    0.0000 N   0  0  0  0  0  0  0  0  0  0  0  0
   -2.9542   -2.3792    0.0000 C   0  0  0  0  0  0  0  0  0  0  0  0
    0.2500    0.4333    0.0000 C   0  0  0  0  0  0  0  0  0  0  0  0
   -1.2500   -0.4292    0.0000 S   0  0  0  0  0  0  0  0  0  0  0  0
   -0.2500    1.3000    0.0000 O   0  0  0  0  0  0  0  0  0  0  0  0
   -0.2500   -0.4292    0.0000 C   0  0  0  0  0  0  0  0  0  0  0  0
    3.8167    2.8833    0.0000 C   0  0  0  0  0  0  0  0  0  0  0  0
    2.0833    3.8833    0.0000 C   0  0  0  0  0  0  0  0  0  0  0  0
   -2.0875   -3.8792    0.0000 C   0  0  0  0  0  0  0  0  0  0  0  0
   -3.8208   -2.8792    0.0000 C   0  0  0  0  0  0  0  0  0  0  0  0
    3.8167    3.8833    0.0000 C   0  0  0  0  0  0  0  0  0  0  0  0
    2.9500    4.3792    0.0000 C   0  0  0  0  0  0  0  0  0  0  0  0
   -3.8208   -3.8792    0.0000 C   0  0  0  0  0  0  0  0  0  0  0  0
   -2.9542   -4.3792    0.0000 C   0  0  0  0  0  0  0  0  0  0  0  0
  1  2  2  0
  1  3  1  0
  2  4  1  0
  5 15  1  0
  5  6  2  0
  3  7  1  0
  1  8  1  0
  5  9  1  0
  2 10  1  0
  6 11  1  0
 10 12  3  0
  9 13  1  0
  8 14  1  0
 15 17  1  0
 14 16  2  0
 14 17  1  0
  4 18  1  0
  7 19  1  0
 11 20  2  0
 13 21  2  0
 18 22  1  0
 19 23  1  0
 21 24  1  0
 20 25  1  0
  4  7  2  0
 22 23  1  0
 11 13  1  0
 24 25  2  0
M  END
>  <MOLFORMULA>  (658) 
C18 H15 N3 O2 S2

>  <MOLWEIGHT>  (658) 
3.694675000000000e+002

>  <IDNUMBER>  (658) 
AN-153/I135718

>  <PRICE>  (658) 
EUR 130/10 mg

>  <Similarity score>  (658) 
0.17

$$$$

     RDKit          2D

 39 42  0  0  0  0  0  0  0  0999 V2000
    3.7000    1.1958    0.0000 C   0  0  0  0  0  0  0  0  0  0  0  0
    3.8375    0.8208    0.0000 C   0  0  0  0  0  0  0  0  0  0  0  0
    1.4125    0.7208    0.0000 N   0  0  0  0  0  0  0  0  0  0  0  0
    4.4292    1.1833    0.0000 C   0  0  0  0  0  0  0  0  0  0  0  0
    4.2875    0.8000    0.0000 C   0  0  0  0  0  0  0  0  0  0  0  0
    1.7375    0.9958    0.0000 C   0  0  0  0  0  0  0  0  0  0  0  0
    4.0750    1.4333    0.0000 S   0  0  0  0  0  0  0  0  0  0  0  0
    1.0042    0.9208    0.0000 C   0  0  0  0  0  0  0  0  0  0  0  0
    1.5375    1.3708    0.0000 N   0  0  0  0  0  0  0  0  0  0  0  0
    1.0792    1.3208    0.0000 N   0  0  0  0  0  0  0  0  0  0  0  0
    3.2625    1.3208    0.0000 N   0  0  0  0  0  0  0  0  0  0  0  0
    3.5625    0.4875    0.0000 C   0  0  0  0  0  0  0  0  0  0  0  0
    4.8750    1.2625    0.0000 C   0  0  0  0  0  0  0  0  0  0  0  0
    3.2792    0.1583    0.0000 N   0  0  0  0  0  0  0  0  0  0  0  0
    2.1750    0.8833    0.0000 S   0  0  0  0  0  0  0  0  0  0  0  0
    4.5875    0.4875    0.0000 C   0  0  0  0  0  0  0  0  0  0  0  0
    2.9375    1.0458    0.0000 C   0  0  0  0  0  0  0  0  0  0  0  0
    5.1792    0.9500    0.0000 C   0  0  0  0  0  0  0  0  0  0  0  0
   -0.1875    0.8000    0.0000 C   0  0  0  0  0  0  0  0  0  0  0  0
    0.6000    0.7458    0.0000 C   0  0  0  0  0  0  0  0  0  0  0  0
    5.6292    1.0333    0.0000 C   0  0  0  0  0  0  0  0  0  0  0  0
    0.2167    0.9833    0.0000 N   0  0  0  0  0  0  0  0  0  0  0  0
    5.0292    0.5583    0.0000 C   0  0  0  0  0  0  0  0  0  0  0  0
    3.0417    0.6458    0.0000 O   0  0  0  0  0  0  0  0  0  0  0  0
   -0.5708    1.0458    0.0000 O   0  0  0  0  0  0  0  0  0  0  0  0
    2.5000    1.1583    0.0000 C   0  0  0  0  0  0  0  0  0  0  0  0
   -0.2208    0.3958    0.0000 C   0  0  0  0  0  0  0  0  0  0  0  0
    1.4750    0.3083    0.0000 C   0  0  0  0  0  0  0  0  0  0  0  0
    0.1542    0.1583    0.0000 C   0  0  0  0  0  0  0  0  0  0  0  0
    0.9042   -0.3167    0.0000 C   0  0  0  0  0  0  0  0  0  0  0  0
    0.1250   -0.2542    0.0000 C   0  0  0  0  0  0  0  0  0  0  0  0
    0.5667    0.3333    0.0000 C   0  0  0  0  0  0  0  0  0  0  0  0
    0.9417    0.0958    0.0000 C   0  0  0  0  0  0  0  0  0  0  0  0
    0.4917   -0.4917    0.0000 C   0  0  0  0  0  0  0  0  0  0  0  0
    1.2917   -0.5542    0.0000 O   0  0  0  0  0  0  0  0  0  0  0  0
    6.0875    1.0958    0.0000 C   0  0  0  0  0  0  0  0  0  0  0  0
    5.5500    1.4333    0.0000 C   0  0  0  0  0  0  0  0  0  0  0  0
    5.7250    0.6125    0.0000 C   0  0  0  0  0  0  0  0  0  0  0  0
    1.2542   -0.9667    0.0000 C   0  0  0  0  0  0  0  0  0  0  0  0
  1  2  2  0
  3  6  1  0
  4  7  1  0
  2  5  1  0
  6 15  1  0
  1  7  1  0
  3  8  1  0
  6  9  2  0
  9 10  1  0
  1 11  1  0
  2 12  1  0
  4 13  1  0
 12 14  3  0
 15 26  1  0
  5 16  1  0
 11 17  1  0
 13 18  1  0
 19 22  1  0
  8 20  1  0
 18 21  1  0
 20 22  1  0
 16 23  1  0
 17 24  2  0
 19 25  2  0
 17 26  1  0
 19 27  1  0
  3 28  1  0
 27 29  1  0
 30 33  2  0
 29 31  1  0
 29 32  2  0
 32 33  1  0
 31 34  2  0
 30 35  1  0
 21 36  1  0
 21 37  1  0
 21 38  1  0
 35 39  1  0
  4  5  2  0
 18 23  1  0
  8 10  2  0
 30 34  1  0
M  END
>  <MOLFORMULA>  (659) 
C28 H34 N6 O3 S2

>  <MOLWEIGHT>  (659) 
5.667476000000000e+002

>  <IDNUMBER>  (659) 
AM-879/PD04539

>  <PRICE>  (659) 
EUR 55.00/10 mg

>  <Similarity score>  (659) 
0.17

$$$$

     RDKit          2D

 31 33  0  0  0  0  0  0  0  0999 V2000
   -4.6833   -0.0000    0.0000 C   0  0  0  0  0  0  0  0  0  0  0  0
   -5.9042    0.5417    0.0000 C   0  0  0  0  0  0  0  0  0  0  0  0
   -4.8208   -1.3375    0.0000 S   0  0  0  0  0  0  0  0  0  0  0  0
   -6.7958   -0.4583    0.0000 C   0  0  0  0  0  0  0  0  0  0  0  0
   -3.4833    0.6625    0.0000 N   0  0  0  0  0  0  0  0  0  0  0  0
   -6.1375   -1.6167    0.0000 C   0  0  0  0  0  0  0  0  0  0  0  0
   -1.1625    0.6625    0.0000 C   0  0  0  0  0  0  0  0  0  0  0  0
   -2.3208   -0.0000    0.0000 C   0  0  0  0  0  0  0  0  0  0  0  0
   -6.1667    1.8500    0.0000 C   0  0  0  0  0  0  0  0  0  0  0  0
    3.3458   -1.1500    0.0000 C   0  0  0  0  0  0  0  0  0  0  0  0
    5.3750   -2.3333    0.0000 C   0  0  0  0  0  0  0  0  0  0  0  0
   -6.4375    3.1625    0.0000 N   0  0  0  0  0  0  0  0  0  0  0  0
    4.0292   -2.3333    0.0000 C   0  0  0  0  0  0  0  0  0  0  0  0
    6.0542   -1.1500    0.0000 C   0  0  0  0  0  0  0  0  0  0  0  0
    4.0292   -0.0000    0.0000 C   0  0  0  0  0  0  0  0  0  0  0  0
    5.3750   -0.0000    0.0000 C   0  0  0  0  0  0  0  0  0  0  0  0
    1.3375   -0.0000    0.0000 N   0  0  0  0  0  0  0  0  0  0  0  0
    0.0000   -0.0000    0.0000 N   0  0  0  0  0  0  0  0  0  0  0  0
   -1.1625    1.9917    0.0000 O   0  0  0  0  0  0  0  0  0  0  0  0
   -2.3208   -1.3292    0.0000 O   0  0  0  0  0  0  0  0  0  0  0  0
    2.0000   -1.1500    0.0000 C   0  0  0  0  0  0  0  0  0  0  0  0
    3.3792   -3.5083    0.0000 O   0  0  0  0  0  0  0  0  0  0  0  0
   -8.1583   -0.4583    0.0000 C   0  0  0  0  0  0  0  0  0  0  0  0
    7.3917   -1.1292    0.0000 O   0  0  0  0  0  0  0  0  0  0  0  0
    6.0333    1.1542    0.0000 O   0  0  0  0  0  0  0  0  0  0  0  0
   -6.7958   -2.7792    0.0000 C   0  0  0  0  0  0  0  0  0  0  0  0
    8.0833   -2.2625    0.0000 C   0  0  0  0  0  0  0  0  0  0  0  0
    2.0417   -3.5208    0.0000 C   0  0  0  0  0  0  0  0  0  0  0  0
    7.3708    1.1542    0.0000 C   0  0  0  0  0  0  0  0  0  0  0  0
   -8.8167   -1.6167    0.0000 C   0  0  0  0  0  0  0  0  0  0  0  0
   -8.1583   -2.7792    0.0000 C   0  0  0  0  0  0  0  0  0  0  0  0
  1  2  2  0
  1  3  1  0
  2  4  1  0
  1  5  1  0
  3  6  1  0
  7  8  1  0
  5  8  1  0
  2  9  1  0
 10 21  1  0
 11 13  1  0
  9 12  3  0
 10 13  2  0
 14 16  1  0
 10 15  1  0
 15 16  2  0
 17 18  1  0
  7 18  1  0
  7 19  2  0
  8 20  2  0
 17 21  2  0
 13 22  1  0
  4 23  1  0
 14 24  1  0
 16 25  1  0
  6 26  1  0
 24 27  1  0
 22 28  1  0
 25 29  1  0
 23 30  1  0
 26 31  1  0
  4  6  2  0
 30 31  1  0
 11 14  2  0
M  END
>  <MOLFORMULA>  (660) 
C21 H22 N4 O5 S

>  <MOLWEIGHT>  (660) 
4.424938000000000e+002

>  <IDNUMBER>  (660) 
AT-225/NB76883

>  <PRICE>  (660) 
EUR 140/10 mg

>  <Similarity score>  (660) 
0.17

$$$$

     RDKit          2D

 30 32  0  0  0  0  0  0  0  0999 V2000
    0.3292   -0.5167    0.0000 C   0  0  0  0  0  0  0  0  0  0  0  0
    0.7375   -1.4292    0.0000 C   0  0  0  0  0  0  0  0  0  0  0  0
    1.9375   -0.3500    0.0000 C   0  0  0  0  0  0  0  0  0  0  0  0
    1.7292   -1.3250    0.0000 C   0  0  0  0  0  0  0  0  0  0  0  0
    1.0708    0.1500    0.0000 S   0  0  0  0  0  0  0  0  0  0  0  0
   -0.6500   -0.3083    0.0000 N   0  0  0  0  0  0  0  0  0  0  0  0
   -0.9583    0.6417    0.0000 C   0  0  0  0  0  0  0  0  0  0  0  0
   -1.9375    0.8500    0.0000 C   0  0  0  0  0  0  0  0  0  0  0  0
   -3.8917    1.2667    0.0000 C   0  0  0  0  0  0  0  0  0  0  0  0
    0.2375   -2.2958    0.0000 C   0  0  0  0  0  0  0  0  0  0  0  0
   -3.5833    0.3125    0.0000 C   0  0  0  0  0  0  0  0  0  0  0  0
   -3.2250    2.0083    0.0000 C   0  0  0  0  0  0  0  0  0  0  0  0
    2.8917   -0.0375    0.0000 C   0  0  0  0  0  0  0  0  0  0  0  0
    0.7375   -3.1625    0.0000 N   0  0  0  0  0  0  0  0  0  0  0  0
    2.4750   -1.9958    0.0000 C   0  0  0  0  0  0  0  0  0  0  0  0
   -2.2458    1.8000    0.0000 C   0  0  0  0  0  0  0  0  0  0  0  0
   -2.6042    0.1042    0.0000 C   0  0  0  0  0  0  0  0  0  0  0  0
    3.6333   -0.7083    0.0000 C   0  0  0  0  0  0  0  0  0  0  0  0
    4.5833   -0.4000    0.0000 C   0  0  0  0  0  0  0  0  0  0  0  0
   -0.2875    1.3833    0.0000 O   0  0  0  0  0  0  0  0  0  0  0  0
    3.4250   -1.6875    0.0000 C   0  0  0  0  0  0  0  0  0  0  0  0
   -4.8708    1.4750    0.0000 O   0  0  0  0  0  0  0  0  0  0  0  0
   -3.5333    2.9583    0.0000 O   0  0  0  0  0  0  0  0  0  0  0  0
   -4.2500   -0.4292    0.0000 O   0  0  0  0  0  0  0  0  0  0  0  0
    5.5333   -0.0917    0.0000 C   0  0  0  0  0  0  0  0  0  0  0  0
    4.8917   -1.3500    0.0000 C   0  0  0  0  0  0  0  0  0  0  0  0
    4.2750    0.5500    0.0000 C   0  0  0  0  0  0  0  0  0  0  0  0
   -5.5375    0.7292    0.0000 C   0  0  0  0  0  0  0  0  0  0  0  0
   -3.9417   -1.3792    0.0000 C   0  0  0  0  0  0  0  0  0  0  0  0
   -4.5083    3.1667    0.0000 C   0  0  0  0  0  0  0  0  0  0  0  0
  1  2  2  0
  3  5  1  0
  2  4  1  0
  1  5  1  0
  1  6  1  0
  6  7  1  0
  7  8  1  0
  9 11  1  0
  2 10  1  0
 11 17  2  0
 12 16  1  0
  3 13  1  0
 10 14  3  0
  4 15  1  0
  8 16  2  0
  8 17  1  0
 13 18  1  0
 18 19  1  0
  7 20  2  0
 15 21  1  0
  9 22  1  0
 12 23  1  0
 11 24  1  0
 19 25  1  0
 19 26  1  0
 19 27  1  0
 22 28  1  0
 24 29  1  0
 23 30  1  0
  3  4  2  0
 18 21  1  0
  9 12  2  0
M  END
>  <MOLFORMULA>  (661) 
C23 H28 N2 O4 S

>  <MOLWEIGHT>  (661) 
4.285502000000000e+002

>  <IDNUMBER>  (661) 
AN-153/I178397

>  <PRICE>  (661) 
EUR 130/10 mg

>  <Similarity score>  (661) 
0.17

$$$$

     RDKit          2D

 34 37  0  0  0  0  0  0  0  0999 V2000
    4.0792    1.0583    0.0000 C   0  0  0  0  0  0  0  0  0  0  0  0
    0.6375    0.3083    0.0000 N   0  0  0  0  0  0  0  0  0  0  0  0
    4.2792    0.4208    0.0000 C   0  0  0  0  0  0  0  0  0  0  0  0
    0.0500    0.6375    0.0000 C   0  0  0  0  0  0  0  0  0  0  0  0
    0.1875    1.2958    0.0000 N   0  0  0  0  0  0  0  0  0  0  0  0
    5.1792    1.0708    0.0000 C   0  0  0  0  0  0  0  0  0  0  0  0
    4.9667    0.4250    0.0000 C   0  0  0  0  0  0  0  0  0  0  0  0
    1.1375    0.7583    0.0000 C   0  0  0  0  0  0  0  0  0  0  0  0
    4.6292    1.4708    0.0000 S   0  0  0  0  0  0  0  0  0  0  0  0
    0.8542    1.3833    0.0000 N   0  0  0  0  0  0  0  0  0  0  0  0
    3.4375    1.2708    0.0000 N   0  0  0  0  0  0  0  0  0  0  0  0
    3.8750   -0.1167    0.0000 C   0  0  0  0  0  0  0  0  0  0  0  0
   -0.5500    0.3333    0.0000 C   0  0  0  0  0  0  0  0  0  0  0  0
    5.8375    1.2125    0.0000 C   0  0  0  0  0  0  0  0  0  0  0  0
    3.4625   -0.6542    0.0000 N   0  0  0  0  0  0  0  0  0  0  0  0
    1.7792    0.5583    0.0000 S   0  0  0  0  0  0  0  0  0  0  0  0
    5.4167   -0.0792    0.0000 C   0  0  0  0  0  0  0  0  0  0  0  0
    2.9292    0.8208    0.0000 C   0  0  0  0  0  0  0  0  0  0  0  0
    6.2917    0.7208    0.0000 C   0  0  0  0  0  0  0  0  0  0  0  0
    6.9750    0.8583    0.0000 C   0  0  0  0  0  0  0  0  0  0  0  0
   -0.5875   -0.3500    0.0000 C   0  0  0  0  0  0  0  0  0  0  0  0
    6.0875    0.0708    0.0000 C   0  0  0  0  0  0  0  0  0  0  0  0
    3.0667    0.1583    0.0000 O   0  0  0  0  0  0  0  0  0  0  0  0
    2.2875    1.0125    0.0000 C   0  0  0  0  0  0  0  0  0  0  0  0
    0.7042   -0.3667    0.0000 C   0  0  0  0  0  0  0  0  0  0  0  0
   -1.1875   -0.6542    0.0000 C   0  0  0  0  0  0  0  0  0  0  0  0
   -1.1208    0.6958    0.0000 C   0  0  0  0  0  0  0  0  0  0  0  0
   -1.7250    0.3833    0.0000 C   0  0  0  0  0  0  0  0  0  0  0  0
    7.6417    1.0000    0.0000 C   0  0  0  0  0  0  0  0  0  0  0  0
    6.8292    1.5208    0.0000 C   0  0  0  0  0  0  0  0  0  0  0  0
    7.1167    0.1875    0.0000 C   0  0  0  0  0  0  0  0  0  0  0  0
   -1.7500   -0.2875    0.0000 C   0  0  0  0  0  0  0  0  0  0  0  0
   -1.2250   -1.3417    0.0000 C   0  0  0  0  0  0  0  0  0  0  0  0
    1.3167   -0.6375    0.0000 C   0  0  0  0  0  0  0  0  0  0  0  0
  2  8  1  0
  1  3  2  0
  2  4  1  0
  5 10  1  0
  6  9  1  0
  3  7  1  0
  8 16  1  0
  1  9  1  0
  8 10  2  0
  1 11  1  0
  3 12  1  0
  4 13  1  0
  6 14  1  0
 12 15  3  0
 16 24  1  0
  7 17  1  0
 11 18  1  0
 14 19  1  0
 19 20  1  0
 13 21  2  0
 17 22  1  0
 18 23  2  0
 18 24  1  0
  2 25  1  0
 21 26  1  0
 13 27  1  0
 27 28  2  0
 20 29  1  0
 20 30  1  0
 20 31  1  0
 28 32  1  0
 26 33  1  0
 25 34  1  0
  6  7  2  0
 19 22  1  0
  4  5  2  0
 26 32  2  0
M  END
>  <MOLFORMULA>  (662) 
C26 H31 N5 O S2

>  <MOLWEIGHT>  (662) 
4.936969000000000e+002

>  <IDNUMBER>  (662) 
AM-879/PD04538

>  <PRICE>  (662) 
EUR 55.00/10 mg

>  <Similarity score>  (662) 
0.17

$$$$

     RDKit          2D

 31 34  0  0  0  0  0  0  0  0999 V2000
   -4.6833   -0.0000    0.0000 C   0  0  0  0  0  0  0  0  0  0  0  0
   -5.9042    0.5417    0.0000 C   0  0  0  0  0  0  0  0  0  0  0  0
   -4.8208   -1.3375    0.0000 S   0  0  0  0  0  0  0  0  0  0  0  0
   -6.7958   -0.4583    0.0000 C   0  0  0  0  0  0  0  0  0  0  0  0
   -3.4833    0.6625    0.0000 N   0  0  0  0  0  0  0  0  0  0  0  0
   -6.1375   -1.6167    0.0000 C   0  0  0  0  0  0  0  0  0  0  0  0
   -1.1625    0.6625    0.0000 C   0  0  0  0  0  0  0  0  0  0  0  0
   -2.3208   -0.0000    0.0000 C   0  0  0  0  0  0  0  0  0  0  0  0
    4.8292   -2.0667    0.0000 N   0  0  0  0  0  0  0  0  0  0  0  0
    3.6917   -0.0375    0.0000 C   0  0  0  0  0  0  0  0  0  0  0  0
    3.6917   -1.3792    0.0000 C   0  0  0  0  0  0  0  0  0  0  0  0
   -6.1667    1.8500    0.0000 C   0  0  0  0  0  0  0  0  0  0  0  0
    6.0042   -1.3792    0.0000 C   0  0  0  0  0  0  0  0  0  0  0  0
   -6.4375    3.1625    0.0000 N   0  0  0  0  0  0  0  0  0  0  0  0
    4.8292    0.6125    0.0000 C   0  0  0  0  0  0  0  0  0  0  0  0
    6.0042   -0.0375    0.0000 C   0  0  0  0  0  0  0  0  0  0  0  0
    1.3375   -0.0000    0.0000 N   0  0  0  0  0  0  0  0  0  0  0  0
    0.0000   -0.0000    0.0000 N   0  0  0  0  0  0  0  0  0  0  0  0
   -1.1625    1.9917    0.0000 O   0  0  0  0  0  0  0  0  0  0  0  0
    2.5167    0.6500    0.0000 C   0  0  0  0  0  0  0  0  0  0  0  0
   -2.3208   -1.3292    0.0000 O   0  0  0  0  0  0  0  0  0  0  0  0
    7.1417   -2.0667    0.0000 C   0  0  0  0  0  0  0  0  0  0  0  0
    7.1417    0.6125    0.0000 C   0  0  0  0  0  0  0  0  0  0  0  0
    2.5583   -2.1083    0.0000 Cl  0  0  0  0  0  0  0  0  0  0  0  0
    8.3208   -1.3792    0.0000 C   0  0  0  0  0  0  0  0  0  0  0  0
   -8.1583   -0.4583    0.0000 C   0  0  0  0  0  0  0  0  0  0  0  0
    8.3208   -0.0375    0.0000 C   0  0  0  0  0  0  0  0  0  0  0  0
   -6.7958   -2.7792    0.0000 C   0  0  0  0  0  0  0  0  0  0  0  0
    9.4542   -2.1083    0.0000 C   0  0  0  0  0  0  0  0  0  0  0  0
   -8.8167   -1.6167    0.0000 C   0  0  0  0  0  0  0  0  0  0  0  0
   -8.1583   -2.7792    0.0000 C   0  0  0  0  0  0  0  0  0  0  0  0
  1  2  2  0
  1  3  1  0
  2  4  1  0
  1  5  1  0
  3  6  1  0
  7  8  1  0
  5  8  1  0
  9 11  2  0
 10 20  1  0
 10 11  1  0
  2 12  1  0
 13 16  2  0
 12 14  3  0
 10 15  2  0
 15 16  1  0
 17 18  1  0
  7 18  1  0
  7 19  2  0
 17 20  2  0
  8 21  2  0
 13 22  1  0
 16 23  1  0
 11 24  1  0
 25 27  1  0
  4 26  1  0
 23 27  2  0
  6 28  1  0
 25 29  1  0
 26 30  1  0
 28 31  1  0
  4  6  2  0
 30 31  1  0
  9 13  1  0
 22 25  2  0
M  END
>  <MOLFORMULA>  (663) 
C22 H18 Cl N5 O2 S

>  <MOLWEIGHT>  (663) 
4.519362000000000e+002

>  <IDNUMBER>  (663) 
AT-225/NB77309

>  <PRICE>  (663) 
EUR 140/10 mg

>  <Similarity score>  (663) 
0.17

$$$$

     RDKit          2D

 23 25  0  0  0  0  0  0  0  0999 V2000
    7.8250   -9.7000    0.0000 C   0  0  0  0  0  0  0  0  0  0  0  0
    8.5750   -9.3625    0.0000 C   0  0  0  0  0  0  0  0  0  0  0  0
    7.9167  -10.5250    0.0000 S   0  0  0  0  0  0  0  0  0  0  0  0
    9.1292   -9.9542    0.0000 C   0  0  0  0  0  0  0  0  0  0  0  0
    8.7167  -10.6792    0.0000 C   0  0  0  0  0  0  0  0  0  0  0  0
    4.9542   -7.2417    0.0000 N   0  0  0  0  0  0  0  0  0  0  0  0
    7.1042   -9.2917    0.0000 N   0  0  0  0  0  0  0  0  0  0  0  0
    4.9542   -8.0667    0.0000 C   0  0  0  0  0  0  0  0  0  0  0  0
    8.7375   -8.5542    0.0000 C   0  0  0  0  0  0  0  0  0  0  0  0
    8.9000   -7.7417    0.0000 N   0  0  0  0  0  0  0  0  0  0  0  0
    7.1000   -8.4667    0.0000 C   0  0  0  0  0  0  0  0  0  0  0  0
    4.2375   -6.8292    0.0000 C   0  0  0  0  0  0  0  0  0  0  0  0
    4.2375   -8.4792    0.0000 N   0  0  0  0  0  0  0  0  0  0  0  0
    5.6667   -8.4792    0.0000 S   0  0  0  0  0  0  0  0  0  0  0  0
    3.5250   -7.2417    0.0000 C   0  0  0  0  0  0  0  0  0  0  0  0
    7.8125   -8.0500    0.0000 O   0  0  0  0  0  0  0  0  0  0  0  0
    6.3792   -8.0667    0.0000 C   0  0  0  0  0  0  0  0  0  0  0  0
    3.5250   -8.0667    0.0000 C   0  0  0  0  0  0  0  0  0  0  0  0
    4.2292   -6.0042    0.0000 O   0  0  0  0  0  0  0  0  0  0  0  0
    9.9667   -9.9417    0.0000 C   0  0  0  0  0  0  0  0  0  0  0  0
    9.1417  -11.4000    0.0000 C   0  0  0  0  0  0  0  0  0  0  0  0
   10.3875  -10.6667    0.0000 C   0  0  0  0  0  0  0  0  0  0  0  0
    9.9750  -11.3917    0.0000 C   0  0  0  0  0  0  0  0  0  0  0  0
  1  2  2  0
  1  3  1  0
  2  4  1  0
  3  5  1  0
  6  8  1  0
  1  7  1  0
  8 14  1  0
  2  9  1  0
  9 10  3  0
  7 11  1  0
  6 12  2  0
  8 13  2  0
 14 17  1  0
 15 18  2  0
 11 16  2  0
 11 17  1  0
 13 18  1  0
 12 19  1  0
  4 20  1  0
  5 21  1  0
 20 22  1  0
 21 23  1  0
  4  5  2  0
 22 23  1  0
 12 15  1  0
M  END
>  <MOLFORMULA>  (664) 
C15 H14 N4 O2 S2

>  <MOLWEIGHT>  (664) 
3.464336000000000e+002

>  <IDNUMBER>  (664) 
AP-853/J242162

>  <Similarity score>  (664) 
0.17

$$$$

     RDKit          2D

 32 35  0  0  0  0  0  0  0  0999 V2000
    4.1292    1.2458    0.0000 C   0  0  0  0  0  0  0  0  0  0  0  0
    4.6250    1.6125    0.0000 C   0  0  0  0  0  0  0  0  0  0  0  0
    4.9500    0.6708    0.0000 C   0  0  0  0  0  0  0  0  0  0  0  0
    5.1292    1.2583    0.0000 C   0  0  0  0  0  0  0  0  0  0  0  0
    4.3292    0.6625    0.0000 S   0  0  0  0  0  0  0  0  0  0  0  0
    0.9667    0.5833    0.0000 O   0  0  0  0  0  0  0  0  0  0  0  0
    0.4667    0.9375    0.0000 C   0  0  0  0  0  0  0  0  0  0  0  0
    0.6542    1.5208    0.0000 N   0  0  0  0  0  0  0  0  0  0  0  0
    1.4625    0.9500    0.0000 C   0  0  0  0  0  0  0  0  0  0  0  0
    1.2542    1.5333    0.0000 N   0  0  0  0  0  0  0  0  0  0  0  0
    3.5500    1.4333    0.0000 N   0  0  0  0  0  0  0  0  0  0  0  0
    4.6292    2.2250    0.0000 C   0  0  0  0  0  0  0  0  0  0  0  0
    5.3542    0.2208    0.0000 C   0  0  0  0  0  0  0  0  0  0  0  0
    4.5875    2.8458    0.0000 N   0  0  0  0  0  0  0  0  0  0  0  0
    5.7250    1.3833    0.0000 C   0  0  0  0  0  0  0  0  0  0  0  0
    3.1000    1.0083    0.0000 C   0  0  0  0  0  0  0  0  0  0  0  0
    5.9542    0.3500    0.0000 C   0  0  0  0  0  0  0  0  0  0  0  0
   -0.1375    0.7500    0.0000 C   0  0  0  0  0  0  0  0  0  0  0  0
    2.0542    0.7708    0.0000 S   0  0  0  0  0  0  0  0  0  0  0  0
    6.3667   -0.1042    0.0000 C   0  0  0  0  0  0  0  0  0  0  0  0
    6.1375    0.9333    0.0000 C   0  0  0  0  0  0  0  0  0  0  0  0
    3.2375    0.4000    0.0000 O   0  0  0  0  0  0  0  0  0  0  0  0
   -0.6083    1.1708    0.0000 C   0  0  0  0  0  0  0  0  0  0  0  0
   -0.2708    0.1458    0.0000 C   0  0  0  0  0  0  0  0  0  0  0  0
    2.5042    1.1958    0.0000 C   0  0  0  0  0  0  0  0  0  0  0  0
   -0.8583   -0.0542    0.0000 C   0  0  0  0  0  0  0  0  0  0  0  0
   -1.2000    0.9708    0.0000 C   0  0  0  0  0  0  0  0  0  0  0  0
   -1.3250    0.3583    0.0000 C   0  0  0  0  0  0  0  0  0  0  0  0
    6.1917   -0.6875    0.0000 C   0  0  0  0  0  0  0  0  0  0  0  0
    6.9667    0.0333    0.0000 C   0  0  0  0  0  0  0  0  0  0  0  0
    5.8292   -0.3792    0.0000 C   0  0  0  0  0  0  0  0  0  0  0  0
   -1.9250    0.1625    0.0000 C   0  0  0  0  0  0  0  0  0  0  0  0
  1  2  2  0
  3  5  1  0
  2  4  1  0
  1  5  1  0
  6  9  1  0
  6  7  1  0
  8 10  1  0
  9 19  1  0
  9 10  2  0
  1 11  1  0
  2 12  1  0
  3 13  1  0
 12 14  3  0
  4 15  1  0
 11 16  1  0
 13 17  1  0
  7 18  1  0
 19 25  1  0
 17 20  1  0
 15 21  1  0
 16 22  2  0
 18 23  1  0
 18 24  2  0
 16 25  1  0
 24 26  1  0
 23 27  2  0
 26 28  2  0
 20 29  1  0
 20 30  1  0
 20 31  1  0
 28 32  1  0
  3  4  2  0
 17 21  1  0
  7  8  2  0
 27 28  1  0
M  END
>  <MOLFORMULA>  (665) 
C24 H26 N4 O2 S2

>  <MOLWEIGHT>  (665) 
4.666274000000000e+002

>  <IDNUMBER>  (665) 
AM-879/PD05190

>  <PRICE>  (665) 
EUR 55.00/10 mg

>  <Similarity score>  (665) 
0.17

$$$$

     RDKit          2D

 22 24  0  0  0  0  0  0  0  0999 V2000
    6.0625   -6.9417    0.0000 C   0  0  0  0  0  0  0  0  0  0  0  0
    5.5792   -6.2750    0.0000 C   0  0  0  0  0  0  0  0  0  0  0  0
    5.5750   -7.6125    0.0000 S   0  0  0  0  0  0  0  0  0  0  0  0
    4.7917   -6.5292    0.0000 C   0  0  0  0  0  0  0  0  0  0  0  0
    4.7917   -7.3542    0.0000 C   0  0  0  0  0  0  0  0  0  0  0  0
    8.0917   -9.3125    0.0000 C   0  0  0  0  0  0  0  0  0  0  0  0
    8.3917  -10.0875    0.0000 N   0  0  0  0  0  0  0  0  0  0  0  0
    6.8917   -6.9500    0.0000 N   0  0  0  0  0  0  0  0  0  0  0  0
    5.8375   -5.4875    0.0000 C   0  0  0  0  0  0  0  0  0  0  0  0
    8.7250   -8.7917    0.0000 S   0  0  0  0  0  0  0  0  0  0  0  0
    6.0917   -4.7000    0.0000 N   0  0  0  0  0  0  0  0  0  0  0  0
    9.2042  -10.0375    0.0000 C   0  0  0  0  0  0  0  0  0  0  0  0
    7.3042   -7.6667    0.0000 C   0  0  0  0  0  0  0  0  0  0  0  0
    9.4167   -9.2417    0.0000 C   0  0  0  0  0  0  0  0  0  0  0  0
    7.3000   -9.1000    0.0000 S   0  0  0  0  0  0  0  0  0  0  0  0
    8.1292   -7.6667    0.0000 O   0  0  0  0  0  0  0  0  0  0  0  0
    6.8875   -8.3792    0.0000 C   0  0  0  0  0  0  0  0  0  0  0  0
    4.0750   -6.1125    0.0000 C   0  0  0  0  0  0  0  0  0  0  0  0
    4.0750   -7.7667    0.0000 C   0  0  0  0  0  0  0  0  0  0  0  0
    9.7250  -10.6750    0.0000 C   0  0  0  0  0  0  0  0  0  0  0  0
    3.3625   -6.5292    0.0000 C   0  0  0  0  0  0  0  0  0  0  0  0
    3.3625   -7.3542    0.0000 C   0  0  0  0  0  0  0  0  0  0  0  0
  1  2  2  0
  1  3  1  0
  2  4  1  0
  3  5  1  0
  6 15  1  0
  6  7  2  0
  1  8  1  0
  2  9  1  0
  6 10  1  0
  9 11  3  0
  7 12  1  0
  8 13  1  0
 10 14  1  0
 15 17  1  0
 13 16  2  0
 13 17  1  0
  4 18  1  0
  5 19  1  0
 12 20  1  0
 18 21  1  0
 19 22  1  0
  4  5  2  0
 21 22  1  0
 12 14  2  0
M  END
>  <MOLFORMULA>  (666) 
C15 H15 N3 O S3

>  <MOLWEIGHT>  (666) 
3.495015000000000e+002

>  <IDNUMBER>  (666) 
AP-853/J241823

>  <Similarity score>  (666) 
0.17

$$$$

     RDKit          2D

 27 30  0  0  0  0  0  0  0  0999 V2000
   -3.3958   -0.1125    0.0000 C   0  0  0  0  0  0  0  0  0  0  0  0
   -3.9875   -0.9208    0.0000 C   0  0  0  0  0  0  0  0  0  0  0  0
   -3.9875    0.6958    0.0000 S   0  0  0  0  0  0  0  0  0  0  0  0
   -4.9375   -0.6125    0.0000 C   0  0  0  0  0  0  0  0  0  0  0  0
    0.6042    1.6208    0.0000 C   0  0  0  0  0  0  0  0  0  0  0  0
    1.1917    2.4292    0.0000 N   0  0  0  0  0  0  0  0  0  0  0  0
   -4.9375    0.3875    0.0000 C   0  0  0  0  0  0  0  0  0  0  0  0
    1.1917    0.8125    0.0000 S   0  0  0  0  0  0  0  0  0  0  0  0
   -2.3958   -0.1125    0.0000 N   0  0  0  0  0  0  0  0  0  0  0  0
    2.1417    1.1208    0.0000 C   0  0  0  0  0  0  0  0  0  0  0  0
   -3.6750   -1.8708    0.0000 C   0  0  0  0  0  0  0  0  0  0  0  0
    2.1417    2.1208    0.0000 C   0  0  0  0  0  0  0  0  0  0  0  0
   -4.3458   -2.6167    0.0000 N   0  0  0  0  0  0  0  0  0  0  0  0
   -1.8958    0.7542    0.0000 C   0  0  0  0  0  0  0  0  0  0  0  0
    3.0083    0.6208    0.0000 C   0  0  0  0  0  0  0  0  0  0  0  0
   -0.3958    1.6208    0.0000 S   0  0  0  0  0  0  0  0  0  0  0  0
   -2.3958    1.6208    0.0000 O   0  0  0  0  0  0  0  0  0  0  0  0
    3.0083    2.6208    0.0000 C   0  0  0  0  0  0  0  0  0  0  0  0
   -0.8958    0.7542    0.0000 C   0  0  0  0  0  0  0  0  0  0  0  0
    3.8750    1.1208    0.0000 C   0  0  0  0  0  0  0  0  0  0  0  0
   -5.8875   -0.9208    0.0000 C   0  0  0  0  0  0  0  0  0  0  0  0
   -5.8875    0.6958    0.0000 C   0  0  0  0  0  0  0  0  0  0  0  0
    3.8750    2.1208    0.0000 C   0  0  0  0  0  0  0  0  0  0  0  0
    4.7375    0.6208    0.0000 O   0  0  0  0  0  0  0  0  0  0  0  0
   -6.4708   -0.1125    0.0000 C   0  0  0  0  0  0  0  0  0  0  0  0
    5.6042    1.1208    0.0000 C   0  0  0  0  0  0  0  0  0  0  0  0
    6.4708    0.6208    0.0000 C   0  0  0  0  0  0  0  0  0  0  0  0
  1  2  2  0
  1  3  1  0
  2  4  1  0
  5 16  1  0
  5  6  2  0
  3  7  1  0
  5  8  1  0
  1  9  1  0
  8 10  1  0
  2 11  1  0
  6 12  1  0
 11 13  3  0
  9 14  1  0
 10 15  2  0
 16 19  1  0
 14 17  2  0
 12 18  2  0
 14 19  1  0
 15 20  1  0
  4 21  1  0
  7 22  1  0
 18 23  1  0
 20 24  1  0
 22 25  1  0
 24 26  1  0
 26 27  1  0
  4  7  2  0
 21 25  1  0
 10 12  1  0
 20 23  2  0
M  END
>  <MOLFORMULA>  (667) 
C19 H17 N3 O2 S3

>  <MOLWEIGHT>  (667) 
4.155603000000000e+002

>  <IDNUMBER>  (667) 
AN-153/I184185

>  <PRICE>  (667) 
EUR 130/10 mg

>  <Similarity score>  (667) 
0.17

$$$$

     RDKit          2D

 30 34  0  0  0  0  0  0  0  0999 V2000
   -0.1625    2.7833    0.0000 C   0  0  0  0  0  0  0  0  0  0  0  0
    0.5250    3.5042    0.0000 C   0  0  0  0  0  0  0  0  0  0  0  0
   -0.0167   -2.7833    0.0000 C   0  0  0  0  0  0  0  0  0  0  0  0
   -0.7792   -3.4333    0.0000 C   0  0  0  0  0  0  0  0  0  0  0  0
   -0.2000   -1.8000    0.0000 N   0  0  0  0  0  0  0  0  0  0  0  0
   -1.0667    3.2125    0.0000 S   0  0  0  0  0  0  0  0  0  0  0  0
    0.0500    4.3792    0.0000 C   0  0  0  0  0  0  0  0  0  0  0  0
    0.8333   -3.3083    0.0000 N   0  0  0  0  0  0  0  0  0  0  0  0
    0.0167    1.8000    0.0000 N   0  0  0  0  0  0  0  0  0  0  0  0
   -1.7208   -3.1000    0.0000 N   0  0  0  0  0  0  0  0  0  0  0  0
   -0.9333    4.2000    0.0000 C   0  0  0  0  0  0  0  0  0  0  0  0
   -1.1417   -1.4667    0.0000 C   0  0  0  0  0  0  0  0  0  0  0  0
   -0.4000   -4.3583    0.0000 C   0  0  0  0  0  0  0  0  0  0  0  0
   -0.7417    1.1500    0.0000 C   0  0  0  0  0  0  0  0  0  0  0  0
    0.6000   -4.2792    0.0000 C   0  0  0  0  0  0  0  0  0  0  0  0
   -1.9042   -2.1167    0.0000 N   0  0  0  0  0  0  0  0  0  0  0  0
    1.5167    3.3750    0.0000 C   0  0  0  0  0  0  0  0  0  0  0  0
   -1.3250   -0.4833    0.0000 S   0  0  0  0  0  0  0  0  0  0  0  0
    1.9000    2.4500    0.0000 N   0  0  0  0  0  0  0  0  0  0  0  0
   -0.5625    0.1667    0.0000 C   0  0  0  0  0  0  0  0  0  0  0  0
   -1.6875    1.4833    0.0000 O   0  0  0  0  0  0  0  0  0  0  0  0
    0.3833    5.3250    0.0000 C   0  0  0  0  0  0  0  0  0  0  0  0
   -1.5833    4.9625    0.0000 C   0  0  0  0  0  0  0  0  0  0  0  0
   -0.8292   -5.2583    0.0000 C   0  0  0  0  0  0  0  0  0  0  0  0
    1.1625   -5.1042    0.0000 C   0  0  0  0  0  0  0  0  0  0  0  0
    0.3792   -0.1708    0.0000 C   0  0  0  0  0  0  0  0  0  0  0  0
   -0.2625    6.0833    0.0000 C   0  0  0  0  0  0  0  0  0  0  0  0
   -1.2458    5.9042    0.0000 C   0  0  0  0  0  0  0  0  0  0  0  0
   -0.2625   -6.0833    0.0000 C   0  0  0  0  0  0  0  0  0  0  0  0
    0.7333   -6.0083    0.0000 C   0  0  0  0  0  0  0  0  0  0  0  0
  1  2  2  0
  3  5  1  0
  4 10  1  0
  5 12  2  0
  1  6  1  0
  2  7  1  0
  3  8  1  0
  1  9  1  0
 10 16  2  0
  6 11  1  0
 12 18  1  0
  4 13  1  0
  9 14  1  0
  8 15  1  0
 12 16  1  0
  2 17  1  0
 18 20  1  0
 17 19  3  0
 14 20  1  0
 14 21  2  0
  7 22  1  0
 11 23  1  0
 13 24  1  0
 15 25  1  0
 20 26  1  0
 22 27  1  0
 23 28  1  0
 24 29  2  0
 25 30  2  0
  7 11  2  0
 27 28  1  0
  3  4  2  0
 13 15  2  0
 29 30  1  0
M  END
>  <MOLFORMULA>  (668) 
C21 H18 N6 O S2

>  <MOLWEIGHT>  (668) 
4.345462000000000e+002

>  <IDNUMBER>  (668) 
AN-153/I240406

>  <PRICE>  (668) 
EUR 130/10 mg

>  <Similarity score>  (668) 
0.17

$$$$

     RDKit          2D

 25 28  0  0  0  0  0  0  0  0999 V2000
    2.7042   -0.3375    0.0000 C   0  0  0  0  0  0  0  0  0  0  0  0
    3.1250   -0.9125    0.0000 C   0  0  0  0  0  0  0  0  0  0  0  0
    2.7042   -1.4792    0.0000 S   0  0  0  0  0  0  0  0  0  0  0  0
    2.0292   -0.5542    0.0000 C   0  0  0  0  0  0  0  0  0  0  0  0
    4.8917   -2.7500    0.0000 N   0  0  0  0  0  0  0  0  0  0  0  0
    2.0292   -1.2667    0.0000 C   0  0  0  0  0  0  0  0  0  0  0  0
    5.2500   -2.1375    0.0000 C   0  0  0  0  0  0  0  0  0  0  0  0
    4.8917   -1.5250    0.0000 C   0  0  0  0  0  0  0  0  0  0  0  0
    5.9542   -2.1375    0.0000 C   0  0  0  0  0  0  0  0  0  0  0  0
    3.8292   -0.9042    0.0000 N   0  0  0  0  0  0  0  0  0  0  0  0
    2.9250    0.3375    0.0000 C   0  0  0  0  0  0  0  0  0  0  0  0
    6.3125   -1.5250    0.0000 C   0  0  0  0  0  0  0  0  0  0  0  0
    4.1875   -1.5250    0.0000 C   0  0  0  0  0  0  0  0  0  0  0  0
    5.9542   -0.9042    0.0000 C   0  0  0  0  0  0  0  0  0  0  0  0
    3.1417    1.0083    0.0000 N   0  0  0  0  0  0  0  0  0  0  0  0
    5.2500   -0.9042    0.0000 C   0  0  0  0  0  0  0  0  0  0  0  0
    4.1875   -2.7500    0.0000 O   0  0  0  0  0  0  0  0  0  0  0  0
    7.0042   -1.3750    0.0000 O   0  0  0  0  0  0  0  0  0  0  0  0
    6.4292   -0.3792    0.0000 O   0  0  0  0  0  0  0  0  0  0  0  0
    5.2500   -3.3625    0.0000 O   0  0  0  0  0  0  0  0  0  0  0  0
    7.0792   -0.6667    0.0000 C   0  0  0  0  0  0  0  0  0  0  0  0
    1.4167   -0.2000    0.0000 C   0  0  0  0  0  0  0  0  0  0  0  0
    1.4167   -1.6250    0.0000 C   0  0  0  0  0  0  0  0  0  0  0  0
    0.8042   -0.5542    0.0000 C   0  0  0  0  0  0  0  0  0  0  0  0
    0.8042   -1.2667    0.0000 C   0  0  0  0  0  0  0  0  0  0  0  0
  1  2  2  0
  2  3  1  0
  1  4  1  0
  5  7  1  0
  4  6  2  0
  7  8  1  0
  8 13  1  0
  7  9  2  0
  2 10  1  0
  1 11  1  0
 12 14  2  0
 10 13  2  0
 14 16  1  0
 11 15  3  0
  8 16  2  0
  5 17  1  0
 12 18  1  0
 14 19  1  0
  5 20  2  0
 19 21  1  0
  4 22  1  0
  6 23  1  0
 22 24  1  0
 24 25  1  0
  3  6  1  0
 23 25  1  0
  9 12  1  0
 18 21  1  0
M  CHG  2   5   1  17  -1
M  END
>  <MOLFORMULA>  (669) 
C17 H13 N3 O4 S

>  <MOLWEIGHT>  (669) 
3.553727000000000e+002

>  <IDNUMBER>  (669) 
AM-879/PD00801

>  <PRICE>  (669) 
EUR 55.00/10 mg

>  <Similarity score>  (669) 
0.17

$$$$

     RDKit          2D

 45 49  0  0  0  0  0  0  0  0999 V2000
   -1.1125    0.3000    0.0000 C   0  0  0  0  0  0  0  0  0  0  0  0
   -2.3333    0.8458    0.0000 C   0  0  0  0  0  0  0  0  0  0  0  0
   -1.2500   -1.0375    0.0000 S   0  0  0  0  0  0  0  0  0  0  0  0
   -3.2333   -0.1542    0.0000 C   0  0  0  0  0  0  0  0  0  0  0  0
    0.0875    0.9625    0.0000 N   0  0  0  0  0  0  0  0  0  0  0  0
   -2.5708   -1.3167    0.0000 C   0  0  0  0  0  0  0  0  0  0  0  0
    2.4042    0.9625    0.0000 C   0  0  0  0  0  0  0  0  0  0  0  0
    1.2500    0.3000    0.0000 C   0  0  0  0  0  0  0  0  0  0  0  0
    9.5375    2.9708    0.0000 C   0  0  0  0  0  0  0  0  0  0  0  0
   10.7625   -3.0542    0.0000 C   0  0  0  0  0  0  0  0  0  0  0  0
    8.3667    0.9708    0.0000 C   0  0  0  0  0  0  0  0  0  0  0  0
   -2.6000    2.1500    0.0000 C   0  0  0  0  0  0  0  0  0  0  0  0
    8.3667    2.2958    0.0000 O   0  0  0  0  0  0  0  0  0  0  0  0
   -2.8708    3.4625    0.0000 N   0  0  0  0  0  0  0  0  0  0  0  0
    7.2042    0.3000    0.0000 C   0  0  0  0  0  0  0  0  0  0  0  0
    9.5542    0.2708    0.0000 C   0  0  0  0  0  0  0  0  0  0  0  0
   10.7292   -1.7167    0.0000 O   0  0  0  0  0  0  0  0  0  0  0  0
    4.9042    0.3000    0.0000 N   0  0  0  0  0  0  0  0  0  0  0  0
   10.6875    2.2958    0.0000 C   0  0  0  0  0  0  0  0  0  0  0  0
    9.6125   -3.7542    0.0000 C   0  0  0  0  0  0  0  0  0  0  0  0
    3.5667    0.3000    0.0000 N   0  0  0  0  0  0  0  0  0  0  0  0
    9.5542   -1.0542    0.0000 C   0  0  0  0  0  0  0  0  0  0  0  0
    2.4042    2.2958    0.0000 O   0  0  0  0  0  0  0  0  0  0  0  0
    1.2500   -1.0292    0.0000 O   0  0  0  0  0  0  0  0  0  0  0  0
    9.5375    4.3042    0.0000 O   0  0  0  0  0  0  0  0  0  0  0  0
   11.9542   -3.6917    0.0000 O   0  0  0  0  0  0  0  0  0  0  0  0
    6.0417    0.9833    0.0000 C   0  0  0  0  0  0  0  0  0  0  0  0
    7.2042   -1.0542    0.0000 C   0  0  0  0  0  0  0  0  0  0  0  0
    8.4292   -3.0917    0.0000 C   0  0  0  0  0  0  0  0  0  0  0  0
    9.6250   -5.0917    0.0000 C   0  0  0  0  0  0  0  0  0  0  0  0
   11.8917    2.9458    0.0000 C   0  0  0  0  0  0  0  0  0  0  0  0
   10.6875    0.9708    0.0000 C   0  0  0  0  0  0  0  0  0  0  0  0
    8.3667   -1.7417    0.0000 C   0  0  0  0  0  0  0  0  0  0  0  0
    7.2917   -5.1542    0.0000 C   0  0  0  0  0  0  0  0  0  0  0  0
   13.0167    0.8958    0.0000 C   0  0  0  0  0  0  0  0  0  0  0  0
   -4.5958   -0.1542    0.0000 C   0  0  0  0  0  0  0  0  0  0  0  0
   11.8375    0.2708    0.0000 C   0  0  0  0  0  0  0  0  0  0  0  0
    8.4625   -5.8167    0.0000 C   0  0  0  0  0  0  0  0  0  0  0  0
    7.2500   -3.8417    0.0000 C   0  0  0  0  0  0  0  0  0  0  0  0
   13.0292    2.2708    0.0000 C   0  0  0  0  0  0  0  0  0  0  0  0
   -3.2333   -2.4792    0.0000 C   0  0  0  0  0  0  0  0  0  0  0  0
    6.1292   -5.8167    0.0000 Cl  0  0  0  0  0  0  0  0  0  0  0  0
   14.1250    0.1833    0.0000 Cl  0  0  0  0  0  0  0  0  0  0  0  0
   -5.2500   -1.3167    0.0000 C   0  0  0  0  0  0  0  0  0  0  0  0
   -4.5958   -2.4792    0.0000 C   0  0  0  0  0  0  0  0  0  0  0  0
  1  2  2  0
  1  3  1  0
  2  4  1  0
  1  5  1  0
  3  6  1  0
  7  8  1  0
  5  8  1  0
  9 13  1  0
 10 17  1  0
 11 15  2  0
  2 12  1  0
 11 13  1  0
 12 14  3  0
 15 27  1  0
 11 16  1  0
 17 22  1  0
 18 21  1  0
  9 19  1  0
 10 20  1  0
  7 21  1  0
 22 33  1  0
  7 23  2  0
  8 24  2  0
  9 25  2  0
 10 26  2  0
 18 27  2  0
 15 28  1  0
 20 29  1  0
 20 30  2  0
 19 31  2  0
 19 32  1  0
 28 33  2  0
 34 38  2  0
 35 37  1  0
  4 36  1  0
 32 37  2  0
 30 38  1  0
 29 39  2  0
 31 40  1  0
  6 41  1  0
 34 42  1  0
 35 43  1  0
 36 44  1  0
 41 45  1  0
  4  6  2  0
 44 45  1  0
 16 22  2  0
 35 40  2  0
 34 39  1  0
M  END
>  <MOLFORMULA>  (670) 
C32 H22 Cl2 N4 O6 S

>  <MOLWEIGHT>  (670) 
6.615198000000000e+002

>  <IDNUMBER>  (670) 
AT-225/NB68781

>  <PRICE>  (670) 
EUR 140/10 mg

>  <Similarity score>  (670) 
0.17

$$$$

     RDKit          2D

 32 35  0  0  0  0  0  0  0  0999 V2000
   -0.8542    4.0542    0.0000 C   0  0  0  0  0  0  0  0  0  0  0  0
   -0.2667    4.8625    0.0000 C   0  0  0  0  0  0  0  0  0  0  0  0
   -1.8042    4.3625    0.0000 S   0  0  0  0  0  0  0  0  0  0  0  0
   -1.8542   -1.0917    0.0000 N   0  0  0  0  0  0  0  0  0  0  0  0
   -0.8542    5.6708    0.0000 C   0  0  0  0  0  0  0  0  0  0  0  0
   -1.2667   -1.9000    0.0000 C   0  0  0  0  0  0  0  0  0  0  0  0
   -1.8042    5.3625    0.0000 C   0  0  0  0  0  0  0  0  0  0  0  0
   -1.2667   -0.2792    0.0000 C   0  0  0  0  0  0  0  0  0  0  0  0
   -0.3125   -1.5917    0.0000 N   0  0  0  0  0  0  0  0  0  0  0  0
   -0.3125   -0.5917    0.0000 N   0  0  0  0  0  0  0  0  0  0  0  0
   -0.5458    3.1083    0.0000 N   0  0  0  0  0  0  0  0  0  0  0  0
    0.7333    4.8625    0.0000 C   0  0  0  0  0  0  0  0  0  0  0  0
   -0.5458   -5.2875    0.0000 C   0  0  0  0  0  0  0  0  0  0  0  0
    1.2333    5.7292    0.0000 N   0  0  0  0  0  0  0  0  0  0  0  0
   -1.2125    2.3667    0.0000 C   0  0  0  0  0  0  0  0  0  0  0  0
   -0.9042   -3.5917    0.0000 N   0  0  0  0  0  0  0  0  0  0  0  0
   -1.5750   -2.8500    0.0000 N   0  0  0  0  0  0  0  0  0  0  0  0
   -1.5750    0.6708    0.0000 S   0  0  0  0  0  0  0  0  0  0  0  0
   -0.8542   -6.2375    0.0000 C   0  0  0  0  0  0  0  0  0  0  0  0
    0.4333   -5.0792    0.0000 C   0  0  0  0  0  0  0  0  0  0  0  0
   -1.2125   -4.5458    0.0000 C   0  0  0  0  0  0  0  0  0  0  0  0
   -2.1917    2.5708    0.0000 O   0  0  0  0  0  0  0  0  0  0  0  0
   -0.1833   -6.9833    0.0000 C   0  0  0  0  0  0  0  0  0  0  0  0
   -0.9042    1.4125    0.0000 C   0  0  0  0  0  0  0  0  0  0  0  0
    1.1000   -5.8250    0.0000 C   0  0  0  0  0  0  0  0  0  0  0  0
   -0.8542    6.6708    0.0000 C   0  0  0  0  0  0  0  0  0  0  0  0
   -2.3917    6.1708    0.0000 C   0  0  0  0  0  0  0  0  0  0  0  0
    0.7917   -6.7750    0.0000 C   0  0  0  0  0  0  0  0  0  0  0  0
   -1.8333   -6.4458    0.0000 O   0  0  0  0  0  0  0  0  0  0  0  0
    2.0792   -5.6167    0.0000 O   0  0  0  0  0  0  0  0  0  0  0  0
   -1.8083    6.9833    0.0000 C   0  0  0  0  0  0  0  0  0  0  0  0
    2.3875   -4.6625    0.0000 C   0  0  0  0  0  0  0  0  0  0  0  0
  1  2  2  0
  1  3  1  0
  4  8  1  0
  2  5  1  0
  4  6  1  0
  3  7  1  0
  8 18  1  0
  9 10  1  0
  8 10  2  0
  1 11  1  0
  2 12  1  0
 13 21  1  0
 12 14  3  0
 11 15  1  0
 16 17  1  0
  6 17  1  0
 18 24  1  0
 13 19  1  0
 13 20  2  0
 16 21  2  0
 15 22  2  0
 19 23  2  0
 15 24  1  0
 20 25  1  0
  5 26  1  0
  7 27  1  0
 25 28  2  0
 19 29  1  0
 25 30  1  0
 27 31  1  0
 30 32  1  0
  5  7  2  0
 26 31  1  0
  6  9  2  0
 23 28  1  0
M  END
>  <MOLFORMULA>  (671) 
C20 H19 N7 O3 S2

>  <MOLWEIGHT>  (671) 
4.695481000000000e+002

>  <IDNUMBER>  (671) 
AN-153/I181444

>  <PRICE>  (671) 
EUR 130/10 mg

>  <Similarity score>  (671) 
0.17

$$$$

     RDKit          2D

 28 31  0  0  0  0  0  0  0  0999 V2000
    1.4625    2.5500    0.0000 C   0  0  0  0  0  0  0  0  0  0  0  0
    2.4542    2.6542    0.0000 C   0  0  0  0  0  0  0  0  0  0  0  0
    1.0542    3.4625    0.0000 S   0  0  0  0  0  0  0  0  0  0  0  0
    2.6625    3.6333    0.0000 C   0  0  0  0  0  0  0  0  0  0  0  0
   -2.0375   -0.0458    0.0000 C   0  0  0  0  0  0  0  0  0  0  0  0
   -3.0333   -0.1500    0.0000 N   0  0  0  0  0  0  0  0  0  0  0  0
    1.7958    4.1292    0.0000 C   0  0  0  0  0  0  0  0  0  0  0  0
   -1.6333   -0.9625    0.0000 S   0  0  0  0  0  0  0  0  0  0  0  0
    0.9625    1.6833    0.0000 N   0  0  0  0  0  0  0  0  0  0  0  0
   -2.3750   -1.6292    0.0000 C   0  0  0  0  0  0  0  0  0  0  0  0
    3.1250    1.9125    0.0000 C   0  0  0  0  0  0  0  0  0  0  0  0
   -3.2417   -1.1292    0.0000 C   0  0  0  0  0  0  0  0  0  0  0  0
    4.1042    2.1208    0.0000 N   0  0  0  0  0  0  0  0  0  0  0  0
   -0.0375    1.6833    0.0000 C   0  0  0  0  0  0  0  0  0  0  0  0
   -2.3750   -2.6292    0.0000 C   0  0  0  0  0  0  0  0  0  0  0  0
   -1.5375    0.8208    0.0000 S   0  0  0  0  0  0  0  0  0  0  0  0
   -0.5375    2.5500    0.0000 O   0  0  0  0  0  0  0  0  0  0  0  0
   -4.1083   -1.6292    0.0000 C   0  0  0  0  0  0  0  0  0  0  0  0
   -0.5375    0.8208    0.0000 C   0  0  0  0  0  0  0  0  0  0  0  0
   -3.2417   -3.1292    0.0000 C   0  0  0  0  0  0  0  0  0  0  0  0
   -4.1083   -2.6292    0.0000 C   0  0  0  0  0  0  0  0  0  0  0  0
    3.5292    4.1292    0.0000 C   0  0  0  0  0  0  0  0  0  0  0  0
    1.7958    5.1292    0.0000 C   0  0  0  0  0  0  0  0  0  0  0  0
   -3.2417   -4.1292    0.0000 O   0  0  0  0  0  0  0  0  0  0  0  0
   -4.1083   -4.6292    0.0000 C   0  0  0  0  0  0  0  0  0  0  0  0
    3.5292    5.1292    0.0000 C   0  0  0  0  0  0  0  0  0  0  0  0
    2.6625    5.6292    0.0000 C   0  0  0  0  0  0  0  0  0  0  0  0
   -4.1083   -5.6292    0.0000 C   0  0  0  0  0  0  0  0  0  0  0  0
  1  2  2  0
  1  3  1  0
  2  4  1  0
  5 16  1  0
  5  6  2  0
  3  7  1  0
  5  8  1  0
  1  9  1  0
  8 10  1  0
  2 11  1  0
  6 12  1  0
 11 13  3  0
  9 14  1  0
 10 15  1  0
 16 19  1  0
 14 17  2  0
 12 18  1  0
 14 19  1  0
 15 20  2  0
 18 21  2  0
  4 22  1  0
  7 23  1  0
 20 24  1  0
 24 25  1  0
 22 26  1  0
 23 27  1  0
 25 28  1  0
  4  7  2  0
 26 27  1  0
 10 12  2  0
 20 21  1  0
M  END
>  <MOLFORMULA>  (672) 
C20 H19 N3 O2 S3

>  <MOLWEIGHT>  (672) 
4.295871000000000e+002

>  <IDNUMBER>  (672) 
AN-153/I119885

>  <PRICE>  (672) 
EUR 130/10 mg

>  <Similarity score>  (672) 
0.17

$$$$

     RDKit          2D

 23 26  0  0  0  0  0  0  0  0999 V2000
    4.2042   -1.4917    0.0000 C   0  0  0  0  0  0  0  0  0  0  0  0
    4.8667   -1.9875    0.0000 C   0  0  0  0  0  0  0  0  0  0  0  0
    5.5542   -1.5167    0.0000 S   0  0  0  0  0  0  0  0  0  0  0  0
    4.4667   -0.7125    0.0000 C   0  0  0  0  0  0  0  0  0  0  0  0
    5.3042   -0.7292    0.0000 C   0  0  0  0  0  0  0  0  0  0  0  0
    4.8542   -2.8167    0.0000 N   0  0  0  0  0  0  0  0  0  0  0  0
    4.1125   -4.0417    0.0000 C   0  0  0  0  0  0  0  0  0  0  0  0
    3.4167   -1.7292    0.0000 C   0  0  0  0  0  0  0  0  0  0  0  0
    3.3750   -5.2625    0.0000 C   0  0  0  0  0  0  0  0  0  0  0  0
    4.0792   -5.6875    0.0000 C   0  0  0  0  0  0  0  0  0  0  0  0
    3.3917   -4.4375    0.0000 C   0  0  0  0  0  0  0  0  0  0  0  0
    4.8042   -5.2875    0.0000 C   0  0  0  0  0  0  0  0  0  0  0  0
    2.6167   -1.9417    0.0000 N   0  0  0  0  0  0  0  0  0  0  0  0
    4.1292   -3.2167    0.0000 C   0  0  0  0  0  0  0  0  0  0  0  0
    4.8167   -4.4625    0.0000 C   0  0  0  0  0  0  0  0  0  0  0  0
    4.2417   -6.4750    0.0000 O   0  0  0  0  0  0  0  0  0  0  0  0
    5.4000   -5.8375    0.0000 O   0  0  0  0  0  0  0  0  0  0  0  0
    5.0500   -6.5667    0.0000 C   0  0  0  0  0  0  0  0  0  0  0  0
    2.6875   -4.0042    0.0000 Br  0  0  0  0  0  0  0  0  0  0  0  0
    4.0625    0.0208    0.0000 C   0  0  0  0  0  0  0  0  0  0  0  0
    5.7417   -0.0042    0.0000 C   0  0  0  0  0  0  0  0  0  0  0  0
    4.4875    0.7375    0.0000 C   0  0  0  0  0  0  0  0  0  0  0  0
    5.3292    0.7250    0.0000 C   0  0  0  0  0  0  0  0  0  0  0  0
  1  2  2  0
  2  3  1  0
  1  4  1  0
  4  5  2  0
  2  6  1  0
  7 14  1  0
  1  8  1  0
  9 11  1  0
 10 12  1  0
  7 11  2  0
 12 15  2  0
  8 13  3  0
  6 14  2  0
  7 15  1  0
 10 16  1  0
 12 17  1  0
 17 18  1  0
 11 19  1  0
  4 20  1  0
  5 21  1  0
 20 22  1  0
 22 23  1  0
  3  5  1  0
 21 23  1  0
  9 10  2  0
 16 18  1  0
M  END
>  <MOLFORMULA>  (673) 
C17 H13 Br N2 O2 S

>  <MOLWEIGHT>  (673) 
3.892717000000000e+002

>  <IDNUMBER>  (673) 
AT-139/J187536

>  <PRICE>  (673) 
EUR 125.00/10 mg

>  <Similarity score>  (673) 
0.17

$$$$

     RDKit          2D

 24 26  0  0  0  0  0  0  0  0999 V2000
    0.2458    1.8375    0.0000 C   0  0  0  0  0  0  0  0  0  0  0  0
   -0.2667    2.7000    0.0000 C   0  0  0  0  0  0  0  0  0  0  0  0
    1.2208    2.0625    0.0000 S   0  0  0  0  0  0  0  0  0  0  0  0
    0.3917    3.4500    0.0000 C   0  0  0  0  0  0  0  0  0  0  0  0
    1.3083    3.0583    0.0000 C   0  0  0  0  0  0  0  0  0  0  0  0
   -0.1500    0.9208    0.0000 N   0  0  0  0  0  0  0  0  0  0  0  0
   -1.2625    2.7875    0.0000 C   0  0  0  0  0  0  0  0  0  0  0  0
   -1.6833    3.6958    0.0000 N   0  0  0  0  0  0  0  0  0  0  0  0
    0.4500    0.1208    0.0000 C   0  0  0  0  0  0  0  0  0  0  0  0
    0.2667   -2.5208    0.0000 C   0  0  0  0  0  0  0  0  0  0  0  0
    1.4458    0.2375    0.0000 O   0  0  0  0  0  0  0  0  0  0  0  0
   -1.1208   -3.5583    0.0000 C   0  0  0  0  0  0  0  0  0  0  0  0
    0.4708   -4.2375    0.0000 C   0  0  0  0  0  0  0  0  0  0  0  0
    0.6583   -1.6000    0.0000 O   0  0  0  0  0  0  0  0  0  0  0  0
    0.8667   -3.3208    0.0000 C   0  0  0  0  0  0  0  0  0  0  0  0
   -0.7292   -2.6375    0.0000 C   0  0  0  0  0  0  0  0  0  0  0  0
   -0.5208   -4.3583    0.0000 C   0  0  0  0  0  0  0  0  0  0  0  0
    0.0583   -0.8000    0.0000 C   0  0  0  0  0  0  0  0  0  0  0  0
    0.2708    4.4417    0.0000 C   0  0  0  0  0  0  0  0  0  0  0  0
    2.1083    3.6583    0.0000 C   0  0  0  0  0  0  0  0  0  0  0  0
    1.0708   -5.0375    0.0000 C   0  0  0  0  0  0  0  0  0  0  0  0
   -2.1125   -3.6792    0.0000 C   0  0  0  0  0  0  0  0  0  0  0  0
    1.0708    5.0375    0.0000 C   0  0  0  0  0  0  0  0  0  0  0  0
    1.9917    4.6458    0.0000 C   0  0  0  0  0  0  0  0  0  0  0  0
  1  2  2  0
  1  3  1  0
  2  4  1  0
  3  5  1  0
  1  6  1  0
  2  7  1  0
  7  8  3  0
  6  9  1  0
 10 14  1  0
  9 11  2  0
 12 16  2  0
 13 15  1  0
 14 18  1  0
 10 15  2  0
 10 16  1  0
 12 17  1  0
  9 18  1  0
  4 19  1  0
  5 20  1  0
 13 21  1  0
 12 22  1  0
 19 23  1  0
 20 24  1  0
  4  5  2  0
 23 24  1  0
 13 17  2  0
M  END
>  <MOLFORMULA>  (674) 
C19 H20 N2 O2 S

>  <MOLWEIGHT>  (674) 
3.404450000000000e+002

>  <IDNUMBER>  (674) 
AN-153/I224047

>  <PRICE>  (674) 
EUR 130/10 mg

>  <Similarity score>  (674) 
0.17

$$$$

     RDKit          2D

 25 28  0  0  0  0  0  0  0  0999 V2000
    2.7000   -0.4708    0.0000 C   0  0  0  0  0  0  0  0  0  0  0  0
    3.7000   -0.5750    0.0000 C   0  0  0  0  0  0  0  0  0  0  0  0
    2.3000   -1.3833    0.0000 S   0  0  0  0  0  0  0  0  0  0  0  0
    3.9083   -1.5500    0.0000 C   0  0  0  0  0  0  0  0  0  0  0  0
   -2.3958    2.9417    0.0000 N   0  0  0  0  0  0  0  0  0  0  0  0
    3.0458   -2.0542    0.0000 C   0  0  0  0  0  0  0  0  0  0  0  0
   -1.8125    2.1292    0.0000 C   0  0  0  0  0  0  0  0  0  0  0  0
    2.2000    0.3958    0.0000 N   0  0  0  0  0  0  0  0  0  0  0  0
   -2.3958    1.3250    0.0000 O   0  0  0  0  0  0  0  0  0  0  0  0
    4.3667    0.1708    0.0000 C   0  0  0  0  0  0  0  0  0  0  0  0
   -3.3458    2.6292    0.0000 C   0  0  0  0  0  0  0  0  0  0  0  0
    1.1958    0.3958    0.0000 C   0  0  0  0  0  0  0  0  0  0  0  0
    5.0750    0.8833    0.0000 N   0  0  0  0  0  0  0  0  0  0  0  0
   -3.3458    1.6333    0.0000 C   0  0  0  0  0  0  0  0  0  0  0  0
    0.6958    1.2625    0.0000 C   0  0  0  0  0  0  0  0  0  0  0  0
   -0.8125    2.1208    0.0000 S   0  0  0  0  0  0  0  0  0  0  0  0
    0.6917   -0.4708    0.0000 O   0  0  0  0  0  0  0  0  0  0  0  0
   -0.3125    1.2625    0.0000 C   0  0  0  0  0  0  0  0  0  0  0  0
    4.6500   -2.2167    0.0000 C   0  0  0  0  0  0  0  0  0  0  0  0
    3.2583   -3.0292    0.0000 C   0  0  0  0  0  0  0  0  0  0  0  0
    4.2500   -3.1292    0.0000 C   0  0  0  0  0  0  0  0  0  0  0  0
   -4.2083    3.1333    0.0000 C   0  0  0  0  0  0  0  0  0  0  0  0
   -4.2083    1.1333    0.0000 C   0  0  0  0  0  0  0  0  0  0  0  0
   -5.0750    1.6292    0.0000 C   0  0  0  0  0  0  0  0  0  0  0  0
   -5.0792    2.6333    0.0000 C   0  0  0  0  0  0  0  0  0  0  0  0
  1  2  2  0
  1  3  1  0
  2  4  1  0
  5  7  2  0
  3  6  1  0
  7 16  1  0
  1  8  1  0
  7  9  1  0
  2 10  1  0
  5 11  1  0
  8 12  1  0
 10 13  3  0
  9 14  1  0
 12 15  1  0
 16 18  1  0
 12 17  2  0
 15 18  1  0
  4 19  1  0
  6 20  1  0
 20 21  1  0
 11 22  1  0
 14 23  1  0
 23 24  2  0
 22 25  2  0
  4  6  2  0
 19 21  1  0
 11 14  2  0
 24 25  1  0
M  END
>  <MOLFORMULA>  (675) 
C18 H15 N3 O2 S2

>  <MOLWEIGHT>  (675) 
3.694675000000000e+002

>  <IDNUMBER>  (675) 
AN-153/NB25396

>  <PRICE>  (675) 
EUR 130/10 mg

>  <Similarity score>  (675) 
0.17

$$$$

     RDKit          2D

 30 33  0  0  0  0  0  0  0  0999 V2000
    4.3042    0.5958    0.0000 C   0  0  0  0  0  0  0  0  0  0  0  0
    4.7292    0.2833    0.0000 C   0  0  0  0  0  0  0  0  0  0  0  0
    4.4917    1.0833    0.0000 S   0  0  0  0  0  0  0  0  0  0  0  0
    5.1667    0.5875    0.0000 C   0  0  0  0  0  0  0  0  0  0  0  0
    2.4292    0.9833    0.0000 N   0  0  0  0  0  0  0  0  0  0  0  0
    5.0250    1.0833    0.0000 C   0  0  0  0  0  0  0  0  0  0  0  0
    2.6250    1.4750    0.0000 C   0  0  0  0  0  0  0  0  0  0  0  0
    2.1917    1.7833    0.0000 N   0  0  0  0  0  0  0  0  0  0  0  0
    1.7542    1.4833    0.0000 N   0  0  0  0  0  0  0  0  0  0  0  0
    3.7917    0.4333    0.0000 N   0  0  0  0  0  0  0  0  0  0  0  0
    1.9042    0.9958    0.0000 C   0  0  0  0  0  0  0  0  0  0  0  0
    4.7125   -0.2167    0.0000 C   0  0  0  0  0  0  0  0  0  0  0  0
    4.7292   -0.7417    0.0000 N   0  0  0  0  0  0  0  0  0  0  0  0
    3.4042    0.7833    0.0000 C   0  0  0  0  0  0  0  0  0  0  0  0
    3.1375    1.6333    0.0000 S   0  0  0  0  0  0  0  0  0  0  0  0
    2.8792    0.6250    0.0000 O   0  0  0  0  0  0  0  0  0  0  0  0
    1.5667    0.5833    0.0000 C   0  0  0  0  0  0  0  0  0  0  0  0
    3.5250    1.2833    0.0000 C   0  0  0  0  0  0  0  0  0  0  0  0
    1.0375    0.6458    0.0000 C   0  0  0  0  0  0  0  0  0  0  0  0
   -0.0250    0.7583    0.0000 C   0  0  0  0  0  0  0  0  0  0  0  0
    5.6917    0.4750    0.0000 C   0  0  0  0  0  0  0  0  0  0  0  0
    5.4000    1.4583    0.0000 C   0  0  0  0  0  0  0  0  0  0  0  0
    0.7042    0.2333    0.0000 C   0  0  0  0  0  0  0  0  0  0  0  0
    0.8417    1.1125    0.0000 C   0  0  0  0  0  0  0  0  0  0  0  0
    0.1792    0.2875    0.0000 C   0  0  0  0  0  0  0  0  0  0  0  0
    0.3125    1.1708    0.0000 C   0  0  0  0  0  0  0  0  0  0  0  0
   -0.5458    0.8208    0.0000 O   0  0  0  0  0  0  0  0  0  0  0  0
   -0.8833    0.4083    0.0000 C   0  0  0  0  0  0  0  0  0  0  0  0
    6.0667    0.8583    0.0000 C   0  0  0  0  0  0  0  0  0  0  0  0
    5.9167    1.3500    0.0000 C   0  0  0  0  0  0  0  0  0  0  0  0
  1  2  2  0
  1  3  1  0
  2  4  1  0
  5  7  1  0
  3  6  1  0
  7 15  1  0
  7  8  2  0
  8  9  1  0
  1 10  1  0
  5 11  1  0
  2 12  1  0
 12 13  3  0
 10 14  1  0
 15 18  1  0
 14 16  2  0
 11 17  1  0
 14 18  1  0
 17 19  1  0
 20 26  2  0
  4 21  1  0
  6 22  1  0
 19 23  1  0
 19 24  2  0
 23 25  2  0
 24 26  1  0
 20 27  1  0
 27 28  1  0
 21 29  1  0
 22 30  1  0
  4  6  2  0
 29 30  1  0
  9 11  2  0
 20 25  1  0
M  END
>  <MOLFORMULA>  (676) 
C21 H21 N5 O2 S2

>  <MOLWEIGHT>  (676) 
4.395619000000000e+002

>  <IDNUMBER>  (676) 
AM-879/PD04591

>  <PRICE>  (676) 
EUR 55.00/10 mg

>  <Similarity score>  (676) 
0.17

$$$$

     RDKit          2D

 31 34  0  0  0  0  0  0  0  0999 V2000
   -0.7625    0.5958    0.0000 C   0  0  0  0  0  0  0  0  0  0  0  0
   -0.0917   -0.1458    0.0000 N   0  0  0  0  0  0  0  0  0  0  0  0
   -1.7583    0.4917    0.0000 C   0  0  0  0  0  0  0  0  0  0  0  0
   -0.5542    1.5750    0.0000 S   0  0  0  0  0  0  0  0  0  0  0  0
   -2.1625    1.4042    0.0000 C   0  0  0  0  0  0  0  0  0  0  0  0
   -0.4042   -1.0958    0.0000 C   0  0  0  0  0  0  0  0  0  0  0  0
    0.8833    0.0625    0.0000 C   0  0  0  0  0  0  0  0  0  0  0  0
   -1.4208    2.0750    0.0000 C   0  0  0  0  0  0  0  0  0  0  0  0
   -2.2583   -0.3750    0.0000 C   0  0  0  0  0  0  0  0  0  0  0  0
   -3.2583   -0.3750    0.0000 N   0  0  0  0  0  0  0  0  0  0  0  0
    1.1958    1.0125    0.0000 C   0  0  0  0  0  0  0  0  0  0  0  0
    0.2667   -1.8417    0.0000 C   0  0  0  0  0  0  0  0  0  0  0  0
    1.5542   -0.6833    0.0000 O   0  0  0  0  0  0  0  0  0  0  0  0
   -1.3792   -1.3042    0.0000 O   0  0  0  0  0  0  0  0  0  0  0  0
    0.5250    1.7542    0.0000 C   0  0  0  0  0  0  0  0  0  0  0  0
    1.2458   -1.6333    0.0000 C   0  0  0  0  0  0  0  0  0  0  0  0
   -0.0417   -2.7917    0.0000 C   0  0  0  0  0  0  0  0  0  0  0  0
    2.1708    1.2208    0.0000 C   0  0  0  0  0  0  0  0  0  0  0  0
   -3.0292    1.9042    0.0000 C   0  0  0  0  0  0  0  0  0  0  0  0
   -1.8250    2.9875    0.0000 C   0  0  0  0  0  0  0  0  0  0  0  0
    1.9125   -2.3750    0.0000 C   0  0  0  0  0  0  0  0  0  0  0  0
    0.6292   -3.5333    0.0000 C   0  0  0  0  0  0  0  0  0  0  0  0
    2.4833    2.1708    0.0000 C   0  0  0  0  0  0  0  0  0  0  0  0
    0.8333    2.7083    0.0000 C   0  0  0  0  0  0  0  0  0  0  0  0
    1.8125    2.9167    0.0000 C   0  0  0  0  0  0  0  0  0  0  0  0
    1.6042   -3.3250    0.0000 C   0  0  0  0  0  0  0  0  0  0  0  0
   -2.8208    2.8833    0.0000 C   0  0  0  0  0  0  0  0  0  0  0  0
    2.2750   -4.0708    0.0000 C   0  0  0  0  0  0  0  0  0  0  0  0
    2.1208    3.8667    0.0000 C   0  0  0  0  0  0  0  0  0  0  0  0
    3.2542   -3.8625    0.0000 C   0  0  0  0  0  0  0  0  0  0  0  0
    3.1000    4.0708    0.0000 C   0  0  0  0  0  0  0  0  0  0  0  0
  1  2  1  0
  1  3  2  0
  1  4  1  0
  3  5  1  0
  2  6  1  0
  2  7  1  0
  4  8  1  0
  3  9  1  0
  9 10  3  0
  7 11  1  0
  6 12  1  0
  7 13  2  0
  6 14  2  0
 11 15  2  0
 12 16  2  0
 12 17  1  0
 11 18  1  0
  5 19  1  0
  8 20  1  0
 16 21  1  0
 17 22  2  0
 18 23  2  0
 15 24  1  0
 23 25  1  0
 22 26  1  0
 20 27  1  0
 26 28  1  0
 25 29  1  0
 28 30  1  0
 29 31  1  0
  5  8  2  0
 19 27  1  0
 24 25  2  0
 21 26  2  0
M  END
>  <MOLFORMULA>  (677) 
C26 H24 N2 O2 S

>  <MOLWEIGHT>  (677) 
4.285536000000000e+002

>  <IDNUMBER>  (677) 
AN-153/I263452

>  <PRICE>  (677) 
EUR 130/10 mg

>  <Similarity score>  (677) 
0.17

$$$$

     RDKit          2D

 32 36  0  0  0  0  0  0  0  0999 V2000
    6.3667   -3.6417    0.0000 C   0  0  0  0  0  0  0  0  0  0  0  0
    7.1875   -3.7292    0.0000 C   0  0  0  0  0  0  0  0  0  0  0  0
    2.8792   -1.0417    0.0000 O   0  0  0  0  0  0  0  0  0  0  0  0
    6.0375   -4.4125    0.0000 S   0  0  0  0  0  0  0  0  0  0  0  0
    3.6875   -1.2167    0.0000 C   0  0  0  0  0  0  0  0  0  0  0  0
    7.3667   -4.5375    0.0000 C   0  0  0  0  0  0  0  0  0  0  0  0
    2.7917   -0.2292    0.0000 C   0  0  0  0  0  0  0  0  0  0  0  0
    3.5417    0.1000    0.0000 N   0  0  0  0  0  0  0  0  0  0  0  0
    6.0167   -2.8917    0.0000 N   0  0  0  0  0  0  0  0  0  0  0  0
    6.6625   -4.9625    0.0000 C   0  0  0  0  0  0  0  0  0  0  0  0
    4.0917   -0.5167    0.0000 N   0  0  0  0  0  0  0  0  0  0  0  0
    5.1917   -2.8167    0.0000 C   0  0  0  0  0  0  0  0  0  0  0  0
    7.7375   -3.1125    0.0000 C   0  0  0  0  0  0  0  0  0  0  0  0
    4.0292   -1.9875    0.0000 S   0  0  0  0  0  0  0  0  0  0  0  0
    2.0375    0.1000    0.0000 C   0  0  0  0  0  0  0  0  0  0  0  0
    8.2792   -2.4917    0.0000 N   0  0  0  0  0  0  0  0  0  0  0  0
    1.1917    1.2583    0.0000 C   0  0  0  0  0  0  0  0  0  0  0  0
    1.9417    0.9250    0.0000 C   0  0  0  0  0  0  0  0  0  0  0  0
    4.8542   -2.0667    0.0000 C   0  0  0  0  0  0  0  0  0  0  0  0
    0.5292    0.7750    0.0000 C   0  0  0  0  0  0  0  0  0  0  0  0
    0.9375    2.0500    0.0000 O   0  0  0  0  0  0  0  0  0  0  0  0
   -0.1333    1.2625    0.0000 O   0  0  0  0  0  0  0  0  0  0  0  0
    0.1250    2.0500    0.0000 C   0  0  0  0  0  0  0  0  0  0  0  0
    4.7125   -3.4917    0.0000 O   0  0  0  0  0  0  0  0  0  0  0  0
    1.3667   -0.3667    0.0000 C   0  0  0  0  0  0  0  0  0  0  0  0
    0.6167   -0.0417    0.0000 C   0  0  0  0  0  0  0  0  0  0  0  0
    8.1417   -4.8167    0.0000 C   0  0  0  0  0  0  0  0  0  0  0  0
    6.5542   -5.7792    0.0000 C   0  0  0  0  0  0  0  0  0  0  0  0
    5.3375   -1.3917    0.0000 C   0  0  0  0  0  0  0  0  0  0  0  0
    8.4042   -5.6042    0.0000 C   0  0  0  0  0  0  0  0  0  0  0  0
    7.1292   -6.3667    0.0000 C   0  0  0  0  0  0  0  0  0  0  0  0
    7.9542   -6.2917    0.0000 C   0  0  0  0  0  0  0  0  0  0  0  0
  1  2  2  0
  3  5  1  0
  1  4  1  0
  5 14  1  0
  2  6  1  0
  3  7  1  0
  8 11  1  0
  1  9  1  0
  4 10  1  0
  5 11  2  0
  9 12  1  0
  2 13  1  0
 14 19  1  0
  7 15  1  0
 13 16  3  0
 17 18  1  0
 15 18  2  0
 12 19  1  0
 20 26  1  0
 17 21  1  0
 20 22  1  0
 21 23  1  0
 12 24  2  0
 15 25  1  0
 25 26  2  0
  6 27  1  0
 10 28  1  0
 19 29  1  0
 27 30  1  0
 28 31  1  0
 31 32  1  0
  6 10  2  0
 30 32  1  0
  7  8  2  0
 17 20  2  0
 22 23  1  0
M  END
>  <MOLFORMULA>  (678) 
C22 H20 N4 O4 S2

>  <MOLWEIGHT>  (678) 
4.685560000000000e+002

>  <IDNUMBER>  (678) 
AT-687/SK06088

>  <PRICE>  (678) 
EUR 80/10 mg

>  <Similarity score>  (678) 
0.17

$$$$

     RDKit          2D

 26 29  0  0  0  0  0  0  0  0999 V2000
   -1.8125    1.9083    0.0000 C   0  0  0  0  0  0  0  0  0  0  0  0
   -2.4042    2.7167    0.0000 C   0  0  0  0  0  0  0  0  0  0  0  0
   -2.4042    1.1000    0.0000 S   0  0  0  0  0  0  0  0  0  0  0  0
   -3.3542    2.4125    0.0000 C   0  0  0  0  0  0  0  0  0  0  0  0
    2.4542   -1.5833    0.0000 N   0  0  0  0  0  0  0  0  0  0  0  0
    2.7708   -0.6375    0.0000 C   0  0  0  0  0  0  0  0  0  0  0  0
   -3.3542    1.4083    0.0000 C   0  0  0  0  0  0  0  0  0  0  0  0
   -0.8167    1.9083    0.0000 N   0  0  0  0  0  0  0  0  0  0  0  0
    3.7708   -0.6417    0.0000 O   0  0  0  0  0  0  0  0  0  0  0  0
   -1.9042    3.5875    0.0000 C   0  0  0  0  0  0  0  0  0  0  0  0
    3.2625   -2.1750    0.0000 C   0  0  0  0  0  0  0  0  0  0  0  0
   -0.3125    1.0458    0.0000 C   0  0  0  0  0  0  0  0  0  0  0  0
   -0.9000    3.5875    0.0000 N   0  0  0  0  0  0  0  0  0  0  0  0
    4.0708   -1.5958    0.0000 C   0  0  0  0  0  0  0  0  0  0  0  0
    0.6875    1.0458    0.0000 C   0  0  0  0  0  0  0  0  0  0  0  0
    2.1875    0.1792    0.0000 S   0  0  0  0  0  0  0  0  0  0  0  0
   -0.8167    0.1792    0.0000 O   0  0  0  0  0  0  0  0  0  0  0  0
    1.1833    0.1792    0.0000 C   0  0  0  0  0  0  0  0  0  0  0  0
   -4.2167    2.9083    0.0000 C   0  0  0  0  0  0  0  0  0  0  0  0
   -4.2167    0.9083    0.0000 C   0  0  0  0  0  0  0  0  0  0  0  0
    3.3583   -3.1667    0.0000 C   0  0  0  0  0  0  0  0  0  0  0  0
    4.9833   -2.0042    0.0000 C   0  0  0  0  0  0  0  0  0  0  0  0
   -5.0833    2.4125    0.0000 C   0  0  0  0  0  0  0  0  0  0  0  0
   -5.0833    1.4083    0.0000 C   0  0  0  0  0  0  0  0  0  0  0  0
    5.0792   -3.0000    0.0000 C   0  0  0  0  0  0  0  0  0  0  0  0
    4.2708   -3.5833    0.0000 C   0  0  0  0  0  0  0  0  0  0  0  0
  1  2  2  0
  1  3  1  0
  2  4  1  0
  5  6  2  0
  6 16  1  0
  3  7  1  0
  1  8  1  0
  6  9  1  0
  2 10  1  0
  5 11  1  0
  8 12  1  0
 10 13  3  0
  9 14  1  0
 12 15  1  0
 16 18  1  0
 12 17  2  0
 15 18  1  0
  4 19  1  0
  7 20  1  0
 11 21  1  0
 14 22  1  0
 19 23  1  0
 20 24  1  0
 22 25  2  0
 21 26  2  0
  4  7  2  0
 23 24  1  0
 11 14  2  0
 25 26  1  0
M  END
>  <MOLFORMULA>  (679) 
C19 H17 N3 O2 S2

>  <MOLWEIGHT>  (679) 
3.834943000000000e+002

>  <IDNUMBER>  (679) 
AN-153/NB15616

>  <PRICE>  (679) 
EUR 130/10 mg

>  <Similarity score>  (679) 
0.17

$$$$

     RDKit          2D

 32 35  0  0  0  0  0  0  0  0999 V2000
   -0.6542    1.0708    0.0000 C   0  0  0  0  0  0  0  0  0  0  0  0
    0.0167    0.3292    0.0000 N   0  0  0  0  0  0  0  0  0  0  0  0
   -1.6458    0.9667    0.0000 C   0  0  0  0  0  0  0  0  0  0  0  0
   -0.4458    2.0500    0.0000 S   0  0  0  0  0  0  0  0  0  0  0  0
   -2.0542    1.8833    0.0000 C   0  0  0  0  0  0  0  0  0  0  0  0
   -0.2917   -0.6208    0.0000 C   0  0  0  0  0  0  0  0  0  0  0  0
    0.9958    0.5375    0.0000 C   0  0  0  0  0  0  0  0  0  0  0  0
   -1.3125    2.5500    0.0000 C   0  0  0  0  0  0  0  0  0  0  0  0
   -2.1458    0.1000    0.0000 C   0  0  0  0  0  0  0  0  0  0  0  0
   -3.1458    0.1000    0.0000 N   0  0  0  0  0  0  0  0  0  0  0  0
    1.3042    1.4875    0.0000 C   0  0  0  0  0  0  0  0  0  0  0  0
    0.3750   -1.3667    0.0000 C   0  0  0  0  0  0  0  0  0  0  0  0
    1.6625   -0.2042    0.0000 O   0  0  0  0  0  0  0  0  0  0  0  0
   -1.2708   -0.8292    0.0000 O   0  0  0  0  0  0  0  0  0  0  0  0
    0.6333    2.2333    0.0000 C   0  0  0  0  0  0  0  0  0  0  0  0
    1.3542   -1.1583    0.0000 C   0  0  0  0  0  0  0  0  0  0  0  0
    0.0667   -2.3167    0.0000 C   0  0  0  0  0  0  0  0  0  0  0  0
    2.2833    1.6958    0.0000 C   0  0  0  0  0  0  0  0  0  0  0  0
   -3.0042    2.1917    0.0000 C   0  0  0  0  0  0  0  0  0  0  0  0
    0.7375   -3.0583    0.0000 C   0  0  0  0  0  0  0  0  0  0  0  0
    2.5917    2.6458    0.0000 C   0  0  0  0  0  0  0  0  0  0  0  0
    0.9417    3.1833    0.0000 C   0  0  0  0  0  0  0  0  0  0  0  0
    2.0250   -1.9000    0.0000 C   0  0  0  0  0  0  0  0  0  0  0  0
   -1.5167    3.5292    0.0000 C   0  0  0  0  0  0  0  0  0  0  0  0
    1.9208    3.3917    0.0000 C   0  0  0  0  0  0  0  0  0  0  0  0
    1.7167   -2.8500    0.0000 C   0  0  0  0  0  0  0  0  0  0  0  0
    2.2292    4.3375    0.0000 C   0  0  0  0  0  0  0  0  0  0  0  0
    2.3833   -3.5958    0.0000 C   0  0  0  0  0  0  0  0  0  0  0  0
   -3.2125    3.1708    0.0000 C   0  0  0  0  0  0  0  0  0  0  0  0
   -2.4708    3.8375    0.0000 C   0  0  0  0  0  0  0  0  0  0  0  0
    3.2083    4.5458    0.0000 C   0  0  0  0  0  0  0  0  0  0  0  0
    2.0750   -4.5458    0.0000 C   0  0  0  0  0  0  0  0  0  0  0  0
  1  2  1  0
  1  3  2  0
  1  4  1  0
  3  5  1  0
  2  6  1  0
  2  7  1  0
  4  8  1  0
  3  9  1  0
  9 10  3  0
  7 11  1  0
  6 12  1  0
  7 13  2  0
  6 14  2  0
 11 15  2  0
 12 16  2  0
 12 17  1  0
 11 18  1  0
  5 19  1  0
 17 20  2  0
 18 21  2  0
 15 22  1  0
 16 23  1  0
  8 24  1  0
 21 25  1  0
 20 26  1  0
 25 27  1  0
 26 28  1  0
 19 29  1  0
 24 30  1  0
 27 31  1  0
 28 32  1  0
  5  8  2  0
 29 30  1  0
 22 25  2  0
 23 26  2  0
M  END
>  <MOLFORMULA>  (680) 
C27 H26 N2 O2 S

>  <MOLWEIGHT>  (680) 
4.425804000000000e+002

>  <IDNUMBER>  (680) 
AN-153/I283858

>  <PRICE>  (680) 
EUR 130/10 mg

>  <Similarity score>  (680) 
0.17

$$$$

     RDKit          2D

 23 25  0  0  0  0  0  0  0  0999 V2000
    0.3833    1.4625    0.0000 C   0  0  0  0  0  0  0  0  0  0  0  0
   -0.4250    2.0500    0.0000 C   0  0  0  0  0  0  0  0  0  0  0  0
    1.1917    2.0500    0.0000 S   0  0  0  0  0  0  0  0  0  0  0  0
   -0.1167    3.0000    0.0000 C   0  0  0  0  0  0  0  0  0  0  0  0
    0.3833    0.4625    0.0000 N   0  0  0  0  0  0  0  0  0  0  0  0
   -0.4833   -0.0375    0.0000 C   0  0  0  0  0  0  0  0  0  0  0  0
    0.8833    3.0000    0.0000 C   0  0  0  0  0  0  0  0  0  0  0  0
   -0.4833   -1.0375    0.0000 C   0  0  0  0  0  0  0  0  0  0  0  0
   -1.3750    1.7417    0.0000 C   0  0  0  0  0  0  0  0  0  0  0  0
    0.3833   -1.5375    0.0000 C   0  0  0  0  0  0  0  0  0  0  0  0
   -2.1208    2.4125    0.0000 N   0  0  0  0  0  0  0  0  0  0  0  0
   -1.3500   -1.5375    0.0000 C   0  0  0  0  0  0  0  0  0  0  0  0
    0.3833   -2.5375    0.0000 C   0  0  0  0  0  0  0  0  0  0  0  0
   -1.3500    0.4625    0.0000 O   0  0  0  0  0  0  0  0  0  0  0  0
   -0.4833   -3.0375    0.0000 C   0  0  0  0  0  0  0  0  0  0  0  0
   -1.3500   -2.5375    0.0000 C   0  0  0  0  0  0  0  0  0  0  0  0
    1.2500   -1.0375    0.0000 O   0  0  0  0  0  0  0  0  0  0  0  0
   -0.4250    3.9542    0.0000 C   0  0  0  0  0  0  0  0  0  0  0  0
    1.1917    3.9542    0.0000 C   0  0  0  0  0  0  0  0  0  0  0  0
   -0.4833   -4.0375    0.0000 O   0  0  0  0  0  0  0  0  0  0  0  0
    0.3833    4.5375    0.0000 C   0  0  0  0  0  0  0  0  0  0  0  0
    2.1167   -1.5375    0.0000 C   0  0  0  0  0  0  0  0  0  0  0  0
    0.3833   -4.5375    0.0000 C   0  0  0  0  0  0  0  0  0  0  0  0
  1  2  2  0
  1  3  1  0
  2  4  1  0
  1  5  1  0
  5  6  1  0
  3  7  1  0
  6  8  1  0
  2  9  1  0
  8 10  2  0
  9 11  3  0
  8 12  1  0
 10 13  1  0
  6 14  2  0
 15 16  1  0
 12 16  2  0
 10 17  1  0
  4 18  1  0
  7 19  1  0
 15 20  1  0
 19 21  1  0
 17 22  1  0
 20 23  1  0
  4  7  2  0
 18 21  1  0
 13 15  2  0
M  END
>  <MOLFORMULA>  (681) 
C17 H16 N2 O3 S

>  <MOLWEIGHT>  (681) 
3.283904000000000e+002

>  <IDNUMBER>  (681) 
AN-153/I255605

>  <PRICE>  (681) 
EUR 130/10 mg

>  <Similarity score>  (681) 
0.16

$$$$

     RDKit          2D

 24 26  0  0  0  0  0  0  0  0999 V2000
    1.9625    1.0583    0.0000 C   0  0  0  0  0  0  0  0  0  0  0  0
    2.9583    1.1625    0.0000 C   0  0  0  0  0  0  0  0  0  0  0  0
    1.5583    1.9708    0.0000 S   0  0  0  0  0  0  0  0  0  0  0  0
    3.1667    2.1417    0.0000 C   0  0  0  0  0  0  0  0  0  0  0  0
    2.3000    2.6417    0.0000 C   0  0  0  0  0  0  0  0  0  0  0  0
    1.4625    0.1917    0.0000 N   0  0  0  0  0  0  0  0  0  0  0  0
    3.6292    0.4208    0.0000 C   0  0  0  0  0  0  0  0  0  0  0  0
    3.3167   -0.5292    0.0000 N   0  0  0  0  0  0  0  0  0  0  0  0
    0.4625    0.1917    0.0000 C   0  0  0  0  0  0  0  0  0  0  0  0
   -0.0375    1.0583    0.0000 O   0  0  0  0  0  0  0  0  0  0  0  0
   -1.0375   -0.6750    0.0000 O   0  0  0  0  0  0  0  0  0  0  0  0
   -0.0375   -0.6750    0.0000 C   0  0  0  0  0  0  0  0  0  0  0  0
   -1.5375   -1.5375    0.0000 C   0  0  0  0  0  0  0  0  0  0  0  0
    4.0333    2.6417    0.0000 C   0  0  0  0  0  0  0  0  0  0  0  0
    2.3000    3.6417    0.0000 C   0  0  0  0  0  0  0  0  0  0  0  0
   -2.5375   -3.2708    0.0000 C   0  0  0  0  0  0  0  0  0  0  0  0
   -1.0375   -2.4042    0.0000 C   0  0  0  0  0  0  0  0  0  0  0  0
   -2.5375   -1.5375    0.0000 C   0  0  0  0  0  0  0  0  0  0  0  0
   -1.5375   -3.2708    0.0000 C   0  0  0  0  0  0  0  0  0  0  0  0
   -3.0375   -2.4042    0.0000 C   0  0  0  0  0  0  0  0  0  0  0  0
   -3.0375   -4.1375    0.0000 C   0  0  0  0  0  0  0  0  0  0  0  0
    4.0333    3.6417    0.0000 C   0  0  0  0  0  0  0  0  0  0  0  0
    3.1667    4.1375    0.0000 C   0  0  0  0  0  0  0  0  0  0  0  0
   -4.0375   -4.1375    0.0000 C   0  0  0  0  0  0  0  0  0  0  0  0
  1  2  2  0
  1  3  1  0
  2  4  1  0
  3  5  1  0
  1  6  1  0
  2  7  1  0
  7  8  3  0
  6  9  1  0
  9 10  2  0
 11 12  1  0
  9 12  1  0
 11 13  1  0
  4 14  1  0
  5 15  1  0
 16 20  1  0
 13 17  2  0
 13 18  1  0
 17 19  1  0
 18 20  2  0
 16 21  1  0
 14 22  1  0
 15 23  1  0
 21 24  1  0
  4  5  2  0
 22 23  1  0
 16 19  2  0
M  END
>  <MOLFORMULA>  (682) 
C19 H20 N2 O2 S

>  <MOLWEIGHT>  (682) 
3.404450000000000e+002

>  <IDNUMBER>  (682) 
AN-153/I226296

>  <PRICE>  (682) 
EUR 130/10 mg

>  <Similarity score>  (682) 
0.16

$$$$

     RDKit          2D

 21 23  0  0  0  0  0  0  0  0999 V2000
    0.0250    1.7000    0.0000 C   0  0  0  0  0  0  0  0  0  0  0  0
   -0.3833    2.6125    0.0000 C   0  0  0  0  0  0  0  0  0  0  0  0
    1.0208    1.8042    0.0000 S   0  0  0  0  0  0  0  0  0  0  0  0
    0.3625    3.2833    0.0000 C   0  0  0  0  0  0  0  0  0  0  0  0
   -0.4750    0.8333    0.0000 N   0  0  0  0  0  0  0  0  0  0  0  0
    1.2292    2.7833    0.0000 C   0  0  0  0  0  0  0  0  0  0  0  0
    0.0250   -0.0333    0.0000 C   0  0  0  0  0  0  0  0  0  0  0  0
   -1.3583    2.8208    0.0000 C   0  0  0  0  0  0  0  0  0  0  0  0
   -1.6708    3.7708    0.0000 N   0  0  0  0  0  0  0  0  0  0  0  0
   -0.4750   -0.8958    0.0000 C   0  0  0  0  0  0  0  0  0  0  0  0
    1.0250   -0.0333    0.0000 O   0  0  0  0  0  0  0  0  0  0  0  0
   -1.4750   -0.8958    0.0000 C   0  0  0  0  0  0  0  0  0  0  0  0
    0.0250   -1.7625    0.0000 C   0  0  0  0  0  0  0  0  0  0  0  0
    0.5708    4.2583    0.0000 C   0  0  0  0  0  0  0  0  0  0  0  0
   -1.4750   -2.6292    0.0000 C   0  0  0  0  0  0  0  0  0  0  0  0
    1.9708    3.4542    0.0000 C   0  0  0  0  0  0  0  0  0  0  0  0
   -0.4750   -2.6292    0.0000 C   0  0  0  0  0  0  0  0  0  0  0  0
   -1.9750   -1.7625    0.0000 C   0  0  0  0  0  0  0  0  0  0  0  0
   -1.9750   -3.4958    0.0000 O   0  0  0  0  0  0  0  0  0  0  0  0
    1.5625    4.3625    0.0000 C   0  0  0  0  0  0  0  0  0  0  0  0
   -1.4750   -4.3625    0.0000 C   0  0  0  0  0  0  0  0  0  0  0  0
  1  2  2  0
  1  3  1  0
  2  4  1  0
  1  5  1  0
  3  6  1  0
  5  7  1  0
  2  8  1  0
  8  9  3  0
  7 10  1  0
  7 11  2  0
 10 12  1  0
 10 13  2  0
  4 14  1  0
 15 17  2  0
  6 16  1  0
 13 17  1  0
 12 18  2  0
 15 19  1  0
 16 20  1  0
 19 21  1  0
  4  6  2  0
 14 20  1  0
 15 18  1  0
M  END
>  <MOLFORMULA>  (683) 
C16 H14 N2 O2 S

>  <MOLWEIGHT>  (683) 
2.983646000000000e+002

>  <IDNUMBER>  (683) 
AN-153/I236325

>  <PRICE>  (683) 
EUR 130/10 mg

>  <Similarity score>  (683) 
0.16

$$$$

     RDKit          2D

 33 37  0  0  0  0  0  0  0  0999 V2000
   -2.4000   -1.2167    0.0000 C   0  0  0  0  0  0  0  0  0  0  0  0
   -2.9875   -2.0250    0.0000 C   0  0  0  0  0  0  0  0  0  0  0  0
    3.1375    1.0167    0.0000 C   0  0  0  0  0  0  0  0  0  0  0  0
    3.1375    0.0167    0.0000 C   0  0  0  0  0  0  0  0  0  0  0  0
    2.1875    1.3250    0.0000 N   0  0  0  0  0  0  0  0  0  0  0  0
   -2.9875   -0.4042    0.0000 S   0  0  0  0  0  0  0  0  0  0  0  0
   -3.9417   -1.7167    0.0000 C   0  0  0  0  0  0  0  0  0  0  0  0
    1.6000    0.5167    0.0000 C   0  0  0  0  0  0  0  0  0  0  0  0
   -3.9417   -0.7167    0.0000 C   0  0  0  0  0  0  0  0  0  0  0  0
    2.1875   -0.2917    0.0000 O   0  0  0  0  0  0  0  0  0  0  0  0
   -1.4000   -1.2167    0.0000 N   0  0  0  0  0  0  0  0  0  0  0  0
   -2.6792   -2.9750    0.0000 C   0  0  0  0  0  0  0  0  0  0  0  0
   -1.7042   -3.1833    0.0000 N   0  0  0  0  0  0  0  0  0  0  0  0
   -0.9000   -0.3500    0.0000 C   0  0  0  0  0  0  0  0  0  0  0  0
    0.6000    0.5167    0.0000 S   0  0  0  0  0  0  0  0  0  0  0  0
    3.9458    1.6042    0.0000 C   0  0  0  0  0  0  0  0  0  0  0  0
    3.9458   -0.5708    0.0000 C   0  0  0  0  0  0  0  0  0  0  0  0
   -1.4000    0.5167    0.0000 O   0  0  0  0  0  0  0  0  0  0  0  0
    0.1000   -0.3500    0.0000 C   0  0  0  0  0  0  0  0  0  0  0  0
   -4.8083   -2.2167    0.0000 C   0  0  0  0  0  0  0  0  0  0  0  0
   -4.8083   -0.2167    0.0000 C   0  0  0  0  0  0  0  0  0  0  0  0
    3.8417   -1.5667    0.0000 C   0  0  0  0  0  0  0  0  0  0  0  0
    3.8417    2.6000    0.0000 C   0  0  0  0  0  0  0  0  0  0  0  0
    4.8583   -0.1625    0.0000 C   0  0  0  0  0  0  0  0  0  0  0  0
    4.8583    1.2000    0.0000 C   0  0  0  0  0  0  0  0  0  0  0  0
   -5.6708   -1.7167    0.0000 C   0  0  0  0  0  0  0  0  0  0  0  0
   -5.6708   -0.7167    0.0000 C   0  0  0  0  0  0  0  0  0  0  0  0
    4.6500   -2.1542    0.0000 C   0  0  0  0  0  0  0  0  0  0  0  0
    5.6667    1.7875    0.0000 C   0  0  0  0  0  0  0  0  0  0  0  0
    5.6667   -0.7500    0.0000 C   0  0  0  0  0  0  0  0  0  0  0  0
    4.6500    3.1875    0.0000 C   0  0  0  0  0  0  0  0  0  0  0  0
    5.5625   -1.7458    0.0000 C   0  0  0  0  0  0  0  0  0  0  0  0
    5.5625    2.7792    0.0000 C   0  0  0  0  0  0  0  0  0  0  0  0
  1  2  2  0
  3  5  1  0
  4 10  1  0
  5  8  2  0
  1  6  1  0
  2  7  1  0
  8 15  1  0
  6  9  1  0
  8 10  1  0
  1 11  1  0
  2 12  1  0
 12 13  3  0
 11 14  1  0
 15 19  1  0
  3 16  1  0
  4 17  1  0
 14 18  2  0
 14 19  1  0
  7 20  1  0
  9 21  1  0
 17 22  1  0
 16 23  1  0
 17 24  2  0
 16 25  2  0
 20 26  1  0
 21 27  1  0
 22 28  2  0
 25 29  1  0
 24 30  1  0
 23 31  2  0
 30 32  2  0
 29 33  2  0
  7  9  2  0
 26 27  1  0
  3  4  2  0
 28 32  1  0
 31 33  1  0
M  END
>  <MOLFORMULA>  (684) 
C26 H21 N3 O2 S2

>  <MOLWEIGHT>  (684) 
4.716029000000000e+002

>  <IDNUMBER>  (684) 
AN-153/I137972

>  <PRICE>  (684) 
EUR 130/10 mg

>  <Similarity score>  (684) 
0.16

$$$$

     RDKit          2D

 29 31  0  0  0  0  0  0  0  0999 V2000
   -4.6833   -0.0000    0.0000 C   0  0  0  0  0  0  0  0  0  0  0  0
   -5.9042    0.5417    0.0000 C   0  0  0  0  0  0  0  0  0  0  0  0
   -4.8208   -1.3375    0.0000 S   0  0  0  0  0  0  0  0  0  0  0  0
   -6.7958   -0.4583    0.0000 C   0  0  0  0  0  0  0  0  0  0  0  0
   -3.4833    0.6625    0.0000 N   0  0  0  0  0  0  0  0  0  0  0  0
   -6.1375   -1.6167    0.0000 C   0  0  0  0  0  0  0  0  0  0  0  0
   -1.1625    0.6625    0.0000 C   0  0  0  0  0  0  0  0  0  0  0  0
   -2.3208   -0.0000    0.0000 C   0  0  0  0  0  0  0  0  0  0  0  0
   -6.1667    1.8500    0.0000 C   0  0  0  0  0  0  0  0  0  0  0  0
    3.6833    0.0875    0.0000 C   0  0  0  0  0  0  0  0  0  0  0  0
   -6.4375    3.1625    0.0000 N   0  0  0  0  0  0  0  0  0  0  0  0
    1.3375   -0.0000    0.0000 N   0  0  0  0  0  0  0  0  0  0  0  0
    0.0000   -0.0000    0.0000 N   0  0  0  0  0  0  0  0  0  0  0  0
   -1.1625    1.9917    0.0000 O   0  0  0  0  0  0  0  0  0  0  0  0
    3.6833    1.4375    0.0000 C   0  0  0  0  0  0  0  0  0  0  0  0
   -2.3208   -1.3292    0.0000 O   0  0  0  0  0  0  0  0  0  0  0  0
    4.8792   -0.5833    0.0000 C   0  0  0  0  0  0  0  0  0  0  0  0
    2.5125   -0.6208    0.0000 C   0  0  0  0  0  0  0  0  0  0  0  0
    4.8792    2.1083    0.0000 C   0  0  0  0  0  0  0  0  0  0  0  0
    6.0250    0.0875    0.0000 C   0  0  0  0  0  0  0  0  0  0  0  0
   -8.1583   -0.4583    0.0000 C   0  0  0  0  0  0  0  0  0  0  0  0
    6.0250    1.4375    0.0000 C   0  0  0  0  0  0  0  0  0  0  0  0
   -6.7958   -2.7792    0.0000 C   0  0  0  0  0  0  0  0  0  0  0  0
    2.5250    2.0833    0.0000 O   0  0  0  0  0  0  0  0  0  0  0  0
    7.1708   -0.5833    0.0000 O   0  0  0  0  0  0  0  0  0  0  0  0
    2.5125    3.4042    0.0000 C   0  0  0  0  0  0  0  0  0  0  0  0
    7.1708   -1.9042    0.0000 C   0  0  0  0  0  0  0  0  0  0  0  0
   -8.8167   -1.6167    0.0000 C   0  0  0  0  0  0  0  0  0  0  0  0
   -8.1583   -2.7792    0.0000 C   0  0  0  0  0  0  0  0  0  0  0  0
  1  2  2  0
  1  3  1  0
  2  4  1  0
  1  5  1  0
  3  6  1  0
  7  8  1  0
  5  8  1  0
  2  9  1  0
 10 18  1  0
  9 11  3  0
 12 13  1  0
  7 13  1  0
  7 14  2  0
 10 15  1  0
  8 16  2  0
 10 17  2  0
 12 18  2  0
 15 19  2  0
 17 20  1  0
  4 21  1  0
 20 22  2  0
  6 23  1  0
 15 24  1  0
 20 25  1  0
 24 26  1  0
 25 27  1  0
 21 28  1  0
 23 29  1  0
  4  6  2  0
 28 29  1  0
 19 22  1  0
M  END
>  <MOLFORMULA>  (685) 
C20 H20 N4 O4 S

>  <MOLWEIGHT>  (685) 
4.124680000000000e+002

>  <IDNUMBER>  (685) 
AT-225/NB77350

>  <PRICE>  (685) 
EUR 140/10 mg

>  <Similarity score>  (685) 
0.16

$$$$

     RDKit          2D

 28 30  0  0  0  0  0  0  0  0999 V2000
   -4.6833   -0.0000    0.0000 C   0  0  0  0  0  0  0  0  0  0  0  0
   -5.9042    0.5417    0.0000 C   0  0  0  0  0  0  0  0  0  0  0  0
   -4.8208   -1.3375    0.0000 S   0  0  0  0  0  0  0  0  0  0  0  0
   -6.7958   -0.4583    0.0000 C   0  0  0  0  0  0  0  0  0  0  0  0
   -3.4833    0.6625    0.0000 N   0  0  0  0  0  0  0  0  0  0  0  0
   -6.1375   -1.6167    0.0000 C   0  0  0  0  0  0  0  0  0  0  0  0
   -1.1625    0.6625    0.0000 C   0  0  0  0  0  0  0  0  0  0  0  0
   -2.3208   -0.0000    0.0000 C   0  0  0  0  0  0  0  0  0  0  0  0
   -6.1667    1.8500    0.0000 C   0  0  0  0  0  0  0  0  0  0  0  0
    3.3583   -1.1708    0.0000 C   0  0  0  0  0  0  0  0  0  0  0  0
   -6.4375    3.1625    0.0000 N   0  0  0  0  0  0  0  0  0  0  0  0
    1.3375   -0.0000    0.0000 N   0  0  0  0  0  0  0  0  0  0  0  0
    0.0000   -0.0000    0.0000 N   0  0  0  0  0  0  0  0  0  0  0  0
   -1.1625    1.9917    0.0000 O   0  0  0  0  0  0  0  0  0  0  0  0
    4.0333   -0.0000    0.0000 C   0  0  0  0  0  0  0  0  0  0  0  0
   -2.3208   -1.3292    0.0000 O   0  0  0  0  0  0  0  0  0  0  0  0
    4.0333   -2.3167    0.0000 C   0  0  0  0  0  0  0  0  0  0  0  0
    2.0125   -1.1708    0.0000 C   0  0  0  0  0  0  0  0  0  0  0  0
    5.3917   -0.0000    0.0000 C   0  0  0  0  0  0  0  0  0  0  0  0
    5.3917   -2.3167    0.0000 C   0  0  0  0  0  0  0  0  0  0  0  0
   -8.1583   -0.4583    0.0000 C   0  0  0  0  0  0  0  0  0  0  0  0
    6.0625   -1.1708    0.0000 C   0  0  0  0  0  0  0  0  0  0  0  0
   -6.7958   -2.7792    0.0000 C   0  0  0  0  0  0  0  0  0  0  0  0
    3.3708    1.1542    0.0000 O   0  0  0  0  0  0  0  0  0  0  0  0
    6.0750   -3.4583    0.0000 O   0  0  0  0  0  0  0  0  0  0  0  0
    7.3917   -3.4375    0.0000 C   0  0  0  0  0  0  0  0  0  0  0  0
   -8.8167   -1.6167    0.0000 C   0  0  0  0  0  0  0  0  0  0  0  0
   -8.1583   -2.7792    0.0000 C   0  0  0  0  0  0  0  0  0  0  0  0
  1  2  2  0
  1  3  1  0
  2  4  1  0
  1  5  1  0
  3  6  1  0
  7  8  1  0
  5  8  1  0
  2  9  1  0
 10 18  1  0
  9 11  3  0
 12 13  1  0
  7 13  1  0
  7 14  2  0
 10 15  1  0
  8 16  2  0
 10 17  2  0
 12 18  2  0
 15 19  2  0
 17 20  1  0
  4 21  1  0
 20 22  2  0
  6 23  1  0
 15 24  1  0
 20 25  1  0
 25 26  1  0
 21 27  1  0
 23 28  1  0
  4  6  2  0
 27 28  1  0
 19 22  1  0
M  END
>  <MOLFORMULA>  (686) 
C19 H18 N4 O4 S

>  <MOLWEIGHT>  (686) 
3.984412000000000e+002

>  <IDNUMBER>  (686) 
AT-225/NB49890

>  <PRICE>  (686) 
EUR 140/10 mg

>  <Similarity score>  (686) 
0.16

$$$$

     RDKit          2D

 20 21  0  0  0  0  0  0  0  0999 V2000
   -1.3167   -0.2667    0.0000 C   0  0  0  0  0  0  0  0  0  0  0  0
   -0.9125   -1.1792    0.0000 C   0  0  0  0  0  0  0  0  0  0  0  0
    0.2917   -0.0958    0.0000 C   0  0  0  0  0  0  0  0  0  0  0  0
    0.0833   -1.0750    0.0000 C   0  0  0  0  0  0  0  0  0  0  0  0
   -0.5750    0.4000    0.0000 S   0  0  0  0  0  0  0  0  0  0  0  0
   -2.2958   -0.0583    0.0000 N   0  0  0  0  0  0  0  0  0  0  0  0
   -1.4125   -2.0458    0.0000 C   0  0  0  0  0  0  0  0  0  0  0  0
    1.2417    0.2125    0.0000 C   0  0  0  0  0  0  0  0  0  0  0  0
   -2.4125   -2.0458    0.0000 N   0  0  0  0  0  0  0  0  0  0  0  0
    0.8250   -1.7458    0.0000 C   0  0  0  0  0  0  0  0  0  0  0  0
   -2.6042    0.8917    0.0000 C   0  0  0  0  0  0  0  0  0  0  0  0
    1.9875   -0.4583    0.0000 C   0  0  0  0  0  0  0  0  0  0  0  0
    2.9375   -0.1500    0.0000 C   0  0  0  0  0  0  0  0  0  0  0  0
    1.7792   -1.4375    0.0000 C   0  0  0  0  0  0  0  0  0  0  0  0
   -1.9375    1.6333    0.0000 O   0  0  0  0  0  0  0  0  0  0  0  0
   -3.8917    2.0500    0.0000 Cl  0  0  0  0  0  0  0  0  0  0  0  0
   -3.5833    1.1000    0.0000 C   0  0  0  0  0  0  0  0  0  0  0  0
    3.2458   -1.1000    0.0000 C   0  0  0  0  0  0  0  0  0  0  0  0
    2.6292    0.8000    0.0000 C   0  0  0  0  0  0  0  0  0  0  0  0
    3.8875    0.1583    0.0000 C   0  0  0  0  0  0  0  0  0  0  0  0
  1  2  2  0
  3  5  1  0
  2  4  1  0
  1  5  1  0
  1  6  1  0
  2  7  1  0
  3  8  1  0
  7  9  3  0
  4 10  1  0
  6 11  1  0
  8 12  1  0
 12 13  1  0
 10 14  1  0
 11 15  2  0
 16 17  1  0
 11 17  1  0
 13 18  1  0
 13 19  1  0
 13 20  1  0
  3  4  2  0
 12 14  1  0
M  END
>  <MOLFORMULA>  (687) 
C15 H19 Cl N2 O S

>  <MOLWEIGHT>  (687) 
3.108471000000000e+002

>  <IDNUMBER>  (687) 
AN-153/NB13845

>  <PRICE>  (687) 
EUR 130/10 mg

>  <Similarity score>  (687) 
0.16

$$$$

     RDKit          2D

 27 30  0  0  0  0  0  0  0  0999 V2000
   -0.7792    1.4708    0.0000 C   0  0  0  0  0  0  0  0  0  0  0  0
   -0.1292    2.2333    0.0000 C   0  0  0  0  0  0  0  0  0  0  0  0
   -1.7042    1.8542    0.0000 S   0  0  0  0  0  0  0  0  0  0  0  0
   -0.6542    3.0875    0.0000 C   0  0  0  0  0  0  0  0  0  0  0  0
   -1.6250    2.8500    0.0000 C   0  0  0  0  0  0  0  0  0  0  0  0
   -0.5458    0.5000    0.0000 N   0  0  0  0  0  0  0  0  0  0  0  0
    0.8667    2.1542    0.0000 C   0  0  0  0  0  0  0  0  0  0  0  0
   -0.5667   -3.1042    0.0000 C   0  0  0  0  0  0  0  0  0  0  0  0
   -0.3333   -4.0750    0.0000 C   0  0  0  0  0  0  0  0  0  0  0  0
    1.4333    2.9792    0.0000 N   0  0  0  0  0  0  0  0  0  0  0  0
   -1.2708   -0.1875    0.0000 C   0  0  0  0  0  0  0  0  0  0  0  0
    0.6250   -4.3583    0.0000 C   0  0  0  0  0  0  0  0  0  0  0  0
    0.1583   -2.4167    0.0000 C   0  0  0  0  0  0  0  0  0  0  0  0
   -1.0583   -4.7667    0.0000 N   0  0  0  0  0  0  0  0  0  0  0  0
   -1.5250   -2.8208    0.0000 C   0  0  0  0  0  0  0  0  0  0  0  0
   -1.7583   -1.8500    0.0000 S   0  0  0  0  0  0  0  0  0  0  0  0
   -2.2292    0.0958    0.0000 O   0  0  0  0  0  0  0  0  0  0  0  0
   -1.0333   -1.1625    0.0000 C   0  0  0  0  0  0  0  0  0  0  0  0
    1.3500   -3.6708    0.0000 C   0  0  0  0  0  0  0  0  0  0  0  0
    1.1167   -2.7000    0.0000 C   0  0  0  0  0  0  0  0  0  0  0  0
   -2.0167   -4.4833    0.0000 C   0  0  0  0  0  0  0  0  0  0  0  0
   -2.2500   -3.5083    0.0000 C   0  0  0  0  0  0  0  0  0  0  0  0
   -0.3708    4.0417    0.0000 C   0  0  0  0  0  0  0  0  0  0  0  0
    2.3083   -3.9542    0.0000 Cl  0  0  0  0  0  0  0  0  0  0  0  0
   -2.3125    3.5750    0.0000 C   0  0  0  0  0  0  0  0  0  0  0  0
   -1.0583    4.7667    0.0000 C   0  0  0  0  0  0  0  0  0  0  0  0
   -2.0292    4.5333    0.0000 C   0  0  0  0  0  0  0  0  0  0  0  0
  1  2  2  0
  1  3  1  0
  2  4  1  0
  3  5  1  0
  1  6  1  0
  2  7  1  0
  8 15  1  0
  8  9  1  0
  7 10  3  0
  6 11  1  0
  9 12  2  0
  8 13  2  0
 14 21  2  0
 15 16  1  0
 16 18  1  0
 11 17  2  0
 11 18  1  0
 19 20  2  0
 13 20  1  0
 21 22  1  0
 15 22  2  0
  4 23  1  0
 19 24  1  0
  5 25  1  0
 23 26  1  0
 25 27  1  0
  4  5  2  0
 26 27  1  0
  9 14  1  0
 12 19  1  0
M  END
>  <MOLFORMULA>  (688) 
C20 H16 Cl N3 O S2

>  <MOLWEIGHT>  (688) 
4.139514000000000e+002

>  <IDNUMBER>  (688) 
AN-153/J118716

>  <PRICE>  (688) 
EUR 130/10 mg

>  <Similarity score>  (688) 
0.16

$$$$

     RDKit          2D

 23 24  0  0  0  0  0  0  0  0999 V2000
   -0.3000    0.7917    0.0000 C   0  0  0  0  0  0  0  0  0  0  0  0
    0.1042   -0.1250    0.0000 C   0  0  0  0  0  0  0  0  0  0  0  0
    1.3083    0.9583    0.0000 C   0  0  0  0  0  0  0  0  0  0  0  0
    1.1000   -0.0167    0.0000 C   0  0  0  0  0  0  0  0  0  0  0  0
    0.4417    1.4583    0.0000 S   0  0  0  0  0  0  0  0  0  0  0  0
   -1.2792    1.0000    0.0000 N   0  0  0  0  0  0  0  0  0  0  0  0
   -0.3958   -0.9875    0.0000 C   0  0  0  0  0  0  0  0  0  0  0  0
   -4.5750   -0.0708    0.0000 C   0  0  0  0  0  0  0  0  0  0  0  0
    2.2583    1.2667    0.0000 C   0  0  0  0  0  0  0  0  0  0  0  0
   -5.2417   -0.8167    0.0000 N   0  0  0  0  0  0  0  0  0  0  0  0
    0.1042   -1.8542    0.0000 N   0  0  0  0  0  0  0  0  0  0  0  0
    1.8417   -0.6875    0.0000 C   0  0  0  0  0  0  0  0  0  0  0  0
   -1.9500    0.2542    0.0000 C   0  0  0  0  0  0  0  0  0  0  0  0
    3.0000    0.6000    0.0000 C   0  0  0  0  0  0  0  0  0  0  0  0
    3.9542    0.9083    0.0000 C   0  0  0  0  0  0  0  0  0  0  0  0
    2.7917   -0.3792    0.0000 C   0  0  0  0  0  0  0  0  0  0  0  0
   -1.6417   -0.6958    0.0000 O   0  0  0  0  0  0  0  0  0  0  0  0
   -3.5958   -0.2792    0.0000 S   0  0  0  0  0  0  0  0  0  0  0  0
   -2.9292    0.4625    0.0000 C   0  0  0  0  0  0  0  0  0  0  0  0
    4.2625   -0.0417    0.0000 C   0  0  0  0  0  0  0  0  0  0  0  0
    4.9042    1.2167    0.0000 C   0  0  0  0  0  0  0  0  0  0  0  0
    3.6417    1.8583    0.0000 C   0  0  0  0  0  0  0  0  0  0  0  0
    5.2375   -0.2500    0.0000 C   0  0  0  0  0  0  0  0  0  0  0  0
  1  2  2  0
  3  5  1  0
  2  4  1  0
  1  5  1  0
  1  6  1  0
  2  7  1  0
  8 18  1  0
  3  9  1  0
  8 10  3  0
  7 11  3  0
  4 12  1  0
  6 13  1  0
  9 14  1  0
 14 15  1  0
 12 16  1  0
 13 17  2  0
 18 19  1  0
 13 19  1  0
 15 20  1  0
 15 21  1  0
 15 22  1  0
 20 23  1  0
  3  4  2  0
 14 16  1  0
M  END
>  <MOLFORMULA>  (689) 
C17 H21 N3 O S2

>  <MOLWEIGHT>  (689) 
3.475049000000000e+002

>  <IDNUMBER>  (689) 
AN-153/PE02955

>  <PRICE>  (689) 
EUR 130/10 mg

>  <Similarity score>  (689) 
0.16

$$$$

     RDKit          2D

 21 23  0  0  0  0  0  0  0  0999 V2000
    3.6500   -2.2750    0.0000 C   0  0  0  0  0  0  0  0  0  0  0  0
    4.1167   -2.9292    0.0000 C   0  0  0  0  0  0  0  0  0  0  0  0
    3.6500   -3.5875    0.0000 S   0  0  0  0  0  0  0  0  0  0  0  0
    2.8792   -2.5292    0.0000 C   0  0  0  0  0  0  0  0  0  0  0  0
    2.8792   -3.3375    0.0000 C   0  0  0  0  0  0  0  0  0  0  0  0
    4.9250   -2.9292    0.0000 N   0  0  0  0  0  0  0  0  0  0  0  0
    3.9000   -1.5167    0.0000 C   0  0  0  0  0  0  0  0  0  0  0  0
    4.1417   -0.7500    0.0000 N   0  0  0  0  0  0  0  0  0  0  0  0
    5.3292   -3.6292    0.0000 C   0  0  0  0  0  0  0  0  0  0  0  0
    6.1375   -3.6292    0.0000 C   0  0  0  0  0  0  0  0  0  0  0  0
    7.7542   -3.6292    0.0000 C   0  0  0  0  0  0  0  0  0  0  0  0
    2.1750   -2.1250    0.0000 C   0  0  0  0  0  0  0  0  0  0  0  0
    2.1750   -3.7417    0.0000 C   0  0  0  0  0  0  0  0  0  0  0  0
    6.5417   -4.3292    0.0000 C   0  0  0  0  0  0  0  0  0  0  0  0
    6.5417   -2.9292    0.0000 C   0  0  0  0  0  0  0  0  0  0  0  0
    7.3500   -2.9292    0.0000 C   0  0  0  0  0  0  0  0  0  0  0  0
    7.3500   -4.3292    0.0000 C   0  0  0  0  0  0  0  0  0  0  0  0
    8.5625   -3.6292    0.0000 O   0  0  0  0  0  0  0  0  0  0  0  0
    8.9667   -4.3292    0.0000 C   0  0  0  0  0  0  0  0  0  0  0  0
    1.4792   -2.5292    0.0000 C   0  0  0  0  0  0  0  0  0  0  0  0
    1.4792   -3.3375    0.0000 C   0  0  0  0  0  0  0  0  0  0  0  0
  1  2  2  0
  2  3  1  0
  1  4  1  0
  4  5  2  0
  2  6  1  0
  1  7  1  0
  7  8  3  0
  6  9  2  0
  9 10  1  0
 11 16  2  0
  4 12  1  0
  5 13  1  0
 10 14  1  0
 10 15  2  0
 15 16  1  0
 14 17  2  0
 11 18  1  0
 18 19  1  0
 12 20  1  0
 20 21  1  0
  3  5  1  0
 13 21  1  0
 11 17  1  0
M  END
>  <MOLFORMULA>  (690) 
C17 H16 N2 O S

>  <MOLWEIGHT>  (690) 
2.963924000000000e+002

>  <IDNUMBER>  (690) 
AM-879/PD02471

>  <PRICE>  (690) 
EUR 55.00/10 mg

>  <Similarity score>  (690) 
0.16

$$$$

     RDKit          2D

 31 34  0  0  0  0  0  0  0  0999 V2000
    3.0542   -4.9542    0.0000 C   0  0  0  0  0  0  0  0  0  0  0  0
    3.8667   -4.8667    0.0000 N   0  0  0  0  0  0  0  0  0  0  0  0
    2.4917   -4.3375    0.0000 C   0  0  0  0  0  0  0  0  0  0  0  0
    2.6417   -5.6667    0.0000 S   0  0  0  0  0  0  0  0  0  0  0  0
    5.1792   -5.1250    0.0000 C   0  0  0  0  0  0  0  0  0  0  0  0
    4.2792   -4.1542    0.0000 C   0  0  0  0  0  0  0  0  0  0  0  0
    4.4167   -5.4750    0.0000 C   0  0  0  0  0  0  0  0  0  0  0  0
    1.7500   -4.6750    0.0000 C   0  0  0  0  0  0  0  0  0  0  0  0
    5.9000   -6.3917    0.0000 C   0  0  0  0  0  0  0  0  0  0  0  0
    1.8375   -5.4917    0.0000 C   0  0  0  0  0  0  0  0  0  0  0  0
    5.0875   -4.3167    0.0000 C   0  0  0  0  0  0  0  0  0  0  0  0
    5.9000   -5.5292    0.0000 C   0  0  0  0  0  0  0  0  0  0  0  0
    6.6292   -6.8292    0.0000 C   0  0  0  0  0  0  0  0  0  0  0  0
    2.6542   -3.5250    0.0000 C   0  0  0  0  0  0  0  0  0  0  0  0
    5.1750   -6.8292    0.0000 C   0  0  0  0  0  0  0  0  0  0  0  0
    2.8292   -2.7167    0.0000 N   0  0  0  0  0  0  0  0  0  0  0  0
    4.4417   -7.2500    0.0000 N   0  0  0  0  0  0  0  0  0  0  0  0
    6.6292   -7.6542    0.0000 N   0  0  0  0  0  0  0  0  0  0  0  0
    7.3667   -6.3917    0.0000 O   0  0  0  0  0  0  0  0  0  0  0  0
    6.6917   -9.3792    0.0000 O   0  0  0  0  0  0  0  0  0  0  0  0
    7.3667   -8.0667    0.0000 C   0  0  0  0  0  0  0  0  0  0  0  0
    3.9500   -3.4042    0.0000 C   0  0  0  0  0  0  0  0  0  0  0  0
    1.0000   -4.3375    0.0000 C   0  0  0  0  0  0  0  0  0  0  0  0
    4.2542   -6.2792    0.0000 C   0  0  0  0  0  0  0  0  0  0  0  0
    7.3667   -8.8917    0.0000 C   0  0  0  0  0  0  0  0  0  0  0  0
    1.1667   -5.9792    0.0000 C   0  0  0  0  0  0  0  0  0  0  0  0
    6.9500  -10.1542    0.0000 C   0  0  0  0  0  0  0  0  0  0  0  0
    8.0292   -9.3750    0.0000 C   0  0  0  0  0  0  0  0  0  0  0  0
    0.3292   -4.8250    0.0000 C   0  0  0  0  0  0  0  0  0  0  0  0
    0.4167   -5.6417    0.0000 C   0  0  0  0  0  0  0  0  0  0  0  0
    7.7917  -10.1542    0.0000 C   0  0  0  0  0  0  0  0  0  0  0  0
  1  2  1  0
  1  3  2  0
  1  4  1  0
  5  7  2  0
  2  6  1  0
  2  7  1  0
  3  8  1  0
  9 12  2  0
  4 10  1  0
  6 11  2  0
  5 12  1  0
  9 13  1  0
  3 14  1  0
  9 15  1  0
 14 16  3  0
 15 17  3  0
 13 18  1  0
 13 19  2  0
 20 25  1  0
 18 21  1  0
  6 22  1  0
  8 23  1  0
  7 24  1  0
 21 25  1  0
 10 26  1  0
 20 27  1  0
 25 28  1  0
 23 29  1  0
 26 30  1  0
 28 31  1  0
  8 10  2  0
  5 11  1  0
 29 30  1  0
 27 31  1  0
M  END
>  <MOLFORMULA>  (691) 
C24 H26 N4 O2 S

>  <MOLWEIGHT>  (691) 
4.345614000000000e+002

>  <IDNUMBER>  (691) 
AT-139/J196923

>  <PRICE>  (691) 
EUR 125.00/10 mg

>  <Similarity score>  (691) 
0.16

$$$$

     RDKit          2D

 23 25  0  0  0  0  0  0  0  0999 V2000
   -1.0958    1.3333    0.0000 C   0  0  0  0  0  0  0  0  0  0  0  0
   -0.6625    0.7208    0.0000 C   0  0  0  0  0  0  0  0  0  0  0  0
   -1.0958    0.1208    0.0000 S   0  0  0  0  0  0  0  0  0  0  0  0
   -1.8125    1.0958    0.0000 C   0  0  0  0  0  0  0  0  0  0  0  0
   -1.8125    0.3458    0.0000 C   0  0  0  0  0  0  0  0  0  0  0  0
    0.0875    0.7208    0.0000 N   0  0  0  0  0  0  0  0  0  0  0  0
   -0.8625    2.0333    0.0000 C   0  0  0  0  0  0  0  0  0  0  0  0
   -0.6375    2.7458    0.0000 N   0  0  0  0  0  0  0  0  0  0  0  0
    2.3375    0.7208    0.0000 C   0  0  0  0  0  0  0  0  0  0  0  0
    0.4625    0.0708    0.0000 C   0  0  0  0  0  0  0  0  0  0  0  0
    2.7125    0.0708    0.0000 C   0  0  0  0  0  0  0  0  0  0  0  0
    1.5875    0.7208    0.0000 C   0  0  0  0  0  0  0  0  0  0  0  0
    2.3375   -0.5792    0.0000 C   0  0  0  0  0  0  0  0  0  0  0  0
    1.2125    0.0708    0.0000 C   0  0  0  0  0  0  0  0  0  0  0  0
   -2.4625    1.4708    0.0000 C   0  0  0  0  0  0  0  0  0  0  0  0
    1.5875   -0.5792    0.0000 C   0  0  0  0  0  0  0  0  0  0  0  0
    2.7125    1.3708    0.0000 O   0  0  0  0  0  0  0  0  0  0  0  0
   -2.4625   -0.0292    0.0000 C   0  0  0  0  0  0  0  0  0  0  0  0
    3.4625    0.0708    0.0000 O   0  0  0  0  0  0  0  0  0  0  0  0
    3.4625    1.3708    0.0000 C   0  0  0  0  0  0  0  0  0  0  0  0
   -3.1083    1.0958    0.0000 C   0  0  0  0  0  0  0  0  0  0  0  0
   -3.1083    0.3458    0.0000 C   0  0  0  0  0  0  0  0  0  0  0  0
    3.8375    2.0208    0.0000 C   0  0  0  0  0  0  0  0  0  0  0  0
  1  2  2  0
  2  3  1  0
  1  4  1  0
  4  5  2  0
  2  6  1  0
  1  7  1  0
  7  8  3  0
  9 12  1  0
  6 10  2  0
 11 13  1  0
 12 14  2  0
 13 16  2  0
 10 14  1  0
  4 15  1  0
 14 16  1  0
  9 17  1  0
  5 18  1  0
 11 19  1  0
 17 20  1  0
 15 21  1  0
 21 22  1  0
 20 23  1  0
  3  5  1  0
 18 22  1  0
  9 11  2  0
M  END
>  <MOLFORMULA>  (692) 
C18 H18 N2 O2 S

>  <MOLWEIGHT>  (692) 
3.264182000000000e+002

>  <IDNUMBER>  (692) 
AM-879/PD01907

>  <PRICE>  (692) 
EUR 55.00/10 mg

>  <Similarity score>  (692) 
0.16

$$$$

     RDKit          2D

 21 23  0  0  0  0  0  0  0  0999 V2000
   -0.0083    1.4167    0.0000 C   0  0  0  0  0  0  0  0  0  0  0  0
   -0.4167    2.3292    0.0000 C   0  0  0  0  0  0  0  0  0  0  0  0
    0.9833    1.5208    0.0000 S   0  0  0  0  0  0  0  0  0  0  0  0
    0.3292    3.0000    0.0000 C   0  0  0  0  0  0  0  0  0  0  0  0
    1.1917    2.5000    0.0000 C   0  0  0  0  0  0  0  0  0  0  0  0
   -1.7125   -3.9958    0.0000 N   0  0  0  0  0  0  0  0  0  0  0  0
   -0.5083   -2.9125    0.0000 C   0  0  0  0  0  0  0  0  0  0  0  0
   -0.5083    0.5500    0.0000 N   0  0  0  0  0  0  0  0  0  0  0  0
   -1.5042   -3.0167    0.0000 N   0  0  0  0  0  0  0  0  0  0  0  0
   -0.8458   -4.4958    0.0000 N   0  0  0  0  0  0  0  0  0  0  0  0
   -0.1042   -3.8250    0.0000 C   0  0  0  0  0  0  0  0  0  0  0  0
   -1.3958    2.5375    0.0000 C   0  0  0  0  0  0  0  0  0  0  0  0
   -2.0625    1.7958    0.0000 N   0  0  0  0  0  0  0  0  0  0  0  0
   -0.0083   -0.3167    0.0000 C   0  0  0  0  0  0  0  0  0  0  0  0
   -0.0083   -2.0458    0.0000 S   0  0  0  0  0  0  0  0  0  0  0  0
    0.9917   -0.3167    0.0000 O   0  0  0  0  0  0  0  0  0  0  0  0
   -0.5083   -1.1792    0.0000 C   0  0  0  0  0  0  0  0  0  0  0  0
    0.3292    4.0000    0.0000 C   0  0  0  0  0  0  0  0  0  0  0  0
    2.0583    3.0000    0.0000 C   0  0  0  0  0  0  0  0  0  0  0  0
    1.1917    4.4958    0.0000 C   0  0  0  0  0  0  0  0  0  0  0  0
    2.0583    4.0000    0.0000 C   0  0  0  0  0  0  0  0  0  0  0  0
  1  2  2  0
  1  3  1  0
  2  4  1  0
  3  5  1  0
  6  9  1  0
  7 15  1  0
  1  8  1  0
  7  9  1  0
 10 11  1  0
  7 11  2  0
  2 12  1  0
 12 13  3  0
  8 14  1  0
 15 17  1  0
 14 16  2  0
 14 17  1  0
  4 18  1  0
  5 19  1  0
 18 20  1  0
 19 21  1  0
  4  5  2  0
 20 21  1  0
  6 10  2  0
M  END
>  <MOLFORMULA>  (693) 
C13 H13 N5 O S2

>  <MOLWEIGHT>  (693) 
3.194117000000000e+002

>  <IDNUMBER>  (693) 
AN-153/I272940

>  <PRICE>  (693) 
EUR 130/10 mg

>  <Similarity score>  (693) 
0.16

$$$$

     RDKit          2D

 29 31  0  0  0  0  0  0  0  0999 V2000
    3.3875    0.0708    0.0000 C   0  0  0  0  0  0  0  0  0  0  0  0
    3.0167   -0.6667    0.0000 C   0  0  0  0  0  0  0  0  0  0  0  0
    2.0667    0.2708    0.0000 C   0  0  0  0  0  0  0  0  0  0  0  0
    2.8042    0.6458    0.0000 C   0  0  0  0  0  0  0  0  0  0  0  0
    2.2042   -0.5375    0.0000 S   0  0  0  0  0  0  0  0  0  0  0  0
    3.3917   -1.4000    0.0000 N   0  0  0  0  0  0  0  0  0  0  0  0
    4.2042    0.2000    0.0000 C   0  0  0  0  0  0  0  0  0  0  0  0
    5.7917   -2.9375    0.0000 C   0  0  0  0  0  0  0  0  0  0  0  0
    1.3792    0.7208    0.0000 C   0  0  0  0  0  0  0  0  0  0  0  0
    4.7250   -0.4417    0.0000 N   0  0  0  0  0  0  0  0  0  0  0  0
    4.5917   -2.1792    0.0000 C   0  0  0  0  0  0  0  0  0  0  0  0
    2.8500    1.4708    0.0000 C   0  0  0  0  0  0  0  0  0  0  0  0
    5.3542   -3.6167    0.0000 C   0  0  0  0  0  0  0  0  0  0  0  0
    5.4167   -2.2292    0.0000 C   0  0  0  0  0  0  0  0  0  0  0  0
    4.2167   -1.4417    0.0000 C   0  0  0  0  0  0  0  0  0  0  0  0
    1.4167    1.5375    0.0000 C   0  0  0  0  0  0  0  0  0  0  0  0
    0.7292    1.9833    0.0000 C   0  0  0  0  0  0  0  0  0  0  0  0
    5.7417   -4.3417    0.0000 N   0  0  0  0  0  0  0  0  0  0  0  0
    2.1542    1.9125    0.0000 C   0  0  0  0  0  0  0  0  0  0  0  0
    4.1667   -2.8542    0.0000 C   0  0  0  0  0  0  0  0  0  0  0  0
    4.5417   -3.5667    0.0000 C   0  0  0  0  0  0  0  0  0  0  0  0
    5.8500   -1.5542    0.0000 O   0  0  0  0  0  0  0  0  0  0  0  0
    0.7667    2.8083    0.0000 C   0  0  0  0  0  0  0  0  0  0  0  0
   -0.0083    1.6083    0.0000 C   0  0  0  0  0  0  0  0  0  0  0  0
    1.3375    2.5375    0.0000 C   0  0  0  0  0  0  0  0  0  0  0  0
    5.3042   -5.0167    0.0000 C   0  0  0  0  0  0  0  0  0  0  0  0
    6.5500   -4.3792    0.0000 C   0  0  0  0  0  0  0  0  0  0  0  0
    4.4875   -4.9792    0.0000 C   0  0  0  0  0  0  0  0  0  0  0  0
    6.9875   -3.7125    0.0000 C   0  0  0  0  0  0  0  0  0  0  0  0
  1  2  2  0
  3  4  2  0
  1  4  1  0
  2  5  1  0
  2  6  1  0
  1  7  1  0
  8 14  1  0
  3  9  1  0
  7 10  3  0
 11 15  1  0
  4 12  1  0
 13 21  1  0
 11 14  2  0
  6 15  2  0
 16 19  1  0
 16 17  1  0
 13 18  1  0
 12 19  1  0
 11 20  1  0
 20 21  2  0
 14 22  1  0
 17 23  1  0
 17 24  1  0
 17 25  1  0
 18 26  1  0
 18 27  1  0
 26 28  1  0
 27 29  1  0
  3  5  1  0
  9 16  1  0
  8 13  2  0
M  END
>  <MOLFORMULA>  (694) 
C24 H31 N3 O S

>  <MOLWEIGHT>  (694) 
4.095949000000000e+002

>  <IDNUMBER>  (694) 
AM-879/J183597

>  <PRICE>  (694) 
EUR 55.00/10 mg

>  <Similarity score>  (694) 
0.16

$$$$

     RDKit          2D

 30 33  0  0  0  0  0  0  0  0999 V2000
    3.2792    0.2833    0.0000 C   0  0  0  0  0  0  0  0  0  0  0  0
    3.9875   -0.2000    0.0000 C   0  0  0  0  0  0  0  0  0  0  0  0
    3.5167    1.0875    0.0000 S   0  0  0  0  0  0  0  0  0  0  0  0
    4.6500    0.3333    0.0000 C   0  0  0  0  0  0  0  0  0  0  0  0
    4.3625    1.1208    0.0000 C   0  0  0  0  0  0  0  0  0  0  0  0
    0.5375    1.0958    0.0000 O   0  0  0  0  0  0  0  0  0  0  0  0
    0.7167    1.6958    0.0000 C   0  0  0  0  0  0  0  0  0  0  0  0
    0.2000    2.0458    0.0000 N   0  0  0  0  0  0  0  0  0  0  0  0
   -0.2958    1.6583    0.0000 N   0  0  0  0  0  0  0  0  0  0  0  0
    2.4792   -0.0125    0.0000 N   0  0  0  0  0  0  0  0  0  0  0  0
   -0.0958    1.0708    0.0000 C   0  0  0  0  0  0  0  0  0  0  0  0
    4.0042   -1.0292    0.0000 C   0  0  0  0  0  0  0  0  0  0  0  0
    4.0792   -1.8750    0.0000 N   0  0  0  0  0  0  0  0  0  0  0  0
    1.8292    0.5333    0.0000 C   0  0  0  0  0  0  0  0  0  0  0  0
    1.3167    1.9000    0.0000 S   0  0  0  0  0  0  0  0  0  0  0  0
    1.0167    0.2333    0.0000 O   0  0  0  0  0  0  0  0  0  0  0  0
   -0.4458    0.5583    0.0000 C   0  0  0  0  0  0  0  0  0  0  0  0
    1.9667    1.3583    0.0000 C   0  0  0  0  0  0  0  0  0  0  0  0
   -0.1750   -0.0292    0.0000 C   0  0  0  0  0  0  0  0  0  0  0  0
    0.3542   -1.1500    0.0000 C   0  0  0  0  0  0  0  0  0  0  0  0
    5.4875    0.1875    0.0000 C   0  0  0  0  0  0  0  0  0  0  0  0
    4.9042    1.7708    0.0000 C   0  0  0  0  0  0  0  0  0  0  0  0
   -0.5333   -0.5417    0.0000 C   0  0  0  0  0  0  0  0  0  0  0  0
    0.4542   -0.0792    0.0000 C   0  0  0  0  0  0  0  0  0  0  0  0
   -0.2708   -1.1042    0.0000 C   0  0  0  0  0  0  0  0  0  0  0  0
    0.7292   -0.6292    0.0000 C   0  0  0  0  0  0  0  0  0  0  0  0
    0.6250   -1.7292    0.0000 O   0  0  0  0  0  0  0  0  0  0  0  0
    1.2667   -1.7750    0.0000 C   0  0  0  0  0  0  0  0  0  0  0  0
    6.0417    0.8333    0.0000 C   0  0  0  0  0  0  0  0  0  0  0  0
    5.7542    1.6333    0.0000 C   0  0  0  0  0  0  0  0  0  0  0  0
  1  2  2  0
  1  3  1  0
  2  4  1  0
  3  5  1  0
  6  7  1  0
  7 15  1  0
  7  8  2  0
  8  9  1  0
  1 10  1  0
  6 11  1  0
  2 12  1  0
 12 13  3  0
 10 14  1  0
 15 18  1  0
 14 16  2  0
 11 17  1  0
 14 18  1  0
 17 19  1  0
 20 26  1  0
  4 21  1  0
  5 22  1  0
 19 23  2  0
 19 24  1  0
 23 25  1  0
 24 26  2  0
 20 27  1  0
 27 28  1  0
 21 29  1  0
 22 30  1  0
  4  5  2  0
 29 30  1  0
  9 11  2  0
 20 25  2  0
M  END
>  <MOLFORMULA>  (695) 
C21 H20 N4 O3 S2

>  <MOLWEIGHT>  (695) 
4.405460000000000e+002

>  <IDNUMBER>  (695) 
AM-879/PD04764

>  <PRICE>  (695) 
EUR 55.00/10 mg

>  <Similarity score>  (695) 
0.16

$$$$

     RDKit          2D

 21 23  0  0  0  0  0  0  0  0999 V2000
    1.1417    0.5250    0.0000 C   0  0  0  0  0  0  0  0  0  0  0  0
    1.8875    1.1958    0.0000 C   0  0  0  0  0  0  0  0  0  0  0  0
    1.5500   -0.3875    0.0000 S   0  0  0  0  0  0  0  0  0  0  0  0
    2.7542    0.6958    0.0000 C   0  0  0  0  0  0  0  0  0  0  0  0
    2.5458   -0.2833    0.0000 C   0  0  0  0  0  0  0  0  0  0  0  0
    0.1667    0.7333    0.0000 N   0  0  0  0  0  0  0  0  0  0  0  0
    1.7833    2.1917    0.0000 C   0  0  0  0  0  0  0  0  0  0  0  0
   -0.5042   -0.0083    0.0000 C   0  0  0  0  0  0  0  0  0  0  0  0
    2.5917    2.7792    0.0000 N   0  0  0  0  0  0  0  0  0  0  0  0
   -0.1958   -0.9583    0.0000 O   0  0  0  0  0  0  0  0  0  0  0  0
   -1.4833    0.2000    0.0000 C   0  0  0  0  0  0  0  0  0  0  0  0
   -2.1500   -0.5458    0.0000 C   0  0  0  0  0  0  0  0  0  0  0  0
    3.7458    0.8000    0.0000 C   0  0  0  0  0  0  0  0  0  0  0  0
   -3.4875   -2.0292    0.0000 C   0  0  0  0  0  0  0  0  0  0  0  0
    3.4125   -0.7833    0.0000 C   0  0  0  0  0  0  0  0  0  0  0  0
   -4.1583   -2.7750    0.0000 Cl  0  0  0  0  0  0  0  0  0  0  0  0
   -3.8000   -1.0792    0.0000 C   0  0  0  0  0  0  0  0  0  0  0  0
   -2.5125   -2.2375    0.0000 C   0  0  0  0  0  0  0  0  0  0  0  0
   -3.1292   -0.3375    0.0000 C   0  0  0  0  0  0  0  0  0  0  0  0
   -1.8417   -1.4958    0.0000 C   0  0  0  0  0  0  0  0  0  0  0  0
    4.1542   -0.1125    0.0000 C   0  0  0  0  0  0  0  0  0  0  0  0
  1  2  2  0
  1  3  1  0
  2  4  1  0
  3  5  1  0
  1  6  1  0
  2  7  1  0
  6  8  1  0
  7  9  3  0
  8 10  2  0
  8 11  1  0
 11 12  1  0
  4 13  1  0
 14 18  1  0
  5 15  1  0
 14 16  1  0
 17 19  1  0
 18 20  2  0
 12 19  2  0
 12 20  1  0
 15 21  1  0
  4  5  2  0
 13 21  1  0
 14 17  2  0
M  END
>  <MOLFORMULA>  (696) 
C16 H13 Cl N2 O S

>  <MOLWEIGHT>  (696) 
3.168107000000000e+002

>  <IDNUMBER>  (696) 
AN-153/I194067

>  <PRICE>  (696) 
EUR 130/10 mg

>  <Similarity score>  (696) 
0.16

$$$$

     RDKit          2D

 35 39  0  0  0  0  0  0  0  0999 V2000
    0.0708    1.9375    0.0000 C   0  0  0  0  0  0  0  0  0  0  0  0
   -0.8792    2.2458    0.0000 C   0  0  0  0  0  0  0  0  0  0  0  0
    0.0708    3.5583    0.0000 C   0  0  0  0  0  0  0  0  0  0  0  0
   -0.8792    3.2458    0.0000 C   0  0  0  0  0  0  0  0  0  0  0  0
    0.6625    2.7500    0.0000 S   0  0  0  0  0  0  0  0  0  0  0  0
    0.9500   -3.5583    0.0000 C   0  0  0  0  0  0  0  0  0  0  0  0
    1.9292   -3.7667    0.0000 C   0  0  0  0  0  0  0  0  0  0  0  0
    0.3833    0.9875    0.0000 N   0  0  0  0  0  0  0  0  0  0  0  0
    0.2792   -4.3042    0.0000 C   0  0  0  0  0  0  0  0  0  0  0  0
    2.2375   -4.7208    0.0000 O   0  0  0  0  0  0  0  0  0  0  0  0
   -0.2875    0.2458    0.0000 C   0  0  0  0  0  0  0  0  0  0  0  0
   -1.6875    1.6583    0.0000 C   0  0  0  0  0  0  0  0  0  0  0  0
    0.2792    4.5292    0.0000 C   0  0  0  0  0  0  0  0  0  0  0  0
    0.5875   -5.2542    0.0000 C   0  0  0  0  0  0  0  0  0  0  0  0
    1.5667   -5.4625    0.0000 C   0  0  0  0  0  0  0  0  0  0  0  0
   -2.6000    2.0667    0.0000 N   0  0  0  0  0  0  0  0  0  0  0  0
   -1.6208    3.9167    0.0000 C   0  0  0  0  0  0  0  0  0  0  0  0
   -0.4625    5.2000    0.0000 C   0  0  0  0  0  0  0  0  0  0  0  0
    0.6417   -2.6083    0.0000 C   0  0  0  0  0  0  0  0  0  0  0  0
    0.0208   -0.7083    0.0000 C   0  0  0  0  0  0  0  0  0  0  0  0
   -0.2542    6.1792    0.0000 C   0  0  0  0  0  0  0  0  0  0  0  0
    2.5958   -3.0250    0.0000 O   0  0  0  0  0  0  0  0  0  0  0  0
   -1.2667    0.4542    0.0000 O   0  0  0  0  0  0  0  0  0  0  0  0
   -1.4125    4.8917    0.0000 C   0  0  0  0  0  0  0  0  0  0  0  0
    1.3083   -1.8667    0.0000 C   0  0  0  0  0  0  0  0  0  0  0  0
   -0.3375   -2.4000    0.0000 C   0  0  0  0  0  0  0  0  0  0  0  0
   -0.6458   -1.4500    0.0000 C   0  0  0  0  0  0  0  0  0  0  0  0
    1.0000   -0.9167    0.0000 C   0  0  0  0  0  0  0  0  0  0  0  0
   -0.0792   -5.9958    0.0000 C   0  0  0  0  0  0  0  0  0  0  0  0
    1.8750   -6.4125    0.0000 C   0  0  0  0  0  0  0  0  0  0  0  0
    0.7250    5.9708    0.0000 C   0  0  0  0  0  0  0  0  0  0  0  0
   -1.2333    6.3875    0.0000 C   0  0  0  0  0  0  0  0  0  0  0  0
   -0.0458    7.1542    0.0000 C   0  0  0  0  0  0  0  0  0  0  0  0
    1.2083   -7.1542    0.0000 C   0  0  0  0  0  0  0  0  0  0  0  0
    0.2292   -6.9500    0.0000 C   0  0  0  0  0  0  0  0  0  0  0  0
  1  2  2  0
  3  5  1  0
  2  4  1  0
  1  5  1  0
  6 19  1  0
  6  7  1  0
  1  8  1  0
  6  9  2  0
  7 10  1  0
  8 11  1  0
  2 12  1  0
  3 13  1  0
  9 14  1  0
 14 15  1  0
 12 16  3  0
  4 17  1  0
 13 18  1  0
 19 25  2  0
 11 20  1  0
 18 21  1  0
  7 22  2  0
 11 23  2  0
 17 24  1  0
 25 28  1  0
 26 27  2  0
 20 27  1  0
 20 28  2  0
 14 29  2  0
 15 30  2  0
 21 31  1  0
 21 32  1  0
 21 33  1  0
 34 35  2  0
 29 35  1  0
  3  4  2  0
 18 24  1  0
 19 26  1  0
 10 15  1  0
 30 34  1  0
M  END
>  <MOLFORMULA>  (697) 
C29 H26 N2 O3 S

>  <MOLWEIGHT>  (697) 
4.826014000000000e+002

>  <IDNUMBER>  (697) 
AN-153/I280242

>  <PRICE>  (697) 
EUR 130/10 mg

>  <Similarity score>  (697) 
0.16

$$$$

     RDKit          2D

 37 40  0  0  0  0  0  0  0  0999 V2000
    4.4792    3.6458    0.0000 C   0  0  0  0  0  0  0  0  0  0  0  0
    3.6500    4.7417    0.0000 C   0  0  0  0  0  0  0  0  0  0  0  0
    3.6500    2.5333    0.0000 S   0  0  0  0  0  0  0  0  0  0  0  0
    2.3542    4.3292    0.0000 C   0  0  0  0  0  0  0  0  0  0  0  0
    5.8667    3.6458    0.0000 N   0  0  0  0  0  0  0  0  0  0  0  0
    2.3542    2.9458    0.0000 C   0  0  0  0  0  0  0  0  0  0  0  0
    7.9542    2.4375    0.0000 C   0  0  0  0  0  0  0  0  0  0  0  0
    6.5667    2.4375    0.0000 C   0  0  0  0  0  0  0  0  0  0  0  0
    4.1125    6.0875    0.0000 C   0  0  0  0  0  0  0  0  0  0  0  0
   12.9792    3.5083    0.0000 C   0  0  0  0  0  0  0  0  0  0  0  0
    4.4792    7.4292    0.0000 N   0  0  0  0  0  0  0  0  0  0  0  0
   14.1917    4.2000    0.0000 C   0  0  0  0  0  0  0  0  0  0  0  0
   15.4042    6.3000    0.0000 C   0  0  0  0  0  0  0  0  0  0  0  0
   14.1917    5.5917    0.0000 O   0  0  0  0  0  0  0  0  0  0  0  0
   10.6000    3.5083    0.0000 N   0  0  0  0  0  0  0  0  0  0  0  0
   16.6167    5.5917    0.0000 C   0  0  0  0  0  0  0  0  0  0  0  0
    9.2042    3.5083    0.0000 N   0  0  0  0  0  0  0  0  0  0  0  0
   17.8292    6.3000    0.0000 C   0  0  0  0  0  0  0  0  0  0  0  0
    8.6417    1.2375    0.0000 O   0  0  0  0  0  0  0  0  0  0  0  0
    5.8667    1.2375    0.0000 O   0  0  0  0  0  0  0  0  0  0  0  0
   12.9792    2.1083    0.0000 C   0  0  0  0  0  0  0  0  0  0  0  0
   11.7667    4.2000    0.0000 C   0  0  0  0  0  0  0  0  0  0  0  0
   15.4042    7.6500    0.0000 O   0  0  0  0  0  0  0  0  0  0  0  0
   15.4042    3.5083    0.0000 C   0  0  0  0  0  0  0  0  0  0  0  0
   14.1917    1.4083    0.0000 C   0  0  0  0  0  0  0  0  0  0  0  0
   19.0417    5.5917    0.0000 C   0  0  0  0  0  0  0  0  0  0  0  0
    1.1542    5.0250    0.0000 C   0  0  0  0  0  0  0  0  0  0  0  0
   15.4042    2.1083    0.0000 C   0  0  0  0  0  0  0  0  0  0  0  0
   14.1917   -0.0000    0.0000 Br  0  0  0  0  0  0  0  0  0  0  0  0
    1.1542    2.2583    0.0000 C   0  0  0  0  0  0  0  0  0  0  0  0
   19.0417    4.2000    0.0000 C   0  0  0  0  0  0  0  0  0  0  0  0
   20.2542    6.3000    0.0000 C   0  0  0  0  0  0  0  0  0  0  0  0
    0.0000    4.3292    0.0000 C   0  0  0  0  0  0  0  0  0  0  0  0
    0.0000    2.9458    0.0000 C   0  0  0  0  0  0  0  0  0  0  0  0
   21.4750    5.5917    0.0000 C   0  0  0  0  0  0  0  0  0  0  0  0
   20.2542    3.5083    0.0000 C   0  0  0  0  0  0  0  0  0  0  0  0
   21.4750    4.2000    0.0000 C   0  0  0  0  0  0  0  0  0  0  0  0
  1  2  2  0
  1  3  1  0
  2  4  1  0
  1  5  1  0
  3  6  1  0
  7  8  1  0
  5  8  1  0
  2  9  1  0
 10 22  1  0
  9 11  3  0
 10 12  1  0
 13 14  1  0
 12 14  1  0
 15 17  1  0
 13 16  1  0
  7 17  1  0
 16 18  2  0
  7 19  2  0
  8 20  2  0
 10 21  2  0
 15 22  2  0
 13 23  2  0
 12 24  2  0
 21 25  1  0
 18 26  1  0
  4 27  1  0
 25 28  2  0
 25 29  1  0
  6 30  1  0
 26 31  2  0
 26 32  1  0
 27 33  1  0
 30 34  1  0
 32 35  2  0
 31 36  1  0
 35 37  1  0
  4  6  2  0
 33 34  1  0
 24 28  1  0
 36 37  2  0
M  END
>  <MOLFORMULA>  (698) 
C27 H21 Br N4 O4 S

>  <MOLWEIGHT>  (698) 
5.774569000000000e+002

>  <IDNUMBER>  (698) 
AT-225/NB79116

>  <PRICE>  (698) 
EUR 140/10 mg

>  <Similarity score>  (698) 
0.16

$$$$

     RDKit          2D

 23 25  0  0  0  0  0  0  0  0999 V2000
    0.1958    1.5375    0.0000 C   0  0  0  0  0  0  0  0  0  0  0  0
   -0.5417    2.2167    0.0000 C   0  0  0  0  0  0  0  0  0  0  0  0
    1.0667    2.0250    0.0000 S   0  0  0  0  0  0  0  0  0  0  0  0
    1.4417   -2.6375    0.0000 C   0  0  0  0  0  0  0  0  0  0  0  0
   -0.1208    3.1250    0.0000 C   0  0  0  0  0  0  0  0  0  0  0  0
    0.5667   -3.1250    0.0000 S   0  0  0  0  0  0  0  0  0  0  0  0
    0.0750    0.5458    0.0000 N   0  0  0  0  0  0  0  0  0  0  0  0
    0.8708    3.0083    0.0000 C   0  0  0  0  0  0  0  0  0  0  0  0
    2.1750   -3.3167    0.0000 N   0  0  0  0  0  0  0  0  0  0  0  0
    0.7625   -4.1083    0.0000 C   0  0  0  0  0  0  0  0  0  0  0  0
    1.7583   -4.2250    0.0000 N   0  0  0  0  0  0  0  0  0  0  0  0
    0.8792   -0.0542    0.0000 C   0  0  0  0  0  0  0  0  0  0  0  0
   -1.5208    2.0250    0.0000 C   0  0  0  0  0  0  0  0  0  0  0  0
    1.5583   -1.6458    0.0000 S   0  0  0  0  0  0  0  0  0  0  0  0
   -2.1792    2.7750    0.0000 N   0  0  0  0  0  0  0  0  0  0  0  0
    0.7583   -1.0458    0.0000 C   0  0  0  0  0  0  0  0  0  0  0  0
    1.7958    0.3417    0.0000 O   0  0  0  0  0  0  0  0  0  0  0  0
    0.0833   -4.8417    0.0000 N   0  0  0  0  0  0  0  0  0  0  0  0
   -0.5125    4.0417    0.0000 C   0  0  0  0  0  0  0  0  0  0  0  0
    1.4708    3.8083    0.0000 C   0  0  0  0  0  0  0  0  0  0  0  0
   -0.1583   -1.4417    0.0000 C   0  0  0  0  0  0  0  0  0  0  0  0
    0.0833    4.8417    0.0000 C   0  0  0  0  0  0  0  0  0  0  0  0
    1.0792    4.7208    0.0000 C   0  0  0  0  0  0  0  0  0  0  0  0
  1  2  2  0
  1  3  1  0
  4 14  1  0
  2  5  1  0
  4  6  1  0
  1  7  1  0
  3  8  1  0
  4  9  2  0
  6 10  1  0
  9 11  1  0
  7 12  1  0
  2 13  1  0
 14 16  1  0
 13 15  3  0
 12 16  1  0
 12 17  2  0
 10 18  1  0
  5 19  1  0
  8 20  1  0
 16 21  1  0
 19 22  1  0
 20 23  1  0
  5  8  2  0
 22 23  1  0
 10 11  2  0
M  END
>  <MOLFORMULA>  (699) 
C14 H15 N5 O S3

>  <MOLWEIGHT>  (699) 
3.655045000000000e+002

>  <IDNUMBER>  (699) 
AN-153/I240405

>  <PRICE>  (699) 
EUR 130/10 mg

>  <Similarity score>  (699) 
0.16

$$$$

     RDKit          2D

 23 25  0  0  0  0  0  0  0  0999 V2000
   -1.5333    0.7208    0.0000 C   0  0  0  0  0  0  0  0  0  0  0  0
    1.0083   -0.4167    0.0000 C   0  0  0  0  0  0  0  0  0  0  0  0
    1.4250    0.2958    0.0000 C   0  0  0  0  0  0  0  0  0  0  0  0
   -1.5333    1.5458    0.0000 C   0  0  0  0  0  0  0  0  0  0  0  0
    0.6042    0.2958    0.0000 C   0  0  0  0  0  0  0  0  0  0  0  0
   -0.1042    0.7125    0.0000 C   0  0  0  0  0  0  0  0  0  0  0  0
   -2.2500    0.3125    0.0000 S   0  0  0  0  0  0  0  0  0  0  0  0
   -2.9583    1.5500    0.0000 C   0  0  0  0  0  0  0  0  0  0  0  0
   -0.8250    0.3042    0.0000 N   0  0  0  0  0  0  0  0  0  0  0  0
   -2.9625    0.7250    0.0000 C   0  0  0  0  0  0  0  0  0  0  0  0
    2.1333    0.7125    0.0000 C   0  0  0  0  0  0  0  0  0  0  0  0
   -0.8208    1.9625    0.0000 C   0  0  0  0  0  0  0  0  0  0  0  0
    2.1250    1.5375    0.0000 C   0  0  0  0  0  0  0  0  0  0  0  0
   -0.8250    2.7875    0.0000 N   0  0  0  0  0  0  0  0  0  0  0  0
   -0.1000    1.5375    0.0000 O   0  0  0  0  0  0  0  0  0  0  0  0
    0.5917   -1.1292    0.0000 C   0  0  0  0  0  0  0  0  0  0  0  0
    1.4167   -1.1292    0.0000 C   0  0  0  0  0  0  0  0  0  0  0  0
    2.8375    1.9583    0.0000 Cl  0  0  0  0  0  0  0  0  0  0  0  0
    1.4083    1.9417    0.0000 Cl  0  0  0  0  0  0  0  0  0  0  0  0
   -3.6708    1.9708    0.0000 C   0  0  0  0  0  0  0  0  0  0  0  0
   -3.6708    0.3208    0.0000 C   0  0  0  0  0  0  0  0  0  0  0  0
   -4.3833    1.5500    0.0000 C   0  0  0  0  0  0  0  0  0  0  0  0
   -4.3833    0.7250    0.0000 C   0  0  0  0  0  0  0  0  0  0  0  0
  2  5  1  0
  3  5  1  0
  1  4  2  0
  5  6  1  0
  6  9  1  0
  1  7  1  0
  4  8  1  0
  1  9  1  0
  7 10  1  0
  3 11  1  0
  4 12  1  0
 11 13  2  0
 12 14  3  0
  6 15  2  0
  2 16  1  0
  2 17  1  0
 13 18  1  0
 13 19  1  0
  8 20  1  0
 10 21  1  0
 20 22  1  0
 21 23  1  0
  8 10  2  0
  2  3  1  0
 22 23  1  0
M  END
>  <MOLFORMULA>  (700) 
C17 H18 Cl2 N2 O S

>  <MOLWEIGHT>  (700) 
3.693142000000000e+002

>  <IDNUMBER>  (700) 
AT-225/NB75261

>  <PRICE>  (700) 
EUR 140/10 mg

>  <Similarity score>  (700) 
0.16

$$$$

     RDKit          2D

 33 37  0  0  0  0  0  0  0  0999 V2000
    8.6875   -5.5000    0.0000 C   0  0  0  0  0  0  0  0  0  0  0  0
    8.0125   -5.9750    0.0000 N   0  0  0  0  0  0  0  0  0  0  0  0
    8.7000   -4.6750    0.0000 C   0  0  0  0  0  0  0  0  0  0  0  0
    9.4750   -5.7667    0.0000 S   0  0  0  0  0  0  0  0  0  0  0  0
    4.6417   -7.0917    0.0000 C   0  0  0  0  0  0  0  0  0  0  0  0
    6.7292   -6.3875    0.0000 C   0  0  0  0  0  0  0  0  0  0  0  0
    4.1542   -6.4125    0.0000 N   0  0  0  0  0  0  0  0  0  0  0  0
    5.4750   -7.1042    0.0000 C   0  0  0  0  0  0  0  0  0  0  0  0
    8.0000   -6.8042    0.0000 C   0  0  0  0  0  0  0  0  0  0  0  0
    7.2292   -5.7125    0.0000 C   0  0  0  0  0  0  0  0  0  0  0  0
    9.4750   -4.4250    0.0000 C   0  0  0  0  0  0  0  0  0  0  0  0
    9.9542   -5.1042    0.0000 C   0  0  0  0  0  0  0  0  0  0  0  0
    4.1542   -7.7625    0.0000 N   0  0  0  0  0  0  0  0  0  0  0  0
    5.8917   -6.3875    0.0000 C   0  0  0  0  0  0  0  0  0  0  0  0
    7.2042   -7.0542    0.0000 C   0  0  0  0  0  0  0  0  0  0  0  0
    3.3792   -6.6667    0.0000 C   0  0  0  0  0  0  0  0  0  0  0  0
    8.0292   -4.1792    0.0000 C   0  0  0  0  0  0  0  0  0  0  0  0
    3.3667   -7.4917    0.0000 C   0  0  0  0  0  0  0  0  0  0  0  0
    5.8875   -7.8250    0.0000 C   0  0  0  0  0  0  0  0  0  0  0  0
    7.4417   -3.5917    0.0000 N   0  0  0  0  0  0  0  0  0  0  0  0
    6.2917   -8.5500    0.0000 N   0  0  0  0  0  0  0  0  0  0  0  0
    2.6625   -6.2417    0.0000 C   0  0  0  0  0  0  0  0  0  0  0  0
    2.6500   -7.9042    0.0000 C   0  0  0  0  0  0  0  0  0  0  0  0
    1.9417   -6.6542    0.0000 C   0  0  0  0  0  0  0  0  0  0  0  0
    8.6625   -7.3042    0.0000 C   0  0  0  0  0  0  0  0  0  0  0  0
    9.8167   -3.6667    0.0000 C   0  0  0  0  0  0  0  0  0  0  0  0
    6.9792   -4.9292    0.0000 C   0  0  0  0  0  0  0  0  0  0  0  0
    1.9292   -7.4792    0.0000 C   0  0  0  0  0  0  0  0  0  0  0  0
   10.7792   -5.0250    0.0000 C   0  0  0  0  0  0  0  0  0  0  0  0
    1.2292   -6.2375    0.0000 O   0  0  0  0  0  0  0  0  0  0  0  0
    1.2417   -5.4125    0.0000 C   0  0  0  0  0  0  0  0  0  0  0  0
   10.6417   -3.5792    0.0000 C   0  0  0  0  0  0  0  0  0  0  0  0
   11.1292   -4.2667    0.0000 C   0  0  0  0  0  0  0  0  0  0  0  0
  1  2  1  0
  1  3  2  0
  1  4  1  0
  5  8  1  0
  6 10  2  0
  5  7  2  0
  8 14  2  0
  2  9  1  0
  2 10  1  0
  3 11  1  0
  4 12  1  0
  5 13  1  0
  6 14  1  0
  9 15  2  0
  7 16  1  0
  3 17  1  0
 13 18  1  0
  8 19  1  0
 17 20  3  0
 19 21  3  0
 16 22  1  0
 18 23  1  0
 22 24  2  0
  9 25  1  0
 11 26  1  0
 10 27  1  0
 23 28  2  0
 12 29  1  0
 24 30  1  0
 30 31  1  0
 26 32  1  0
 29 33  1  0
 11 12  2  0
  6 15  1  0
 32 33  1  0
 16 18  2  0
 24 28  1  0
M  END
>  <MOLFORMULA>  (701) 
C26 H23 N5 O S

>  <MOLWEIGHT>  (701) 
4.535677000000000e+002

>  <IDNUMBER>  (701) 
AT-139/J204542

>  <PRICE>  (701) 
EUR 125.00/10 mg

>  <Similarity score>  (701) 
0.20

$$$$

     RDKit          2D

 33 37  0  0  0  0  0  0  0  0999 V2000
    4.9917    4.0792    0.0000 C   0  0  0  0  0  0  0  0  0  0  0  0
    4.8917    3.2833    0.0000 N   0  0  0  0  0  0  0  0  0  0  0  0
    5.7125    4.4792    0.0000 C   0  0  0  0  0  0  0  0  0  0  0  0
    4.4042    4.6417    0.0000 S   0  0  0  0  0  0  0  0  0  0  0  0
    4.3167    0.5583    0.0000 C   0  0  0  0  0  0  0  0  0  0  0  0
    5.1542    1.9833    0.0000 C   0  0  0  0  0  0  0  0  0  0  0  0
    3.8292   -0.1042    0.0000 N   0  0  0  0  0  0  0  0  0  0  0  0
    5.1417    0.5583    0.0000 C   0  0  0  0  0  0  0  0  0  0  0  0
    4.1917    2.8750    0.0000 C   0  0  0  0  0  0  0  0  0  0  0  0
    5.5042    2.7250    0.0000 C   0  0  0  0  0  0  0  0  0  0  0  0
    5.5542    5.2792    0.0000 C   0  0  0  0  0  0  0  0  0  0  0  0
    4.7417    5.3875    0.0000 C   0  0  0  0  0  0  0  0  0  0  0  0
    3.8292    1.2333    0.0000 N   0  0  0  0  0  0  0  0  0  0  0  0
    5.5542    1.2750    0.0000 C   0  0  0  0  0  0  0  0  0  0  0  0
    4.3417    2.0708    0.0000 C   0  0  0  0  0  0  0  0  0  0  0  0
    3.0417    0.1458    0.0000 C   0  0  0  0  0  0  0  0  0  0  0  0
    6.4542    4.1375    0.0000 C   0  0  0  0  0  0  0  0  0  0  0  0
    3.0417    0.9708    0.0000 C   0  0  0  0  0  0  0  0  0  0  0  0
    5.5542   -0.1542    0.0000 C   0  0  0  0  0  0  0  0  0  0  0  0
    7.2000    3.8000    0.0000 N   0  0  0  0  0  0  0  0  0  0  0  0
    5.9625   -0.8667    0.0000 N   0  0  0  0  0  0  0  0  0  0  0  0
    2.3292   -0.2667    0.0000 C   0  0  0  0  0  0  0  0  0  0  0  0
    2.3292    1.3833    0.0000 C   0  0  0  0  0  0  0  0  0  0  0  0
    1.6167    0.1458    0.0000 C   0  0  0  0  0  0  0  0  0  0  0  0
    3.4375    3.2208    0.0000 C   0  0  0  0  0  0  0  0  0  0  0  0
    6.0417    5.9292    0.0000 C   0  0  0  0  0  0  0  0  0  0  0  0
    6.3042    2.8833    0.0000 C   0  0  0  0  0  0  0  0  0  0  0  0
    1.6167    0.9708    0.0000 C   0  0  0  0  0  0  0  0  0  0  0  0
    4.4167    6.1292    0.0000 C   0  0  0  0  0  0  0  0  0  0  0  0
    0.9042   -0.2667    0.0000 O   0  0  0  0  0  0  0  0  0  0  0  0
    0.9042   -1.0917    0.0000 C   0  0  0  0  0  0  0  0  0  0  0  0
    5.7292    6.6917    0.0000 C   0  0  0  0  0  0  0  0  0  0  0  0
    4.9167    6.7917    0.0000 C   0  0  0  0  0  0  0  0  0  0  0  0
  1  2  1  0
  1  3  2  0
  1  4  1  0
  5  8  1  0
  6 10  2  0
  5  7  2  0
  8 14  2  0
  2  9  1  0
  2 10  1  0
  3 11  1  0
  4 12  1  0
  5 13  1  0
  6 14  1  0
  9 15  2  0
  7 16  1  0
  3 17  1  0
 13 18  1  0
  8 19  1  0
 17 20  3  0
 19 21  3  0
 16 22  2  0
 18 23  2  0
 22 24  1  0
  9 25  1  0
 11 26  1  0
 10 27  1  0
 23 28  1  0
 12 29  1  0
 24 30  1  0
 30 31  1  0
 26 32  1  0
 29 33  1  0
 11 12  2  0
  6 15  1  0
 32 33  1  0
 16 18  1  0
 24 28  2  0
M  END
>  <MOLFORMULA>  (702) 
C26 H23 N5 O S

>  <MOLWEIGHT>  (702) 
4.535677000000000e+002

>  <IDNUMBER>  (702) 
AM-879/MD25802

>  <PRICE>  (702) 
EUR 55.00/10 mg

>  <Similarity score>  (702) 
0.20

$$$$

     RDKit          2D

 38 42  0  0  0  0  0  0  0  0999 V2000
   -4.6833   -0.0000    0.0000 C   0  0  0  0  0  0  0  0  0  0  0  0
   -5.9042    0.5417    0.0000 C   0  0  0  0  0  0  0  0  0  0  0  0
    5.7208    0.9000    0.0000 N   0  0  0  0  0  0  0  0  0  0  0  0
    4.9208    1.9667    0.0000 N   0  0  0  0  0  0  0  0  0  0  0  0
    3.7042    0.2333    0.0000 C   0  0  0  0  0  0  0  0  0  0  0  0
   -4.8208   -1.3375    0.0000 S   0  0  0  0  0  0  0  0  0  0  0  0
    4.9542   -0.1792    0.0000 C   0  0  0  0  0  0  0  0  0  0  0  0
   -6.7958   -0.4583    0.0000 C   0  0  0  0  0  0  0  0  0  0  0  0
   -3.4833    0.6625    0.0000 N   0  0  0  0  0  0  0  0  0  0  0  0
   -6.1375   -1.6167    0.0000 C   0  0  0  0  0  0  0  0  0  0  0  0
    3.7042    1.5833    0.0000 C   0  0  0  0  0  0  0  0  0  0  0  0
   -1.1625    0.6625    0.0000 C   0  0  0  0  0  0  0  0  0  0  0  0
   -2.3208   -0.0000    0.0000 C   0  0  0  0  0  0  0  0  0  0  0  0
   -6.1667    1.8500    0.0000 C   0  0  0  0  0  0  0  0  0  0  0  0
   -6.4375    3.1625    0.0000 N   0  0  0  0  0  0  0  0  0  0  0  0
    1.3375   -0.0000    0.0000 N   0  0  0  0  0  0  0  0  0  0  0  0
    5.2375   -1.5292    0.0000 C   0  0  0  0  0  0  0  0  0  0  0  0
    2.5708   -0.5292    0.0000 C   0  0  0  0  0  0  0  0  0  0  0  0
    0.0000   -0.0000    0.0000 N   0  0  0  0  0  0  0  0  0  0  0  0
    5.3875    3.2667    0.0000 C   0  0  0  0  0  0  0  0  0  0  0  0
   -1.1625    1.9917    0.0000 O   0  0  0  0  0  0  0  0  0  0  0  0
   -2.3208   -1.3292    0.0000 O   0  0  0  0  0  0  0  0  0  0  0  0
    6.5208   -1.9625    0.0000 C   0  0  0  0  0  0  0  0  0  0  0  0
    4.2542   -2.4125    0.0000 C   0  0  0  0  0  0  0  0  0  0  0  0
    5.8042   -4.1792    0.0000 C   0  0  0  0  0  0  0  0  0  0  0  0
   -8.1583   -0.4583    0.0000 C   0  0  0  0  0  0  0  0  0  0  0  0
    4.5042   -3.7458    0.0000 C   0  0  0  0  0  0  0  0  0  0  0  0
    6.7875   -3.2458    0.0000 C   0  0  0  0  0  0  0  0  0  0  0  0
   -6.7958   -2.7792    0.0000 C   0  0  0  0  0  0  0  0  0  0  0  0
    6.1042   -5.4792    0.0000 O   0  0  0  0  0  0  0  0  0  0  0  0
    4.5542    4.2958    0.0000 C   0  0  0  0  0  0  0  0  0  0  0  0
    6.7375    3.4833    0.0000 C   0  0  0  0  0  0  0  0  0  0  0  0
    7.3375   -5.8458    0.0000 C   0  0  0  0  0  0  0  0  0  0  0  0
   -8.8167   -1.6167    0.0000 C   0  0  0  0  0  0  0  0  0  0  0  0
   -8.1583   -2.7792    0.0000 C   0  0  0  0  0  0  0  0  0  0  0  0
    7.1875    4.7625    0.0000 C   0  0  0  0  0  0  0  0  0  0  0  0
    4.9875    5.5458    0.0000 C   0  0  0  0  0  0  0  0  0  0  0  0
    6.2875    5.8125    0.0000 C   0  0  0  0  0  0  0  0  0  0  0  0
  1  2  2  0
  3  7  2  0
  4 11  1  0
  5 18  1  0
  1  6  1  0
  5  7  1  0
  2  8  1  0
  1  9  1  0
  6 10  1  0
  5 11  2  0
 12 13  1  0
  9 13  1  0
  2 14  1  0
 14 15  3  0
 16 19  1  0
  7 17  1  0
 16 18  2  0
 12 19  1  0
  4 20  1  0
 12 21  2  0
 13 22  2  0
 17 23  1  0
 17 24  2  0
 25 27  2  0
  8 26  1  0
 24 27  1  0
 23 28  2  0
 10 29  1  0
 25 30  1  0
 20 31  1  0
 20 32  2  0
 30 33  1  0
 26 34  1  0
 29 35  1  0
 32 36  1  0
 31 37  2  0
 36 38  2  0
  8 10  2  0
 34 35  1  0
  3  4  1  0
 25 28  1  0
 37 38  1  0
M  END
>  <MOLFORMULA>  (703) 
C28 H24 N6 O3 S

>  <MOLWEIGHT>  (703) 
5.246026000000001e+002

>  <IDNUMBER>  (703) 
AT-225/NB77288

>  <PRICE>  (703) 
EUR 140/10 mg

>  <Similarity score>  (703) 
0.20

$$$$

     RDKit          2D

 27 30  0  0  0  0  0  0  0  0999 V2000
    2.6125    1.3000    0.0000 C   0  0  0  0  0  0  0  0  0  0  0  0
    3.6083    1.4042    0.0000 C   0  0  0  0  0  0  0  0  0  0  0  0
    2.2083    2.2167    0.0000 S   0  0  0  0  0  0  0  0  0  0  0  0
    3.8167    2.3833    0.0000 C   0  0  0  0  0  0  0  0  0  0  0  0
   -0.8875   -1.2958    0.0000 C   0  0  0  0  0  0  0  0  0  0  0  0
   -1.8792   -1.4000    0.0000 N   0  0  0  0  0  0  0  0  0  0  0  0
    2.9500    2.8833    0.0000 C   0  0  0  0  0  0  0  0  0  0  0  0
   -0.4792   -2.2125    0.0000 N   0  0  0  0  0  0  0  0  0  0  0  0
    2.1125    0.4333    0.0000 N   0  0  0  0  0  0  0  0  0  0  0  0
   -2.0875   -2.3792    0.0000 C   0  0  0  0  0  0  0  0  0  0  0  0
    4.2792    0.6625    0.0000 C   0  0  0  0  0  0  0  0  0  0  0  0
   -1.2208   -2.8792    0.0000 C   0  0  0  0  0  0  0  0  0  0  0  0
    3.9667   -0.2875    0.0000 N   0  0  0  0  0  0  0  0  0  0  0  0
    1.1125    0.4333    0.0000 C   0  0  0  0  0  0  0  0  0  0  0  0
   -2.9542   -2.8792    0.0000 C   0  0  0  0  0  0  0  0  0  0  0  0
   -0.3875   -0.4292    0.0000 S   0  0  0  0  0  0  0  0  0  0  0  0
    0.6125    1.3000    0.0000 O   0  0  0  0  0  0  0  0  0  0  0  0
   -1.2208   -3.8792    0.0000 C   0  0  0  0  0  0  0  0  0  0  0  0
    0.6125   -0.4292    0.0000 C   0  0  0  0  0  0  0  0  0  0  0  0
   -2.9542   -3.8792    0.0000 C   0  0  0  0  0  0  0  0  0  0  0  0
   -2.0875   -4.3792    0.0000 C   0  0  0  0  0  0  0  0  0  0  0  0
    4.6833    2.8833    0.0000 C   0  0  0  0  0  0  0  0  0  0  0  0
    2.9500    3.8833    0.0000 C   0  0  0  0  0  0  0  0  0  0  0  0
   -3.8208   -4.3792    0.0000 O   0  0  0  0  0  0  0  0  0  0  0  0
   -4.6875   -3.8792    0.0000 C   0  0  0  0  0  0  0  0  0  0  0  0
    4.6833    3.8833    0.0000 C   0  0  0  0  0  0  0  0  0  0  0  0
    3.8167    4.3792    0.0000 C   0  0  0  0  0  0  0  0  0  0  0  0
  1  2  2  0
  1  3  1  0
  2  4  1  0
  5 16  1  0
  5  6  2  0
  3  7  1  0
  5  8  1  0
  1  9  1  0
  6 10  1  0
  2 11  1  0
  8 12  1  0
 11 13  3  0
  9 14  1  0
 10 15  1  0
 16 19  1  0
 14 17  2  0
 12 18  1  0
 14 19  1  0
 15 20  2  0
 18 21  2  0
  4 22  1  0
  7 23  1  0
 20 24  1  0
 24 25  1  0
 22 26  1  0
 23 27  1  0
  4  7  2  0
 26 27  1  0
 10 12  2  0
 20 21  1  0
M  END
>  <MOLFORMULA>  (704) 
C19 H18 N4 O2 S2

>  <MOLWEIGHT>  (704) 
3.985092000000000e+002

>  <IDNUMBER>  (704) 
AN-153/I137971

>  <PRICE>  (704) 
EUR 130/10 mg

>  <Similarity score>  (704) 
0.19

$$$$

     RDKit          2D

 23 25  0  0  0  0  0  0  0  0999 V2000
    2.9917   -6.3167    0.0000 N   0  0  0  0  0  0  0  0  0  0  0  0
    2.1042   -7.3125    0.0000 C   0  0  0  0  0  0  0  0  0  0  0  0
    8.9417   -2.8542    0.0000 N   0  0  0  0  0  0  0  0  0  0  0  0
    4.2042   -6.8417    0.0000 N   0  0  0  0  0  0  0  0  0  0  0  0
    8.8042   -4.1792    0.0000 C   0  0  0  0  0  0  0  0  0  0  0  0
   10.0292   -4.7125    0.0000 N   0  0  0  0  0  0  0  0  0  0  0  0
    2.7667   -8.4625    0.0000 C   0  0  0  0  0  0  0  0  0  0  0  0
    4.0667   -8.1875    0.0000 C   0  0  0  0  0  0  0  0  0  0  0  0
   10.2292   -2.5750    0.0000 C   0  0  0  0  0  0  0  0  0  0  0  0
    0.7792   -7.1625    0.0000 C   0  0  0  0  0  0  0  0  0  0  0  0
   10.9167   -3.7250    0.0000 O   0  0  0  0  0  0  0  0  0  0  0  0
    5.3542   -6.1917    0.0000 C   0  0  0  0  0  0  0  0  0  0  0  0
    7.6542   -4.8625    0.0000 C   0  0  0  0  0  0  0  0  0  0  0  0
    0.0000   -8.2375    0.0000 O   0  0  0  0  0  0  0  0  0  0  0  0
    6.5042   -6.8417    0.0000 C   0  0  0  0  0  0  0  0  0  0  0  0
    5.3542   -4.8625    0.0000 C   0  0  0  0  0  0  0  0  0  0  0  0
    7.6542   -6.1917    0.0000 C   0  0  0  0  0  0  0  0  0  0  0  0
    6.5042   -4.1917    0.0000 C   0  0  0  0  0  0  0  0  0  0  0  0
    0.2375   -5.9500    0.0000 O   0  0  0  0  0  0  0  0  0  0  0  0
   10.7708   -1.3500    0.0000 C   0  0  0  0  0  0  0  0  0  0  0  0
    1.0167   -4.8750    0.0000 C   0  0  0  0  0  0  0  0  0  0  0  0
   12.0917   -1.2125    0.0000 C   0  0  0  0  0  0  0  0  0  0  0  0
   12.6292   -0.0000    0.0000 C   0  0  0  0  0  0  0  0  0  0  0  0
  1  2  2  0
  3  5  1  0
  1  4  1  0
  5 13  1  0
  5  6  2  0
  2  7  1  0
  4  8  1  0
  3  9  2  0
  2 10  1  0
  6 11  1  0
  4 12  1  0
 13 18  2  0
 10 14  2  0
 12 15  1  0
 12 16  2  0
 15 17  2  0
 16 18  1  0
 10 19  1  0
  9 20  1  0
 19 21  1  0
 20 22  1  0
 22 23  1  0
  7  8  2  0
 13 17  1  0
  9 11  1  0
M  END
>  <MOLFORMULA>  (705) 
C16 H16 N4 O3

>  <MOLWEIGHT>  (705) 
3.123274000000000e+002

>  <IDNUMBER>  (705) 
AT-687/NB03490

>  <PRICE>  (705) 
EUR 80/10 mg

>  <Similarity score>  (705) 
0.19

$$$$

     RDKit          2D

 21 23  0  0  0  0  0  0  0  0999 V2000
    2.2042   -3.5542    0.0000 N   0  0  0  0  0  0  0  0  0  0  0  0
    1.8042   -2.2792    0.0000 C   0  0  0  0  0  0  0  0  0  0  0  0
    2.2375  -10.4375    0.0000 N   0  0  0  0  0  0  0  0  0  0  0  0
    1.1417   -4.3375    0.0000 N   0  0  0  0  0  0  0  0  0  0  0  0
    1.1542   -9.6542    0.0000 C   0  0  0  0  0  0  0  0  0  0  0  0
    0.0792  -10.4375    0.0000 N   0  0  0  0  0  0  0  0  0  0  0  0
    0.4750   -2.2917    0.0000 C   0  0  0  0  0  0  0  0  0  0  0  0
    0.0667   -3.5542    0.0000 C   0  0  0  0  0  0  0  0  0  0  0  0
    1.8167  -11.7125    0.0000 C   0  0  0  0  0  0  0  0  0  0  0  0
    2.5875   -1.2167    0.0000 C   0  0  0  0  0  0  0  0  0  0  0  0
    0.4875  -11.7125    0.0000 O   0  0  0  0  0  0  0  0  0  0  0  0
    1.1542   -5.6667    0.0000 C   0  0  0  0  0  0  0  0  0  0  0  0
    1.1542   -8.3250    0.0000 C   0  0  0  0  0  0  0  0  0  0  0  0
    2.0250   -0.0000    0.0000 O   0  0  0  0  0  0  0  0  0  0  0  0
    0.0000   -6.3375    0.0000 C   0  0  0  0  0  0  0  0  0  0  0  0
    2.3042   -6.3375    0.0000 C   0  0  0  0  0  0  0  0  0  0  0  0
    0.0000   -7.6667    0.0000 C   0  0  0  0  0  0  0  0  0  0  0  0
    2.3042   -7.6542    0.0000 C   0  0  0  0  0  0  0  0  0  0  0  0
    3.9042   -1.3417    0.0000 O   0  0  0  0  0  0  0  0  0  0  0  0
    2.6000  -12.7875    0.0000 C   0  0  0  0  0  0  0  0  0  0  0  0
    2.0542  -13.9917    0.0000 C   0  0  0  0  0  0  0  0  0  0  0  0
  1  2  2  0
  3  5  1  0
  1  4  1  0
  5 13  1  0
  5  6  2  0
  2  7  1  0
  4  8  1  0
  3  9  2  0
  2 10  1  0
  6 11  1  0
  4 12  1  0
 13 18  2  0
 10 14  2  0
 12 15  1  0
 12 16  2  0
 15 17  2  0
 16 18  1  0
 10 19  1  0
  9 20  1  0
 20 21  1  0
  7  8  2  0
 13 17  1  0
  9 11  1  0
M  END
>  <MOLFORMULA>  (706) 
C14 H12 N4 O3

>  <MOLWEIGHT>  (706) 
2.842738000000000e+002

>  <IDNUMBER>  (706) 
AT-687/NB03489

>  <PRICE>  (706) 
EUR 80/10 mg

>  <Similarity score>  (706) 
0.19

$$$$

     RDKit          2D

 21 23  0  0  0  0  0  0  0  0999 V2000
    4.4750   -2.4000    0.0000 N   0  0  0  0  0  0  0  0  0  0  0  0
    4.2167   -1.6167    0.0000 C   0  0  0  0  0  0  0  0  0  0  0  0
    4.4792   -6.6750    0.0000 N   0  0  0  0  0  0  0  0  0  0  0  0
    3.8042   -2.8917    0.0000 N   0  0  0  0  0  0  0  0  0  0  0  0
    3.8167   -6.1917    0.0000 C   0  0  0  0  0  0  0  0  0  0  0  0
    3.1500   -6.6750    0.0000 N   0  0  0  0  0  0  0  0  0  0  0  0
    3.3917   -1.6250    0.0000 C   0  0  0  0  0  0  0  0  0  0  0  0
    3.1417   -2.4000    0.0000 C   0  0  0  0  0  0  0  0  0  0  0  0
    4.2250   -7.4542    0.0000 C   0  0  0  0  0  0  0  0  0  0  0  0
    4.7000   -0.9500    0.0000 C   0  0  0  0  0  0  0  0  0  0  0  0
    3.4000   -7.4542    0.0000 O   0  0  0  0  0  0  0  0  0  0  0  0
    3.8167   -3.7167    0.0000 C   0  0  0  0  0  0  0  0  0  0  0  0
    3.8167   -5.3667    0.0000 C   0  0  0  0  0  0  0  0  0  0  0  0
    4.3542   -0.2000    0.0000 O   0  0  0  0  0  0  0  0  0  0  0  0
    3.1000   -4.1250    0.0000 C   0  0  0  0  0  0  0  0  0  0  0  0
    4.5250   -4.1250    0.0000 C   0  0  0  0  0  0  0  0  0  0  0  0
    4.5250   -4.9500    0.0000 C   0  0  0  0  0  0  0  0  0  0  0  0
    3.1000   -4.9500    0.0000 C   0  0  0  0  0  0  0  0  0  0  0  0
    5.5250   -1.0292    0.0000 O   0  0  0  0  0  0  0  0  0  0  0  0
    4.7167   -8.1250    0.0000 C   0  0  0  0  0  0  0  0  0  0  0  0
    4.3750   -8.8750    0.0000 C   0  0  0  0  0  0  0  0  0  0  0  0
  1  2  2  0
  3  5  1  0
  1  4  1  0
  5 13  1  0
  5  6  2  0
  2  7  1  0
  4  8  1  0
  3  9  2  0
  2 10  1  0
  6 11  1  0
  4 12  1  0
 13 17  1  0
 10 14  2  0
 12 15  2  0
 12 16  1  0
 16 17  2  0
 15 18  1  0
 10 19  1  0
  9 20  1  0
 20 21  1  0
  7  8  2  0
 13 18  2  0
  9 11  1  0
M  END
>  <MOLFORMULA>  (707) 
C14 H12 N4 O3

>  <MOLWEIGHT>  (707) 
2.842738000000000e+002

>  <IDNUMBER>  (707) 
AT-687/PE32958

>  <PRICE>  (707) 
EUR 80/10 mg

>  <Similarity score>  (707) 
0.19

$$$$

     RDKit          2D

 22 24  0  0  0  0  0  0  0  0999 V2000
    4.9000   -9.9500    0.0000 N   0  0  0  0  0  0  0  0  0  0  0  0
    4.1000  -10.1250    0.0000 C   0  0  0  0  0  0  0  0  0  0  0  0
    8.6000   -7.8000    0.0000 N   0  0  0  0  0  0  0  0  0  0  0  0
    4.9917   -9.1250    0.0000 N   0  0  0  0  0  0  0  0  0  0  0  0
    7.8500   -7.4750    0.0000 C   0  0  0  0  0  0  0  0  0  0  0  0
    7.9250   -6.6500    0.0000 N   0  0  0  0  0  0  0  0  0  0  0  0
    3.6917   -9.4042    0.0000 C   0  0  0  0  0  0  0  0  0  0  0  0
    4.2417   -8.8000    0.0000 C   0  0  0  0  0  0  0  0  0  0  0  0
    9.1500   -7.1917    0.0000 C   0  0  0  0  0  0  0  0  0  0  0  0
    3.7667  -10.8750    0.0000 C   0  0  0  0  0  0  0  0  0  0  0  0
    8.7292   -6.4750    0.0000 O   0  0  0  0  0  0  0  0  0  0  0  0
    5.7000   -8.7167    0.0000 C   0  0  0  0  0  0  0  0  0  0  0  0
    7.1292   -7.8917    0.0000 C   0  0  0  0  0  0  0  0  0  0  0  0
    2.9417  -10.9667    0.0000 O   0  0  0  0  0  0  0  0  0  0  0  0
    6.4167   -9.1250    0.0000 C   0  0  0  0  0  0  0  0  0  0  0  0
    5.7000   -7.8917    0.0000 C   0  0  0  0  0  0  0  0  0  0  0  0
    6.4167   -7.4750    0.0000 C   0  0  0  0  0  0  0  0  0  0  0  0
    7.1292   -8.7167    0.0000 C   0  0  0  0  0  0  0  0  0  0  0  0
    4.2500  -11.5500    0.0000 O   0  0  0  0  0  0  0  0  0  0  0  0
    9.9750   -7.2750    0.0000 C   0  0  0  0  0  0  0  0  0  0  0  0
    3.9042  -12.3000    0.0000 C   0  0  0  0  0  0  0  0  0  0  0  0
   10.3042   -8.0250    0.0000 C   0  0  0  0  0  0  0  0  0  0  0  0
  1  2  2  0
  3  5  1  0
  1  4  1  0
  5 13  1  0
  5  6  2  0
  2  7  1  0
  4  8  1  0
  3  9  2  0
  2 10  1  0
  6 11  1  0
  4 12  1  0
 13 17  1  0
 10 14  2  0
 12 15  2  0
 12 16  1  0
 16 17  2  0
 15 18  1  0
 10 19  1  0
  9 20  1  0
 19 21  1  0
 20 22  1  0
  7  8  2  0
 13 18  2  0
  9 11  1  0
M  END
>  <MOLFORMULA>  (708) 
C15 H14 N4 O3

>  <MOLWEIGHT>  (708) 
2.983006000000000e+002

>  <IDNUMBER>  (708) 
AT-687/PE32959

>  <PRICE>  (708) 
EUR 80/10 mg

>  <Similarity score>  (708) 
0.19

$$$$

     RDKit          2D

 22 24  0  0  0  0  0  0  0  0999 V2000
    3.1625   -5.6125    0.0000 N   0  0  0  0  0  0  0  0  0  0  0  0
    1.8667   -5.8917    0.0000 C   0  0  0  0  0  0  0  0  0  0  0  0
    9.1292   -2.1375    0.0000 N   0  0  0  0  0  0  0  0  0  0  0  0
    3.3042   -4.2792    0.0000 N   0  0  0  0  0  0  0  0  0  0  0  0
    7.9167   -1.6167    0.0000 C   0  0  0  0  0  0  0  0  0  0  0  0
    8.0500   -0.2792    0.0000 N   0  0  0  0  0  0  0  0  0  0  0  0
    1.2125   -4.7417    0.0000 C   0  0  0  0  0  0  0  0  0  0  0  0
    2.0917   -3.7542    0.0000 C   0  0  0  0  0  0  0  0  0  0  0  0
   10.0208   -1.1500    0.0000 C   0  0  0  0  0  0  0  0  0  0  0  0
    1.3292   -7.1125    0.0000 C   0  0  0  0  0  0  0  0  0  0  0  0
    9.3417   -0.0000    0.0000 O   0  0  0  0  0  0  0  0  0  0  0  0
    4.4542   -3.6125    0.0000 C   0  0  0  0  0  0  0  0  0  0  0  0
    6.7667   -2.2792    0.0000 C   0  0  0  0  0  0  0  0  0  0  0  0
    0.0000   -7.2542    0.0000 O   0  0  0  0  0  0  0  0  0  0  0  0
    5.6000   -4.2792    0.0000 C   0  0  0  0  0  0  0  0  0  0  0  0
    4.4542   -2.2792    0.0000 C   0  0  0  0  0  0  0  0  0  0  0  0
    6.7667   -3.6125    0.0000 C   0  0  0  0  0  0  0  0  0  0  0  0
    5.6000   -1.6167    0.0000 C   0  0  0  0  0  0  0  0  0  0  0  0
    2.1042   -8.1917    0.0000 O   0  0  0  0  0  0  0  0  0  0  0  0
   11.3417   -1.2917    0.0000 C   0  0  0  0  0  0  0  0  0  0  0  0
    1.5667   -9.4042    0.0000 C   0  0  0  0  0  0  0  0  0  0  0  0
   11.8917   -2.4917    0.0000 C   0  0  0  0  0  0  0  0  0  0  0  0
  1  2  2  0
  3  5  1  0
  1  4  1  0
  5 13  1  0
  5  6  2  0
  2  7  1  0
  4  8  1  0
  3  9  2  0
  2 10  1  0
  6 11  1  0
  4 12  1  0
 13 18  2  0
 10 14  2  0
 12 15  1  0
 12 16  2  0
 15 17  2  0
 16 18  1  0
 10 19  1  0
  9 20  1  0
 19 21  1  0
 20 22  1  0
  7  8  2  0
 13 17  1  0
  9 11  1  0
M  END
>  <MOLFORMULA>  (709) 
C15 H14 N4 O3

>  <MOLWEIGHT>  (709) 
2.983006000000000e+002

>  <IDNUMBER>  (709) 
AT-687/NB03491

>  <PRICE>  (709) 
EUR 80/10 mg

>  <Similarity score>  (709) 
0.19

$$$$

     RDKit          2D

 44 49  0  0  0  0  0  0  0  0999 V2000
    4.5667    6.4167    0.0000 C   0  0  0  0  0  0  0  0  0  0  0  0
    3.7167    7.5500    0.0000 C   0  0  0  0  0  0  0  0  0  0  0  0
   15.4417    4.8792    0.0000 N   0  0  0  0  0  0  0  0  0  0  0  0
   14.2792    4.1875    0.0000 N   0  0  0  0  0  0  0  0  0  0  0  0
   13.0667    6.2792    0.0000 C   0  0  0  0  0  0  0  0  0  0  0  0
    3.7167    5.2917    0.0000 S   0  0  0  0  0  0  0  0  0  0  0  0
   15.4417    6.2792    0.0000 C   0  0  0  0  0  0  0  0  0  0  0  0
    2.4000    7.1292    0.0000 C   0  0  0  0  0  0  0  0  0  0  0  0
    5.9792    6.4167    0.0000 N   0  0  0  0  0  0  0  0  0  0  0  0
    2.4000    5.7167    0.0000 C   0  0  0  0  0  0  0  0  0  0  0  0
   13.0667    4.8792    0.0000 C   0  0  0  0  0  0  0  0  0  0  0  0
    8.0917    5.1917    0.0000 C   0  0  0  0  0  0  0  0  0  0  0  0
    6.6792    5.1917    0.0000 C   0  0  0  0  0  0  0  0  0  0  0  0
    4.1875    8.9167    0.0000 C   0  0  0  0  0  0  0  0  0  0  0  0
    4.5667   10.2792    0.0000 N   0  0  0  0  0  0  0  0  0  0  0  0
   10.7875    6.2792    0.0000 N   0  0  0  0  0  0  0  0  0  0  0  0
   16.4167    7.3042    0.0000 C   0  0  0  0  0  0  0  0  0  0  0  0
   11.8542    6.9292    0.0000 C   0  0  0  0  0  0  0  0  0  0  0  0
    9.3667    6.2792    0.0000 N   0  0  0  0  0  0  0  0  0  0  0  0
   14.2792    2.7958    0.0000 C   0  0  0  0  0  0  0  0  0  0  0  0
    8.8042    3.9833    0.0000 O   0  0  0  0  0  0  0  0  0  0  0  0
    5.9792    3.9833    0.0000 O   0  0  0  0  0  0  0  0  0  0  0  0
   17.7667    6.9292    0.0000 C   0  0  0  0  0  0  0  0  0  0  0  0
   16.0500    8.6042    0.0000 C   0  0  0  0  0  0  0  0  0  0  0  0
   19.4000   10.2375    0.0000 O   0  0  0  0  0  0  0  0  0  0  0  0
   18.3750    9.2542    0.0000 C   0  0  0  0  0  0  0  0  0  0  0  0
    1.1750    7.8292    0.0000 C   0  0  0  0  0  0  0  0  0  0  0  0
   20.7500    9.8625    0.0000 C   0  0  0  0  0  0  0  0  0  0  0  0
   17.0250    9.6292    0.0000 C   0  0  0  0  0  0  0  0  0  0  0  0
   18.7417    7.9042    0.0000 C   0  0  0  0  0  0  0  0  0  0  0  0
    1.1750    5.0042    0.0000 C   0  0  0  0  0  0  0  0  0  0  0  0
   21.0750    8.5042    0.0000 C   0  0  0  0  0  0  0  0  0  0  0  0
   13.0667    2.0958    0.0000 C   0  0  0  0  0  0  0  0  0  0  0  0
   15.4917    2.0958    0.0000 C   0  0  0  0  0  0  0  0  0  0  0  0
   20.0917    7.5292    0.0000 C   0  0  0  0  0  0  0  0  0  0  0  0
   22.4250    8.1417    0.0000 C   0  0  0  0  0  0  0  0  0  0  0  0
    0.0000    7.1292    0.0000 C   0  0  0  0  0  0  0  0  0  0  0  0
    0.0000    5.7167    0.0000 C   0  0  0  0  0  0  0  0  0  0  0  0
   15.4917    0.7000    0.0000 C   0  0  0  0  0  0  0  0  0  0  0  0
   13.0667    0.7000    0.0000 C   0  0  0  0  0  0  0  0  0  0  0  0
   22.7917    6.8375    0.0000 C   0  0  0  0  0  0  0  0  0  0  0  0
   20.4667    6.1875    0.0000 C   0  0  0  0  0  0  0  0  0  0  0  0
   14.2792   -0.0000    0.0000 C   0  0  0  0  0  0  0  0  0  0  0  0
   21.8167    5.8167    0.0000 C   0  0  0  0  0  0  0  0  0  0  0  0
  1  2  2  0
  3  7  2  0
  4 11  1  0
  5 18  1  0
  1  6  1  0
  5  7  1  0
  2  8  1  0
  1  9  1  0
  6 10  1  0
  5 11  2  0
 12 13  1  0
  9 13  1  0
  2 14  1  0
 14 15  3  0
 16 19  1  0
  7 17  1  0
 16 18  2  0
 12 19  1  0
  4 20  1  0
 12 21  2  0
 13 22  2  0
 17 23  2  0
 17 24  1  0
 25 26  1  0
 26 29  1  0
  8 27  1  0
 25 28  1  0
 24 29  2  0
 23 30  1  0
 10 31  1  0
 28 32  1  0
 20 33  2  0
 20 34  1  0
 32 35  2  0
 32 36  1  0
 27 37  1  0
 31 38  1  0
 34 39  2  0
 33 40  1  0
 36 41  2  0
 35 42  1  0
 39 43  1  0
 41 44  1  0
  8 10  2  0
 37 38  1  0
  3  4  1  0
 26 30  2  0
 40 43  2  0
 42 44  2  0
M  END
>  <MOLFORMULA>  (710) 
C34 H28 N6 O3 S

>  <MOLWEIGHT>  (710) 
6.007002000000000e+002

>  <IDNUMBER>  (710) 
AT-225/NB80893

>  <PRICE>  (710) 
EUR 140/10 mg

>  <Similarity score>  (710) 
0.19

$$$$

     RDKit          2D

 21 23  0  0  0  0  0  0  0  0999 V2000
    7.9250   -6.6500    0.0000 N   0  0  0  0  0  0  0  0  0  0  0  0
    8.7292   -6.4750    0.0000 C   0  0  0  0  0  0  0  0  0  0  0  0
    4.9000   -9.9500    0.0000 N   0  0  0  0  0  0  0  0  0  0  0  0
    7.8500   -7.4750    0.0000 N   0  0  0  0  0  0  0  0  0  0  0  0
    4.9917   -9.1250    0.0000 C   0  0  0  0  0  0  0  0  0  0  0  0
    4.2417   -8.8000    0.0000 N   0  0  0  0  0  0  0  0  0  0  0  0
    9.1500   -7.1917    0.0000 C   0  0  0  0  0  0  0  0  0  0  0  0
    8.6000   -7.8000    0.0000 C   0  0  0  0  0  0  0  0  0  0  0  0
    4.1000  -10.1250    0.0000 C   0  0  0  0  0  0  0  0  0  0  0  0
    9.0667   -5.7167    0.0000 C   0  0  0  0  0  0  0  0  0  0  0  0
    3.6917   -9.4042    0.0000 O   0  0  0  0  0  0  0  0  0  0  0  0
    7.1292   -7.8917    0.0000 C   0  0  0  0  0  0  0  0  0  0  0  0
    5.7000   -8.7167    0.0000 C   0  0  0  0  0  0  0  0  0  0  0  0
    9.8917   -5.6250    0.0000 O   0  0  0  0  0  0  0  0  0  0  0  0
    7.1292   -8.7167    0.0000 C   0  0  0  0  0  0  0  0  0  0  0  0
    6.4167   -7.4750    0.0000 C   0  0  0  0  0  0  0  0  0  0  0  0
    5.7000   -7.8917    0.0000 C   0  0  0  0  0  0  0  0  0  0  0  0
    6.4167   -9.1250    0.0000 C   0  0  0  0  0  0  0  0  0  0  0  0
    8.5750   -5.0500    0.0000 O   0  0  0  0  0  0  0  0  0  0  0  0
    3.7667  -10.8750    0.0000 C   0  0  0  0  0  0  0  0  0  0  0  0
    8.9167   -4.3000    0.0000 C   0  0  0  0  0  0  0  0  0  0  0  0
  1  2  2  0
  3  5  1  0
  1  4  1  0
  5 13  1  0
  5  6  2  0
  2  7  1  0
  4  8  1  0
  3  9  2  0
  2 10  1  0
  6 11  1  0
  4 12  1  0
 13 17  1  0
 10 14  2  0
 12 15  2  0
 12 16  1  0
 16 17  2  0
 15 18  1  0
 10 19  1  0
  9 20  1  0
 19 21  1  0
  7  8  2  0
 13 18  2  0
  9 11  1  0
M  END
>  <MOLFORMULA>  (711) 
C14 H12 N4 O3

>  <MOLWEIGHT>  (711) 
2.842738000000000e+002

>  <IDNUMBER>  (711) 
AT-687/PE32961

>  <PRICE>  (711) 
EUR 80/10 mg

>  <Similarity score>  (711) 
0.19

$$$$

     RDKit          2D

 21 23  0  0  0  0  0  0  0  0999 V2000
    6.8250   -3.7792    0.0000 N   0  0  0  0  0  0  0  0  0  0  0  0
    8.1292   -3.5042    0.0000 C   0  0  0  0  0  0  0  0  0  0  0  0
    1.9500   -9.1042    0.0000 N   0  0  0  0  0  0  0  0  0  0  0  0
    6.7000   -5.1167    0.0000 N   0  0  0  0  0  0  0  0  0  0  0  0
    2.0917   -7.7792    0.0000 C   0  0  0  0  0  0  0  0  0  0  0  0
    0.8875   -7.2500    0.0000 N   0  0  0  0  0  0  0  0  0  0  0  0
    8.8000   -4.6625    0.0000 C   0  0  0  0  0  0  0  0  0  0  0  0
    7.9167   -5.6500    0.0000 C   0  0  0  0  0  0  0  0  0  0  0  0
    0.6542   -9.3917    0.0000 C   0  0  0  0  0  0  0  0  0  0  0  0
    8.6625   -2.2792    0.0000 C   0  0  0  0  0  0  0  0  0  0  0  0
    0.0000   -8.2375    0.0000 O   0  0  0  0  0  0  0  0  0  0  0  0
    5.5542   -5.7875    0.0000 C   0  0  0  0  0  0  0  0  0  0  0  0
    3.2417   -7.1125    0.0000 C   0  0  0  0  0  0  0  0  0  0  0  0
    9.9875   -2.1417    0.0000 O   0  0  0  0  0  0  0  0  0  0  0  0
    5.5542   -7.1125    0.0000 C   0  0  0  0  0  0  0  0  0  0  0  0
    4.3875   -5.1167    0.0000 C   0  0  0  0  0  0  0  0  0  0  0  0
    4.3875   -7.7792    0.0000 C   0  0  0  0  0  0  0  0  0  0  0  0
    3.2417   -5.7875    0.0000 C   0  0  0  0  0  0  0  0  0  0  0  0
    7.8750   -1.2167    0.0000 O   0  0  0  0  0  0  0  0  0  0  0  0
    0.1125  -10.6000    0.0000 C   0  0  0  0  0  0  0  0  0  0  0  0
    8.4167   -0.0000    0.0000 C   0  0  0  0  0  0  0  0  0  0  0  0
  1  2  2  0
  3  5  1  0
  1  4  1  0
  5 13  1  0
  5  6  2  0
  2  7  1  0
  4  8  1  0
  3  9  2  0
  2 10  1  0
  6 11  1  0
  4 12  1  0
 13 18  2  0
 10 14  2  0
 12 15  1  0
 12 16  2  0
 15 17  2  0
 16 18  1  0
 10 19  1  0
  9 20  1  0
 19 21  1  0
  7  8  2  0
 13 17  1  0
  9 11  1  0
M  END
>  <MOLFORMULA>  (712) 
C14 H12 N4 O3

>  <MOLWEIGHT>  (712) 
2.842738000000000e+002

>  <IDNUMBER>  (712) 
AT-687/NB03493

>  <PRICE>  (712) 
EUR 80/10 mg

>  <Similarity score>  (712) 
0.19

$$$$

     RDKit          2D

 40 44  0  0  0  0  0  0  0  0999 V2000
    4.5792    6.4167    0.0000 C   0  0  0  0  0  0  0  0  0  0  0  0
    3.7292    7.5542    0.0000 C   0  0  0  0  0  0  0  0  0  0  0  0
   15.4292    4.8792    0.0000 N   0  0  0  0  0  0  0  0  0  0  0  0
   14.2667    4.1875    0.0000 N   0  0  0  0  0  0  0  0  0  0  0  0
   13.0542    6.2792    0.0000 C   0  0  0  0  0  0  0  0  0  0  0  0
    3.7292    5.2792    0.0000 S   0  0  0  0  0  0  0  0  0  0  0  0
   15.4292    6.2792    0.0000 C   0  0  0  0  0  0  0  0  0  0  0  0
    2.4042    7.1292    0.0000 C   0  0  0  0  0  0  0  0  0  0  0  0
    5.9917    6.4167    0.0000 N   0  0  0  0  0  0  0  0  0  0  0  0
    2.4042    5.7125    0.0000 C   0  0  0  0  0  0  0  0  0  0  0  0
   13.0542    4.8792    0.0000 C   0  0  0  0  0  0  0  0  0  0  0  0
    8.1167    5.1917    0.0000 C   0  0  0  0  0  0  0  0  0  0  0  0
    6.7042    5.1917    0.0000 C   0  0  0  0  0  0  0  0  0  0  0  0
    4.2000    8.9250    0.0000 C   0  0  0  0  0  0  0  0  0  0  0  0
    4.5792   10.2917    0.0000 N   0  0  0  0  0  0  0  0  0  0  0  0
   10.8167    6.2792    0.0000 N   0  0  0  0  0  0  0  0  0  0  0  0
   16.4042    7.3042    0.0000 C   0  0  0  0  0  0  0  0  0  0  0  0
   11.8417    6.9292    0.0000 C   0  0  0  0  0  0  0  0  0  0  0  0
    9.3917    6.2792    0.0000 N   0  0  0  0  0  0  0  0  0  0  0  0
   14.2667    2.7958    0.0000 C   0  0  0  0  0  0  0  0  0  0  0  0
    8.8292    3.9708    0.0000 O   0  0  0  0  0  0  0  0  0  0  0  0
    5.9917    3.9708    0.0000 O   0  0  0  0  0  0  0  0  0  0  0  0
   17.7542    6.9292    0.0000 C   0  0  0  0  0  0  0  0  0  0  0  0
   16.0292    8.6042    0.0000 C   0  0  0  0  0  0  0  0  0  0  0  0
   18.3625    9.2542    0.0000 C   0  0  0  0  0  0  0  0  0  0  0  0
    1.1792    7.8375    0.0000 C   0  0  0  0  0  0  0  0  0  0  0  0
   17.0125    9.6292    0.0000 C   0  0  0  0  0  0  0  0  0  0  0  0
   18.7292    7.9042    0.0000 C   0  0  0  0  0  0  0  0  0  0  0  0
    1.1792    5.0042    0.0000 C   0  0  0  0  0  0  0  0  0  0  0  0
   19.3375   10.2792    0.0000 O   0  0  0  0  0  0  0  0  0  0  0  0
   13.0542    2.0958    0.0000 C   0  0  0  0  0  0  0  0  0  0  0  0
   15.4750    2.0958    0.0000 C   0  0  0  0  0  0  0  0  0  0  0  0
   20.6875    9.9125    0.0000 C   0  0  0  0  0  0  0  0  0  0  0  0
   21.6667   10.8792    0.0000 C   0  0  0  0  0  0  0  0  0  0  0  0
    0.0000    7.1292    0.0000 C   0  0  0  0  0  0  0  0  0  0  0  0
    0.0000    5.7125    0.0000 C   0  0  0  0  0  0  0  0  0  0  0  0
   23.0167   10.5167    0.0000 C   0  0  0  0  0  0  0  0  0  0  0  0
   13.0542    0.7000    0.0000 C   0  0  0  0  0  0  0  0  0  0  0  0
   15.4750    0.7000    0.0000 C   0  0  0  0  0  0  0  0  0  0  0  0
   14.2667   -0.0000    0.0000 C   0  0  0  0  0  0  0  0  0  0  0  0
  1  2  2  0
  3  7  2  0
  4 11  1  0
  5 18  1  0
  1  6  1  0
  5  7  1  0
  2  8  1  0
  1  9  1  0
  6 10  1  0
  5 11  2  0
 12 13  1  0
  9 13  1  0
  2 14  1  0
 14 15  3  0
 16 19  1  0
  7 17  1  0
 16 18  2  0
 12 19  1  0
  4 20  1  0
 12 21  2  0
 13 22  2  0
 17 23  2  0
 17 24  1  0
 25 27  1  0
  8 26  1  0
 24 27  2  0
 23 28  1  0
 10 29  1  0
 25 30  1  0
 20 31  2  0
 20 32  1  0
 30 33  1  0
 33 34  1  0
 26 35  1  0
 29 36  1  0
 34 37  1  0
 31 38  1  0
 32 39  2  0
 39 40  1  0
  8 10  2  0
 35 36  1  0
  3  4  1  0
 25 28  2  0
 38 40  2  0
M  END
>  <MOLFORMULA>  (713) 
C30 H28 N6 O3 S

>  <MOLWEIGHT>  (713) 
5.526562000000000e+002

>  <IDNUMBER>  (713) 
AT-225/NB80519

>  <PRICE>  (713) 
EUR 140/10 mg

>  <Similarity score>  (713) 
0.19

$$$$

     RDKit          2D

 37 41  0  0  0  0  0  0  0  0999 V2000
   -4.6833   -0.0000    0.0000 C   0  0  0  0  0  0  0  0  0  0  0  0
   -5.9042    0.5417    0.0000 C   0  0  0  0  0  0  0  0  0  0  0  0
    5.2542   -2.2042    0.0000 N   0  0  0  0  0  0  0  0  0  0  0  0
    4.1542   -2.9875    0.0000 N   0  0  0  0  0  0  0  0  0  0  0  0
    3.4875   -0.8958    0.0000 C   0  0  0  0  0  0  0  0  0  0  0  0
   -4.8208   -1.3375    0.0000 S   0  0  0  0  0  0  0  0  0  0  0  0
    4.8500   -0.9250    0.0000 C   0  0  0  0  0  0  0  0  0  0  0  0
   -6.7958   -0.4583    0.0000 C   0  0  0  0  0  0  0  0  0  0  0  0
   -3.4833    0.6625    0.0000 N   0  0  0  0  0  0  0  0  0  0  0  0
   -6.1375   -1.6167    0.0000 C   0  0  0  0  0  0  0  0  0  0  0  0
    3.0792   -2.2042    0.0000 C   0  0  0  0  0  0  0  0  0  0  0  0
   -1.1625    0.6625    0.0000 C   0  0  0  0  0  0  0  0  0  0  0  0
   -2.3208   -0.0000    0.0000 C   0  0  0  0  0  0  0  0  0  0  0  0
   -6.1667    1.8500    0.0000 C   0  0  0  0  0  0  0  0  0  0  0  0
   -6.4375    3.1625    0.0000 N   0  0  0  0  0  0  0  0  0  0  0  0
    1.3375   -0.0000    0.0000 N   0  0  0  0  0  0  0  0  0  0  0  0
    6.0375   -0.2583    0.0000 C   0  0  0  0  0  0  0  0  0  0  0  0
    2.6750    0.1750    0.0000 C   0  0  0  0  0  0  0  0  0  0  0  0
    0.0000   -0.0000    0.0000 N   0  0  0  0  0  0  0  0  0  0  0  0
    4.1375   -4.3208    0.0000 C   0  0  0  0  0  0  0  0  0  0  0  0
   -1.1625    1.9917    0.0000 O   0  0  0  0  0  0  0  0  0  0  0  0
   -2.3208   -1.3292    0.0000 O   0  0  0  0  0  0  0  0  0  0  0  0
    7.2000   -0.9250    0.0000 C   0  0  0  0  0  0  0  0  0  0  0  0
    6.0375    1.0750    0.0000 C   0  0  0  0  0  0  0  0  0  0  0  0
    8.3583    1.0750    0.0000 C   0  0  0  0  0  0  0  0  0  0  0  0
   -8.1583   -0.4583    0.0000 C   0  0  0  0  0  0  0  0  0  0  0  0
    8.3583   -0.2583    0.0000 C   0  0  0  0  0  0  0  0  0  0  0  0
    7.2000    1.7417    0.0000 C   0  0  0  0  0  0  0  0  0  0  0  0
   -6.7958   -2.7792    0.0000 C   0  0  0  0  0  0  0  0  0  0  0  0
    9.5208    1.7417    0.0000 Br  0  0  0  0  0  0  0  0  0  0  0  0
    5.2708   -5.0042    0.0000 C   0  0  0  0  0  0  0  0  0  0  0  0
    2.9792   -4.9875    0.0000 C   0  0  0  0  0  0  0  0  0  0  0  0
   -8.8167   -1.6167    0.0000 C   0  0  0  0  0  0  0  0  0  0  0  0
   -8.1583   -2.7792    0.0000 C   0  0  0  0  0  0  0  0  0  0  0  0
    2.9625   -6.3208    0.0000 C   0  0  0  0  0  0  0  0  0  0  0  0
    5.2542   -6.3375    0.0000 C   0  0  0  0  0  0  0  0  0  0  0  0
    4.1250   -7.0208    0.0000 C   0  0  0  0  0  0  0  0  0  0  0  0
  1  2  2  0
  3  7  2  0
  4 11  1  0
  5 18  1  0
  1  6  1  0
  5  7  1  0
  2  8  1  0
  1  9  1  0
  6 10  1  0
  5 11  2  0
 12 13  1  0
  9 13  1  0
  2 14  1  0
 14 15  3  0
 16 19  1  0
  7 17  1  0
 16 18  2  0
 12 19  1  0
  4 20  1  0
 12 21  2  0
 13 22  2  0
 17 23  1  0
 17 24  2  0
 25 28  2  0
  8 26  1  0
 23 27  2  0
 24 28  1  0
 10 29  1  0
 25 30  1  0
 20 31  1  0
 20 32  2  0
 26 33  1  0
 29 34  1  0
 32 35  1  0
 31 36  2  0
 35 37  2  0
  8 10  2  0
 33 34  1  0
  3  4  1  0
 25 27  1  0
 36 37  1  0
M  END
>  <MOLFORMULA>  (714) 
C27 H21 Br N6 O2 S

>  <MOLWEIGHT>  (714) 
5.734729000000000e+002

>  <IDNUMBER>  (714) 
AT-225/NB49474

>  <PRICE>  (714) 
EUR 140/10 mg

>  <Similarity score>  (714) 
0.19

$$$$

     RDKit          2D

 37 41  0  0  0  0  0  0  0  0999 V2000
   -4.6833   -0.0000    0.0000 C   0  0  0  0  0  0  0  0  0  0  0  0
   -5.9042    0.5417    0.0000 C   0  0  0  0  0  0  0  0  0  0  0  0
    5.7167    0.9000    0.0000 N   0  0  0  0  0  0  0  0  0  0  0  0
    4.9167    1.9667    0.0000 N   0  0  0  0  0  0  0  0  0  0  0  0
    3.6958    0.2417    0.0000 C   0  0  0  0  0  0  0  0  0  0  0  0
   -4.8208   -1.3375    0.0000 S   0  0  0  0  0  0  0  0  0  0  0  0
    4.9458   -0.1792    0.0000 C   0  0  0  0  0  0  0  0  0  0  0  0
   -6.7958   -0.4583    0.0000 C   0  0  0  0  0  0  0  0  0  0  0  0
   -3.4833    0.6625    0.0000 N   0  0  0  0  0  0  0  0  0  0  0  0
   -6.1375   -1.6167    0.0000 C   0  0  0  0  0  0  0  0  0  0  0  0
    3.6958    1.5750    0.0000 C   0  0  0  0  0  0  0  0  0  0  0  0
   -1.1625    0.6625    0.0000 C   0  0  0  0  0  0  0  0  0  0  0  0
   -2.3208   -0.0000    0.0000 C   0  0  0  0  0  0  0  0  0  0  0  0
   -6.1667    1.8500    0.0000 C   0  0  0  0  0  0  0  0  0  0  0  0
   -6.4375    3.1625    0.0000 N   0  0  0  0  0  0  0  0  0  0  0  0
    1.3375   -0.0000    0.0000 N   0  0  0  0  0  0  0  0  0  0  0  0
    5.2250   -1.5250    0.0000 C   0  0  0  0  0  0  0  0  0  0  0  0
    2.5750   -0.5292    0.0000 C   0  0  0  0  0  0  0  0  0  0  0  0
    0.0000   -0.0000    0.0000 N   0  0  0  0  0  0  0  0  0  0  0  0
    5.3792    3.2542    0.0000 C   0  0  0  0  0  0  0  0  0  0  0  0
   -1.1625    1.9917    0.0000 O   0  0  0  0  0  0  0  0  0  0  0  0
   -2.3208   -1.3292    0.0000 O   0  0  0  0  0  0  0  0  0  0  0  0
    6.5000   -1.9458    0.0000 C   0  0  0  0  0  0  0  0  0  0  0  0
    4.2417   -2.3958    0.0000 C   0  0  0  0  0  0  0  0  0  0  0  0
   -8.1583   -0.4583    0.0000 C   0  0  0  0  0  0  0  0  0  0  0  0
    6.7792   -3.2375    0.0000 C   0  0  0  0  0  0  0  0  0  0  0  0
    4.4958   -3.7292    0.0000 C   0  0  0  0  0  0  0  0  0  0  0  0
    5.7833   -4.1625    0.0000 C   0  0  0  0  0  0  0  0  0  0  0  0
   -6.7958   -2.7792    0.0000 C   0  0  0  0  0  0  0  0  0  0  0  0
    4.5375    4.2750    0.0000 C   0  0  0  0  0  0  0  0  0  0  0  0
    6.7250    3.4667    0.0000 C   0  0  0  0  0  0  0  0  0  0  0  0
    6.0667   -5.4667    0.0000 C   0  0  0  0  0  0  0  0  0  0  0  0
   -8.8167   -1.6167    0.0000 C   0  0  0  0  0  0  0  0  0  0  0  0
   -8.1583   -2.7792    0.0000 C   0  0  0  0  0  0  0  0  0  0  0  0
    4.9708    5.5250    0.0000 C   0  0  0  0  0  0  0  0  0  0  0  0
    7.1750    4.7375    0.0000 C   0  0  0  0  0  0  0  0  0  0  0  0
    6.2750    5.7917    0.0000 C   0  0  0  0  0  0  0  0  0  0  0  0
  1  2  2  0
  3  7  2  0
  4 11  1  0
  5 18  1  0
  1  6  1  0
  5  7  1  0
  2  8  1  0
  1  9  1  0
  6 10  1  0
  5 11  2  0
 12 13  1  0
  9 13  1  0
  2 14  1  0
 14 15  3  0
 16 19  1  0
  7 17  1  0
 16 18  2  0
 12 19  1  0
  4 20  1  0
 12 21  2  0
 13 22  2  0
 17 23  1  0
 17 24  2  0
  8 25  1  0
 23 26  2  0
 24 27  1  0
 27 28  2  0
 10 29  1  0
 20 30  1  0
 20 31  2  0
 28 32  1  0
 25 33  1  0
 29 34  1  0
 30 35  2  0
 31 36  1  0
 36 37  2  0
  8 10  2  0
 33 34  1  0
  3  4  1  0
 26 28  1  0
 35 37  1  0
M  END
>  <MOLFORMULA>  (715) 
C28 H24 N6 O2 S

>  <MOLWEIGHT>  (715) 
5.086036000000000e+002

>  <IDNUMBER>  (715) 
AT-225/NB76855

>  <PRICE>  (715) 
EUR 140/10 mg

>  <Similarity score>  (715) 
0.19

$$$$

     RDKit          2D

 37 41  0  0  0  0  0  0  0  0999 V2000
   -4.6833   -0.0000    0.0000 C   0  0  0  0  0  0  0  0  0  0  0  0
   -5.9042    0.5417    0.0000 C   0  0  0  0  0  0  0  0  0  0  0  0
    5.7125    0.9000    0.0000 N   0  0  0  0  0  0  0  0  0  0  0  0
    4.9167    1.9667    0.0000 N   0  0  0  0  0  0  0  0  0  0  0  0
    3.7000    0.2333    0.0000 C   0  0  0  0  0  0  0  0  0  0  0  0
   -4.8208   -1.3375    0.0000 S   0  0  0  0  0  0  0  0  0  0  0  0
    4.9500   -0.1792    0.0000 C   0  0  0  0  0  0  0  0  0  0  0  0
   -6.7958   -0.4583    0.0000 C   0  0  0  0  0  0  0  0  0  0  0  0
   -3.4833    0.6625    0.0000 N   0  0  0  0  0  0  0  0  0  0  0  0
   -6.1375   -1.6167    0.0000 C   0  0  0  0  0  0  0  0  0  0  0  0
    3.7000    1.5833    0.0000 C   0  0  0  0  0  0  0  0  0  0  0  0
   -1.1625    0.6625    0.0000 C   0  0  0  0  0  0  0  0  0  0  0  0
   -2.3208   -0.0000    0.0000 C   0  0  0  0  0  0  0  0  0  0  0  0
   -6.1667    1.8500    0.0000 C   0  0  0  0  0  0  0  0  0  0  0  0
   -6.4375    3.1625    0.0000 N   0  0  0  0  0  0  0  0  0  0  0  0
    1.3375   -0.0000    0.0000 N   0  0  0  0  0  0  0  0  0  0  0  0
    5.2333   -1.5292    0.0000 C   0  0  0  0  0  0  0  0  0  0  0  0
    2.5708   -0.5292    0.0000 C   0  0  0  0  0  0  0  0  0  0  0  0
    0.0000   -0.0000    0.0000 N   0  0  0  0  0  0  0  0  0  0  0  0
    5.3792    3.2625    0.0000 C   0  0  0  0  0  0  0  0  0  0  0  0
   -1.1625    1.9917    0.0000 O   0  0  0  0  0  0  0  0  0  0  0  0
   -2.3208   -1.3292    0.0000 O   0  0  0  0  0  0  0  0  0  0  0  0
    6.5125   -1.9625    0.0000 C   0  0  0  0  0  0  0  0  0  0  0  0
    4.2500   -2.4083    0.0000 C   0  0  0  0  0  0  0  0  0  0  0  0
    5.7958   -4.1708    0.0000 C   0  0  0  0  0  0  0  0  0  0  0  0
   -8.1583   -0.4583    0.0000 C   0  0  0  0  0  0  0  0  0  0  0  0
    4.5000   -3.7417    0.0000 C   0  0  0  0  0  0  0  0  0  0  0  0
    6.7792   -3.2417    0.0000 C   0  0  0  0  0  0  0  0  0  0  0  0
   -6.7958   -2.7792    0.0000 C   0  0  0  0  0  0  0  0  0  0  0  0
    6.0958   -5.4708    0.0000 F   0  0  0  0  0  0  0  0  0  0  0  0
    6.7292    3.4792    0.0000 C   0  0  0  0  0  0  0  0  0  0  0  0
    4.5500    4.2875    0.0000 C   0  0  0  0  0  0  0  0  0  0  0  0
   -8.8167   -1.6167    0.0000 C   0  0  0  0  0  0  0  0  0  0  0  0
   -8.1583   -2.7792    0.0000 C   0  0  0  0  0  0  0  0  0  0  0  0
    7.1792    4.7542    0.0000 C   0  0  0  0  0  0  0  0  0  0  0  0
    4.9833    5.5375    0.0000 C   0  0  0  0  0  0  0  0  0  0  0  0
    6.2792    5.8042    0.0000 C   0  0  0  0  0  0  0  0  0  0  0  0
  1  2  2  0
  3  7  2  0
  4 11  1  0
  5 18  1  0
  1  6  1  0
  5  7  1  0
  2  8  1  0
  1  9  1  0
  6 10  1  0
  5 11  2  0
 12 13  1  0
  9 13  1  0
  2 14  1  0
 14 15  3  0
 16 19  1  0
  7 17  1  0
 16 18  2  0
 12 19  1  0
  4 20  1  0
 12 21  2  0
 13 22  2  0
 17 23  1  0
 17 24  2  0
 25 27  2  0
  8 26  1  0
 24 27  1  0
 23 28  2  0
 10 29  1  0
 25 30  1  0
 20 31  2  0
 20 32  1  0
 26 33  1  0
 29 34  1  0
 31 35  1  0
 32 36  2  0
 36 37  1  0
  8 10  2  0
 33 34  1  0
  3  4  1  0
 25 28  1  0
 35 37  2  0
M  END
>  <MOLFORMULA>  (716) 
C27 H21 F N6 O2 S

>  <MOLWEIGHT>  (716) 
5.125669000000000e+002

>  <IDNUMBER>  (716) 
AT-225/NB49452

>  <PRICE>  (716) 
EUR 140/10 mg

>  <Similarity score>  (716) 
0.19

$$$$

     RDKit          2D

 36 40  0  0  0  0  0  0  0  0999 V2000
   -4.6833   -0.0000    0.0000 C   0  0  0  0  0  0  0  0  0  0  0  0
   -5.9042    0.5417    0.0000 C   0  0  0  0  0  0  0  0  0  0  0  0
    5.7125    0.9000    0.0000 N   0  0  0  0  0  0  0  0  0  0  0  0
    4.9167    1.9667    0.0000 N   0  0  0  0  0  0  0  0  0  0  0  0
    3.6958    0.2417    0.0000 C   0  0  0  0  0  0  0  0  0  0  0  0
   -4.8208   -1.3375    0.0000 S   0  0  0  0  0  0  0  0  0  0  0  0
    4.9417   -0.1792    0.0000 C   0  0  0  0  0  0  0  0  0  0  0  0
   -6.7958   -0.4583    0.0000 C   0  0  0  0  0  0  0  0  0  0  0  0
   -3.4833    0.6625    0.0000 N   0  0  0  0  0  0  0  0  0  0  0  0
   -6.1375   -1.6167    0.0000 C   0  0  0  0  0  0  0  0  0  0  0  0
    3.6958    1.5708    0.0000 C   0  0  0  0  0  0  0  0  0  0  0  0
   -1.1625    0.6625    0.0000 C   0  0  0  0  0  0  0  0  0  0  0  0
   -2.3208   -0.0000    0.0000 C   0  0  0  0  0  0  0  0  0  0  0  0
   -6.1667    1.8500    0.0000 C   0  0  0  0  0  0  0  0  0  0  0  0
   -6.4375    3.1625    0.0000 N   0  0  0  0  0  0  0  0  0  0  0  0
    1.3375   -0.0000    0.0000 N   0  0  0  0  0  0  0  0  0  0  0  0
    2.5750   -0.5292    0.0000 C   0  0  0  0  0  0  0  0  0  0  0  0
    0.0000   -0.0000    0.0000 N   0  0  0  0  0  0  0  0  0  0  0  0
    5.3792    3.2542    0.0000 C   0  0  0  0  0  0  0  0  0  0  0  0
   -1.1625    1.9917    0.0000 O   0  0  0  0  0  0  0  0  0  0  0  0
    5.2250   -1.5250    0.0000 C   0  0  0  0  0  0  0  0  0  0  0  0
   -2.3208   -1.3292    0.0000 O   0  0  0  0  0  0  0  0  0  0  0  0
   -8.1583   -0.4583    0.0000 C   0  0  0  0  0  0  0  0  0  0  0  0
   -6.7958   -2.7792    0.0000 C   0  0  0  0  0  0  0  0  0  0  0  0
    6.7250    3.4667    0.0000 C   0  0  0  0  0  0  0  0  0  0  0  0
    4.5375    4.2750    0.0000 C   0  0  0  0  0  0  0  0  0  0  0  0
    6.5000   -1.9458    0.0000 C   0  0  0  0  0  0  0  0  0  0  0  0
    4.2417   -2.3958    0.0000 C   0  0  0  0  0  0  0  0  0  0  0  0
   -8.8167   -1.6167    0.0000 C   0  0  0  0  0  0  0  0  0  0  0  0
   -8.1583   -2.7792    0.0000 C   0  0  0  0  0  0  0  0  0  0  0  0
    4.9708    5.5208    0.0000 C   0  0  0  0  0  0  0  0  0  0  0  0
    6.7792   -3.2375    0.0000 C   0  0  0  0  0  0  0  0  0  0  0  0
    4.4958   -3.7292    0.0000 C   0  0  0  0  0  0  0  0  0  0  0  0
    7.1708    4.7375    0.0000 C   0  0  0  0  0  0  0  0  0  0  0  0
    5.7833   -4.1625    0.0000 C   0  0  0  0  0  0  0  0  0  0  0  0
    6.2750    5.7875    0.0000 C   0  0  0  0  0  0  0  0  0  0  0  0
  1  2  2  0
  3  7  2  0
  4 11  1  0
  5 17  1  0
  1  6  1  0
  5  7  1  0
  2  8  1  0
  1  9  1  0
  6 10  1  0
  5 11  2  0
 12 13  1  0
  9 13  1  0
  2 14  1  0
 14 15  3  0
 16 18  1  0
 16 17  2  0
 12 18  1  0
  4 19  1  0
 12 20  2  0
  7 21  1  0
 13 22  2  0
  8 23  1  0
 10 24  1  0
 19 25  2  0
 19 26  1  0
 21 27  1  0
 21 28  2  0
 23 29  1  0
 24 30  1  0
 26 31  2  0
 27 32  2  0
 28 33  1  0
 25 34  1  0
 33 35  2  0
 31 36  1  0
  8 10  2  0
 29 30  1  0
  3  4  1  0
 32 35  1  0
 34 36  2  0
M  END
>  <MOLFORMULA>  (717) 
C27 H22 N6 O2 S

>  <MOLWEIGHT>  (717) 
4.945768000000000e+002

>  <IDNUMBER>  (717) 
AT-225/NB49654

>  <PRICE>  (717) 
EUR 140/10 mg

>  <Similarity score>  (717) 
0.19

$$$$

     RDKit          2D

 30 33  0  0  0  0  0  0  0  0999 V2000
    5.0292   -5.0292    0.0000 C   0  0  0  0  0  0  0  0  0  0  0  0
    4.5417   -4.3667    0.0000 C   0  0  0  0  0  0  0  0  0  0  0  0
    7.5667   -7.8375    0.0000 N   0  0  0  0  0  0  0  0  0  0  0  0
    7.0792   -7.1792    0.0000 C   0  0  0  0  0  0  0  0  0  0  0  0
    7.5667   -6.5042    0.0000 N   0  0  0  0  0  0  0  0  0  0  0  0
    8.3500   -6.7542    0.0000 N   0  0  0  0  0  0  0  0  0  0  0  0
    8.3542   -7.5792    0.0000 N   0  0  0  0  0  0  0  0  0  0  0  0
    4.5417   -5.6917    0.0000 S   0  0  0  0  0  0  0  0  0  0  0  0
    3.7625   -4.6167    0.0000 C   0  0  0  0  0  0  0  0  0  0  0  0
    3.7625   -5.4417    0.0000 C   0  0  0  0  0  0  0  0  0  0  0  0
    5.8542   -5.0375    0.0000 N   0  0  0  0  0  0  0  0  0  0  0  0
    4.8042   -3.5792    0.0000 C   0  0  0  0  0  0  0  0  0  0  0  0
    6.2542   -7.1792    0.0000 S   0  0  0  0  0  0  0  0  0  0  0  0
    5.0625   -2.8000    0.0000 N   0  0  0  0  0  0  0  0  0  0  0  0
    7.3167   -8.6250    0.0000 C   0  0  0  0  0  0  0  0  0  0  0  0
    6.5750  -10.9792    0.0000 C   0  0  0  0  0  0  0  0  0  0  0  0
    6.2625   -5.7542    0.0000 C   0  0  0  0  0  0  0  0  0  0  0  0
    6.8250  -10.1917    0.0000 C   0  0  0  0  0  0  0  0  0  0  0  0
    7.1375  -11.5917    0.0000 O   0  0  0  0  0  0  0  0  0  0  0  0
    7.0875   -5.7542    0.0000 O   0  0  0  0  0  0  0  0  0  0  0  0
    6.5167   -8.8000    0.0000 C   0  0  0  0  0  0  0  0  0  0  0  0
    7.8792   -9.2292    0.0000 C   0  0  0  0  0  0  0  0  0  0  0  0
    7.6292  -10.0167    0.0000 C   0  0  0  0  0  0  0  0  0  0  0  0
    6.2667   -9.5875    0.0000 C   0  0  0  0  0  0  0  0  0  0  0  0
    5.8500   -6.4625    0.0000 C   0  0  0  0  0  0  0  0  0  0  0  0
    5.7750  -11.1625    0.0000 O   0  0  0  0  0  0  0  0  0  0  0  0
    3.0500   -4.2042    0.0000 C   0  0  0  0  0  0  0  0  0  0  0  0
    3.0500   -5.8542    0.0000 C   0  0  0  0  0  0  0  0  0  0  0  0
    2.3417   -4.6167    0.0000 C   0  0  0  0  0  0  0  0  0  0  0  0
    2.3417   -5.4417    0.0000 C   0  0  0  0  0  0  0  0  0  0  0  0
  1  2  2  0
  3  4  1  0
  4 13  1  0
  4  5  2  0
  5  6  1  0
  3  7  1  0
  1  8  1  0
  2  9  1  0
  8 10  1  0
  1 11  1  0
  2 12  1  0
 13 25  1  0
 12 14  3  0
  3 15  1  0
 16 18  1  0
 11 17  1  0
 18 23  1  0
 16 19  2  0
 17 20  2  0
 15 21  2  0
 15 22  1  0
 22 23  2  0
 21 24  1  0
 17 25  1  0
 16 26  1  0
  9 27  1  0
 10 28  1  0
 27 29  1  0
 28 30  1  0
  9 10  2  0
 29 30  1  0
  6  7  2  0
 18 24  2  0
M  END
>  <MOLFORMULA>  (718) 
C19 H16 N6 O3 S2

>  <MOLWEIGHT>  (718) 
4.405064000000000e+002

>  <IDNUMBER>  (718) 
AP-853/J242427

>  <Similarity score>  (718) 
0.19

$$$$

     RDKit          2D

 21 23  0  0  0  0  0  0  0  0999 V2000
   -0.4750   -1.5167    0.0000 C   0  0  0  0  0  0  0  0  0  0  0  0
   -0.6833   -2.4958    0.0000 C   0  0  0  0  0  0  0  0  0  0  0  0
   -1.3417   -1.0167    0.0000 S   0  0  0  0  0  0  0  0  0  0  0  0
   -1.6792   -2.6000    0.0000 C   0  0  0  0  0  0  0  0  0  0  0  0
    0.4375   -1.1125    0.0000 N   0  0  0  0  0  0  0  0  0  0  0  0
   -2.0833   -1.6875    0.0000 C   0  0  0  0  0  0  0  0  0  0  0  0
    0.5417   -0.1167    0.0000 C   0  0  0  0  0  0  0  0  0  0  0  0
   -0.0125   -3.2375    0.0000 C   0  0  0  0  0  0  0  0  0  0  0  0
    0.9625   -3.0292    0.0000 N   0  0  0  0  0  0  0  0  0  0  0  0
    1.4542    0.2917    0.0000 C   0  0  0  0  0  0  0  0  0  0  0  0
   -0.2667    0.4708    0.0000 O   0  0  0  0  0  0  0  0  0  0  0  0
    1.5583    1.2833    0.0000 C   0  0  0  0  0  0  0  0  0  0  0  0
   -2.4208   -3.2708    0.0000 C   0  0  0  0  0  0  0  0  0  0  0  0
    2.4750    1.6917    0.0000 C   0  0  0  0  0  0  0  0  0  0  0  0
   -3.0792   -1.7917    0.0000 C   0  0  0  0  0  0  0  0  0  0  0  0
    2.5792    2.6875    0.0000 O   0  0  0  0  0  0  0  0  0  0  0  0
    2.2667   -0.2958    0.0000 C   0  0  0  0  0  0  0  0  0  0  0  0
   -3.2875   -2.7708    0.0000 C   0  0  0  0  0  0  0  0  0  0  0  0
    3.1792    0.1083    0.0000 C   0  0  0  0  0  0  0  0  0  0  0  0
    3.2833    1.1042    0.0000 C   0  0  0  0  0  0  0  0  0  0  0  0
    1.7708    3.2750    0.0000 C   0  0  0  0  0  0  0  0  0  0  0  0
  1  2  2  0
  1  3  1  0
  2  4  1  0
  1  5  1  0
  3  6  1  0
  5  7  1  0
  2  8  1  0
  8  9  3  0
  7 10  1  0
  7 11  2  0
 10 12  2  0
  4 13  1  0
 12 14  1  0
  6 15  1  0
 14 16  1  0
 10 17  1  0
 15 18  1  0
 17 19  2  0
 19 20  1  0
 16 21  1  0
  4  6  2  0
 13 18  1  0
 14 20  2  0
M  END
>  <MOLFORMULA>  (719) 
C16 H14 N2 O2 S

>  <MOLWEIGHT>  (719) 
2.983646000000000e+002

>  <IDNUMBER>  (719) 
AN-153/I181368

>  <PRICE>  (719) 
EUR 130/10 mg

>  <Similarity score>  (719) 
0.18

$$$$

     RDKit          2D

 21 23  0  0  0  0  0  0  0  0999 V2000
    0.0250    1.7000    0.0000 C   0  0  0  0  0  0  0  0  0  0  0  0
   -0.3833    2.6125    0.0000 C   0  0  0  0  0  0  0  0  0  0  0  0
    1.0208    1.8042    0.0000 S   0  0  0  0  0  0  0  0  0  0  0  0
    0.3625    3.2833    0.0000 C   0  0  0  0  0  0  0  0  0  0  0  0
   -0.4750    0.8333    0.0000 N   0  0  0  0  0  0  0  0  0  0  0  0
    1.2292    2.7833    0.0000 C   0  0  0  0  0  0  0  0  0  0  0  0
    0.0250   -0.0333    0.0000 C   0  0  0  0  0  0  0  0  0  0  0  0
   -1.3583    2.8208    0.0000 C   0  0  0  0  0  0  0  0  0  0  0  0
   -1.6708    3.7708    0.0000 N   0  0  0  0  0  0  0  0  0  0  0  0
   -0.4750   -0.8958    0.0000 C   0  0  0  0  0  0  0  0  0  0  0  0
    1.0250   -0.0333    0.0000 O   0  0  0  0  0  0  0  0  0  0  0  0
   -1.4750   -0.8958    0.0000 C   0  0  0  0  0  0  0  0  0  0  0  0
    0.0250   -1.7625    0.0000 C   0  0  0  0  0  0  0  0  0  0  0  0
    0.5708    4.2583    0.0000 C   0  0  0  0  0  0  0  0  0  0  0  0
   -1.4750   -2.6292    0.0000 C   0  0  0  0  0  0  0  0  0  0  0  0
    1.9708    3.4542    0.0000 C   0  0  0  0  0  0  0  0  0  0  0  0
   -0.4750   -2.6292    0.0000 C   0  0  0  0  0  0  0  0  0  0  0  0
   -1.9750   -1.7625    0.0000 C   0  0  0  0  0  0  0  0  0  0  0  0
   -1.9750   -3.4958    0.0000 O   0  0  0  0  0  0  0  0  0  0  0  0
    1.5625    4.3625    0.0000 C   0  0  0  0  0  0  0  0  0  0  0  0
   -1.4750   -4.3625    0.0000 C   0  0  0  0  0  0  0  0  0  0  0  0
  1  2  2  0
  1  3  1  0
  2  4  1  0
  1  5  1  0
  3  6  1  0
  5  7  1  0
  2  8  1  0
  8  9  3  0
  7 10  1  0
  7 11  2  0
 10 12  1  0
 10 13  2  0
  4 14  1  0
 15 17  2  0
  6 16  1  0
 13 17  1  0
 12 18  2  0
 15 19  1  0
 16 20  1  0
 19 21  1  0
  4  6  2  0
 14 20  1  0
 15 18  1  0
M  END
>  <MOLFORMULA>  (720) 
C16 H14 N2 O2 S

>  <MOLWEIGHT>  (720) 
2.983646000000000e+002

>  <IDNUMBER>  (720) 
AN-153/I236325

>  <PRICE>  (720) 
EUR 130/10 mg

>  <Similarity score>  (720) 
0.18

$$$$

     RDKit          2D

 25 27  0  0  0  0  0  0  0  0999 V2000
   -0.2500    1.8375    0.0000 C   0  0  0  0  0  0  0  0  0  0  0  0
    0.2625    2.6958    0.0000 C   0  0  0  0  0  0  0  0  0  0  0  0
   -0.2708   -2.5208    0.0000 C   0  0  0  0  0  0  0  0  0  0  0  0
   -0.8708   -3.3208    0.0000 N   0  0  0  0  0  0  0  0  0  0  0  0
   -1.2250    2.0625    0.0000 S   0  0  0  0  0  0  0  0  0  0  0  0
    0.7250   -2.6375    0.0000 N   0  0  0  0  0  0  0  0  0  0  0  0
   -0.3958    3.4500    0.0000 C   0  0  0  0  0  0  0  0  0  0  0  0
    0.1458    0.9208    0.0000 N   0  0  0  0  0  0  0  0  0  0  0  0
   -1.3125    3.0583    0.0000 C   0  0  0  0  0  0  0  0  0  0  0  0
   -0.4750   -4.2375    0.0000 C   0  0  0  0  0  0  0  0  0  0  0  0
    0.5167   -4.3583    0.0000 C   0  0  0  0  0  0  0  0  0  0  0  0
    1.1167   -3.5583    0.0000 C   0  0  0  0  0  0  0  0  0  0  0  0
   -0.4542    0.1208    0.0000 C   0  0  0  0  0  0  0  0  0  0  0  0
    1.2583    2.7875    0.0000 C   0  0  0  0  0  0  0  0  0  0  0  0
   -0.6625   -1.6000    0.0000 S   0  0  0  0  0  0  0  0  0  0  0  0
    1.6792    3.6958    0.0000 N   0  0  0  0  0  0  0  0  0  0  0  0
   -0.0625   -0.8000    0.0000 C   0  0  0  0  0  0  0  0  0  0  0  0
   -1.4500    0.2375    0.0000 O   0  0  0  0  0  0  0  0  0  0  0  0
    2.1083   -3.6792    0.0000 O   0  0  0  0  0  0  0  0  0  0  0  0
   -1.0750   -5.0375    0.0000 N   0  0  0  0  0  0  0  0  0  0  0  0
   -0.2750    4.4375    0.0000 C   0  0  0  0  0  0  0  0  0  0  0  0
   -2.1125    3.6583    0.0000 C   0  0  0  0  0  0  0  0  0  0  0  0
    0.9292   -0.9208    0.0000 C   0  0  0  0  0  0  0  0  0  0  0  0
   -1.0750    5.0375    0.0000 C   0  0  0  0  0  0  0  0  0  0  0  0
   -1.9958    4.6458    0.0000 C   0  0  0  0  0  0  0  0  0  0  0  0
  1  2  2  0
  3 15  1  0
  3  4  2  0
  1  5  1  0
  3  6  1  0
  2  7  1  0
  1  8  1  0
  5  9  1  0
  4 10  1  0
 11 12  1  0
  6 12  1  0
  8 13  1  0
  2 14  1  0
 15 17  1  0
 14 16  3  0
 13 17  1  0
 13 18  2  0
 12 19  2  0
 10 20  1  0
  7 21  1  0
  9 22  1  0
 17 23  1  0
 21 24  1  0
 22 25  1  0
  7  9  2  0
 24 25  1  0
 10 11  2  0
M  END
>  <MOLFORMULA>  (721) 
C16 H17 N5 O2 S2

>  <MOLWEIGHT>  (721) 
3.754753000000000e+002

>  <IDNUMBER>  (721) 
AN-153/I240410

>  <PRICE>  (721) 
EUR 130/10 mg

>  <Similarity score>  (721) 
0.18

$$$$

     RDKit          2D

 11 12  0  0  0  0  0  0  0  0999 V2000
    0.1000    1.0958    0.0000 C   0  0  0  0  0  0  0  0  0  0  0  0
    0.3167    0.4125    0.0000 C   0  0  0  0  0  0  0  0  0  0  0  0
   -0.6208    1.0958    0.0000 C   0  0  0  0  0  0  0  0  0  0  0  0
   -0.2625   -0.0042    0.0000 S   0  0  0  0  0  0  0  0  0  0  0  0
   -0.8458    0.4125    0.0000 C   0  0  0  0  0  0  0  0  0  0  0  0
    0.5167    1.6958    0.0000 C   0  0  0  0  0  0  0  0  0  0  0  0
    0.9375    2.2708    0.0000 N   0  0  0  0  0  0  0  0  0  0  0  0
    1.0167    0.1958    0.0000 N   0  0  0  0  0  0  0  0  0  0  0  0
   -1.2000    1.4958    0.0000 C   0  0  0  0  0  0  0  0  0  0  0  0
   -1.5458    0.3958    0.0000 C   0  0  0  0  0  0  0  0  0  0  0  0
   -1.7625    1.0500    0.0000 C   0  0  0  0  0  0  0  0  0  0  0  0
  1  2  2  0
  1  3  1  0
  2  4  1  0
  3  5  2  0
  1  6  1  0
  6  7  3  0
  2  8  1  0
  3  9  1  0
  5 10  1  0
  9 11  1  0
  4  5  1  0
 10 11  1  0
M  END
>  <MOLFORMULA>  (722) 
C8 H8 N2 S

>  <MOLWEIGHT>  (722) 
1.642312000000000e+002

>  <IDNUMBER>  (722) 
AT-225/JK21174

>  <PRICE>  (722) 
EUR 140/10 mg

>  <Similarity score>  (722) 
0.18

$$$$

     RDKit          2D

 11 12  0  0  0  0  0  0  0  0999 V2000
    5.9500   -3.8167    0.0000 C   0  0  0  0  0  0  0  0  0  0  0  0
    6.2000   -4.6000    0.0000 C   0  0  0  0  0  0  0  0  0  0  0  0
    5.1250   -3.8167    0.0000 C   0  0  0  0  0  0  0  0  0  0  0  0
    5.5500   -5.0792    0.0000 S   0  0  0  0  0  0  0  0  0  0  0  0
    4.8750   -4.6000    0.0000 C   0  0  0  0  0  0  0  0  0  0  0  0
    6.4417   -3.1500    0.0000 C   0  0  0  0  0  0  0  0  0  0  0  0
    6.9250   -2.4750    0.0000 N   0  0  0  0  0  0  0  0  0  0  0  0
    6.9917   -4.8500    0.0000 N   0  0  0  0  0  0  0  0  0  0  0  0
    4.4542   -3.3292    0.0000 C   0  0  0  0  0  0  0  0  0  0  0  0
    4.0500   -4.6000    0.0000 C   0  0  0  0  0  0  0  0  0  0  0  0
    3.7917   -3.8250    0.0000 C   0  0  0  0  0  0  0  0  0  0  0  0
  1  2  2  0
  1  3  1  0
  2  4  1  0
  3  5  2  0
  1  6  1  0
  6  7  3  0
  2  8  1  0
  3  9  1  0
  5 10  1  0
  9 11  1  0
  4  5  1  0
 10 11  1  0
M  END
>  <MOLFORMULA>  (723) 
C8 H8 N2 S

>  <MOLWEIGHT>  (723) 
1.642312000000000e+002

>  <IDNUMBER>  (723) 
AT-687/PE32837

>  <PRICE>  (723) 
EUR 80/10 mg

>  <Similarity score>  (723) 
0.18

$$$$

     RDKit          2D

 11 12  0  0  0  0  0  0  0  0999 V2000
    3.4875   -2.1542    0.0000 C   0  0  0  0  0  0  0  0  0  0  0  0
    3.8917   -3.4250    0.0000 C   0  0  0  0  0  0  0  0  0  0  0  0
    2.1542   -2.1542    0.0000 C   0  0  0  0  0  0  0  0  0  0  0  0
    2.8292   -4.2042    0.0000 S   0  0  0  0  0  0  0  0  0  0  0  0
    1.7542   -3.4250    0.0000 C   0  0  0  0  0  0  0  0  0  0  0  0
    4.2667   -1.0792    0.0000 C   0  0  0  0  0  0  0  0  0  0  0  0
    5.0542   -0.0000    0.0000 N   0  0  0  0  0  0  0  0  0  0  0  0
    5.1542   -3.8292    0.0000 N   0  0  0  0  0  0  0  0  0  0  0  0
    1.0792   -1.3792    0.0000 C   0  0  0  0  0  0  0  0  0  0  0  0
    0.4167   -3.4250    0.0000 C   0  0  0  0  0  0  0  0  0  0  0  0
    0.0000   -2.1750    0.0000 C   0  0  0  0  0  0  0  0  0  0  0  0
  1  2  2  0
  1  3  1  0
  2  4  1  0
  3  5  2  0
  1  6  1  0
  6  7  3  0
  2  8  1  0
  3  9  1  0
  5 10  1  0
  9 11  1  0
  4  5  1  0
 10 11  1  0
M  END
>  <MOLFORMULA>  (724) 
C8 H8 N2 S

>  <MOLWEIGHT>  (724) 
1.642312000000000e+002

>  <IDNUMBER>  (724) 
AT-687/NB01828

>  <PRICE>  (724) 
EUR 80/10 mg

>  <Similarity score>  (724) 
0.18

$$$$

     RDKit          2D

 11 12  0  0  0  0  0  0  0  0999 V2000
   -0.5542   -0.3542    0.0000 C   0  0  0  0  0  0  0  0  0  0  0  0
   -0.9625    0.5583    0.0000 C   0  0  0  0  0  0  0  0  0  0  0  0
    0.4417   -0.2500    0.0000 C   0  0  0  0  0  0  0  0  0  0  0  0
   -0.2167    1.2250    0.0000 S   0  0  0  0  0  0  0  0  0  0  0  0
    0.6500    0.7250    0.0000 C   0  0  0  0  0  0  0  0  0  0  0  0
   -1.0542   -1.2208    0.0000 C   0  0  0  0  0  0  0  0  0  0  0  0
   -2.0542   -1.2208    0.0000 N   0  0  0  0  0  0  0  0  0  0  0  0
   -1.9375    0.7667    0.0000 N   0  0  0  0  0  0  0  0  0  0  0  0
    1.3083   -0.7500    0.0000 C   0  0  0  0  0  0  0  0  0  0  0  0
    1.6417    0.8292    0.0000 C   0  0  0  0  0  0  0  0  0  0  0  0
    2.0500   -0.0833    0.0000 C   0  0  0  0  0  0  0  0  0  0  0  0
  1  2  2  0
  1  3  1  0
  2  4  1  0
  3  5  2  0
  1  6  1  0
  6  7  3  0
  2  8  1  0
  3  9  1  0
  5 10  1  0
  9 11  1  0
  4  5  1  0
 10 11  1  0
M  END
>  <MOLFORMULA>  (725) 
C8 H8 N2 S

>  <MOLWEIGHT>  (725) 
1.642312000000000e+002

>  <IDNUMBER>  (725) 
AN-153/I105018

>  <PRICE>  (725) 
EUR 130/10 mg

>  <Similarity score>  (725) 
0.18

$$$$

     RDKit          2D

 11 12  0  0  0  0  0  0  0  0999 V2000
    3.0667   -2.4667    0.0000 C   0  0  0  0  0  0  0  0  0  0  0  0
    2.4167   -3.6417    0.0000 C   0  0  0  0  0  0  0  0  0  0  0  0
    2.1542   -1.5125    0.0000 C   0  0  0  0  0  0  0  0  0  0  0  0
    1.1250   -3.4167    0.0000 S   0  0  0  0  0  0  0  0  0  0  0  0
    0.9375   -2.1042    0.0000 C   0  0  0  0  0  0  0  0  0  0  0  0
    4.3875   -2.2792    0.0000 C   0  0  0  0  0  0  0  0  0  0  0  0
    5.7000   -2.1000    0.0000 N   0  0  0  0  0  0  0  0  0  0  0  0
    3.0125   -4.8417    0.0000 N   0  0  0  0  0  0  0  0  0  0  0  0
    1.9417   -0.2042    0.0000 C   0  0  0  0  0  0  0  0  0  0  0  0
    0.0000   -1.1542    0.0000 C   0  0  0  0  0  0  0  0  0  0  0  0
    0.6167   -0.0000    0.0000 C   0  0  0  0  0  0  0  0  0  0  0  0
  1  2  2  0
  1  3  1  0
  2  4  1  0
  3  5  2  0
  1  6  1  0
  6  7  3  0
  2  8  1  0
  3  9  1  0
  5 10  1  0
  9 11  1  0
  4  5  1  0
 10 11  1  0
M  END
>  <MOLFORMULA>  (726) 
C8 H8 N2 S

>  <MOLWEIGHT>  (726) 
1.642312000000000e+002

>  <IDNUMBER>  (726) 
AT-084/J157520

>  <PRICE>  (726) 
EUR 37.00/10 mg

>  <Similarity score>  (726) 
0.18

$$$$

     RDKit          2D

 31 34  0  0  0  0  0  0  0  0999 V2000
   11.3875   -4.8167    0.0000 C   0  0  0  0  0  0  0  0  0  0  0  0
   12.0542   -5.3042    0.0000 C   0  0  0  0  0  0  0  0  0  0  0  0
    7.1375   -3.9792    0.0000 N   0  0  0  0  0  0  0  0  0  0  0  0
   11.6417   -4.0375    0.0000 S   0  0  0  0  0  0  0  0  0  0  0  0
    6.4667   -4.4667    0.0000 C   0  0  0  0  0  0  0  0  0  0  0  0
   12.7292   -4.8292    0.0000 C   0  0  0  0  0  0  0  0  0  0  0  0
    6.7167   -5.2542    0.0000 N   0  0  0  0  0  0  0  0  0  0  0  0
   12.4667   -4.0292    0.0000 C   0  0  0  0  0  0  0  0  0  0  0  0
    7.8042   -4.4667    0.0000 C   0  0  0  0  0  0  0  0  0  0  0  0
    7.5500   -5.2542    0.0000 N   0  0  0  0  0  0  0  0  0  0  0  0
   10.6042   -5.0667    0.0000 N   0  0  0  0  0  0  0  0  0  0  0  0
    5.6792   -4.2125    0.0000 C   0  0  0  0  0  0  0  0  0  0  0  0
   12.0542   -6.1292    0.0000 C   0  0  0  0  0  0  0  0  0  0  0  0
   11.3417   -6.5417    0.0000 N   0  0  0  0  0  0  0  0  0  0  0  0
    9.9917   -4.5167    0.0000 C   0  0  0  0  0  0  0  0  0  0  0  0
    8.5917   -4.2167    0.0000 S   0  0  0  0  0  0  0  0  0  0  0  0
    5.5042   -3.4000    0.0000 C   0  0  0  0  0  0  0  0  0  0  0  0
    5.0667   -4.7625    0.0000 C   0  0  0  0  0  0  0  0  0  0  0  0
    4.1000   -3.6917    0.0000 C   0  0  0  0  0  0  0  0  0  0  0  0
    4.2792   -4.5042    0.0000 C   0  0  0  0  0  0  0  0  0  0  0  0
    4.7167   -3.1417    0.0000 C   0  0  0  0  0  0  0  0  0  0  0  0
   10.1667   -3.7125    0.0000 O   0  0  0  0  0  0  0  0  0  0  0  0
    9.2042   -4.7667    0.0000 C   0  0  0  0  0  0  0  0  0  0  0  0
   13.5375   -5.0042    0.0000 C   0  0  0  0  0  0  0  0  0  0  0  0
   13.0292   -3.4167    0.0000 C   0  0  0  0  0  0  0  0  0  0  0  0
    3.6625   -5.0667    0.0000 O   0  0  0  0  0  0  0  0  0  0  0  0
    4.5500   -2.3292    0.0000 O   0  0  0  0  0  0  0  0  0  0  0  0
    2.8750   -4.8167    0.0000 C   0  0  0  0  0  0  0  0  0  0  0  0
    5.1625   -1.7792    0.0000 C   0  0  0  0  0  0  0  0  0  0  0  0
   14.1000   -4.3792    0.0000 C   0  0  0  0  0  0  0  0  0  0  0  0
   13.8417   -3.5917    0.0000 C   0  0  0  0  0  0  0  0  0  0  0  0
  1  2  2  0
  3  9  1  0
  1  4  1  0
  3  5  1  0
  2  6  1  0
  7 10  1  0
  4  8  1  0
  9 16  1  0
  9 10  2  0
  1 11  1  0
  5 12  1  0
  2 13  1  0
 13 14  3  0
 11 15  1  0
 16 23  1  0
 12 17  2  0
 12 18  1  0
 19 20  1  0
 18 20  2  0
 17 21  1  0
 15 22  2  0
 15 23  1  0
  6 24  1  0
  8 25  1  0
 20 26  1  0
 21 27  1  0
 26 28  1  0
 27 29  1  0
 24 30  1  0
 25 31  1  0
  6  8  2  0
 30 31  1  0
  5  7  2  0
 19 21  2  0
M  END
>  <MOLFORMULA>  (727) 
C21 H21 N5 O3 S2

>  <MOLWEIGHT>  (727) 
4.555609000000000e+002

>  <IDNUMBER>  (727) 
AM-879/J185590

>  <PRICE>  (727) 
EUR 55.00/10 mg

>  <Similarity score>  (727) 
0.18

$$$$

     RDKit          2D

 36 39  0  0  0  0  0  0  0  0999 V2000
   -1.1125    0.3000    0.0000 C   0  0  0  0  0  0  0  0  0  0  0  0
   -2.3333    0.8458    0.0000 C   0  0  0  0  0  0  0  0  0  0  0  0
   -1.2500   -1.0375    0.0000 S   0  0  0  0  0  0  0  0  0  0  0  0
   -3.2333   -0.1542    0.0000 C   0  0  0  0  0  0  0  0  0  0  0  0
    0.0875    0.9625    0.0000 N   0  0  0  0  0  0  0  0  0  0  0  0
   -2.5708   -1.3167    0.0000 C   0  0  0  0  0  0  0  0  0  0  0  0
    2.4042    0.9625    0.0000 C   0  0  0  0  0  0  0  0  0  0  0  0
    1.2500    0.3000    0.0000 C   0  0  0  0  0  0  0  0  0  0  0  0
   10.9167    1.4625    0.0000 C   0  0  0  0  0  0  0  0  0  0  0  0
   -2.6000    2.1500    0.0000 C   0  0  0  0  0  0  0  0  0  0  0  0
   -2.8708    3.4625    0.0000 N   0  0  0  0  0  0  0  0  0  0  0  0
    9.5792    1.4500    0.0000 O   0  0  0  0  0  0  0  0  0  0  0  0
    4.9042    0.3000    0.0000 N   0  0  0  0  0  0  0  0  0  0  0  0
   11.5917    0.3083    0.0000 C   0  0  0  0  0  0  0  0  0  0  0  0
    3.5667    0.3000    0.0000 N   0  0  0  0  0  0  0  0  0  0  0  0
    2.4042    2.2958    0.0000 O   0  0  0  0  0  0  0  0  0  0  0  0
    1.2500   -1.0292    0.0000 O   0  0  0  0  0  0  0  0  0  0  0  0
   11.5917    2.6250    0.0000 O   0  0  0  0  0  0  0  0  0  0  0  0
    8.9125    0.2958    0.0000 C   0  0  0  0  0  0  0  0  0  0  0  0
   10.9292   -0.8417    0.0000 C   0  0  0  0  0  0  0  0  0  0  0  0
   12.9375    0.3208    0.0000 C   0  0  0  0  0  0  0  0  0  0  0  0
    5.5667   -0.8542    0.0000 C   0  0  0  0  0  0  0  0  0  0  0  0
    7.5667    0.2875    0.0000 C   0  0  0  0  0  0  0  0  0  0  0  0
   12.9500   -2.0000    0.0000 C   0  0  0  0  0  0  0  0  0  0  0  0
    6.9000   -0.8667    0.0000 C   0  0  0  0  0  0  0  0  0  0  0  0
   -4.5958   -0.1542    0.0000 C   0  0  0  0  0  0  0  0  0  0  0  0
   13.6125   -0.8292    0.0000 C   0  0  0  0  0  0  0  0  0  0  0  0
   11.6042   -2.0042    0.0000 C   0  0  0  0  0  0  0  0  0  0  0  0
   -3.2333   -2.4792    0.0000 C   0  0  0  0  0  0  0  0  0  0  0  0
   13.6167   -3.1542    0.0000 O   0  0  0  0  0  0  0  0  0  0  0  0
    8.9042   -2.0292    0.0000 C   0  0  0  0  0  0  0  0  0  0  0  0
    9.5792   -0.8667    0.0000 C   0  0  0  0  0  0  0  0  0  0  0  0
    7.5625   -2.0250    0.0000 C   0  0  0  0  0  0  0  0  0  0  0  0
   14.9542   -3.1417    0.0000 C   0  0  0  0  0  0  0  0  0  0  0  0
   -5.2500   -1.3167    0.0000 C   0  0  0  0  0  0  0  0  0  0  0  0
   -4.5958   -2.4792    0.0000 C   0  0  0  0  0  0  0  0  0  0  0  0
  1  2  2  0
  1  3  1  0
  2  4  1  0
  1  5  1  0
  3  6  1  0
  7  8  1  0
  5  8  1  0
  9 12  1  0
  2 10  1  0
 10 11  3  0
 12 19  1  0
 13 15  1  0
  9 14  1  0
  7 15  1  0
  7 16  2  0
  8 17  2  0
  9 18  2  0
 19 23  2  0
 14 20  1  0
 14 21  2  0
 13 22  2  0
 23 25  1  0
 24 27  2  0
 22 25  1  0
  4 26  1  0
 21 27  1  0
 20 28  2  0
  6 29  1  0
 24 30  1  0
 31 33  1  0
 31 32  2  0
 25 33  2  0
 30 34  1  0
 26 35  1  0
 29 36  1  0
  4  6  2  0
 35 36  1  0
 19 32  1  0
 24 28  1  0
M  END
>  <MOLFORMULA>  (728) 
C26 H22 N4 O5 S

>  <MOLWEIGHT>  (728) 
5.025488000000000e+002

>  <IDNUMBER>  (728) 
AT-225/NB65395

>  <PRICE>  (728) 
EUR 140/10 mg

>  <Similarity score>  (728) 
0.18

$$$$

     RDKit          2D

 12 13  0  0  0  0  0  0  0  0999 V2000
    4.0542   -2.1250    0.0000 C   0  0  0  0  0  0  0  0  0  0  0  0
    4.0542   -2.8750    0.0000 C   0  0  0  0  0  0  0  0  0  0  0  0
    2.7542   -2.1250    0.0000 C   0  0  0  0  0  0  0  0  0  0  0  0
    3.4042   -3.2500    0.0000 S   0  0  0  0  0  0  0  0  0  0  0  0
    2.7542   -2.8750    0.0000 C   0  0  0  0  0  0  0  0  0  0  0  0
    4.5875   -1.5917    0.0000 C   0  0  0  0  0  0  0  0  0  0  0  0
    5.1167   -1.0625    0.0000 N   0  0  0  0  0  0  0  0  0  0  0  0
    4.7042   -3.2500    0.0000 N   0  0  0  0  0  0  0  0  0  0  0  0
    2.1042   -1.7500    0.0000 C   0  0  0  0  0  0  0  0  0  0  0  0
    2.1042   -3.2500    0.0000 C   0  0  0  0  0  0  0  0  0  0  0  0
    1.4625   -2.1250    0.0000 C   0  0  0  0  0  0  0  0  0  0  0  0
    1.4625   -2.8750    0.0000 C   0  0  0  0  0  0  0  0  0  0  0  0
  1  2  2  0
  1  3  1  0
  2  4  1  0
  3  5  2  0
  1  6  1  0
  6  7  3  0
  2  8  1  0
  3  9  1  0
  5 10  1  0
  9 11  1  0
 11 12  1  0
  4  5  1  0
 10 12  1  0
M  END
>  <MOLFORMULA>  (729) 
C9 H10 N2 S

>  <MOLWEIGHT>  (729) 
1.782580000000000e+002

>  <IDNUMBER>  (729) 
AT-819/OC00072

>  <PRICE>  (729) 
EUR 128/10 mg

>  <Similarity score>  (729) 
0.18

$$$$

     RDKit          2D

 12 13  0  0  0  0  0  0  0  0999 V2000
    2.7917   -1.2292    0.0000 C   0  0  0  0  0  0  0  0  0  0  0  0
    3.2750   -1.8917    0.0000 C   0  0  0  0  0  0  0  0  0  0  0  0
    2.0000   -1.4917    0.0000 C   0  0  0  0  0  0  0  0  0  0  0  0
    2.8000   -2.5667    0.0000 S   0  0  0  0  0  0  0  0  0  0  0  0
    2.0167   -2.3167    0.0000 C   0  0  0  0  0  0  0  0  0  0  0  0
    3.0417   -0.4500    0.0000 C   0  0  0  0  0  0  0  0  0  0  0  0
    3.2500    0.3500    0.0000 N   0  0  0  0  0  0  0  0  0  0  0  0
    4.1000   -1.8917    0.0000 N   0  0  0  0  0  0  0  0  0  0  0  0
    1.3000   -1.0750    0.0000 C   0  0  0  0  0  0  0  0  0  0  0  0
    1.3000   -2.7250    0.0000 C   0  0  0  0  0  0  0  0  0  0  0  0
    0.5917   -1.4917    0.0000 C   0  0  0  0  0  0  0  0  0  0  0  0
    0.5917   -2.3167    0.0000 C   0  0  0  0  0  0  0  0  0  0  0  0
  1  2  2  0
  1  3  1  0
  2  4  1  0
  3  5  2  0
  1  6  1  0
  6  7  3  0
  2  8  1  0
  3  9  1  0
  5 10  1  0
  9 11  1  0
 11 12  1  0
  4  5  1  0
 10 12  1  0
M  END
>  <MOLFORMULA>  (730) 
C9 H10 N2 S

>  <MOLWEIGHT>  (730) 
1.782580000000000e+002

>  <IDNUMBER>  (730) 
AT-687/PE31884

>  <PRICE>  (730) 
EUR 80/10 mg

>  <Similarity score>  (730) 
0.18

$$$$

     RDKit          2D

 12 13  0  0  0  0  0  0  0  0999 V2000
    3.5667   -2.5167    0.0000 C   0  0  0  0  0  0  0  0  0  0  0  0
    4.3375   -3.5917    0.0000 C   0  0  0  0  0  0  0  0  0  0  0  0
    2.3292   -2.9167    0.0000 C   0  0  0  0  0  0  0  0  0  0  0  0
    3.5792   -4.6750    0.0000 S   0  0  0  0  0  0  0  0  0  0  0  0
    2.3292   -4.2542    0.0000 C   0  0  0  0  0  0  0  0  0  0  0  0
    4.0000   -1.2542    0.0000 C   0  0  0  0  0  0  0  0  0  0  0  0
    4.4375   -0.0000    0.0000 N   0  0  0  0  0  0  0  0  0  0  0  0
    5.6792   -3.5500    0.0000 N   0  0  0  0  0  0  0  0  0  0  0  0
    1.1500   -2.2875    0.0000 C   0  0  0  0  0  0  0  0  0  0  0  0
    1.1750   -4.9292    0.0000 C   0  0  0  0  0  0  0  0  0  0  0  0
    0.0000   -2.9375    0.0000 C   0  0  0  0  0  0  0  0  0  0  0  0
    0.0000   -4.2667    0.0000 C   0  0  0  0  0  0  0  0  0  0  0  0
  1  2  2  0
  1  3  1  0
  2  4  1  0
  3  5  2  0
  1  6  1  0
  6  7  3  0
  2  8  1  0
  3  9  1  0
  5 10  1  0
  9 11  1  0
 11 12  1  0
  4  5  1  0
 10 12  1  0
M  END
>  <MOLFORMULA>  (731) 
C9 H10 N2 S

>  <MOLWEIGHT>  (731) 
1.782580000000000e+002

>  <IDNUMBER>  (731) 
AT-084/J157521

>  <PRICE>  (731) 
EUR 37.00/10 mg

>  <Similarity score>  (731) 
0.18

$$$$

     RDKit          2D

 12 13  0  0  0  0  0  0  0  0999 V2000
   -0.7000   -0.3542    0.0000 C   0  0  0  0  0  0  0  0  0  0  0  0
   -1.1083    0.5583    0.0000 C   0  0  0  0  0  0  0  0  0  0  0  0
    0.2958   -0.2500    0.0000 C   0  0  0  0  0  0  0  0  0  0  0  0
   -0.3625    1.2250    0.0000 S   0  0  0  0  0  0  0  0  0  0  0  0
    0.5042    0.7250    0.0000 C   0  0  0  0  0  0  0  0  0  0  0  0
   -1.2000   -1.2208    0.0000 C   0  0  0  0  0  0  0  0  0  0  0  0
   -2.2000   -1.2208    0.0000 N   0  0  0  0  0  0  0  0  0  0  0  0
   -2.0833    0.7667    0.0000 N   0  0  0  0  0  0  0  0  0  0  0  0
    1.0375   -0.9208    0.0000 C   0  0  0  0  0  0  0  0  0  0  0  0
    1.4542    1.0375    0.0000 C   0  0  0  0  0  0  0  0  0  0  0  0
    1.9875   -0.6125    0.0000 C   0  0  0  0  0  0  0  0  0  0  0  0
    2.1958    0.3667    0.0000 C   0  0  0  0  0  0  0  0  0  0  0  0
  1  2  2  0
  1  3  1  0
  2  4  1  0
  3  5  2  0
  1  6  1  0
  6  7  3  0
  2  8  1  0
  3  9  1  0
  5 10  1  0
  9 11  1  0
 11 12  1  0
  4  5  1  0
 10 12  1  0
M  END
>  <MOLFORMULA>  (732) 
C9 H10 N2 S

>  <MOLWEIGHT>  (732) 
1.782580000000000e+002

>  <IDNUMBER>  (732) 
AN-153/I100232

>  <PRICE>  (732) 
EUR 130/10 mg

>  <Similarity score>  (732) 
0.18

$$$$

     RDKit          2D

 12 13  0  0  0  0  0  0  0  0999 V2000
    3.5500   -2.5625    0.0000 C   0  0  0  0  0  0  0  0  0  0  0  0
    4.3375   -3.6167    0.0000 C   0  0  0  0  0  0  0  0  0  0  0  0
    2.2792   -2.9750    0.0000 C   0  0  0  0  0  0  0  0  0  0  0  0
    3.5667   -4.7125    0.0000 S   0  0  0  0  0  0  0  0  0  0  0  0
    2.3000   -4.3042    0.0000 C   0  0  0  0  0  0  0  0  0  0  0  0
    3.9542   -1.2917    0.0000 C   0  0  0  0  0  0  0  0  0  0  0  0
    4.2917   -0.0000    0.0000 N   0  0  0  0  0  0  0  0  0  0  0  0
    5.6667   -3.6167    0.0000 N   0  0  0  0  0  0  0  0  0  0  0  0
    1.1417   -2.3042    0.0000 C   0  0  0  0  0  0  0  0  0  0  0  0
    1.1417   -4.9667    0.0000 C   0  0  0  0  0  0  0  0  0  0  0  0
    0.0000   -2.9750    0.0000 C   0  0  0  0  0  0  0  0  0  0  0  0
    0.0000   -4.3042    0.0000 C   0  0  0  0  0  0  0  0  0  0  0  0
  1  2  2  0
  1  3  1  0
  2  4  1  0
  3  5  2  0
  1  6  1  0
  6  7  3  0
  2  8  1  0
  3  9  1  0
  5 10  1  0
  9 11  1  0
 11 12  1  0
  4  5  1  0
 10 12  1  0
M  END
>  <MOLFORMULA>  (733) 
C9 H10 N2 S

>  <MOLWEIGHT>  (733) 
1.782580000000000e+002

>  <IDNUMBER>  (733) 
AT-687/NB00447

>  <PRICE>  (733) 
EUR 80/10 mg

>  <Similarity score>  (733) 
0.18

$$$$

     RDKit          2D

 12 13  0  0  0  0  0  0  0  0999 V2000
    6.2292   -7.9292    0.0000 C   0  0  0  0  0  0  0  0  0  0  0  0
    6.4875   -8.7167    0.0000 C   0  0  0  0  0  0  0  0  0  0  0  0
    5.4042   -7.9292    0.0000 C   0  0  0  0  0  0  0  0  0  0  0  0
    5.8167   -9.2000    0.0000 S   0  0  0  0  0  0  0  0  0  0  0  0
    5.1500   -8.7167    0.0000 C   0  0  0  0  0  0  0  0  0  0  0  0
    6.7167   -7.2625    0.0000 C   0  0  0  0  0  0  0  0  0  0  0  0
    7.2000   -6.5917    0.0000 N   0  0  0  0  0  0  0  0  0  0  0  0
    7.2667   -8.9750    0.0000 N   0  0  0  0  0  0  0  0  0  0  0  0
    4.8542   -7.3167    0.0000 C   0  0  0  0  0  0  0  0  0  0  0  0
    4.3417   -8.8917    0.0000 C   0  0  0  0  0  0  0  0  0  0  0  0
    4.0417   -7.4875    0.0000 C   0  0  0  0  0  0  0  0  0  0  0  0
    3.7875   -8.2750    0.0000 C   0  0  0  0  0  0  0  0  0  0  0  0
  1  2  2  0
  1  3  1  0
  2  4  1  0
  3  5  2  0
  1  6  1  0
  6  7  3  0
  2  8  1  0
  3  9  1  0
  5 10  1  0
  9 11  1  0
 11 12  1  0
  4  5  1  0
 10 12  1  0
M  END
>  <MOLFORMULA>  (734) 
C9 H10 N2 S

>  <MOLWEIGHT>  (734) 
1.782580000000000e+002

>  <IDNUMBER>  (734) 
AP-853/J242318

>  <Similarity score>  (734) 
0.18

$$$$

     RDKit          2D

 17 18  0  0  0  0  0  0  0  0999 V2000
    3.8667   -1.1417    0.0000 N   0  0  0  0  0  0  0  0  0  0  0  0
    3.6042   -0.3500    0.0000 C   0  0  0  0  0  0  0  0  0  0  0  0
    3.2000   -1.6250    0.0000 N   0  0  0  0  0  0  0  0  0  0  0  0
    2.7792   -0.3542    0.0000 C   0  0  0  0  0  0  0  0  0  0  0  0
    2.5292   -1.1500    0.0000 C   0  0  0  0  0  0  0  0  0  0  0  0
    4.0917    0.3083    0.0000 C   0  0  0  0  0  0  0  0  0  0  0  0
    3.2042   -4.9292    0.0000 C   0  0  0  0  0  0  0  0  0  0  0  0
    3.2042   -2.4500    0.0000 C   0  0  0  0  0  0  0  0  0  0  0  0
    3.2042   -4.1042    0.0000 C   0  0  0  0  0  0  0  0  0  0  0  0
    3.7500    1.0625    0.0000 O   0  0  0  0  0  0  0  0  0  0  0  0
    2.5000   -5.3500    0.0000 O   0  0  0  0  0  0  0  0  0  0  0  0
    2.5000   -2.8667    0.0000 C   0  0  0  0  0  0  0  0  0  0  0  0
    3.9250   -2.8667    0.0000 C   0  0  0  0  0  0  0  0  0  0  0  0
    3.9250   -3.7000    0.0000 C   0  0  0  0  0  0  0  0  0  0  0  0
    2.5000   -3.7000    0.0000 C   0  0  0  0  0  0  0  0  0  0  0  0
    3.9250   -5.3500    0.0000 N   0  0  0  0  0  0  0  0  0  0  0  0
    4.9167    0.2250    0.0000 O   0  0  0  0  0  0  0  0  0  0  0  0
  1  2  2  0
  1  3  1  0
  2  4  1  0
  3  5  1  0
  2  6  1  0
  7  9  1  0
  3  8  1  0
  9 14  1  0
  6 10  2  0
  7 11  2  0
  8 12  2  0
  8 13  1  0
 13 14  2  0
 12 15  1  0
  7 16  1  0
  6 17  1  0
  4  5  2  0
  9 15  2  0
M  END
>  <MOLFORMULA>  (735) 
C11 H9 N3 O3

>  <MOLWEIGHT>  (735) 
2.312101000000000e+002

>  <IDNUMBER>  (735) 
AT-687/SK05526

>  <PRICE>  (735) 
EUR 80/10 mg

>  <Similarity score>  (735) 
0.18

$$$$

     RDKit          2D

 23 25  0  0  0  0  0  0  0  0999 V2000
    1.5250    1.2667    0.0000 C   0  0  0  0  0  0  0  0  0  0  0  0
    2.5208    1.3708    0.0000 C   0  0  0  0  0  0  0  0  0  0  0  0
    1.1167    2.1792    0.0000 S   0  0  0  0  0  0  0  0  0  0  0  0
    2.7292    2.3500    0.0000 C   0  0  0  0  0  0  0  0  0  0  0  0
    1.0250    0.4000    0.0000 N   0  0  0  0  0  0  0  0  0  0  0  0
    1.8625    2.8500    0.0000 C   0  0  0  0  0  0  0  0  0  0  0  0
    0.0250    0.4000    0.0000 C   0  0  0  0  0  0  0  0  0  0  0  0
    3.1875    0.6292    0.0000 C   0  0  0  0  0  0  0  0  0  0  0  0
   -0.4750   -0.4667    0.0000 C   0  0  0  0  0  0  0  0  0  0  0  0
    2.8792   -0.3208    0.0000 N   0  0  0  0  0  0  0  0  0  0  0  0
   -1.4750   -0.4667    0.0000 C   0  0  0  0  0  0  0  0  0  0  0  0
    0.0250   -1.3292    0.0000 C   0  0  0  0  0  0  0  0  0  0  0  0
   -0.4750    1.2667    0.0000 O   0  0  0  0  0  0  0  0  0  0  0  0
   -1.4750   -2.1958    0.0000 C   0  0  0  0  0  0  0  0  0  0  0  0
   -1.9750   -1.3292    0.0000 C   0  0  0  0  0  0  0  0  0  0  0  0
   -0.4750   -2.1958    0.0000 C   0  0  0  0  0  0  0  0  0  0  0  0
    3.4708    3.0208    0.0000 C   0  0  0  0  0  0  0  0  0  0  0  0
    2.0708    3.8292    0.0000 C   0  0  0  0  0  0  0  0  0  0  0  0
    0.0250   -3.0625    0.0000 O   0  0  0  0  0  0  0  0  0  0  0  0
   -2.9750   -1.3292    0.0000 O   0  0  0  0  0  0  0  0  0  0  0  0
    3.0625    3.9333    0.0000 C   0  0  0  0  0  0  0  0  0  0  0  0
   -0.4750   -3.9292    0.0000 C   0  0  0  0  0  0  0  0  0  0  0  0
   -3.4750   -2.1958    0.0000 C   0  0  0  0  0  0  0  0  0  0  0  0
  1  2  2  0
  1  3  1  0
  2  4  1  0
  1  5  1  0
  3  6  1  0
  5  7  1  0
  2  8  1  0
  7  9  1  0
  8 10  3  0
  9 11  2  0
  9 12  1  0
  7 13  2  0
 14 16  1  0
 11 15  1  0
 12 16  2  0
  4 17  1  0
  6 18  1  0
 16 19  1  0
 15 20  1  0
 18 21  1  0
 19 22  1  0
 20 23  1  0
  4  6  2  0
 17 21  1  0
 14 15  2  0
M  END
>  <MOLFORMULA>  (736) 
C17 H16 N2 O3 S

>  <MOLWEIGHT>  (736) 
3.283904000000000e+002

>  <IDNUMBER>  (736) 
AN-153/I226312

>  <PRICE>  (736) 
EUR 130/10 mg

>  <Similarity score>  (736) 
0.18

$$$$

     RDKit          2D

 13 14  0  0  0  0  0  0  0  0999 V2000
    0.2292    0.0458    0.0000 C   0  0  0  0  0  0  0  0  0  0  0  0
    0.5667   -1.0375    0.0000 C   0  0  0  0  0  0  0  0  0  0  0  0
   -0.9625    0.0458    0.0000 C   0  0  0  0  0  0  0  0  0  0  0  0
   -0.3125   -1.7292    0.0000 S   0  0  0  0  0  0  0  0  0  0  0  0
   -1.2958   -1.0542    0.0000 C   0  0  0  0  0  0  0  0  0  0  0  0
    0.9292    0.9208    0.0000 C   0  0  0  0  0  0  0  0  0  0  0  0
    1.6375    1.8208    0.0000 N   0  0  0  0  0  0  0  0  0  0  0  0
    1.6542   -1.3875    0.0000 N   0  0  0  0  0  0  0  0  0  0  0  0
   -1.5958    0.9708    0.0000 C   0  0  0  0  0  0  0  0  0  0  0  0
   -2.3625   -1.4792    0.0000 C   0  0  0  0  0  0  0  0  0  0  0  0
   -2.7458    1.0958    0.0000 C   0  0  0  0  0  0  0  0  0  0  0  0
   -3.3500   -0.8667    0.0000 C   0  0  0  0  0  0  0  0  0  0  0  0
   -3.5208    0.2625    0.0000 C   0  0  0  0  0  0  0  0  0  0  0  0
  1  2  2  0
  1  3  1  0
  2  4  1  0
  3  5  2  0
  1  6  1  0
  6  7  3  0
  2  8  1  0
  3  9  1  0
  5 10  1  0
  9 11  1  0
 10 12  1  0
 11 13  1  0
  4  5  1  0
 12 13  1  0
M  END
>  <MOLFORMULA>  (737) 
C10 H12 N2 S

>  <MOLWEIGHT>  (737) 
1.922848000000000e+002

>  <IDNUMBER>  (737) 
AT-225/JK21285

>  <PRICE>  (737) 
EUR 140/10 mg

>  <Similarity score>  (737) 
0.18

$$$$

     RDKit          2D

 13 14  0  0  0  0  0  0  0  0999 V2000
    2.1167   -2.5750    0.0000 C   0  0  0  0  0  0  0  0  0  0  0  0
    1.3292   -1.5000    0.0000 C   0  0  0  0  0  0  0  0  0  0  0  0
    3.3667   -2.1667    0.0000 C   0  0  0  0  0  0  0  0  0  0  0  0
    2.1167   -0.4167    0.0000 S   0  0  0  0  0  0  0  0  0  0  0  0
    3.3667   -0.8417    0.0000 C   0  0  0  0  0  0  0  0  0  0  0  0
    1.7000   -3.8375    0.0000 C   0  0  0  0  0  0  0  0  0  0  0  0
    1.2875   -5.1042    0.0000 N   0  0  0  0  0  0  0  0  0  0  0  0
    0.0000   -1.5000    0.0000 N   0  0  0  0  0  0  0  0  0  0  0  0
    4.4042   -2.9875    0.0000 C   0  0  0  0  0  0  0  0  0  0  0  0
    4.4042   -0.0000    0.0000 C   0  0  0  0  0  0  0  0  0  0  0  0
    5.7042   -2.6917    0.0000 C   0  0  0  0  0  0  0  0  0  0  0  0
    5.7042   -0.3000    0.0000 C   0  0  0  0  0  0  0  0  0  0  0  0
    6.2792   -1.5000    0.0000 C   0  0  0  0  0  0  0  0  0  0  0  0
  1  2  2  0
  1  3  1  0
  2  4  1  0
  3  5  2  0
  1  6  1  0
  6  7  3  0
  2  8  1  0
  3  9  1  0
  5 10  1  0
  9 11  1  0
 10 12  1  0
 11 13  1  0
  4  5  1  0
 12 13  1  0
M  END
>  <MOLFORMULA>  (738) 
C10 H12 N2 S

>  <MOLWEIGHT>  (738) 
1.922848000000000e+002

>  <IDNUMBER>  (738) 
AT-687/SK12402

>  <PRICE>  (738) 
EUR 80/10 mg

>  <Similarity score>  (738) 
0.18

$$$$

     RDKit          2D

 13 14  0  0  0  0  0  0  0  0999 V2000
   -2.4625   -0.0167    0.0000 C   0  0  0  0  0  0  0  0  0  0  0  0
   -2.0833   -0.5375    0.0000 C   0  0  0  0  0  0  0  0  0  0  0  0
   -3.0833   -0.2167    0.0000 C   0  0  0  0  0  0  0  0  0  0  0  0
   -2.4625   -1.0792    0.0000 S   0  0  0  0  0  0  0  0  0  0  0  0
   -3.0833   -0.8792    0.0000 C   0  0  0  0  0  0  0  0  0  0  0  0
   -2.2458    0.6458    0.0000 C   0  0  0  0  0  0  0  0  0  0  0  0
   -2.0458    1.2833    0.0000 N   0  0  0  0  0  0  0  0  0  0  0  0
   -1.4208   -0.5375    0.0000 N   0  0  0  0  0  0  0  0  0  0  0  0
   -3.5833    0.2000    0.0000 C   0  0  0  0  0  0  0  0  0  0  0  0
   -3.5833   -1.2792    0.0000 C   0  0  0  0  0  0  0  0  0  0  0  0
   -4.2208    0.0625    0.0000 C   0  0  0  0  0  0  0  0  0  0  0  0
   -4.2208   -1.1375    0.0000 C   0  0  0  0  0  0  0  0  0  0  0  0
   -4.5000   -0.5167    0.0000 C   0  0  0  0  0  0  0  0  0  0  0  0
  1  2  2  0
  1  3  1  0
  2  4  1  0
  3  5  2  0
  1  6  1  0
  6  7  3  0
  2  8  1  0
  3  9  1  0
  5 10  1  0
  9 11  1  0
 10 12  1  0
 11 13  1  0
  4  5  1  0
 12 13  1  0
M  END
>  <MOLFORMULA>  (739) 
C10 H12 N2 S

>  <MOLWEIGHT>  (739) 
1.922848000000000e+002

>  <IDNUMBER>  (739) 
AT-225/JK15582

>  <PRICE>  (739) 
EUR 140/10 mg

>  <Similarity score>  (739) 
0.18

$$$$

     RDKit          2D

 14 15  0  0  0  0  0  0  0  0999 V2000
    1.8167   -0.0292    0.0000 C   0  0  0  0  0  0  0  0  0  0  0  0
    1.2167   -0.8875    0.0000 C   0  0  0  0  0  0  0  0  0  0  0  0
    2.8000   -0.3500    0.0000 C   0  0  0  0  0  0  0  0  0  0  0  0
    1.8167   -1.7042    0.0000 S   0  0  0  0  0  0  0  0  0  0  0  0
    2.8000   -1.3875    0.0000 C   0  0  0  0  0  0  0  0  0  0  0  0
    1.5000    0.9708    0.0000 C   0  0  0  0  0  0  0  0  0  0  0  0
    1.1792    1.9708    0.0000 N   0  0  0  0  0  0  0  0  0  0  0  0
    0.1792   -0.8875    0.0000 N   0  0  0  0  0  0  0  0  0  0  0  0
    3.5375    0.3958    0.0000 C   0  0  0  0  0  0  0  0  0  0  0  0
    3.5375   -2.1292    0.0000 C   0  0  0  0  0  0  0  0  0  0  0  0
    4.5542    0.3958    0.0000 C   0  0  0  0  0  0  0  0  0  0  0  0
    4.5542   -2.1292    0.0000 C   0  0  0  0  0  0  0  0  0  0  0  0
    5.2792   -1.3875    0.0000 C   0  0  0  0  0  0  0  0  0  0  0  0
    5.2792   -0.3500    0.0000 C   0  0  0  0  0  0  0  0  0  0  0  0
  1  2  2  0
  1  3  1  0
  2  4  1  0
  3  5  2  0
  1  6  1  0
  6  7  3  0
  2  8  1  0
  3  9  1  0
  5 10  1  0
  9 11  1  0
 10 12  1  0
 13 14  1  0
 11 14  1  0
  4  5  1  0
 12 13  1  0
M  END
>  <MOLFORMULA>  (740) 
C11 H14 N2 S

>  <MOLWEIGHT>  (740) 
2.063116000000000e+002

>  <IDNUMBER>  (740) 
AT-225/JK15581

>  <PRICE>  (740) 
EUR 140/10 mg

>  <Similarity score>  (740) 
0.18

$$$$

     RDKit          2D

 23 25  0  0  0  0  0  0  0  0999 V2000
   -0.2250    2.0125    0.0000 C   0  0  0  0  0  0  0  0  0  0  0  0
    0.4750    2.7250    0.0000 C   0  0  0  0  0  0  0  0  0  0  0  0
    0.2375    1.1250    0.0000 S   0  0  0  0  0  0  0  0  0  0  0  0
    1.3708    2.2792    0.0000 C   0  0  0  0  0  0  0  0  0  0  0  0
   -1.2125    2.1583    0.0000 N   0  0  0  0  0  0  0  0  0  0  0  0
    1.2250    1.2917    0.0000 C   0  0  0  0  0  0  0  0  0  0  0  0
   -1.8333    1.3750    0.0000 C   0  0  0  0  0  0  0  0  0  0  0  0
    0.3125    3.7125    0.0000 C   0  0  0  0  0  0  0  0  0  0  0  0
   -0.6250    4.0583    0.0000 N   0  0  0  0  0  0  0  0  0  0  0  0
   -1.4708    0.4458    0.0000 C   0  0  0  0  0  0  0  0  0  0  0  0
   -2.8250    1.5250    0.0000 O   0  0  0  0  0  0  0  0  0  0  0  0
   -0.4792    0.3000    0.0000 C   0  0  0  0  0  0  0  0  0  0  0  0
   -2.0917   -0.3375    0.0000 C   0  0  0  0  0  0  0  0  0  0  0  0
   -0.3708   -2.3458    0.0000 O   0  0  0  0  0  0  0  0  0  0  0  0
   -0.7375   -1.4125    0.0000 C   0  0  0  0  0  0  0  0  0  0  0  0
    2.3583    2.4458    0.0000 C   0  0  0  0  0  0  0  0  0  0  0  0
    2.1208    0.8458    0.0000 C   0  0  0  0  0  0  0  0  0  0  0  0
   -1.7250   -1.2667    0.0000 C   0  0  0  0  0  0  0  0  0  0  0  0
   -0.1125   -0.6333    0.0000 C   0  0  0  0  0  0  0  0  0  0  0  0
    2.8208    1.5583    0.0000 C   0  0  0  0  0  0  0  0  0  0  0  0
   -0.9917   -3.1292    0.0000 C   0  0  0  0  0  0  0  0  0  0  0  0
   -0.6250   -4.0583    0.0000 C   0  0  0  0  0  0  0  0  0  0  0  0
   -1.9792   -2.9792    0.0000 C   0  0  0  0  0  0  0  0  0  0  0  0
  1  2  2  0
  1  3  1  0
  2  4  1  0
  1  5  1  0
  3  6  1  0
  5  7  1  0
  2  8  1  0
  8  9  3  0
  7 10  1  0
  7 11  2  0
 10 12  2  0
 10 13  1  0
 14 15  1  0
 15 18  1  0
  4 16  1  0
  6 17  1  0
 13 18  2  0
 12 19  1  0
 17 20  1  0
 14 21  1  0
 21 22  1  0
 21 23  1  0
  4  6  2  0
 16 20  1  0
 15 19  2  0
M  END
>  <MOLFORMULA>  (741) 
C18 H18 N2 O2 S

>  <MOLWEIGHT>  (741) 
3.264182000000000e+002

>  <IDNUMBER>  (741) 
AN-153/I224141

>  <PRICE>  (741) 
EUR 130/10 mg

>  <Similarity score>  (741) 
0.18

$$$$

     RDKit          2D

 24 26  0  0  0  0  0  0  0  0999 V2000
    0.7125    1.4917    0.0000 C   0  0  0  0  0  0  0  0  0  0  0  0
    0.3042    2.4042    0.0000 C   0  0  0  0  0  0  0  0  0  0  0  0
    1.7083    1.5958    0.0000 S   0  0  0  0  0  0  0  0  0  0  0  0
    1.0500    3.0750    0.0000 C   0  0  0  0  0  0  0  0  0  0  0  0
    0.2125    0.6250    0.0000 N   0  0  0  0  0  0  0  0  0  0  0  0
    1.9167    2.5750    0.0000 C   0  0  0  0  0  0  0  0  0  0  0  0
    0.7125   -0.2417    0.0000 C   0  0  0  0  0  0  0  0  0  0  0  0
   -0.6708    2.6125    0.0000 C   0  0  0  0  0  0  0  0  0  0  0  0
    0.2125   -1.1042    0.0000 C   0  0  0  0  0  0  0  0  0  0  0  0
   -1.3417    1.8708    0.0000 N   0  0  0  0  0  0  0  0  0  0  0  0
    0.7125   -1.9708    0.0000 C   0  0  0  0  0  0  0  0  0  0  0  0
   -0.7875   -1.1083    0.0000 C   0  0  0  0  0  0  0  0  0  0  0  0
    1.7125   -0.2417    0.0000 O   0  0  0  0  0  0  0  0  0  0  0  0
   -0.7875   -2.8375    0.0000 C   0  0  0  0  0  0  0  0  0  0  0  0
    0.2125   -2.8375    0.0000 C   0  0  0  0  0  0  0  0  0  0  0  0
   -1.2875   -1.9708    0.0000 C   0  0  0  0  0  0  0  0  0  0  0  0
    1.0500    4.0708    0.0000 C   0  0  0  0  0  0  0  0  0  0  0  0
    2.7833    3.0750    0.0000 C   0  0  0  0  0  0  0  0  0  0  0  0
   -2.2875   -1.9708    0.0000 O   0  0  0  0  0  0  0  0  0  0  0  0
    0.7125   -3.7042    0.0000 O   0  0  0  0  0  0  0  0  0  0  0  0
   -2.7875   -2.8375    0.0000 C   0  0  0  0  0  0  0  0  0  0  0  0
    0.2125   -4.5708    0.0000 C   0  0  0  0  0  0  0  0  0  0  0  0
    1.9167    4.5708    0.0000 C   0  0  0  0  0  0  0  0  0  0  0  0
    2.7833    4.0708    0.0000 C   0  0  0  0  0  0  0  0  0  0  0  0
  1  2  2  0
  1  3  1  0
  2  4  1  0
  1  5  1  0
  3  6  1  0
  5  7  1  0
  2  8  1  0
  7  9  1  0
  8 10  3  0
  9 11  2  0
  9 12  1  0
  7 13  2  0
 14 16  1  0
 11 15  1  0
 12 16  2  0
  4 17  1  0
  6 18  1  0
 16 19  1  0
 15 20  1  0
 19 21  1  0
 20 22  1  0
 17 23  1  0
 18 24  1  0
  4  6  2  0
 23 24  1  0
 14 15  2  0
M  END
>  <MOLFORMULA>  (742) 
C18 H18 N2 O3 S

>  <MOLWEIGHT>  (742) 
3.424172000000000e+002

>  <IDNUMBER>  (742) 
AN-153/I176664

>  <PRICE>  (742) 
EUR 130/10 mg

>  <Similarity score>  (742) 
0.18

$$$$

     RDKit          2D

 23 25  0  0  0  0  0  0  0  0999 V2000
    0.3833    1.4625    0.0000 C   0  0  0  0  0  0  0  0  0  0  0  0
   -0.4250    2.0500    0.0000 C   0  0  0  0  0  0  0  0  0  0  0  0
    1.1917    2.0500    0.0000 S   0  0  0  0  0  0  0  0  0  0  0  0
   -0.1167    3.0000    0.0000 C   0  0  0  0  0  0  0  0  0  0  0  0
    0.3833    0.4625    0.0000 N   0  0  0  0  0  0  0  0  0  0  0  0
   -0.4833   -0.0375    0.0000 C   0  0  0  0  0  0  0  0  0  0  0  0
    0.8833    3.0000    0.0000 C   0  0  0  0  0  0  0  0  0  0  0  0
   -0.4833   -1.0375    0.0000 C   0  0  0  0  0  0  0  0  0  0  0  0
   -1.3750    1.7417    0.0000 C   0  0  0  0  0  0  0  0  0  0  0  0
    0.3833   -1.5375    0.0000 C   0  0  0  0  0  0  0  0  0  0  0  0
   -2.1208    2.4125    0.0000 N   0  0  0  0  0  0  0  0  0  0  0  0
   -1.3500   -1.5375    0.0000 C   0  0  0  0  0  0  0  0  0  0  0  0
    0.3833   -2.5375    0.0000 C   0  0  0  0  0  0  0  0  0  0  0  0
   -1.3500    0.4625    0.0000 O   0  0  0  0  0  0  0  0  0  0  0  0
   -0.4833   -3.0375    0.0000 C   0  0  0  0  0  0  0  0  0  0  0  0
   -1.3500   -2.5375    0.0000 C   0  0  0  0  0  0  0  0  0  0  0  0
    1.2500   -1.0375    0.0000 O   0  0  0  0  0  0  0  0  0  0  0  0
   -0.4250    3.9542    0.0000 C   0  0  0  0  0  0  0  0  0  0  0  0
    1.1917    3.9542    0.0000 C   0  0  0  0  0  0  0  0  0  0  0  0
   -0.4833   -4.0375    0.0000 O   0  0  0  0  0  0  0  0  0  0  0  0
    0.3833    4.5375    0.0000 C   0  0  0  0  0  0  0  0  0  0  0  0
    2.1167   -1.5375    0.0000 C   0  0  0  0  0  0  0  0  0  0  0  0
    0.3833   -4.5375    0.0000 C   0  0  0  0  0  0  0  0  0  0  0  0
  1  2  2  0
  1  3  1  0
  2  4  1  0
  1  5  1  0
  5  6  1  0
  3  7  1  0
  6  8  1  0
  2  9  1  0
  8 10  2  0
  9 11  3  0
  8 12  1  0
 10 13  1  0
  6 14  2  0
 15 16  1  0
 12 16  2  0
 10 17  1  0
  4 18  1  0
  7 19  1  0
 15 20  1  0
 19 21  1  0
 17 22  1  0
 20 23  1  0
  4  7  2  0
 18 21  1  0
 13 15  2  0
M  END
>  <MOLFORMULA>  (743) 
C17 H16 N2 O3 S

>  <MOLWEIGHT>  (743) 
3.283904000000000e+002

>  <IDNUMBER>  (743) 
AN-153/I255605

>  <PRICE>  (743) 
EUR 130/10 mg

>  <Similarity score>  (743) 
0.18

$$$$

     RDKit          2D

 25 28  0  0  0  0  0  0  0  0999 V2000
   -2.5333    0.3833    0.0000 C   0  0  0  0  0  0  0  0  0  0  0  0
   -3.1208    1.1917    0.0000 C   0  0  0  0  0  0  0  0  0  0  0  0
   -3.1208   -0.4250    0.0000 S   0  0  0  0  0  0  0  0  0  0  0  0
   -4.0708    0.8833    0.0000 C   0  0  0  0  0  0  0  0  0  0  0  0
    1.4667   -1.3458    0.0000 C   0  0  0  0  0  0  0  0  0  0  0  0
    2.0542   -0.5375    0.0000 N   0  0  0  0  0  0  0  0  0  0  0  0
   -4.0708   -0.1167    0.0000 C   0  0  0  0  0  0  0  0  0  0  0  0
    2.0542   -2.1583    0.0000 N   0  0  0  0  0  0  0  0  0  0  0  0
   -1.5333    0.3833    0.0000 N   0  0  0  0  0  0  0  0  0  0  0  0
    3.0083   -0.8500    0.0000 C   0  0  0  0  0  0  0  0  0  0  0  0
   -2.8125    2.1458    0.0000 C   0  0  0  0  0  0  0  0  0  0  0  0
    3.0083   -1.8500    0.0000 C   0  0  0  0  0  0  0  0  0  0  0  0
   -1.8333    2.3500    0.0000 N   0  0  0  0  0  0  0  0  0  0  0  0
   -1.0333   -0.4833    0.0000 C   0  0  0  0  0  0  0  0  0  0  0  0
    0.4667   -1.3458    0.0000 S   0  0  0  0  0  0  0  0  0  0  0  0
    3.8750   -0.3500    0.0000 C   0  0  0  0  0  0  0  0  0  0  0  0
   -1.5333   -1.3458    0.0000 O   0  0  0  0  0  0  0  0  0  0  0  0
    3.8750   -2.3500    0.0000 C   0  0  0  0  0  0  0  0  0  0  0  0
   -0.0333   -0.4833    0.0000 C   0  0  0  0  0  0  0  0  0  0  0  0
    4.7375   -0.8500    0.0000 C   0  0  0  0  0  0  0  0  0  0  0  0
   -5.0208    1.1917    0.0000 C   0  0  0  0  0  0  0  0  0  0  0  0
   -5.0208   -0.4250    0.0000 C   0  0  0  0  0  0  0  0  0  0  0  0
    4.7375   -1.8500    0.0000 C   0  0  0  0  0  0  0  0  0  0  0  0
   -5.6083    0.3833    0.0000 C   0  0  0  0  0  0  0  0  0  0  0  0
    5.6042   -0.3500    0.0000 C   0  0  0  0  0  0  0  0  0  0  0  0
  1  2  2  0
  1  3  1  0
  2  4  1  0
  5 15  1  0
  5  6  2  0
  3  7  1  0
  5  8  1  0
  1  9  1  0
  6 10  1  0
  2 11  1  0
  8 12  1  0
 11 13  3  0
  9 14  1  0
 15 19  1  0
 10 16  1  0
 14 17  2  0
 12 18  1  0
 14 19  1  0
 16 20  2  0
  4 21  1  0
  7 22  1  0
 18 23  2  0
 22 24  1  0
 20 25  1  0
  4  7  2  0
 21 24  1  0
 10 12  2  0
 20 23  1  0
M  END
>  <MOLFORMULA>  (744) 
C18 H16 N4 O S2

>  <MOLWEIGHT>  (744) 
3.684834000000000e+002

>  <IDNUMBER>  (744) 
AN-153/I152895

>  <PRICE>  (744) 
EUR 130/10 mg

>  <Similarity score>  (744) 
0.18

$$$$

     RDKit          2D

 24 26  0  0  0  0  0  0  0  0999 V2000
    0.7125    1.4917    0.0000 C   0  0  0  0  0  0  0  0  0  0  0  0
    1.7083    1.5958    0.0000 C   0  0  0  0  0  0  0  0  0  0  0  0
    0.3083    2.4042    0.0000 S   0  0  0  0  0  0  0  0  0  0  0  0
    1.9167    2.5750    0.0000 C   0  0  0  0  0  0  0  0  0  0  0  0
    0.2125    0.6250    0.0000 N   0  0  0  0  0  0  0  0  0  0  0  0
    1.0500    3.0750    0.0000 C   0  0  0  0  0  0  0  0  0  0  0  0
   -0.7875    0.6250    0.0000 C   0  0  0  0  0  0  0  0  0  0  0  0
    2.3792    0.8542    0.0000 C   0  0  0  0  0  0  0  0  0  0  0  0
    2.0667   -0.0958    0.0000 N   0  0  0  0  0  0  0  0  0  0  0  0
   -1.2875   -0.2417    0.0000 C   0  0  0  0  0  0  0  0  0  0  0  0
   -1.2875    1.4917    0.0000 O   0  0  0  0  0  0  0  0  0  0  0  0
   -0.7875   -1.1083    0.0000 C   0  0  0  0  0  0  0  0  0  0  0  0
   -2.2875   -0.2417    0.0000 C   0  0  0  0  0  0  0  0  0  0  0  0
   -2.7875   -2.8375    0.0000 O   0  0  0  0  0  0  0  0  0  0  0  0
   -2.2875   -1.9708    0.0000 C   0  0  0  0  0  0  0  0  0  0  0  0
    2.7833    3.0750    0.0000 C   0  0  0  0  0  0  0  0  0  0  0  0
   -2.7875   -1.1083    0.0000 C   0  0  0  0  0  0  0  0  0  0  0  0
   -1.2875   -1.9708    0.0000 C   0  0  0  0  0  0  0  0  0  0  0  0
    1.0500    4.0708    0.0000 C   0  0  0  0  0  0  0  0  0  0  0  0
   -2.2875   -3.7042    0.0000 C   0  0  0  0  0  0  0  0  0  0  0  0
   -2.7875   -4.5708    0.0000 C   0  0  0  0  0  0  0  0  0  0  0  0
   -1.2875   -3.7042    0.0000 C   0  0  0  0  0  0  0  0  0  0  0  0
    2.7833    4.0708    0.0000 C   0  0  0  0  0  0  0  0  0  0  0  0
    1.9167    4.5708    0.0000 C   0  0  0  0  0  0  0  0  0  0  0  0
  1  2  2  0
  1  3  1  0
  2  4  1  0
  1  5  1  0
  3  6  1  0
  5  7  1  0
  2  8  1  0
  8  9  3  0
  7 10  1  0
  7 11  2  0
 10 12  1  0
 10 13  2  0
 14 15  1  0
 15 17  2  0
  4 16  1  0
 13 17  1  0
 12 18  2  0
  6 19  1  0
 14 20  1  0
 20 21  1  0
 20 22  1  0
 16 23  1  0
 19 24  1  0
  4  6  2  0
 23 24  1  0
 15 18  1  0
M  END
>  <MOLFORMULA>  (745) 
C19 H20 N2 O2 S

>  <MOLWEIGHT>  (745) 
3.404450000000000e+002

>  <IDNUMBER>  (745) 
AN-153/I226294

>  <PRICE>  (745) 
EUR 130/10 mg

>  <Similarity score>  (745) 
0.18

$$$$

     RDKit          2D

 21 23  0  0  0  0  0  0  0  0999 V2000
    0.8458    1.4625    0.0000 C   0  0  0  0  0  0  0  0  0  0  0  0
    0.0375    2.0500    0.0000 C   0  0  0  0  0  0  0  0  0  0  0  0
    1.6542    2.0500    0.0000 S   0  0  0  0  0  0  0  0  0  0  0  0
    0.3458    3.0000    0.0000 C   0  0  0  0  0  0  0  0  0  0  0  0
    0.8458    0.4625    0.0000 N   0  0  0  0  0  0  0  0  0  0  0  0
    1.3458    3.0042    0.0000 C   0  0  0  0  0  0  0  0  0  0  0  0
   -0.0208   -0.0375    0.0000 C   0  0  0  0  0  0  0  0  0  0  0  0
   -0.9167    1.7417    0.0000 C   0  0  0  0  0  0  0  0  0  0  0  0
   -1.6583    2.4125    0.0000 N   0  0  0  0  0  0  0  0  0  0  0  0
   -0.0208   -1.0375    0.0000 C   0  0  0  0  0  0  0  0  0  0  0  0
   -0.8875    0.4625    0.0000 O   0  0  0  0  0  0  0  0  0  0  0  0
    0.8458   -1.5375    0.0000 C   0  0  0  0  0  0  0  0  0  0  0  0
   -0.8875   -1.5375    0.0000 C   0  0  0  0  0  0  0  0  0  0  0  0
    0.0375    3.9542    0.0000 C   0  0  0  0  0  0  0  0  0  0  0  0
    1.6542    3.9542    0.0000 C   0  0  0  0  0  0  0  0  0  0  0  0
    0.8458   -2.5375    0.0000 C   0  0  0  0  0  0  0  0  0  0  0  0
   -0.8875   -2.5375    0.0000 C   0  0  0  0  0  0  0  0  0  0  0  0
   -0.0208   -3.0375    0.0000 C   0  0  0  0  0  0  0  0  0  0  0  0
    0.8458    4.5375    0.0000 C   0  0  0  0  0  0  0  0  0  0  0  0
   -0.0208   -4.0375    0.0000 C   0  0  0  0  0  0  0  0  0  0  0  0
    0.8458   -4.5375    0.0000 C   0  0  0  0  0  0  0  0  0  0  0  0
  1  2  2  0
  1  3  1  0
  2  4  1  0
  1  5  1  0
  3  6  1  0
  5  7  1  0
  2  8  1  0
  8  9  3  0
  7 10  1  0
  7 11  2  0
 10 12  1  0
 10 13  2  0
  4 14  1  0
  6 15  1  0
 12 16  2  0
 13 17  1  0
 17 18  2  0
 15 19  1  0
 18 20  1  0
 20 21  1  0
  4  6  2  0
 14 19  1  0
 16 18  1  0
M  END
>  <MOLFORMULA>  (746) 
C17 H16 N2 O S

>  <MOLWEIGHT>  (746) 
2.963924000000000e+002

>  <IDNUMBER>  (746) 
AN-153/I280016

>  <PRICE>  (746) 
EUR 130/10 mg

>  <Similarity score>  (746) 
0.18

$$$$

     RDKit          2D

 22 24  0  0  0  0  0  0  0  0999 V2000
    0.7750    1.7000    0.0000 C   0  0  0  0  0  0  0  0  0  0  0  0
    1.7708    1.8042    0.0000 C   0  0  0  0  0  0  0  0  0  0  0  0
    0.3667    2.6125    0.0000 S   0  0  0  0  0  0  0  0  0  0  0  0
    1.9792    2.7833    0.0000 C   0  0  0  0  0  0  0  0  0  0  0  0
    0.2750    0.8333    0.0000 N   0  0  0  0  0  0  0  0  0  0  0  0
    1.1125    3.2833    0.0000 C   0  0  0  0  0  0  0  0  0  0  0  0
   -0.7250    0.8333    0.0000 C   0  0  0  0  0  0  0  0  0  0  0  0
    2.4375    1.0625    0.0000 C   0  0  0  0  0  0  0  0  0  0  0  0
    2.1292    0.1125    0.0000 N   0  0  0  0  0  0  0  0  0  0  0  0
   -1.2250   -0.0333    0.0000 C   0  0  0  0  0  0  0  0  0  0  0  0
   -1.2250    1.7000    0.0000 O   0  0  0  0  0  0  0  0  0  0  0  0
   -0.7250   -0.8958    0.0000 C   0  0  0  0  0  0  0  0  0  0  0  0
   -2.2250   -0.0333    0.0000 C   0  0  0  0  0  0  0  0  0  0  0  0
    2.7208    3.4542    0.0000 C   0  0  0  0  0  0  0  0  0  0  0  0
   -2.2250   -1.7625    0.0000 C   0  0  0  0  0  0  0  0  0  0  0  0
    1.3208    4.2583    0.0000 C   0  0  0  0  0  0  0  0  0  0  0  0
   -1.2250   -1.7625    0.0000 C   0  0  0  0  0  0  0  0  0  0  0  0
   -2.7250   -0.8958    0.0000 C   0  0  0  0  0  0  0  0  0  0  0  0
   -2.7250   -2.6292    0.0000 O   0  0  0  0  0  0  0  0  0  0  0  0
    2.3125    4.3625    0.0000 C   0  0  0  0  0  0  0  0  0  0  0  0
   -2.2250   -3.4958    0.0000 C   0  0  0  0  0  0  0  0  0  0  0  0
   -2.7250   -4.3625    0.0000 C   0  0  0  0  0  0  0  0  0  0  0  0
  1  2  2  0
  1  3  1  0
  2  4  1  0
  1  5  1  0
  3  6  1  0
  5  7  1  0
  2  8  1  0
  8  9  3  0
  7 10  1  0
  7 11  2  0
 10 12  1  0
 10 13  2  0
  4 14  1  0
 15 18  2  0
  6 16  1  0
 12 17  2  0
 13 18  1  0
 15 19  1  0
 16 20  1  0
 19 21  1  0
 21 22  1  0
  4  6  2  0
 14 20  1  0
 15 17  1  0
M  END
>  <MOLFORMULA>  (747) 
C17 H16 N2 O2 S

>  <MOLWEIGHT>  (747) 
3.123914000000000e+002

>  <IDNUMBER>  (747) 
AN-153/I226308

>  <PRICE>  (747) 
EUR 130/10 mg

>  <Similarity score>  (747) 
0.18

$$$$

     RDKit          2D

 31 35  0  0  0  0  0  0  0  0999 V2000
    5.4750   -7.9292    0.0000 C   0  0  0  0  0  0  0  0  0  0  0  0
    5.8042   -7.1750    0.0000 N   0  0  0  0  0  0  0  0  0  0  0  0
    5.8875   -8.6417    0.0000 C   0  0  0  0  0  0  0  0  0  0  0  0
    4.6625   -8.1042    0.0000 S   0  0  0  0  0  0  0  0  0  0  0  0
    6.6667   -4.5042    0.0000 C   0  0  0  0  0  0  0  0  0  0  0  0
    6.6875   -6.1625    0.0000 C   0  0  0  0  0  0  0  0  0  0  0  0
    7.3875   -4.9125    0.0000 C   0  0  0  0  0  0  0  0  0  0  0  0
    5.3917   -6.4625    0.0000 C   0  0  0  0  0  0  0  0  0  0  0  0
    6.5667   -3.6750    0.0000 N   0  0  0  0  0  0  0  0  0  0  0  0
    6.6042   -7.0000    0.0000 C   0  0  0  0  0  0  0  0  0  0  0  0
    5.3500   -9.2542    0.0000 C   0  0  0  0  0  0  0  0  0  0  0  0
    4.5792   -8.9250    0.0000 C   0  0  0  0  0  0  0  0  0  0  0  0
    5.9167   -4.8500    0.0000 N   0  0  0  0  0  0  0  0  0  0  0  0
    7.4000   -5.7417    0.0000 C   0  0  0  0  0  0  0  0  0  0  0  0
    5.9417   -5.8417    0.0000 C   0  0  0  0  0  0  0  0  0  0  0  0
    6.7042   -8.7167    0.0000 C   0  0  0  0  0  0  0  0  0  0  0  0
    8.1000   -4.4917    0.0000 C   0  0  0  0  0  0  0  0  0  0  0  0
    5.7667   -3.5167    0.0000 C   0  0  0  0  0  0  0  0  0  0  0  0
    5.3667   -4.2375    0.0000 C   0  0  0  0  0  0  0  0  0  0  0  0
    7.5292   -8.7167    0.0000 N   0  0  0  0  0  0  0  0  0  0  0  0
    8.8125   -4.0667    0.0000 N   0  0  0  0  0  0  0  0  0  0  0  0
    4.5667   -6.3792    0.0000 C   0  0  0  0  0  0  0  0  0  0  0  0
    5.4500  -10.0792    0.0000 C   0  0  0  0  0  0  0  0  0  0  0  0
    7.2292   -7.5417    0.0000 C   0  0  0  0  0  0  0  0  0  0  0  0
    3.9167   -9.4167    0.0000 C   0  0  0  0  0  0  0  0  0  0  0  0
    5.3500   -2.8125    0.0000 C   0  0  0  0  0  0  0  0  0  0  0  0
    4.5417   -4.2417    0.0000 C   0  0  0  0  0  0  0  0  0  0  0  0
    4.7792  -10.5792    0.0000 C   0  0  0  0  0  0  0  0  0  0  0  0
    4.0125  -10.2500    0.0000 C   0  0  0  0  0  0  0  0  0  0  0  0
    4.5250   -2.8167    0.0000 C   0  0  0  0  0  0  0  0  0  0  0  0
    4.1167   -3.5375    0.0000 C   0  0  0  0  0  0  0  0  0  0  0  0
  1  2  1  0
  1  3  2  0
  1  4  1  0
  5  7  1  0
  6 10  2  0
  7 14  2  0
  2  8  1  0
  5  9  2  0
  2 10  1  0
  3 11  1  0
  4 12  1  0
  5 13  1  0
  6 14  1  0
  8 15  2  0
  3 16  1  0
  7 17  1  0
  9 18  1  0
 13 19  1  0
 16 20  3  0
 17 21  3  0
  8 22  1  0
 11 23  1  0
 10 24  1  0
 12 25  1  0
 18 26  1  0
 19 27  1  0
 23 28  1  0
 25 29  1  0
 26 30  2  0
 27 31  2  0
 11 12  2  0
  6 15  1  0
 28 29  1  0
 18 19  2  0
 30 31  1  0
M  END
>  <MOLFORMULA>  (748) 
C25 H21 N5 S

>  <MOLWEIGHT>  (748) 
4.235419000000000e+002

>  <IDNUMBER>  (748) 
AT-139/J201993

>  <PRICE>  (748) 
EUR 125.00/10 mg

>  <Similarity score>  (748) 
0.18

$$$$

     RDKit          2D

 26 29  0  0  0  0  0  0  0  0999 V2000
    2.1792    1.3000    0.0000 C   0  0  0  0  0  0  0  0  0  0  0  0
    3.1750    1.4042    0.0000 C   0  0  0  0  0  0  0  0  0  0  0  0
    1.7750    2.2167    0.0000 S   0  0  0  0  0  0  0  0  0  0  0  0
    3.3833    2.3833    0.0000 C   0  0  0  0  0  0  0  0  0  0  0  0
   -1.3208   -1.2958    0.0000 C   0  0  0  0  0  0  0  0  0  0  0  0
   -2.3125   -1.4000    0.0000 N   0  0  0  0  0  0  0  0  0  0  0  0
    2.5167    2.8833    0.0000 C   0  0  0  0  0  0  0  0  0  0  0  0
   -0.9125   -2.2083    0.0000 N   0  0  0  0  0  0  0  0  0  0  0  0
    1.6792    0.4333    0.0000 N   0  0  0  0  0  0  0  0  0  0  0  0
   -2.5208   -2.3792    0.0000 C   0  0  0  0  0  0  0  0  0  0  0  0
    3.8458    0.6625    0.0000 C   0  0  0  0  0  0  0  0  0  0  0  0
   -1.6542   -2.8792    0.0000 C   0  0  0  0  0  0  0  0  0  0  0  0
    3.5375   -0.2875    0.0000 N   0  0  0  0  0  0  0  0  0  0  0  0
    0.6792    0.4333    0.0000 C   0  0  0  0  0  0  0  0  0  0  0  0
   -0.8208   -0.4292    0.0000 S   0  0  0  0  0  0  0  0  0  0  0  0
   -3.3875   -2.8792    0.0000 C   0  0  0  0  0  0  0  0  0  0  0  0
    0.1792    1.3000    0.0000 O   0  0  0  0  0  0  0  0  0  0  0  0
   -1.6542   -3.8792    0.0000 C   0  0  0  0  0  0  0  0  0  0  0  0
    0.1792   -0.4292    0.0000 C   0  0  0  0  0  0  0  0  0  0  0  0
   -3.3875   -3.8792    0.0000 C   0  0  0  0  0  0  0  0  0  0  0  0
    4.2500    2.8833    0.0000 C   0  0  0  0  0  0  0  0  0  0  0  0
   -2.5208   -4.3792    0.0000 C   0  0  0  0  0  0  0  0  0  0  0  0
    2.5167    3.8833    0.0000 C   0  0  0  0  0  0  0  0  0  0  0  0
   -4.2542   -4.3792    0.0000 C   0  0  0  0  0  0  0  0  0  0  0  0
    4.2500    3.8833    0.0000 C   0  0  0  0  0  0  0  0  0  0  0  0
    3.3833    4.3792    0.0000 C   0  0  0  0  0  0  0  0  0  0  0  0
  1  2  2  0
  1  3  1  0
  2  4  1  0
  5 15  1  0
  5  6  2  0
  3  7  1  0
  5  8  1  0
  1  9  1  0
  6 10  1  0
  2 11  1  0
  8 12  1  0
 11 13  3  0
  9 14  1  0
 15 19  1  0
 10 16  1  0
 14 17  2  0
 12 18  1  0
 14 19  1  0
 16 20  2  0
  4 21  1  0
 18 22  2  0
  7 23  1  0
 20 24  1  0
 21 25  1  0
 23 26  1  0
  4  7  2  0
 25 26  1  0
 10 12  2  0
 20 22  1  0
M  END
>  <MOLFORMULA>  (749) 
C19 H18 N4 O S2

>  <MOLWEIGHT>  (749) 
3.825102000000000e+002

>  <IDNUMBER>  (749) 
AN-153/I137970

>  <PRICE>  (749) 
EUR 130/10 mg

>  <Similarity score>  (749) 
0.18

$$$$

     RDKit          2D

 25 27  0  0  0  0  0  0  0  0999 V2000
    4.5083   -3.6167    0.0000 C   0  0  0  0  0  0  0  0  0  0  0  0
    4.0250   -2.9417    0.0000 C   0  0  0  0  0  0  0  0  0  0  0  0
    4.0250   -4.2792    0.0000 S   0  0  0  0  0  0  0  0  0  0  0  0
    3.2375   -3.2000    0.0000 C   0  0  0  0  0  0  0  0  0  0  0  0
    5.3292   -3.5333    0.0000 N   0  0  0  0  0  0  0  0  0  0  0  0
    6.0417   -3.1167    0.0000 C   0  0  0  0  0  0  0  0  0  0  0  0
    3.2375   -4.0250    0.0000 C   0  0  0  0  0  0  0  0  0  0  0  0
    5.8208   -2.3208    0.0000 N   0  0  0  0  0  0  0  0  0  0  0  0
    6.5292   -1.9042    0.0000 C   0  0  0  0  0  0  0  0  0  0  0  0
    4.3625   -2.1875    0.0000 C   0  0  0  0  0  0  0  0  0  0  0  0
    4.6958   -1.4333    0.0000 N   0  0  0  0  0  0  0  0  0  0  0  0
    6.8667   -3.1167    0.0000 S   0  0  0  0  0  0  0  0  0  0  0  0
    7.3542   -1.9042    0.0000 C   0  0  0  0  0  0  0  0  0  0  0  0
    6.5292   -1.0792    0.0000 O   0  0  0  0  0  0  0  0  0  0  0  0
    7.7667   -2.6208    0.0000 C   0  0  0  0  0  0  0  0  0  0  0  0
    7.7667   -1.1917    0.0000 C   0  0  0  0  0  0  0  0  0  0  0  0
    9.0042   -1.9042    0.0000 C   0  0  0  0  0  0  0  0  0  0  0  0
    2.5250   -2.7792    0.0000 C   0  0  0  0  0  0  0  0  0  0  0  0
    8.5875   -1.1875    0.0000 C   0  0  0  0  0  0  0  0  0  0  0  0
    8.5917   -2.6208    0.0000 C   0  0  0  0  0  0  0  0  0  0  0  0
    2.5250   -4.4292    0.0000 C   0  0  0  0  0  0  0  0  0  0  0  0
    9.8292   -1.9042    0.0000 O   0  0  0  0  0  0  0  0  0  0  0  0
   10.2417   -2.6167    0.0000 C   0  0  0  0  0  0  0  0  0  0  0  0
    1.8167   -3.2000    0.0000 C   0  0  0  0  0  0  0  0  0  0  0  0
    1.8167   -4.0250    0.0000 C   0  0  0  0  0  0  0  0  0  0  0  0
  1  2  2  0
  1  3  1  0
  2  4  1  0
  1  5  1  0
  5  6  1  0
  3  7  1  0
  6  8  1  0
  8  9  1  0
  2 10  1  0
 10 11  3  0
  6 12  2  0
  9 13  1  0
  9 14  2  0
 13 15  2  0
 13 16  1  0
 17 19  1  0
  4 18  1  0
 16 19  2  0
 15 20  1  0
  7 21  1  0
 17 22  1  0
 22 23  1  0
 18 24  1  0
 21 25  1  0
  4  7  2  0
 24 25  1  0
 17 20  2  0
M  END
>  <MOLFORMULA>  (750) 
C18 H17 N3 O2 S2

>  <MOLWEIGHT>  (750) 
3.714833000000000e+002

>  <IDNUMBER>  (750) 
AT-819/OC09036

>  <PRICE>  (750) 
EUR 128/10 mg

>  <Similarity score>  (750) 
0.18

$$$$

     RDKit          2D

 24 26  0  0  0  0  0  0  0  0999 V2000
    0.4625    1.9250    0.0000 C   0  0  0  0  0  0  0  0  0  0  0  0
    0.0583    2.8375    0.0000 C   0  0  0  0  0  0  0  0  0  0  0  0
   -1.0375   -2.4042    0.0000 N   0  0  0  0  0  0  0  0  0  0  0  0
   -0.0375   -2.4042    0.0000 C   0  0  0  0  0  0  0  0  0  0  0  0
    1.4583    2.0292    0.0000 S   0  0  0  0  0  0  0  0  0  0  0  0
    0.4625   -3.2708    0.0000 N   0  0  0  0  0  0  0  0  0  0  0  0
    0.8000    3.5083    0.0000 C   0  0  0  0  0  0  0  0  0  0  0  0
    1.6667    3.0083    0.0000 C   0  0  0  0  0  0  0  0  0  0  0  0
   -0.0375   -4.1375    0.0000 C   0  0  0  0  0  0  0  0  0  0  0  0
   -1.5375   -3.2708    0.0000 C   0  0  0  0  0  0  0  0  0  0  0  0
   -1.0375   -4.1375    0.0000 C   0  0  0  0  0  0  0  0  0  0  0  0
   -0.0375    1.0583    0.0000 N   0  0  0  0  0  0  0  0  0  0  0  0
   -0.9208    3.0458    0.0000 C   0  0  0  0  0  0  0  0  0  0  0  0
   -1.2292    3.9958    0.0000 N   0  0  0  0  0  0  0  0  0  0  0  0
    0.4625    0.1917    0.0000 C   0  0  0  0  0  0  0  0  0  0  0  0
    0.4625   -1.5375    0.0000 S   0  0  0  0  0  0  0  0  0  0  0  0
   -2.5375   -3.2708    0.0000 O   0  0  0  0  0  0  0  0  0  0  0  0
    1.4625    0.1917    0.0000 O   0  0  0  0  0  0  0  0  0  0  0  0
    0.4625   -5.0042    0.0000 N   0  0  0  0  0  0  0  0  0  0  0  0
   -0.0375   -0.6750    0.0000 C   0  0  0  0  0  0  0  0  0  0  0  0
    0.8000    4.5042    0.0000 C   0  0  0  0  0  0  0  0  0  0  0  0
    2.5333    3.5083    0.0000 C   0  0  0  0  0  0  0  0  0  0  0  0
    1.6667    5.0042    0.0000 C   0  0  0  0  0  0  0  0  0  0  0  0
    2.5333    4.5042    0.0000 C   0  0  0  0  0  0  0  0  0  0  0  0
  1  2  2  0
  3  4  2  0
  4 16  1  0
  1  5  1  0
  4  6  1  0
  2  7  1  0
  5  8  1  0
  6  9  1  0
  3 10  1  0
  9 11  2  0
  1 12  1  0
  2 13  1  0
 13 14  3  0
 12 15  1  0
 16 20  1  0
 10 17  2  0
 15 18  2  0
  9 19  1  0
 15 20  1  0
  7 21  1  0
  8 22  1  0
 21 23  1  0
 22 24  1  0
  7  8  2  0
 23 24  1  0
 10 11  1  0
M  END
>  <MOLFORMULA>  (751) 
C15 H15 N5 O2 S2

>  <MOLWEIGHT>  (751) 
3.614485000000000e+002

>  <IDNUMBER>  (751) 
AN-153/I169830

>  <PRICE>  (751) 
EUR 130/10 mg

>  <Similarity score>  (751) 
0.18

$$$$

     RDKit          2D

 24 26  0  0  0  0  0  0  0  0999 V2000
   -1.4000    0.3833    0.0000 C   0  0  0  0  0  0  0  0  0  0  0  0
   -1.9750    1.1958    0.0000 C   0  0  0  0  0  0  0  0  0  0  0  0
    3.1208   -0.4792    0.0000 N   0  0  0  0  0  0  0  0  0  0  0  0
    2.6125   -1.3417    0.0000 C   0  0  0  0  0  0  0  0  0  0  0  0
   -1.9750   -0.4042    0.0000 S   0  0  0  0  0  0  0  0  0  0  0  0
   -2.9208    0.8917    0.0000 C   0  0  0  0  0  0  0  0  0  0  0  0
    3.1208   -2.2083    0.0000 N   0  0  0  0  0  0  0  0  0  0  0  0
   -2.9208   -0.1000    0.0000 C   0  0  0  0  0  0  0  0  0  0  0  0
    4.1208   -0.4792    0.0000 C   0  0  0  0  0  0  0  0  0  0  0  0
    4.6292   -1.3417    0.0000 C   0  0  0  0  0  0  0  0  0  0  0  0
    4.1208   -2.2083    0.0000 C   0  0  0  0  0  0  0  0  0  0  0  0
   -0.4000    0.3833    0.0000 N   0  0  0  0  0  0  0  0  0  0  0  0
   -1.6708    2.1333    0.0000 C   0  0  0  0  0  0  0  0  0  0  0  0
   -1.3458    3.1000    0.0000 N   0  0  0  0  0  0  0  0  0  0  0  0
    0.0917   -0.4792    0.0000 C   0  0  0  0  0  0  0  0  0  0  0  0
    1.6125   -1.3417    0.0000 S   0  0  0  0  0  0  0  0  0  0  0  0
    4.6458   -3.0958    0.0000 O   0  0  0  0  0  0  0  0  0  0  0  0
   -0.4000   -1.3417    0.0000 O   0  0  0  0  0  0  0  0  0  0  0  0
    4.6458    0.3833    0.0000 N   0  0  0  0  0  0  0  0  0  0  0  0
    1.1083   -0.4792    0.0000 C   0  0  0  0  0  0  0  0  0  0  0  0
   -3.7833    1.4000    0.0000 C   0  0  0  0  0  0  0  0  0  0  0  0
   -3.7833   -0.6083    0.0000 C   0  0  0  0  0  0  0  0  0  0  0  0
   -4.6500    0.8917    0.0000 C   0  0  0  0  0  0  0  0  0  0  0  0
   -4.6500   -0.1000    0.0000 C   0  0  0  0  0  0  0  0  0  0  0  0
  1  2  2  0
  3  4  2  0
  4 16  1  0
  1  5  1  0
  2  6  1  0
  4  7  1  0
  5  8  1  0
  3  9  1  0
 10 11  1  0
  7 11  1  0
  1 12  1  0
  2 13  1  0
 13 14  3  0
 12 15  1  0
 16 20  1  0
 11 17  2  0
 15 18  2  0
  9 19  1  0
 15 20  1  0
  6 21  1  0
  8 22  1  0
 21 23  1  0
 22 24  1  0
  6  8  2  0
 23 24  1  0
  9 10  2  0
M  END
>  <MOLFORMULA>  (752) 
C15 H15 N5 O2 S2

>  <MOLWEIGHT>  (752) 
3.614485000000000e+002

>  <IDNUMBER>  (752) 
AN-153/I162547

>  <PRICE>  (752) 
EUR 130/10 mg

>  <Similarity score>  (752) 
0.18

$$$$

     RDKit          2D

 23 25  0  0  0  0  0  0  0  0999 V2000
   -0.6833    2.0250    0.0000 C   0  0  0  0  0  0  0  0  0  0  0  0
   -0.0542    2.8000    0.0000 C   0  0  0  0  0  0  0  0  0  0  0  0
   -1.6167    2.3833    0.0000 S   0  0  0  0  0  0  0  0  0  0  0  0
   -0.5958    3.6417    0.0000 C   0  0  0  0  0  0  0  0  0  0  0  0
   -0.4208    1.0583    0.0000 N   0  0  0  0  0  0  0  0  0  0  0  0
   -1.5625    3.3792    0.0000 C   0  0  0  0  0  0  0  0  0  0  0  0
   -1.1292    0.3500    0.0000 C   0  0  0  0  0  0  0  0  0  0  0  0
    0.9458    2.7500    0.0000 C   0  0  0  0  0  0  0  0  0  0  0  0
    1.4917    3.5875    0.0000 N   0  0  0  0  0  0  0  0  0  0  0  0
   -0.8667   -0.6167    0.0000 C   0  0  0  0  0  0  0  0  0  0  0  0
   -2.0958    0.6083    0.0000 O   0  0  0  0  0  0  0  0  0  0  0  0
    0.1000   -0.8708    0.0000 C   0  0  0  0  0  0  0  0  0  0  0  0
   -1.5750   -1.3250    0.0000 C   0  0  0  0  0  0  0  0  0  0  0  0
   -0.5458    4.6333    0.0000 C   0  0  0  0  0  0  0  0  0  0  0  0
   -0.3500   -2.5458    0.0000 C   0  0  0  0  0  0  0  0  0  0  0  0
   -2.1083    4.2125    0.0000 C   0  0  0  0  0  0  0  0  0  0  0  0
   -1.3125   -2.2875    0.0000 C   0  0  0  0  0  0  0  0  0  0  0  0
    0.3583   -1.8375    0.0000 C   0  0  0  0  0  0  0  0  0  0  0  0
   -0.0875   -3.5125    0.0000 O   0  0  0  0  0  0  0  0  0  0  0  0
   -1.4792    4.9917    0.0000 C   0  0  0  0  0  0  0  0  0  0  0  0
    0.8792   -3.7708    0.0000 C   0  0  0  0  0  0  0  0  0  0  0  0
    1.1375   -4.7333    0.0000 C   0  0  0  0  0  0  0  0  0  0  0  0
    2.1042   -4.9917    0.0000 C   0  0  0  0  0  0  0  0  0  0  0  0
  1  2  2  0
  1  3  1  0
  2  4  1  0
  1  5  1  0
  3  6  1  0
  5  7  1  0
  2  8  1  0
  8  9  3  0
  7 10  1  0
  7 11  2  0
 10 12  1  0
 10 13  2  0
  4 14  1  0
 15 17  2  0
  6 16  1  0
 13 17  1  0
 12 18  2  0
 15 19  1  0
 16 20  1  0
 19 21  1  0
 21 22  1  0
 22 23  1  0
  4  6  2  0
 14 20  1  0
 15 18  1  0
M  END
>  <MOLFORMULA>  (753) 
C18 H18 N2 O2 S

>  <MOLWEIGHT>  (753) 
3.264182000000000e+002

>  <IDNUMBER>  (753) 
AN-153/I215686

>  <PRICE>  (753) 
EUR 130/10 mg

>  <Similarity score>  (753) 
0.18

$$$$

     RDKit          2D

 24 26  0  0  0  0  0  0  0  0999 V2000
    0.4625    1.9250    0.0000 C   0  0  0  0  0  0  0  0  0  0  0  0
    0.0583    2.8375    0.0000 C   0  0  0  0  0  0  0  0  0  0  0  0
    1.4583    2.0292    0.0000 S   0  0  0  0  0  0  0  0  0  0  0  0
    0.8000    3.5083    0.0000 C   0  0  0  0  0  0  0  0  0  0  0  0
    1.6667    3.0083    0.0000 C   0  0  0  0  0  0  0  0  0  0  0  0
   -1.0375   -2.4042    0.0000 N   0  0  0  0  0  0  0  0  0  0  0  0
    0.4625   -3.2708    0.0000 N   0  0  0  0  0  0  0  0  0  0  0  0
   -0.0375   -2.4042    0.0000 C   0  0  0  0  0  0  0  0  0  0  0  0
   -0.0375    1.0583    0.0000 N   0  0  0  0  0  0  0  0  0  0  0  0
   -0.9208    3.0458    0.0000 C   0  0  0  0  0  0  0  0  0  0  0  0
   -1.5375   -3.2708    0.0000 C   0  0  0  0  0  0  0  0  0  0  0  0
   -0.0375   -4.1375    0.0000 C   0  0  0  0  0  0  0  0  0  0  0  0
   -1.0375   -4.1375    0.0000 C   0  0  0  0  0  0  0  0  0  0  0  0
   -1.2292    3.9958    0.0000 N   0  0  0  0  0  0  0  0  0  0  0  0
    0.4625    0.1917    0.0000 C   0  0  0  0  0  0  0  0  0  0  0  0
    0.4625   -1.5375    0.0000 S   0  0  0  0  0  0  0  0  0  0  0  0
    1.4625    0.1917    0.0000 O   0  0  0  0  0  0  0  0  0  0  0  0
   -0.0375   -0.6750    0.0000 C   0  0  0  0  0  0  0  0  0  0  0  0
   -2.5375   -3.2708    0.0000 N   0  0  0  0  0  0  0  0  0  0  0  0
    0.4625   -5.0042    0.0000 O   0  0  0  0  0  0  0  0  0  0  0  0
    0.8000    4.5042    0.0000 C   0  0  0  0  0  0  0  0  0  0  0  0
    2.5333    3.5083    0.0000 C   0  0  0  0  0  0  0  0  0  0  0  0
    1.6667    5.0042    0.0000 C   0  0  0  0  0  0  0  0  0  0  0  0
    2.5333    4.5042    0.0000 C   0  0  0  0  0  0  0  0  0  0  0  0
  1  2  2  0
  1  3  1  0
  2  4  1  0
  3  5  1  0
  6  8  2  0
  7  8  1  0
  8 16  1  0
  1  9  1  0
  2 10  1  0
  6 11  1  0
  7 12  2  0
 12 13  1  0
 10 14  3  0
  9 15  1  0
 16 18  1  0
 15 17  2  0
 15 18  1  0
 11 19  1  0
 12 20  1  0
  4 21  1  0
  5 22  1  0
 21 23  1  0
 22 24  1  0
  4  5  2  0
 23 24  1  0
 11 13  2  0
M  END
>  <MOLFORMULA>  (754) 
C15 H15 N5 O2 S2

>  <MOLWEIGHT>  (754) 
3.614485000000000e+002

>  <IDNUMBER>  (754) 
AN-153/I189190

>  <PRICE>  (754) 
EUR 130/10 mg

>  <Similarity score>  (754) 
0.18

$$$$

     RDKit          2D

 35 38  0  0  0  0  0  0  0  0999 V2000
    5.1417    1.1000    0.0000 C   0  0  0  0  0  0  0  0  0  0  0  0
    5.2625    0.5125    0.0000 C   0  0  0  0  0  0  0  0  0  0  0  0
    2.0542    0.8958    0.0000 N   0  0  0  0  0  0  0  0  0  0  0  0
    2.5417    1.2250    0.0000 C   0  0  0  0  0  0  0  0  0  0  0  0
    5.6417    1.3833    0.0000 S   0  0  0  0  0  0  0  0  0  0  0  0
    1.5875    1.2625    0.0000 C   0  0  0  0  0  0  0  0  0  0  0  0
    5.8542    0.4458    0.0000 C   0  0  0  0  0  0  0  0  0  0  0  0
    2.3792    1.8000    0.0000 N   0  0  0  0  0  0  0  0  0  0  0  0
    1.7875    1.8208    0.0000 N   0  0  0  0  0  0  0  0  0  0  0  0
    6.0875    0.9875    0.0000 C   0  0  0  0  0  0  0  0  0  0  0  0
    4.6042    1.3625    0.0000 N   0  0  0  0  0  0  0  0  0  0  0  0
    4.8667    0.0708    0.0000 C   0  0  0  0  0  0  0  0  0  0  0  0
    0.0042    1.3458    0.0000 C   0  0  0  0  0  0  0  0  0  0  0  0
    4.4750   -0.3792    0.0000 N   0  0  0  0  0  0  0  0  0  0  0  0
    3.0792    0.9708    0.0000 S   0  0  0  0  0  0  0  0  0  0  0  0
    4.1125    1.0333    0.0000 C   0  0  0  0  0  0  0  0  0  0  0  0
    0.5792    1.5125    0.0000 N   0  0  0  0  0  0  0  0  0  0  0  0
    1.0125    1.0958    0.0000 C   0  0  0  0  0  0  0  0  0  0  0  0
   -0.1333    0.7625    0.0000 C   0  0  0  0  0  0  0  0  0  0  0  0
   -0.4250    1.7583    0.0000 O   0  0  0  0  0  0  0  0  0  0  0  0
    4.1542    0.4458    0.0000 O   0  0  0  0  0  0  0  0  0  0  0  0
    3.5792    1.2958    0.0000 C   0  0  0  0  0  0  0  0  0  0  0  0
    0.3042    0.3583    0.0000 C   0  0  0  0  0  0  0  0  0  0  0  0
   -0.7000    0.5958    0.0000 C   0  0  0  0  0  0  0  0  0  0  0  0
    2.0292    0.2958    0.0000 C   0  0  0  0  0  0  0  0  0  0  0  0
   -0.4083   -0.4000    0.0000 C   0  0  0  0  0  0  0  0  0  0  0  0
    6.2000   -0.0292    0.0000 C   0  0  0  0  0  0  0  0  0  0  0  0
    0.1750   -0.2292    0.0000 C   0  0  0  0  0  0  0  0  0  0  0  0
   -0.8458    0.0125    0.0000 C   0  0  0  0  0  0  0  0  0  0  0  0
    6.6792    1.0500    0.0000 C   0  0  0  0  0  0  0  0  0  0  0  0
   -0.5625   -0.9792    0.0000 O   0  0  0  0  0  0  0  0  0  0  0  0
   -0.1375   -1.4000    0.0000 C   0  0  0  0  0  0  0  0  0  0  0  0
    2.5292   -0.0250    0.0000 C   0  0  0  0  0  0  0  0  0  0  0  0
    6.7917    0.0208    0.0000 C   0  0  0  0  0  0  0  0  0  0  0  0
    7.0292    0.5833    0.0000 C   0  0  0  0  0  0  0  0  0  0  0  0
  1  2  2  0
  3  4  1  0
  4 15  1  0
  1  5  1  0
  3  6  1  0
  2  7  1  0
  4  8  2  0
  8  9  1  0
  5 10  1  0
  1 11  1  0
  2 12  1  0
 13 17  1  0
 12 14  3  0
 15 22  1  0
 11 16  1  0
 17 18  1  0
  6 18  1  0
 13 19  1  0
 13 20  2  0
 16 21  2  0
 16 22  1  0
 19 23  1  0
 19 24  2  0
  3 25  1  0
 26 29  2  0
  7 27  1  0
 23 28  2  0
 24 29  1  0
 10 30  1  0
 26 31  1  0
 31 32  1  0
 25 33  1  0
 27 34  1  0
 30 35  1  0
  7 10  2  0
 34 35  1  0
  6  9  2  0
 26 28  1  0
M  END
>  <MOLFORMULA>  (755) 
C24 H26 N6 O3 S2

>  <MOLWEIGHT>  (755) 
5.106404000000000e+002

>  <IDNUMBER>  (755) 
AM-879/PD04571

>  <PRICE>  (755) 
EUR 55.00/10 mg

>  <Similarity score>  (755) 
0.18

$$$$

     RDKit          2D

 23 25  0  0  0  0  0  0  0  0999 V2000
   -0.0167   -1.2167    0.0000 C   0  0  0  0  0  0  0  0  0  0  0  0
    0.3875   -2.1333    0.0000 C   0  0  0  0  0  0  0  0  0  0  0  0
    1.3833   -2.0292    0.0000 C   0  0  0  0  0  0  0  0  0  0  0  0
    1.5917   -1.0500    0.0000 C   0  0  0  0  0  0  0  0  0  0  0  0
    0.7250   -0.5500    0.0000 S   0  0  0  0  0  0  0  0  0  0  0  0
   -0.9958   -1.0083    0.0000 N   0  0  0  0  0  0  0  0  0  0  0  0
   -1.3042   -0.0583    0.0000 C   0  0  0  0  0  0  0  0  0  0  0  0
   -0.1125   -2.9958    0.0000 C   0  0  0  0  0  0  0  0  0  0  0  0
   -1.1125   -2.9958    0.0000 N   0  0  0  0  0  0  0  0  0  0  0  0
    2.1250   -2.6958    0.0000 C   0  0  0  0  0  0  0  0  0  0  0  0
   -2.2833    0.1500    0.0000 C   0  0  0  0  0  0  0  0  0  0  0  0
    2.5417   -0.7417    0.0000 C   0  0  0  0  0  0  0  0  0  0  0  0
   -0.6375    0.6833    0.0000 O   0  0  0  0  0  0  0  0  0  0  0  0
   -2.5917    1.1000    0.0000 C   0  0  0  0  0  0  0  0  0  0  0  0
    3.0750   -2.3875    0.0000 C   0  0  0  0  0  0  0  0  0  0  0  0
   -3.5708    1.3083    0.0000 C   0  0  0  0  0  0  0  0  0  0  0  0
    3.2833   -1.4083    0.0000 C   0  0  0  0  0  0  0  0  0  0  0  0
   -3.8792    2.2583    0.0000 O   0  0  0  0  0  0  0  0  0  0  0  0
   -2.9542   -0.5958    0.0000 C   0  0  0  0  0  0  0  0  0  0  0  0
   -3.9292   -0.3875    0.0000 C   0  0  0  0  0  0  0  0  0  0  0  0
   -4.2417    0.5625    0.0000 C   0  0  0  0  0  0  0  0  0  0  0  0
   -3.2125    3.0000    0.0000 C   0  0  0  0  0  0  0  0  0  0  0  0
    4.2375   -1.1000    0.0000 C   0  0  0  0  0  0  0  0  0  0  0  0
  1  2  2  0
  2  3  1  0
  4  5  1  0
  1  5  1  0
  1  6  1  0
  6  7  1  0
  2  8  1  0
  8  9  3  0
  3 10  1  0
  7 11  1  0
  4 12  1  0
  7 13  2  0
 11 14  1  0
 10 15  1  0
 14 16  2  0
 12 17  1  0
 16 18  1  0
 11 19  2  0
 19 20  1  0
 20 21  2  0
 18 22  1  0
 17 23  1  0
  3  4  2  0
 15 17  1  0
 16 21  1  0
M  END
>  <MOLFORMULA>  (756) 
C18 H18 N2 O2 S

>  <MOLWEIGHT>  (756) 
3.264182000000000e+002

>  <IDNUMBER>  (756) 
AN-153/I178470

>  <PRICE>  (756) 
EUR 130/10 mg

>  <Similarity score>  (756) 
0.18

$$$$

     RDKit          2D

 24 26  0  0  0  0  0  0  0  0999 V2000
   -0.1458    2.2750    0.0000 C   0  0  0  0  0  0  0  0  0  0  0  0
    0.3958    3.1167    0.0000 C   0  0  0  0  0  0  0  0  0  0  0  0
   -1.1125    2.5333    0.0000 S   0  0  0  0  0  0  0  0  0  0  0  0
   -0.2333    3.8917    0.0000 C   0  0  0  0  0  0  0  0  0  0  0  0
    0.2125    1.3417    0.0000 N   0  0  0  0  0  0  0  0  0  0  0  0
   -1.1667    3.5292    0.0000 C   0  0  0  0  0  0  0  0  0  0  0  0
   -0.4125    0.5625    0.0000 C   0  0  0  0  0  0  0  0  0  0  0  0
    1.3958    3.1708    0.0000 C   0  0  0  0  0  0  0  0  0  0  0  0
    1.9417    2.3292    0.0000 N   0  0  0  0  0  0  0  0  0  0  0  0
   -0.0542   -0.3708    0.0000 C   0  0  0  0  0  0  0  0  0  0  0  0
   -1.4042    0.7167    0.0000 O   0  0  0  0  0  0  0  0  0  0  0  0
   -0.6833   -1.1458    0.0000 C   0  0  0  0  0  0  0  0  0  0  0  0
   -0.3208   -2.0792    0.0000 C   0  0  0  0  0  0  0  0  0  0  0  0
   -0.0792    4.8750    0.0000 C   0  0  0  0  0  0  0  0  0  0  0  0
   -1.9458    4.1542    0.0000 C   0  0  0  0  0  0  0  0  0  0  0  0
   -0.9500   -2.8583    0.0000 O   0  0  0  0  0  0  0  0  0  0  0  0
    0.9333   -0.5250    0.0000 C   0  0  0  0  0  0  0  0  0  0  0  0
    1.2958   -1.4583    0.0000 C   0  0  0  0  0  0  0  0  0  0  0  0
    0.6667   -2.2333    0.0000 C   0  0  0  0  0  0  0  0  0  0  0  0
   -0.5875   -3.7917    0.0000 C   0  0  0  0  0  0  0  0  0  0  0  0
   -1.2167   -4.5708    0.0000 C   0  0  0  0  0  0  0  0  0  0  0  0
   -0.8583    5.5042    0.0000 C   0  0  0  0  0  0  0  0  0  0  0  0
   -1.7917    5.1417    0.0000 C   0  0  0  0  0  0  0  0  0  0  0  0
   -0.8583   -5.5042    0.0000 C   0  0  0  0  0  0  0  0  0  0  0  0
  1  2  2  0
  1  3  1  0
  2  4  1  0
  1  5  1  0
  3  6  1  0
  5  7  1  0
  2  8  1  0
  8  9  3  0
  7 10  1  0
  7 11  2  0
 10 12  2  0
 12 13  1  0
  4 14  1  0
  6 15  1  0
 13 16  1  0
 10 17  1  0
 17 18  2  0
 18 19  1  0
 16 20  1  0
 20 21  1  0
 14 22  1  0
 15 23  1  0
 21 24  1  0
  4  6  2  0
 22 23  1  0
 13 19  2  0
M  END
>  <MOLFORMULA>  (757) 
C19 H20 N2 O2 S

>  <MOLWEIGHT>  (757) 
3.404450000000000e+002

>  <IDNUMBER>  (757) 
AN-153/I224048

>  <PRICE>  (757) 
EUR 130/10 mg

>  <Similarity score>  (757) 
0.18

$$$$

     RDKit          2D

 22 24  0  0  0  0  0  0  0  0999 V2000
    0.5250    1.2667    0.0000 C   0  0  0  0  0  0  0  0  0  0  0  0
    0.1167    2.1792    0.0000 C   0  0  0  0  0  0  0  0  0  0  0  0
    1.5208    1.3708    0.0000 S   0  0  0  0  0  0  0  0  0  0  0  0
    0.8625    2.8500    0.0000 C   0  0  0  0  0  0  0  0  0  0  0  0
    0.0250    0.4000    0.0000 N   0  0  0  0  0  0  0  0  0  0  0  0
    1.7292    2.3500    0.0000 C   0  0  0  0  0  0  0  0  0  0  0  0
    0.5250   -0.4625    0.0000 C   0  0  0  0  0  0  0  0  0  0  0  0
   -0.8583    2.3875    0.0000 C   0  0  0  0  0  0  0  0  0  0  0  0
    0.0250   -1.3292    0.0000 C   0  0  0  0  0  0  0  0  0  0  0  0
   -1.1708    3.3417    0.0000 N   0  0  0  0  0  0  0  0  0  0  0  0
   -1.4750   -2.1958    0.0000 C   0  0  0  0  0  0  0  0  0  0  0  0
   -0.9750   -1.3292    0.0000 C   0  0  0  0  0  0  0  0  0  0  0  0
   -0.9750   -3.0625    0.0000 C   0  0  0  0  0  0  0  0  0  0  0  0
    1.5250   -0.4625    0.0000 O   0  0  0  0  0  0  0  0  0  0  0  0
    0.5250   -2.1958    0.0000 C   0  0  0  0  0  0  0  0  0  0  0  0
    0.0250   -3.0625    0.0000 C   0  0  0  0  0  0  0  0  0  0  0  0
   -2.4750   -2.1958    0.0000 Cl  0  0  0  0  0  0  0  0  0  0  0  0
    1.0708    3.8292    0.0000 C   0  0  0  0  0  0  0  0  0  0  0  0
    2.4708    3.0208    0.0000 C   0  0  0  0  0  0  0  0  0  0  0  0
   -1.4750   -3.9292    0.0000 O   0  0  0  0  0  0  0  0  0  0  0  0
    2.0625    3.9333    0.0000 C   0  0  0  0  0  0  0  0  0  0  0  0
   -2.4750   -3.9292    0.0000 C   0  0  0  0  0  0  0  0  0  0  0  0
  1  2  2  0
  1  3  1  0
  2  4  1  0
  1  5  1  0
  3  6  1  0
  5  7  1  0
  2  8  1  0
  7  9  1  0
  8 10  3  0
 11 12  1  0
  9 12  2  0
 13 16  1  0
  7 14  2  0
  9 15  1  0
 15 16  2  0
 11 17  1  0
  4 18  1  0
  6 19  1  0
 13 20  1  0
 19 21  1  0
 20 22  1  0
  4  6  2  0
 18 21  1  0
 11 13  2  0
M  END
>  <MOLFORMULA>  (758) 
C16 H13 Cl N2 O2 S

>  <MOLWEIGHT>  (758) 
3.328097000000000e+002

>  <IDNUMBER>  (758) 
AN-153/I226309

>  <PRICE>  (758) 
EUR 130/10 mg

>  <Similarity score>  (758) 
0.18

$$$$

     RDKit          2D

 26 28  0  0  0  0  0  0  0  0999 V2000
    1.9625    1.0583    0.0000 C   0  0  0  0  0  0  0  0  0  0  0  0
    2.9583    1.1625    0.0000 C   0  0  0  0  0  0  0  0  0  0  0  0
    1.5583    1.9708    0.0000 S   0  0  0  0  0  0  0  0  0  0  0  0
    3.1667    2.1417    0.0000 C   0  0  0  0  0  0  0  0  0  0  0  0
    1.4625    0.1917    0.0000 N   0  0  0  0  0  0  0  0  0  0  0  0
   -1.5375   -1.5375    0.0000 C   0  0  0  0  0  0  0  0  0  0  0  0
    2.3000    2.6417    0.0000 C   0  0  0  0  0  0  0  0  0  0  0  0
    0.4625    0.1917    0.0000 C   0  0  0  0  0  0  0  0  0  0  0  0
   -2.5375   -1.5375    0.0000 N   0  0  0  0  0  0  0  0  0  0  0  0
   -1.0375   -2.4042    0.0000 N   0  0  0  0  0  0  0  0  0  0  0  0
    3.6292    0.4208    0.0000 C   0  0  0  0  0  0  0  0  0  0  0  0
   -1.0375   -0.6750    0.0000 S   0  0  0  0  0  0  0  0  0  0  0  0
    3.3167   -0.5292    0.0000 N   0  0  0  0  0  0  0  0  0  0  0  0
   -0.0375   -0.6750    0.0000 C   0  0  0  0  0  0  0  0  0  0  0  0
   -3.0375   -2.4042    0.0000 C   0  0  0  0  0  0  0  0  0  0  0  0
   -1.5375   -3.2708    0.0000 C   0  0  0  0  0  0  0  0  0  0  0  0
   -0.0375    1.0583    0.0000 O   0  0  0  0  0  0  0  0  0  0  0  0
   -2.5375   -3.2708    0.0000 C   0  0  0  0  0  0  0  0  0  0  0  0
    4.0333    2.6417    0.0000 C   0  0  0  0  0  0  0  0  0  0  0  0
    2.3000    3.6417    0.0000 C   0  0  0  0  0  0  0  0  0  0  0  0
    0.4625   -1.5375    0.0000 C   0  0  0  0  0  0  0  0  0  0  0  0
   -1.0375   -4.1375    0.0000 C   0  0  0  0  0  0  0  0  0  0  0  0
   -4.0375   -2.4042    0.0000 C   0  0  0  0  0  0  0  0  0  0  0  0
    4.0333    3.6417    0.0000 C   0  0  0  0  0  0  0  0  0  0  0  0
    3.1667    4.1375    0.0000 C   0  0  0  0  0  0  0  0  0  0  0  0
   -0.0375   -2.4042    0.0000 C   0  0  0  0  0  0  0  0  0  0  0  0
  1  2  2  0
  1  3  1  0
  2  4  1  0
  1  5  1  0
  6 12  1  0
  3  7  1  0
  5  8  1  0
  6  9  1  0
  6 10  2  0
  2 11  1  0
 12 14  1  0
 11 13  3  0
  8 14  1  0
  9 15  2  0
 10 16  1  0
  8 17  2  0
 16 18  2  0
  4 19  1  0
  7 20  1  0
 14 21  1  0
 16 22  1  0
 15 23  1  0
 19 24  1  0
 20 25  1  0
 21 26  1  0
  4  7  2  0
 24 25  1  0
 15 18  1  0
M  END
>  <MOLFORMULA>  (759) 
C19 H22 N4 O S2

>  <MOLWEIGHT>  (759) 
3.865418000000000e+002

>  <IDNUMBER>  (759) 
AN-153/I144955

>  <PRICE>  (759) 
EUR 130/10 mg

>  <Similarity score>  (759) 
0.18

$$$$

     RDKit          2D

 39 42  0  0  0  0  0  0  0  0999 V2000
   -1.1125    0.3000    0.0000 C   0  0  0  0  0  0  0  0  0  0  0  0
   -2.3333    0.8458    0.0000 C   0  0  0  0  0  0  0  0  0  0  0  0
   -1.2500   -1.0375    0.0000 S   0  0  0  0  0  0  0  0  0  0  0  0
   -3.2333   -0.1542    0.0000 C   0  0  0  0  0  0  0  0  0  0  0  0
    0.0875    0.9625    0.0000 N   0  0  0  0  0  0  0  0  0  0  0  0
   -2.5708   -1.3167    0.0000 C   0  0  0  0  0  0  0  0  0  0  0  0
    2.4042    0.9625    0.0000 C   0  0  0  0  0  0  0  0  0  0  0  0
    1.2500    0.3000    0.0000 C   0  0  0  0  0  0  0  0  0  0  0  0
    9.5417    2.9583    0.0000 C   0  0  0  0  0  0  0  0  0  0  0  0
   -2.6000    2.1500    0.0000 C   0  0  0  0  0  0  0  0  0  0  0  0
    8.4042    2.2875    0.0000 O   0  0  0  0  0  0  0  0  0  0  0  0
    7.2667    0.2708    0.0000 C   0  0  0  0  0  0  0  0  0  0  0  0
    8.4042    0.9208    0.0000 C   0  0  0  0  0  0  0  0  0  0  0  0
   10.7167    2.2500    0.0000 C   0  0  0  0  0  0  0  0  0  0  0  0
   -2.8708    3.4625    0.0000 N   0  0  0  0  0  0  0  0  0  0  0  0
   10.7167    0.9208    0.0000 C   0  0  0  0  0  0  0  0  0  0  0  0
   11.8625    0.2708    0.0000 C   0  0  0  0  0  0  0  0  0  0  0  0
    4.9042    0.3000    0.0000 N   0  0  0  0  0  0  0  0  0  0  0  0
    3.5667    0.3000    0.0000 N   0  0  0  0  0  0  0  0  0  0  0  0
    2.4042    2.2958    0.0000 O   0  0  0  0  0  0  0  0  0  0  0  0
    1.2500   -1.0292    0.0000 O   0  0  0  0  0  0  0  0  0  0  0  0
    7.2667   -1.0625    0.0000 C   0  0  0  0  0  0  0  0  0  0  0  0
   12.9917    0.9208    0.0000 C   0  0  0  0  0  0  0  0  0  0  0  0
    9.5417    4.2417    0.0000 O   0  0  0  0  0  0  0  0  0  0  0  0
    6.0875    0.9583    0.0000 C   0  0  0  0  0  0  0  0  0  0  0  0
   11.8625    2.9583    0.0000 C   0  0  0  0  0  0  0  0  0  0  0  0
    9.6167    0.3000    0.0000 C   0  0  0  0  0  0  0  0  0  0  0  0
   13.0417    2.2875    0.0000 C   0  0  0  0  0  0  0  0  0  0  0  0
    8.4042   -1.7292    0.0000 C   0  0  0  0  0  0  0  0  0  0  0  0
   -4.5958   -0.1542    0.0000 C   0  0  0  0  0  0  0  0  0  0  0  0
    9.6167   -1.0625    0.0000 C   0  0  0  0  0  0  0  0  0  0  0  0
   11.9000   -1.1000    0.0000 O   0  0  0  0  0  0  0  0  0  0  0  0
    8.3917   -3.0417    0.0000 Br  0  0  0  0  0  0  0  0  0  0  0  0
   -3.2333   -2.4792    0.0000 C   0  0  0  0  0  0  0  0  0  0  0  0
   14.1750    0.2708    0.0000 O   0  0  0  0  0  0  0  0  0  0  0  0
   12.9917   -1.6792    0.0000 C   0  0  0  0  0  0  0  0  0  0  0  0
   14.1750   -1.1000    0.0000 C   0  0  0  0  0  0  0  0  0  0  0  0
   -5.2500   -1.3167    0.0000 C   0  0  0  0  0  0  0  0  0  0  0  0
   -4.5958   -2.4792    0.0000 C   0  0  0  0  0  0  0  0  0  0  0  0
  1  2  2  0
  1  3  1  0
  2  4  1  0
  1  5  1  0
  3  6  1  0
  7  8  1  0
  5  8  1  0
  9 11  1  0
  2 10  1  0
 11 13  1  0
 12 25  1  0
 12 13  2  0
  9 14  1  0
 10 15  3  0
 14 16  1  0
 16 17  2  0
 18 19  1  0
  7 19  1  0
  7 20  2  0
  8 21  2  0
 12 22  1  0
 23 28  2  0
  9 24  2  0
 18 25  2  0
 14 26  2  0
 13 27  1  0
 26 28  1  0
 22 29  2  0
  4 30  1  0
 29 31  1  0
 17 32  1  0
 29 33  1  0
  6 34  1  0
 23 35  1  0
 32 36  1  0
 35 37  1  0
 30 38  1  0
 34 39  1  0
  4  6  2  0
 38 39  1  0
 27 31  2  0
 17 23  1  0
M  END
>  <MOLFORMULA>  (760) 
C27 H23 Br N4 O6 S

>  <MOLWEIGHT>  (760) 
6.114707000000000e+002

>  <IDNUMBER>  (760) 
AT-225/NB84554

>  <PRICE>  (760) 
EUR 140/10 mg

>  <Similarity score>  (760) 
0.18

$$$$

     RDKit          2D

 35 38  0  0  0  0  0  0  0  0999 V2000
   -1.1125    0.3000    0.0000 C   0  0  0  0  0  0  0  0  0  0  0  0
   -2.3333    0.8458    0.0000 C   0  0  0  0  0  0  0  0  0  0  0  0
   -1.2500   -1.0375    0.0000 S   0  0  0  0  0  0  0  0  0  0  0  0
   -3.2333   -0.1542    0.0000 C   0  0  0  0  0  0  0  0  0  0  0  0
    0.0875    0.9625    0.0000 N   0  0  0  0  0  0  0  0  0  0  0  0
   -2.5708   -1.3167    0.0000 C   0  0  0  0  0  0  0  0  0  0  0  0
    2.4042    0.9625    0.0000 C   0  0  0  0  0  0  0  0  0  0  0  0
    1.2500    0.3000    0.0000 C   0  0  0  0  0  0  0  0  0  0  0  0
   10.7500    2.3958    0.0000 C   0  0  0  0  0  0  0  0  0  0  0  0
   -2.6000    2.1500    0.0000 C   0  0  0  0  0  0  0  0  0  0  0  0
   -2.8708    3.4625    0.0000 N   0  0  0  0  0  0  0  0  0  0  0  0
   10.7500    1.0083    0.0000 O   0  0  0  0  0  0  0  0  0  0  0  0
    4.9042    0.3000    0.0000 N   0  0  0  0  0  0  0  0  0  0  0  0
    9.5875    3.0583    0.0000 C   0  0  0  0  0  0  0  0  0  0  0  0
    3.5667    0.3000    0.0000 N   0  0  0  0  0  0  0  0  0  0  0  0
    2.4042    2.2958    0.0000 O   0  0  0  0  0  0  0  0  0  0  0  0
    1.2500   -1.0292    0.0000 O   0  0  0  0  0  0  0  0  0  0  0  0
   11.9042    3.0583    0.0000 O   0  0  0  0  0  0  0  0  0  0  0  0
    9.5875    0.3208    0.0000 C   0  0  0  0  0  0  0  0  0  0  0  0
    9.5875    4.3875    0.0000 C   0  0  0  0  0  0  0  0  0  0  0  0
    8.4292    2.3708    0.0000 C   0  0  0  0  0  0  0  0  0  0  0  0
    6.0667    0.9958    0.0000 C   0  0  0  0  0  0  0  0  0  0  0  0
    8.4292    0.9958    0.0000 C   0  0  0  0  0  0  0  0  0  0  0  0
    7.2667    4.3875    0.0000 C   0  0  0  0  0  0  0  0  0  0  0  0
    7.2667    0.3208    0.0000 C   0  0  0  0  0  0  0  0  0  0  0  0
   -4.5958   -0.1542    0.0000 C   0  0  0  0  0  0  0  0  0  0  0  0
    7.2667    3.0458    0.0000 C   0  0  0  0  0  0  0  0  0  0  0  0
    8.4417    5.0542    0.0000 C   0  0  0  0  0  0  0  0  0  0  0  0
   -3.2333   -2.4792    0.0000 C   0  0  0  0  0  0  0  0  0  0  0  0
    6.0875    5.0750    0.0000 Cl  0  0  0  0  0  0  0  0  0  0  0  0
    8.4292   -1.6792    0.0000 C   0  0  0  0  0  0  0  0  0  0  0  0
    9.5875   -1.0167    0.0000 C   0  0  0  0  0  0  0  0  0  0  0  0
    7.2667   -0.9917    0.0000 C   0  0  0  0  0  0  0  0  0  0  0  0
   -5.2500   -1.3167    0.0000 C   0  0  0  0  0  0  0  0  0  0  0  0
   -4.5958   -2.4792    0.0000 C   0  0  0  0  0  0  0  0  0  0  0  0
  1  2  2  0
  1  3  1  0
  2  4  1  0
  1  5  1  0
  3  6  1  0
  7  8  1  0
  5  8  1  0
  9 12  1  0
  2 10  1  0
 10 11  3  0
 12 19  1  0
 13 15  1  0
  9 14  1  0
  7 15  1  0
  7 16  2  0
  8 17  2  0
  9 18  2  0
 19 23  1  0
 14 20  2  0
 14 21  1  0
 13 22  2  0
 23 25  2  0
 24 27  1  0
 22 25  1  0
  4 26  1  0
 21 27  2  0
 20 28  1  0
  6 29  1  0
 24 30  1  0
 31 33  2  0
 31 32  1  0
 25 33  1  0
 26 34  1  0
 29 35  1  0
  4  6  2  0
 34 35  1  0
 19 32  2  0
 24 28  2  0
M  END
>  <MOLFORMULA>  (761) 
C25 H19 Cl N4 O4 S

>  <MOLWEIGHT>  (761) 
5.069681000000000e+002

>  <IDNUMBER>  (761) 
AT-225/NB83042

>  <PRICE>  (761) 
EUR 140/10 mg

>  <Similarity score>  (761) 
0.18

$$$$

     RDKit          2D

 31 35  0  0  0  0  0  0  0  0999 V2000
   -0.0458   -2.8500    0.0000 C   0  0  0  0  0  0  0  0  0  0  0  0
    0.7375   -3.4708    0.0000 C   0  0  0  0  0  0  0  0  0  0  0  0
   -0.8792   -3.4042    0.0000 S   0  0  0  0  0  0  0  0  0  0  0  0
    0.3875   -4.4083    0.0000 C   0  0  0  0  0  0  0  0  0  0  0  0
   -0.6875    2.6792    0.0000 C   0  0  0  0  0  0  0  0  0  0  0  0
   -1.5333    3.2167    0.0000 C   0  0  0  0  0  0  0  0  0  0  0  0
   -0.0042   -1.8500    0.0000 N   0  0  0  0  0  0  0  0  0  0  0  0
   -0.6083   -4.3667    0.0000 C   0  0  0  0  0  0  0  0  0  0  0  0
    0.1958    3.1458    0.0000 C   0  0  0  0  0  0  0  0  0  0  0  0
   -1.4917    4.2083    0.0000 O   0  0  0  0  0  0  0  0  0  0  0  0
   -0.8500   -1.3167    0.0000 C   0  0  0  0  0  0  0  0  0  0  0  0
    1.7000   -3.2000    0.0000 C   0  0  0  0  0  0  0  0  0  0  0  0
    0.2375    4.1417    0.0000 C   0  0  0  0  0  0  0  0  0  0  0  0
   -0.6083    4.6750    0.0000 C   0  0  0  0  0  0  0  0  0  0  0  0
    2.4167   -3.9000    0.0000 N   0  0  0  0  0  0  0  0  0  0  0  0
   -0.7292    1.6833    0.0000 C   0  0  0  0  0  0  0  0  0  0  0  0
   -0.8125   -0.3167    0.0000 C   0  0  0  0  0  0  0  0  0  0  0  0
   -2.4208    2.7500    0.0000 O   0  0  0  0  0  0  0  0  0  0  0  0
   -1.7375   -1.7792    0.0000 O   0  0  0  0  0  0  0  0  0  0  0  0
   -1.6167    1.2167    0.0000 C   0  0  0  0  0  0  0  0  0  0  0  0
    0.1167    1.1458    0.0000 C   0  0  0  0  0  0  0  0  0  0  0  0
   -1.6542    0.2167    0.0000 C   0  0  0  0  0  0  0  0  0  0  0  0
    0.0750    0.1458    0.0000 C   0  0  0  0  0  0  0  0  0  0  0  0
    0.8542   -5.2958    0.0000 C   0  0  0  0  0  0  0  0  0  0  0  0
   -1.1458   -5.2125    0.0000 C   0  0  0  0  0  0  0  0  0  0  0  0
    1.1250    4.6042    0.0000 C   0  0  0  0  0  0  0  0  0  0  0  0
   -0.5667    5.6750    0.0000 C   0  0  0  0  0  0  0  0  0  0  0  0
    0.3167   -6.1375    0.0000 C   0  0  0  0  0  0  0  0  0  0  0  0
   -0.6792   -6.0958    0.0000 C   0  0  0  0  0  0  0  0  0  0  0  0
    0.3167    6.1375    0.0000 C   0  0  0  0  0  0  0  0  0  0  0  0
    1.1625    5.6042    0.0000 C   0  0  0  0  0  0  0  0  0  0  0  0
  1  2  2  0
  1  3  1  0
  2  4  1  0
  5 16  1  0
  5  6  1  0
  1  7  1  0
  3  8  1  0
  5  9  2  0
  6 10  1  0
  7 11  1  0
  2 12  1  0
  9 13  1  0
 13 14  2  0
 12 15  3  0
 16 21  2  0
 11 17  1  0
  6 18  2  0
 11 19  2  0
 20 22  2  0
 21 23  1  0
 17 22  1  0
 17 23  2  0
  4 24  1  0
  8 25  1  0
 13 26  1  0
 14 27  1  0
 24 28  1  0
 25 29  1  0
 30 31  1  0
 26 31  2  0
  4  8  2  0
 28 29  1  0
 16 20  1  0
 10 14  1  0
 27 30  2  0
M  END
>  <MOLFORMULA>  (762) 
C25 H18 N2 O3 S

>  <MOLWEIGHT>  (762) 
4.264942000000000e+002

>  <IDNUMBER>  (762) 
AN-153/I293283

>  <PRICE>  (762) 
EUR 130/10 mg

>  <Similarity score>  (762) 
0.18

$$$$

     RDKit          2D

 33 36  0  0  0  0  0  0  0  0999 V2000
   12.3792    0.1458    0.0000 C   0  0  0  0  0  0  0  0  0  0  0  0
   12.7625   -0.8792    0.0000 C   0  0  0  0  0  0  0  0  0  0  0  0
    6.8000   -1.1750    0.0000 N   0  0  0  0  0  0  0  0  0  0  0  0
    7.6542   -0.4917    0.0000 C   0  0  0  0  0  0  0  0  0  0  0  0
   13.2417    0.8333    0.0000 S   0  0  0  0  0  0  0  0  0  0  0  0
    5.8875   -0.5667    0.0000 C   0  0  0  0  0  0  0  0  0  0  0  0
   13.8542   -0.8417    0.0000 C   0  0  0  0  0  0  0  0  0  0  0  0
    7.2792    0.5458    0.0000 N   0  0  0  0  0  0  0  0  0  0  0  0
    6.1875    0.4958    0.0000 N   0  0  0  0  0  0  0  0  0  0  0  0
   14.1667    0.2208    0.0000 C   0  0  0  0  0  0  0  0  0  0  0  0
   11.3167    0.4500    0.0000 N   0  0  0  0  0  0  0  0  0  0  0  0
   12.1500   -1.7917    0.0000 C   0  0  0  0  0  0  0  0  0  0  0  0
    2.9917   -0.6125    0.0000 C   0  0  0  0  0  0  0  0  0  0  0  0
   11.3667   -2.5667    0.0000 N   0  0  0  0  0  0  0  0  0  0  0  0
    8.7042   -0.8000    0.0000 S   0  0  0  0  0  0  0  0  0  0  0  0
   10.5375   -0.3125    0.0000 C   0  0  0  0  0  0  0  0  0  0  0  0
    4.0167   -0.2375    0.0000 N   0  0  0  0  0  0  0  0  0  0  0  0
    4.8667   -0.9500    0.0000 C   0  0  0  0  0  0  0  0  0  0  0  0
    2.1542    0.0958    0.0000 C   0  0  0  0  0  0  0  0  0  0  0  0
    2.8000   -1.6917    0.0000 O   0  0  0  0  0  0  0  0  0  0  0  0
   10.8167   -1.3625    0.0000 O   0  0  0  0  0  0  0  0  0  0  0  0
    9.4917   -0.0167    0.0000 C   0  0  0  0  0  0  0  0  0  0  0  0
    2.3417    1.1750    0.0000 C   0  0  0  0  0  0  0  0  0  0  0  0
    1.1292   -0.2875    0.0000 C   0  0  0  0  0  0  0  0  0  0  0  0
    6.8292   -2.2667    0.0000 C   0  0  0  0  0  0  0  0  0  0  0  0
    0.4667    1.4958    0.0000 C   0  0  0  0  0  0  0  0  0  0  0  0
   14.6167   -1.6292    0.0000 C   0  0  0  0  0  0  0  0  0  0  0  0
    1.4917    1.8708    0.0000 C   0  0  0  0  0  0  0  0  0  0  0  0
    0.2875    0.4125    0.0000 C   0  0  0  0  0  0  0  0  0  0  0  0
   15.2292    0.4833    0.0000 C   0  0  0  0  0  0  0  0  0  0  0  0
   -0.3708    2.2083    0.0000 Br  0  0  0  0  0  0  0  0  0  0  0  0
   15.7000   -1.3625    0.0000 C   0  0  0  0  0  0  0  0  0  0  0  0
   16.0000   -0.3000    0.0000 C   0  0  0  0  0  0  0  0  0  0  0  0
  1  2  2  0
  3  4  1  0
  4 15  1  0
  1  5  1  0
  3  6  1  0
  2  7  1  0
  4  8  2  0
  8  9  1  0
  5 10  1  0
  1 11  1  0
  2 12  1  0
 13 17  1  0
 12 14  3  0
 15 22  1  0
 11 16  1  0
 17 18  1  0
  6 18  1  0
 13 19  1  0
 13 20  2  0
 16 21  2  0
 16 22  1  0
 19 23  2  0
 19 24  1  0
  3 25  1  0
 26 29  1  0
  7 27  1  0
 23 28  1  0
 24 29  2  0
 10 30  1  0
 26 31  1  0
 27 32  1  0
 30 33  1  0
  7 10  2  0
 32 33  1  0
  6  9  2  0
 26 28  2  0
M  END
>  <MOLFORMULA>  (763) 
C22 H21 Br N6 O2 S2

>  <MOLWEIGHT>  (763) 
5.454839000000000e+002

>  <IDNUMBER>  (763) 
AM-879/PD05140

>  <PRICE>  (763) 
EUR 55.00/10 mg

>  <Similarity score>  (763) 
0.18

$$$$

     RDKit          2D

 31 34  0  0  0  0  0  0  0  0999 V2000
   -0.7625    0.5958    0.0000 C   0  0  0  0  0  0  0  0  0  0  0  0
   -0.0917   -0.1458    0.0000 N   0  0  0  0  0  0  0  0  0  0  0  0
   -1.7583    0.4917    0.0000 C   0  0  0  0  0  0  0  0  0  0  0  0
   -0.5542    1.5750    0.0000 S   0  0  0  0  0  0  0  0  0  0  0  0
   -2.1625    1.4042    0.0000 C   0  0  0  0  0  0  0  0  0  0  0  0
   -0.4042   -1.0958    0.0000 C   0  0  0  0  0  0  0  0  0  0  0  0
    0.8833    0.0625    0.0000 C   0  0  0  0  0  0  0  0  0  0  0  0
   -1.4208    2.0750    0.0000 C   0  0  0  0  0  0  0  0  0  0  0  0
   -2.2583   -0.3750    0.0000 C   0  0  0  0  0  0  0  0  0  0  0  0
   -3.2583   -0.3750    0.0000 N   0  0  0  0  0  0  0  0  0  0  0  0
    1.1958    1.0125    0.0000 C   0  0  0  0  0  0  0  0  0  0  0  0
    0.2667   -1.8417    0.0000 C   0  0  0  0  0  0  0  0  0  0  0  0
    1.5542   -0.6833    0.0000 O   0  0  0  0  0  0  0  0  0  0  0  0
   -1.3792   -1.3042    0.0000 O   0  0  0  0  0  0  0  0  0  0  0  0
    0.5250    1.7542    0.0000 C   0  0  0  0  0  0  0  0  0  0  0  0
    1.2458   -1.6333    0.0000 C   0  0  0  0  0  0  0  0  0  0  0  0
   -0.0417   -2.7917    0.0000 C   0  0  0  0  0  0  0  0  0  0  0  0
    2.1708    1.2208    0.0000 C   0  0  0  0  0  0  0  0  0  0  0  0
   -3.0292    1.9042    0.0000 C   0  0  0  0  0  0  0  0  0  0  0  0
   -1.8250    2.9875    0.0000 C   0  0  0  0  0  0  0  0  0  0  0  0
    1.9125   -2.3750    0.0000 C   0  0  0  0  0  0  0  0  0  0  0  0
    0.6292   -3.5333    0.0000 C   0  0  0  0  0  0  0  0  0  0  0  0
    2.4833    2.1708    0.0000 C   0  0  0  0  0  0  0  0  0  0  0  0
    0.8333    2.7083    0.0000 C   0  0  0  0  0  0  0  0  0  0  0  0
    1.8125    2.9167    0.0000 C   0  0  0  0  0  0  0  0  0  0  0  0
    1.6042   -3.3250    0.0000 C   0  0  0  0  0  0  0  0  0  0  0  0
   -2.8208    2.8833    0.0000 C   0  0  0  0  0  0  0  0  0  0  0  0
    2.2750   -4.0708    0.0000 C   0  0  0  0  0  0  0  0  0  0  0  0
    2.1208    3.8667    0.0000 C   0  0  0  0  0  0  0  0  0  0  0  0
    3.2542   -3.8625    0.0000 C   0  0  0  0  0  0  0  0  0  0  0  0
    3.1000    4.0708    0.0000 C   0  0  0  0  0  0  0  0  0  0  0  0
  1  2  1  0
  1  3  2  0
  1  4  1  0
  3  5  1  0
  2  6  1  0
  2  7  1  0
  4  8  1  0
  3  9  1  0
  9 10  3  0
  7 11  1  0
  6 12  1  0
  7 13  2  0
  6 14  2  0
 11 15  2  0
 12 16  2  0
 12 17  1  0
 11 18  1  0
  5 19  1  0
  8 20  1  0
 16 21  1  0
 17 22  2  0
 18 23  2  0
 15 24  1  0
 23 25  1  0
 22 26  1  0
 20 27  1  0
 26 28  1  0
 25 29  1  0
 28 30  1  0
 29 31  1  0
  5  8  2  0
 19 27  1  0
 24 25  2  0
 21 26  2  0
M  END
>  <MOLFORMULA>  (764) 
C26 H24 N2 O2 S

>  <MOLWEIGHT>  (764) 
4.285536000000000e+002

>  <IDNUMBER>  (764) 
AN-153/I263452

>  <PRICE>  (764) 
EUR 130/10 mg

>  <Similarity score>  (764) 
0.18

$$$$

     RDKit          2D

 22 25  0  0  0  0  0  0  0  0999 V2000
   -0.7208   -1.1625    0.0000 C   0  0  0  0  0  0  0  0  0  0  0  0
   -0.4125   -2.1125    0.0000 C   0  0  0  0  0  0  0  0  0  0  0  0
   -1.7208   -1.1625    0.0000 S   0  0  0  0  0  0  0  0  0  0  0  0
   -1.2208   -2.7000    0.0000 C   0  0  0  0  0  0  0  0  0  0  0  0
   -0.1333   -0.3542    0.0000 N   0  0  0  0  0  0  0  0  0  0  0  0
   -2.0292   -2.1125    0.0000 C   0  0  0  0  0  0  0  0  0  0  0  0
   -0.5375    0.5583    0.0000 C   0  0  0  0  0  0  0  0  0  0  0  0
    0.5417   -2.4208    0.0000 C   0  0  0  0  0  0  0  0  0  0  0  0
    0.0500    1.3708    0.0000 C   0  0  0  0  0  0  0  0  0  0  0  0
    0.7500   -3.4000    0.0000 N   0  0  0  0  0  0  0  0  0  0  0  0
    1.6292    2.0750    0.0000 C   0  0  0  0  0  0  0  0  0  0  0  0
    1.0417    1.2625    0.0000 C   0  0  0  0  0  0  0  0  0  0  0  0
    1.2250    2.9875    0.0000 C   0  0  0  0  0  0  0  0  0  0  0  0
    2.6250    2.1792    0.0000 O   0  0  0  0  0  0  0  0  0  0  0  0
    1.9667    3.6583    0.0000 O   0  0  0  0  0  0  0  0  0  0  0  0
    2.8333    3.1583    0.0000 C   0  0  0  0  0  0  0  0  0  0  0  0
   -1.5333    0.6667    0.0000 O   0  0  0  0  0  0  0  0  0  0  0  0
   -0.3583    2.2833    0.0000 C   0  0  0  0  0  0  0  0  0  0  0  0
    0.2292    3.0917    0.0000 C   0  0  0  0  0  0  0  0  0  0  0  0
   -1.5292   -3.6542    0.0000 C   0  0  0  0  0  0  0  0  0  0  0  0
   -2.8375   -2.7000    0.0000 C   0  0  0  0  0  0  0  0  0  0  0  0
   -2.5292   -3.6542    0.0000 C   0  0  0  0  0  0  0  0  0  0  0  0
  1  2  2  0
  1  3  1  0
  2  4  1  0
  1  5  1  0
  3  6  1  0
  5  7  1  0
  2  8  1  0
  7  9  1  0
  8 10  3  0
 11 12  1  0
  9 12  2  0
 13 19  1  0
 11 14  1  0
 13 15  1  0
 14 16  1  0
  7 17  2  0
  9 18  1  0
 18 19  2  0
  4 20  1  0
  6 21  1  0
 21 22  1  0
  4  6  2  0
 20 22  1  0
 11 13  2  0
 15 16  1  0
M  END
>  <MOLFORMULA>  (765) 
C16 H12 N2 O3 S

>  <MOLWEIGHT>  (765) 
3.123478000000000e+002

>  <IDNUMBER>  (765) 
AN-153/I181360

>  <PRICE>  (765) 
EUR 130/10 mg

>  <Similarity score>  (765) 
0.17

$$$$

     RDKit          2D

 27 30  0  0  0  0  0  0  0  0999 V2000
    2.0667   -3.2000    0.0000 C   0  0  0  0  0  0  0  0  0  0  0  0
    1.3625   -2.7917    0.0000 C   0  0  0  0  0  0  0  0  0  0  0  0
    0.7417   -3.3417    0.0000 C   0  0  0  0  0  0  0  0  0  0  0  0
    1.8917   -4.0042    0.0000 C   0  0  0  0  0  0  0  0  0  0  0  0
    1.0792   -4.0917    0.0000 S   0  0  0  0  0  0  0  0  0  0  0  0
    2.7875    0.5083    0.0000 C   0  0  0  0  0  0  0  0  0  0  0  0
    2.7875   -0.3125    0.0000 C   0  0  0  0  0  0  0  0  0  0  0  0
    3.5667    0.7583    0.0000 S   0  0  0  0  0  0  0  0  0  0  0  0
    3.5667   -0.5667    0.0000 C   0  0  0  0  0  0  0  0  0  0  0  0
    4.0500    0.1000    0.0000 C   0  0  0  0  0  0  0  0  0  0  0  0
    2.0667   -0.7167    0.0000 C   0  0  0  0  0  0  0  0  0  0  0  0
    2.0667    0.9250    0.0000 N   0  0  0  0  0  0  0  0  0  0  0  0
   -0.0625   -3.1917    0.0000 C   0  0  0  0  0  0  0  0  0  0  0  0
    2.8417   -2.8667    0.0000 C   0  0  0  0  0  0  0  0  0  0  0  0
    1.3625   -1.9625    0.0000 C   0  0  0  0  0  0  0  0  0  0  0  0
    1.3625   -0.3125    0.0000 N   0  0  0  0  0  0  0  0  0  0  0  0
    3.6000   -2.5375    0.0000 N   0  0  0  0  0  0  0  0  0  0  0  0
    2.0667   -1.5417    0.0000 S   0  0  0  0  0  0  0  0  0  0  0  0
    1.3625    0.5083    0.0000 C   0  0  0  0  0  0  0  0  0  0  0  0
    2.4417   -4.6292    0.0000 N   0  0  0  0  0  0  0  0  0  0  0  0
   -0.3375   -2.4167    0.0000 O   0  0  0  0  0  0  0  0  0  0  0  0
   -0.6000   -3.8167    0.0000 O   0  0  0  0  0  0  0  0  0  0  0  0
    4.0542   -1.2375    0.0000 C   0  0  0  0  0  0  0  0  0  0  0  0
    4.8417   -0.1417    0.0000 C   0  0  0  0  0  0  0  0  0  0  0  0
    4.8417   -0.9667    0.0000 C   0  0  0  0  0  0  0  0  0  0  0  0
   -0.3250   -4.5917    0.0000 C   0  0  0  0  0  0  0  0  0  0  0  0
   -0.8583   -5.2167    0.0000 C   0  0  0  0  0  0  0  0  0  0  0  0
  1  2  1  0
  2  3  2  0
  1  4  2  0
  4  5  1  0
  6  7  1  0
  7 11  2  0
  6  8  1  0
  7  9  1  0
  9 10  2  0
 11 18  1  0
 12 19  1  0
  3 13  1  0
  1 14  1  0
  2 15  1  0
 11 16  1  0
 14 17  3  0
 15 18  1  0
 16 19  2  0
  4 20  1  0
 13 21  2  0
 13 22  1  0
  9 23  1  0
 10 24  1  0
 23 25  1  0
 22 26  1  0
 26 27  1  0
  3  5  1  0
  6 12  2  0
  8 10  1  0
 24 25  1  0
M  END
>  <MOLFORMULA>  (766) 
C18 H16 N4 O2 S3

>  <MOLWEIGHT>  (766) 
4.165484000000000e+002

>  <IDNUMBER>  (766) 
AT-687/SK06793

>  <PRICE>  (766) 
EUR 80/10 mg

>  <Similarity score>  (766) 
0.17

$$$$

     RDKit          2D

 23 25  0  0  0  0  0  0  0  0999 V2000
    0.7125    1.0583    0.0000 C   0  0  0  0  0  0  0  0  0  0  0  0
    1.7083    1.1625    0.0000 C   0  0  0  0  0  0  0  0  0  0  0  0
    0.3083    1.9708    0.0000 S   0  0  0  0  0  0  0  0  0  0  0  0
    1.9167    2.1417    0.0000 C   0  0  0  0  0  0  0  0  0  0  0  0
    0.2125    0.1917    0.0000 N   0  0  0  0  0  0  0  0  0  0  0  0
    1.0500    2.6417    0.0000 C   0  0  0  0  0  0  0  0  0  0  0  0
   -0.7875    0.1917    0.0000 C   0  0  0  0  0  0  0  0  0  0  0  0
    2.3792    0.4208    0.0000 C   0  0  0  0  0  0  0  0  0  0  0  0
   -1.2875   -0.6750    0.0000 C   0  0  0  0  0  0  0  0  0  0  0  0
    2.0667   -0.5292    0.0000 N   0  0  0  0  0  0  0  0  0  0  0  0
   -1.2875   -2.4042    0.0000 C   0  0  0  0  0  0  0  0  0  0  0  0
   -0.7875   -1.5375    0.0000 C   0  0  0  0  0  0  0  0  0  0  0  0
   -2.2875   -2.4042    0.0000 C   0  0  0  0  0  0  0  0  0  0  0  0
   -1.2875    1.0583    0.0000 O   0  0  0  0  0  0  0  0  0  0  0  0
   -2.2875   -0.6750    0.0000 C   0  0  0  0  0  0  0  0  0  0  0  0
   -2.7875   -1.5375    0.0000 C   0  0  0  0  0  0  0  0  0  0  0  0
   -0.7875   -3.2708    0.0000 Cl  0  0  0  0  0  0  0  0  0  0  0  0
    2.7833    2.6417    0.0000 C   0  0  0  0  0  0  0  0  0  0  0  0
    1.0500    3.6417    0.0000 C   0  0  0  0  0  0  0  0  0  0  0  0
   -2.7875   -3.2708    0.0000 O   0  0  0  0  0  0  0  0  0  0  0  0
   -2.2875   -4.1375    0.0000 C   0  0  0  0  0  0  0  0  0  0  0  0
    2.7833    3.6417    0.0000 C   0  0  0  0  0  0  0  0  0  0  0  0
    1.9167    4.1375    0.0000 C   0  0  0  0  0  0  0  0  0  0  0  0
  1  2  2  0
  1  3  1  0
  2  4  1  0
  1  5  1  0
  3  6  1  0
  5  7  1  0
  2  8  1  0
  7  9  1  0
  8 10  3  0
 11 12  1  0
  9 12  2  0
 13 16  1  0
  7 14  2  0
  9 15  1  0
 15 16  2  0
 11 17  1  0
  4 18  1  0
  6 19  1  0
 13 20  1  0
 20 21  1  0
 18 22  1  0
 19 23  1  0
  4  6  2  0
 22 23  1  0
 11 13  2  0
M  END
>  <MOLFORMULA>  (767) 
C17 H15 Cl N2 O2 S

>  <MOLWEIGHT>  (767) 
3.468365000000000e+002

>  <IDNUMBER>  (767) 
AN-153/I226295

>  <PRICE>  (767) 
EUR 130/10 mg

>  <Similarity score>  (767) 
0.17

$$$$

     RDKit          2D

 26 28  0  0  0  0  0  0  0  0999 V2000
    2.2125    6.0417    0.0000 C   0  0  0  0  0  0  0  0  0  0  0  0
    0.1667    4.2542    0.0000 C   0  0  0  0  0  0  0  0  0  0  0  0
    4.4250    4.6375    0.0000 S   0  0  0  0  0  0  0  0  0  0  0  0
    1.2750    1.8333    0.0000 C   0  0  0  0  0  0  0  0  0  0  0  0
    9.7792    3.3625    0.0000 N   0  0  0  0  0  0  0  0  0  0  0  0
    9.2750    6.0417    0.0000 C   0  0  0  0  0  0  0  0  0  0  0  0
    3.8292    1.9583    0.0000 C   0  0  0  0  0  0  0  0  0  0  0  0
   11.4042    7.8292    0.0000 N   0  0  0  0  0  0  0  0  0  0  0  0
   12.3375    2.4708    0.0000 C   0  0  0  0  0  0  0  0  0  0  0  0
    1.6167    8.5917    0.0000 N   0  0  0  0  0  0  0  0  0  0  0  0
   14.3792    4.2542    0.0000 C   0  0  0  0  0  0  0  0  0  0  0  0
   13.8667    6.8042    0.0000 C   0  0  0  0  0  0  0  0  0  0  0  0
   -2.5583    4.7625    0.0000 C   0  0  0  0  0  0  0  0  0  0  0  0
   -5.2833    5.2750    0.0000 N   0  0  0  0  0  0  0  0  0  0  0  0
    3.6542   10.3792    0.0000 C   0  0  0  0  0  0  0  0  0  0  0  0
    6.7167    6.9292    0.0000 S   0  0  0  0  0  0  0  0  0  0  0  0
   12.7625   -0.3375    0.0000 O   0  0  0  0  0  0  0  0  0  0  0  0
    3.0625   12.9292    0.0000 O   0  0  0  0  0  0  0  0  0  0  0  0
    6.1250    9.4875    0.0000 C   0  0  0  0  0  0  0  0  0  0  0  0
   -0.5958   -0.2125    0.0000 C   0  0  0  0  0  0  0  0  0  0  0  0
    5.7792    0.1708    0.0000 C   0  0  0  0  0  0  0  0  0  0  0  0
   16.0000    8.5917    0.0000 C   0  0  0  0  0  0  0  0  0  0  0  0
   -0.4333   -2.8917    0.0000 C   0  0  0  0  0  0  0  0  0  0  0  0
    5.9542   -2.5042    0.0000 C   0  0  0  0  0  0  0  0  0  0  0  0
    1.5292   -4.6792    0.0000 C   0  0  0  0  0  0  0  0  0  0  0  0
    4.0792   -4.5500    0.0000 C   0  0  0  0  0  0  0  0  0  0  0  0
  1  2  2  0
  1  3  1  0
  2  4  1  0
  5  6  1  0
  6 16  1  0
  3  7  1  0
  6  8  2  0
  5  9  1  0
  1 10  1  0
 11 12  2  0
  8 12  1  0
  2 13  1  0
 13 14  3  0
 10 15  1  0
 16 19  1  0
  9 17  2  0
 15 18  2  0
 15 19  1  0
  4 20  1  0
  7 21  1  0
 12 22  1  0
 20 23  1  0
 21 24  1  0
 23 25  1  0
 24 26  1  0
  4  7  2  0
 25 26  1  0
  9 11  1  0
M  END
>  <MOLFORMULA>  (768) 
C18 H20 N4 O2 S2

>  <MOLWEIGHT>  (768) 
3.885140000000000e+002

>  <IDNUMBER>  (768) 
AT-225/NB85496

>  <PRICE>  (768) 
EUR 140/10 mg

>  <Similarity score>  (768) 
0.17

$$$$

     RDKit          2D

 16 17  0  0  0  0  0  0  0  0999 V2000
   -1.6500   -0.5542    0.0000 C   0  0  0  0  0  0  0  0  0  0  0  0
   -2.0583    0.3583    0.0000 C   0  0  0  0  0  0  0  0  0  0  0  0
   -0.4500    0.5250    0.0000 C   0  0  0  0  0  0  0  0  0  0  0  0
   -0.6583   -0.4500    0.0000 C   0  0  0  0  0  0  0  0  0  0  0  0
   -1.3167    1.0250    0.0000 S   0  0  0  0  0  0  0  0  0  0  0  0
   -2.1500   -1.4208    0.0000 C   0  0  0  0  0  0  0  0  0  0  0  0
    0.5000    0.8333    0.0000 C   0  0  0  0  0  0  0  0  0  0  0  0
   -3.1500   -1.4208    0.0000 N   0  0  0  0  0  0  0  0  0  0  0  0
    0.0875   -1.1208    0.0000 C   0  0  0  0  0  0  0  0  0  0  0  0
    1.2458    0.1667    0.0000 C   0  0  0  0  0  0  0  0  0  0  0  0
    2.1958    0.4750    0.0000 C   0  0  0  0  0  0  0  0  0  0  0  0
   -3.0375    0.5667    0.0000 N   0  0  0  0  0  0  0  0  0  0  0  0
    1.0375   -0.8125    0.0000 C   0  0  0  0  0  0  0  0  0  0  0  0
    1.8875    1.4250    0.0000 C   0  0  0  0  0  0  0  0  0  0  0  0
    2.5042   -0.4750    0.0000 C   0  0  0  0  0  0  0  0  0  0  0  0
    3.1458    0.7833    0.0000 C   0  0  0  0  0  0  0  0  0  0  0  0
  1  2  2  0
  3  4  2  0
  1  4  1  0
  2  5  1  0
  1  6  1  0
  3  7  1  0
  6  8  3  0
  4  9  1  0
 10 13  1  0
 10 11  1  0
  2 12  1  0
  9 13  1  0
 11 14  1  0
 11 15  1  0
 11 16  1  0
  3  5  1  0
  7 10  1  0
M  END
>  <MOLFORMULA>  (769) 
C13 H18 N2 S

>  <MOLWEIGHT>  (769) 
2.343652000000000e+002

>  <IDNUMBER>  (769) 
AN-153/I124583

>  <PRICE>  (769) 
EUR 130/10 mg

>  <Similarity score>  (769) 
0.17

$$$$

     RDKit          2D

 16 17  0  0  0  0  0  0  0  0999 V2000
    5.8667   -2.5542    0.0000 C   0  0  0  0  0  0  0  0  0  0  0  0
    6.6417   -3.6292    0.0000 C   0  0  0  0  0  0  0  0  0  0  0  0
    4.6042   -4.2917    0.0000 C   0  0  0  0  0  0  0  0  0  0  0  0
    4.6042   -2.9667    0.0000 C   0  0  0  0  0  0  0  0  0  0  0  0
    5.8667   -4.7042    0.0000 S   0  0  0  0  0  0  0  0  0  0  0  0
    6.2792   -1.2917    0.0000 C   0  0  0  0  0  0  0  0  0  0  0  0
    3.4542   -4.9542    0.0000 C   0  0  0  0  0  0  0  0  0  0  0  0
    6.6292   -0.0000    0.0000 N   0  0  0  0  0  0  0  0  0  0  0  0
    3.4542   -2.2917    0.0000 C   0  0  0  0  0  0  0  0  0  0  0  0
    2.3042   -4.3000    0.0000 C   0  0  0  0  0  0  0  0  0  0  0  0
    1.1542   -4.9667    0.0000 C   0  0  0  0  0  0  0  0  0  0  0  0
    7.9750   -3.6292    0.0000 N   0  0  0  0  0  0  0  0  0  0  0  0
    2.3042   -2.9667    0.0000 C   0  0  0  0  0  0  0  0  0  0  0  0
    0.0000   -5.6167    0.0000 C   0  0  0  0  0  0  0  0  0  0  0  0
    1.8250   -6.1167    0.0000 C   0  0  0  0  0  0  0  0  0  0  0  0
    0.4917   -3.8125    0.0000 C   0  0  0  0  0  0  0  0  0  0  0  0
  1  2  2  0
  3  4  2  0
  1  4  1  0
  2  5  1  0
  1  6  1  0
  3  7  1  0
  6  8  3  0
  4  9  1  0
 10 13  1  0
 10 11  1  0
  2 12  1  0
  9 13  1  0
 11 14  1  0
 11 15  1  0
 11 16  1  0
  3  5  1  0
  7 10  1  0
M  END
>  <MOLFORMULA>  (770) 
C13 H18 N2 S

>  <MOLWEIGHT>  (770) 
2.343652000000000e+002

>  <IDNUMBER>  (770) 
AT-687/NB00958

>  <PRICE>  (770) 
EUR 80/10 mg

>  <Similarity score>  (770) 
0.17

$$$$

     RDKit          2D

 16 17  0  0  0  0  0  0  0  0999 V2000
    0.1375    0.9458    0.0000 C   0  0  0  0  0  0  0  0  0  0  0  0
    0.1375    0.2833    0.0000 C   0  0  0  0  0  0  0  0  0  0  0  0
   -1.0208    0.2833    0.0000 C   0  0  0  0  0  0  0  0  0  0  0  0
   -1.0208    0.9458    0.0000 C   0  0  0  0  0  0  0  0  0  0  0  0
   -0.4458   -0.0500    0.0000 S   0  0  0  0  0  0  0  0  0  0  0  0
    0.7500    1.2833    0.0000 C   0  0  0  0  0  0  0  0  0  0  0  0
   -1.6000   -0.0500    0.0000 C   0  0  0  0  0  0  0  0  0  0  0  0
    1.3542    1.6208    0.0000 N   0  0  0  0  0  0  0  0  0  0  0  0
   -1.6000    1.2708    0.0000 C   0  0  0  0  0  0  0  0  0  0  0  0
   -2.1833    0.2833    0.0000 C   0  0  0  0  0  0  0  0  0  0  0  0
   -2.7958   -0.0667    0.0000 C   0  0  0  0  0  0  0  0  0  0  0  0
    0.7500   -0.0667    0.0000 N   0  0  0  0  0  0  0  0  0  0  0  0
   -2.1833    0.9458    0.0000 C   0  0  0  0  0  0  0  0  0  0  0  0
   -3.4833   -0.3542    0.0000 C   0  0  0  0  0  0  0  0  0  0  0  0
   -3.0458    0.5208    0.0000 C   0  0  0  0  0  0  0  0  0  0  0  0
   -2.5000   -0.7375    0.0000 C   0  0  0  0  0  0  0  0  0  0  0  0
  1  2  2  0
  3  4  2  0
  1  4  1  0
  2  5  1  0
  1  6  1  0
  3  7  1  0
  6  8  3  0
  4  9  1  0
 10 13  1  0
 10 11  1  0
  2 12  1  0
  9 13  1  0
 11 14  1  0
 11 15  1  0
 11 16  1  0
  3  5  1  0
  7 10  1  0
M  END
>  <MOLFORMULA>  (771) 
C13 H18 N2 S

>  <MOLWEIGHT>  (771) 
2.343652000000000e+002

>  <IDNUMBER>  (771) 
AT-225/JK21267

>  <PRICE>  (771) 
EUR 140/10 mg

>  <Similarity score>  (771) 
0.17

$$$$

     RDKit          2D

 16 17  0  0  0  0  0  0  0  0999 V2000
    4.0292   -0.4000    0.0000 C   0  0  0  0  0  0  0  0  0  0  0  0
    4.5167   -1.0542    0.0000 C   0  0  0  0  0  0  0  0  0  0  0  0
    3.2500   -1.4750    0.0000 C   0  0  0  0  0  0  0  0  0  0  0  0
    3.2500   -0.6500    0.0000 C   0  0  0  0  0  0  0  0  0  0  0  0
    4.0292   -1.7250    0.0000 S   0  0  0  0  0  0  0  0  0  0  0  0
    4.2917    0.3875    0.0000 C   0  0  0  0  0  0  0  0  0  0  0  0
    2.5417   -1.8792    0.0000 C   0  0  0  0  0  0  0  0  0  0  0  0
    4.5000    1.1875    0.0000 N   0  0  0  0  0  0  0  0  0  0  0  0
    2.5417   -0.2292    0.0000 C   0  0  0  0  0  0  0  0  0  0  0  0
    1.8250   -1.4750    0.0000 C   0  0  0  0  0  0  0  0  0  0  0  0
    1.1167   -1.8917    0.0000 C   0  0  0  0  0  0  0  0  0  0  0  0
    5.3417   -1.0542    0.0000 N   0  0  0  0  0  0  0  0  0  0  0  0
    1.8250   -0.6500    0.0000 C   0  0  0  0  0  0  0  0  0  0  0  0
    0.4000   -2.3000    0.0000 C   0  0  0  0  0  0  0  0  0  0  0  0
    1.5250   -2.6000    0.0000 C   0  0  0  0  0  0  0  0  0  0  0  0
    0.7000   -1.1750    0.0000 C   0  0  0  0  0  0  0  0  0  0  0  0
  1  2  2  0
  3  4  2  0
  1  4  1  0
  2  5  1  0
  1  6  1  0
  3  7  1  0
  6  8  3  0
  4  9  1  0
 10 13  1  0
 10 11  1  0
  2 12  1  0
  9 13  1  0
 11 14  1  0
 11 15  1  0
 11 16  1  0
  3  5  1  0
  7 10  1  0
M  END
>  <MOLFORMULA>  (772) 
C13 H18 N2 S

>  <MOLWEIGHT>  (772) 
2.343652000000000e+002

>  <IDNUMBER>  (772) 
AT-687/PE32216

>  <PRICE>  (772) 
EUR 80/10 mg

>  <Similarity score>  (772) 
0.17

$$$$

     RDKit          2D

 18 20  0  0  0  0  0  0  0  0999 V2000
   -0.0583   -0.7542    0.0000 C   0  0  0  0  0  0  0  0  0  0  0  0
    0.3500   -1.6708    0.0000 C   0  0  0  0  0  0  0  0  0  0  0  0
   -1.0500   -0.8583    0.0000 S   0  0  0  0  0  0  0  0  0  0  0  0
   -0.3917   -2.3375    0.0000 C   0  0  0  0  0  0  0  0  0  0  0  0
    0.4458    0.1083    0.0000 N   0  0  0  0  0  0  0  0  0  0  0  0
   -1.2583   -1.8375    0.0000 C   0  0  0  0  0  0  0  0  0  0  0  0
   -0.0583    0.9750    0.0000 C   0  0  0  0  0  0  0  0  0  0  0  0
    1.3292   -1.8750    0.0000 C   0  0  0  0  0  0  0  0  0  0  0  0
    0.4458    1.8417    0.0000 C   0  0  0  0  0  0  0  0  0  0  0  0
    1.9958   -1.1333    0.0000 N   0  0  0  0  0  0  0  0  0  0  0  0
    0.0375    2.7542    0.0000 O   0  0  0  0  0  0  0  0  0  0  0  0
   -1.0583    0.9750    0.0000 O   0  0  0  0  0  0  0  0  0  0  0  0
    1.4375    1.9458    0.0000 C   0  0  0  0  0  0  0  0  0  0  0  0
    0.7792    3.4250    0.0000 C   0  0  0  0  0  0  0  0  0  0  0  0
    1.6458    2.9250    0.0000 C   0  0  0  0  0  0  0  0  0  0  0  0
   -0.6000   -3.3167    0.0000 C   0  0  0  0  0  0  0  0  0  0  0  0
   -2.0000   -2.5083    0.0000 C   0  0  0  0  0  0  0  0  0  0  0  0
   -1.5958   -3.4208    0.0000 C   0  0  0  0  0  0  0  0  0  0  0  0
  1  2  2  0
  1  3  1  0
  2  4  1  0
  1  5  1  0
  3  6  1  0
  5  7  1  0
  2  8  1  0
  7  9  1  0
  8 10  3  0
  9 11  1  0
  7 12  2  0
  9 13  2  0
 11 14  1  0
 13 15  1  0
  4 16  1  0
  6 17  1  0
 17 18  1  0
  4  6  2  0
 16 18  1  0
 14 15  2  0
M  END
>  <MOLFORMULA>  (773) 
C13 H10 N2 O2 S

>  <MOLWEIGHT>  (773) 
2.583000000000000e+002

>  <IDNUMBER>  (773) 
AN-153/I181363

>  <PRICE>  (773) 
EUR 130/10 mg

>  <Similarity score>  (773) 
0.17

$$$$

     RDKit          2D

 32 35  0  0  0  0  0  0  0  0999 V2000
   -0.8542    4.0542    0.0000 C   0  0  0  0  0  0  0  0  0  0  0  0
   -0.2667    4.8625    0.0000 C   0  0  0  0  0  0  0  0  0  0  0  0
   -1.8042    4.3625    0.0000 S   0  0  0  0  0  0  0  0  0  0  0  0
   -1.8542   -1.0917    0.0000 N   0  0  0  0  0  0  0  0  0  0  0  0
   -0.8542    5.6708    0.0000 C   0  0  0  0  0  0  0  0  0  0  0  0
   -1.2667   -1.9000    0.0000 C   0  0  0  0  0  0  0  0  0  0  0  0
   -1.8042    5.3625    0.0000 C   0  0  0  0  0  0  0  0  0  0  0  0
   -1.2667   -0.2792    0.0000 C   0  0  0  0  0  0  0  0  0  0  0  0
   -0.3125   -1.5917    0.0000 N   0  0  0  0  0  0  0  0  0  0  0  0
   -0.3125   -0.5917    0.0000 N   0  0  0  0  0  0  0  0  0  0  0  0
   -0.5458    3.1083    0.0000 N   0  0  0  0  0  0  0  0  0  0  0  0
    0.7333    4.8625    0.0000 C   0  0  0  0  0  0  0  0  0  0  0  0
   -0.5458   -5.2875    0.0000 C   0  0  0  0  0  0  0  0  0  0  0  0
    1.2333    5.7292    0.0000 N   0  0  0  0  0  0  0  0  0  0  0  0
   -1.2125    2.3667    0.0000 C   0  0  0  0  0  0  0  0  0  0  0  0
   -0.9042   -3.5917    0.0000 N   0  0  0  0  0  0  0  0  0  0  0  0
   -1.5750   -2.8500    0.0000 N   0  0  0  0  0  0  0  0  0  0  0  0
   -1.5750    0.6708    0.0000 S   0  0  0  0  0  0  0  0  0  0  0  0
   -0.8542   -6.2375    0.0000 C   0  0  0  0  0  0  0  0  0  0  0  0
    0.4333   -5.0792    0.0000 C   0  0  0  0  0  0  0  0  0  0  0  0
   -1.2125   -4.5458    0.0000 C   0  0  0  0  0  0  0  0  0  0  0  0
   -2.1917    2.5708    0.0000 O   0  0  0  0  0  0  0  0  0  0  0  0
   -0.1833   -6.9833    0.0000 C   0  0  0  0  0  0  0  0  0  0  0  0
   -0.9042    1.4125    0.0000 C   0  0  0  0  0  0  0  0  0  0  0  0
    1.1000   -5.8250    0.0000 C   0  0  0  0  0  0  0  0  0  0  0  0
   -0.8542    6.6708    0.0000 C   0  0  0  0  0  0  0  0  0  0  0  0
   -2.3917    6.1708    0.0000 C   0  0  0  0  0  0  0  0  0  0  0  0
    0.7917   -6.7750    0.0000 C   0  0  0  0  0  0  0  0  0  0  0  0
   -1.8333   -6.4458    0.0000 O   0  0  0  0  0  0  0  0  0  0  0  0
    2.0792   -5.6167    0.0000 O   0  0  0  0  0  0  0  0  0  0  0  0
   -1.8083    6.9833    0.0000 C   0  0  0  0  0  0  0  0  0  0  0  0
    2.3875   -4.6625    0.0000 C   0  0  0  0  0  0  0  0  0  0  0  0
  1  2  2  0
  1  3  1  0
  4  8  1  0
  2  5  1  0
  4  6  1  0
  3  7  1  0
  8 18  1  0
  9 10  1  0
  8 10  2  0
  1 11  1  0
  2 12  1  0
 13 21  1  0
 12 14  3  0
 11 15  1  0
 16 17  1  0
  6 17  1  0
 18 24  1  0
 13 19  1  0
 13 20  2  0
 16 21  2  0
 15 22  2  0
 19 23  2  0
 15 24  1  0
 20 25  1  0
  5 26  1  0
  7 27  1  0
 25 28  2  0
 19 29  1  0
 25 30  1  0
 27 31  1  0
 30 32  1  0
  5  7  2  0
 26 31  1  0
  6  9  2  0
 23 28  1  0
M  END
>  <MOLFORMULA>  (774) 
C20 H19 N7 O3 S2

>  <MOLWEIGHT>  (774) 
4.695481000000000e+002

>  <IDNUMBER>  (774) 
AN-153/I181444

>  <PRICE>  (774) 
EUR 130/10 mg

>  <Similarity score>  (774) 
0.17

$$$$

     RDKit          2D

 32 35  0  0  0  0  0  0  0  0999 V2000
   -0.6542    1.0708    0.0000 C   0  0  0  0  0  0  0  0  0  0  0  0
    0.0167    0.3292    0.0000 N   0  0  0  0  0  0  0  0  0  0  0  0
   -1.6458    0.9667    0.0000 C   0  0  0  0  0  0  0  0  0  0  0  0
   -0.4458    2.0500    0.0000 S   0  0  0  0  0  0  0  0  0  0  0  0
   -2.0542    1.8833    0.0000 C   0  0  0  0  0  0  0  0  0  0  0  0
   -0.2917   -0.6208    0.0000 C   0  0  0  0  0  0  0  0  0  0  0  0
    0.9958    0.5375    0.0000 C   0  0  0  0  0  0  0  0  0  0  0  0
   -1.3125    2.5500    0.0000 C   0  0  0  0  0  0  0  0  0  0  0  0
   -2.1458    0.1000    0.0000 C   0  0  0  0  0  0  0  0  0  0  0  0
   -3.1458    0.1000    0.0000 N   0  0  0  0  0  0  0  0  0  0  0  0
    1.3042    1.4875    0.0000 C   0  0  0  0  0  0  0  0  0  0  0  0
    0.3750   -1.3667    0.0000 C   0  0  0  0  0  0  0  0  0  0  0  0
    1.6625   -0.2042    0.0000 O   0  0  0  0  0  0  0  0  0  0  0  0
   -1.2708   -0.8292    0.0000 O   0  0  0  0  0  0  0  0  0  0  0  0
    0.6333    2.2333    0.0000 C   0  0  0  0  0  0  0  0  0  0  0  0
    1.3542   -1.1583    0.0000 C   0  0  0  0  0  0  0  0  0  0  0  0
    0.0667   -2.3167    0.0000 C   0  0  0  0  0  0  0  0  0  0  0  0
    2.2833    1.6958    0.0000 C   0  0  0  0  0  0  0  0  0  0  0  0
   -3.0042    2.1917    0.0000 C   0  0  0  0  0  0  0  0  0  0  0  0
    0.7375   -3.0583    0.0000 C   0  0  0  0  0  0  0  0  0  0  0  0
    2.5917    2.6458    0.0000 C   0  0  0  0  0  0  0  0  0  0  0  0
    0.9417    3.1833    0.0000 C   0  0  0  0  0  0  0  0  0  0  0  0
    2.0250   -1.9000    0.0000 C   0  0  0  0  0  0  0  0  0  0  0  0
   -1.5167    3.5292    0.0000 C   0  0  0  0  0  0  0  0  0  0  0  0
    1.9208    3.3917    0.0000 C   0  0  0  0  0  0  0  0  0  0  0  0
    1.7167   -2.8500    0.0000 C   0  0  0  0  0  0  0  0  0  0  0  0
    2.2292    4.3375    0.0000 C   0  0  0  0  0  0  0  0  0  0  0  0
    2.3833   -3.5958    0.0000 C   0  0  0  0  0  0  0  0  0  0  0  0
   -3.2125    3.1708    0.0000 C   0  0  0  0  0  0  0  0  0  0  0  0
   -2.4708    3.8375    0.0000 C   0  0  0  0  0  0  0  0  0  0  0  0
    3.2083    4.5458    0.0000 C   0  0  0  0  0  0  0  0  0  0  0  0
    2.0750   -4.5458    0.0000 C   0  0  0  0  0  0  0  0  0  0  0  0
  1  2  1  0
  1  3  2  0
  1  4  1  0
  3  5  1  0
  2  6  1  0
  2  7  1  0
  4  8  1  0
  3  9  1  0
  9 10  3  0
  7 11  1  0
  6 12  1  0
  7 13  2  0
  6 14  2  0
 11 15  2  0
 12 16  2  0
 12 17  1  0
 11 18  1  0
  5 19  1  0
 17 20  2  0
 18 21  2  0
 15 22  1  0
 16 23  1  0
  8 24  1  0
 21 25  1  0
 20 26  1  0
 25 27  1  0
 26 28  1  0
 19 29  1  0
 24 30  1  0
 27 31  1  0
 28 32  1  0
  5  8  2  0
 29 30  1  0
 22 25  2  0
 23 26  2  0
M  END
>  <MOLFORMULA>  (775) 
C27 H26 N2 O2 S

>  <MOLWEIGHT>  (775) 
4.425804000000000e+002

>  <IDNUMBER>  (775) 
AN-153/I283858

>  <PRICE>  (775) 
EUR 130/10 mg

>  <Similarity score>  (775) 
0.17

$$$$

     RDKit          2D

 31 34  0  0  0  0  0  0  0  0999 V2000
    4.4292    0.8583    0.0000 C   0  0  0  0  0  0  0  0  0  0  0  0
    4.6417    0.5458    0.0000 C   0  0  0  0  0  0  0  0  0  0  0  0
    2.2042    0.0458    0.0000 N   0  0  0  0  0  0  0  0  0  0  0  0
    1.7875    0.1583    0.0000 C   0  0  0  0  0  0  0  0  0  0  0  0
    2.4917    0.3500    0.0000 C   0  0  0  0  0  0  0  0  0  0  0  0
    4.7500    1.1333    0.0000 S   0  0  0  0  0  0  0  0  0  0  0  0
    5.0917    0.6250    0.0000 C   0  0  0  0  0  0  0  0  0  0  0  0
    1.7917    0.5208    0.0000 N   0  0  0  0  0  0  0  0  0  0  0  0
    2.2417    0.6333    0.0000 N   0  0  0  0  0  0  0  0  0  0  0  0
    5.1625    0.9875    0.0000 C   0  0  0  0  0  0  0  0  0  0  0  0
    3.9792    0.8875    0.0000 N   0  0  0  0  0  0  0  0  0  0  0  0
    4.4375    0.1958    0.0000 C   0  0  0  0  0  0  0  0  0  0  0  0
    4.2250   -0.1417    0.0000 N   0  0  0  0  0  0  0  0  0  0  0  0
    2.9375    0.3208    0.0000 S   0  0  0  0  0  0  0  0  0  0  0  0
    3.6792    0.5875    0.0000 C   0  0  0  0  0  0  0  0  0  0  0  0
    1.3875   -0.0667    0.0000 C   0  0  0  0  0  0  0  0  0  0  0  0
    3.8417    0.2583    0.0000 O   0  0  0  0  0  0  0  0  0  0  0  0
    3.2292    0.6208    0.0000 C   0  0  0  0  0  0  0  0  0  0  0  0
    2.3167   -0.3000    0.0000 C   0  0  0  0  0  0  0  0  0  0  0  0
    0.9792    0.0833    0.0000 C   0  0  0  0  0  0  0  0  0  0  0  0
    0.1625    0.3708    0.0000 C   0  0  0  0  0  0  0  0  0  0  0  0
    5.4542    0.4125    0.0000 C   0  0  0  0  0  0  0  0  0  0  0  0
    5.5917    1.1458    0.0000 C   0  0  0  0  0  0  0  0  0  0  0  0
    0.9625    0.4458    0.0000 C   0  0  0  0  0  0  0  0  0  0  0  0
    0.6000   -0.1375    0.0000 C   0  0  0  0  0  0  0  0  0  0  0  0
    0.5542    0.5875    0.0000 C   0  0  0  0  0  0  0  0  0  0  0  0
    0.1792    0.0083    0.0000 C   0  0  0  0  0  0  0  0  0  0  0  0
   -0.2583    0.5208    0.0000 O   0  0  0  0  0  0  0  0  0  0  0  0
   -0.6458    0.2958    0.0000 C   0  0  0  0  0  0  0  0  0  0  0  0
    5.8792    0.5708    0.0000 C   0  0  0  0  0  0  0  0  0  0  0  0
    5.9542    0.9333    0.0000 C   0  0  0  0  0  0  0  0  0  0  0  0
  1  2  2  0
  3  5  1  0
  3  4  1  0
  5 14  1  0
  1  6  1  0
  2  7  1  0
  8  9  1  0
  5  9  2  0
  6 10  1  0
  1 11  1  0
  2 12  1  0
 12 13  3  0
 14 18  1  0
 11 15  1  0
  4 16  1  0
 15 17  2  0
 15 18  1  0
  3 19  1  0
 16 20  1  0
 21 27  1  0
  7 22  1  0
 10 23  1  0
 20 24  2  0
 20 25  1  0
 24 26  1  0
 25 27  2  0
 21 28  1  0
 28 29  1  0
 22 30  1  0
 23 31  1  0
  7 10  2  0
 30 31  1  0
  4  8  2  0
 21 26  2  0
M  END
>  <MOLFORMULA>  (776) 
C22 H23 N5 O2 S2

>  <MOLWEIGHT>  (776) 
4.535887000000000e+002

>  <IDNUMBER>  (776) 
AM-879/PD04763

>  <PRICE>  (776) 
EUR 55.00/10 mg

>  <Similarity score>  (776) 
0.17

$$$$

     RDKit          2D

 17 18  0  0  0  0  0  0  0  0999 V2000
    0.1375    0.9458    0.0000 C   0  0  0  0  0  0  0  0  0  0  0  0
    0.1375    0.2833    0.0000 C   0  0  0  0  0  0  0  0  0  0  0  0
   -1.0208    0.2833    0.0000 C   0  0  0  0  0  0  0  0  0  0  0  0
   -1.0208    0.9458    0.0000 C   0  0  0  0  0  0  0  0  0  0  0  0
   -0.4458   -0.0500    0.0000 S   0  0  0  0  0  0  0  0  0  0  0  0
    0.7500    1.2833    0.0000 C   0  0  0  0  0  0  0  0  0  0  0  0
   -1.6000   -0.0500    0.0000 C   0  0  0  0  0  0  0  0  0  0  0  0
    1.3542    1.6208    0.0000 N   0  0  0  0  0  0  0  0  0  0  0  0
   -1.6000    1.2708    0.0000 C   0  0  0  0  0  0  0  0  0  0  0  0
   -2.1833    0.2833    0.0000 C   0  0  0  0  0  0  0  0  0  0  0  0
   -2.7958   -0.0667    0.0000 C   0  0  0  0  0  0  0  0  0  0  0  0
    0.7500   -0.0667    0.0000 N   0  0  0  0  0  0  0  0  0  0  0  0
   -2.1833    0.9458    0.0000 C   0  0  0  0  0  0  0  0  0  0  0  0
   -3.4833   -0.3542    0.0000 C   0  0  0  0  0  0  0  0  0  0  0  0
   -3.0458    0.5208    0.0000 C   0  0  0  0  0  0  0  0  0  0  0  0
   -2.5000   -0.7375    0.0000 C   0  0  0  0  0  0  0  0  0  0  0  0
   -3.5625   -1.0542    0.0000 C   0  0  0  0  0  0  0  0  0  0  0  0
  1  2  2  0
  3  4  2  0
  1  4  1  0
  2  5  1  0
  1  6  1  0
  3  7  1  0
  6  8  3  0
  4  9  1  0
 10 13  1  0
 10 11  1  0
  2 12  1  0
  9 13  1  0
 11 14  1  0
 11 15  1  0
 11 16  1  0
 14 17  1  0
  3  5  1  0
  7 10  1  0
M  END
>  <MOLFORMULA>  (777) 
C14 H20 N2 S

>  <MOLWEIGHT>  (777) 
2.483920000000000e+002

>  <IDNUMBER>  (777) 
AT-225/JK21280

>  <PRICE>  (777) 
EUR 140/10 mg

>  <Similarity score>  (777) 
0.17

$$$$

     RDKit          2D

 30 35  0  0  0  0  0  0  0  0999 V2000
    9.1250   -2.4000    0.0000 C   0  0  0  0  0  0  0  0  0  0  0  0
    9.9500   -3.4500    0.0000 C   0  0  0  0  0  0  0  0  0  0  0  0
    7.8000   -2.4000    0.0000 C   0  0  0  0  0  0  0  0  0  0  0  0
   12.9417   -5.1750    0.0000 C   0  0  0  0  0  0  0  0  0  0  0  0
   11.6792   -4.7000    0.0000 C   0  0  0  0  0  0  0  0  0  0  0  0
   11.2792   -3.4250    0.0000 N   0  0  0  0  0  0  0  0  0  0  0  0
    7.3917   -1.1500    0.0000 N   0  0  0  0  0  0  0  0  0  0  0  0
    9.5417   -1.1500    0.0000 N   0  0  0  0  0  0  0  0  0  0  0  0
    8.4750   -0.3667    0.0000 N   0  0  0  0  0  0  0  0  0  0  0  0
   14.0167   -4.4000    0.0000 N   0  0  0  0  0  0  0  0  0  0  0  0
   13.3417   -6.4417    0.0000 C   0  0  0  0  0  0  0  0  0  0  0  0
    9.5500   -4.7250    0.0000 N   0  0  0  0  0  0  0  0  0  0  0  0
   15.0917   -5.2000    0.0000 N   0  0  0  0  0  0  0  0  0  0  0  0
   10.6250   -5.4917    0.0000 O   0  0  0  0  0  0  0  0  0  0  0  0
   14.6750   -6.4500    0.0000 C   0  0  0  0  0  0  0  0  0  0  0  0
    6.1000   -0.8417    0.0000 C   0  0  0  0  0  0  0  0  0  0  0  0
    6.9000   -3.3792    0.0000 C   0  0  0  0  0  0  0  0  0  0  0  0
    5.6042   -3.1042    0.0000 O   0  0  0  0  0  0  0  0  0  0  0  0
    5.2000   -1.8292    0.0000 C   0  0  0  0  0  0  0  0  0  0  0  0
    3.9000   -1.5417    0.0000 C   0  0  0  0  0  0  0  0  0  0  0  0
    3.4917   -0.2750    0.0000 C   0  0  0  0  0  0  0  0  0  0  0  0
    3.0000   -2.5250    0.0000 C   0  0  0  0  0  0  0  0  0  0  0  0
   12.6750   -7.5917    0.0000 C   0  0  0  0  0  0  0  0  0  0  0  0
    1.7167   -2.2500    0.0000 C   0  0  0  0  0  0  0  0  0  0  0  0
    2.1917   -0.0000    0.0000 C   0  0  0  0  0  0  0  0  0  0  0  0
    1.3167   -0.9750    0.0000 C   0  0  0  0  0  0  0  0  0  0  0  0
   15.3292   -7.6000    0.0000 C   0  0  0  0  0  0  0  0  0  0  0  0
    0.0000   -0.6750    0.0000 C   0  0  0  0  0  0  0  0  0  0  0  0
   13.3417   -8.7500    0.0000 C   0  0  0  0  0  0  0  0  0  0  0  0
   14.6750   -8.7500    0.0000 C   0  0  0  0  0  0  0  0  0  0  0  0
  1  2  1  0
  1  3  2  0
  4  5  1  0
  5  6  2  0
  2  6  1  0
  3  7  1  0
  1  8  1  0
  8  9  2  0
  4 10  2  0
  4 11  1  0
  2 12  2  0
 10 13  1  0
 12 14  1  0
 11 15  2  0
  7 16  1  0
  3 17  1  0
 17 18  1  0
 18 19  1  0
 19 20  1  0
 20 21  2  0
 20 22  1  0
 11 23  1  0
 22 24  2  0
 21 25  1  0
 24 26  1  0
 15 27  1  0
 26 28  1  0
 23 29  1  0
 29 30  1  0
  7  9  1  0
  5 14  1  0
 16 19  1  0
 13 15  1  0
 25 26  2  0
 27 30  1  0
M  END
>  <MOLFORMULA>  (778) 
C21 H21 N7 O2

>  <MOLWEIGHT>  (778) 
4.034439000000000e+002

>  <IDNUMBER>  (778) 
AT-687/PE23587

>  <PRICE>  (778) 
EUR 80/10 mg

>  <Similarity score>  (778) 
0.17

$$$$

     RDKit          2D

 20 22  0  0  0  0  0  0  0  0999 V2000
    0.0542    1.2667    0.0000 C   0  0  0  0  0  0  0  0  0  0  0  0
   -0.3542    2.1792    0.0000 C   0  0  0  0  0  0  0  0  0  0  0  0
    1.0458    1.3708    0.0000 S   0  0  0  0  0  0  0  0  0  0  0  0
    0.3875    2.8500    0.0000 C   0  0  0  0  0  0  0  0  0  0  0  0
   -0.4458    0.4000    0.0000 N   0  0  0  0  0  0  0  0  0  0  0  0
    1.2542    2.3500    0.0000 C   0  0  0  0  0  0  0  0  0  0  0  0
    0.0542   -0.4667    0.0000 C   0  0  0  0  0  0  0  0  0  0  0  0
   -1.3333    2.3875    0.0000 C   0  0  0  0  0  0  0  0  0  0  0  0
   -2.0000    1.6458    0.0000 N   0  0  0  0  0  0  0  0  0  0  0  0
   -0.4458   -1.3292    0.0000 C   0  0  0  0  0  0  0  0  0  0  0  0
    1.0542   -0.4667    0.0000 O   0  0  0  0  0  0  0  0  0  0  0  0
   -1.4500   -1.3292    0.0000 C   0  0  0  0  0  0  0  0  0  0  0  0
    0.0542   -2.1958    0.0000 C   0  0  0  0  0  0  0  0  0  0  0  0
   -1.4500   -3.0625    0.0000 C   0  0  0  0  0  0  0  0  0  0  0  0
    0.5958    3.8292    0.0000 C   0  0  0  0  0  0  0  0  0  0  0  0
    1.9958    3.0208    0.0000 C   0  0  0  0  0  0  0  0  0  0  0  0
   -1.9458   -2.1958    0.0000 C   0  0  0  0  0  0  0  0  0  0  0  0
   -0.4458   -3.0625    0.0000 C   0  0  0  0  0  0  0  0  0  0  0  0
   -1.9458   -3.9292    0.0000 F   0  0  0  0  0  0  0  0  0  0  0  0
    1.5917    3.9333    0.0000 C   0  0  0  0  0  0  0  0  0  0  0  0
  1  2  2  0
  1  3  1  0
  2  4  1  0
  1  5  1  0
  3  6  1  0
  5  7  1  0
  2  8  1  0
  8  9  3  0
  7 10  1  0
  7 11  2  0
 10 12  1  0
 10 13  2  0
 14 18  2  0
  4 15  1  0
  6 16  1  0
 12 17  2  0
 13 18  1  0
 14 19  1  0
 16 20  1  0
  4  6  2  0
 15 20  1  0
 14 17  1  0
M  END
>  <MOLFORMULA>  (779) 
C15 H11 F N2 O S

>  <MOLWEIGHT>  (779) 
2.863289000000000e+002

>  <IDNUMBER>  (779) 
AN-153/I121211

>  <PRICE>  (779) 
EUR 130/10 mg

>  <Similarity score>  (779) 
0.17

$$$$

     RDKit          2D

 35 39  0  0  0  0  0  0  0  0999 V2000
    0.0708    1.9375    0.0000 C   0  0  0  0  0  0  0  0  0  0  0  0
   -0.8792    2.2458    0.0000 C   0  0  0  0  0  0  0  0  0  0  0  0
    0.0708    3.5583    0.0000 C   0  0  0  0  0  0  0  0  0  0  0  0
   -0.8792    3.2458    0.0000 C   0  0  0  0  0  0  0  0  0  0  0  0
    0.6625    2.7500    0.0000 S   0  0  0  0  0  0  0  0  0  0  0  0
    0.9500   -3.5583    0.0000 C   0  0  0  0  0  0  0  0  0  0  0  0
    1.9292   -3.7667    0.0000 C   0  0  0  0  0  0  0  0  0  0  0  0
    0.3833    0.9875    0.0000 N   0  0  0  0  0  0  0  0  0  0  0  0
    0.2792   -4.3042    0.0000 C   0  0  0  0  0  0  0  0  0  0  0  0
    2.2375   -4.7208    0.0000 O   0  0  0  0  0  0  0  0  0  0  0  0
   -0.2875    0.2458    0.0000 C   0  0  0  0  0  0  0  0  0  0  0  0
   -1.6875    1.6583    0.0000 C   0  0  0  0  0  0  0  0  0  0  0  0
    0.2792    4.5292    0.0000 C   0  0  0  0  0  0  0  0  0  0  0  0
    0.5875   -5.2542    0.0000 C   0  0  0  0  0  0  0  0  0  0  0  0
    1.5667   -5.4625    0.0000 C   0  0  0  0  0  0  0  0  0  0  0  0
   -2.6000    2.0667    0.0000 N   0  0  0  0  0  0  0  0  0  0  0  0
   -1.6208    3.9167    0.0000 C   0  0  0  0  0  0  0  0  0  0  0  0
   -0.4625    5.2000    0.0000 C   0  0  0  0  0  0  0  0  0  0  0  0
    0.6417   -2.6083    0.0000 C   0  0  0  0  0  0  0  0  0  0  0  0
    0.0208   -0.7083    0.0000 C   0  0  0  0  0  0  0  0  0  0  0  0
   -0.2542    6.1792    0.0000 C   0  0  0  0  0  0  0  0  0  0  0  0
    2.5958   -3.0250    0.0000 O   0  0  0  0  0  0  0  0  0  0  0  0
   -1.2667    0.4542    0.0000 O   0  0  0  0  0  0  0  0  0  0  0  0
   -1.4125    4.8917    0.0000 C   0  0  0  0  0  0  0  0  0  0  0  0
    1.3083   -1.8667    0.0000 C   0  0  0  0  0  0  0  0  0  0  0  0
   -0.3375   -2.4000    0.0000 C   0  0  0  0  0  0  0  0  0  0  0  0
   -0.6458   -1.4500    0.0000 C   0  0  0  0  0  0  0  0  0  0  0  0
    1.0000   -0.9167    0.0000 C   0  0  0  0  0  0  0  0  0  0  0  0
   -0.0792   -5.9958    0.0000 C   0  0  0  0  0  0  0  0  0  0  0  0
    1.8750   -6.4125    0.0000 C   0  0  0  0  0  0  0  0  0  0  0  0
    0.7250    5.9708    0.0000 C   0  0  0  0  0  0  0  0  0  0  0  0
   -1.2333    6.3875    0.0000 C   0  0  0  0  0  0  0  0  0  0  0  0
   -0.0458    7.1542    0.0000 C   0  0  0  0  0  0  0  0  0  0  0  0
    1.2083   -7.1542    0.0000 C   0  0  0  0  0  0  0  0  0  0  0  0
    0.2292   -6.9500    0.0000 C   0  0  0  0  0  0  0  0  0  0  0  0
  1  2  2  0
  3  5  1  0
  2  4  1  0
  1  5  1  0
  6 19  1  0
  6  7  1  0
  1  8  1  0
  6  9  2  0
  7 10  1  0
  8 11  1  0
  2 12  1  0
  3 13  1  0
  9 14  1  0
 14 15  1  0
 12 16  3  0
  4 17  1  0
 13 18  1  0
 19 25  2  0
 11 20  1  0
 18 21  1  0
  7 22  2  0
 11 23  2  0
 17 24  1  0
 25 28  1  0
 26 27  2  0
 20 27  1  0
 20 28  2  0
 14 29  2  0
 15 30  2  0
 21 31  1  0
 21 32  1  0
 21 33  1  0
 34 35  2  0
 29 35  1  0
  3  4  2  0
 18 24  1  0
 19 26  1  0
 10 15  1  0
 30 34  1  0
M  END
>  <MOLFORMULA>  (780) 
C29 H26 N2 O3 S

>  <MOLWEIGHT>  (780) 
4.826014000000000e+002

>  <IDNUMBER>  (780) 
AN-153/I280242

>  <PRICE>  (780) 
EUR 130/10 mg

>  <Similarity score>  (780) 
0.17

$$$$

     RDKit          2D

 23 25  0  0  0  0  0  0  0  0999 V2000
    1.5250    1.2667    0.0000 C   0  0  0  0  0  0  0  0  0  0  0  0
    2.5208    1.3708    0.0000 C   0  0  0  0  0  0  0  0  0  0  0  0
    1.1167    2.1792    0.0000 S   0  0  0  0  0  0  0  0  0  0  0  0
    2.7292    2.3500    0.0000 C   0  0  0  0  0  0  0  0  0  0  0  0
    1.0250    0.4000    0.0000 N   0  0  0  0  0  0  0  0  0  0  0  0
    1.8625    2.8500    0.0000 C   0  0  0  0  0  0  0  0  0  0  0  0
    0.0250    0.4000    0.0000 C   0  0  0  0  0  0  0  0  0  0  0  0
    3.1875    0.6292    0.0000 C   0  0  0  0  0  0  0  0  0  0  0  0
   -0.4750   -0.4667    0.0000 C   0  0  0  0  0  0  0  0  0  0  0  0
    2.8792   -0.3208    0.0000 N   0  0  0  0  0  0  0  0  0  0  0  0
   -0.4750   -2.1958    0.0000 C   0  0  0  0  0  0  0  0  0  0  0  0
    0.0250   -1.3292    0.0000 C   0  0  0  0  0  0  0  0  0  0  0  0
   -1.4750   -2.1958    0.0000 C   0  0  0  0  0  0  0  0  0  0  0  0
   -0.4750    1.2667    0.0000 O   0  0  0  0  0  0  0  0  0  0  0  0
   -1.4750   -0.4667    0.0000 C   0  0  0  0  0  0  0  0  0  0  0  0
   -1.9750   -1.3292    0.0000 C   0  0  0  0  0  0  0  0  0  0  0  0
    0.0250   -3.0625    0.0000 Cl  0  0  0  0  0  0  0  0  0  0  0  0
    3.4708    3.0208    0.0000 C   0  0  0  0  0  0  0  0  0  0  0  0
    2.0708    3.8292    0.0000 C   0  0  0  0  0  0  0  0  0  0  0  0
   -1.9750   -3.0625    0.0000 O   0  0  0  0  0  0  0  0  0  0  0  0
    3.0625    3.9333    0.0000 C   0  0  0  0  0  0  0  0  0  0  0  0
   -2.9750   -3.0625    0.0000 C   0  0  0  0  0  0  0  0  0  0  0  0
   -3.4750   -3.9292    0.0000 C   0  0  0  0  0  0  0  0  0  0  0  0
  1  2  2  0
  1  3  1  0
  2  4  1  0
  1  5  1  0
  3  6  1  0
  5  7  1  0
  2  8  1  0
  7  9  1  0
  8 10  3  0
 11 12  1  0
  9 12  2  0
 13 16  1  0
  7 14  2  0
  9 15  1  0
 15 16  2  0
 11 17  1  0
  4 18  1  0
  6 19  1  0
 13 20  1  0
 19 21  1  0
 20 22  1  0
 22 23  1  0
  4  6  2  0
 18 21  1  0
 11 13  2  0
M  END
>  <MOLFORMULA>  (781) 
C17 H15 Cl N2 O2 S

>  <MOLWEIGHT>  (781) 
3.468365000000000e+002

>  <IDNUMBER>  (781) 
AN-153/I226310

>  <PRICE>  (781) 
EUR 130/10 mg

>  <Similarity score>  (781) 
0.17

$$$$

     RDKit          2D

 38 43  0  0  0  0  0  0  0  0999 V2000
   -0.7375   -2.6417    0.0000 C   0  0  0  0  0  0  0  0  0  0  0  0
   -0.5208    4.1375    0.0000 C   0  0  0  0  0  0  0  0  0  0  0  0
   -0.0042   -1.9583    0.0000 N   0  0  0  0  0  0  0  0  0  0  0  0
   -0.1292    5.0583    0.0000 C   0  0  0  0  0  0  0  0  0  0  0  0
   -1.4125   -4.2375    0.0000 N   0  0  0  0  0  0  0  0  0  0  0  0
   -2.3708   -3.9417    0.0000 N   0  0  0  0  0  0  0  0  0  0  0  0
   -1.6125   -2.1583    0.0000 N   0  0  0  0  0  0  0  0  0  0  0  0
   -0.4292   -1.0542    0.0000 C   0  0  0  0  0  0  0  0  0  0  0  0
   -1.5167    4.2250    0.0000 S   0  0  0  0  0  0  0  0  0  0  0  0
   -0.8833    5.7167    0.0000 C   0  0  0  0  0  0  0  0  0  0  0  0
   -1.4208   -1.1750    0.0000 N   0  0  0  0  0  0  0  0  0  0  0  0
   -0.6167   -3.6333    0.0000 C   0  0  0  0  0  0  0  0  0  0  0  0
   -2.9417   -4.7625    0.0000 N   0  0  0  0  0  0  0  0  0  0  0  0
   -1.7417    5.2000    0.0000 C   0  0  0  0  0  0  0  0  0  0  0  0
   -0.0042    3.2833    0.0000 N   0  0  0  0  0  0  0  0  0  0  0  0
   -1.3958   -5.2375    0.0000 C   0  0  0  0  0  0  0  0  0  0  0  0
    0.8458    5.2833    0.0000 C   0  0  0  0  0  0  0  0  0  0  0  0
   -2.3417   -5.5625    0.0000 C   0  0  0  0  0  0  0  0  0  0  0  0
   -0.4917    2.4125    0.0000 C   0  0  0  0  0  0  0  0  0  0  0  0
    1.5250    4.5542    0.0000 N   0  0  0  0  0  0  0  0  0  0  0  0
    0.9750   -2.1500    0.0000 C   0  0  0  0  0  0  0  0  0  0  0  0
    0.0250    1.5542    0.0000 C   0  0  0  0  0  0  0  0  0  0  0  0
    0.0542   -0.1792    0.0000 S   0  0  0  0  0  0  0  0  0  0  0  0
   -1.4917    2.3917    0.0000 O   0  0  0  0  0  0  0  0  0  0  0  0
   -0.4583    0.6792    0.0000 C   0  0  0  0  0  0  0  0  0  0  0  0
   -0.9042    6.7125    0.0000 C   0  0  0  0  0  0  0  0  0  0  0  0
   -2.6167    5.6833    0.0000 C   0  0  0  0  0  0  0  0  0  0  0  0
   -0.6417   -5.8917    0.0000 C   0  0  0  0  0  0  0  0  0  0  0  0
   -2.5333   -6.5417    0.0000 C   0  0  0  0  0  0  0  0  0  0  0  0
    1.3000   -3.0958    0.0000 C   0  0  0  0  0  0  0  0  0  0  0  0
    1.6333   -1.3958    0.0000 C   0  0  0  0  0  0  0  0  0  0  0  0
   -1.7792    7.2000    0.0000 C   0  0  0  0  0  0  0  0  0  0  0  0
   -2.6333    6.6833    0.0000 C   0  0  0  0  0  0  0  0  0  0  0  0
   -0.8333   -6.8750    0.0000 C   0  0  0  0  0  0  0  0  0  0  0  0
   -1.7792   -7.2000    0.0000 C   0  0  0  0  0  0  0  0  0  0  0  0
    2.6125   -1.5875    0.0000 C   0  0  0  0  0  0  0  0  0  0  0  0
    2.2833   -3.2875    0.0000 C   0  0  0  0  0  0  0  0  0  0  0  0
    2.9375   -2.5292    0.0000 C   0  0  0  0  0  0  0  0  0  0  0  0
  2 15  1  0
  1  3  1  0
  2  4  2  0
  5 12  1  0
  5  6  1  0
  1  7  2  0
  3  8  1  0
  2  9  1  0
  4 10  1  0
  7 11  1  0
  1 12  1  0
  6 13  2  0
  9 14  1  0
 15 19  1  0
  5 16  1  0
  4 17  1  0
 16 18  2  0
 19 22  1  0
 17 20  3  0
  3 21  1  0
 22 25  1  0
  8 23  1  0
 19 24  2  0
 23 25  1  0
 10 26  1  0
 14 27  1  0
 16 28  1  0
 18 29  1  0
 21 30  2  0
 21 31  1  0
 26 32  1  0
 27 33  1  0
 28 34  2  0
 34 35  1  0
 31 36  2  0
 30 37  1  0
 36 38  1  0
  8 11  2  0
 13 18  1  0
 37 38  2  0
 29 35  2  0
 10 14  2  0
 32 33  1  0
M  END
>  <MOLFORMULA>  (782) 
C27 H24 N8 O S2

>  <MOLWEIGHT>  (782) 
5.406736000000000e+002

>  <IDNUMBER>  (782) 
AN-153/I267370

>  <PRICE>  (782) 
EUR 130/10 mg

>  <Similarity score>  (782) 
0.17

$$$$

     RDKit          2D

 13 14  0  0  0  0  0  0  0  0999 V2000
    3.2542    2.4375    0.0000 C   0  0  0  0  0  0  0  0  0  0  0  0
    5.5792   -0.7417    0.0000 C   0  0  0  0  0  0  0  0  0  0  0  0
   -0.5083    1.2333    0.0000 C   0  0  0  0  0  0  0  0  0  0  0  0
   -0.5083   -2.7292    0.0000 C   0  0  0  0  0  0  0  0  0  0  0  0
    3.2542   -3.9500    0.0000 S   0  0  0  0  0  0  0  0  0  0  0  0
    4.4750    6.2125    0.0000 C   0  0  0  0  0  0  0  0  0  0  0  0
    8.3625    7.0292    0.0000 N   0  0  0  0  0  0  0  0  0  0  0  0
   -3.9333    3.2125    0.0000 C   0  0  0  0  0  0  0  0  0  0  0  0
   -3.9333   -4.7125    0.0000 C   0  0  0  0  0  0  0  0  0  0  0  0
    9.4042   -1.7667    0.0000 N   0  0  0  0  0  0  0  0  0  0  0  0
   -7.3542    1.2333    0.0000 C   0  0  0  0  0  0  0  0  0  0  0  0
   -7.3542   -2.7292    0.0000 C   0  0  0  0  0  0  0  0  0  0  0  0
  -10.7792   -4.7125    0.0000 C   0  0  0  0  0  0  0  0  0  0  0  0
  1  2  2  0
  1  3  1  0
  3  4  2  0
  2  5  1  0
  1  6  1  0
  6  7  3  0
  3  8  1  0
  4  9  1  0
  2 10  1  0
  8 11  1  0
 11 12  1  0
 12 13  1  0
  4  5  1  0
  9 12  1  0
M  END
>  <MOLFORMULA>  (783) 
C10 H12 N2 S

>  <MOLWEIGHT>  (783) 
1.922848000000000e+002

>  <IDNUMBER>  (783) 
AT-084/J162226

>  <PRICE>  (783) 
EUR 37.00/10 mg

>  <Similarity score>  (783) 
0.17

$$$$

     RDKit          2D

 13 14  0  0  0  0  0  0  0  0999 V2000
   -1.2333    0.0750    0.0000 C   0  0  0  0  0  0  0  0  0  0  0  0
   -1.6417    0.9917    0.0000 C   0  0  0  0  0  0  0  0  0  0  0  0
   -0.2375    0.1833    0.0000 C   0  0  0  0  0  0  0  0  0  0  0  0
   -0.0292    1.1583    0.0000 C   0  0  0  0  0  0  0  0  0  0  0  0
   -0.8958    1.6583    0.0000 S   0  0  0  0  0  0  0  0  0  0  0  0
   -1.7333   -0.7875    0.0000 C   0  0  0  0  0  0  0  0  0  0  0  0
   -1.2333   -1.6542    0.0000 N   0  0  0  0  0  0  0  0  0  0  0  0
    0.5042   -0.4875    0.0000 C   0  0  0  0  0  0  0  0  0  0  0  0
    0.9208    1.4667    0.0000 C   0  0  0  0  0  0  0  0  0  0  0  0
   -2.6167    1.2000    0.0000 N   0  0  0  0  0  0  0  0  0  0  0  0
    1.4542   -0.1792    0.0000 C   0  0  0  0  0  0  0  0  0  0  0  0
    1.6625    0.8000    0.0000 C   0  0  0  0  0  0  0  0  0  0  0  0
    2.6125    1.1083    0.0000 C   0  0  0  0  0  0  0  0  0  0  0  0
  1  2  2  0
  1  3  1  0
  3  4  2  0
  2  5  1  0
  1  6  1  0
  6  7  3  0
  3  8  1  0
  4  9  1  0
  2 10  1  0
  8 11  1  0
 11 12  1  0
 12 13  1  0
  4  5  1  0
  9 12  1  0
M  END
>  <MOLFORMULA>  (784) 
C10 H12 N2 S

>  <MOLWEIGHT>  (784) 
1.922848000000000e+002

>  <IDNUMBER>  (784) 
AN-153/I124580

>  <PRICE>  (784) 
EUR 130/10 mg

>  <Similarity score>  (784) 
0.17

$$$$

     RDKit          2D

 37 40  0  0  0  0  0  0  0  0999 V2000
   -1.1125    0.3000    0.0000 C   0  0  0  0  0  0  0  0  0  0  0  0
   -2.3333    0.8458    0.0000 C   0  0  0  0  0  0  0  0  0  0  0  0
   -1.2500   -1.0375    0.0000 S   0  0  0  0  0  0  0  0  0  0  0  0
   -3.2333   -0.1542    0.0000 C   0  0  0  0  0  0  0  0  0  0  0  0
    0.0875    0.9625    0.0000 N   0  0  0  0  0  0  0  0  0  0  0  0
   -2.5708   -1.3167    0.0000 C   0  0  0  0  0  0  0  0  0  0  0  0
    2.4042    0.9625    0.0000 C   0  0  0  0  0  0  0  0  0  0  0  0
    1.2500    0.3000    0.0000 C   0  0  0  0  0  0  0  0  0  0  0  0
    9.5917    2.9208    0.0000 C   0  0  0  0  0  0  0  0  0  0  0  0
   -2.6000    2.1500    0.0000 C   0  0  0  0  0  0  0  0  0  0  0  0
    8.4250    2.2583    0.0000 O   0  0  0  0  0  0  0  0  0  0  0  0
    7.2542    0.2375    0.0000 C   0  0  0  0  0  0  0  0  0  0  0  0
    8.4250    0.8958    0.0000 C   0  0  0  0  0  0  0  0  0  0  0  0
   -2.8708    3.4625    0.0000 N   0  0  0  0  0  0  0  0  0  0  0  0
    4.9042    0.3000    0.0000 N   0  0  0  0  0  0  0  0  0  0  0  0
   10.7542    2.2583    0.0000 C   0  0  0  0  0  0  0  0  0  0  0  0
    3.5667    0.3000    0.0000 N   0  0  0  0  0  0  0  0  0  0  0  0
    2.4042    2.2958    0.0000 O   0  0  0  0  0  0  0  0  0  0  0  0
    1.2500   -1.0292    0.0000 O   0  0  0  0  0  0  0  0  0  0  0  0
    7.2542   -1.1292    0.0000 C   0  0  0  0  0  0  0  0  0  0  0  0
    9.5917    4.2542    0.0000 O   0  0  0  0  0  0  0  0  0  0  0  0
    6.0917    0.9458    0.0000 C   0  0  0  0  0  0  0  0  0  0  0  0
    9.5917    0.2375    0.0000 C   0  0  0  0  0  0  0  0  0  0  0  0
   11.9000    2.9208    0.0000 C   0  0  0  0  0  0  0  0  0  0  0  0
   10.7542    0.8958    0.0000 C   0  0  0  0  0  0  0  0  0  0  0  0
    8.4250   -1.7875    0.0000 C   0  0  0  0  0  0  0  0  0  0  0  0
   13.0667    0.8958    0.0000 C   0  0  0  0  0  0  0  0  0  0  0  0
   -4.5958   -0.1542    0.0000 C   0  0  0  0  0  0  0  0  0  0  0  0
    9.5917   -1.1042    0.0000 C   0  0  0  0  0  0  0  0  0  0  0  0
   11.9000    0.2375    0.0000 C   0  0  0  0  0  0  0  0  0  0  0  0
   13.0667    2.2583    0.0000 C   0  0  0  0  0  0  0  0  0  0  0  0
    8.4250   -3.1292    0.0000 Br  0  0  0  0  0  0  0  0  0  0  0  0
   -3.2333   -2.4792    0.0000 C   0  0  0  0  0  0  0  0  0  0  0  0
   14.2042    0.2125    0.0000 O   0  0  0  0  0  0  0  0  0  0  0  0
   14.1917   -1.1042    0.0000 C   0  0  0  0  0  0  0  0  0  0  0  0
   -5.2500   -1.3167    0.0000 C   0  0  0  0  0  0  0  0  0  0  0  0
   -4.5958   -2.4792    0.0000 C   0  0  0  0  0  0  0  0  0  0  0  0
  1  2  2  0
  1  3  1  0
  2  4  1  0
  1  5  1  0
  3  6  1  0
  7  8  1  0
  5  8  1  0
  9 11  1  0
  2 10  1  0
 11 13  1  0
 12 22  1  0
 12 13  2  0
 10 14  3  0
 15 17  1  0
  9 16  1  0
  7 17  1  0
  7 18  2  0
  8 19  2  0
 12 20  1  0
  9 21  2  0
 15 22  2  0
 13 23  1  0
 16 24  2  0
 16 25  1  0
 20 26  2  0
 27 30  1  0
  4 28  1  0
 26 29  1  0
 25 30  2  0
 24 31  1  0
 26 32  1  0
  6 33  1  0
 27 34  1  0
 34 35  1  0
 28 36  1  0
 33 37  1  0
  4  6  2  0
 36 37  1  0
 23 29  2  0
 27 31  2  0
M  END
>  <MOLFORMULA>  (785) 
C26 H21 Br N4 O5 S

>  <MOLWEIGHT>  (785) 
5.814449000000000e+002

>  <IDNUMBER>  (785) 
AT-225/NB67650

>  <PRICE>  (785) 
EUR 140/10 mg

>  <Similarity score>  (785) 
0.17

$$$$

     RDKit          2D

 37 40  0  0  0  0  0  0  0  0999 V2000
   12.6750   -9.4417    0.0000 C   0  0  0  0  0  0  0  0  0  0  0  0
   12.8000  -10.5042    0.0000 C   0  0  0  0  0  0  0  0  0  0  0  0
    7.9750   -7.7292    0.0000 N   0  0  0  0  0  0  0  0  0  0  0  0
    8.9542   -7.2917    0.0000 C   0  0  0  0  0  0  0  0  0  0  0  0
   13.6667   -9.0000    0.0000 S   0  0  0  0  0  0  0  0  0  0  0  0
    7.2542   -6.9292    0.0000 C   0  0  0  0  0  0  0  0  0  0  0  0
   13.8500  -10.7292    0.0000 C   0  0  0  0  0  0  0  0  0  0  0  0
    8.8417   -6.2292    0.0000 N   0  0  0  0  0  0  0  0  0  0  0  0
    7.8000   -6.0000    0.0000 N   0  0  0  0  0  0  0  0  0  0  0  0
   14.3875   -9.8000    0.0000 C   0  0  0  0  0  0  0  0  0  0  0  0
   11.7417   -8.9042    0.0000 N   0  0  0  0  0  0  0  0  0  0  0  0
   12.0292  -11.2750    0.0000 C   0  0  0  0  0  0  0  0  0  0  0  0
    4.4875   -6.2667    0.0000 C   0  0  0  0  0  0  0  0  0  0  0  0
   11.2667  -12.0292    0.0000 N   0  0  0  0  0  0  0  0  0  0  0  0
    4.0500   -7.2542    0.0000 C   0  0  0  0  0  0  0  0  0  0  0  0
    9.8875   -7.8292    0.0000 S   0  0  0  0  0  0  0  0  0  0  0  0
   10.8167   -9.4417    0.0000 C   0  0  0  0  0  0  0  0  0  0  0  0
    5.5542   -6.1625    0.0000 N   0  0  0  0  0  0  0  0  0  0  0  0
    2.9792   -7.3542    0.0000 C   0  0  0  0  0  0  0  0  0  0  0  0
    2.5500   -8.3500    0.0000 C   0  0  0  0  0  0  0  0  0  0  0  0
    6.1792   -7.0292    0.0000 C   0  0  0  0  0  0  0  0  0  0  0  0
    3.1792   -9.2167    0.0000 C   0  0  0  0  0  0  0  0  0  0  0  0
    3.8542   -5.4000    0.0000 O   0  0  0  0  0  0  0  0  0  0  0  0
    4.6792   -8.1167    0.0000 C   0  0  0  0  0  0  0  0  0  0  0  0
   10.8167  -10.5250    0.0000 O   0  0  0  0  0  0  0  0  0  0  0  0
    4.2542   -9.1042    0.0000 C   0  0  0  0  0  0  0  0  0  0  0  0
    9.8875   -8.9042    0.0000 C   0  0  0  0  0  0  0  0  0  0  0  0
    7.7292   -8.7792    0.0000 C   0  0  0  0  0  0  0  0  0  0  0  0
   14.3875  -11.6542    0.0000 C   0  0  0  0  0  0  0  0  0  0  0  0
    1.4667   -8.4625    0.0000 O   0  0  0  0  0  0  0  0  0  0  0  0
   15.4542   -9.7875    0.0000 C   0  0  0  0  0  0  0  0  0  0  0  0
    2.7417  -10.1917    0.0000 O   0  0  0  0  0  0  0  0  0  0  0  0
    1.0417   -9.4417    0.0000 C   0  0  0  0  0  0  0  0  0  0  0  0
    3.3792  -11.0667    0.0000 C   0  0  0  0  0  0  0  0  0  0  0  0
    6.7167   -9.1042    0.0000 C   0  0  0  0  0  0  0  0  0  0  0  0
   15.4542  -11.6542    0.0000 C   0  0  0  0  0  0  0  0  0  0  0  0
   16.0000  -10.7167    0.0000 C   0  0  0  0  0  0  0  0  0  0  0  0
  1  2  2  0
  3  4  1  0
  4 16  1  0
  1  5  1  0
  3  6  1  0
  2  7  1  0
  4  8  2  0
  8  9  1  0
  5 10  1  0
  1 11  1  0
  2 12  1  0
 13 18  1  0
 12 14  3  0
 13 15  1  0
 16 27  1  0
 11 17  1  0
 18 21  1  0
 15 19  2  0
 19 20  1  0
  6 21  1  0
 22 26  1  0
 13 23  2  0
 15 24  1  0
 17 25  2  0
 24 26  2  0
 17 27  1  0
  3 28  1  0
  7 29  1  0
 20 30  1  0
 10 31  1  0
 22 32  1  0
 30 33  1  0
 32 34  1  0
 28 35  1  0
 29 36  1  0
 31 37  1  0
  7 10  2  0
 36 37  1  0
  6  9  2  0
 20 22  2  0
M  END
>  <MOLFORMULA>  (786) 
C25 H28 N6 O4 S2

>  <MOLWEIGHT>  (786) 
5.406662000000000e+002

>  <IDNUMBER>  (786) 
AM-879/PD04484

>  <PRICE>  (786) 
EUR 55.00/10 mg

>  <Similarity score>  (786) 
0.17

$$$$

     RDKit          2D

 33 36  0  0  0  0  0  0  0  0999 V2000
   11.3917   -1.9500    0.0000 C   0  0  0  0  0  0  0  0  0  0  0  0
   12.6250   -1.2125    0.0000 C   0  0  0  0  0  0  0  0  0  0  0  0
    3.8292   -2.7542    0.0000 N   0  0  0  0  0  0  0  0  0  0  0  0
    5.0000   -1.9125    0.0000 C   0  0  0  0  0  0  0  0  0  0  0  0
   11.6917   -3.3542    0.0000 S   0  0  0  0  0  0  0  0  0  0  0  0
    2.6250   -1.9125    0.0000 C   0  0  0  0  0  0  0  0  0  0  0  0
   13.7125   -2.1750    0.0000 C   0  0  0  0  0  0  0  0  0  0  0  0
    4.5417   -0.5042    0.0000 N   0  0  0  0  0  0  0  0  0  0  0  0
    3.0667   -0.5292    0.0000 N   0  0  0  0  0  0  0  0  0  0  0  0
   13.1292   -3.4875    0.0000 C   0  0  0  0  0  0  0  0  0  0  0  0
   10.0625   -1.3625    0.0000 N   0  0  0  0  0  0  0  0  0  0  0  0
   12.7667    0.2375    0.0000 C   0  0  0  0  0  0  0  0  0  0  0  0
   -1.2458   -1.8417    0.0000 C   0  0  0  0  0  0  0  0  0  0  0  0
   12.7542    1.6833    0.0000 N   0  0  0  0  0  0  0  0  0  0  0  0
    6.3500   -2.5042    0.0000 S   0  0  0  0  0  0  0  0  0  0  0  0
    8.9000   -2.2292    0.0000 C   0  0  0  0  0  0  0  0  0  0  0  0
    0.1500   -1.4000    0.0000 N   0  0  0  0  0  0  0  0  0  0  0  0
    1.2292   -2.3667    0.0000 C   0  0  0  0  0  0  0  0  0  0  0  0
   -2.3250   -0.8792    0.0000 C   0  0  0  0  0  0  0  0  0  0  0  0
   -1.5375   -3.2625    0.0000 O   0  0  0  0  0  0  0  0  0  0  0  0
    9.0542   -3.6875    0.0000 O   0  0  0  0  0  0  0  0  0  0  0  0
    7.5417   -1.6250    0.0000 C   0  0  0  0  0  0  0  0  0  0  0  0
   -2.0583    0.5458    0.0000 C   0  0  0  0  0  0  0  0  0  0  0  0
   -3.5958   -1.3417    0.0000 C   0  0  0  0  0  0  0  0  0  0  0  0
    3.8375   -4.2042    0.0000 C   0  0  0  0  0  0  0  0  0  0  0  0
   -4.3208    1.0708    0.0000 C   0  0  0  0  0  0  0  0  0  0  0  0
   15.1417   -2.0125    0.0000 C   0  0  0  0  0  0  0  0  0  0  0  0
   -4.5958   -0.3542    0.0000 C   0  0  0  0  0  0  0  0  0  0  0  0
   -3.0458    1.5083    0.0000 C   0  0  0  0  0  0  0  0  0  0  0  0
   13.9792   -4.6500    0.0000 C   0  0  0  0  0  0  0  0  0  0  0  0
   -5.4333    1.9958    0.0000 Cl  0  0  0  0  0  0  0  0  0  0  0  0
   16.0000   -3.1542    0.0000 C   0  0  0  0  0  0  0  0  0  0  0  0
   15.4167   -4.4917    0.0000 C   0  0  0  0  0  0  0  0  0  0  0  0
  1  2  2  0
  3  4  1  0
  4 15  1  0
  1  5  1  0
  3  6  1  0
  2  7  1  0
  4  8  2  0
  8  9  1  0
  5 10  1  0
  1 11  1  0
  2 12  1  0
 13 17  1  0
 12 14  3  0
 15 22  1  0
 11 16  1  0
 17 18  1  0
  6 18  1  0
 13 19  1  0
 13 20  2  0
 16 21  2  0
 16 22  1  0
 19 23  1  0
 19 24  2  0
  3 25  1  0
 26 28  2  0
  7 27  1  0
 24 28  1  0
 23 29  2  0
 10 30  1  0
 26 31  1  0
 27 32  1  0
 30 33  1  0
  7 10  2  0
 32 33  1  0
  6  9  2  0
 26 29  1  0
M  END
>  <MOLFORMULA>  (787) 
C22 H21 Cl N6 O2 S2

>  <MOLWEIGHT>  (787) 
5.010329000000000e+002

>  <IDNUMBER>  (787) 
AM-879/PD12858

>  <PRICE>  (787) 
EUR 55.00/10 mg

>  <Similarity score>  (787) 
0.17

$$$$

     RDKit          2D

 26 28  0  0  0  0  0  0  0  0999 V2000
    1.1667    1.2125    0.0000 C   0  0  0  0  0  0  0  0  0  0  0  0
    1.5708    0.3000    0.0000 C   0  0  0  0  0  0  0  0  0  0  0  0
    2.5667    0.4042    0.0000 C   0  0  0  0  0  0  0  0  0  0  0  0
    2.7750    1.3833    0.0000 C   0  0  0  0  0  0  0  0  0  0  0  0
    1.9083    1.8833    0.0000 S   0  0  0  0  0  0  0  0  0  0  0  0
    0.1875    1.4208    0.0000 N   0  0  0  0  0  0  0  0  0  0  0  0
   -0.4833    0.6792    0.0000 C   0  0  0  0  0  0  0  0  0  0  0  0
   -1.4583    0.8875    0.0000 N   0  0  0  0  0  0  0  0  0  0  0  0
   -2.1292    0.1417    0.0000 C   0  0  0  0  0  0  0  0  0  0  0  0
    1.0708   -0.5667    0.0000 C   0  0  0  0  0  0  0  0  0  0  0  0
    1.5708   -1.4333    0.0000 N   0  0  0  0  0  0  0  0  0  0  0  0
    3.3083   -0.2625    0.0000 C   0  0  0  0  0  0  0  0  0  0  0  0
   -3.1083    0.3500    0.0000 C   0  0  0  0  0  0  0  0  0  0  0  0
   -0.1750   -0.2708    0.0000 S   0  0  0  0  0  0  0  0  0  0  0  0
    3.7250    1.6917    0.0000 C   0  0  0  0  0  0  0  0  0  0  0  0
   -1.8208   -0.8083    0.0000 O   0  0  0  0  0  0  0  0  0  0  0  0
   -3.7750   -0.3917    0.0000 C   0  0  0  0  0  0  0  0  0  0  0  0
    4.2625    0.0458    0.0000 C   0  0  0  0  0  0  0  0  0  0  0  0
   -4.7542   -0.1833    0.0000 C   0  0  0  0  0  0  0  0  0  0  0  0
    4.4667    1.0250    0.0000 C   0  0  0  0  0  0  0  0  0  0  0  0
   -5.4250   -0.9292    0.0000 O   0  0  0  0  0  0  0  0  0  0  0  0
   -3.4167    1.3000    0.0000 C   0  0  0  0  0  0  0  0  0  0  0  0
   -4.3958    1.5083    0.0000 C   0  0  0  0  0  0  0  0  0  0  0  0
   -5.0625    0.7667    0.0000 C   0  0  0  0  0  0  0  0  0  0  0  0
   -5.1125   -1.8792    0.0000 C   0  0  0  0  0  0  0  0  0  0  0  0
    5.4208    1.3333    0.0000 C   0  0  0  0  0  0  0  0  0  0  0  0
  1  2  2  0
  2  3  1  0
  4  5  1  0
  1  5  1  0
  1  6  1  0
  6  7  1  0
  7  8  1  0
  8  9  1  0
  2 10  1  0
 10 11  3  0
  3 12  1  0
  9 13  1  0
  7 14  2  0
  4 15  1  0
  9 16  2  0
 13 17  2  0
 12 18  1  0
 17 19  1  0
 15 20  1  0
 19 21  1  0
 13 22  1  0
 22 23  2  0
 23 24  1  0
 21 25  1  0
 20 26  1  0
  3  4  2  0
 18 20  1  0
 19 24  2  0
M  END
>  <MOLFORMULA>  (788) 
C19 H19 N3 O2 S2

>  <MOLWEIGHT>  (788) 
3.855101000000000e+002

>  <IDNUMBER>  (788) 
AN-153/I202580

>  <PRICE>  (788) 
EUR 130/10 mg

>  <Similarity score>  (788) 
0.17

$$$$

     RDKit          2D

 45 49  0  0  0  0  0  0  0  0999 V2000
   -1.1125    0.3000    0.0000 C   0  0  0  0  0  0  0  0  0  0  0  0
   -2.3333    0.8458    0.0000 C   0  0  0  0  0  0  0  0  0  0  0  0
   -1.2500   -1.0375    0.0000 S   0  0  0  0  0  0  0  0  0  0  0  0
   -3.2333   -0.1542    0.0000 C   0  0  0  0  0  0  0  0  0  0  0  0
    0.0875    0.9625    0.0000 N   0  0  0  0  0  0  0  0  0  0  0  0
   -2.5708   -1.3167    0.0000 C   0  0  0  0  0  0  0  0  0  0  0  0
    2.4042    0.9625    0.0000 C   0  0  0  0  0  0  0  0  0  0  0  0
    1.2500    0.3000    0.0000 C   0  0  0  0  0  0  0  0  0  0  0  0
    9.5375    2.9708    0.0000 C   0  0  0  0  0  0  0  0  0  0  0  0
   10.7625   -3.0542    0.0000 C   0  0  0  0  0  0  0  0  0  0  0  0
    8.3667    0.9708    0.0000 C   0  0  0  0  0  0  0  0  0  0  0  0
   -2.6000    2.1500    0.0000 C   0  0  0  0  0  0  0  0  0  0  0  0
    8.3667    2.2958    0.0000 O   0  0  0  0  0  0  0  0  0  0  0  0
   -2.8708    3.4625    0.0000 N   0  0  0  0  0  0  0  0  0  0  0  0
    7.2042    0.3000    0.0000 C   0  0  0  0  0  0  0  0  0  0  0  0
    9.5542    0.2708    0.0000 C   0  0  0  0  0  0  0  0  0  0  0  0
   10.7292   -1.7167    0.0000 O   0  0  0  0  0  0  0  0  0  0  0  0
    4.9042    0.3000    0.0000 N   0  0  0  0  0  0  0  0  0  0  0  0
   10.6875    2.2958    0.0000 C   0  0  0  0  0  0  0  0  0  0  0  0
    9.6125   -3.7542    0.0000 C   0  0  0  0  0  0  0  0  0  0  0  0
    3.5667    0.3000    0.0000 N   0  0  0  0  0  0  0  0  0  0  0  0
    9.5542   -1.0542    0.0000 C   0  0  0  0  0  0  0  0  0  0  0  0
    2.4042    2.2958    0.0000 O   0  0  0  0  0  0  0  0  0  0  0  0
    1.2500   -1.0292    0.0000 O   0  0  0  0  0  0  0  0  0  0  0  0
    9.5375    4.3042    0.0000 O   0  0  0  0  0  0  0  0  0  0  0  0
   11.9542   -3.6917    0.0000 O   0  0  0  0  0  0  0  0  0  0  0  0
    6.0417    0.9833    0.0000 C   0  0  0  0  0  0  0  0  0  0  0  0
    7.2042   -1.0542    0.0000 C   0  0  0  0  0  0  0  0  0  0  0  0
    8.4292   -3.0917    0.0000 C   0  0  0  0  0  0  0  0  0  0  0  0
    9.6250   -5.0917    0.0000 C   0  0  0  0  0  0  0  0  0  0  0  0
   11.8917    2.9458    0.0000 C   0  0  0  0  0  0  0  0  0  0  0  0
   10.6875    0.9708    0.0000 C   0  0  0  0  0  0  0  0  0  0  0  0
    8.3667   -1.7417    0.0000 C   0  0  0  0  0  0  0  0  0  0  0  0
    7.2917   -5.1542    0.0000 C   0  0  0  0  0  0  0  0  0  0  0  0
   13.0167    0.8958    0.0000 C   0  0  0  0  0  0  0  0  0  0  0  0
   -4.5958   -0.1542    0.0000 C   0  0  0  0  0  0  0  0  0  0  0  0
   11.8375    0.2708    0.0000 C   0  0  0  0  0  0  0  0  0  0  0  0
    8.4625   -5.8167    0.0000 C   0  0  0  0  0  0  0  0  0  0  0  0
    7.2500   -3.8417    0.0000 C   0  0  0  0  0  0  0  0  0  0  0  0
   13.0292    2.2708    0.0000 C   0  0  0  0  0  0  0  0  0  0  0  0
   -3.2333   -2.4792    0.0000 C   0  0  0  0  0  0  0  0  0  0  0  0
    6.1292   -5.8167    0.0000 Cl  0  0  0  0  0  0  0  0  0  0  0  0
   14.1250    0.1833    0.0000 Cl  0  0  0  0  0  0  0  0  0  0  0  0
   -5.2500   -1.3167    0.0000 C   0  0  0  0  0  0  0  0  0  0  0  0
   -4.5958   -2.4792    0.0000 C   0  0  0  0  0  0  0  0  0  0  0  0
  1  2  2  0
  1  3  1  0
  2  4  1  0
  1  5  1  0
  3  6  1  0
  7  8  1  0
  5  8  1  0
  9 13  1  0
 10 17  1  0
 11 15  2  0
  2 12  1  0
 11 13  1  0
 12 14  3  0
 15 27  1  0
 11 16  1  0
 17 22  1  0
 18 21  1  0
  9 19  1  0
 10 20  1  0
  7 21  1  0
 22 33  1  0
  7 23  2  0
  8 24  2  0
  9 25  2  0
 10 26  2  0
 18 27  2  0
 15 28  1  0
 20 29  1  0
 20 30  2  0
 19 31  2  0
 19 32  1  0
 28 33  2  0
 34 38  2  0
 35 37  1  0
  4 36  1  0
 32 37  2  0
 30 38  1  0
 29 39  2  0
 31 40  1  0
  6 41  1  0
 34 42  1  0
 35 43  1  0
 36 44  1  0
 41 45  1  0
  4  6  2  0
 44 45  1  0
 16 22  2  0
 35 40  2  0
 34 39  1  0
M  END
>  <MOLFORMULA>  (789) 
C32 H22 Cl2 N4 O6 S

>  <MOLWEIGHT>  (789) 
6.615198000000000e+002

>  <IDNUMBER>  (789) 
AT-225/NB68781

>  <PRICE>  (789) 
EUR 140/10 mg

>  <Similarity score>  (789) 
0.17

$$$$

     RDKit          2D

 25 27  0  0  0  0  0  0  0  0999 V2000
   -1.6875   -0.1750    0.0000 C   0  0  0  0  0  0  0  0  0  0  0  0
   -1.8958   -1.1542    0.0000 C   0  0  0  0  0  0  0  0  0  0  0  0
   -2.5542    0.3250    0.0000 S   0  0  0  0  0  0  0  0  0  0  0  0
   -2.8917   -1.2583    0.0000 C   0  0  0  0  0  0  0  0  0  0  0  0
   -0.7750    0.2292    0.0000 N   0  0  0  0  0  0  0  0  0  0  0  0
   -3.3000   -0.3458    0.0000 C   0  0  0  0  0  0  0  0  0  0  0  0
    0.0333   -0.3583    0.0000 C   0  0  0  0  0  0  0  0  0  0  0  0
    0.9458    0.0500    0.0000 C   0  0  0  0  0  0  0  0  0  0  0  0
    2.7750    0.8625    0.0000 C   0  0  0  0  0  0  0  0  0  0  0  0
   -1.2292   -1.8958    0.0000 C   0  0  0  0  0  0  0  0  0  0  0  0
    1.9667    1.4500    0.0000 C   0  0  0  0  0  0  0  0  0  0  0  0
    2.6708   -0.1292    0.0000 C   0  0  0  0  0  0  0  0  0  0  0  0
   -1.5375   -2.8500    0.0000 N   0  0  0  0  0  0  0  0  0  0  0  0
    1.7542   -0.5375    0.0000 C   0  0  0  0  0  0  0  0  0  0  0  0
    1.0500    1.0458    0.0000 C   0  0  0  0  0  0  0  0  0  0  0  0
   -0.0708   -1.3500    0.0000 O   0  0  0  0  0  0  0  0  0  0  0  0
    3.6875    1.2708    0.0000 O   0  0  0  0  0  0  0  0  0  0  0  0
    2.0708    2.4458    0.0000 O   0  0  0  0  0  0  0  0  0  0  0  0
    3.4792   -0.7208    0.0000 O   0  0  0  0  0  0  0  0  0  0  0  0
   -3.6333   -1.9292    0.0000 C   0  0  0  0  0  0  0  0  0  0  0  0
   -4.2917   -0.4500    0.0000 C   0  0  0  0  0  0  0  0  0  0  0  0
   -4.5000   -1.4292    0.0000 C   0  0  0  0  0  0  0  0  0  0  0  0
    4.4958    0.6833    0.0000 C   0  0  0  0  0  0  0  0  0  0  0  0
    2.9833    2.8542    0.0000 C   0  0  0  0  0  0  0  0  0  0  0  0
    3.3750   -1.7125    0.0000 C   0  0  0  0  0  0  0  0  0  0  0  0
  1  2  2  0
  1  3  1  0
  2  4  1  0
  1  5  1  0
  3  6  1  0
  5  7  1  0
  7  8  1  0
  9 11  2  0
  2 10  1  0
 11 15  1  0
 12 14  2  0
 10 13  3  0
  8 14  1  0
  8 15  2  0
  7 16  2  0
  9 17  1  0
 11 18  1  0
 12 19  1  0
  4 20  1  0
  6 21  1  0
 21 22  1  0
 17 23  1  0
 18 24  1  0
 19 25  1  0
  4  6  2  0
 20 22  1  0
  9 12  1  0
M  END
>  <MOLFORMULA>  (790) 
C18 H18 N2 O4 S

>  <MOLWEIGHT>  (790) 
3.584162000000000e+002

>  <IDNUMBER>  (790) 
AN-153/I181373

>  <PRICE>  (790) 
EUR 130/10 mg

>  <Similarity score>  (790) 
0.17

$$$$

     RDKit          2D

 38 42  0  0  0  0  0  0  0  0999 V2000
    4.9750    1.6458    0.0000 C   0  0  0  0  0  0  0  0  0  0  0  0
    5.2167    1.0958    0.0000 C   0  0  0  0  0  0  0  0  0  0  0  0
    1.9875    0.7625    0.0000 N   0  0  0  0  0  0  0  0  0  0  0  0
    2.3917    1.1958    0.0000 C   0  0  0  0  0  0  0  0  0  0  0  0
    5.4250    2.0375    0.0000 S   0  0  0  0  0  0  0  0  0  0  0  0
    1.4417    1.0208    0.0000 C   0  0  0  0  0  0  0  0  0  0  0  0
    5.8167    1.1500    0.0000 C   0  0  0  0  0  0  0  0  0  0  0  0
    2.1042    1.7208    0.0000 N   0  0  0  0  0  0  0  0  0  0  0  0
    1.5167    1.6083    0.0000 N   0  0  0  0  0  0  0  0  0  0  0  0
    5.9500    1.7375    0.0000 C   0  0  0  0  0  0  0  0  0  0  0  0
    4.3917    1.7833    0.0000 N   0  0  0  0  0  0  0  0  0  0  0  0
    4.9125    0.5750    0.0000 C   0  0  0  0  0  0  0  0  0  0  0  0
   -0.1333    0.7708    0.0000 C   0  0  0  0  0  0  0  0  0  0  0  0
    4.6042    0.0583    0.0000 N   0  0  0  0  0  0  0  0  0  0  0  0
    2.9792    1.0583    0.0000 S   0  0  0  0  0  0  0  0  0  0  0  0
    3.9792    1.3500    0.0000 C   0  0  0  0  0  0  0  0  0  0  0  0
    0.3917    1.0500    0.0000 N   0  0  0  0  0  0  0  0  0  0  0  0
    2.0667    0.1625    0.0000 C   0  0  0  0  0  0  0  0  0  0  0  0
    0.9042    0.7333    0.0000 C   0  0  0  0  0  0  0  0  0  0  0  0
   -0.1458    0.1625    0.0000 C   0  0  0  0  0  0  0  0  0  0  0  0
   -0.6500    1.0708    0.0000 O   0  0  0  0  0  0  0  0  0  0  0  0
    4.1417    0.7750    0.0000 O   0  0  0  0  0  0  0  0  0  0  0  0
    3.3917    1.4875    0.0000 C   0  0  0  0  0  0  0  0  0  0  0  0
    0.3667   -0.1542    0.0000 C   0  0  0  0  0  0  0  0  0  0  0  0
   -0.6750   -0.1167    0.0000 C   0  0  0  0  0  0  0  0  0  0  0  0
   -0.1750   -1.0417    0.0000 C   0  0  0  0  0  0  0  0  0  0  0  0
    6.2625    0.7500    0.0000 C   0  0  0  0  0  0  0  0  0  0  0  0
   -0.6875   -0.7292    0.0000 C   0  0  0  0  0  0  0  0  0  0  0  0
    0.3625   -0.7542    0.0000 C   0  0  0  0  0  0  0  0  0  0  0  0
    6.5167    1.9208    0.0000 C   0  0  0  0  0  0  0  0  0  0  0  0
   -0.2000   -1.6542    0.0000 Cl  0  0  0  0  0  0  0  0  0  0  0  0
    1.5917   -0.2000    0.0000 C   0  0  0  0  0  0  0  0  0  0  0  0
    2.6250   -0.0625    0.0000 C   0  0  0  0  0  0  0  0  0  0  0  0
    6.8292    0.9333    0.0000 C   0  0  0  0  0  0  0  0  0  0  0  0
    6.9542    1.5208    0.0000 C   0  0  0  0  0  0  0  0  0  0  0  0
    2.7125   -0.6542    0.0000 C   0  0  0  0  0  0  0  0  0  0  0  0
    1.6750   -0.7917    0.0000 C   0  0  0  0  0  0  0  0  0  0  0  0
    2.2375   -1.0250    0.0000 C   0  0  0  0  0  0  0  0  0  0  0  0
  1  2  2  0
  3  4  1  0
  4 15  1  0
  1  5  1  0
  3  6  1  0
  2  7  1  0
  4  8  2  0
  8  9  1  0
  5 10  1  0
  1 11  1  0
  2 12  1  0
 13 17  1  0
 12 14  3  0
 15 23  1  0
 11 16  1  0
 17 19  1  0
  3 18  1  0
  6 19  1  0
 13 20  1  0
 13 21  2  0
 16 22  2  0
 16 23  1  0
 20 24  1  0
 20 25  2  0
 26 28  2  0
  7 27  1  0
 25 28  1  0
 24 29  2  0
 10 30  1  0
 26 31  1  0
 18 32  2  0
 18 33  1  0
 27 34  1  0
 30 35  1  0
 33 36  2  0
 32 37  1  0
 36 38  1  0
  7 10  2  0
 34 35  1  0
  6  9  2  0
 37 38  2  0
 26 29  1  0
M  END
>  <MOLFORMULA>  (791) 
C27 H23 Cl N6 O2 S2

>  <MOLWEIGHT>  (791) 
5.631037000000000e+002

>  <IDNUMBER>  (791) 
AM-879/PD04512

>  <PRICE>  (791) 
EUR 55.00/10 mg

>  <Similarity score>  (791) 
0.17

$$$$

     RDKit          2D

 30 33  0  0  0  0  0  0  0  0999 V2000
    0.0000    3.7333    0.0000 C   0  0  0  0  0  0  0  0  0  0  0  0
   -0.7708    4.3667    0.0000 C   0  0  0  0  0  0  0  0  0  0  0  0
    0.8458    4.2625    0.0000 S   0  0  0  0  0  0  0  0  0  0  0  0
   -0.4000    5.2958    0.0000 C   0  0  0  0  0  0  0  0  0  0  0  0
   -0.0625    2.7333    0.0000 N   0  0  0  0  0  0  0  0  0  0  0  0
    0.7708    2.1792    0.0000 C   0  0  0  0  0  0  0  0  0  0  0  0
    0.5958    5.2333    0.0000 C   0  0  0  0  0  0  0  0  0  0  0  0
    0.7042    1.1833    0.0000 N   0  0  0  0  0  0  0  0  0  0  0  0
    1.5375    0.6292    0.0000 C   0  0  0  0  0  0  0  0  0  0  0  0
   -1.7375    4.1167    0.0000 C   0  0  0  0  0  0  0  0  0  0  0  0
   -2.4375    4.8333    0.0000 N   0  0  0  0  0  0  0  0  0  0  0  0
    1.6667    2.6250    0.0000 S   0  0  0  0  0  0  0  0  0  0  0  0
    1.4750   -0.3708    0.0000 C   0  0  0  0  0  0  0  0  0  0  0  0
    2.4333    1.0708    0.0000 O   0  0  0  0  0  0  0  0  0  0  0  0
    0.5792   -0.8125    0.0000 C   0  0  0  0  0  0  0  0  0  0  0  0
    2.3083   -0.9250    0.0000 C   0  0  0  0  0  0  0  0  0  0  0  0
    1.2833   -3.3625    0.0000 O   0  0  0  0  0  0  0  0  0  0  0  0
    1.3458   -2.3667    0.0000 C   0  0  0  0  0  0  0  0  0  0  0  0
   -0.6500    6.2667    0.0000 C   0  0  0  0  0  0  0  0  0  0  0  0
    0.9667    6.1625    0.0000 C   0  0  0  0  0  0  0  0  0  0  0  0
    0.3875   -3.8083    0.0000 C   0  0  0  0  0  0  0  0  0  0  0  0
    2.2417   -1.9208    0.0000 C   0  0  0  0  0  0  0  0  0  0  0  0
    0.5125   -1.8125    0.0000 C   0  0  0  0  0  0  0  0  0  0  0  0
    0.3208   -4.8042    0.0000 C   0  0  0  0  0  0  0  0  0  0  0  0
    0.1958    6.8000    0.0000 C   0  0  0  0  0  0  0  0  0  0  0  0
    1.1542   -5.3583    0.0000 C   0  0  0  0  0  0  0  0  0  0  0  0
   -0.5750   -5.2500    0.0000 C   0  0  0  0  0  0  0  0  0  0  0  0
   -0.6375   -6.2458    0.0000 C   0  0  0  0  0  0  0  0  0  0  0  0
    1.0917   -6.3583    0.0000 C   0  0  0  0  0  0  0  0  0  0  0  0
    0.1958   -6.8000    0.0000 C   0  0  0  0  0  0  0  0  0  0  0  0
  1  2  2  0
  1  3  1  0
  2  4  1  0
  1  5  1  0
  5  6  1  0
  3  7  1  0
  6  8  1  0
  8  9  1  0
  2 10  1  0
 10 11  3  0
  6 12  2  0
  9 13  1  0
  9 14  2  0
 13 15  2  0
 13 16  1  0
 17 18  1  0
 18 22  1  0
  4 19  1  0
  7 20  1  0
 17 21  1  0
 16 22  2  0
 15 23  1  0
 21 24  1  0
 20 25  1  0
 24 26  1  0
 24 27  2  0
 27 28  1  0
 26 29  2  0
 28 30  2  0
  4  7  2  0
 19 25  1  0
 18 23  2  0
 29 30  1  0
M  END
>  <MOLFORMULA>  (792) 
C23 H19 N3 O2 S2

>  <MOLWEIGHT>  (792) 
4.335541000000000e+002

>  <IDNUMBER>  (792) 
AN-153/I250684

>  <PRICE>  (792) 
EUR 130/10 mg

>  <Similarity score>  (792) 
0.17

$$$$

     RDKit          2D

 36 39  0  0  0  0  0  0  0  0999 V2000
    4.5167    4.4042    0.0000 C   0  0  0  0  0  0  0  0  0  0  0  0
    3.6750    5.5167    0.0000 C   0  0  0  0  0  0  0  0  0  0  0  0
    3.6750    3.2958    0.0000 S   0  0  0  0  0  0  0  0  0  0  0  0
    2.3750    5.1042    0.0000 C   0  0  0  0  0  0  0  0  0  0  0  0
    5.9125    4.4042    0.0000 N   0  0  0  0  0  0  0  0  0  0  0  0
    2.3750    3.7083    0.0000 C   0  0  0  0  0  0  0  0  0  0  0  0
    8.0042    3.1958    0.0000 C   0  0  0  0  0  0  0  0  0  0  0  0
    6.6125    3.1958    0.0000 C   0  0  0  0  0  0  0  0  0  0  0  0
   17.8792    2.8458    0.0000 C   0  0  0  0  0  0  0  0  0  0  0  0
    4.1417    6.8667    0.0000 C   0  0  0  0  0  0  0  0  0  0  0  0
    4.5167    8.2167    0.0000 N   0  0  0  0  0  0  0  0  0  0  0  0
   16.6417    2.1458    0.0000 O   0  0  0  0  0  0  0  0  0  0  0  0
   10.6667    4.2667    0.0000 N   0  0  0  0  0  0  0  0  0  0  0  0
   19.1042    2.1458    0.0000 C   0  0  0  0  0  0  0  0  0  0  0  0
    9.2667    4.2667    0.0000 N   0  0  0  0  0  0  0  0  0  0  0  0
    8.7042    1.9875    0.0000 O   0  0  0  0  0  0  0  0  0  0  0  0
    5.9125    1.9875    0.0000 O   0  0  0  0  0  0  0  0  0  0  0  0
   17.8792    4.2667    0.0000 O   0  0  0  0  0  0  0  0  0  0  0  0
   19.1042    0.7125    0.0000 C   0  0  0  0  0  0  0  0  0  0  0  0
   20.3417    2.8458    0.0000 C   0  0  0  0  0  0  0  0  0  0  0  0
   11.7625    4.9292    0.0000 C   0  0  0  0  0  0  0  0  0  0  0  0
   15.4125    2.8458    0.0000 C   0  0  0  0  0  0  0  0  0  0  0  0
   12.9917    4.2667    0.0000 C   0  0  0  0  0  0  0  0  0  0  0  0
   21.5750    0.7125    0.0000 C   0  0  0  0  0  0  0  0  0  0  0  0
    1.1625    5.7917    0.0000 C   0  0  0  0  0  0  0  0  0  0  0  0
   21.5750    2.1458    0.0000 C   0  0  0  0  0  0  0  0  0  0  0  0
   20.3417   -0.0000    0.0000 C   0  0  0  0  0  0  0  0  0  0  0  0
    1.1625    3.0208    0.0000 C   0  0  0  0  0  0  0  0  0  0  0  0
   15.4125    4.2667    0.0000 C   0  0  0  0  0  0  0  0  0  0  0  0
   14.2250    2.1458    0.0000 C   0  0  0  0  0  0  0  0  0  0  0  0
   14.2250    4.9292    0.0000 C   0  0  0  0  0  0  0  0  0  0  0  0
   12.9917    2.8458    0.0000 C   0  0  0  0  0  0  0  0  0  0  0  0
   22.7625   -0.0000    0.0000 O   0  0  0  0  0  0  0  0  0  0  0  0
   23.9917    0.7125    0.0000 C   0  0  0  0  0  0  0  0  0  0  0  0
    0.0000    5.1042    0.0000 C   0  0  0  0  0  0  0  0  0  0  0  0
    0.0000    3.7083    0.0000 C   0  0  0  0  0  0  0  0  0  0  0  0
  1  2  2  0
  1  3  1  0
  2  4  1  0
  1  5  1  0
  3  6  1  0
  7  8  1  0
  5  8  1  0
  9 12  1  0
  2 10  1  0
 10 11  3  0
 12 22  1  0
 13 15  1  0
  9 14  1  0
  7 15  1  0
  7 16  2  0
  8 17  2  0
  9 18  2  0
 14 19  2  0
 14 20  1  0
 13 21  2  0
 22 30  2  0
 21 23  1  0
 24 26  1  0
  4 25  1  0
 20 26  2  0
 19 27  1  0
  6 28  1  0
 29 31  2  0
 30 32  1  0
 23 31  1  0
 23 32  2  0
 24 33  1  0
 33 34  1  0
 25 35  1  0
 28 36  1  0
  4  6  2  0
 35 36  1  0
 22 29  1  0
 24 27  2  0
M  END
>  <MOLFORMULA>  (793) 
C26 H22 N4 O5 S

>  <MOLWEIGHT>  (793) 
5.025488000000000e+002

>  <IDNUMBER>  (793) 
AT-225/NB79430

>  <PRICE>  (793) 
EUR 140/10 mg

>  <Similarity score>  (793) 
0.17

$$$$

     RDKit          2D

 36 39  0  0  0  0  0  0  0  0999 V2000
    4.4917    3.6458    0.0000 C   0  0  0  0  0  0  0  0  0  0  0  0
    3.6625    4.7500    0.0000 C   0  0  0  0  0  0  0  0  0  0  0  0
    3.6625    2.5333    0.0000 S   0  0  0  0  0  0  0  0  0  0  0  0
    2.3625    4.3292    0.0000 C   0  0  0  0  0  0  0  0  0  0  0  0
    5.8875    3.6458    0.0000 N   0  0  0  0  0  0  0  0  0  0  0  0
    2.3625    2.9458    0.0000 C   0  0  0  0  0  0  0  0  0  0  0  0
    7.9750    2.4333    0.0000 C   0  0  0  0  0  0  0  0  0  0  0  0
    6.5792    2.4333    0.0000 C   0  0  0  0  0  0  0  0  0  0  0  0
   15.4792    6.3000    0.0000 C   0  0  0  0  0  0  0  0  0  0  0  0
    4.1250    6.0917    0.0000 C   0  0  0  0  0  0  0  0  0  0  0  0
   14.2667    5.5917    0.0000 O   0  0  0  0  0  0  0  0  0  0  0  0
   13.0542    3.5083    0.0000 C   0  0  0  0  0  0  0  0  0  0  0  0
   14.2667    4.2000    0.0000 C   0  0  0  0  0  0  0  0  0  0  0  0
    4.4917    7.4417    0.0000 N   0  0  0  0  0  0  0  0  0  0  0  0
   10.6292    3.5083    0.0000 N   0  0  0  0  0  0  0  0  0  0  0  0
   16.6917    5.5917    0.0000 C   0  0  0  0  0  0  0  0  0  0  0  0
    9.2292    3.5083    0.0000 N   0  0  0  0  0  0  0  0  0  0  0  0
    8.6667    1.2333    0.0000 O   0  0  0  0  0  0  0  0  0  0  0  0
    5.8875    1.2333    0.0000 O   0  0  0  0  0  0  0  0  0  0  0  0
   13.0542    2.1000    0.0000 C   0  0  0  0  0  0  0  0  0  0  0  0
   15.4792    7.7000    0.0000 O   0  0  0  0  0  0  0  0  0  0  0  0
   11.8417    4.2000    0.0000 C   0  0  0  0  0  0  0  0  0  0  0  0
   15.4792    3.5083    0.0000 C   0  0  0  0  0  0  0  0  0  0  0  0
   16.6917    4.2000    0.0000 C   0  0  0  0  0  0  0  0  0  0  0  0
   17.9042    6.3000    0.0000 C   0  0  0  0  0  0  0  0  0  0  0  0
   14.2667    1.4000    0.0000 C   0  0  0  0  0  0  0  0  0  0  0  0
    1.1542    5.0292    0.0000 C   0  0  0  0  0  0  0  0  0  0  0  0
   15.4792    2.1000    0.0000 C   0  0  0  0  0  0  0  0  0  0  0  0
   19.1250    5.5917    0.0000 C   0  0  0  0  0  0  0  0  0  0  0  0
   17.9042    3.5083    0.0000 C   0  0  0  0  0  0  0  0  0  0  0  0
   19.1250    4.2000    0.0000 C   0  0  0  0  0  0  0  0  0  0  0  0
   14.2667   -0.0000    0.0000 Br  0  0  0  0  0  0  0  0  0  0  0  0
    1.1542    2.2500    0.0000 C   0  0  0  0  0  0  0  0  0  0  0  0
   20.3375    3.5083    0.0000 C   0  0  0  0  0  0  0  0  0  0  0  0
    0.0000    4.3292    0.0000 C   0  0  0  0  0  0  0  0  0  0  0  0
    0.0000    2.9458    0.0000 C   0  0  0  0  0  0  0  0  0  0  0  0
  1  2  2  0
  1  3  1  0
  2  4  1  0
  1  5  1  0
  3  6  1  0
  7  8  1  0
  5  8  1  0
  9 11  1  0
  2 10  1  0
 11 13  1  0
 12 22  1  0
 12 13  1  0
 10 14  3  0
 15 17  1  0
  9 16  1  0
  7 17  1  0
  7 18  2  0
  8 19  2  0
 12 20  2  0
  9 21  2  0
 15 22  2  0
 13 23  2  0
 16 24  2  0
 16 25  1  0
 20 26  1  0
  4 27  1  0
 26 28  2  0
 25 29  2  0
 24 30  1  0
 29 31  1  0
 26 32  1  0
  6 33  1  0
 31 34  1  0
 27 35  1  0
 33 36  1  0
  4  6  2  0
 35 36  1  0
 23 28  1  0
 30 31  2  0
M  END
>  <MOLFORMULA>  (794) 
C26 H21 Br N4 O4 S

>  <MOLWEIGHT>  (794) 
5.654459000000001e+002

>  <IDNUMBER>  (794) 
AT-225/NB78968

>  <PRICE>  (794) 
EUR 140/10 mg

>  <Similarity score>  (794) 
0.17

$$$$

     RDKit          2D

 41 44  0  0  0  0  0  0  0  0999 V2000
    4.4917    4.3750    0.0000 C   0  0  0  0  0  0  0  0  0  0  0  0
    3.6625    5.4792    0.0000 C   0  0  0  0  0  0  0  0  0  0  0  0
    3.6625    3.2708    0.0000 S   0  0  0  0  0  0  0  0  0  0  0  0
    2.3625    5.0667    0.0000 C   0  0  0  0  0  0  0  0  0  0  0  0
    5.8875    4.3750    0.0000 N   0  0  0  0  0  0  0  0  0  0  0  0
    2.3625    3.6833    0.0000 C   0  0  0  0  0  0  0  0  0  0  0  0
    7.9750    3.1750    0.0000 C   0  0  0  0  0  0  0  0  0  0  0  0
    6.5792    3.1750    0.0000 C   0  0  0  0  0  0  0  0  0  0  0  0
   17.7792    2.8333    0.0000 C   0  0  0  0  0  0  0  0  0  0  0  0
    4.1250    6.8292    0.0000 C   0  0  0  0  0  0  0  0  0  0  0  0
   16.5542    2.1208    0.0000 O   0  0  0  0  0  0  0  0  0  0  0  0
    4.4917    8.1792    0.0000 N   0  0  0  0  0  0  0  0  0  0  0  0
   15.3375    2.8333    0.0000 C   0  0  0  0  0  0  0  0  0  0  0  0
   15.3375    4.2292    0.0000 C   0  0  0  0  0  0  0  0  0  0  0  0
   10.6250    4.2292    0.0000 N   0  0  0  0  0  0  0  0  0  0  0  0
   19.0042    2.1208    0.0000 C   0  0  0  0  0  0  0  0  0  0  0  0
    9.2250    4.2292    0.0000 N   0  0  0  0  0  0  0  0  0  0  0  0
    8.6667    1.9708    0.0000 O   0  0  0  0  0  0  0  0  0  0  0  0
    5.8875    1.9708    0.0000 O   0  0  0  0  0  0  0  0  0  0  0  0
   17.7792    4.2292    0.0000 O   0  0  0  0  0  0  0  0  0  0  0  0
   14.1542    4.8917    0.0000 C   0  0  0  0  0  0  0  0  0  0  0  0
   14.1542    2.1208    0.0000 C   0  0  0  0  0  0  0  0  0  0  0  0
   19.0042    0.7083    0.0000 C   0  0  0  0  0  0  0  0  0  0  0  0
   20.2292    2.8333    0.0000 C   0  0  0  0  0  0  0  0  0  0  0  0
   11.7042    4.8917    0.0000 C   0  0  0  0  0  0  0  0  0  0  0  0
   12.9292    4.2292    0.0000 C   0  0  0  0  0  0  0  0  0  0  0  0
   21.4542    0.7083    0.0000 C   0  0  0  0  0  0  0  0  0  0  0  0
    1.1542    5.7667    0.0000 C   0  0  0  0  0  0  0  0  0  0  0  0
   12.9292    2.8333    0.0000 C   0  0  0  0  0  0  0  0  0  0  0  0
   16.5542    4.9417    0.0000 O   0  0  0  0  0  0  0  0  0  0  0  0
   20.2292   -0.0000    0.0000 C   0  0  0  0  0  0  0  0  0  0  0  0
   21.4542    2.1208    0.0000 C   0  0  0  0  0  0  0  0  0  0  0  0
    1.1542    2.9875    0.0000 C   0  0  0  0  0  0  0  0  0  0  0  0
   22.6375   -0.0000    0.0000 O   0  0  0  0  0  0  0  0  0  0  0  0
   23.8542    0.7083    0.0000 C   0  0  0  0  0  0  0  0  0  0  0  0
   16.5542    6.3542    0.0000 C   0  0  0  0  0  0  0  0  0  0  0  0
   25.0792   -0.0000    0.0000 C   0  0  0  0  0  0  0  0  0  0  0  0
   26.3042    0.7083    0.0000 C   0  0  0  0  0  0  0  0  0  0  0  0
    0.0000    5.0667    0.0000 C   0  0  0  0  0  0  0  0  0  0  0  0
    0.0000    3.6833    0.0000 C   0  0  0  0  0  0  0  0  0  0  0  0
   27.5292   -0.0000    0.0000 C   0  0  0  0  0  0  0  0  0  0  0  0
  1  2  2  0
  1  3  1  0
  2  4  1  0
  1  5  1  0
  3  6  1  0
  7  8  1  0
  5  8  1  0
  9 11  1  0
  2 10  1  0
 11 13  1  0
 10 12  3  0
 13 22  2  0
 14 21  2  0
 15 17  1  0
  9 16  1  0
  7 17  1  0
  7 18  2  0
  8 19  2  0
  9 20  2  0
 21 26  1  0
 22 29  1  0
 16 23  2  0
 16 24  1  0
 15 25  2  0
 25 26  1  0
 27 32  1  0
  4 28  1  0
 26 29  2  0
 14 30  1  0
 23 31  1  0
 24 32  2  0
  6 33  1  0
 27 34  1  0
 34 35  1  0
 30 36  1  0
 35 37  1  0
 37 38  1  0
 28 39  1  0
 33 40  1  0
 38 41  1  0
  4  6  2  0
 39 40  1  0
 13 14  1  0
 27 31  2  0
M  END
>  <MOLFORMULA>  (795) 
C30 H30 N4 O6 S

>  <MOLWEIGHT>  (795) 
5.746550000000000e+002

>  <IDNUMBER>  (795) 
AT-225/NB79428

>  <PRICE>  (795) 
EUR 140/10 mg

>  <Similarity score>  (795) 
0.17

$$$$

     RDKit          2D

 19 21  0  0  0  0  0  0  0  0999 V2000
    1.4292    0.2000    0.0000 C   0  0  0  0  0  0  0  0  0  0  0  0
    1.4292   -0.5500    0.0000 C   0  0  0  0  0  0  0  0  0  0  0  0
    0.1167   -0.5500    0.0000 C   0  0  0  0  0  0  0  0  0  0  0  0
    0.1167    0.2083    0.0000 C   0  0  0  0  0  0  0  0  0  0  0  0
    0.7750   -0.9250    0.0000 S   0  0  0  0  0  0  0  0  0  0  0  0
    2.0667    0.5833    0.0000 C   0  0  0  0  0  0  0  0  0  0  0  0
   -1.1833   -0.5500    0.0000 N   0  0  0  0  0  0  0  0  0  0  0  0
    2.7292    0.2208    0.0000 N   0  0  0  0  0  0  0  0  0  0  0  0
   -0.5333   -0.9250    0.0000 C   0  0  0  0  0  0  0  0  0  0  0  0
   -0.5333    0.5833    0.0000 C   0  0  0  0  0  0  0  0  0  0  0  0
    2.0792   -0.9250    0.0000 N   0  0  0  0  0  0  0  0  0  0  0  0
   -1.1833    0.2083    0.0000 C   0  0  0  0  0  0  0  0  0  0  0  0
   -1.8333   -0.9250    0.0000 C   0  0  0  0  0  0  0  0  0  0  0  0
   -2.4833   -0.5500    0.0000 C   0  0  0  0  0  0  0  0  0  0  0  0
   -3.1333   -0.9250    0.0000 C   0  0  0  0  0  0  0  0  0  0  0  0
   -2.4833    0.2000    0.0000 C   0  0  0  0  0  0  0  0  0  0  0  0
   -3.1333    0.5750    0.0000 C   0  0  0  0  0  0  0  0  0  0  0  0
   -3.7833   -0.5500    0.0000 C   0  0  0  0  0  0  0  0  0  0  0  0
   -3.7833    0.2000    0.0000 C   0  0  0  0  0  0  0  0  0  0  0  0
  1  2  2  0
  3  4  2  0
  1  4  1  0
  2  5  1  0
  1  6  1  0
  7 12  1  0
  6  8  3  0
  3  9  1  0
  4 10  1  0
  2 11  1  0
 10 12  1  0
  7 13  1  0
 13 14  1  0
 14 15  2  0
 14 16  1  0
 16 17  2  0
 15 18  1  0
 17 19  1  0
  3  5  1  0
  7  9  1  0
 18 19  2  0
M  END
>  <MOLFORMULA>  (796) 
C15 H15 N3 S

>  <MOLWEIGHT>  (796) 
2.693705000000000e+002

>  <IDNUMBER>  (796) 
AT-225/JK18545

>  <PRICE>  (796) 
EUR 140/10 mg

>  <Similarity score>  (796) 
0.17

$$$$

     RDKit          2D

 25 27  0  0  0  0  0  0  0  0999 V2000
    0.1625   -1.2167    0.0000 C   0  0  0  0  0  0  0  0  0  0  0  0
    0.5667   -2.1333    0.0000 C   0  0  0  0  0  0  0  0  0  0  0  0
    1.5625   -2.0250    0.0000 C   0  0  0  0  0  0  0  0  0  0  0  0
    1.7708   -1.0500    0.0000 C   0  0  0  0  0  0  0  0  0  0  0  0
    0.9042   -0.5500    0.0000 S   0  0  0  0  0  0  0  0  0  0  0  0
   -0.8167   -1.0083    0.0000 N   0  0  0  0  0  0  0  0  0  0  0  0
   -1.1250   -0.0583    0.0000 C   0  0  0  0  0  0  0  0  0  0  0  0
    0.0667   -2.9958    0.0000 C   0  0  0  0  0  0  0  0  0  0  0  0
   -2.1042    0.1500    0.0000 C   0  0  0  0  0  0  0  0  0  0  0  0
   -0.9333   -2.9958    0.0000 N   0  0  0  0  0  0  0  0  0  0  0  0
    2.3042   -2.6958    0.0000 C   0  0  0  0  0  0  0  0  0  0  0  0
    2.7208   -0.7417    0.0000 C   0  0  0  0  0  0  0  0  0  0  0  0
   -2.4125    1.1000    0.0000 C   0  0  0  0  0  0  0  0  0  0  0  0
   -2.7708   -0.5958    0.0000 C   0  0  0  0  0  0  0  0  0  0  0  0
   -0.4583    0.6833    0.0000 O   0  0  0  0  0  0  0  0  0  0  0  0
   -4.0583    0.5625    0.0000 C   0  0  0  0  0  0  0  0  0  0  0  0
   -3.3917    1.3083    0.0000 C   0  0  0  0  0  0  0  0  0  0  0  0
   -3.7500   -0.3875    0.0000 C   0  0  0  0  0  0  0  0  0  0  0  0
    3.2583   -2.3875    0.0000 C   0  0  0  0  0  0  0  0  0  0  0  0
    3.4667   -1.4083    0.0000 C   0  0  0  0  0  0  0  0  0  0  0  0
   -4.4208   -1.1292    0.0000 O   0  0  0  0  0  0  0  0  0  0  0  0
   -3.7000    2.2583    0.0000 O   0  0  0  0  0  0  0  0  0  0  0  0
   -3.0292    3.0000    0.0000 C   0  0  0  0  0  0  0  0  0  0  0  0
   -4.1125   -2.0792    0.0000 C   0  0  0  0  0  0  0  0  0  0  0  0
    4.4167   -1.1000    0.0000 C   0  0  0  0  0  0  0  0  0  0  0  0
  1  2  2  0
  2  3  1  0
  4  5  1  0
  1  5  1  0
  1  6  1  0
  6  7  1  0
  2  8  1  0
  7  9  1  0
  8 10  3  0
  3 11  1  0
  4 12  1  0
  9 13  2  0
  9 14  1  0
  7 15  2  0
 16 18  1  0
 13 17  1  0
 14 18  2  0
 11 19  1  0
 12 20  1  0
 18 21  1  0
 17 22  1  0
 22 23  1  0
 21 24  1  0
 20 25  1  0
  3  4  2  0
 19 20  1  0
 16 17  2  0
M  END
>  <MOLFORMULA>  (797) 
C19 H20 N2 O3 S

>  <MOLWEIGHT>  (797) 
3.564440000000000e+002

>  <IDNUMBER>  (797) 
AN-153/I178491

>  <PRICE>  (797) 
EUR 130/10 mg

>  <Similarity score>  (797) 
0.17

$$$$

     RDKit          2D

 19 21  0  0  0  0  0  0  0  0999 V2000
    2.1583    0.9500    0.0000 C   0  0  0  0  0  0  0  0  0  0  0  0
    2.4458   -0.0083    0.0000 C   0  0  0  0  0  0  0  0  0  0  0  0
    0.8542   -0.0083    0.0000 C   0  0  0  0  0  0  0  0  0  0  0  0
    1.1625    0.9208    0.0000 C   0  0  0  0  0  0  0  0  0  0  0  0
    1.6792   -0.6000    0.0000 S   0  0  0  0  0  0  0  0  0  0  0  0
    2.7583    1.7583    0.0000 C   0  0  0  0  0  0  0  0  0  0  0  0
   -0.7792    0.4833    0.0000 N   0  0  0  0  0  0  0  0  0  0  0  0
    3.3583    2.5625    0.0000 N   0  0  0  0  0  0  0  0  0  0  0  0
   -0.1167   -0.2250    0.0000 C   0  0  0  0  0  0  0  0  0  0  0  0
    0.4792    1.6625    0.0000 C   0  0  0  0  0  0  0  0  0  0  0  0
    3.4208   -0.3542    0.0000 N   0  0  0  0  0  0  0  0  0  0  0  0
   -0.4833    1.4417    0.0000 C   0  0  0  0  0  0  0  0  0  0  0  0
   -1.7917    0.2958    0.0000 C   0  0  0  0  0  0  0  0  0  0  0  0
   -2.1208   -0.6583    0.0000 C   0  0  0  0  0  0  0  0  0  0  0  0
   -1.4583   -1.4125    0.0000 C   0  0  0  0  0  0  0  0  0  0  0  0
   -3.0917   -0.8500    0.0000 C   0  0  0  0  0  0  0  0  0  0  0  0
   -3.4250   -1.8125    0.0000 C   0  0  0  0  0  0  0  0  0  0  0  0
   -1.7917   -2.3417    0.0000 C   0  0  0  0  0  0  0  0  0  0  0  0
   -2.7625   -2.5583    0.0000 C   0  0  0  0  0  0  0  0  0  0  0  0
  1  2  2  0
  3  4  2  0
  1  4  1  0
  2  5  1  0
  1  6  1  0
  7 12  1  0
  6  8  3  0
  3  9  1  0
  4 10  1  0
  2 11  1  0
 10 12  1  0
  7 13  1  0
 13 14  1  0
 14 15  1  0
 14 16  2  0
 16 17  1  0
 15 18  2  0
 18 19  1  0
  3  5  1  0
  7  9  1  0
 17 19  2  0
M  END
>  <MOLFORMULA>  (798) 
C15 H15 N3 S

>  <MOLWEIGHT>  (798) 
2.693705000000000e+002

>  <IDNUMBER>  (798) 
AN-153/NB12164

>  <PRICE>  (798) 
EUR 130/10 mg

>  <Similarity score>  (798) 
0.17

$$$$

     RDKit          2D

 28 31  0  0  0  0  0  0  0  0999 V2000
    2.1542    0.9250    0.0000 C   0  0  0  0  0  0  0  0  0  0  0  0
    2.5875    0.3208    0.0000 C   0  0  0  0  0  0  0  0  0  0  0  0
    3.9792   -2.4917    0.0000 S   0  0  0  0  0  0  0  0  0  0  0  0
    2.1542   -0.2875    0.0000 S   0  0  0  0  0  0  0  0  0  0  0  0
    1.4375    0.6958    0.0000 C   0  0  0  0  0  0  0  0  0  0  0  0
    1.4375   -0.0542    0.0000 C   0  0  0  0  0  0  0  0  0  0  0  0
    4.9042    0.3583    0.0000 N   0  0  0  0  0  0  0  0  0  0  0  0
    3.3375    0.3208    0.0000 N   0  0  0  0  0  0  0  0  0  0  0  0
    4.4625    0.9708    0.0000 C   0  0  0  0  0  0  0  0  0  0  0  0
    2.3792    1.6333    0.0000 C   0  0  0  0  0  0  0  0  0  0  0  0
    2.6125    2.3458    0.0000 N   0  0  0  0  0  0  0  0  0  0  0  0
    4.2042   -1.7792    0.0000 C   0  0  0  0  0  0  0  0  0  0  0  0
    3.7125    0.9708    0.0000 C   0  0  0  0  0  0  0  0  0  0  0  0
    4.6750   -0.3542    0.0000 C   0  0  0  0  0  0  0  0  0  0  0  0
    4.7042   -2.7042    0.0000 O   0  0  0  0  0  0  0  0  0  0  0  0
    3.2417   -2.2542    0.0000 O   0  0  0  0  0  0  0  0  0  0  0  0
    5.6167    0.5958    0.0000 C   0  0  0  0  0  0  0  0  0  0  0  0
    5.6167    1.3458    0.0000 C   0  0  0  0  0  0  0  0  0  0  0  0
    4.9042    1.5750    0.0000 C   0  0  0  0  0  0  0  0  0  0  0  0
    3.7625   -3.1792    0.0000 N   0  0  0  0  0  0  0  0  0  0  0  0
    3.7042   -1.2250    0.0000 C   0  0  0  0  0  0  0  0  0  0  0  0
    4.9417   -1.6250    0.0000 C   0  0  0  0  0  0  0  0  0  0  0  0
    3.9375   -0.5042    0.0000 C   0  0  0  0  0  0  0  0  0  0  0  0
    5.1750   -0.9125    0.0000 C   0  0  0  0  0  0  0  0  0  0  0  0
    0.7875    1.0708    0.0000 C   0  0  0  0  0  0  0  0  0  0  0  0
    0.7875   -0.4292    0.0000 C   0  0  0  0  0  0  0  0  0  0  0  0
    0.1417    0.6958    0.0000 C   0  0  0  0  0  0  0  0  0  0  0  0
    0.1417   -0.0542    0.0000 C   0  0  0  0  0  0  0  0  0  0  0  0
  1  2  2  0
  3 12  1  0
  2  4  1  0
  1  5  1  0
  5  6  2  0
  7  9  1  0
  2  8  1  0
  9 13  1  0
  1 10  1  0
 10 11  3  0
 12 22  2  0
  8 13  2  0
  7 14  1  0
  3 15  2  0
  3 16  2  0
  7 17  1  0
 18 19  1  0
  9 19  2  0
  3 20  1  0
 21 23  2  0
 22 24  1  0
 14 23  1  0
 14 24  2  0
  5 25  1  0
  6 26  1  0
 25 27  1  0
 27 28  1  0
  4  6  1  0
 26 28  1  0
 17 18  2  0
 12 21  1  0
M  END
>  <MOLFORMULA>  (799) 
C20 H18 N4 O2 S2

>  <MOLWEIGHT>  (799) 
4.105202000000000e+002

>  <IDNUMBER>  (799) 
AM-879/PD00345

>  <PRICE>  (799) 
EUR 55.00/10 mg

>  <Similarity score>  (799) 
0.17

$$$$

     RDKit          2D

 14 15  0  0  0  0  0  0  0  0999 V2000
    0.1375    0.9458    0.0000 C   0  0  0  0  0  0  0  0  0  0  0  0
    0.1375    0.2833    0.0000 C   0  0  0  0  0  0  0  0  0  0  0  0
   -1.0208    0.9458    0.0000 C   0  0  0  0  0  0  0  0  0  0  0  0
   -1.0208    0.2833    0.0000 C   0  0  0  0  0  0  0  0  0  0  0  0
   -0.4458   -0.0500    0.0000 S   0  0  0  0  0  0  0  0  0  0  0  0
    0.7500    1.2833    0.0000 C   0  0  0  0  0  0  0  0  0  0  0  0
    1.3542    1.6208    0.0000 N   0  0  0  0  0  0  0  0  0  0  0  0
   -1.6000    1.2708    0.0000 C   0  0  0  0  0  0  0  0  0  0  0  0
   -1.6000   -0.0500    0.0000 C   0  0  0  0  0  0  0  0  0  0  0  0
    0.7500   -0.0667    0.0000 N   0  0  0  0  0  0  0  0  0  0  0  0
   -2.1833    0.9458    0.0000 C   0  0  0  0  0  0  0  0  0  0  0  0
   -2.1833    0.2833    0.0000 C   0  0  0  0  0  0  0  0  0  0  0  0
   -2.7958   -0.0667    0.0000 C   0  0  0  0  0  0  0  0  0  0  0  0
   -3.4000    0.2833    0.0000 C   0  0  0  0  0  0  0  0  0  0  0  0
  1  2  2  0
  1  3  1  0
  3  4  2  0
  2  5  1  0
  1  6  1  0
  6  7  3  0
  3  8  1  0
  4  9  1  0
  2 10  1  0
  8 11  1  0
 11 12  1  0
 12 13  1  0
 13 14  1  0
  4  5  1  0
  9 12  1  0
M  END
>  <MOLFORMULA>  (800) 
C11 H14 N2 S

>  <MOLWEIGHT>  (800) 
2.063116000000000e+002

>  <IDNUMBER>  (800) 
AT-225/JK21271

>  <PRICE>  (800) 
EUR 140/10 mg

>  <Similarity score>  (800) 
0.17

$$$$
