8-methoxy-3-[7-methyl-4-(piperidin-1-yl)-5,6,7,8-tetrahydro[1]benzothieno[2,3-d]
  -OEChem-04222410502D

 33 38  0     0  0  0  0  0  0999 V2000
   -1.5372   -0.9918    0.0000 C   0  0  0  0  0  0  0  0  0  0  0  0
    0.2042    0.9918    0.0000 C   0  0  0  0  0  0  0  0  0  0  0  0
    1.0775    0.4973    0.0000 C   0  0  0  0  0  0  0  0  0  0  0  0
   -0.6639   -0.4922    0.0000 C   0  0  0  0  0  0  0  0  0  0  0  0
   -0.6587    0.4973    0.0000 N   0  0  0  0  0  0  0  0  0  0  0  0
    1.0675   -0.5072    0.0000 C   0  0  0  0  0  0  0  0  0  0  0  0
    0.2042   -1.0018    0.0000 N   0  0  0  0  0  0  0  0  0  0  0  0
    2.6069   -0.0177    0.0000 C   0  0  0  0  0  0  0  0  0  0  0  0
    2.0315    0.7949    0.0000 C   0  0  0  0  0  0  0  0  0  0  0  0
   -1.5372   -2.0015    0.0000 C   0  0  0  0  0  0  0  0  0  0  0  0
    2.0162   -0.8253    0.0000 S   0  0  0  0  0  0  0  0  0  0  0  0
   -2.4153   -2.5010    0.0000 O   0  0  0  0  0  0  0  0  0  0  0  0
   -2.4053   -0.4768    0.0000 C   0  0  0  0  0  0  0  0  0  0  0  0
   -3.2783   -2.0015    0.0000 C   0  0  0  0  0  0  0  0  0  0  0  0
    0.2146    1.9912    0.0000 N   0  0  0  0  0  0  0  0  0  0  0  0
   -3.2783   -0.9918    0.0000 C   0  0  0  0  0  0  0  0  0  0  0  0
    2.4455    1.7034    0.0000 C   0  0  0  0  0  0  0  0  0  0  0  0
    3.5962    0.0730    0.0000 C   0  0  0  0  0  0  0  0  0  0  0  0
   -0.6737   -2.5062    0.0000 O   0  0  0  0  0  0  0  0  0  0  0  0
   -4.1416   -2.4910    0.0000 C   0  0  0  0  0  0  0  0  0  0  0  0
    3.4397    1.7943    0.0000 C   0  0  0  0  0  0  0  0  0  0  0  0
    4.0152    0.9768    0.0000 C   0  0  3  0  0  0  0  0  0  0  0  0
   -4.1416   -3.4902    0.0000 O   0  0  0  0  0  0  0  0  0  0  0  0
    1.0927    2.4910    0.0000 C   0  0  0  0  0  0  0  0  0  0  0  0
   -0.6436    2.4910    0.0000 C   0  0  0  0  0  0  0  0  0  0  0  0
   -4.1416   -0.4922    0.0000 C   0  0  0  0  0  0  0  0  0  0  0  0
   -5.0045   -0.9918    0.0000 C   0  0  0  0  0  0  0  0  0  0  0  0
   -5.0045   -1.9912    0.0000 C   0  0  0  0  0  0  0  0  0  0  0  0
   -5.0045   -3.9902    0.0000 C   0  0  0  0  0  0  0  0  0  0  0  0
    5.0045    1.0675    0.0000 C   0  0  0  0  0  0  0  0  0  0  0  0
   -0.6284    3.4955    0.0000 C   0  0  0  0  0  0  0  0  0  0  0  0
    1.0979    3.4804    0.0000 C   0  0  0  0  0  0  0  0  0  0  0  0
    0.2346    3.9902    0.0000 C   0  0  0  0  0  0  0  0  0  0  0  0
  2  5  2  0  0  0  0
  3  6  2  0  0  0  0
  2  3  1  0  0  0  0
  1  4  1  0  0  0  0
  4  5  1  0  0  0  0
  6  7  1  0  0  0  0
  4  7  2  0  0  0  0
  8 11  1  0  0  0  0
  8  9  2  0  0  0  0
  3  9  1  0  0  0  0
  1 10  1  0  0  0  0
  6 11  1  0  0  0  0
 10 12  1  0  0  0  0
 12 14  1  0  0  0  0
  1 13  2  0  0  0  0
 14 16  1  0  0  0  0
  2 15  1  0  0  0  0
 13 16  1  0  0  0  0
  9 17  1  0  0  0  0
  8 18  1  0  0  0  0
 10 19  2  0  0  0  0
 14 20  2  0  0  0  0
 17 21  1  0  0  0  0
 21 22  1  0  0  0  0
 18 22  1  0  0  0  0
 20 23  1  0  0  0  0
 15 24  1  0  0  0  0
 15 25  1  0  0  0  0
 16 26  2  0  0  0  0
 26 27  1  0  0  0  0
 27 28  2  0  0  0  0
 20 28  1  0  0  0  0
 23 29  1  0  0  0  0
 22 30  1  0  0  0  0
 25 31  1  0  0  0  0
 24 32  1  0  0  0  0
 31 33  1  0  0  0  0
 32 33  1  0  0  0  0
M  END
> <IDNUMBER>
C200-4134

> <available>
37

> <H_acceptor>
6

> <H_donor>
0

> <B_rotN>
3

> <N_O>
6

> <logP>
6.423

> <logD>
6.423

> <logSw>
-5.7996

> <PSA>
51.185

> <pKa_ma>
21.9462

> <pKa_mb>
2.6836

> <N_Chirals>
1

> <Name>
8-methoxy-3-[7-methyl-4-(piperidin-1-yl)-5,6,7,8-tetrahydro[1]benzothieno[2,3-d]pyrimidin-2-yl]-2H-1-benzopyran-2-one

> <Smile>
CC(CC1)Cc2c1c1c(N3CCCCC3)nc(C3=Cc(cccc4OC)c4OC3=O)nc1s2

> <Color>
YELLOW

> <Collection>
DC

> <InChI>
InChI=1S/C26H27N3O3S/c1-15-9-10-17-20(13-15)33-25-21(17)24(29-11-4-3-5-12-29)27-23(28-25)18-14-16-7-6-8-19(31-2)22(16)32-26(18)30/h6-8,14-15H,3-5,9-13H2,1-2H3/t15-/m1/s1

> <InChI Key>
VMUJNFOIIMUTIY-OAHLLOKOSA-N

> <PERCENTSP3>
42.3

> <Link>
https://www.chemdiv.com/catalog/screening-compounds/compound-C200-4134/

> <MFCDNUMBER>
MFCD14727227

> <CLNUMBER>
CL1996

> <STEREO>
RACEMIC MIXTURE

> <State>
Solid

> <Similarity score>
0.23

$$$$
6,8-difluoro-1-(4-fluorophenyl)-3-(3-methoxyphenyl)-1H-pyrazolo[4,3-c]quinoline
  -OEChem-04222410502D

 30 34  0     0  0  0  0  0  0999 V2000
   -0.4486    0.4624    0.0000 N   0  0  0  0  0  0  0  0  0  0  0  0
    0.2257   -1.0142    0.0000 C   0  0  0  0  0  0  0  0  0  0  0  0
   -0.6493   -0.5127    0.0000 C   0  0  0  0  0  0  0  0  0  0  0  0
    0.5544    0.5572    0.0000 N   0  0  0  0  0  0  0  0  0  0  0  0
    0.9835   -0.3344    0.0000 C   0  0  0  0  0  0  0  0  0  0  0  0
   -1.5352   -1.0142    0.0000 C   0  0  0  0  0  0  0  0  0  0  0  0
   -1.5352   -2.0060    0.0000 C   0  0  0  0  0  0  0  0  0  0  0  0
   -0.6493   -2.4908    0.0000 N   0  0  0  0  0  0  0  0  0  0  0  0
    0.2257   -2.0060    0.0000 C   0  0  0  0  0  0  0  0  0  0  0  0
    1.9810   -0.4346    0.0000 C   0  0  0  0  0  0  0  0  0  0  0  0
   -2.3989   -2.4908    0.0000 C   0  0  0  0  0  0  0  0  0  0  0  0
   -1.0727    1.2315    0.0000 C   0  0  0  0  0  0  0  0  0  0  0  0
   -3.2849   -2.0060    0.0000 C   0  0  0  0  0  0  0  0  0  0  0  0
   -2.3989   -0.5127    0.0000 C   0  0  0  0  0  0  0  0  0  0  0  0
   -3.2738   -1.0142    0.0000 C   0  0  0  0  0  0  0  0  0  0  0  0
    2.5605    0.3845    0.0000 C   0  0  0  0  0  0  0  0  0  0  0  0
   -2.0644    1.0532    0.0000 C   0  0  0  0  0  0  0  0  0  0  0  0
   -0.7327    2.1509    0.0000 C   0  0  0  0  0  0  0  0  0  0  0  0
   -2.3934   -3.4883    0.0000 F   0  0  0  0  0  0  0  0  0  0  0  0
   -2.3711    2.7249    0.0000 C   0  0  0  0  0  0  0  0  0  0  0  0
    3.5745    0.2953    0.0000 C   0  0  0  0  0  0  0  0  0  0  0  0
   -4.1486   -0.5182    0.0000 F   0  0  0  0  0  0  0  0  0  0  0  0
   -1.3847    2.9032    0.0000 C   0  0  0  0  0  0  0  0  0  0  0  0
   -2.7108    1.8054    0.0000 C   0  0  0  0  0  0  0  0  0  0  0  0
   -3.0175    3.4883    0.0000 F   0  0  0  0  0  0  0  0  0  0  0  0
    2.4044   -1.3428    0.0000 C   0  0  0  0  0  0  0  0  0  0  0  0
    4.1486    1.0977    0.0000 O   0  0  0  0  0  0  0  0  0  0  0  0
    3.4076   -1.4320    0.0000 C   0  0  0  0  0  0  0  0  0  0  0  0
    3.9981   -0.6074    0.0000 C   0  0  0  0  0  0  0  0  0  0  0  0
    3.7139    1.9837    0.0000 C   0  0  0  0  0  0  0  0  0  0  0  0
  2  3  2  0  0  0  0
  2  5  1  0  0  0  0
  1  3  1  0  0  0  0
  1  4  1  0  0  0  0
  4  5  2  0  0  0  0
  3  6  1  0  0  0  0
  6  7  1  0  0  0  0
  7  8  1  0  0  0  0
  8  9  2  0  0  0  0
  2  9  1  0  0  0  0
  5 10  1  0  0  0  0
  7 11  2  0  0  0  0
  1 12  1  0  0  0  0
 13 15  2  0  0  0  0
 11 13  1  0  0  0  0
  6 14  2  0  0  0  0
 14 15  1  0  0  0  0
 10 16  1  0  0  0  0
 12 17  2  0  0  0  0
 12 18  1  0  0  0  0
 11 19  1  0  0  0  0
 20 23  1  0  0  0  0
 20 24  2  0  0  0  0
 16 21  2  0  0  0  0
 21 29  1  0  0  0  0
 15 22  1  0  0  0  0
 18 23  2  0  0  0  0
 17 24  1  0  0  0  0
 20 25  1  0  0  0  0
 10 26  2  0  0  0  0
 21 27  1  0  0  0  0
 26 28  1  0  0  0  0
 28 29  2  0  0  0  0
 27 30  1  0  0  0  0
M  END
> <IDNUMBER>
C350-0671

> <available>
81

> <H_acceptor>
3

> <H_donor>
0

> <B_rotN>
3

> <N_O>
4

> <logP>
5.6044

> <logD>
5.6044

> <logSw>
-5.7434

> <PSA>
31.0241

> <pKa_ma>
32.859

> <pKa_mb>
2.7705

> <N_Chirals>
0

> <Name>
6,8-difluoro-1-(4-fluorophenyl)-3-(3-methoxyphenyl)-1H-pyrazolo[4,3-c]quinoline

> <Smile>
COc1cccc(-c(c2cnc3c(F)cc(F)cc3c22)nn2-c(cc2)ccc2F)c1

> <Color>
NOT COLORED

> <Collection>
DC

> <InChI>
InChI=1S/C23H14F3N3O/c1-30-17-4-2-3-13(9-17)21-19-12-27-22-18(10-15(25)11-20(22)26)23(19)29(28-21)16-7-5-14(24)6-8-16/h2-12H,1H3

> <InChI Key>
FJPLPDZRGWLLHS-UHFFFAOYSA-N

> <PERCENTSP3>
4.3

> <Link>
https://www.chemdiv.com/catalog/screening-compounds/compound-C350-0671/

> <MFCDNUMBER>
MFCD14750568

> <CLNUMBER>
CL4130

> <STEREO>
ACHIRAL

> <State>
Solid

> <Similarity score>
0.23

$$$$
3-(4-ethoxyphenyl)-6,8-difluoro-1-(4-fluorophenyl)-1H-pyrazolo[4,3-c]quinoline
  -OEChem-04222410502D

 31 35  0     0  0  0  0  0  0999 V2000
   -1.5756    0.4393    0.0000 N   0  0  0  0  0  0  0  0  0  0  0  0
   -0.9125   -1.0244    0.0000 C   0  0  0  0  0  0  0  0  0  0  0  0
   -1.7885   -0.5255    0.0000 C   0  0  0  0  0  0  0  0  0  0  0  0
   -0.5687    0.5457    0.0000 N   0  0  0  0  0  0  0  0  0  0  0  0
   -0.1474   -0.3458    0.0000 C   0  0  0  0  0  0  0  0  0  0  0  0
   -2.6687   -1.0244    0.0000 C   0  0  0  0  0  0  0  0  0  0  0  0
   -2.6687   -2.0201    0.0000 C   0  0  0  0  0  0  0  0  0  0  0  0
   -1.7885   -2.5191    0.0000 N   0  0  0  0  0  0  0  0  0  0  0  0
   -0.9125   -2.0201    0.0000 C   0  0  0  0  0  0  0  0  0  0  0  0
   -3.5291   -2.5191    0.0000 C   0  0  0  0  0  0  0  0  0  0  0  0
   -2.2009    1.2108    0.0000 C   0  0  0  0  0  0  0  0  0  0  0  0
   -4.4050   -2.0201    0.0000 C   0  0  0  0  0  0  0  0  0  0  0  0
    0.8550   -0.4501    0.0000 C   0  0  0  0  0  0  0  0  0  0  0  0
   -3.5291   -0.5255    0.0000 C   0  0  0  0  0  0  0  0  0  0  0  0
   -4.4050   -1.0244    0.0000 C   0  0  0  0  0  0  0  0  0  0  0  0
   -3.1655    1.0600    0.0000 C   0  0  0  0  0  0  0  0  0  0  0  0
   -1.8372    2.1311    0.0000 C   0  0  0  0  0  0  0  0  0  0  0  0
    1.4380    0.3636    0.0000 C   0  0  0  0  0  0  0  0  0  0  0  0
    1.2716   -1.3570    0.0000 C   0  0  0  0  0  0  0  0  0  0  0  0
   -3.5291   -3.5169    0.0000 F   0  0  0  0  0  0  0  0  0  0  0  0
   -3.4385    2.7477    0.0000 C   0  0  0  0  0  0  0  0  0  0  0  0
   -5.2745   -0.5255    0.0000 F   0  0  0  0  0  0  0  0  0  0  0  0
    2.8774   -0.6320    0.0000 C   0  0  0  0  0  0  0  0  0  0  0  0
   -3.7952    1.8139    0.0000 C   0  0  0  0  0  0  0  0  0  0  0  0
   -2.4713    2.8983    0.0000 C   0  0  0  0  0  0  0  0  0  0  0  0
    2.2741   -1.4480    0.0000 C   0  0  0  0  0  0  0  0  0  0  0  0
    2.4492    0.2730    0.0000 C   0  0  0  0  0  0  0  0  0  0  0  0
   -4.0726    3.5169    0.0000 F   0  0  0  0  0  0  0  0  0  0  0  0
    3.8687   -0.7229    0.0000 O   0  0  0  0  0  0  0  0  0  0  0  0
    4.2811   -1.6432    0.0000 C   0  0  0  0  0  0  0  0  0  0  0  0
    5.2745   -1.7342    0.0000 C   0  0  0  0  0  0  0  0  0  0  0  0
  2  3  2  0  0  0  0
  1  3  1  0  0  0  0
  1  4  1  0  0  0  0
  4  5  2  0  0  0  0
  2  5  1  0  0  0  0
  3  6  1  0  0  0  0
  6  7  1  0  0  0  0
  7  8  1  0  0  0  0
  8  9  2  0  0  0  0
  2  9  1  0  0  0  0
  7 10  2  0  0  0  0
 10 12  1  0  0  0  0
  1 11  1  0  0  0  0
 12 15  2  0  0  0  0
  5 13  1  0  0  0  0
  6 14  2  0  0  0  0
 14 15  1  0  0  0  0
 11 16  1  0  0  0  0
 11 17  2  0  0  0  0
 13 18  1  0  0  0  0
 13 19  2  0  0  0  0
 10 20  1  0  0  0  0
 21 25  2  0  0  0  0
 21 24  1  0  0  0  0
 15 22  1  0  0  0  0
 23 26  2  0  0  0  0
 23 27  1  0  0  0  0
 16 24  2  0  0  0  0
 17 25  1  0  0  0  0
 19 26  1  0  0  0  0
 18 27  2  0  0  0  0
 21 28  1  0  0  0  0
 23 29  1  0  0  0  0
 29 30  1  0  0  0  0
 30 31  1  0  0  0  0
M  END
> <IDNUMBER>
C350-0829

> <available>
136

> <H_acceptor>
3

> <H_donor>
0

> <B_rotN>
4

> <N_O>
4

> <logP>
5.8247

> <logD>
5.8247

> <logSw>
-5.6284

> <PSA>
30.6039

> <pKa_ma>
29.8521

> <pKa_mb>
2.2647

> <N_Chirals>
0

> <Name>
3-(4-ethoxyphenyl)-6,8-difluoro-1-(4-fluorophenyl)-1H-pyrazolo[4,3-c]quinoline

> <Smile>
CCOc(cc1)ccc1-c(c1cnc2c(F)cc(F)cc2c11)nn1-c(cc1)ccc1F

> <Color>
NOT COLORED

> <Collection>
DC

> <InChI>
InChI=1S/C24H16F3N3O/c1-2-31-18-9-3-14(4-10-18)22-20-13-28-23-19(11-16(26)12-21(23)27)24(20)30(29-22)17-7-5-15(25)6-8-17/h3-13H,2H2,1H3

> <InChI Key>
HRNCXJIVPOGOGJ-UHFFFAOYSA-N

> <PERCENTSP3>
8.3

> <Link>
https://www.chemdiv.com/catalog/screening-compounds/compound-C350-0829/

> <MFCDNUMBER>
MFCD14750695

> <CLNUMBER>
CL4130

> <STEREO>
ACHIRAL

> <State>
Solid

> <Similarity score>
0.23

$$$$
7-methoxy-3-[7-methyl-4-(piperidin-1-yl)-5,6,7,8-tetrahydro[1]benzothieno[2,3-d]
  -OEChem-04222410502D

 33 38  0     0  0  0  0  0  0999 V2000
   -0.6712   -1.7336    0.0000 C   0  0  0  0  0  0  0  0  0  0  0  0
    1.0701    0.2497    0.0000 C   0  0  0  0  0  0  0  0  0  0  0  0
    1.9433   -0.2451    0.0000 C   0  0  0  0  0  0  0  0  0  0  0  0
    0.2020   -1.2339    0.0000 C   0  0  0  0  0  0  0  0  0  0  0  0
    0.2069   -0.2451    0.0000 N   0  0  0  0  0  0  0  0  0  0  0  0
    1.9330   -1.2492    0.0000 C   0  0  0  0  0  0  0  0  0  0  0  0
    1.0701   -1.7439    0.0000 N   0  0  0  0  0  0  0  0  0  0  0  0
    3.4725   -0.7596    0.0000 C   0  0  0  0  0  0  0  0  0  0  0  0
    2.8969    0.0528    0.0000 C   0  0  0  0  0  0  0  0  0  0  0  0
   -0.6712   -2.7434    0.0000 C   0  0  0  0  0  0  0  0  0  0  0  0
    2.8819   -1.5674    0.0000 S   0  0  0  0  0  0  0  0  0  0  0  0
   -1.5395   -1.2191    0.0000 C   0  0  0  0  0  0  0  0  0  0  0  0
   -1.5496   -3.2427    0.0000 O   0  0  0  0  0  0  0  0  0  0  0  0
    1.0799    1.2492    0.0000 N   0  0  0  0  0  0  0  0  0  0  0  0
   -2.4125   -2.7434    0.0000 C   0  0  0  0  0  0  0  0  0  0  0  0
   -2.4125   -1.7336    0.0000 C   0  0  0  0  0  0  0  0  0  0  0  0
    3.3109    0.9614    0.0000 C   0  0  0  0  0  0  0  0  0  0  0  0
   -3.2757   -3.2330    0.0000 C   0  0  0  0  0  0  0  0  0  0  0  0
    4.4614   -0.6690    0.0000 C   0  0  0  0  0  0  0  0  0  0  0  0
    0.1917   -3.2478    0.0000 O   0  0  0  0  0  0  0  0  0  0  0  0
   -3.2757   -1.2339    0.0000 C   0  0  0  0  0  0  0  0  0  0  0  0
   -4.1386   -2.7331    0.0000 C   0  0  0  0  0  0  0  0  0  0  0  0
    4.3053    1.0520    0.0000 C   0  0  0  0  0  0  0  0  0  0  0  0
   -4.1386   -1.7336    0.0000 C   0  0  0  0  0  0  0  0  0  0  0  0
    4.8804    0.2344    0.0000 C   0  0  3  0  0  0  0  0  0  0  0  0
    0.2221    1.7485    0.0000 C   0  0  0  0  0  0  0  0  0  0  0  0
    1.9583    1.7485    0.0000 C   0  0  0  0  0  0  0  0  0  0  0  0
   -5.0121   -3.2330    0.0000 O   0  0  0  0  0  0  0  0  0  0  0  0
   -5.8698   -2.7331    0.0000 C   0  0  0  0  0  0  0  0  0  0  0  0
    5.8698    0.3254    0.0000 C   0  0  0  0  0  0  0  0  0  0  0  0
    0.2374    2.7531    0.0000 C   0  0  0  0  0  0  0  0  0  0  0  0
    1.9635    2.7379    0.0000 C   0  0  0  0  0  0  0  0  0  0  0  0
    1.1002    3.2478    0.0000 C   0  0  0  0  0  0  0  0  0  0  0  0
  2  5  2  0  0  0  0
  3  6  2  0  0  0  0
  2  3  1  0  0  0  0
  1  4  1  0  0  0  0
  4  5  1  0  0  0  0
  6  7  1  0  0  0  0
  4  7  2  0  0  0  0
  8 11  1  0  0  0  0
  8  9  2  0  0  0  0
  3  9  1  0  0  0  0
  1 10  1  0  0  0  0
  6 11  1  0  0  0  0
  1 12  2  0  0  0  0
 10 13  1  0  0  0  0
 13 15  1  0  0  0  0
  2 14  1  0  0  0  0
 15 16  1  0  0  0  0
 12 16  1  0  0  0  0
  9 17  1  0  0  0  0
 15 18  2  0  0  0  0
  8 19  1  0  0  0  0
 10 20  2  0  0  0  0
 16 21  2  0  0  0  0
 22 24  2  0  0  0  0
 18 22  1  0  0  0  0
 17 23  1  0  0  0  0
 23 25  1  0  0  0  0
 21 24  1  0  0  0  0
 19 25  1  0  0  0  0
 14 26  1  0  0  0  0
 14 27  1  0  0  0  0
 22 28  1  0  0  0  0
 28 29  1  0  0  0  0
 25 30  1  0  0  0  0
 26 31  1  0  0  0  0
 27 32  1  0  0  0  0
 32 33  1  0  0  0  0
 31 33  1  0  0  0  0
M  END
> <IDNUMBER>
C200-4133

> <available>
21

> <H_acceptor>
6

> <H_donor>
0

> <B_rotN>
3

> <N_O>
6

> <logP>
6.578

> <logD>
6.578

> <logSw>
-5.777

> <PSA>
51.414

> <pKa_ma>
21.9462

> <pKa_mb>
2.6836

> <N_Chirals>
1

> <Name>
7-methoxy-3-[7-methyl-4-(piperidin-1-yl)-5,6,7,8-tetrahydro[1]benzothieno[2,3-d]pyrimidin-2-yl]-2H-1-benzopyran-2-one

> <Smile>
CC(CC1)Cc2c1c1c(N3CCCCC3)nc(C3=Cc(ccc(OC)c4)c4OC3=O)nc1s2

> <Color>
ORANGE

> <Collection>
DC

> <InChI>
InChI=1S/C26H27N3O3S/c1-15-6-9-18-21(12-15)33-25-22(18)24(29-10-4-3-5-11-29)27-23(28-25)19-13-16-7-8-17(31-2)14-20(16)32-26(19)30/h7-8,13-15H,3-6,9-12H2,1-2H3/t15-/m1/s1

> <InChI Key>
FVRBIAAARGKAKU-OAHLLOKOSA-N

> <PERCENTSP3>
42.3

> <Link>
https://www.chemdiv.com/catalog/screening-compounds/compound-C200-4133/

> <MFCDNUMBER>
MFCD14727226

> <CLNUMBER>
CL1996

> <STEREO>
RACEMIC MIXTURE

> <State>
Solid

> <Similarity score>
0.23

$$$$
4-(3,5-dimethylpiperidin-1-yl)-2-(4-methylphenyl)quinazoline
  -OEChem-04222410502D

 25 28  0     0  0  0  0  0  0999 V2000
   -0.8664    0.3019    0.0000 C   0  0  0  0  0  0  0  0  0  0  0  0
   -0.0197   -0.2035    0.0000 N   0  0  0  0  0  0  0  0  0  0  0  0
   -0.8664    1.2733    0.0000 N   0  0  0  0  0  0  0  0  0  0  0  0
   -0.0197   -1.2471    0.0000 C   0  0  0  0  0  0  0  0  0  0  0  0
   -1.7524   -0.2035    0.0000 C   0  0  0  0  0  0  0  0  0  0  0  0
   -0.8664   -1.7198    0.0000 N   0  0  0  0  0  0  0  0  0  0  0  0
   -1.7524   -1.2144    0.0000 C   0  0  0  0  0  0  0  0  0  0  0  0
   -1.7524    1.7787    0.0000 C   0  0  0  0  0  0  0  0  0  0  0  0
   -0.0197    1.7787    0.0000 C   0  0  0  0  0  0  0  0  0  0  0  0
    0.8664   -1.7460    0.0000 C   0  0  0  0  0  0  0  0  0  0  0  0
    1.7131   -1.2471    0.0000 C   0  0  0  0  0  0  0  0  0  0  0  0
    0.8664   -2.7239    0.0000 C   0  0  0  0  0  0  0  0  0  0  0  0
   -0.0197    2.7896    0.0000 C   0  0  3  0  0  0  0  0  0  0  0  0
   -1.7524    2.7896    0.0000 C   0  0  3  0  0  0  0  0  0  0  0  0
   -0.8664    3.2950    0.0000 C   0  0  0  0  0  0  0  0  0  0  0  0
    1.7131   -3.2229    0.0000 C   0  0  0  0  0  0  0  0  0  0  0  0
    2.5728   -1.7198    0.0000 C   0  0  0  0  0  0  0  0  0  0  0  0
   -2.5992    0.3019    0.0000 C   0  0  0  0  0  0  0  0  0  0  0  0
    2.5728   -2.7501    0.0000 C   0  0  0  0  0  0  0  0  0  0  0  0
   -2.5992   -1.7198    0.0000 C   0  0  0  0  0  0  0  0  0  0  0  0
   -2.6189    3.2753    0.0000 C   0  0  0  0  0  0  0  0  0  0  0  0
    0.8400    3.2950    0.0000 C   0  0  0  0  0  0  0  0  0  0  0  0
    3.4459   -3.2950    0.0000 C   0  0  0  0  0  0  0  0  0  0  0  0
   -3.4459   -0.2035    0.0000 C   0  0  0  0  0  0  0  0  0  0  0  0
   -3.4459   -1.2471    0.0000 C   0  0  0  0  0  0  0  0  0  0  0  0
  1  2  2  0  0  0  0
  1  3  1  0  0  0  0
  2  4  1  0  0  0  0
  1  5  1  0  0  0  0
  6  7  1  0  0  0  0
  4  6  2  0  0  0  0
  5  7  2  0  0  0  0
  3  8  1  0  0  0  0
  3  9  1  0  0  0  0
  4 10  1  0  0  0  0
 10 11  1  0  0  0  0
 10 12  2  0  0  0  0
  9 13  1  0  0  0  0
  8 14  1  0  0  0  0
 14 15  1  0  0  0  0
 13 15  1  0  0  0  0
 12 16  1  0  0  0  0
 11 17  2  0  0  0  0
  5 18  1  0  0  0  0
 16 19  2  0  0  0  0
 17 19  1  0  0  0  0
  7 20  1  0  0  0  0
 20 25  2  0  0  0  0
 14 21  1  0  0  0  0
 13 22  1  0  0  0  0
 19 23  1  0  0  0  0
 18 24  2  0  0  0  0
 24 25  1  0  0  0  0
M  END
> <IDNUMBER>
3909-8313

> <available>
4

> <H_acceptor>
2

> <H_donor>
0

> <B_rotN>
2

> <N_O>
3

> <logP>
6.7133

> <logD>
5.4843

> <logSw>
-6.1683

> <PSA>
21.5053

> <pKa_ma>
22.6349

> <pKa_mb>
8.6026

> <N_Chirals>
2

> <Name>
4-(3,5-dimethylpiperidin-1-yl)-2-(4-methylphenyl)quinazoline

> <Smile>
CC(CC(C)C1)CN1c1nc(-c2ccc(C)cc2)nc2ccccc12

> <Color>
NOT COLORED

> <Collection>
NC

> <InChI>
InChI=1S/C22H25N3/c1-15-8-10-18(11-9-15)21-23-20-7-5-4-6-19(20)22(24-21)25-13-16(2)12-17(3)14-25/h4-11,16-17H,12-14H2,1-3H3

> <InChI Key>
SMZDNXOGTFPCGO-UHFFFAOYSA-N

> <PERCENTSP3>
36.4

> <Link>
https://www.chemdiv.com/catalog/screening-compounds/compound-3909-8313/

> <MFCDNUMBER>
MFCD14708941

> <CLNUMBER>
CL2243

> <STEREO>
MIXTURE OF STEREOISOMERS

> <State>
Solid

> <Similarity score>
0.23

$$$$
N-(3,4-difluorophenyl)-4-(morpholin-4-yl)[1]benzofuro[3,2-d]pyrimidine-2-carboxa
  -OEChem-04222410502D

 30 34  0     0  0  0  0  0  0999 V2000
    2.1206    0.2416    0.0000 C   0  0  0  0  0  0  0  0  0  0  0  0
    2.1206   -0.7333    0.0000 C   0  0  0  0  0  0  0  0  0  0  0  0
    1.2707    0.7333    0.0000 C   0  0  0  0  0  0  0  0  0  0  0  0
    1.2707   -1.2208    0.0000 N   0  0  0  0  0  0  0  0  0  0  0  0
    0.4208    0.2416    0.0000 N   0  0  0  0  0  0  0  0  0  0  0  0
    0.4208   -0.7333    0.0000 C   0  0  0  0  0  0  0  0  0  0  0  0
    2.9704    0.7333    0.0000 O   0  0  0  0  0  0  0  0  0  0  0  0
    2.1206    2.2038    0.0000 C   0  0  0  0  0  0  0  0  0  0  0  0
   -0.4208   -1.2208    0.0000 C   0  0  0  0  0  0  0  0  0  0  0  0
    2.9704    1.7164    0.0000 C   0  0  0  0  0  0  0  0  0  0  0  0
    2.9704   -1.2208    0.0000 N   0  0  0  0  0  0  0  0  0  0  0  0
   -1.2707   -0.7333    0.0000 N   0  0  0  0  0  0  0  0  0  0  0  0
   -2.9662   -2.6955    0.0000 C   0  0  0  0  0  0  0  0  0  0  0  0
   -2.1163   -2.2038    0.0000 C   0  0  0  0  0  0  0  0  0  0  0  0
   -2.1163   -1.2208    0.0000 C   0  0  0  0  0  0  0  0  0  0  0  0
   -3.8161   -2.2038    0.0000 C   0  0  0  0  0  0  0  0  0  0  0  0
   -0.4208   -2.2038    0.0000 O   0  0  0  0  0  0  0  0  0  0  0  0
    4.6577   -2.2038    0.0000 O   0  0  0  0  0  0  0  0  0  0  0  0
   -3.8161   -1.2208    0.0000 C   0  0  0  0  0  0  0  0  0  0  0  0
   -2.9662   -3.6704    0.0000 F   0  0  0  0  0  0  0  0  0  0  0  0
   -2.9662   -0.7333    0.0000 C   0  0  0  0  0  0  0  0  0  0  0  0
   -4.6577   -2.6955    0.0000 F   0  0  0  0  0  0  0  0  0  0  0  0
    2.1206    3.1787    0.0000 C   0  0  0  0  0  0  0  0  0  0  0  0
    2.9704   -2.2038    0.0000 C   0  0  0  0  0  0  0  0  0  0  0  0
    3.8161   -0.7333    0.0000 C   0  0  0  0  0  0  0  0  0  0  0  0
    3.8161    2.2038    0.0000 C   0  0  0  0  0  0  0  0  0  0  0  0
    4.6577   -1.2208    0.0000 C   0  0  0  0  0  0  0  0  0  0  0  0
    3.8161   -2.6955    0.0000 C   0  0  0  0  0  0  0  0  0  0  0  0
    2.9704    3.6704    0.0000 C   0  0  0  0  0  0  0  0  0  0  0  0
    3.8161    3.1787    0.0000 C   0  0  0  0  0  0  0  0  0  0  0  0
  1  2  1  0  0  0  0
  1  3  2  0  0  0  0
  2  4  2  0  0  0  0
  4  6  1  0  0  0  0
  3  5  1  0  0  0  0
  5  6  2  0  0  0  0
  1  7  1  0  0  0  0
  3  8  1  0  0  0  0
  8 10  1  0  0  0  0
  6  9  1  0  0  0  0
  7 10  1  0  0  0  0
  2 11  1  0  0  0  0
  9 12  1  0  0  0  0
 13 14  1  0  0  0  0
 14 15  2  0  0  0  0
 12 15  1  0  0  0  0
 16 19  1  0  0  0  0
 13 16  2  0  0  0  0
  9 17  2  0  0  0  0
 18 27  1  0  0  0  0
 19 21  2  0  0  0  0
 13 20  1  0  0  0  0
 15 21  1  0  0  0  0
 16 22  1  0  0  0  0
  8 23  2  0  0  0  0
 11 24  1  0  0  0  0
 11 25  1  0  0  0  0
 10 26  2  0  0  0  0
 25 27  1  0  0  0  0
 24 28  1  0  0  0  0
 18 28  1  0  0  0  0
 23 29  1  0  0  0  0
 29 30  2  0  0  0  0
 26 30  1  0  0  0  0
M  END
> <IDNUMBER>
L331-0249

> <available>
77

> <H_acceptor>
6

> <H_donor>
1

> <B_rotN>
4

> <N_O>
7

> <logP>
4.3773

> <logD>
4.3687

> <logSw>
-4.4123

> <PSA>
62.1

> <pKa_ma>
9.0982

> <pKa_mb>
8.6338

> <N_Chirals>
0

> <Name>
N-(3,4-difluorophenyl)-4-(morpholin-4-yl)[1]benzofuro[3,2-d]pyrimidine-2-carboxamide

> <Smile>
O=C(c1nc(N2CCOCC2)c2oc(cccc3)c3c2n1)Nc(cc1)cc(F)c1F

> <Color>
NOT COLORED

> <Collection>
NC

> <InChI>
InChI=1S/C21H16F2N4O3/c22-14-6-5-12(11-15(14)23)24-21(28)19-25-17-13-3-1-2-4-16(13)30-18(17)20(26-19)27-7-9-29-10-8-27/h1-6,11H,7-10H2,(H,24,28)

> <InChI Key>
CDUMBZAVWQGPRE-UHFFFAOYSA-N

> <PERCENTSP3>
19

> <Link>
https://www.chemdiv.com/catalog/screening-compounds/compound-L331-0249/

> <MFCDNUMBER>
MFCD27246920

> <CLNUMBER>
CL7949

> <STEREO>
ACHIRAL

> <State>
Solid

> <Similarity score>
0.22

$$$$
3-(4-ethoxyphenyl)-6,8-difluoro-1-phenyl-1H-pyrazolo[4,3-c]quinoline
  -OEChem-04222410502D

 30 34  0     0  0  0  0  0  0999 V2000
   -1.1698    0.7487    0.0000 N   0  0  0  0  0  0  0  0  0  0  0  0
   -0.5056   -0.7314    0.0000 C   0  0  0  0  0  0  0  0  0  0  0  0
   -1.3809   -0.2283    0.0000 C   0  0  0  0  0  0  0  0  0  0  0  0
   -0.1681    0.8393    0.0000 N   0  0  0  0  0  0  0  0  0  0  0  0
    0.2555   -0.0517    0.0000 C   0  0  0  0  0  0  0  0  0  0  0  0
   -2.2672   -0.7314    0.0000 C   0  0  0  0  0  0  0  0  0  0  0  0
   -2.2672   -1.7239    0.0000 C   0  0  0  0  0  0  0  0  0  0  0  0
   -1.3809   -2.2115    0.0000 N   0  0  0  0  0  0  0  0  0  0  0  0
   -0.5056   -1.7239    0.0000 C   0  0  0  0  0  0  0  0  0  0  0  0
   -3.1280   -2.2115    0.0000 C   0  0  0  0  0  0  0  0  0  0  0  0
   -4.0034   -1.7239    0.0000 C   0  0  0  0  0  0  0  0  0  0  0  0
    1.2621   -0.1532    0.0000 C   0  0  0  0  0  0  0  0  0  0  0  0
   -1.7997    1.5190    0.0000 C   0  0  0  0  0  0  0  0  0  0  0  0
   -3.1280   -0.2283    0.0000 C   0  0  0  0  0  0  0  0  0  0  0  0
   -4.0034   -0.7314    0.0000 C   0  0  0  0  0  0  0  0  0  0  0  0
    1.6747   -1.0489    0.0000 C   0  0  0  0  0  0  0  0  0  0  0  0
    1.8420    0.6626    0.0000 C   0  0  0  0  0  0  0  0  0  0  0  0
   -3.1280   -3.2086    0.0000 F   0  0  0  0  0  0  0  0  0  0  0  0
   -4.8629   -0.2330    0.0000 F   0  0  0  0  0  0  0  0  0  0  0  0
    3.2859   -0.3343    0.0000 C   0  0  0  0  0  0  0  0  0  0  0  0
    2.8530    0.5814    0.0000 C   0  0  0  0  0  0  0  0  0  0  0  0
    2.6826   -1.1549    0.0000 C   0  0  0  0  0  0  0  0  0  0  0  0
    4.2877   -0.4299    0.0000 O   0  0  0  0  0  0  0  0  0  0  0  0
   -1.4371    2.4381    0.0000 C   0  0  0  0  0  0  0  0  0  0  0  0
   -2.7656    1.3517    0.0000 C   0  0  0  0  0  0  0  0  0  0  0  0
    4.8629    0.3860    0.0000 C   0  0  0  0  0  0  0  0  0  0  0  0
    4.4550    1.2926    0.0000 C   0  0  0  0  0  0  0  0  0  0  0  0
   -3.3891    2.1208    0.0000 C   0  0  0  0  0  0  0  0  0  0  0  0
   -2.0702    3.2086    0.0000 C   0  0  0  0  0  0  0  0  0  0  0  0
   -3.0375    3.0477    0.0000 C   0  0  0  0  0  0  0  0  0  0  0  0
  2  3  2  0  0  0  0
  2  5  1  0  0  0  0
  1  3  1  0  0  0  0
  1  4  1  0  0  0  0
  4  5  2  0  0  0  0
  3  6  1  0  0  0  0
  6  7  1  0  0  0  0
  7  8  1  0  0  0  0
  8  9  2  0  0  0  0
  2  9  1  0  0  0  0
  7 10  2  0  0  0  0
 11 15  2  0  0  0  0
 10 11  1  0  0  0  0
  5 12  1  0  0  0  0
  1 13  1  0  0  0  0
  6 14  2  0  0  0  0
 14 15  1  0  0  0  0
 12 16  2  0  0  0  0
 12 17  1  0  0  0  0
 10 18  1  0  0  0  0
 15 19  1  0  0  0  0
 20 21  1  0  0  0  0
 17 21  2  0  0  0  0
 16 22  1  0  0  0  0
 20 22  2  0  0  0  0
 20 23  1  0  0  0  0
 13 24  2  0  0  0  0
 13 25  1  0  0  0  0
 23 26  1  0  0  0  0
 26 27  1  0  0  0  0
 25 28  2  0  0  0  0
 24 29  1  0  0  0  0
 29 30  2  0  0  0  0
 28 30  1  0  0  0  0
M  END
> <IDNUMBER>
C350-0808

> <available>
138

> <H_acceptor>
3

> <H_donor>
0

> <B_rotN>
4

> <N_O>
4

> <logP>
5.6741

> <logD>
5.6741

> <logSw>
-5.6084

> <PSA>
30.6039

> <pKa_ma>
29.8521

> <pKa_mb>
2.2647

> <N_Chirals>
0

> <Name>
3-(4-ethoxyphenyl)-6,8-difluoro-1-phenyl-1H-pyrazolo[4,3-c]quinoline

> <Smile>
CCOc(cc1)ccc1-c(c1cnc2c(F)cc(F)cc2c11)nn1-c1ccccc1

> <Color>
NOT COLORED

> <Collection>
DC

> <InChI>
InChI=1S/C24H17F2N3O/c1-2-30-18-10-8-15(9-11-18)22-20-14-27-23-19(12-16(25)13-21(23)26)24(20)29(28-22)17-6-4-3-5-7-17/h3-14H,2H2,1H3

> <InChI Key>
GGTGWRSYPRCJAS-UHFFFAOYSA-N

> <PERCENTSP3>
8.3

> <Link>
https://www.chemdiv.com/catalog/screening-compounds/compound-C350-0808/

> <MFCDNUMBER>
MFCD14750682

> <CLNUMBER>
CL4130

> <STEREO>
ACHIRAL

> <State>
Solid

> <Similarity score>
0.22

$$$$
2-(3,4-dimethoxyphenyl)-7-ethoxy-4-[4-(2-fluorophenyl)piperazin-1-yl]-6-methoxyq
  -OEChem-04222410502D

 38 42  0     0  0  0  0  0  0999 V2000
    0.0187    0.5000    0.0000 C   0  0  0  0  0  0  0  0  0  0  0  0
    0.9065    0.9918    0.0000 N   0  0  0  0  0  0  0  0  0  0  0  0
   -0.8479    0.9918    0.0000 C   0  0  0  0  0  0  0  0  0  0  0  0
    0.9065    2.0169    0.0000 C   0  0  0  0  0  0  0  0  0  0  0  0
   -0.8479    2.0169    0.0000 C   0  0  0  0  0  0  0  0  0  0  0  0
    0.0187    2.5085    0.0000 N   0  0  0  0  0  0  0  0  0  0  0  0
    0.0187   -0.5000    0.0000 N   0  0  0  0  0  0  0  0  0  0  0  0
    0.0187   -2.4877    0.0000 N   0  0  0  0  0  0  0  0  0  0  0  0
   -1.7020    0.5000    0.0000 C   0  0  0  0  0  0  0  0  0  0  0  0
   -1.7020    2.5085    0.0000 C   0  0  0  0  0  0  0  0  0  0  0  0
    1.7565    2.5085    0.0000 C   0  0  0  0  0  0  0  0  0  0  0  0
    0.0187   -3.5003    0.0000 C   0  0  0  0  0  0  0  0  0  0  0  0
   -2.5771    0.9918    0.0000 C   0  0  0  0  0  0  0  0  0  0  0  0
   -2.5898    2.0001    0.0000 C   0  0  0  0  0  0  0  0  0  0  0  0
    1.7565    3.5170    0.0000 C   0  0  0  0  0  0  0  0  0  0  0  0
    2.6065    4.0004    0.0000 C   0  0  0  0  0  0  0  0  0  0  0  0
    0.9065   -0.9875    0.0000 C   0  0  0  0  0  0  0  0  0  0  0  0
   -0.8313   -1.0126    0.0000 C   0  0  0  0  0  0  0  0  0  0  0  0
   -0.8479   -1.9834    0.0000 C   0  0  0  0  0  0  0  0  0  0  0  0
    0.8814   -1.9877    0.0000 C   0  0  0  0  0  0  0  0  0  0  0  0
    3.4732    3.5335    0.0000 C   0  0  0  0  0  0  0  0  0  0  0  0
    0.8814   -3.9837    0.0000 C   0  0  0  0  0  0  0  0  0  0  0  0
    2.6108    2.0209    0.0000 C   0  0  0  0  0  0  0  0  0  0  0  0
    3.4732    2.5085    0.0000 C   0  0  0  0  0  0  0  0  0  0  0  0
    1.7565   -3.5003    0.0000 F   0  0  0  0  0  0  0  0  0  0  0  0
   -3.4565    0.5000    0.0000 O   0  0  0  0  0  0  0  0  0  0  0  0
   -3.4565    2.5085    0.0000 O   0  0  0  0  0  0  0  0  0  0  0  0
    2.6065    4.9878    0.0000 O   0  0  0  0  0  0  0  0  0  0  0  0
    4.3400    4.0127    0.0000 O   0  0  0  0  0  0  0  0  0  0  0  0
   -0.8520   -3.9837    0.0000 C   0  0  0  0  0  0  0  0  0  0  0  0
    0.8814   -4.9753    0.0000 C   0  0  0  0  0  0  0  0  0  0  0  0
   -4.3108    2.0169    0.0000 C   0  0  0  0  0  0  0  0  0  0  0  0
   -4.3108    0.9918    0.0000 C   0  0  0  0  0  0  0  0  0  0  0  0
    3.4608    5.5004    0.0000 C   0  0  0  0  0  0  0  0  0  0  0  0
    5.2151    3.5335    0.0000 C   0  0  0  0  0  0  0  0  0  0  0  0
   -5.2151    2.5085    0.0000 C   0  0  0  0  0  0  0  0  0  0  0  0
   -0.8520   -4.9753    0.0000 C   0  0  0  0  0  0  0  0  0  0  0  0
    0.0021   -5.5004    0.0000 C   0  0  0  0  0  0  0  0  0  0  0  0
  1  2  2  0  0  0  0
  1  3  1  0  0  0  0
  2  4  1  0  0  0  0
  3  5  2  0  0  0  0
  5  6  1  0  0  0  0
  4  6  2  0  0  0  0
  1  7  1  0  0  0  0
  8 19  1  0  0  0  0
  8 20  1  0  0  0  0
  3  9  1  0  0  0  0
  5 10  1  0  0  0  0
  4 11  1  0  0  0  0
  8 12  1  0  0  0  0
  9 13  2  0  0  0  0
 13 14  1  0  0  0  0
 10 14  2  0  0  0  0
 11 15  2  0  0  0  0
 15 16  1  0  0  0  0
  7 17  1  0  0  0  0
  7 18  1  0  0  0  0
 18 19  1  0  0  0  0
 17 20  1  0  0  0  0
 21 24  1  0  0  0  0
 16 21  2  0  0  0  0
 12 22  1  0  0  0  0
 11 23  1  0  0  0  0
 23 24  2  0  0  0  0
 22 25  1  0  0  0  0
 13 26  1  0  0  0  0
 14 27  1  0  0  0  0
 16 28  1  0  0  0  0
 21 29  1  0  0  0  0
 12 30  2  0  0  0  0
 22 31  2  0  0  0  0
 27 32  1  0  0  0  0
 26 33  1  0  0  0  0
 28 34  1  0  0  0  0
 29 35  1  0  0  0  0
 32 36  1  0  0  0  0
 30 37  1  0  0  0  0
 37 38  2  0  0  0  0
 31 38  1  0  0  0  0
M  END
> <IDNUMBER>
IB05-8755

> <available>
50

> <H_acceptor>
6

> <H_donor>
0

> <B_rotN>
8

> <N_O>
8

> <logP>
5.91

> <logD>
4.96

> <logSw>
-7

> <PSA>
55.54

> <pKa_ma>
14

> <pKa_mb>
8.3

> <N_Chirals>
0

> <Name>
2-(3,4-dimethoxyphenyl)-7-ethoxy-4-[4-(2-fluorophenyl)piperazin-1-yl]-6-methoxyquinazoline

> <Smile>
CCOc(cc(c1c2)nc(-c(cc3)cc(OC)c3OC)nc1N(CC1)CCN1c(cccc1)c1F)c2OC

> <Color>
NOT COLORED

> <Collection>
DC

> <InChI>
InChI=1S/C29H31FN4O4/c1-5-38-27-18-22-20(17-26(27)37-4)29(32-28(31-22)19-10-11-24(35-2)25(16-19)36-3)34-14-12-33(13-15-34)23-9-7-6-8-21(23)30/h6-11,16-18H,5,12-15H2,1-4H3

> <InChI Key>
GRWGGHSTHKRSQL-UHFFFAOYSA-N

> <PERCENTSP3>
31

> <Link>
https://www.chemdiv.com/catalog/screening-compounds/compound-IB05-8755/

> <STEREO>
ACHIRAL

> <State>
Solid

> <Similarity score>
0.22

$$$$
2-(2-fluorophenyl)-4-[4-(4-methoxyphenyl)piperazin-1-yl]quinazoline
  -OEChem-04222410502D

 31 35  0     0  0  0  0  0  0999 V2000
    1.9217    0.7342    0.0000 N   0  0  0  0  0  0  0  0  0  0  0  0
    2.7877    1.2356    0.0000 C   0  0  0  0  0  0  0  0  0  0  0  0
    1.9217   -0.2634    0.0000 C   0  0  0  0  0  0  0  0  0  0  0  0
    3.6635    0.7342    0.0000 N   0  0  0  0  0  0  0  0  0  0  0  0
    2.7877   -0.7646    0.0000 C   0  0  0  0  0  0  0  0  0  0  0  0
    2.7978    2.2232    0.0000 C   0  0  0  0  0  0  0  0  0  0  0  0
    1.0559   -0.7594    0.0000 N   0  0  0  0  0  0  0  0  0  0  0  0
   -0.6656   -1.7522    0.0000 N   0  0  0  0  0  0  0  0  0  0  0  0
    3.6534   -0.2634    0.0000 C   0  0  0  0  0  0  0  0  0  0  0  0
   -1.5977   -2.1320    0.0000 C   0  0  0  0  0  0  0  0  0  0  0  0
    3.6635    2.7344    0.0000 C   0  0  0  0  0  0  0  0  0  0  0  0
    0.1851   -0.2580    0.0000 C   0  0  0  0  0  0  0  0  0  0  0  0
    1.0559   -1.7468    0.0000 C   0  0  0  0  0  0  0  0  0  0  0  0
   -0.6709   -0.7496    0.0000 C   0  0  0  0  0  0  0  0  0  0  0  0
    0.1899   -2.2534    0.0000 C   0  0  0  0  0  0  0  0  0  0  0  0
   -2.3878   -1.5090    0.0000 C   0  0  0  0  0  0  0  0  0  0  0  0
   -1.7342   -3.1192    0.0000 C   0  0  0  0  0  0  0  0  0  0  0  0
    4.5446    2.2232    0.0000 F   0  0  0  0  0  0  0  0  0  0  0  0
   -3.4509   -2.8711    0.0000 C   0  0  0  0  0  0  0  0  0  0  0  0
   -2.6610   -3.4941    0.0000 C   0  0  0  0  0  0  0  0  0  0  0  0
   -3.3142   -1.8887    0.0000 C   0  0  0  0  0  0  0  0  0  0  0  0
    2.7877   -1.7522    0.0000 C   0  0  0  0  0  0  0  0  0  0  0  0
    1.9317    2.7243    0.0000 C   0  0  0  0  0  0  0  0  0  0  0  0
   -4.3926   -3.2358    0.0000 O   0  0  0  0  0  0  0  0  0  0  0  0
    4.5195   -0.7496    0.0000 C   0  0  0  0  0  0  0  0  0  0  0  0
    3.6688    3.7269    0.0000 C   0  0  0  0  0  0  0  0  0  0  0  0
   -4.5446   -4.2282    0.0000 C   0  0  0  0  0  0  0  0  0  0  0  0
    3.6534   -2.2534    0.0000 C   0  0  0  0  0  0  0  0  0  0  0  0
    1.9317    3.7269    0.0000 C   0  0  0  0  0  0  0  0  0  0  0  0
    4.5195   -1.7522    0.0000 C   0  0  0  0  0  0  0  0  0  0  0  0
    2.7978    4.2282    0.0000 C   0  0  0  0  0  0  0  0  0  0  0  0
  1  2  1  0  0  0  0
  1  3  2  0  0  0  0
  2  4  2  0  0  0  0
  3  5  1  0  0  0  0
  2  6  1  0  0  0  0
  3  7  1  0  0  0  0
  8 15  1  0  0  0  0
  5  9  1  0  0  0  0
  4  9  1  0  0  0  0
  8 10  1  0  0  0  0
  6 11  2  0  0  0  0
  7 12  1  0  0  0  0
  7 13  1  0  0  0  0
 12 14  1  0  0  0  0
  8 14  1  0  0  0  0
 13 15  1  0  0  0  0
 10 16  2  0  0  0  0
 10 17  1  0  0  0  0
 11 18  1  0  0  0  0
 19 20  1  0  0  0  0
 17 20  2  0  0  0  0
 16 21  1  0  0  0  0
 19 21  2  0  0  0  0
  5 22  2  0  0  0  0
  6 23  1  0  0  0  0
 19 24  1  0  0  0  0
  9 25  2  0  0  0  0
 25 30  1  0  0  0  0
 11 26  1  0  0  0  0
 26 31  2  0  0  0  0
 24 27  1  0  0  0  0
 22 28  1  0  0  0  0
 23 29  2  0  0  0  0
 28 30  2  0  0  0  0
 29 31  1  0  0  0  0
M  END
> <IDNUMBER>
K841-0212

> <available>
1

> <H_acceptor>
3

> <H_donor>
0

> <B_rotN>
4

> <N_O>
5

> <logP>
5.5028

> <logD>
5.2334

> <logSw>
-5.8837

> <PSA>
32.443

> <pKa_ma>
22.2134

> <pKa_mb>
7.3342

> <N_Chirals>
0

> <Name>
2-(2-fluorophenyl)-4-[4-(4-methoxyphenyl)piperazin-1-yl]quinazoline

> <Smile>
COc(cc1)ccc1N(CC1)CCN1c1nc(-c(cccc2)c2F)nc2ccccc12

> <Color>
NOT COLORED

> <Collection>
NC

> <InChI>
InChI=1S/C25H23FN4O/c1-31-19-12-10-18(11-13-19)29-14-16-30(17-15-29)25-21-7-3-5-9-23(21)27-24(28-25)20-6-2-4-8-22(20)26/h2-13H,14-17H2,1H3

> <InChI Key>
MOWURCITASESBF-UHFFFAOYSA-N

> <PERCENTSP3>
20

> <Link>
https://www.chemdiv.com/catalog/screening-compounds/compound-K841-0212/

> <MFCDNUMBER>
MFCD15110571

> <CLNUMBER>
CL2243

> <STEREO>
ACHIRAL

> <State>
Solid

> <Similarity score>
0.22

$$$$
ethyl 4-(3,5-dimethylpiperidin-1-yl)-7-(trifluoromethyl)quinoline-3-carboxylate
  -OEChem-04222410502D

 27 29  0     0  0  0  0  0  0999 V2000
   -1.2373   -1.1830    0.0000 N   0  0  0  0  0  0  0  0  0  0  0  0
   -0.3616   -0.6811    0.0000 C   0  0  0  0  0  0  0  0  0  0  0  0
   -0.3616    0.2697    0.0000 C   0  0  0  0  0  0  0  0  0  0  0  0
    0.4743   -1.1677    0.0000 C   0  0  0  0  0  0  0  0  0  0  0  0
    2.9821   -2.6094    0.0000 C   0  0  0  0  0  0  0  0  0  0  0  0
    1.3057   -0.6811    0.0000 C   0  0  0  0  0  0  0  0  0  0  0  0
    1.3057    0.2697    0.0000 N   0  0  0  0  0  0  0  0  0  0  0  0
   -1.7437    1.2803    0.0000 C   0  0  0  0  0  0  0  0  0  0  0  0
    0.4743    0.7496    0.0000 C   0  0  0  0  0  0  0  0  0  0  0  0
    2.1307   -2.1252    0.0000 C   0  0  0  0  0  0  0  0  0  0  0  0
    2.1307   -1.1677    0.0000 C   0  0  0  0  0  0  0  0  0  0  0  0
    0.4631   -2.1252    0.0000 C   0  0  0  0  0  0  0  0  0  0  0  0
   -2.0931   -0.6967    0.0000 C   0  0  0  0  0  0  0  0  0  0  0  0
   -1.2373   -2.1960    0.0000 C   0  0  0  0  0  0  0  0  0  0  0  0
    1.3057   -2.6094    0.0000 C   0  0  0  0  0  0  0  0  0  0  0  0
   -2.5728    0.8116    0.0000 O   0  0  0  0  0  0  0  0  0  0  0  0
    3.8267   -3.0938    0.0000 F   0  0  0  0  0  0  0  0  0  0  0  0
    3.4664   -1.7691    0.0000 F   0  0  0  0  0  0  0  0  0  0  0  0
    2.4957   -3.4587    0.0000 F   0  0  0  0  0  0  0  0  0  0  0  0
   -2.9577   -1.1830    0.0000 C   0  0  3  0  0  0  0  0  0  0  0  0
   -2.1018   -2.6845    0.0000 C   0  0  3  0  0  0  0  0  0  0  0  0
   -2.9622   -2.1960    0.0000 C   0  0  0  0  0  0  0  0  0  0  0  0
   -1.7370    2.2422    0.0000 O   0  0  0  0  0  0  0  0  0  0  0  0
   -3.8267   -0.6967    0.0000 C   0  0  0  0  0  0  0  0  0  0  0  0
   -2.1063   -3.6864    0.0000 C   0  0  0  0  0  0  0  0  0  0  0  0
   -0.9033    2.7289    0.0000 C   0  0  0  0  0  0  0  0  0  0  0  0
   -0.9033    3.6864    0.0000 C   0  0  0  0  0  0  0  0  0  0  0  0
  1  2  1  0  0  0  0
  2  3  2  0  0  0  0
  2  4  1  0  0  0  0
  5 10  1  0  0  0  0
  4  6  1  0  0  0  0
  6  7  1  0  0  0  0
  3  8  1  0  0  0  0
  3  9  1  0  0  0  0
  7  9  2  0  0  0  0
 10 15  2  0  0  0  0
  6 11  2  0  0  0  0
 10 11  1  0  0  0  0
  4 12  2  0  0  0  0
  1 13  1  0  0  0  0
  1 14  1  0  0  0  0
 12 15  1  0  0  0  0
  8 16  2  0  0  0  0
  5 17  1  0  0  0  0
  5 18  1  0  0  0  0
  5 19  1  0  0  0  0
 13 20  1  0  0  0  0
 14 21  1  0  0  0  0
 21 22  1  0  0  0  0
 20 22  1  0  0  0  0
  8 23  1  0  0  0  0
 20 24  1  0  0  0  0
 21 25  1  0  0  0  0
 23 26  1  0  0  0  0
 26 27  1  0  0  0  0
M  END
> <IDNUMBER>
C053-0373

> <available>
96

> <H_acceptor>
4

> <H_donor>
0

> <B_rotN>
5

> <N_O>
4

> <logP>
5.5912

> <logD>
5.5911

> <logSw>
-5.6383

> <PSA>
32.562

> <pKa_ma>
24.8321

> <pKa_mb>
3.6214

> <N_Chirals>
2

> <Name>
ethyl 4-(3,5-dimethylpiperidin-1-yl)-7-(trifluoromethyl)quinoline-3-carboxylate

> <Smile>
CCOC(c1cnc(cc(C(F)(F)F)cc2)c2c1N1CC(C)CC(C)C1)=O

> <Color>
YELLOW

> <Collection>
DC

> <InChI>
InChI=1S/C20H23F3N2O2/c1-4-27-19(26)16-9-24-17-8-14(20(21,22)23)5-6-15(17)18(16)25-10-12(2)7-13(3)11-25/h5-6,8-9,12-13H,4,7,10-11H2,1-3H3

> <InChI Key>
WANLVCFJSVAVHO-UHFFFAOYSA-N

> <PERCENTSP3>
50

> <Link>
https://www.chemdiv.com/catalog/screening-compounds/compound-C053-0373/

> <MFCDNUMBER>
MFCD14714068

> <CLNUMBER>
CL1568

> <STEREO>
MIXTURE OF STEREOISOMERS

> <State>
Solid

> <Similarity score>
0.22

$$$$
4-(2-{2-[(2,7-dimethoxynaphthalen-1-yl)methylidene]hydrazinyl}-5-fluoropyrimidin
  -OEChem-04222410502D

 30 33  0     0  0  0  0  0  0999 V2000
   -0.8632   -0.0960    0.0000 N   0  0  0  0  0  0  0  0  0  0  0  0
   -1.7262    0.4038    0.0000 C   0  0  0  0  0  0  0  0  0  0  0  0
    2.5994   -1.0901    0.0000 C   0  0  0  0  0  0  0  0  0  0  0  0
    0.0102    0.4038    0.0000 C   0  0  0  0  0  0  0  0  0  0  0  0
    2.5893   -0.0656    0.0000 C   0  0  0  0  0  0  0  0  0  0  0  0
   -1.7262    1.3933    0.0000 C   0  0  0  0  0  0  0  0  0  0  0  0
   -2.5944   -0.0960    0.0000 N   0  0  0  0  0  0  0  0  0  0  0  0
    0.0102    1.4082    0.0000 N   0  0  0  0  0  0  0  0  0  0  0  0
    0.8632   -1.0953    0.0000 N   0  0  0  0  0  0  0  0  0  0  0  0
    3.4625   -1.5747    0.0000 C   0  0  0  0  0  0  0  0  0  0  0  0
   -0.8632    1.9029    0.0000 C   0  0  0  0  0  0  0  0  0  0  0  0
    3.4472    0.4241    0.0000 C   0  0  0  0  0  0  0  0  0  0  0  0
    1.7110    0.4187    0.0000 C   0  0  0  0  0  0  0  0  0  0  0  0
    0.8632   -0.0960    0.0000 N   0  0  0  0  0  0  0  0  0  0  0  0
    1.7413   -1.5950    0.0000 C   0  0  0  0  0  0  0  0  0  0  0  0
    4.3307   -1.0499    0.0000 C   0  0  0  0  0  0  0  0  0  0  0  0
    4.3155   -0.0656    0.0000 C   0  0  0  0  0  0  0  0  0  0  0  0
   -4.3307   -1.0901    0.0000 O   0  0  0  0  0  0  0  0  0  0  0  0
   -2.5944    1.9029    0.0000 F   0  0  0  0  0  0  0  0  0  0  0  0
    3.4472    1.4182    0.0000 C   0  0  0  0  0  0  0  0  0  0  0  0
    1.7110    1.4082    0.0000 C   0  0  0  0  0  0  0  0  0  0  0  0
    2.5741    1.9181    0.0000 C   0  0  0  0  0  0  0  0  0  0  0  0
    3.4828   -2.5640    0.0000 O   0  0  0  0  0  0  0  0  0  0  0  0
   -2.5944   -1.0901    0.0000 C   0  0  0  0  0  0  0  0  0  0  0  0
   -3.4675    0.4038    0.0000 C   0  0  0  0  0  0  0  0  0  0  0  0
    1.4636    2.3771    0.0000 O   0  0  0  0  0  0  0  0  0  0  0  0
   -3.4675   -1.5950    0.0000 C   0  0  0  0  0  0  0  0  0  0  0  0
   -4.3307   -0.0808    0.0000 C   0  0  0  0  0  0  0  0  0  0  0  0
    2.6147   -3.0890    0.0000 C   0  0  0  0  0  0  0  0  0  0  0  0
    2.1501    3.0890    0.0000 C   0  0  0  0  0  0  0  0  0  0  0  0
  1  2  1  0  0  0  0
  3 15  1  0  0  0  0
  1  4  2  0  0  0  0
  3  5  2  0  0  0  0
  2  6  2  0  0  0  0
  6 11  1  0  0  0  0
  2  7  1  0  0  0  0
  4  8  1  0  0  0  0
  9 14  1  0  0  0  0
  3 10  1  0  0  0  0
  8 11  2  0  0  0  0
  5 12  1  0  0  0  0
 12 17  2  0  0  0  0
  5 13  1  0  0  0  0
  4 14  1  0  0  0  0
  9 15  2  0  0  0  0
 10 16  2  0  0  0  0
 16 17  1  0  0  0  0
 18 28  1  0  0  0  0
  6 19  1  0  0  0  0
 12 20  1  0  0  0  0
 20 22  2  0  0  0  0
 13 21  2  0  0  0  0
 21 22  1  0  0  0  0
 10 23  1  0  0  0  0
  7 24  1  0  0  0  0
  7 25  1  0  0  0  0
 21 26  1  0  0  0  0
 24 27  1  0  0  0  0
 18 27  1  0  0  0  0
 25 28  1  0  0  0  0
 23 29  1  0  0  0  0
 26 30  1  0  0  0  0
M  END
> <IDNUMBER>
5277-0218

> <available>
6

> <H_acceptor>
6

> <H_donor>
1

> <B_rotN>
6

> <N_O>
8

> <logP>
4.4921

> <logD>
4.4864

> <logSw>
-4.2883

> <PSA>
67.799

> <pKa_ma>
11.9267

> <pKa_mb>
5.5238

> <N_Chirals>
0

> <Name>
4-(2-{2-[(2,7-dimethoxynaphthalen-1-yl)methylidene]hydrazinyl}-5-fluoropyrimidin-4-yl)morpholine

> <Smile>
COc1ccc(ccc(OC)c2/C=N\Nc(nc3)nc(N4CCOCC4)c3F)c2c1

> <Color>
ORANGE

> <Collection>
DC

> <InChI>
InChI=1S/C21H22FN5O3/c1-28-15-5-3-14-4-6-19(29-2)17(16(14)11-15)12-24-26-21-23-13-18(22)20(25-21)27-7-9-30-10-8-27/h3-6,11-13H,7-10H2,1-2H3,(H,23,25,26)

> <InChI Key>
VWHJBZGIZIJXKA-UHFFFAOYSA-N

> <PERCENTSP3>
28.6

> <Link>
https://www.chemdiv.com/catalog/screening-compounds/compound-5277-0218/

> <MFCDNUMBER>
MFCD03448739

> <STEREO>
ACHIRAL

> <State>
Solid

> <Similarity score>
0.22

$$$$
2-(2-fluorophenyl)-4-[4-(4-fluorophenyl)piperazin-1-yl]quinazoline
  -OEChem-04222410502D

 30 34  0     0  0  0  0  0  0999 V2000
    1.7168    0.5113    0.0000 N   0  0  0  0  0  0  0  0  0  0  0  0
    2.5828    1.0127    0.0000 C   0  0  0  0  0  0  0  0  0  0  0  0
    1.7168   -0.4863    0.0000 C   0  0  0  0  0  0  0  0  0  0  0  0
    3.4589    0.5113    0.0000 N   0  0  0  0  0  0  0  0  0  0  0  0
    2.5828   -0.9877    0.0000 C   0  0  0  0  0  0  0  0  0  0  0  0
    2.5930    2.0000    0.0000 C   0  0  0  0  0  0  0  0  0  0  0  0
    0.8506   -0.9824    0.0000 N   0  0  0  0  0  0  0  0  0  0  0  0
   -0.8711   -1.9902    0.0000 N   0  0  0  0  0  0  0  0  0  0  0  0
    3.4489   -0.4863    0.0000 C   0  0  0  0  0  0  0  0  0  0  0  0
   -1.7421   -2.4916    0.0000 C   0  0  0  0  0  0  0  0  0  0  0  0
    3.4589    2.5114    0.0000 C   0  0  0  0  0  0  0  0  0  0  0  0
   -0.0153   -0.4815    0.0000 C   0  0  0  0  0  0  0  0  0  0  0  0
    0.8506   -1.9752    0.0000 C   0  0  0  0  0  0  0  0  0  0  0  0
   -0.8763   -0.9877    0.0000 C   0  0  0  0  0  0  0  0  0  0  0  0
   -0.0153   -2.4868    0.0000 C   0  0  0  0  0  0  0  0  0  0  0  0
   -1.7370   -3.4944    0.0000 C   0  0  0  0  0  0  0  0  0  0  0  0
   -2.6081   -2.0004    0.0000 C   0  0  0  0  0  0  0  0  0  0  0  0
   -3.4740   -3.5046    0.0000 C   0  0  0  0  0  0  0  0  0  0  0  0
    4.3399    2.0000    0.0000 F   0  0  0  0  0  0  0  0  0  0  0  0
   -3.4740   -2.5018    0.0000 C   0  0  0  0  0  0  0  0  0  0  0  0
   -2.6081   -3.9956    0.0000 C   0  0  0  0  0  0  0  0  0  0  0  0
    2.5828   -1.9752    0.0000 C   0  0  0  0  0  0  0  0  0  0  0  0
   -4.3399   -4.0056    0.0000 F   0  0  0  0  0  0  0  0  0  0  0  0
    1.7270    2.5014    0.0000 C   0  0  0  0  0  0  0  0  0  0  0  0
    4.3147   -0.9724    0.0000 C   0  0  0  0  0  0  0  0  0  0  0  0
    3.4639    3.5042    0.0000 C   0  0  0  0  0  0  0  0  0  0  0  0
    3.4489   -2.4766    0.0000 C   0  0  0  0  0  0  0  0  0  0  0  0
    1.7270    3.5042    0.0000 C   0  0  0  0  0  0  0  0  0  0  0  0
    4.3147   -1.9752    0.0000 C   0  0  0  0  0  0  0  0  0  0  0  0
    2.5930    4.0056    0.0000 C   0  0  0  0  0  0  0  0  0  0  0  0
  1  2  1  0  0  0  0
  1  3  2  0  0  0  0
  2  4  2  0  0  0  0
  3  5  1  0  0  0  0
  2  6  1  0  0  0  0
  3  7  1  0  0  0  0
  8 15  1  0  0  0  0
  5  9  1  0  0  0  0
  4  9  1  0  0  0  0
  8 10  1  0  0  0  0
  6 11  2  0  0  0  0
  7 12  1  0  0  0  0
  7 13  1  0  0  0  0
 12 14  1  0  0  0  0
  8 14  1  0  0  0  0
 13 15  1  0  0  0  0
 10 16  2  0  0  0  0
 10 17  1  0  0  0  0
 18 20  1  0  0  0  0
 18 21  2  0  0  0  0
 11 19  1  0  0  0  0
 17 20  2  0  0  0  0
 16 21  1  0  0  0  0
  5 22  2  0  0  0  0
 18 23  1  0  0  0  0
  6 24  1  0  0  0  0
  9 25  2  0  0  0  0
 25 29  1  0  0  0  0
 11 26  1  0  0  0  0
 26 30  2  0  0  0  0
 22 27  1  0  0  0  0
 24 28  2  0  0  0  0
 27 29  2  0  0  0  0
 28 30  1  0  0  0  0
M  END
> <IDNUMBER>
K841-0206

> <available>
74

> <H_acceptor>
2

> <H_donor>
0

> <B_rotN>
3

> <N_O>
4

> <logP>
5.5495

> <logD>
5.2801

> <logSw>
-6.3354

> <PSA>
24.8988

> <pKa_ma>
22.2134

> <pKa_mb>
7.3342

> <N_Chirals>
0

> <Name>
2-(2-fluorophenyl)-4-[4-(4-fluorophenyl)piperazin-1-yl]quinazoline

> <Smile>
Fc(cc1)ccc1N(CC1)CCN1c1nc(-c(cccc2)c2F)nc2ccccc12

> <Color>
YELLOW

> <Collection>
NC

> <InChI>
InChI=1S/C24H20F2N4/c25-17-9-11-18(12-10-17)29-13-15-30(16-14-29)24-20-6-2-4-8-22(20)27-23(28-24)19-5-1-3-7-21(19)26/h1-12H,13-16H2

> <InChI Key>
ROIPTQGVYBJLHD-UHFFFAOYSA-N

> <PERCENTSP3>
16.7

> <Link>
https://www.chemdiv.com/catalog/screening-compounds/compound-K841-0206/

> <MFCDNUMBER>
MFCD15110567

> <CLNUMBER>
CL2243

> <STEREO>
ACHIRAL

> <State>
Solid

> <Similarity score>
0.22

$$$$
2-(3,4-dimethoxyphenyl)-4-[4-(2-fluorophenyl)piperazin-1-yl]quinazoline
  -OEChem-04222410502D

 33 37  0     0  0  0  0  0  0999 V2000
   -0.4447   -1.0090    0.0000 N   0  0  0  0  0  0  0  0  0  0  0  0
   -1.3010   -0.4911    0.0000 C   0  0  0  0  0  0  0  0  0  0  0  0
   -0.4447   -1.9977    0.0000 C   0  0  0  0  0  0  0  0  0  0  0  0
   -2.1639   -1.0090    0.0000 C   0  0  0  0  0  0  0  0  0  0  0  0
   -1.3010   -2.5023    0.0000 N   0  0  0  0  0  0  0  0  0  0  0  0
   -1.3010    0.5245    0.0000 N   0  0  0  0  0  0  0  0  0  0  0  0
   -1.3010    2.4957    0.0000 N   0  0  0  0  0  0  0  0  0  0  0  0
   -2.1639   -1.9977    0.0000 C   0  0  0  0  0  0  0  0  0  0  0  0
    0.4117   -2.5023    0.0000 C   0  0  0  0  0  0  0  0  0  0  0  0
   -1.3010    3.5113    0.0000 C   0  0  0  0  0  0  0  0  0  0  0  0
    0.4117   -3.4980    0.0000 C   0  0  0  0  0  0  0  0  0  0  0  0
    1.3075   -4.0089    0.0000 C   0  0  0  0  0  0  0  0  0  0  0  0
   -0.4447    1.0021    0.0000 C   0  0  0  0  0  0  0  0  0  0  0  0
   -2.1639    1.0021    0.0000 C   0  0  0  0  0  0  0  0  0  0  0  0
   -0.4447    2.0179    0.0000 C   0  0  0  0  0  0  0  0  0  0  0  0
   -2.1639    2.0179    0.0000 C   0  0  0  0  0  0  0  0  0  0  0  0
    2.1639   -3.4980    0.0000 C   0  0  0  0  0  0  0  0  0  0  0  0
   -0.4447    3.9891    0.0000 C   0  0  0  0  0  0  0  0  0  0  0  0
    1.3075   -1.9977    0.0000 C   0  0  0  0  0  0  0  0  0  0  0  0
    2.1639   -2.5023    0.0000 C   0  0  0  0  0  0  0  0  0  0  0  0
    0.4049    3.4714    0.0000 F   0  0  0  0  0  0  0  0  0  0  0  0
    1.3075   -4.9914    0.0000 O   0  0  0  0  0  0  0  0  0  0  0  0
   -3.0202   -0.4911    0.0000 C   0  0  0  0  0  0  0  0  0  0  0  0
    3.0332   -4.0089    0.0000 O   0  0  0  0  0  0  0  0  0  0  0  0
   -3.0202   -2.5023    0.0000 C   0  0  0  0  0  0  0  0  0  0  0  0
   -2.1639    3.9891    0.0000 C   0  0  0  0  0  0  0  0  0  0  0  0
   -0.4447    5.0112    0.0000 C   0  0  0  0  0  0  0  0  0  0  0  0
    0.4117   -5.5025    0.0000 C   0  0  0  0  0  0  0  0  0  0  0  0
    3.8896   -3.5310    0.0000 C   0  0  0  0  0  0  0  0  0  0  0  0
   -3.8896   -1.0090    0.0000 C   0  0  0  0  0  0  0  0  0  0  0  0
   -3.8896   -1.9977    0.0000 C   0  0  0  0  0  0  0  0  0  0  0  0
   -2.1639    5.0112    0.0000 C   0  0  0  0  0  0  0  0  0  0  0  0
   -1.3010    5.5025    0.0000 C   0  0  0  0  0  0  0  0  0  0  0  0
  1  2  1  0  0  0  0
  1  3  2  0  0  0  0
  2  4  2  0  0  0  0
  3  5  1  0  0  0  0
  2  6  1  0  0  0  0
  7 16  1  0  0  0  0
  7 15  1  0  0  0  0
  5  8  2  0  0  0  0
  4  8  1  0  0  0  0
  3  9  1  0  0  0  0
  7 10  1  0  0  0  0
  9 11  2  0  0  0  0
 11 12  1  0  0  0  0
 12 17  2  0  0  0  0
  6 13  1  0  0  0  0
  6 14  1  0  0  0  0
 13 15  1  0  0  0  0
 14 16  1  0  0  0  0
 17 20  1  0  0  0  0
 10 18  2  0  0  0  0
  9 19  1  0  0  0  0
 19 20  2  0  0  0  0
 18 21  1  0  0  0  0
 12 22  1  0  0  0  0
  4 23  1  0  0  0  0
 17 24  1  0  0  0  0
  8 25  1  0  0  0  0
 10 26  1  0  0  0  0
 18 27  1  0  0  0  0
 27 33  2  0  0  0  0
 22 28  1  0  0  0  0
 24 29  1  0  0  0  0
 23 30  2  0  0  0  0
 25 31  2  0  0  0  0
 30 31  1  0  0  0  0
 26 32  2  0  0  0  0
 32 33  1  0  0  0  0
M  END
> <IDNUMBER>
3909-7779

> <available>
2

> <H_acceptor>
4

> <H_donor>
0

> <B_rotN>
5

> <N_O>
6

> <logP>
6.0684

> <logD>
4.2857

> <logSw>
-5.9693

> <PSA>
39.859

> <pKa_ma>
22.2134

> <pKa_mb>
9.1755

> <N_Chirals>
0

> <Name>
2-(3,4-dimethoxyphenyl)-4-[4-(2-fluorophenyl)piperazin-1-yl]quinazoline

> <Smile>
COc(ccc(-c1nc2ccccc2c(N(CC2)CCN2c(cccc2)c2F)n1)c1)c1OC

> <Color>
YELLOW

> <Collection>
NC

> <InChI>
InChI=1S/C26H25FN4O2/c1-32-23-12-11-18(17-24(23)33-2)25-28-21-9-5-3-7-19(21)26(29-25)31-15-13-30(14-16-31)22-10-6-4-8-20(22)27/h3-12,17H,13-16H2,1-2H3

> <InChI Key>
CHDMSTYPWGTFER-UHFFFAOYSA-N

> <PERCENTSP3>
23.1

> <Link>
https://www.chemdiv.com/catalog/screening-compounds/compound-3909-7779/

> <MFCDNUMBER>
MFCD14708883

> <CLNUMBER>
CL2243

> <STEREO>
ACHIRAL

> <State>
Solid

> <Similarity score>
0.22

$$$$
4-[4-(4-fluorophenyl)piperazin-1-yl]-2-(3-methylphenyl)quinazoline
  -OEChem-04222410502D

 30 34  0     0  0  0  0  0  0999 V2000
    0.0067   -2.2723    0.0000 N   0  0  0  0  0  0  0  0  0  0  0  0
   -0.8637   -1.7539    0.0000 C   0  0  0  0  0  0  0  0  0  0  0  0
    0.0067   -3.2622    0.0000 C   0  0  0  0  0  0  0  0  0  0  0  0
   -1.7207   -2.2723    0.0000 C   0  0  0  0  0  0  0  0  0  0  0  0
   -0.8637   -3.7674    0.0000 N   0  0  0  0  0  0  0  0  0  0  0  0
   -0.8637   -0.7375    0.0000 N   0  0  0  0  0  0  0  0  0  0  0  0
   -0.8637    1.2358    0.0000 N   0  0  0  0  0  0  0  0  0  0  0  0
   -1.7207   -3.2622    0.0000 C   0  0  0  0  0  0  0  0  0  0  0  0
    0.8638   -3.7674    0.0000 C   0  0  0  0  0  0  0  0  0  0  0  0
   -0.8637    2.2723    0.0000 C   0  0  0  0  0  0  0  0  0  0  0  0
   -1.7207   -0.2592    0.0000 C   0  0  0  0  0  0  0  0  0  0  0  0
    0.0067   -0.2592    0.0000 C   0  0  0  0  0  0  0  0  0  0  0  0
   -1.7207    0.7574    0.0000 C   0  0  0  0  0  0  0  0  0  0  0  0
    0.0067    0.7574    0.0000 C   0  0  0  0  0  0  0  0  0  0  0  0
    1.7275   -3.2622    0.0000 C   0  0  0  0  0  0  0  0  0  0  0  0
    0.0067    2.7375    0.0000 C   0  0  0  0  0  0  0  0  0  0  0  0
   -1.7207    2.7375    0.0000 C   0  0  0  0  0  0  0  0  0  0  0  0
   -0.8637    4.2323    0.0000 C   0  0  0  0  0  0  0  0  0  0  0  0
    2.5847   -3.7674    0.0000 C   0  0  0  0  0  0  0  0  0  0  0  0
   -1.7207    3.7672    0.0000 C   0  0  0  0  0  0  0  0  0  0  0  0
    0.0067    3.7672    0.0000 C   0  0  0  0  0  0  0  0  0  0  0  0
   -2.5778   -1.7539    0.0000 C   0  0  0  0  0  0  0  0  0  0  0  0
   -0.8637    5.2622    0.0000 F   0  0  0  0  0  0  0  0  0  0  0  0
    0.8638   -4.7573    0.0000 C   0  0  0  0  0  0  0  0  0  0  0  0
   -2.5778   -3.7674    0.0000 C   0  0  0  0  0  0  0  0  0  0  0  0
    1.7275   -5.2622    0.0000 C   0  0  0  0  0  0  0  0  0  0  0  0
    2.5847   -4.7573    0.0000 C   0  0  0  0  0  0  0  0  0  0  0  0
    3.4418   -3.2622    0.0000 C   0  0  0  0  0  0  0  0  0  0  0  0
   -3.4418   -2.2723    0.0000 C   0  0  0  0  0  0  0  0  0  0  0  0
   -3.4418   -3.2622    0.0000 C   0  0  0  0  0  0  0  0  0  0  0  0
  1  2  1  0  0  0  0
  1  3  2  0  0  0  0
  2  4  2  0  0  0  0
  4  8  1  0  0  0  0
  3  5  1  0  0  0  0
  2  6  1  0  0  0  0
  7 14  1  0  0  0  0
  7 13  1  0  0  0  0
  5  8  2  0  0  0  0
  3  9  1  0  0  0  0
  7 10  1  0  0  0  0
  6 11  1  0  0  0  0
  6 12  1  0  0  0  0
 11 13  1  0  0  0  0
 12 14  1  0  0  0  0
  9 15  1  0  0  0  0
 10 16  2  0  0  0  0
 10 17  1  0  0  0  0
 18 20  1  0  0  0  0
 15 19  2  0  0  0  0
 17 20  2  0  0  0  0
 16 21  1  0  0  0  0
 18 21  2  0  0  0  0
  4 22  1  0  0  0  0
 18 23  1  0  0  0  0
  9 24  2  0  0  0  0
  8 25  1  0  0  0  0
 24 26  1  0  0  0  0
 26 27  2  0  0  0  0
 19 27  1  0  0  0  0
 19 28  1  0  0  0  0
 22 29  2  0  0  0  0
 29 30  1  0  0  0  0
 25 30  2  0  0  0  0
M  END
> <IDNUMBER>
3909-7888

> <available>
10

> <H_acceptor>
2

> <H_donor>
0

> <B_rotN>
3

> <N_O>
4

> <logP>
6.7873

> <logD>
5.8891

> <logSw>
-6.2325

> <PSA>
24.8988

> <pKa_ma>
22.2134

> <pKa_mb>
8.2395

> <N_Chirals>
0

> <Name>
4-[4-(4-fluorophenyl)piperazin-1-yl]-2-(3-methylphenyl)quinazoline

> <Smile>
Cc1cccc(-c2nc3ccccc3c(N(CC3)CCN3c(cc3)ccc3F)n2)c1

> <Color>
YELLOW

> <Collection>
NC

> <InChI>
InChI=1S/C25H23FN4/c1-18-5-4-6-19(17-18)24-27-23-8-3-2-7-22(23)25(28-24)30-15-13-29(14-16-30)21-11-9-20(26)10-12-21/h2-12,17H,13-16H2,1H3

> <InChI Key>
OBRCEIRRFGDREA-UHFFFAOYSA-N

> <PERCENTSP3>
20

> <Link>
https://www.chemdiv.com/catalog/screening-compounds/compound-3909-7888/

> <MFCDNUMBER>
MFCD14708905

> <CLNUMBER>
CL2243

> <STEREO>
ACHIRAL

> <State>
Solid

> <Similarity score>
0.22

$$$$
2-(3,4-dimethoxyphenyl)-4-[4-(4-fluorophenyl)piperazin-1-yl]quinazoline
  -OEChem-04222410502D

 33 37  0     0  0  0  0  0  0999 V2000
   -0.4475   -1.4904    0.0000 N   0  0  0  0  0  0  0  0  0  0  0  0
   -1.3138   -0.9998    0.0000 C   0  0  0  0  0  0  0  0  0  0  0  0
   -0.4475   -2.4938    0.0000 C   0  0  0  0  0  0  0  0  0  0  0  0
   -2.1798   -1.4904    0.0000 C   0  0  0  0  0  0  0  0  0  0  0  0
   -1.3138   -3.0136    0.0000 N   0  0  0  0  0  0  0  0  0  0  0  0
   -1.3138    0.0036    0.0000 N   0  0  0  0  0  0  0  0  0  0  0  0
   -1.3138    2.0103    0.0000 N   0  0  0  0  0  0  0  0  0  0  0  0
   -2.1798   -2.4938    0.0000 C   0  0  0  0  0  0  0  0  0  0  0  0
    0.4187   -3.0136    0.0000 C   0  0  0  0  0  0  0  0  0  0  0  0
    0.4187   -3.9808    0.0000 C   0  0  0  0  0  0  0  0  0  0  0  0
    1.2849   -4.5005    0.0000 C   0  0  0  0  0  0  0  0  0  0  0  0
   -1.3138    2.9846    0.0000 C   0  0  0  0  0  0  0  0  0  0  0  0
   -0.4475    0.5234    0.0000 C   0  0  0  0  0  0  0  0  0  0  0  0
   -2.1798    0.5234    0.0000 C   0  0  0  0  0  0  0  0  0  0  0  0
   -0.4475    1.4906    0.0000 C   0  0  0  0  0  0  0  0  0  0  0  0
   -2.1798    1.4906    0.0000 C   0  0  0  0  0  0  0  0  0  0  0  0
    2.1510   -3.9808    0.0000 C   0  0  0  0  0  0  0  0  0  0  0  0
    1.2849   -2.4938    0.0000 C   0  0  0  0  0  0  0  0  0  0  0  0
    2.1510   -3.0136    0.0000 C   0  0  0  0  0  0  0  0  0  0  0  0
   -0.4475    3.5044    0.0000 C   0  0  0  0  0  0  0  0  0  0  0  0
   -2.1798    3.5044    0.0000 C   0  0  0  0  0  0  0  0  0  0  0  0
   -1.3138    4.9984    0.0000 C   0  0  0  0  0  0  0  0  0  0  0  0
    1.2849   -5.5039    0.0000 O   0  0  0  0  0  0  0  0  0  0  0  0
   -2.1798    4.4788    0.0000 C   0  0  0  0  0  0  0  0  0  0  0  0
   -0.4475    4.4788    0.0000 C   0  0  0  0  0  0  0  0  0  0  0  0
   -3.0460   -0.9998    0.0000 C   0  0  0  0  0  0  0  0  0  0  0  0
   -1.3138    5.9947    0.0000 F   0  0  0  0  0  0  0  0  0  0  0  0
    3.0462   -4.5005    0.0000 O   0  0  0  0  0  0  0  0  0  0  0  0
   -3.0460   -3.0136    0.0000 C   0  0  0  0  0  0  0  0  0  0  0  0
    0.4187   -5.9947    0.0000 C   0  0  0  0  0  0  0  0  0  0  0  0
    3.9123   -3.9808    0.0000 C   0  0  0  0  0  0  0  0  0  0  0  0
   -3.9123   -1.4904    0.0000 C   0  0  0  0  0  0  0  0  0  0  0  0
   -3.9123   -2.4938    0.0000 C   0  0  0  0  0  0  0  0  0  0  0  0
  1  2  1  0  0  0  0
  1  3  2  0  0  0  0
  2  4  2  0  0  0  0
  3  5  1  0  0  0  0
  2  6  1  0  0  0  0
  7 16  1  0  0  0  0
  5  8  2  0  0  0  0
  4  8  1  0  0  0  0
  3  9  1  0  0  0  0
  9 10  2  0  0  0  0
 10 11  1  0  0  0  0
 11 17  2  0  0  0  0
  7 12  1  0  0  0  0
  6 13  1  0  0  0  0
  6 14  1  0  0  0  0
 13 15  1  0  0  0  0
  7 15  1  0  0  0  0
 14 16  1  0  0  0  0
 17 19  1  0  0  0  0
  9 18  1  0  0  0  0
 18 19  2  0  0  0  0
 12 20  2  0  0  0  0
 12 21  1  0  0  0  0
 22 24  1  0  0  0  0
 22 25  2  0  0  0  0
 11 23  1  0  0  0  0
 21 24  2  0  0  0  0
 20 25  1  0  0  0  0
  4 26  1  0  0  0  0
 22 27  1  0  0  0  0
 17 28  1  0  0  0  0
  8 29  1  0  0  0  0
 23 30  1  0  0  0  0
 28 31  1  0  0  0  0
 26 32  2  0  0  0  0
 29 33  2  0  0  0  0
 32 33  1  0  0  0  0
M  END
> <IDNUMBER>
3909-7818

> <available>
1

> <H_acceptor>
4

> <H_donor>
0

> <B_rotN>
5

> <N_O>
6

> <logP>
6.0405

> <logD>
4.2578

> <logSw>
-5.9878

> <PSA>
40.16

> <pKa_ma>
22.2134

> <pKa_mb>
9.1755

> <N_Chirals>
0

> <Name>
2-(3,4-dimethoxyphenyl)-4-[4-(4-fluorophenyl)piperazin-1-yl]quinazoline

> <Smile>
COc(ccc(-c1nc2ccccc2c(N(CC2)CCN2c(cc2)ccc2F)n1)c1)c1OC

> <Color>
YELLOW

> <Collection>
DC

> <InChI>
InChI=1S/C26H25FN4O2/c1-32-23-12-7-18(17-24(23)33-2)25-28-22-6-4-3-5-21(22)26(29-25)31-15-13-30(14-16-31)20-10-8-19(27)9-11-20/h3-12,17H,13-16H2,1-2H3

> <InChI Key>
SDQONDHJBVWTDG-UHFFFAOYSA-N

> <PERCENTSP3>
23.1

> <Link>
https://www.chemdiv.com/catalog/screening-compounds/compound-3909-7818/

> <MFCDNUMBER>
MFCD02644378

> <CLNUMBER>
CL2243

> <STEREO>
ACHIRAL

> <State>
Solid

> <Similarity score>
0.22

$$$$
3-(4-ethoxyphenyl)-6,8-difluoro-1-(4-methylphenyl)-1H-pyrazolo[4,3-c]quinoline
  -OEChem-04222410502D

 31 35  0     0  0  0  0  0  0999 V2000
   -1.5767    0.4401    0.0000 N   0  0  0  0  0  0  0  0  0  0  0  0
   -0.9116   -1.0289    0.0000 C   0  0  0  0  0  0  0  0  0  0  0  0
   -1.7895   -0.5317    0.0000 C   0  0  0  0  0  0  0  0  0  0  0  0
   -0.5755    0.5409    0.0000 N   0  0  0  0  0  0  0  0  0  0  0  0
   -0.1522   -0.3503    0.0000 C   0  0  0  0  0  0  0  0  0  0  0  0
   -2.6743   -1.0289    0.0000 C   0  0  0  0  0  0  0  0  0  0  0  0
   -2.6743   -2.0258    0.0000 C   0  0  0  0  0  0  0  0  0  0  0  0
   -1.7895   -2.5205    0.0000 N   0  0  0  0  0  0  0  0  0  0  0  0
   -0.9116   -2.0258    0.0000 C   0  0  0  0  0  0  0  0  0  0  0  0
   -3.5364   -2.5205    0.0000 C   0  0  0  0  0  0  0  0  0  0  0  0
   -2.2060    1.2106    0.0000 C   0  0  0  0  0  0  0  0  0  0  0  0
   -4.4121   -2.0258    0.0000 C   0  0  0  0  0  0  0  0  0  0  0  0
    0.8556   -0.4557    0.0000 C   0  0  0  0  0  0  0  0  0  0  0  0
   -3.5364   -0.5317    0.0000 C   0  0  0  0  0  0  0  0  0  0  0  0
   -4.4121   -1.0289    0.0000 C   0  0  0  0  0  0  0  0  0  0  0  0
   -1.8432    2.1332    0.0000 C   0  0  0  0  0  0  0  0  0  0  0  0
   -3.1736    1.0561    0.0000 C   0  0  0  0  0  0  0  0  0  0  0  0
    1.2676   -1.3559    0.0000 C   0  0  0  0  0  0  0  0  0  0  0  0
    1.4333    0.3595    0.0000 C   0  0  0  0  0  0  0  0  0  0  0  0
   -3.5364   -3.5175    0.0000 F   0  0  0  0  0  0  0  0  0  0  0  0
   -5.2721   -0.5317    0.0000 F   0  0  0  0  0  0  0  0  0  0  0  0
    2.8802   -0.6371    0.0000 C   0  0  0  0  0  0  0  0  0  0  0  0
    2.4456    0.2745    0.0000 C   0  0  0  0  0  0  0  0  0  0  0  0
    2.2754   -1.4521    0.0000 C   0  0  0  0  0  0  0  0  0  0  0  0
   -3.7985    1.8152    0.0000 C   0  0  0  0  0  0  0  0  0  0  0  0
   -2.4794    2.9038    0.0000 C   0  0  0  0  0  0  0  0  0  0  0  0
   -3.4446    2.7471    0.0000 C   0  0  0  0  0  0  0  0  0  0  0  0
    3.8657   -0.7266    0.0000 O   0  0  0  0  0  0  0  0  0  0  0  0
    4.2844   -1.6427    0.0000 C   0  0  0  0  0  0  0  0  0  0  0  0
   -4.0786    3.5175    0.0000 C   0  0  0  0  0  0  0  0  0  0  0  0
    5.2721   -1.7390    0.0000 C   0  0  0  0  0  0  0  0  0  0  0  0
  2  3  2  0  0  0  0
  2  5  1  0  0  0  0
  1  3  1  0  0  0  0
  1  4  1  0  0  0  0
  4  5  2  0  0  0  0
  3  6  1  0  0  0  0
  6  7  1  0  0  0  0
  7  8  1  0  0  0  0
  8  9  2  0  0  0  0
  2  9  1  0  0  0  0
  7 10  2  0  0  0  0
  1 11  1  0  0  0  0
 12 15  2  0  0  0  0
 10 12  1  0  0  0  0
  5 13  1  0  0  0  0
  6 14  2  0  0  0  0
 14 15  1  0  0  0  0
 11 16  2  0  0  0  0
 11 17  1  0  0  0  0
 13 18  2  0  0  0  0
 13 19  1  0  0  0  0
 10 20  1  0  0  0  0
 15 21  1  0  0  0  0
 22 23  1  0  0  0  0
 19 23  2  0  0  0  0
 18 24  1  0  0  0  0
 22 24  2  0  0  0  0
 17 25  2  0  0  0  0
 16 26  1  0  0  0  0
 26 27  2  0  0  0  0
 25 27  1  0  0  0  0
 22 28  1  0  0  0  0
 28 29  1  0  0  0  0
 27 30  1  0  0  0  0
 29 31  1  0  0  0  0
M  END
> <IDNUMBER>
C350-0828

> <available>
170

> <H_acceptor>
3

> <H_donor>
0

> <B_rotN>
4

> <N_O>
4

> <logP>
6.219

> <logD>
6.219

> <logSw>
-5.5614

> <PSA>
30.6039

> <pKa_ma>
28.3737

> <pKa_mb>
2.3022

> <N_Chirals>
0

> <Name>
3-(4-ethoxyphenyl)-6,8-difluoro-1-(4-methylphenyl)-1H-pyrazolo[4,3-c]quinoline

> <Smile>
CCOc(cc1)ccc1-c(c1cnc2c(F)cc(F)cc2c11)nn1-c1ccc(C)cc1

> <Color>
NOT COLORED

> <Collection>
DC

> <InChI>
InChI=1S/C25H19F2N3O/c1-3-31-19-10-6-16(7-11-19)23-21-14-28-24-20(12-17(26)13-22(24)27)25(21)30(29-23)18-8-4-15(2)5-9-18/h4-14H,3H2,1-2H3

> <InChI Key>
PZUQLGDLBXFWIG-UHFFFAOYSA-N

> <PERCENTSP3>
12

> <Link>
https://www.chemdiv.com/catalog/screening-compounds/compound-C350-0828/

> <MFCDNUMBER>
MFCD14750694

> <CLNUMBER>
CL4130

> <STEREO>
ACHIRAL

> <State>
Solid

> <Similarity score>
0.22

$$$$
3-(4-ethoxyphenyl)-8-fluoro-1H-pyrazolo[4,3-c]quinoline
  -OEChem-04222410502D

 23 26  0     0  0  0  0  0  0999 V2000
   -0.4887   -0.0405    0.0000 C   0  0  0  0  0  0  0  0  0  0  0  0
   -0.1412    1.5464    0.0000 N   0  0  0  0  0  0  0  0  0  0  0  0
   -1.3551    0.4735    0.0000 C   0  0  0  0  0  0  0  0  0  0  0  0
   -1.1384    1.4558    0.0000 N   0  0  0  0  0  0  0  0  0  0  0  0
    0.2619    0.6298    0.0000 C   0  0  0  0  0  0  0  0  0  0  0  0
   -2.2265   -0.0405    0.0000 C   0  0  0  0  0  0  0  0  0  0  0  0
   -0.4887   -1.0479    0.0000 C   0  0  0  0  0  0  0  0  0  0  0  0
   -1.3652   -1.5464    0.0000 N   0  0  0  0  0  0  0  0  0  0  0  0
   -2.2265   -1.0479    0.0000 C   0  0  0  0  0  0  0  0  0  0  0  0
    1.2344    0.4181    0.0000 C   0  0  0  0  0  0  0  0  0  0  0  0
   -3.0880    0.4583    0.0000 C   0  0  0  0  0  0  0  0  0  0  0  0
    1.5315   -0.5341    0.0000 C   0  0  0  0  0  0  0  0  0  0  0  0
    1.8993    1.1536    0.0000 C   0  0  0  0  0  0  0  0  0  0  0  0
   -3.0880   -1.5364    0.0000 C   0  0  0  0  0  0  0  0  0  0  0  0
   -3.9645   -0.0254    0.0000 C   0  0  0  0  0  0  0  0  0  0  0  0
    3.1786   -0.0051    0.0000 C   0  0  0  0  0  0  0  0  0  0  0  0
   -3.9645   -1.0329    0.0000 C   0  0  0  0  0  0  0  0  0  0  0  0
    2.8665    0.9471    0.0000 C   0  0  0  0  0  0  0  0  0  0  0  0
    2.5037   -0.7454    0.0000 C   0  0  0  0  0  0  0  0  0  0  0  0
   -4.8159    0.4735    0.0000 F   0  0  0  0  0  0  0  0  0  0  0  0
    4.1460   -0.2164    0.0000 O   0  0  0  0  0  0  0  0  0  0  0  0
    4.8159    0.5188    0.0000 C   0  0  0  0  0  0  0  0  0  0  0  0
    4.5137    1.4710    0.0000 C   0  0  0  0  0  0  0  0  0  0  0  0
  2  5  2  0  0  0  0
  1  3  2  0  0  0  0
  3  4  1  0  0  0  0
  2  4  1  0  0  0  0
  1  5  1  0  0  0  0
  3  6  1  0  0  0  0
  1  7  1  0  0  0  0
  7  8  2  0  0  0  0
  8  9  1  0  0  0  0
  6  9  1  0  0  0  0
  5 10  1  0  0  0  0
  6 11  2  0  0  0  0
 10 12  2  0  0  0  0
 10 13  1  0  0  0  0
  9 14  2  0  0  0  0
 11 15  1  0  0  0  0
 15 17  2  0  0  0  0
 16 18  1  0  0  0  0
 16 19  2  0  0  0  0
 14 17  1  0  0  0  0
 13 18  2  0  0  0  0
 12 19  1  0  0  0  0
 15 20  1  0  0  0  0
 16 21  1  0  0  0  0
 21 22  1  0  0  0  0
 22 23  1  0  0  0  0
M  END
> <IDNUMBER>
C200-5249

> <available>
1

> <H_acceptor>
3

> <H_donor>
1

> <B_rotN>
3

> <N_O>
4

> <logP>
4.2532

> <logD>
4.2522

> <logSw>
-4.077

> <PSA>
39.96

> <pKa_ma>
14.1885

> <pKa_mb>
4.7765

> <N_Chirals>
0

> <Name>
3-(4-ethoxyphenyl)-8-fluoro-1H-pyrazolo[4,3-c]quinoline

> <Smile>
CCOc(cc1)ccc1-c1n[nH]c2c(cc(cc3)F)c3ncc12

> <Color>
YELLOW

> <Collection>
NC

> <InChI>
InChI=1S/C18H14FN3O/c1-2-23-13-6-3-11(4-7-13)17-15-10-20-16-8-5-12(19)9-14(16)18(15)22-21-17/h3-10H,2H2,1H3,(H,21,22)

> <InChI Key>
FLVKOJOMRKNKBG-UHFFFAOYSA-N

> <PERCENTSP3>
11.1

> <Link>
https://www.chemdiv.com/catalog/screening-compounds/compound-C200-5249/

> <MFCDNUMBER>
MFCD14727818

> <CLNUMBER>
CL4130

> <STEREO>
ACHIRAL

> <State>
Solid

> <Similarity score>
0.22

$$$$
1-(4-chlorophenyl)-3-(4-ethoxyphenyl)-6,8-difluoro-1H-pyrazolo[4,3-c]quinoline
  -OEChem-04222410502D

 31 35  0     0  0  0  0  0  0999 V2000
   -1.5750    0.4378    0.0000 N   0  0  0  0  0  0  0  0  0  0  0  0
   -0.9116   -1.0342    0.0000 C   0  0  0  0  0  0  0  0  0  0  0  0
   -1.7870   -0.5260    0.0000 C   0  0  0  0  0  0  0  0  0  0  0  0
   -0.5799    0.5453    0.0000 N   0  0  0  0  0  0  0  0  0  0  0  0
   -0.1480   -0.3568    0.0000 C   0  0  0  0  0  0  0  0  0  0  0  0
   -2.6675   -1.0342    0.0000 C   0  0  0  0  0  0  0  0  0  0  0  0
   -2.6675   -2.0220    0.0000 C   0  0  0  0  0  0  0  0  0  0  0  0
   -1.7870   -2.5208    0.0000 N   0  0  0  0  0  0  0  0  0  0  0  0
   -0.9116   -2.0220    0.0000 C   0  0  0  0  0  0  0  0  0  0  0  0
   -3.5385   -2.5208    0.0000 C   0  0  0  0  0  0  0  0  0  0  0  0
   -2.1998    1.2087    0.0000 C   0  0  0  0  0  0  0  0  0  0  0  0
   -4.4141   -2.0220    0.0000 C   0  0  0  0  0  0  0  0  0  0  0  0
    0.8542   -0.4616    0.0000 C   0  0  0  0  0  0  0  0  0  0  0  0
   -3.5385   -0.5260    0.0000 C   0  0  0  0  0  0  0  0  0  0  0  0
   -4.4046   -1.0342    0.0000 C   0  0  0  0  0  0  0  0  0  0  0  0
   -1.8469    2.1296    0.0000 C   0  0  0  0  0  0  0  0  0  0  0  0
   -3.1663    1.0488    0.0000 C   0  0  0  0  0  0  0  0  0  0  0  0
    1.2622   -1.3563    0.0000 C   0  0  0  0  0  0  0  0  0  0  0  0
    1.4291    0.3638    0.0000 C   0  0  0  0  0  0  0  0  0  0  0  0
   -3.5291   -3.5158    0.0000 F   0  0  0  0  0  0  0  0  0  0  0  0
   -3.4477    2.7476    0.0000 C   0  0  0  0  0  0  0  0  0  0  0  0
   -5.2730   -0.5380    0.0000 F   0  0  0  0  0  0  0  0  0  0  0  0
    2.8774   -0.6333    0.0000 C   0  0  0  0  0  0  0  0  0  0  0  0
   -3.7939    1.8121    0.0000 C   0  0  0  0  0  0  0  0  0  0  0  0
   -2.4720    2.8978    0.0000 C   0  0  0  0  0  0  0  0  0  0  0  0
    2.2738   -1.4591    0.0000 C   0  0  0  0  0  0  0  0  0  0  0  0
    2.4384    0.2732    0.0000 C   0  0  0  0  0  0  0  0  0  0  0  0
   -4.0704    3.5158    0.0000 Cl  0  0  0  0  0  0  0  0  0  0  0  0
    3.8677   -0.7336    0.0000 O   0  0  0  0  0  0  0  0  0  0  0  0
    4.2803   -1.6452    0.0000 C   0  0  0  0  0  0  0  0  0  0  0  0
    5.2730   -1.7356    0.0000 C   0  0  0  0  0  0  0  0  0  0  0  0
  2  3  2  0  0  0  0
  2  5  1  0  0  0  0
  1  3  1  0  0  0  0
  1  4  1  0  0  0  0
  4  5  2  0  0  0  0
  3  6  1  0  0  0  0
  6  7  1  0  0  0  0
  7  8  1  0  0  0  0
  8  9  2  0  0  0  0
  2  9  1  0  0  0  0
  7 10  2  0  0  0  0
  1 11  1  0  0  0  0
 12 15  2  0  0  0  0
 10 12  1  0  0  0  0
  5 13  1  0  0  0  0
  6 14  2  0  0  0  0
 14 15  1  0  0  0  0
 11 16  2  0  0  0  0
 11 17  1  0  0  0  0
 13 18  2  0  0  0  0
 13 19  1  0  0  0  0
 10 20  1  0  0  0  0
 21 24  1  0  0  0  0
 15 22  1  0  0  0  0
 23 27  1  0  0  0  0
 17 24  2  0  0  0  0
 16 25  1  0  0  0  0
 21 25  2  0  0  0  0
 18 26  1  0  0  0  0
 23 26  2  0  0  0  0
 19 27  2  0  0  0  0
 21 28  1  0  0  0  0
 23 29  1  0  0  0  0
 29 30  1  0  0  0  0
 30 31  1  0  0  0  0
M  END
> <IDNUMBER>
C350-0826

> <available>
83

> <H_acceptor>
3

> <H_donor>
0

> <B_rotN>
4

> <N_O>
4

> <logP>
6.3904

> <logD>
6.3904

> <logSw>
-6.5386

> <PSA>
30.6039

> <pKa_ma>
29.8521

> <pKa_mb>
2.2647

> <N_Chirals>
0

> <Name>
1-(4-chlorophenyl)-3-(4-ethoxyphenyl)-6,8-difluoro-1H-pyrazolo[4,3-c]quinoline

> <Smile>
CCOc(cc1)ccc1-c(c1c2c3cc(F)cc(F)c3nc1)nn2-c(cc1)ccc1Cl

> <Color>
NOT COLORED

> <Collection>
DC

> <InChI>
InChI=1S/C24H16ClF2N3O/c1-2-31-18-9-3-14(4-10-18)22-20-13-28-23-19(11-16(26)12-21(23)27)24(20)30(29-22)17-7-5-15(25)6-8-17/h3-13H,2H2,1H3

> <InChI Key>
LUOLVFPYOSABGR-UHFFFAOYSA-N

> <PERCENTSP3>
8.3

> <Link>
https://www.chemdiv.com/catalog/screening-compounds/compound-C350-0826/

> <MFCDNUMBER>
MFCD14750692

> <CLNUMBER>
CL4130

> <STEREO>
ACHIRAL

> <State>
Solid

> <Similarity score>
0.22

$$$$
4-(azepan-1-yl)-N-(3,4-difluorophenyl)[1]benzofuro[3,2-d]pyrimidine-2-carboxamid
  -OEChem-04222410502D

 31 35  0     0  0  0  0  0  0999 V2000
    1.9181    0.2415    0.0000 C   0  0  0  0  0  0  0  0  0  0  0  0
    1.9181   -0.7332    0.0000 C   0  0  0  0  0  0  0  0  0  0  0  0
    1.0685    0.7329    0.0000 C   0  0  0  0  0  0  0  0  0  0  0  0
    1.0685   -1.2288    0.0000 N   0  0  0  0  0  0  0  0  0  0  0  0
    0.2187    0.2415    0.0000 N   0  0  0  0  0  0  0  0  0  0  0  0
    0.2187   -0.7332    0.0000 C   0  0  0  0  0  0  0  0  0  0  0  0
    2.7636    0.7329    0.0000 O   0  0  0  0  0  0  0  0  0  0  0  0
    1.9181    2.2032    0.0000 C   0  0  0  0  0  0  0  0  0  0  0  0
   -0.6310   -1.2204    0.0000 C   0  0  0  0  0  0  0  0  0  0  0  0
    2.7636    1.7161    0.0000 C   0  0  0  0  0  0  0  0  0  0  0  0
    2.7636   -1.2288    0.0000 N   0  0  0  0  0  0  0  0  0  0  0  0
   -1.4806   -0.7332    0.0000 N   0  0  0  0  0  0  0  0  0  0  0  0
   -3.1718   -2.6950    0.0000 C   0  0  0  0  0  0  0  0  0  0  0  0
   -2.3222   -2.2077    0.0000 C   0  0  0  0  0  0  0  0  0  0  0  0
   -2.3222   -1.2204    0.0000 C   0  0  0  0  0  0  0  0  0  0  0  0
   -4.0174   -2.2077    0.0000 C   0  0  0  0  0  0  0  0  0  0  0  0
   -0.6310   -2.2077    0.0000 O   0  0  0  0  0  0  0  0  0  0  0  0
   -4.0174   -1.2204    0.0000 C   0  0  0  0  0  0  0  0  0  0  0  0
   -3.1718   -3.6696    0.0000 F   0  0  0  0  0  0  0  0  0  0  0  0
   -3.1718   -0.7332    0.0000 C   0  0  0  0  0  0  0  0  0  0  0  0
   -4.8670   -2.6950    0.0000 F   0  0  0  0  0  0  0  0  0  0  0  0
    1.9181    3.1823    0.0000 C   0  0  0  0  0  0  0  0  0  0  0  0
    3.5674   -0.6706    0.0000 C   0  0  0  0  0  0  0  0  0  0  0  0
    2.6928   -2.2032    0.0000 C   0  0  0  0  0  0  0  0  0  0  0  0
    3.6132    2.2032    0.0000 C   0  0  0  0  0  0  0  0  0  0  0  0
    2.7636    3.6696    0.0000 C   0  0  0  0  0  0  0  0  0  0  0  0
    4.5047   -0.9580    0.0000 C   0  0  0  0  0  0  0  0  0  0  0  0
    3.4051   -2.8699    0.0000 C   0  0  0  0  0  0  0  0  0  0  0  0
    3.6132    3.1782    0.0000 C   0  0  0  0  0  0  0  0  0  0  0  0
    4.8670   -1.8703    0.0000 C   0  0  0  0  0  0  0  0  0  0  0  0
    4.3756   -2.7199    0.0000 C   0  0  0  0  0  0  0  0  0  0  0  0
  1  2  1  0  0  0  0
  1  3  2  0  0  0  0
  2  4  2  0  0  0  0
  4  6  1  0  0  0  0
  3  5  1  0  0  0  0
  5  6  2  0  0  0  0
  1  7  1  0  0  0  0
  3  8  1  0  0  0  0
  8 10  1  0  0  0  0
  6  9  1  0  0  0  0
  7 10  1  0  0  0  0
  2 11  1  0  0  0  0
  9 12  1  0  0  0  0
 13 14  1  0  0  0  0
 14 15  2  0  0  0  0
 12 15  1  0  0  0  0
 16 18  1  0  0  0  0
 13 16  2  0  0  0  0
  9 17  2  0  0  0  0
 18 20  2  0  0  0  0
 13 19  1  0  0  0  0
 15 20  1  0  0  0  0
 16 21  1  0  0  0  0
  8 22  2  0  0  0  0
 11 23  1  0  0  0  0
 11 24  1  0  0  0  0
 10 25  2  0  0  0  0
 22 26  1  0  0  0  0
 26 29  2  0  0  0  0
 23 27  1  0  0  0  0
 24 28  1  0  0  0  0
 25 29  1  0  0  0  0
 27 30  1  0  0  0  0
 30 31  1  0  0  0  0
 28 31  1  0  0  0  0
M  END
> <IDNUMBER>
L331-0713

> <available>
13

> <H_acceptor>
5

> <H_donor>
1

> <B_rotN>
4

> <N_O>
6

> <logP>
6.0319

> <logD>
6.0121

> <logSw>
-6.12

> <PSA>
54.522

> <pKa_ma>
9.0982

> <pKa_mb>
11.0435

> <N_Chirals>
0

> <Name>
4-(azepan-1-yl)-N-(3,4-difluorophenyl)[1]benzofuro[3,2-d]pyrimidine-2-carboxamide

> <Smile>
O=C(c1nc(N2CCCCCC2)c2oc(cccc3)c3c2n1)Nc(cc1)cc(F)c1F

> <Color>
NOT COLORED

> <Collection>
NC

> <InChI>
InChI=1S/C23H20F2N4O2/c24-16-10-9-14(13-17(16)25)26-23(30)21-27-19-15-7-3-4-8-18(15)31-20(19)22(28-21)29-11-5-1-2-6-12-29/h3-4,7-10,13H,1-2,5-6,11-12H2,(H,26,30)

> <InChI Key>
ZOTVQGZMIJVEQN-UHFFFAOYSA-N

> <PERCENTSP3>
26.1

> <Link>
https://www.chemdiv.com/catalog/screening-compounds/compound-L331-0713/

> <MFCDNUMBER>
MFCD27247026

> <CLNUMBER>
CL7949

> <STEREO>
ACHIRAL

> <State>
Solid

> <Similarity score>
0.22

$$$$
N-(3,4-difluorophenyl)-4-(piperidin-1-yl)[1]benzofuro[3,2-d]pyrimidine-2-carboxa
  -OEChem-04222410502D

 30 34  0     0  0  0  0  0  0999 V2000
    2.1206    0.2416    0.0000 C   0  0  0  0  0  0  0  0  0  0  0  0
    2.1206   -0.7333    0.0000 C   0  0  0  0  0  0  0  0  0  0  0  0
    1.2707    0.7333    0.0000 C   0  0  0  0  0  0  0  0  0  0  0  0
    1.2707   -1.2208    0.0000 N   0  0  0  0  0  0  0  0  0  0  0  0
    0.4208    0.2416    0.0000 N   0  0  0  0  0  0  0  0  0  0  0  0
    0.4208   -0.7333    0.0000 C   0  0  0  0  0  0  0  0  0  0  0  0
    2.9704    0.7333    0.0000 O   0  0  0  0  0  0  0  0  0  0  0  0
    2.1206    2.2038    0.0000 C   0  0  0  0  0  0  0  0  0  0  0  0
   -0.4208   -1.2208    0.0000 C   0  0  0  0  0  0  0  0  0  0  0  0
    2.9704    1.7164    0.0000 C   0  0  0  0  0  0  0  0  0  0  0  0
    2.9704   -1.2208    0.0000 N   0  0  0  0  0  0  0  0  0  0  0  0
   -1.2707   -0.7333    0.0000 N   0  0  0  0  0  0  0  0  0  0  0  0
   -2.9662   -2.6955    0.0000 C   0  0  0  0  0  0  0  0  0  0  0  0
   -2.1163   -2.2038    0.0000 C   0  0  0  0  0  0  0  0  0  0  0  0
   -2.1163   -1.2208    0.0000 C   0  0  0  0  0  0  0  0  0  0  0  0
   -3.8161   -2.2038    0.0000 C   0  0  0  0  0  0  0  0  0  0  0  0
   -0.4208   -2.2038    0.0000 O   0  0  0  0  0  0  0  0  0  0  0  0
   -3.8161   -1.2208    0.0000 C   0  0  0  0  0  0  0  0  0  0  0  0
   -2.9662   -3.6704    0.0000 F   0  0  0  0  0  0  0  0  0  0  0  0
   -2.9662   -0.7333    0.0000 C   0  0  0  0  0  0  0  0  0  0  0  0
   -4.6577   -2.6955    0.0000 F   0  0  0  0  0  0  0  0  0  0  0  0
    2.1206    3.1787    0.0000 C   0  0  0  0  0  0  0  0  0  0  0  0
    2.9704   -2.2038    0.0000 C   0  0  0  0  0  0  0  0  0  0  0  0
    3.8161   -0.7333    0.0000 C   0  0  0  0  0  0  0  0  0  0  0  0
    3.8161    2.2038    0.0000 C   0  0  0  0  0  0  0  0  0  0  0  0
    2.9704    3.6704    0.0000 C   0  0  0  0  0  0  0  0  0  0  0  0
    4.6577   -1.2208    0.0000 C   0  0  0  0  0  0  0  0  0  0  0  0
    3.8161   -2.6955    0.0000 C   0  0  0  0  0  0  0  0  0  0  0  0
    3.8161    3.1787    0.0000 C   0  0  0  0  0  0  0  0  0  0  0  0
    4.6577   -2.2038    0.0000 C   0  0  0  0  0  0  0  0  0  0  0  0
  1  2  1  0  0  0  0
  1  3  2  0  0  0  0
  2  4  2  0  0  0  0
  4  6  1  0  0  0  0
  3  5  1  0  0  0  0
  5  6  2  0  0  0  0
  1  7  1  0  0  0  0
  3  8  1  0  0  0  0
  8 10  1  0  0  0  0
  6  9  1  0  0  0  0
  7 10  1  0  0  0  0
  2 11  1  0  0  0  0
  9 12  1  0  0  0  0
 13 14  1  0  0  0  0
 14 15  2  0  0  0  0
 12 15  1  0  0  0  0
 16 18  1  0  0  0  0
 13 16  2  0  0  0  0
  9 17  2  0  0  0  0
 18 20  2  0  0  0  0
 13 19  1  0  0  0  0
 15 20  1  0  0  0  0
 16 21  1  0  0  0  0
  8 22  2  0  0  0  0
 11 23  1  0  0  0  0
 11 24  1  0  0  0  0
 10 25  2  0  0  0  0
 22 26  1  0  0  0  0
 26 29  2  0  0  0  0
 24 27  1  0  0  0  0
 23 28  1  0  0  0  0
 28 30  1  0  0  0  0
 25 29  1  0  0  0  0
 27 30  1  0  0  0  0
M  END
> <IDNUMBER>
L331-0404

> <available>
15

> <H_acceptor>
5

> <H_donor>
1

> <B_rotN>
4

> <N_O>
6

> <logP>
5.536

> <logD>
5.5262

> <logSw>
-6.0352

> <PSA>
54.191

> <pKa_ma>
9.0982

> <pKa_mb>
4.8079

> <N_Chirals>
0

> <Name>
N-(3,4-difluorophenyl)-4-(piperidin-1-yl)[1]benzofuro[3,2-d]pyrimidine-2-carboxamide

> <Smile>
O=C(c1nc(N2CCCCC2)c2oc(cccc3)c3c2n1)Nc(cc1)cc(F)c1F

> <Color>
NOT COLORED

> <Collection>
NC

> <InChI>
InChI=1S/C22H18F2N4O2/c23-15-9-8-13(12-16(15)24)25-22(29)20-26-18-14-6-2-3-7-17(14)30-19(18)21(27-20)28-10-4-1-5-11-28/h2-3,6-9,12H,1,4-5,10-11H2,(H,25,29)

> <InChI Key>
GZLSVBIFSHTYMF-UHFFFAOYSA-N

> <PERCENTSP3>
22.7

> <Link>
https://www.chemdiv.com/catalog/screening-compounds/compound-L331-0404/

> <MFCDNUMBER>
MFCD27246969

> <CLNUMBER>
CL7949

> <STEREO>
ACHIRAL

> <State>
Solid

> <Similarity score>
0.22

$$$$
8-ethoxy-3-(4-fluorophenyl)-1H-pyrazolo[4,3-c]quinoline
  -OEChem-04222410502D

 23 26  0     0  0  0  0  0  0999 V2000
    0.2717   -0.2541    0.0000 C   0  0  0  0  0  0  0  0  0  0  0  0
    0.6191    1.3312    0.0000 N   0  0  0  0  0  0  0  0  0  0  0  0
   -0.5988    0.2592    0.0000 C   0  0  0  0  0  0  0  0  0  0  0  0
   -0.3775    1.2404    0.0000 N   0  0  0  0  0  0  0  0  0  0  0  0
    1.0169    0.4151    0.0000 C   0  0  0  0  0  0  0  0  0  0  0  0
   -1.4593   -0.2541    0.0000 C   0  0  0  0  0  0  0  0  0  0  0  0
    0.2768   -1.2607    0.0000 C   0  0  0  0  0  0  0  0  0  0  0  0
   -0.5988   -1.7591    0.0000 N   0  0  0  0  0  0  0  0  0  0  0  0
   -1.4646   -1.2607    0.0000 C   0  0  0  0  0  0  0  0  0  0  0  0
    1.9932    0.2040    0.0000 C   0  0  0  0  0  0  0  0  0  0  0  0
   -2.3252    0.2438    0.0000 C   0  0  0  0  0  0  0  0  0  0  0  0
    2.2849   -0.7474    0.0000 C   0  0  0  0  0  0  0  0  0  0  0  0
    2.6575    0.9383    0.0000 C   0  0  0  0  0  0  0  0  0  0  0  0
   -2.3252   -1.7491    0.0000 C   0  0  0  0  0  0  0  0  0  0  0  0
   -3.1958   -0.2392    0.0000 C   0  0  0  0  0  0  0  0  0  0  0  0
    3.9308   -0.2188    0.0000 C   0  0  0  0  0  0  0  0  0  0  0  0
   -3.2007   -1.2456    0.0000 C   0  0  0  0  0  0  0  0  0  0  0  0
    3.6288    0.7321    0.0000 C   0  0  0  0  0  0  0  0  0  0  0  0
    3.2665   -0.9587    0.0000 C   0  0  0  0  0  0  0  0  0  0  0  0
    4.9071   -0.4304    0.0000 F   0  0  0  0  0  0  0  0  0  0  0  0
   -4.0562    0.2592    0.0000 O   0  0  0  0  0  0  0  0  0  0  0  0
   -4.0464    1.2558    0.0000 C   0  0  0  0  0  0  0  0  0  0  0  0
   -4.9071    1.7591    0.0000 C   0  0  0  0  0  0  0  0  0  0  0  0
  2  5  2  0  0  0  0
  1  3  2  0  0  0  0
  3  4  1  0  0  0  0
  2  4  1  0  0  0  0
  1  5  1  0  0  0  0
  3  6  1  0  0  0  0
  1  7  1  0  0  0  0
  7  8  2  0  0  0  0
  8  9  1  0  0  0  0
  6  9  1  0  0  0  0
  5 10  1  0  0  0  0
  6 11  2  0  0  0  0
 10 12  2  0  0  0  0
 10 13  1  0  0  0  0
  9 14  2  0  0  0  0
 11 15  1  0  0  0  0
 15 17  2  0  0  0  0
 16 18  1  0  0  0  0
 16 19  2  0  0  0  0
 14 17  1  0  0  0  0
 13 18  2  0  0  0  0
 12 19  1  0  0  0  0
 16 20  1  0  0  0  0
 15 21  1  0  0  0  0
 21 22  1  0  0  0  0
 22 23  1  0  0  0  0
M  END
> <IDNUMBER>
C200-5255

> <available>
2

> <H_acceptor>
3

> <H_donor>
1

> <B_rotN>
3

> <N_O>
4

> <logP>
4.2604

> <logD>
4.1716

> <logSw>
-4.1213

> <PSA>
39.96

> <pKa_ma>
14.2047

> <pKa_mb>
6.756

> <N_Chirals>
0

> <Name>
8-ethoxy-3-(4-fluorophenyl)-1H-pyrazolo[4,3-c]quinoline

> <Smile>
CCOc(cc12)ccc1ncc1c2[nH]nc1-c(cc1)ccc1F

> <Color>
NOT COLORED

> <Collection>
NC

> <InChI>
InChI=1S/C18H14FN3O/c1-2-23-13-7-8-16-14(9-13)18-15(10-20-16)17(21-22-18)11-3-5-12(19)6-4-11/h3-10H,2H2,1H3,(H,21,22)

> <InChI Key>
NQONYHUHQYVECA-UHFFFAOYSA-N

> <PERCENTSP3>
11.1

> <Link>
https://www.chemdiv.com/catalog/screening-compounds/compound-C200-5255/

> <MFCDNUMBER>
MFCD14727822

> <CLNUMBER>
CL4130

> <STEREO>
ACHIRAL

> <State>
Solid

> <Similarity score>
0.22

$$$$
6,8-difluoro-3-(4-fluorophenyl)-1-(4-methoxyphenyl)-1H-pyrazolo[4,3-c]quinoline
  -OEChem-04222410502D

 30 34  0     0  0  0  0  0  0999 V2000
   -0.8589    0.4406    0.0000 N   0  0  0  0  0  0  0  0  0  0  0  0
   -0.2050   -1.0377    0.0000 C   0  0  0  0  0  0  0  0  0  0  0  0
   -1.0708   -0.5388    0.0000 C   0  0  0  0  0  0  0  0  0  0  0  0
    0.1277    0.5455    0.0000 N   0  0  0  0  0  0  0  0  0  0  0  0
    0.5378   -0.3611    0.0000 C   0  0  0  0  0  0  0  0  0  0  0  0
   -1.9340   -1.0377    0.0000 C   0  0  0  0  0  0  0  0  0  0  0  0
   -1.9340   -2.0354    0.0000 C   0  0  0  0  0  0  0  0  0  0  0  0
   -1.0708   -2.5343    0.0000 N   0  0  0  0  0  0  0  0  0  0  0  0
   -0.2050   -2.0354    0.0000 C   0  0  0  0  0  0  0  0  0  0  0  0
   -2.7951   -2.5343    0.0000 C   0  0  0  0  0  0  0  0  0  0  0  0
   -1.4898    1.2107    0.0000 C   0  0  0  0  0  0  0  0  0  0  0  0
   -3.6678   -2.0400    0.0000 C   0  0  0  0  0  0  0  0  0  0  0  0
    1.5355   -0.4614    0.0000 C   0  0  0  0  0  0  0  0  0  0  0  0
   -2.7951   -0.5388    0.0000 C   0  0  0  0  0  0  0  0  0  0  0  0
   -3.6678   -1.0377    0.0000 C   0  0  0  0  0  0  0  0  0  0  0  0
   -1.1323    2.1492    0.0000 C   0  0  0  0  0  0  0  0  0  0  0  0
   -2.4785    1.0513    0.0000 C   0  0  0  0  0  0  0  0  0  0  0  0
    1.9545   -1.3588    0.0000 C   0  0  0  0  0  0  0  0  0  0  0  0
    2.1096    0.3633    0.0000 C   0  0  0  0  0  0  0  0  0  0  0  0
   -2.7951   -3.5389    0.0000 F   0  0  0  0  0  0  0  0  0  0  0  0
    3.5310   -0.6345    0.0000 C   0  0  0  0  0  0  0  0  0  0  0  0
   -4.5309   -0.5388    0.0000 F   0  0  0  0  0  0  0  0  0  0  0  0
   -2.7609    2.7597    0.0000 C   0  0  0  0  0  0  0  0  0  0  0  0
    2.9408   -1.4614    0.0000 C   0  0  0  0  0  0  0  0  0  0  0  0
    3.1073    0.2745    0.0000 C   0  0  0  0  0  0  0  0  0  0  0  0
   -3.1095    1.8211    0.0000 C   0  0  0  0  0  0  0  0  0  0  0  0
   -1.7678    2.9214    0.0000 C   0  0  0  0  0  0  0  0  0  0  0  0
    4.5309   -0.7349    0.0000 F   0  0  0  0  0  0  0  0  0  0  0  0
   -3.3850    3.5389    0.0000 O   0  0  0  0  0  0  0  0  0  0  0  0
   -4.3690    3.3724    0.0000 C   0  0  0  0  0  0  0  0  0  0  0  0
  2  3  2  0  0  0  0
  2  5  1  0  0  0  0
  1  3  1  0  0  0  0
  1  4  1  0  0  0  0
  4  5  2  0  0  0  0
  3  6  1  0  0  0  0
  6  7  1  0  0  0  0
  7  8  1  0  0  0  0
  8  9  2  0  0  0  0
  2  9  1  0  0  0  0
  7 10  2  0  0  0  0
  1 11  1  0  0  0  0
 12 15  2  0  0  0  0
 10 12  1  0  0  0  0
  5 13  1  0  0  0  0
  6 14  2  0  0  0  0
 14 15  1  0  0  0  0
 11 16  2  0  0  0  0
 11 17  1  0  0  0  0
 13 18  2  0  0  0  0
 13 19  1  0  0  0  0
 10 20  1  0  0  0  0
 21 25  1  0  0  0  0
 15 22  1  0  0  0  0
 23 26  1  0  0  0  0
 18 24  1  0  0  0  0
 21 24  2  0  0  0  0
 19 25  2  0  0  0  0
 17 26  2  0  0  0  0
 16 27  1  0  0  0  0
 23 27  2  0  0  0  0
 21 28  1  0  0  0  0
 23 29  1  0  0  0  0
 29 30  1  0  0  0  0
M  END
> <IDNUMBER>
C350-0499

> <available>
111

> <H_acceptor>
3

> <H_donor>
0

> <B_rotN>
3

> <N_O>
4

> <logP>
5.4381

> <logD>
5.4381

> <logSw>
-5.653

> <PSA>
31.0241

> <pKa_ma>
33.286

> <pKa_mb>
2.2647

> <N_Chirals>
0

> <Name>
6,8-difluoro-3-(4-fluorophenyl)-1-(4-methoxyphenyl)-1H-pyrazolo[4,3-c]quinoline

> <Smile>
COc(cc1)ccc1-n(c1c(cc(cc2F)F)c2ncc11)nc1-c(cc1)ccc1F

> <Color>
NOT COLORED

> <Collection>
DC

> <InChI>
InChI=1S/C23H14F3N3O/c1-30-17-8-6-16(7-9-17)29-23-18-10-15(25)11-20(26)22(18)27-12-19(23)21(28-29)13-2-4-14(24)5-3-13/h2-12H,1H3

> <InChI Key>
UOQHYNPURJVFSW-UHFFFAOYSA-N

> <PERCENTSP3>
4.3

> <Link>
https://www.chemdiv.com/catalog/screening-compounds/compound-C350-0499/

> <MFCDNUMBER>
MFCD14750453

> <CLNUMBER>
CL4130

> <STEREO>
ACHIRAL

> <State>
Solid

> <Similarity score>
0.22

$$$$
4-(azepan-1-yl)-N-(2,5-difluorophenyl)[1]benzofuro[3,2-d]pyrimidine-2-carboxamid
  -OEChem-04222410502D

 31 35  0     0  0  0  0  0  0999 V2000
    0.2041    0.7334    0.0000 C   0  0  0  0  0  0  0  0  0  0  0  0
   -0.6417    0.2416    0.0000 C   0  0  0  0  0  0  0  0  0  0  0  0
    1.0542    0.2416    0.0000 C   0  0  0  0  0  0  0  0  0  0  0  0
   -0.6417   -0.7333    0.0000 N   0  0  0  0  0  0  0  0  0  0  0  0
    1.0542   -0.7333    0.0000 N   0  0  0  0  0  0  0  0  0  0  0  0
    0.2041   -1.2292    0.0000 C   0  0  0  0  0  0  0  0  0  0  0  0
    0.2041    1.7167    0.0000 O   0  0  0  0  0  0  0  0  0  0  0  0
    1.9042    1.7167    0.0000 C   0  0  0  0  0  0  0  0  0  0  0  0
    0.2041   -2.2085    0.0000 C   0  0  0  0  0  0  0  0  0  0  0  0
    1.0542    2.2043    0.0000 C   0  0  0  0  0  0  0  0  0  0  0  0
   -1.4918    0.7334    0.0000 N   0  0  0  0  0  0  0  0  0  0  0  0
    1.0542   -2.6959    0.0000 N   0  0  0  0  0  0  0  0  0  0  0  0
    1.9042   -2.2085    0.0000 C   0  0  0  0  0  0  0  0  0  0  0  0
    1.8960   -1.2292    0.0000 C   0  0  0  0  0  0  0  0  0  0  0  0
    2.7459   -2.6959    0.0000 C   0  0  0  0  0  0  0  0  0  0  0  0
   -0.6417   -2.6959    0.0000 O   0  0  0  0  0  0  0  0  0  0  0  0
    3.5960   -2.2085    0.0000 C   0  0  0  0  0  0  0  0  0  0  0  0
    2.7459   -0.7333    0.0000 C   0  0  0  0  0  0  0  0  0  0  0  0
    2.7459   -3.6710    0.0000 F   0  0  0  0  0  0  0  0  0  0  0  0
    3.5960   -1.2208    0.0000 C   0  0  0  0  0  0  0  0  0  0  0  0
    2.7459    0.2416    0.0000 F   0  0  0  0  0  0  0  0  0  0  0  0
    2.7459    2.2043    0.0000 C   0  0  0  0  0  0  0  0  0  0  0  0
   -1.4168    1.7085    0.0000 C   0  0  0  0  0  0  0  0  0  0  0  0
   -2.3042    0.1792    0.0000 C   0  0  0  0  0  0  0  0  0  0  0  0
    1.0542    3.1835    0.0000 C   0  0  0  0  0  0  0  0  0  0  0  0
    2.7459    3.1835    0.0000 C   0  0  0  0  0  0  0  0  0  0  0  0
   -2.1418    2.3793    0.0000 C   0  0  0  0  0  0  0  0  0  0  0  0
   -3.2418    0.4666    0.0000 C   0  0  0  0  0  0  0  0  0  0  0  0
    1.8960    3.6710    0.0000 C   0  0  0  0  0  0  0  0  0  0  0  0
   -3.1042    2.2292    0.0000 C   0  0  0  0  0  0  0  0  0  0  0  0
   -3.5960    1.3792    0.0000 C   0  0  0  0  0  0  0  0  0  0  0  0
  1  2  1  0  0  0  0
  1  3  2  0  0  0  0
  2  4  2  0  0  0  0
  4  6  1  0  0  0  0
  3  5  1  0  0  0  0
  5  6  2  0  0  0  0
  1  7  1  0  0  0  0
  3  8  1  0  0  0  0
  8 10  1  0  0  0  0
  6  9  1  0  0  0  0
  7 10  1  0  0  0  0
  2 11  1  0  0  0  0
  9 12  1  0  0  0  0
 12 13  1  0  0  0  0
 13 14  1  0  0  0  0
 13 15  2  0  0  0  0
  9 16  2  0  0  0  0
 15 17  1  0  0  0  0
 14 18  2  0  0  0  0
 18 20  1  0  0  0  0
 15 19  1  0  0  0  0
 17 20  2  0  0  0  0
 18 21  1  0  0  0  0
  8 22  2  0  0  0  0
 11 23  1  0  0  0  0
 11 24  1  0  0  0  0
 10 25  2  0  0  0  0
 22 26  1  0  0  0  0
 26 29  2  0  0  0  0
 23 27  1  0  0  0  0
 24 28  1  0  0  0  0
 25 29  1  0  0  0  0
 27 30  1  0  0  0  0
 30 31  1  0  0  0  0
 28 31  1  0  0  0  0
M  END
> <IDNUMBER>
L331-0705

> <available>
1

> <H_acceptor>
5

> <H_donor>
1

> <B_rotN>
4

> <N_O>
6

> <logP>
6.0408

> <logD>
6.0191

> <logSw>
-6.12

> <PSA>
53.824

> <pKa_ma>
9.01

> <pKa_mb>
11.0435

> <N_Chirals>
0

> <Name>
4-(azepan-1-yl)-N-(2,5-difluorophenyl)[1]benzofuro[3,2-d]pyrimidine-2-carboxamide

> <Smile>
O=C(c1nc(N2CCCCCC2)c2oc(cccc3)c3c2n1)Nc(cc(cc1)F)c1F

> <Color>
NOT COLORED

> <Collection>
NC

> <InChI>
InChI=1S/C23H20F2N4O2/c24-14-9-10-16(25)17(13-14)26-23(30)21-27-19-15-7-3-4-8-18(15)31-20(19)22(28-21)29-11-5-1-2-6-12-29/h3-4,7-10,13H,1-2,5-6,11-12H2,(H,26,30)

> <InChI Key>
GQNGLRAKYKJRRY-UHFFFAOYSA-N

> <PERCENTSP3>
26.09

> <Link>
https://www.chemdiv.com/catalog/screening-compounds/compound-L331-0705/

> <MFCDNUMBER>
MFCD27247023

> <CLNUMBER>
CL7949

> <STEREO>
ACHIRAL

> <State>
Solid

> <Similarity score>
0.22

$$$$
N-(2,5-difluorophenyl)-4-(piperidin-1-yl)[1]benzofuro[3,2-d]pyrimidine-2-carboxa
  -OEChem-04222410502D

 30 34  0     0  0  0  0  0  0999 V2000
   -0.0041    0.7332    0.0000 C   0  0  0  0  0  0  0  0  0  0  0  0
   -0.8456    0.2416    0.0000 C   0  0  0  0  0  0  0  0  0  0  0  0
    0.8456    0.2416    0.0000 C   0  0  0  0  0  0  0  0  0  0  0  0
   -0.8456   -0.7331    0.0000 N   0  0  0  0  0  0  0  0  0  0  0  0
    0.8456   -0.7331    0.0000 N   0  0  0  0  0  0  0  0  0  0  0  0
    0.0041   -1.2205    0.0000 C   0  0  0  0  0  0  0  0  0  0  0  0
    0.0041    1.7163    0.0000 O   0  0  0  0  0  0  0  0  0  0  0  0
    1.6953    1.7163    0.0000 C   0  0  0  0  0  0  0  0  0  0  0  0
    0.0041   -2.2035    0.0000 C   0  0  0  0  0  0  0  0  0  0  0  0
    0.8456    2.2035    0.0000 C   0  0  0  0  0  0  0  0  0  0  0  0
   -1.6913    0.7332    0.0000 N   0  0  0  0  0  0  0  0  0  0  0  0
    0.8456   -2.6951    0.0000 N   0  0  0  0  0  0  0  0  0  0  0  0
    1.6953   -2.2035    0.0000 C   0  0  0  0  0  0  0  0  0  0  0  0
    1.6953   -1.2205    0.0000 C   0  0  0  0  0  0  0  0  0  0  0  0
    2.5452   -2.6951    0.0000 C   0  0  0  0  0  0  0  0  0  0  0  0
   -0.8456   -2.6951    0.0000 O   0  0  0  0  0  0  0  0  0  0  0  0
    3.3908   -2.2035    0.0000 C   0  0  0  0  0  0  0  0  0  0  0  0
    2.5452   -0.7331    0.0000 C   0  0  0  0  0  0  0  0  0  0  0  0
    2.5452   -3.6699    0.0000 F   0  0  0  0  0  0  0  0  0  0  0  0
    3.3908   -1.2205    0.0000 C   0  0  0  0  0  0  0  0  0  0  0  0
    2.5452    0.2416    0.0000 F   0  0  0  0  0  0  0  0  0  0  0  0
    2.5452    2.2035    0.0000 C   0  0  0  0  0  0  0  0  0  0  0  0
   -2.5410    0.2416    0.0000 C   0  0  0  0  0  0  0  0  0  0  0  0
   -1.6913    1.7080    0.0000 C   0  0  0  0  0  0  0  0  0  0  0  0
    0.8456    3.1784    0.0000 C   0  0  0  0  0  0  0  0  0  0  0  0
    2.5452    3.1784    0.0000 C   0  0  0  0  0  0  0  0  0  0  0  0
   -2.5410    2.2035    0.0000 C   0  0  0  0  0  0  0  0  0  0  0  0
   -3.3908    0.7289    0.0000 C   0  0  0  0  0  0  0  0  0  0  0  0
    1.6953    3.6699    0.0000 C   0  0  0  0  0  0  0  0  0  0  0  0
   -3.3908    1.7080    0.0000 C   0  0  0  0  0  0  0  0  0  0  0  0
  1  2  1  0  0  0  0
  1  3  2  0  0  0  0
  2  4  2  0  0  0  0
  4  6  1  0  0  0  0
  3  5  1  0  0  0  0
  5  6  2  0  0  0  0
  1  7  1  0  0  0  0
  3  8  1  0  0  0  0
  8 10  1  0  0  0  0
  6  9  1  0  0  0  0
  7 10  1  0  0  0  0
  2 11  1  0  0  0  0
  9 12  1  0  0  0  0
 12 13  1  0  0  0  0
 13 14  1  0  0  0  0
 13 15  2  0  0  0  0
  9 16  2  0  0  0  0
 15 17  1  0  0  0  0
 14 18  2  0  0  0  0
 18 20  1  0  0  0  0
 15 19  1  0  0  0  0
 17 20  2  0  0  0  0
 18 21  1  0  0  0  0
  8 22  2  0  0  0  0
 11 23  1  0  0  0  0
 11 24  1  0  0  0  0
 10 25  2  0  0  0  0
 22 26  1  0  0  0  0
 26 29  2  0  0  0  0
 24 27  1  0  0  0  0
 23 28  1  0  0  0  0
 28 30  1  0  0  0  0
 25 29  1  0  0  0  0
 27 30  1  0  0  0  0
M  END
> <IDNUMBER>
L331-0396

> <available>
33

> <H_acceptor>
5

> <H_donor>
1

> <B_rotN>
4

> <N_O>
6

> <logP>
5.5449

> <logD>
5.5332

> <logSw>
-6.0131

> <PSA>
53.493

> <pKa_ma>
9.01

> <pKa_mb>
4.8079

> <N_Chirals>
0

> <Name>
N-(2,5-difluorophenyl)-4-(piperidin-1-yl)[1]benzofuro[3,2-d]pyrimidine-2-carboxamide

> <Smile>
O=C(c1nc(N2CCCCC2)c2oc(cccc3)c3c2n1)Nc(cc(cc1)F)c1F

> <Color>
NOT COLORED

> <Collection>
NC

> <InChI>
InChI=1S/C22H18F2N4O2/c23-13-8-9-15(24)16(12-13)25-22(29)20-26-18-14-6-2-3-7-17(14)30-19(18)21(27-20)28-10-4-1-5-11-28/h2-3,6-9,12H,1,4-5,10-11H2,(H,25,29)

> <InChI Key>
UIYAMOFSCWACKH-UHFFFAOYSA-N

> <PERCENTSP3>
22.7

> <Link>
https://www.chemdiv.com/catalog/screening-compounds/compound-L331-0396/

> <MFCDNUMBER>
MFCD27246966

> <CLNUMBER>
CL7949

> <STEREO>
ACHIRAL

> <State>
Solid

> <Similarity score>
0.22

$$$$
1-(3,4-dimethylphenyl)-3-(4-ethoxyphenyl)-6,8-difluoro-1H-pyrazolo[4,3-c]quinoli
  -OEChem-04222410502D

 32 36  0     0  0  0  0  0  0999 V2000
   -1.1679    0.4407    0.0000 N   0  0  0  0  0  0  0  0  0  0  0  0
   -0.5036   -1.0292    0.0000 C   0  0  0  0  0  0  0  0  0  0  0  0
   -1.3792   -0.5305    0.0000 C   0  0  0  0  0  0  0  0  0  0  0  0
   -0.1665    0.5406    0.0000 N   0  0  0  0  0  0  0  0  0  0  0  0
    0.2561   -0.3491    0.0000 C   0  0  0  0  0  0  0  0  0  0  0  0
   -2.2648   -1.0292    0.0000 C   0  0  0  0  0  0  0  0  0  0  0  0
   -2.2648   -2.0244    0.0000 C   0  0  0  0  0  0  0  0  0  0  0  0
   -1.3792   -2.5189    0.0000 N   0  0  0  0  0  0  0  0  0  0  0  0
   -1.7962    1.2107    0.0000 C   0  0  0  0  0  0  0  0  0  0  0  0
   -0.5036   -2.0244    0.0000 C   0  0  0  0  0  0  0  0  0  0  0  0
   -3.1245   -2.5189    0.0000 C   0  0  0  0  0  0  0  0  0  0  0  0
   -2.7634    1.0551    0.0000 C   0  0  0  0  0  0  0  0  0  0  0  0
   -4.0001   -2.0244    0.0000 C   0  0  0  0  0  0  0  0  0  0  0  0
    1.2636   -0.4546    0.0000 C   0  0  0  0  0  0  0  0  0  0  0  0
   -3.1245   -0.5305    0.0000 C   0  0  0  0  0  0  0  0  0  0  0  0
   -3.3878    1.8151    0.0000 C   0  0  0  0  0  0  0  0  0  0  0  0
   -4.0001   -1.0292    0.0000 C   0  0  0  0  0  0  0  0  0  0  0  0
   -1.4349    2.1321    0.0000 C   0  0  0  0  0  0  0  0  0  0  0  0
   -3.0347    2.7426    0.0000 C   0  0  0  0  0  0  0  0  0  0  0  0
   -2.0692    2.9000    0.0000 C   0  0  0  0  0  0  0  0  0  0  0  0
    1.8418    0.3611    0.0000 C   0  0  0  0  0  0  0  0  0  0  0  0
    1.6744   -1.3563    0.0000 C   0  0  0  0  0  0  0  0  0  0  0  0
   -3.1245   -3.5145    0.0000 F   0  0  0  0  0  0  0  0  0  0  0  0
   -4.8617   -0.5305    0.0000 F   0  0  0  0  0  0  0  0  0  0  0  0
    3.2860   -0.6363    0.0000 C   0  0  0  0  0  0  0  0  0  0  0  0
    2.6818   -1.4520    0.0000 C   0  0  0  0  0  0  0  0  0  0  0  0
    2.8530    0.2754    0.0000 C   0  0  0  0  0  0  0  0  0  0  0  0
    4.2872   -0.7359    0.0000 O   0  0  0  0  0  0  0  0  0  0  0  0
   -4.3790    1.6595    0.0000 C   0  0  0  0  0  0  0  0  0  0  0  0
   -3.6690    3.5145    0.0000 C   0  0  0  0  0  0  0  0  0  0  0  0
    4.8617    0.0779    0.0000 C   0  0  0  0  0  0  0  0  0  0  0  0
    4.4528    0.9934    0.0000 C   0  0  0  0  0  0  0  0  0  0  0  0
  2  3  2  0  0  0  0
  2  5  1  0  0  0  0
  1  3  1  0  0  0  0
  1  4  1  0  0  0  0
  4  5  2  0  0  0  0
  3  6  1  0  0  0  0
  6  7  1  0  0  0  0
  7  8  1  0  0  0  0
  8 10  2  0  0  0  0
  1  9  1  0  0  0  0
  2 10  1  0  0  0  0
  7 11  2  0  0  0  0
  9 12  1  0  0  0  0
 13 17  2  0  0  0  0
 11 13  1  0  0  0  0
  5 14  1  0  0  0  0
  6 15  2  0  0  0  0
 12 16  2  0  0  0  0
 16 19  1  0  0  0  0
 15 17  1  0  0  0  0
  9 18  2  0  0  0  0
 19 20  2  0  0  0  0
 18 20  1  0  0  0  0
 14 21  1  0  0  0  0
 14 22  2  0  0  0  0
 11 23  1  0  0  0  0
 17 24  1  0  0  0  0
 25 26  2  0  0  0  0
 25 27  1  0  0  0  0
 22 26  1  0  0  0  0
 21 27  2  0  0  0  0
 25 28  1  0  0  0  0
 16 29  1  0  0  0  0
 19 30  1  0  0  0  0
 28 31  1  0  0  0  0
 31 32  1  0  0  0  0
M  END
> <IDNUMBER>
C350-0810

> <available>
112

> <H_acceptor>
3

> <H_donor>
0

> <B_rotN>
4

> <N_O>
4

> <logP>
6.9232

> <logD>
6.9231

> <logSw>
-5.7701

> <PSA>
30.6039

> <pKa_ma>
28.0078

> <pKa_mb>
2.6884

> <N_Chirals>
0

> <Name>
1-(3,4-dimethylphenyl)-3-(4-ethoxyphenyl)-6,8-difluoro-1H-pyrazolo[4,3-c]quinoline

> <Smile>
CCOc(cc1)ccc1-c(c1cnc2c(F)cc(F)cc2c11)nn1-c1cc(C)c(C)cc1

> <Color>
NOT COLORED

> <Collection>
DC

> <InChI>
InChI=1S/C26H21F2N3O/c1-4-32-20-9-6-17(7-10-20)24-22-14-29-25-21(12-18(27)13-23(25)28)26(22)31(30-24)19-8-5-15(2)16(3)11-19/h5-14H,4H2,1-3H3

> <InChI Key>
HEAGGNOYTKHCIP-UHFFFAOYSA-N

> <PERCENTSP3>
15.4

> <Link>
https://www.chemdiv.com/catalog/screening-compounds/compound-C350-0810/

> <MFCDNUMBER>
MFCD14750683

> <CLNUMBER>
CL4130

> <STEREO>
ACHIRAL

> <State>
Solid

> <Similarity score>
0.22

$$$$
4-[4-(2-fluorophenyl)piperazin-1-yl]-2-(3-methylphenyl)quinazoline
  -OEChem-04222410502D

 30 34  0     0  0  0  0  0  0999 V2000
    0.0065   -1.7549    0.0000 N   0  0  0  0  0  0  0  0  0  0  0  0
   -0.8691   -1.2335    0.0000 C   0  0  0  0  0  0  0  0  0  0  0  0
    0.0065   -2.7510    0.0000 C   0  0  0  0  0  0  0  0  0  0  0  0
   -1.7315   -1.7549    0.0000 C   0  0  0  0  0  0  0  0  0  0  0  0
   -0.8691   -3.2590    0.0000 N   0  0  0  0  0  0  0  0  0  0  0  0
   -0.8691   -0.2108    0.0000 N   0  0  0  0  0  0  0  0  0  0  0  0
   -0.8691    1.7750    0.0000 N   0  0  0  0  0  0  0  0  0  0  0  0
   -1.7315   -2.7510    0.0000 C   0  0  0  0  0  0  0  0  0  0  0  0
   -0.8691    2.7776    0.0000 C   0  0  0  0  0  0  0  0  0  0  0  0
    0.8690   -3.2590    0.0000 C   0  0  0  0  0  0  0  0  0  0  0  0
    0.0065    0.2706    0.0000 C   0  0  0  0  0  0  0  0  0  0  0  0
   -1.7315    0.2706    0.0000 C   0  0  0  0  0  0  0  0  0  0  0  0
    0.0065    1.2936    0.0000 C   0  0  0  0  0  0  0  0  0  0  0  0
   -1.7315    1.2936    0.0000 C   0  0  0  0  0  0  0  0  0  0  0  0
   -0.0135    3.2657    0.0000 C   0  0  0  0  0  0  0  0  0  0  0  0
    1.7381   -2.7510    0.0000 C   0  0  0  0  0  0  0  0  0  0  0  0
    0.8358    2.7776    0.0000 F   0  0  0  0  0  0  0  0  0  0  0  0
    2.6005   -3.2590    0.0000 C   0  0  0  0  0  0  0  0  0  0  0  0
   -2.5938   -1.2335    0.0000 C   0  0  0  0  0  0  0  0  0  0  0  0
    0.8690   -4.2551    0.0000 C   0  0  0  0  0  0  0  0  0  0  0  0
   -2.5938   -3.2590    0.0000 C   0  0  0  0  0  0  0  0  0  0  0  0
   -1.7114    3.2657    0.0000 C   0  0  0  0  0  0  0  0  0  0  0  0
    1.7381   -4.7631    0.0000 C   0  0  0  0  0  0  0  0  0  0  0  0
   -0.0135    4.2616    0.0000 C   0  0  0  0  0  0  0  0  0  0  0  0
    2.6005   -4.2551    0.0000 C   0  0  0  0  0  0  0  0  0  0  0  0
    3.4629   -2.7778    0.0000 C   0  0  0  0  0  0  0  0  0  0  0  0
   -3.4629   -1.7549    0.0000 C   0  0  0  0  0  0  0  0  0  0  0  0
   -1.7114    4.2616    0.0000 C   0  0  0  0  0  0  0  0  0  0  0  0
   -3.4629   -2.7510    0.0000 C   0  0  0  0  0  0  0  0  0  0  0  0
   -0.8691    4.7631    0.0000 C   0  0  0  0  0  0  0  0  0  0  0  0
  1  2  1  0  0  0  0
  1  3  2  0  0  0  0
  2  4  2  0  0  0  0
  4  8  1  0  0  0  0
  3  5  1  0  0  0  0
  2  6  1  0  0  0  0
  7 14  1  0  0  0  0
  7 13  1  0  0  0  0
  5  8  2  0  0  0  0
  7  9  1  0  0  0  0
  3 10  1  0  0  0  0
  6 11  1  0  0  0  0
  6 12  1  0  0  0  0
 11 13  1  0  0  0  0
 12 14  1  0  0  0  0
  9 15  2  0  0  0  0
 10 16  1  0  0  0  0
 15 17  1  0  0  0  0
 16 18  2  0  0  0  0
 18 25  1  0  0  0  0
  4 19  1  0  0  0  0
 10 20  2  0  0  0  0
  8 21  1  0  0  0  0
  9 22  1  0  0  0  0
 20 23  1  0  0  0  0
 15 24  1  0  0  0  0
 24 30  2  0  0  0  0
 23 25  2  0  0  0  0
 18 26  1  0  0  0  0
 19 27  2  0  0  0  0
 27 29  1  0  0  0  0
 22 28  2  0  0  0  0
 21 29  2  0  0  0  0
 28 30  1  0  0  0  0
M  END
> <IDNUMBER>
3909-7903

> <available>
5

> <H_acceptor>
2

> <H_donor>
0

> <B_rotN>
3

> <N_O>
4

> <logP>
6.8152

> <logD>
5.917

> <logSw>
-6.2319

> <PSA>
24.5979

> <pKa_ma>
22.2134

> <pKa_mb>
8.2395

> <N_Chirals>
0

> <Name>
4-[4-(2-fluorophenyl)piperazin-1-yl]-2-(3-methylphenyl)quinazoline

> <Smile>
Cc1cccc(-c2nc3ccccc3c(N(CC3)CCN3c(cccc3)c3F)n2)c1

> <Color>
YELLOW

> <Collection>
NC

> <InChI>
InChI=1S/C25H23FN4/c1-18-7-6-8-19(17-18)24-27-22-11-4-2-9-20(22)25(28-24)30-15-13-29(14-16-30)23-12-5-3-10-21(23)26/h2-12,17H,13-16H2,1H3

> <InChI Key>
QOKLMVDOLHYZKV-UHFFFAOYSA-N

> <PERCENTSP3>
20

> <Link>
https://www.chemdiv.com/catalog/screening-compounds/compound-3909-7903/

> <MFCDNUMBER>
MFCD14708909

> <CLNUMBER>
CL2243

> <STEREO>
ACHIRAL

> <State>
Solid

> <Similarity score>
0.22

$$$$
6-ethoxy-4-(morpholin-4-yl)quinoline-3-carbonitrile
  -OEChem-04222410502D

 21 23  0     0  0  0  0  0  0999 V2000
    0.0278   -0.9928    0.0000 C   0  0  0  0  0  0  0  0  0  0  0  0
   -0.8361   -0.5077    0.0000 C   0  0  0  0  0  0  0  0  0  0  0  0
   -1.7050   -1.0079    0.0000 C   0  0  0  0  0  0  0  0  0  0  0  0
   -0.8411    0.5077    0.0000 N   0  0  0  0  0  0  0  0  0  0  0  0
   -0.8259   -2.5084    0.0000 N   0  0  0  0  0  0  0  0  0  0  0  0
   -2.5688   -0.5077    0.0000 C   0  0  0  0  0  0  0  0  0  0  0  0
   -3.4480   -0.0228    0.0000 N   0  0  0  0  0  0  0  0  0  0  0  0
    0.0278   -1.9929    0.0000 C   0  0  0  0  0  0  0  0  0  0  0  0
    0.8867   -0.4925    0.0000 C   0  0  0  0  0  0  0  0  0  0  0  0
   -1.7000   -2.0081    0.0000 C   0  0  0  0  0  0  0  0  0  0  0  0
   -0.8563    2.5084    0.0000 O   0  0  0  0  0  0  0  0  0  0  0  0
    0.9019   -2.4780    0.0000 C   0  0  0  0  0  0  0  0  0  0  0  0
    1.7506   -0.9776    0.0000 C   0  0  0  0  0  0  0  0  0  0  0  0
    1.7658   -1.9778    0.0000 C   0  0  0  0  0  0  0  0  0  0  0  0
    0.0228    1.0079    0.0000 C   0  0  0  0  0  0  0  0  0  0  0  0
   -1.7202    0.9928    0.0000 C   0  0  0  0  0  0  0  0  0  0  0  0
    2.6044   -0.4622    0.0000 O   0  0  0  0  0  0  0  0  0  0  0  0
    0.0077    2.0081    0.0000 C   0  0  0  0  0  0  0  0  0  0  0  0
   -1.7202    1.9929    0.0000 C   0  0  0  0  0  0  0  0  0  0  0  0
    2.5892    0.5380    0.0000 C   0  0  0  0  0  0  0  0  0  0  0  0
    3.4480    1.0434    0.0000 C   0  0  0  0  0  0  0  0  0  0  0  0
  1  2  1  0  0  0  0
  2  3  2  0  0  0  0
  3 10  1  0  0  0  0
  2  4  1  0  0  0  0
  5  8  1  0  0  0  0
  3  6  1  0  0  0  0
  6  7  3  0  0  0  0
  1  8  1  0  0  0  0
  1  9  2  0  0  0  0
  5 10  2  0  0  0  0
 11 19  1  0  0  0  0
  8 12  2  0  0  0  0
 12 14  1  0  0  0  0
  9 13  1  0  0  0  0
 13 14  2  0  0  0  0
  4 15  1  0  0  0  0
  4 16  1  0  0  0  0
 13 17  1  0  0  0  0
 15 18  1  0  0  0  0
 11 18  1  0  0  0  0
 16 19  1  0  0  0  0
 17 20  1  0  0  0  0
 20 21  1  0  0  0  0
M  END
> <IDNUMBER>
F360-0967

> <available>
1

> <H_acceptor>
4

> <H_donor>
0

> <B_rotN>
4

> <N_O>
5

> <logP>
2.424

> <logD>
2.3953

> <logSw>
-2.7056

> <PSA>
44.03

> <pKa_ma>
26.094

> <pKa_mb>
6.2336

> <N_Chirals>
0

> <Name>
6-ethoxy-4-(morpholin-4-yl)quinoline-3-carbonitrile

> <Smile>
CCOc(cc12)ccc2ncc(C#N)c1N1CCOCC1

> <Color>
NOT COLORED

> <Collection>
DC

> <InChI>
InChI=1S/C16H17N3O2/c1-2-21-13-3-4-15-14(9-13)16(12(10-17)11-18-15)19-5-7-20-8-6-19/h3-4,9,11H,2,5-8H2,1H3

> <InChI Key>
NGTOEXSJCMXQOD-UHFFFAOYSA-N

> <PERCENTSP3>
37.5

> <Link>
https://www.chemdiv.com/catalog/screening-compounds/compound-F360-0967/

> <MFCDNUMBER>
MFCD27119035

> <CLNUMBER>
CL6761

> <STEREO>
ACHIRAL

> <State>
Solid

> <Similarity score>
0.21

$$$$
6,8-difluoro-1,3-bis(4-fluorophenyl)-1H-pyrazolo[4,3-c]quinoline
  -OEChem-04222410502D

 29 33  0     0  0  0  0  0  0999 V2000
   -0.8194    0.5199    0.0000 N   0  0  0  0  0  0  0  0  0  0  0  0
   -0.1635   -0.9575    0.0000 C   0  0  0  0  0  0  0  0  0  0  0  0
   -1.0314   -0.4582    0.0000 C   0  0  0  0  0  0  0  0  0  0  0  0
    0.1701    0.6259    0.0000 N   0  0  0  0  0  0  0  0  0  0  0  0
    0.5785   -0.2817    0.0000 C   0  0  0  0  0  0  0  0  0  0  0  0
   -1.8883   -0.9617    0.0000 C   0  0  0  0  0  0  0  0  0  0  0  0
   -1.8883   -1.9711    0.0000 C   0  0  0  0  0  0  0  0  0  0  0  0
   -1.0269   -2.4701    0.0000 N   0  0  0  0  0  0  0  0  0  0  0  0
   -0.1545   -1.9621    0.0000 C   0  0  0  0  0  0  0  0  0  0  0  0
   -2.7672   -2.4769    0.0000 C   0  0  0  0  0  0  0  0  0  0  0  0
   -1.4862    1.2620    0.0000 C   0  0  0  0  0  0  0  0  0  0  0  0
   -3.6351   -1.9711    0.0000 C   0  0  0  0  0  0  0  0  0  0  0  0
    1.5614   -0.4892    0.0000 C   0  0  0  0  0  0  0  0  0  0  0  0
   -2.7672   -0.4627    0.0000 C   0  0  0  0  0  0  0  0  0  0  0  0
   -3.6306   -0.9617    0.0000 C   0  0  0  0  0  0  0  0  0  0  0  0
   -1.1772    2.2006    0.0000 C   0  0  0  0  0  0  0  0  0  0  0  0
   -2.4492    1.0500    0.0000 C   0  0  0  0  0  0  0  0  0  0  0  0
    2.2216    0.2639    0.0000 C   0  0  0  0  0  0  0  0  0  0  0  0
    1.8749   -1.4411    0.0000 C   0  0  0  0  0  0  0  0  0  0  0  0
   -2.7672   -3.4705    0.0000 F   0  0  0  0  0  0  0  0  0  0  0  0
    3.5246   -0.8868    0.0000 C   0  0  0  0  0  0  0  0  0  0  0  0
   -2.8112    2.7306    0.0000 C   0  0  0  0  0  0  0  0  0  0  0  0
   -4.4986   -0.4627    0.0000 F   0  0  0  0  0  0  0  0  0  0  0  0
    3.1955    0.0673    0.0000 C   0  0  0  0  0  0  0  0  0  0  0  0
   -3.1161    1.7812    0.0000 C   0  0  0  0  0  0  0  0  0  0  0  0
    2.8576   -1.6441    0.0000 C   0  0  0  0  0  0  0  0  0  0  0  0
   -1.8440    2.9405    0.0000 C   0  0  0  0  0  0  0  0  0  0  0  0
    4.4986   -1.0943    0.0000 F   0  0  0  0  0  0  0  0  0  0  0  0
   -3.4782    3.4705    0.0000 F   0  0  0  0  0  0  0  0  0  0  0  0
  2  3  2  0  0  0  0
  2  5  1  0  0  0  0
  1  3  1  0  0  0  0
  1  4  1  0  0  0  0
  4  5  2  0  0  0  0
  3  6  1  0  0  0  0
  6  7  1  0  0  0  0
  7  8  1  0  0  0  0
  2  9  1  0  0  0  0
  8  9  2  0  0  0  0
  7 10  2  0  0  0  0
  1 11  1  0  0  0  0
 12 15  2  0  0  0  0
 10 12  1  0  0  0  0
  5 13  1  0  0  0  0
  6 14  2  0  0  0  0
 14 15  1  0  0  0  0
 11 16  2  0  0  0  0
 11 17  1  0  0  0  0
 13 18  1  0  0  0  0
 13 19  2  0  0  0  0
 10 20  1  0  0  0  0
 21 26  2  0  0  0  0
 22 25  1  0  0  0  0
 15 23  1  0  0  0  0
 18 24  2  0  0  0  0
 21 24  1  0  0  0  0
 17 25  2  0  0  0  0
 19 26  1  0  0  0  0
 16 27  1  0  0  0  0
 22 27  2  0  0  0  0
 21 28  1  0  0  0  0
 22 29  1  0  0  0  0
M  END
> <IDNUMBER>
C350-0427

> <available>
59

> <H_acceptor>
2

> <H_donor>
0

> <B_rotN>
2

> <N_O>
3

> <logP>
5.4848

> <logD>
5.4848

> <logSw>
-6.1966

> <PSA>
23.4803

> <pKa_ma>
14

> <pKa_mb>
2.2647

> <N_Chirals>
0

> <Name>
6,8-difluoro-1,3-bis(4-fluorophenyl)-1H-pyrazolo[4,3-c]quinoline

> <Smile>
Fc(cc1)ccc1-c(c1cnc2c(F)cc(F)cc2c11)nn1-c(cc1)ccc1F

> <Color>
NOT COLORED

> <Collection>
DC

> <InChI>
InChI=1S/C22H11F4N3/c23-13-3-1-12(2-4-13)20-18-11-27-21-17(9-15(25)10-19(21)26)22(18)29(28-20)16-7-5-14(24)6-8-16/h1-11H

> <InChI Key>
AUWBFDGEWRUDBH-UHFFFAOYSA-N

> <PERCENTSP3>
0

> <Link>
https://www.chemdiv.com/catalog/screening-compounds/compound-C350-0427/

> <MFCDNUMBER>
MFCD14750399

> <CLNUMBER>
CL4130

> <STEREO>
ACHIRAL

> <State>
Solid

> <Similarity score>
0.21

$$$$
2-[4-(4-fluorophenyl)piperazin-1-yl]-8-methyl-3-(5-methyl-1,2,4-oxadiazol-3-yl)q
  -OEChem-04222410502D

 30 34  0     0  0  0  0  0  0999 V2000
   -0.0040    2.1136    0.0000 C   0  0  0  0  0  0  0  0  0  0  0  0
    0.8089    1.5341    0.0000 C   0  0  0  0  0  0  0  0  0  0  0  0
   -0.9171    1.7091    0.0000 C   0  0  0  0  0  0  0  0  0  0  0  0
    1.7594    1.8384    0.0000 N   0  0  0  0  0  0  0  0  0  0  0  0
   -1.7216    2.2970    0.0000 N   0  0  0  0  0  0  0  0  0  0  0  0
    0.8089    0.5335    0.0000 N   0  0  0  0  0  0  0  0  0  0  0  0
   -1.0172    0.7129    0.0000 N   0  0  0  0  0  0  0  0  0  0  0  0
    0.1042    3.1100    0.0000 C   0  0  0  0  0  0  0  0  0  0  0  0
   -1.6176    3.2934    0.0000 C   0  0  0  0  0  0  0  0  0  0  0  0
   -1.2298   -1.2798    0.0000 N   0  0  0  0  0  0  0  0  0  0  0  0
    2.3472    1.0338    0.0000 C   0  0  0  0  0  0  0  0  0  0  0  0
    1.7594    0.2210    0.0000 O   0  0  0  0  0  0  0  0  0  0  0  0
   -0.7045    3.6977    0.0000 C   0  0  0  0  0  0  0  0  0  0  0  0
   -1.3297   -2.2804    0.0000 C   0  0  0  0  0  0  0  0  0  0  0  0
   -0.2085    0.1250    0.0000 C   0  0  0  0  0  0  0  0  0  0  0  0
   -1.9342    0.3084    0.0000 C   0  0  0  0  0  0  0  0  0  0  0  0
   -0.3167   -0.8754    0.0000 C   0  0  0  0  0  0  0  0  0  0  0  0
   -2.0428   -0.6921    0.0000 C   0  0  0  0  0  0  0  0  0  0  0  0
   -2.4306    3.8770    0.0000 C   0  0  0  0  0  0  0  0  0  0  0  0
   -2.2428   -2.6889    0.0000 C   0  0  0  0  0  0  0  0  0  0  0  0
   -0.5167   -2.8683    0.0000 C   0  0  0  0  0  0  0  0  0  0  0  0
   -1.5343   -4.2690    0.0000 C   0  0  0  0  0  0  0  0  0  0  0  0
   -0.6211   -3.8645    0.0000 C   0  0  0  0  0  0  0  0  0  0  0  0
   -2.3471   -3.6811    0.0000 C   0  0  0  0  0  0  0  0  0  0  0  0
   -1.6424   -5.2695    0.0000 F   0  0  0  0  0  0  0  0  0  0  0  0
   -0.6043    4.6816    0.0000 C   0  0  0  0  0  0  0  0  0  0  0  0
    3.3433    1.0338    0.0000 C   0  0  0  0  0  0  0  0  0  0  0  0
   -1.4089    5.2695    0.0000 C   0  0  0  0  0  0  0  0  0  0  0  0
   -2.3220    4.8610    0.0000 C   0  0  0  0  0  0  0  0  0  0  0  0
   -3.3433    3.4726    0.0000 C   0  0  0  0  0  0  0  0  0  0  0  0
  1  2  1  0  0  0  0
  1  3  1  0  0  0  0
  2  4  1  0  0  0  0
  3  5  2  0  0  0  0
  5  9  1  0  0  0  0
  2  6  2  0  0  0  0
  3  7  1  0  0  0  0
  1  8  2  0  0  0  0
  9 13  1  0  0  0  0
 10 18  1  0  0  0  0
 10 17  1  0  0  0  0
  4 11  2  0  0  0  0
 11 12  1  0  0  0  0
  6 12  1  0  0  0  0
  8 13  1  0  0  0  0
 10 14  1  0  0  0  0
  7 15  1  0  0  0  0
  7 16  1  0  0  0  0
 15 17  1  0  0  0  0
 16 18  1  0  0  0  0
  9 19  2  0  0  0  0
 19 29  1  0  0  0  0
 14 20  2  0  0  0  0
 14 21  1  0  0  0  0
 22 23  1  0  0  0  0
 21 23  2  0  0  0  0
 20 24  1  0  0  0  0
 22 24  2  0  0  0  0
 22 25  1  0  0  0  0
 13 26  2  0  0  0  0
 11 27  1  0  0  0  0
 26 28  1  0  0  0  0
 28 29  2  0  0  0  0
 19 30  1  0  0  0  0
M  END
> <IDNUMBER>
D420-1332

> <available>
223

> <H_acceptor>
4

> <H_donor>
0

> <B_rotN>
3

> <N_O>
6

> <logP>
5.5652

> <logD>
4.9974

> <logSw>
-6.4469

> <PSA>
46.891

> <pKa_ma>
23.536

> <pKa_mb>
7.8308

> <N_Chirals>
0

> <Name>
2-[4-(4-fluorophenyl)piperazin-1-yl]-8-methyl-3-(5-methyl-1,2,4-oxadiazol-3-yl)quinoline

> <Smile>
Cc1nc(-c2cc3cccc(C)c3nc2N(CC2)CCN2c(cc2)ccc2F)no1

> <Color>
NOT COLORED

> <Collection>
NC

> <InChI>
InChI=1S/C23H22FN5O/c1-15-4-3-5-17-14-20(22-25-16(2)30-27-22)23(26-21(15)17)29-12-10-28(11-13-29)19-8-6-18(24)7-9-19/h3-9,14H,10-13H2,1-2H3

> <InChI Key>
VWFALCUOBIPXLE-UHFFFAOYSA-N

> <PERCENTSP3>
26.1

> <Link>
https://www.chemdiv.com/catalog/screening-compounds/compound-D420-1332/

> <MFCDNUMBER>
MFCD27584904

> <CLNUMBER>
CL7646

> <STEREO>
ACHIRAL

> <State>
Solid

> <Similarity score>
0.21

$$$$
6,8-difluoro-1-(4-fluorophenyl)-3-phenyl-1H-pyrazolo[4,3-c]quinoline
  -OEChem-04222410502D

 28 32  0     0  0  0  0  0  0999 V2000
   -0.3338    0.5198    0.0000 N   0  0  0  0  0  0  0  0  0  0  0  0
    0.3174   -0.9568    0.0000 C   0  0  0  0  0  0  0  0  0  0  0  0
   -0.5462   -0.4591    0.0000 C   0  0  0  0  0  0  0  0  0  0  0  0
    0.6504    0.6256    0.0000 N   0  0  0  0  0  0  0  0  0  0  0  0
    1.0584   -0.2817    0.0000 C   0  0  0  0  0  0  0  0  0  0  0  0
   -1.4079   -0.9623    0.0000 C   0  0  0  0  0  0  0  0  0  0  0  0
   -1.4079   -1.9723    0.0000 C   0  0  0  0  0  0  0  0  0  0  0  0
   -0.5352   -2.4718    0.0000 N   0  0  0  0  0  0  0  0  0  0  0  0
    0.3321   -1.9612    0.0000 C   0  0  0  0  0  0  0  0  0  0  0  0
   -2.2752   -2.4755    0.0000 C   0  0  0  0  0  0  0  0  0  0  0  0
   -1.0000    1.2607    0.0000 C   0  0  0  0  0  0  0  0  0  0  0  0
   -3.1478   -1.9760    0.0000 C   0  0  0  0  0  0  0  0  0  0  0  0
   -2.2752   -0.4627    0.0000 C   0  0  0  0  0  0  0  0  0  0  0  0
   -3.1478   -0.9623    0.0000 C   0  0  0  0  0  0  0  0  0  0  0  0
    2.0409   -0.4886    0.0000 C   0  0  0  0  0  0  0  0  0  0  0  0
   -0.6961    2.1993    0.0000 C   0  0  0  0  0  0  0  0  0  0  0  0
   -1.9677    1.0504    0.0000 C   0  0  0  0  0  0  0  0  0  0  0  0
   -2.2861   -3.4690    0.0000 F   0  0  0  0  0  0  0  0  0  0  0  0
   -2.3318    2.7280    0.0000 C   0  0  0  0  0  0  0  0  0  0  0  0
   -4.0097   -0.4627    0.0000 F   0  0  0  0  0  0  0  0  0  0  0  0
   -2.6337    1.7804    0.0000 C   0  0  0  0  0  0  0  0  0  0  0  0
   -1.3530    2.9386    0.0000 C   0  0  0  0  0  0  0  0  0  0  0  0
   -2.9960    3.4690    0.0000 F   0  0  0  0  0  0  0  0  0  0  0  0
    2.7070    0.2635    0.0000 C   0  0  0  0  0  0  0  0  0  0  0  0
    2.3593   -1.4416    0.0000 C   0  0  0  0  0  0  0  0  0  0  0  0
    3.3438   -1.6430    0.0000 C   0  0  0  0  0  0  0  0  0  0  0  0
    3.6858    0.0659    0.0000 C   0  0  0  0  0  0  0  0  0  0  0  0
    4.0097   -0.8871    0.0000 C   0  0  0  0  0  0  0  0  0  0  0  0
  2  3  2  0  0  0  0
  2  5  1  0  0  0  0
  1  3  1  0  0  0  0
  1  4  1  0  0  0  0
  4  5  2  0  0  0  0
  3  6  1  0  0  0  0
  6  7  1  0  0  0  0
  7  8  1  0  0  0  0
  2  9  1  0  0  0  0
  8  9  2  0  0  0  0
  7 10  2  0  0  0  0
  1 11  1  0  0  0  0
 12 14  2  0  0  0  0
 10 12  1  0  0  0  0
  6 13  2  0  0  0  0
 13 14  1  0  0  0  0
  5 15  1  0  0  0  0
 11 16  2  0  0  0  0
 11 17  1  0  0  0  0
 10 18  1  0  0  0  0
 19 21  1  0  0  0  0
 14 20  1  0  0  0  0
 17 21  2  0  0  0  0
 16 22  1  0  0  0  0
 19 22  2  0  0  0  0
 19 23  1  0  0  0  0
 15 24  1  0  0  0  0
 15 25  2  0  0  0  0
 25 26  1  0  0  0  0
 24 27  2  0  0  0  0
 27 28  1  0  0  0  0
 26 28  2  0  0  0  0
M  END
> <IDNUMBER>
C350-0103

> <available>
67

> <H_acceptor>
2

> <H_donor>
0

> <B_rotN>
2

> <N_O>
3

> <logP>
5.3507

> <logD>
5.3507

> <logSw>
-6.0208

> <PSA>
23.4803

> <pKa_ma>
14

> <pKa_mb>
2.2647

> <N_Chirals>
0

> <Name>
6,8-difluoro-1-(4-fluorophenyl)-3-phenyl-1H-pyrazolo[4,3-c]quinoline

> <Smile>
Fc(cc1)ccc1-n(c1c(cc(cc2F)F)c2ncc11)nc1-c1ccccc1

> <Color>
NOT COLORED

> <Collection>
DC

> <InChI>
InChI=1S/C22H12F3N3/c23-14-6-8-16(9-7-14)28-22-17-10-15(24)11-19(25)21(17)26-12-18(22)20(27-28)13-4-2-1-3-5-13/h1-12H

> <InChI Key>
PMVLNEKUTYXTGW-UHFFFAOYSA-N

> <PERCENTSP3>
0

> <Link>
https://www.chemdiv.com/catalog/screening-compounds/compound-C350-0103/

> <MFCDNUMBER>
MFCD14750130

> <CLNUMBER>
CL4130

> <STEREO>
ACHIRAL

> <State>
Solid

> <Similarity score>
0.21

$$$$
6,8-difluoro-3-(4-fluorophenyl)-1-phenyl-1H-pyrazolo[4,3-c]quinoline
  -OEChem-04222410502D

 28 32  0     0  0  0  0  0  0999 V2000
   -0.8203    0.7858    0.0000 N   0  0  0  0  0  0  0  0  0  0  0  0
   -0.1637   -0.6932    0.0000 C   0  0  0  0  0  0  0  0  0  0  0  0
   -1.0325   -0.1934    0.0000 C   0  0  0  0  0  0  0  0  0  0  0  0
    0.1703    0.8919    0.0000 N   0  0  0  0  0  0  0  0  0  0  0  0
    0.5791   -0.0167    0.0000 C   0  0  0  0  0  0  0  0  0  0  0  0
   -1.8900   -0.6974    0.0000 C   0  0  0  0  0  0  0  0  0  0  0  0
   -1.8900   -1.7079    0.0000 C   0  0  0  0  0  0  0  0  0  0  0  0
   -1.0280   -2.2074    0.0000 N   0  0  0  0  0  0  0  0  0  0  0  0
   -0.1547   -1.6988    0.0000 C   0  0  0  0  0  0  0  0  0  0  0  0
   -2.7700   -2.2140    0.0000 C   0  0  0  0  0  0  0  0  0  0  0  0
   -3.6388   -1.7079    0.0000 C   0  0  0  0  0  0  0  0  0  0  0  0
    1.5630   -0.2245    0.0000 C   0  0  0  0  0  0  0  0  0  0  0  0
   -1.4877    1.5285    0.0000 C   0  0  0  0  0  0  0  0  0  0  0  0
   -2.7700   -0.1979    0.0000 C   0  0  0  0  0  0  0  0  0  0  0  0
   -3.6343   -0.6974    0.0000 C   0  0  0  0  0  0  0  0  0  0  0  0
    2.2238    0.5295    0.0000 C   0  0  0  0  0  0  0  0  0  0  0  0
    1.8768   -1.1773    0.0000 C   0  0  0  0  0  0  0  0  0  0  0  0
   -2.7700   -3.2088    0.0000 F   0  0  0  0  0  0  0  0  0  0  0  0
    3.5282   -0.6223    0.0000 C   0  0  0  0  0  0  0  0  0  0  0  0
   -4.5031   -0.1979    0.0000 F   0  0  0  0  0  0  0  0  0  0  0  0
    3.1988    0.3327    0.0000 C   0  0  0  0  0  0  0  0  0  0  0  0
    2.8605   -1.3805    0.0000 C   0  0  0  0  0  0  0  0  0  0  0  0
    4.5031   -0.8301    0.0000 F   0  0  0  0  0  0  0  0  0  0  0  0
   -1.1784    2.4683    0.0000 C   0  0  0  0  0  0  0  0  0  0  0  0
   -2.4517    1.3163    0.0000 C   0  0  0  0  0  0  0  0  0  0  0  0
   -1.8459    3.2088    0.0000 C   0  0  0  0  0  0  0  0  0  0  0  0
   -3.0772    2.0326    0.0000 C   0  0  0  0  0  0  0  0  0  0  0  0
   -2.8142    2.9987    0.0000 C   0  0  0  0  0  0  0  0  0  0  0  0
  2  3  2  0  0  0  0
  2  5  1  0  0  0  0
  1  3  1  0  0  0  0
  1  4  1  0  0  0  0
  4  5  2  0  0  0  0
  3  6  1  0  0  0  0
  6  7  1  0  0  0  0
  7  8  1  0  0  0  0
  2  9  1  0  0  0  0
  8  9  2  0  0  0  0
  7 10  2  0  0  0  0
 11 15  2  0  0  0  0
 10 11  1  0  0  0  0
  5 12  1  0  0  0  0
  1 13  1  0  0  0  0
  6 14  2  0  0  0  0
 14 15  1  0  0  0  0
 12 16  1  0  0  0  0
 12 17  2  0  0  0  0
 10 18  1  0  0  0  0
 19 22  2  0  0  0  0
 15 20  1  0  0  0  0
 16 21  2  0  0  0  0
 19 21  1  0  0  0  0
 17 22  1  0  0  0  0
 19 23  1  0  0  0  0
 13 24  2  0  0  0  0
 13 25  1  0  0  0  0
 24 26  1  0  0  0  0
 26 28  2  0  0  0  0
 25 27  2  0  0  0  0
 27 28  1  0  0  0  0
M  END
> <IDNUMBER>
C350-0431

> <available>
98

> <H_acceptor>
2

> <H_donor>
0

> <B_rotN>
2

> <N_O>
3

> <logP>
5.3342

> <logD>
5.3342

> <logSw>
-6.0815

> <PSA>
23.4803

> <pKa_ma>
14

> <pKa_mb>
2.2647

> <N_Chirals>
0

> <Name>
6,8-difluoro-3-(4-fluorophenyl)-1-phenyl-1H-pyrazolo[4,3-c]quinoline

> <Smile>
Fc(cc1)ccc1-c(c1cnc2c(F)cc(F)cc2c11)nn1-c1ccccc1

> <Color>
NOT COLORED

> <Collection>
DC

> <InChI>
InChI=1S/C22H12F3N3/c23-14-8-6-13(7-9-14)20-18-12-26-21-17(10-15(24)11-19(21)25)22(18)28(27-20)16-4-2-1-3-5-16/h1-12H

> <InChI Key>
AIXKVZORJHTYGQ-UHFFFAOYSA-N

> <PERCENTSP3>
0

> <Link>
https://www.chemdiv.com/catalog/screening-compounds/compound-C350-0431/

> <MFCDNUMBER>
MFCD14750403

> <CLNUMBER>
CL4130

> <STEREO>
ACHIRAL

> <State>
Solid

> <Similarity score>
0.21

$$$$
N,N-diethyl-2-(2-fluorophenyl)quinazolin-4-amine
  -OEChem-04222410502D

 22 24  0     0  0  0  0  0  0999 V2000
   -0.0177   -0.2455    0.0000 N   0  0  0  0  0  0  0  0  0  0  0  0
    0.8482    0.2557    0.0000 C   0  0  0  0  0  0  0  0  0  0  0  0
   -0.0177   -1.2431    0.0000 C   0  0  0  0  0  0  0  0  0  0  0  0
    1.7242   -0.2455    0.0000 N   0  0  0  0  0  0  0  0  0  0  0  0
    0.8482   -1.7444    0.0000 C   0  0  0  0  0  0  0  0  0  0  0  0
    0.8584    1.2431    0.0000 C   0  0  0  0  0  0  0  0  0  0  0  0
    1.7143   -1.2431    0.0000 C   0  0  0  0  0  0  0  0  0  0  0  0
   -0.8835   -1.7394    0.0000 N   0  0  0  0  0  0  0  0  0  0  0  0
    1.7242    1.7546    0.0000 C   0  0  0  0  0  0  0  0  0  0  0  0
    2.6052    1.2431    0.0000 F   0  0  0  0  0  0  0  0  0  0  0  0
    0.8482   -2.7320    0.0000 C   0  0  0  0  0  0  0  0  0  0  0  0
   -0.0074    1.7447    0.0000 C   0  0  0  0  0  0  0  0  0  0  0  0
    2.5801   -1.7292    0.0000 C   0  0  0  0  0  0  0  0  0  0  0  0
   -0.8835   -2.7472    0.0000 C   0  0  0  0  0  0  0  0  0  0  0  0
   -1.7493   -1.2431    0.0000 C   0  0  0  0  0  0  0  0  0  0  0  0
    1.7295    2.7472    0.0000 C   0  0  0  0  0  0  0  0  0  0  0  0
    1.7143   -3.2333    0.0000 C   0  0  0  0  0  0  0  0  0  0  0  0
   -0.0074    2.7472    0.0000 C   0  0  0  0  0  0  0  0  0  0  0  0
   -0.0177   -3.2485    0.0000 C   0  0  0  0  0  0  0  0  0  0  0  0
   -2.6052   -1.7444    0.0000 C   0  0  0  0  0  0  0  0  0  0  0  0
    2.5801   -2.7320    0.0000 C   0  0  0  0  0  0  0  0  0  0  0  0
    0.8584    3.2485    0.0000 C   0  0  0  0  0  0  0  0  0  0  0  0
  1  2  1  0  0  0  0
  1  3  2  0  0  0  0
  2  4  2  0  0  0  0
  3  5  1  0  0  0  0
  2  6  1  0  0  0  0
  5  7  1  0  0  0  0
  4  7  1  0  0  0  0
  3  8  1  0  0  0  0
  6  9  2  0  0  0  0
  9 10  1  0  0  0  0
  5 11  2  0  0  0  0
  6 12  1  0  0  0  0
  7 13  2  0  0  0  0
  8 14  1  0  0  0  0
  8 15  1  0  0  0  0
  9 16  1  0  0  0  0
 16 22  2  0  0  0  0
 11 17  1  0  0  0  0
 12 18  2  0  0  0  0
 14 19  1  0  0  0  0
 15 20  1  0  0  0  0
 17 21  2  0  0  0  0
 13 21  1  0  0  0  0
 18 22  1  0  0  0  0
M  END
> <IDNUMBER>
K841-0217

> <available>
50

> <H_acceptor>
2

> <H_donor>
0

> <B_rotN>
4

> <N_O>
3

> <logP>
4.4238

> <logD>
4.1544

> <logSw>
-4.4328

> <PSA>
20.9222

> <pKa_ma>
22.6824

> <pKa_mb>
7.3342

> <N_Chirals>
0

> <Name>
N,N-diethyl-2-(2-fluorophenyl)quinazolin-4-amine

> <Smile>
CCN(CC)c1nc(-c(cccc2)c2F)nc2ccccc12

> <Color>
NOT COLORED

> <Collection>
NC

> <InChI>
InChI=1S/C18H18FN3/c1-3-22(4-2)18-14-10-6-8-12-16(14)20-17(21-18)13-9-5-7-11-15(13)19/h5-12H,3-4H2,1-2H3

> <InChI Key>
AVUDYWVEIRGGRL-UHFFFAOYSA-N

> <PERCENTSP3>
22.2

> <Link>
https://www.chemdiv.com/catalog/screening-compounds/compound-K841-0217/

> <MFCDNUMBER>
MFCD03672381

> <CLNUMBER>
CL2243

> <STEREO>
ACHIRAL

> <State>
Solid

> <Similarity score>
0.21

$$$$
4-amino-2-(4-fluorophenyl)-6-(morpholin-4-yl)pyridine-3,5-dicarbonitrile
  -OEChem-04222410502D

 24 26  0     0  0  0  0  0  0999 V2000
    1.3272   -0.2229    0.0000 C   0  0  0  0  0  0  0  0  0  0  0  0
    1.3272    0.7730    0.0000 C   0  0  0  0  0  0  0  0  0  0  0  0
   -0.3980    0.7730    0.0000 C   0  0  0  0  0  0  0  0  0  0  0  0
    0.4647   -0.7229    0.0000 N   0  0  0  0  0  0  0  0  0  0  0  0
   -0.3980   -0.2229    0.0000 C   0  0  0  0  0  0  0  0  0  0  0  0
    0.4647    1.2689    0.0000 C   0  0  0  0  0  0  0  0  0  0  0  0
    2.1898   -0.7229    0.0000 N   0  0  0  0  0  0  0  0  0  0  0  0
    2.1898    1.2689    0.0000 C   0  0  0  0  0  0  0  0  0  0  0  0
   -1.2606    1.2689    0.0000 C   0  0  0  0  0  0  0  0  0  0  0  0
   -2.1231    0.7730    0.0000 N   0  0  0  0  0  0  0  0  0  0  0  0
    3.0523    0.7730    0.0000 N   0  0  0  0  0  0  0  0  0  0  0  0
   -1.2606   -0.7229    0.0000 C   0  0  0  0  0  0  0  0  0  0  0  0
    0.4647    2.2648    0.0000 N   0  0  0  0  0  0  0  0  0  0  0  0
    3.9150   -1.7190    0.0000 O   0  0  0  0  0  0  0  0  0  0  0  0
   -2.1231   -0.2229    0.0000 C   0  0  0  0  0  0  0  0  0  0  0  0
   -1.2606   -1.7190    0.0000 C   0  0  0  0  0  0  0  0  0  0  0  0
   -2.9940   -1.7315    0.0000 C   0  0  0  0  0  0  0  0  0  0  0  0
   -2.1231   -2.2148    0.0000 C   0  0  0  0  0  0  0  0  0  0  0  0
   -2.9940   -0.6896    0.0000 C   0  0  0  0  0  0  0  0  0  0  0  0
   -3.9150   -2.2648    0.0000 F   0  0  0  0  0  0  0  0  0  0  0  0
    2.1898   -1.7190    0.0000 C   0  0  0  0  0  0  0  0  0  0  0  0
    3.0523   -0.2229    0.0000 C   0  0  0  0  0  0  0  0  0  0  0  0
    3.0523   -2.2148    0.0000 C   0  0  0  0  0  0  0  0  0  0  0  0
    3.9150   -0.7229    0.0000 C   0  0  0  0  0  0  0  0  0  0  0  0
  1  2  2  0  0  0  0
  3  5  1  0  0  0  0
  1  4  1  0  0  0  0
  4  5  2  0  0  0  0
  2  6  1  0  0  0  0
  3  6  2  0  0  0  0
  1  7  1  0  0  0  0
  2  8  1  0  0  0  0
  3  9  1  0  0  0  0
  9 10  3  0  0  0  0
  8 11  3  0  0  0  0
  5 12  1  0  0  0  0
  6 13  1  0  0  0  0
 14 23  1  0  0  0  0
 12 15  2  0  0  0  0
 12 16  1  0  0  0  0
 17 19  2  0  0  0  0
 17 18  1  0  0  0  0
 16 18  2  0  0  0  0
 15 19  1  0  0  0  0
 17 20  1  0  0  0  0
  7 21  1  0  0  0  0
  7 22  1  0  0  0  0
 21 23  1  0  0  0  0
 22 24  1  0  0  0  0
 14 24  1  0  0  0  0
M  END
> <IDNUMBER>
8020-7827

> <available>
11

> <H_acceptor>
4

> <H_donor>
2

> <B_rotN>
4

> <N_O>
6

> <logP>
2.3403

> <logD>
2.3403

> <logSw>
-2.5601

> <PSA>
74.146

> <pKa_ma>
16.0033

> <pKa_mb>
2.4004

> <N_Chirals>
0

> <Name>
4-amino-2-(4-fluorophenyl)-6-(morpholin-4-yl)pyridine-3,5-dicarbonitrile

> <Smile>
Nc(c(C#N)c(N1CCOCC1)nc1-c(cc2)ccc2F)c1C#N

> <Color>
NOT COLORED

> <Collection>
DC

> <InChI>
InChI=1S/C17H14FN5O/c18-12-3-1-11(2-4-12)16-13(9-19)15(21)14(10-20)17(22-16)23-5-7-24-8-6-23/h1-4H,5-8H2,(H2,21,22)

> <InChI Key>
LVDCOMJGMOYFFB-UHFFFAOYSA-N

> <PERCENTSP3>
23.53

> <Link>
https://www.chemdiv.com/catalog/screening-compounds/compound-8020-7827/

> <MFCDNUMBER>
MFCD31943784

> <STEREO>
ACHIRAL

> <State>
Solid

> <Similarity score>
0.21

$$$$
6-ethoxy-4-(pyrrolidin-1-yl)quinoline-3-carbonitrile
  -OEChem-04222410502D

 20 22  0     0  0  0  0  0  0999 V2000
    0.0402   -0.7793    0.0000 C   0  0  0  0  0  0  0  0  0  0  0  0
   -0.8345   -0.2966    0.0000 C   0  0  0  0  0  0  0  0  0  0  0  0
   -1.7092   -0.7943    0.0000 C   0  0  0  0  0  0  0  0  0  0  0  0
   -0.8396    0.7138    0.0000 N   0  0  0  0  0  0  0  0  0  0  0  0
   -0.8246   -2.2975    0.0000 N   0  0  0  0  0  0  0  0  0  0  0  0
   -2.5690   -0.3067    0.0000 C   0  0  0  0  0  0  0  0  0  0  0  0
   -3.4488    0.1860    0.0000 N   0  0  0  0  0  0  0  0  0  0  0  0
    0.0402   -1.7846    0.0000 C   0  0  0  0  0  0  0  0  0  0  0  0
    0.8848   -0.2816    0.0000 C   0  0  0  0  0  0  0  0  0  0  0  0
   -1.6942   -1.8048    0.0000 C   0  0  0  0  0  0  0  0  0  0  0  0
    0.8998   -2.2724    0.0000 C   0  0  0  0  0  0  0  0  0  0  0  0
    1.7546   -0.7641    0.0000 C   0  0  0  0  0  0  0  0  0  0  0  0
    1.7696   -1.7696    0.0000 C   0  0  0  0  0  0  0  0  0  0  0  0
    0.0251    1.2167    0.0000 C   0  0  0  0  0  0  0  0  0  0  0  0
   -1.5887    1.3776    0.0000 C   0  0  0  0  0  0  0  0  0  0  0  0
    2.6041   -0.2515    0.0000 O   0  0  0  0  0  0  0  0  0  0  0  0
    2.5890    0.7440    0.0000 C   0  0  0  0  0  0  0  0  0  0  0  0
   -1.1864    2.2975    0.0000 C   0  0  0  0  0  0  0  0  0  0  0  0
   -0.1860    2.1919    0.0000 C   0  0  0  0  0  0  0  0  0  0  0  0
    3.4488    1.2469    0.0000 C   0  0  0  0  0  0  0  0  0  0  0  0
  1  2  1  0  0  0  0
  2  3  2  0  0  0  0
  3 10  1  0  0  0  0
  2  4  1  0  0  0  0
  5  8  1  0  0  0  0
  3  6  1  0  0  0  0
  6  7  3  0  0  0  0
  1  8  1  0  0  0  0
  1  9  2  0  0  0  0
  5 10  2  0  0  0  0
  8 11  2  0  0  0  0
 11 13  1  0  0  0  0
  9 12  1  0  0  0  0
 12 13  2  0  0  0  0
  4 14  1  0  0  0  0
  4 15  1  0  0  0  0
 12 16  1  0  0  0  0
 16 17  1  0  0  0  0
 15 18  1  0  0  0  0
 14 19  1  0  0  0  0
 18 19  1  0  0  0  0
 17 20  1  0  0  0  0
M  END
> <IDNUMBER>
F360-0965

> <available>
8

> <H_acceptor>
3

> <H_donor>
0

> <B_rotN>
4

> <N_O>
4

> <logP>
3.3086

> <logD>
3.28

> <logSw>
-3.4509

> <PSA>
36.487

> <pKa_ma>
24.9311

> <pKa_mb>
6.2336

> <N_Chirals>
0

> <Name>
6-ethoxy-4-(pyrrolidin-1-yl)quinoline-3-carbonitrile

> <Smile>
CCOc(ccc1ncc2C#N)cc1c2N1CCCC1

> <Color>
NOT COLORED

> <Collection>
NC

> <InChI>
InChI=1S/C16H17N3O/c1-2-20-13-5-6-15-14(9-13)16(12(10-17)11-18-15)19-7-3-4-8-19/h5-6,9,11H,2-4,7-8H2,1H3

> <InChI Key>
RVQZMMKSSMPUPN-UHFFFAOYSA-N

> <PERCENTSP3>
37.5

> <Link>
https://www.chemdiv.com/catalog/screening-compounds/compound-F360-0965/

> <MFCDNUMBER>
MFCD27119033

> <CLNUMBER>
CL6761

> <STEREO>
ACHIRAL

> <State>
Solid

> <Similarity score>
0.21

$$$$
3-(4-ethoxyphenyl)-6,8-difluoro-1-(3-nitrophenyl)-1H-pyrazolo[4,3-c]quinoline
  -OEChem-04222410502D

 33 37  0     0  0  0  0  0  0999 V2000
   -1.5745   -0.1051    0.0000 N   0  0  0  0  0  0  0  0  0  0  0  0
   -0.9112   -1.5768    0.0000 C   0  0  0  0  0  0  0  0  0  0  0  0
   -1.7867   -1.0686    0.0000 C   0  0  0  0  0  0  0  0  0  0  0  0
   -0.5798    0.0023    0.0000 N   0  0  0  0  0  0  0  0  0  0  0  0
   -0.1479   -0.8995    0.0000 C   0  0  0  0  0  0  0  0  0  0  0  0
   -2.6670   -1.5768    0.0000 C   0  0  0  0  0  0  0  0  0  0  0  0
   -2.1185    3.2898    0.0000 N   0  3  0  0  0  0  0  0  0  0  0  0
   -2.6670   -2.5644    0.0000 C   0  0  0  0  0  0  0  0  0  0  0  0
   -1.7867   -3.0631    0.0000 N   0  0  0  0  0  0  0  0  0  0  0  0
   -2.1996    0.6656    0.0000 C   0  0  0  0  0  0  0  0  0  0  0  0
   -0.9112   -2.5644    0.0000 C   0  0  0  0  0  0  0  0  0  0  0  0
   -3.5379   -3.0631    0.0000 C   0  0  0  0  0  0  0  0  0  0  0  0
   -1.8465    1.5866    0.0000 C   0  0  0  0  0  0  0  0  0  0  0  0
   -2.4714    2.3546    0.0000 C   0  0  0  0  0  0  0  0  0  0  0  0
   -4.4132   -2.5644    0.0000 C   0  0  0  0  0  0  0  0  0  0  0  0
    0.8541   -1.0042    0.0000 C   0  0  0  0  0  0  0  0  0  0  0  0
   -3.5379   -1.0686    0.0000 C   0  0  0  0  0  0  0  0  0  0  0  0
   -1.1238    3.4544    0.0000 O   0  5  0  0  0  0  0  0  0  0  0  0
   -2.7385    4.0578    0.0000 O   0  0  0  0  0  0  0  0  0  0  0  0
   -4.4038   -1.5768    0.0000 C   0  0  0  0  0  0  0  0  0  0  0  0
    1.4289   -0.1789    0.0000 C   0  0  0  0  0  0  0  0  0  0  0  0
    1.2620   -1.8988    0.0000 C   0  0  0  0  0  0  0  0  0  0  0  0
   -3.5283   -4.0578    0.0000 F   0  0  0  0  0  0  0  0  0  0  0  0
   -5.2721   -1.0808    0.0000 F   0  0  0  0  0  0  0  0  0  0  0  0
    2.8769   -1.1760    0.0000 C   0  0  0  0  0  0  0  0  0  0  0  0
    2.2734   -2.0016    0.0000 C   0  0  0  0  0  0  0  0  0  0  0  0
    2.4380   -0.2697    0.0000 C   0  0  0  0  0  0  0  0  0  0  0  0
   -3.1657    0.5058    0.0000 C   0  0  0  0  0  0  0  0  0  0  0  0
    3.8671   -1.2762    0.0000 O   0  0  0  0  0  0  0  0  0  0  0  0
   -3.4471    2.2042    0.0000 C   0  0  0  0  0  0  0  0  0  0  0  0
   -3.7933    1.2689    0.0000 C   0  0  0  0  0  0  0  0  0  0  0  0
    4.2796   -2.1877    0.0000 C   0  0  0  0  0  0  0  0  0  0  0  0
    5.2721   -2.2780    0.0000 C   0  0  0  0  0  0  0  0  0  0  0  0
  2  3  2  0  0  0  0
  2  5  1  0  0  0  0
  1  3  1  0  0  0  0
  1  4  1  0  0  0  0
  4  5  2  0  0  0  0
  3  6  1  0  0  0  0
  7 14  1  0  0  0  0
  6  8  1  0  0  0  0
  8  9  1  0  0  0  0
  9 11  2  0  0  0  0
  1 10  1  0  0  0  0
  2 11  1  0  0  0  0
  8 12  2  0  0  0  0
 10 13  2  0  0  0  0
 13 14  1  0  0  0  0
 14 30  2  0  0  0  0
 15 20  2  0  0  0  0
 12 15  1  0  0  0  0
  5 16  1  0  0  0  0
  6 17  2  0  0  0  0
  7 18  1  0  0  0  0
  7 19  2  0  0  0  0
 17 20  1  0  0  0  0
 16 21  1  0  0  0  0
 16 22  2  0  0  0  0
 12 23  1  0  0  0  0
 20 24  1  0  0  0  0
 25 26  2  0  0  0  0
 22 26  1  0  0  0  0
 21 27  2  0  0  0  0
 25 27  1  0  0  0  0
 10 28  1  0  0  0  0
 25 29  1  0  0  0  0
 30 31  1  0  0  0  0
 28 31  2  0  0  0  0
 29 32  1  0  0  0  0
 32 33  1  0  0  0  0
M  CHG  2   7   1  18  -1
M  END
> <IDNUMBER>
C350-0827

> <available>
103

> <H_acceptor>
7

> <H_donor>
0

> <B_rotN>
5

> <N_O>
7

> <logP>
5.6659

> <logD>
5.6659

> <logSw>
-5.6365

> <PSA>
63.986

> <pKa_ma>
29.8521

> <pKa_mb>
2.2647

> <N_Chirals>
0

> <Name>
3-(4-ethoxyphenyl)-6,8-difluoro-1-(3-nitrophenyl)-1H-pyrazolo[4,3-c]quinoline

> <Smile>
CCOc(cc1)ccc1-c(c1cnc2c(F)cc(F)cc2c11)nn1-c1cc([N+]([O-])=O)ccc1

> <Color>
NOT COLORED

> <Collection>
DC

> <InChI>
InChI=1S/C24H16F2N4O3/c1-2-33-18-8-6-14(7-9-18)22-20-13-27-23-19(10-15(25)11-21(23)26)24(20)29(28-22)16-4-3-5-17(12-16)30(31)32/h3-13H,2H2,1H3

> <InChI Key>
CAJMJTWODBKEDP-UHFFFAOYSA-N

> <PERCENTSP3>
8.3

> <Link>
https://www.chemdiv.com/catalog/screening-compounds/compound-C350-0827/

> <MFCDNUMBER>
MFCD14750693

> <CLNUMBER>
CL4130

> <STEREO>
ACHIRAL

> <State>
Solid

> <Similarity score>
0.21

$$$$
4-(3-methoxy-4-propoxyphenyl)-2-(methylsulfanyl)-6-(pyrrolidin-1-yl)pyrimidine-5
  -OEChem-04222410502D

 27 29  0     0  0  0  0  0  0999 V2000
   -1.9144    1.2540    0.0000 C   0  0  0  0  0  0  0  0  0  0  0  0
   -1.0394    0.7290    0.0000 C   0  0  0  0  0  0  0  0  0  0  0  0
   -2.7892    0.7290    0.0000 N   0  0  0  0  0  0  0  0  0  0  0  0
   -1.0394   -0.2833    0.0000 C   0  0  0  0  0  0  0  0  0  0  0  0
   -2.7892   -0.2833    0.0000 C   0  0  0  0  0  0  0  0  0  0  0  0
   -1.9144   -0.7957    0.0000 N   0  0  0  0  0  0  0  0  0  0  0  0
   -1.9185    2.2789    0.0000 N   0  0  0  0  0  0  0  0  0  0  0  0
   -0.1396   -0.7957    0.0000 C   0  0  0  0  0  0  0  0  0  0  0  0
   -0.1396    1.2415    0.0000 C   0  0  0  0  0  0  0  0  0  0  0  0
    0.7477    0.7290    0.0000 N   0  0  0  0  0  0  0  0  0  0  0  0
   -0.1396   -1.8332    0.0000 C   0  0  0  0  0  0  0  0  0  0  0  0
    0.7477   -2.3455    0.0000 C   0  0  0  0  0  0  0  0  0  0  0  0
    1.6352   -1.8332    0.0000 C   0  0  0  0  0  0  0  0  0  0  0  0
    0.7477   -0.2833    0.0000 C   0  0  0  0  0  0  0  0  0  0  0  0
   -3.6891   -0.7957    0.0000 S   0  0  0  0  0  0  0  0  0  0  0  0
    1.6228   -0.7957    0.0000 C   0  0  0  0  0  0  0  0  0  0  0  0
    0.7437   -3.3537    0.0000 O   0  0  0  0  0  0  0  0  0  0  0  0
    2.3684   -2.2538    0.0000 O   0  0  0  0  0  0  0  0  0  0  0  0
   -2.7392    2.8912    0.0000 C   0  0  0  0  0  0  0  0  0  0  0  0
   -1.0769    2.8912    0.0000 C   0  0  0  0  0  0  0  0  0  0  0  0
   -4.5724   -0.2833    0.0000 C   0  0  0  0  0  0  0  0  0  0  0  0
    3.0975   -1.8205    0.0000 C   0  0  0  0  0  0  0  0  0  0  0  0
    1.6185   -3.8662    0.0000 C   0  0  0  0  0  0  0  0  0  0  0  0
    3.8432   -2.2538    0.0000 C   0  0  0  0  0  0  0  0  0  0  0  0
   -2.4267    3.8662    0.0000 C   0  0  0  0  0  0  0  0  0  0  0  0
   -1.3934    3.8662    0.0000 C   0  0  0  0  0  0  0  0  0  0  0  0
    4.5724   -1.8332    0.0000 C   0  0  0  0  0  0  0  0  0  0  0  0
  1  2  1  0  0  0  0
  1  3  2  0  0  0  0
  2  4  2  0  0  0  0
  3  5  1  0  0  0  0
  5  6  2  0  0  0  0
  4  6  1  0  0  0  0
  1  7  1  0  0  0  0
  4  8  1  0  0  0  0
  2  9  1  0  0  0  0
  9 10  3  0  0  0  0
  8 11  2  0  0  0  0
 11 12  1  0  0  0  0
 12 13  2  0  0  0  0
 13 16  1  0  0  0  0
  8 14  1  0  0  0  0
  5 15  1  0  0  0  0
 14 16  2  0  0  0  0
 12 17  1  0  0  0  0
 13 18  1  0  0  0  0
  7 19  1  0  0  0  0
  7 20  1  0  0  0  0
 15 21  1  0  0  0  0
 18 22  1  0  0  0  0
 17 23  1  0  0  0  0
 22 24  1  0  0  0  0
 19 25  1  0  0  0  0
 25 26  1  0  0  0  0
 20 26  1  0  0  0  0
 24 27  1  0  0  0  0
M  END
> <IDNUMBER>
D490-0181

> <available>
146

> <H_acceptor>
6

> <H_donor>
0

> <B_rotN>
8

> <N_O>
6

> <logP>
4.7537

> <logD>
4.7537

> <logSw>
-4.718

> <PSA>
53.973

> <pKa_ma>
21.9428

> <pKa_mb>
2.0033

> <N_Chirals>
0

> <Name>
4-(3-methoxy-4-propoxyphenyl)-2-(methylsulfanyl)-6-(pyrrolidin-1-yl)pyrimidine-5-carbonitrile

> <Smile>
CCCOc(ccc(-c1nc(SC)nc(N2CCCC2)c1C#N)c1)c1OC

> <Color>
YELLOW

> <Collection>
DC

> <InChI>
InChI=1S/C20H24N4O2S/c1-4-11-26-16-8-7-14(12-17(16)25-2)18-15(13-21)19(23-20(22-18)27-3)24-9-5-6-10-24/h7-8,12H,4-6,9-11H2,1-3H3

> <InChI Key>
CBSWLMAOUASUMO-UHFFFAOYSA-N

> <PERCENTSP3>
45

> <Link>
https://www.chemdiv.com/catalog/screening-compounds/compound-D490-0181/

> <MFCDNUMBER>
MFCD10090310

> <CLNUMBER>
CL6864

> <STEREO>
ACHIRAL

> <State>
Solid

> <Similarity score>
0.21

$$$$
6,8-difluoro-1-(4-methoxyphenyl)-3-phenyl-1H-pyrazolo[4,3-c]quinoline
  -OEChem-04222410502D

 29 33  0     0  0  0  0  0  0999 V2000
   -0.3623    0.4408    0.0000 N   0  0  0  0  0  0  0  0  0  0  0  0
    0.2938   -1.0363    0.0000 C   0  0  0  0  0  0  0  0  0  0  0  0
   -0.5742   -0.5379    0.0000 C   0  0  0  0  0  0  0  0  0  0  0  0
    0.6267    0.5457    0.0000 N   0  0  0  0  0  0  0  0  0  0  0  0
    1.0342   -0.3624    0.0000 C   0  0  0  0  0  0  0  0  0  0  0  0
   -1.4358   -1.0363    0.0000 C   0  0  0  0  0  0  0  0  0  0  0  0
   -1.4358   -2.0352    0.0000 C   0  0  0  0  0  0  0  0  0  0  0  0
   -0.5742   -2.5335    0.0000 N   0  0  0  0  0  0  0  0  0  0  0  0
    0.2938   -2.0352    0.0000 C   0  0  0  0  0  0  0  0  0  0  0  0
   -2.2974   -2.5335    0.0000 C   0  0  0  0  0  0  0  0  0  0  0  0
   -0.9919    1.2115    0.0000 C   0  0  0  0  0  0  0  0  0  0  0  0
   -3.1690   -2.0411    0.0000 C   0  0  0  0  0  0  0  0  0  0  0  0
   -2.2974   -0.5379    0.0000 C   0  0  0  0  0  0  0  0  0  0  0  0
   -3.1690   -1.0363    0.0000 C   0  0  0  0  0  0  0  0  0  0  0  0
    2.0331   -0.4630    0.0000 C   0  0  0  0  0  0  0  0  0  0  0  0
   -0.6325    2.1499    0.0000 C   0  0  0  0  0  0  0  0  0  0  0  0
   -1.9806    1.0503    0.0000 C   0  0  0  0  0  0  0  0  0  0  0  0
   -2.2974   -3.5384    0.0000 F   0  0  0  0  0  0  0  0  0  0  0  0
   -4.0309   -0.5278    0.0000 F   0  0  0  0  0  0  0  0  0  0  0  0
   -2.2610    2.7594    0.0000 C   0  0  0  0  0  0  0  0  0  0  0  0
   -2.6101    1.8211    0.0000 C   0  0  0  0  0  0  0  0  0  0  0  0
   -1.2681    2.9187    0.0000 C   0  0  0  0  0  0  0  0  0  0  0  0
   -2.8867    3.5384    0.0000 O   0  0  0  0  0  0  0  0  0  0  0  0
    2.4508   -1.3590    0.0000 C   0  0  0  0  0  0  0  0  0  0  0  0
    2.6082    0.3640    0.0000 C   0  0  0  0  0  0  0  0  0  0  0  0
   -3.8693    3.3728    0.0000 C   0  0  0  0  0  0  0  0  0  0  0  0
    3.4395   -1.4601    0.0000 C   0  0  0  0  0  0  0  0  0  0  0  0
    3.6071    0.2733    0.0000 C   0  0  0  0  0  0  0  0  0  0  0  0
    4.0309   -0.6347    0.0000 C   0  0  0  0  0  0  0  0  0  0  0  0
  2  3  2  0  0  0  0
  2  5  1  0  0  0  0
  1  3  1  0  0  0  0
  1  4  1  0  0  0  0
  4  5  2  0  0  0  0
  3  6  1  0  0  0  0
  6  7  1  0  0  0  0
  7  8  1  0  0  0  0
  8  9  2  0  0  0  0
  2  9  1  0  0  0  0
  7 10  2  0  0  0  0
  1 11  1  0  0  0  0
 12 14  2  0  0  0  0
 10 12  1  0  0  0  0
  6 13  2  0  0  0  0
 13 14  1  0  0  0  0
  5 15  1  0  0  0  0
 11 16  2  0  0  0  0
 11 17  1  0  0  0  0
 10 18  1  0  0  0  0
 14 19  1  0  0  0  0
 20 21  1  0  0  0  0
 17 21  2  0  0  0  0
 16 22  1  0  0  0  0
 20 22  2  0  0  0  0
 20 23  1  0  0  0  0
 15 24  2  0  0  0  0
 15 25  1  0  0  0  0
 23 26  1  0  0  0  0
 24 27  1  0  0  0  0
 27 29  2  0  0  0  0
 25 28  2  0  0  0  0
 28 29  1  0  0  0  0
M  END
> <IDNUMBER>
C350-0482

> <available>
57

> <H_acceptor>
3

> <H_donor>
0

> <B_rotN>
3

> <N_O>
4

> <logP>
5.304

> <logD>
5.304

> <logSw>
-5.5621

> <PSA>
31.0241

> <pKa_ma>
33.286

> <pKa_mb>
2.2647

> <N_Chirals>
0

> <Name>
6,8-difluoro-1-(4-methoxyphenyl)-3-phenyl-1H-pyrazolo[4,3-c]quinoline

> <Smile>
COc(cc1)ccc1-n(c1c(cc(cc2F)F)c2ncc11)nc1-c1ccccc1

> <Color>
NOT COLORED

> <Collection>
DC

> <InChI>
InChI=1S/C23H15F2N3O/c1-29-17-9-7-16(8-10-17)28-23-18-11-15(24)12-20(25)22(18)26-13-19(23)21(27-28)14-5-3-2-4-6-14/h2-13H,1H3

> <InChI Key>
XUBQPZLVDHGWOD-UHFFFAOYSA-N

> <PERCENTSP3>
4.3

> <Link>
https://www.chemdiv.com/catalog/screening-compounds/compound-C350-0482/

> <MFCDNUMBER>
MFCD14750442

> <CLNUMBER>
CL4130

> <STEREO>
ACHIRAL

> <State>
Solid

> <Similarity score>
0.21

$$$$
4-(3-methoxy-4-propoxyphenyl)-2-(methylsulfanyl)-6-(piperidin-1-yl)pyrimidine-5-
  -OEChem-04222410502D

 28 30  0     0  0  0  0  0  0999 V2000
   -1.9080    1.0269    0.0000 C   0  0  0  0  0  0  0  0  0  0  0  0
   -1.0331    0.5018    0.0000 C   0  0  0  0  0  0  0  0  0  0  0  0
   -2.7913    0.5018    0.0000 N   0  0  0  0  0  0  0  0  0  0  0  0
   -1.0331   -0.5230    0.0000 C   0  0  0  0  0  0  0  0  0  0  0  0
   -2.7913   -0.5230    0.0000 C   0  0  0  0  0  0  0  0  0  0  0  0
   -1.9080   -1.0352    0.0000 N   0  0  0  0  0  0  0  0  0  0  0  0
   -1.9163    2.0476    0.0000 N   0  0  0  0  0  0  0  0  0  0  0  0
   -0.1417   -1.0352    0.0000 C   0  0  0  0  0  0  0  0  0  0  0  0
   -0.1417    0.9978    0.0000 C   0  0  0  0  0  0  0  0  0  0  0  0
    0.7458    0.5018    0.0000 N   0  0  0  0  0  0  0  0  0  0  0  0
   -0.1417   -2.0519    0.0000 C   0  0  0  0  0  0  0  0  0  0  0  0
    0.7458   -2.5642    0.0000 C   0  0  0  0  0  0  0  0  0  0  0  0
    1.6331   -2.0519    0.0000 C   0  0  0  0  0  0  0  0  0  0  0  0
    0.7458   -0.5230    0.0000 C   0  0  0  0  0  0  0  0  0  0  0  0
   -3.6786   -1.0352    0.0000 S   0  0  0  0  0  0  0  0  0  0  0  0
    1.6205   -1.0352    0.0000 C   0  0  0  0  0  0  0  0  0  0  0  0
    0.7333   -3.5849    0.0000 O   0  0  0  0  0  0  0  0  0  0  0  0
    2.3581   -2.4768    0.0000 O   0  0  0  0  0  0  0  0  0  0  0  0
   -2.8038    2.5600    0.0000 C   0  0  0  0  0  0  0  0  0  0  0  0
   -1.0167    2.5600    0.0000 C   0  0  0  0  0  0  0  0  0  0  0  0
   -4.5660   -0.5230    0.0000 C   0  0  0  0  0  0  0  0  0  0  0  0
    3.0955   -2.0519    0.0000 C   0  0  0  0  0  0  0  0  0  0  0  0
    1.6205   -4.0973    0.0000 C   0  0  0  0  0  0  0  0  0  0  0  0
    3.8327   -2.4768    0.0000 C   0  0  0  0  0  0  0  0  0  0  0  0
   -2.8038    3.5973    0.0000 C   0  0  0  0  0  0  0  0  0  0  0  0
   -1.0167    3.5849    0.0000 C   0  0  0  0  0  0  0  0  0  0  0  0
    4.5660   -2.0519    0.0000 C   0  0  0  0  0  0  0  0  0  0  0  0
   -1.8997    4.0973    0.0000 C   0  0  0  0  0  0  0  0  0  0  0  0
  1  2  1  0  0  0  0
  1  3  2  0  0  0  0
  2  4  2  0  0  0  0
  3  5  1  0  0  0  0
  5  6  2  0  0  0  0
  4  6  1  0  0  0  0
  1  7  1  0  0  0  0
  4  8  1  0  0  0  0
  2  9  1  0  0  0  0
  9 10  3  0  0  0  0
  8 11  2  0  0  0  0
 11 12  1  0  0  0  0
 12 13  2  0  0  0  0
 13 16  1  0  0  0  0
  8 14  1  0  0  0  0
  5 15  1  0  0  0  0
 14 16  2  0  0  0  0
 12 17  1  0  0  0  0
 13 18  1  0  0  0  0
  7 19  1  0  0  0  0
  7 20  1  0  0  0  0
 15 21  1  0  0  0  0
 18 22  1  0  0  0  0
 17 23  1  0  0  0  0
 22 24  1  0  0  0  0
 19 25  1  0  0  0  0
 25 28  1  0  0  0  0
 20 26  1  0  0  0  0
 24 27  1  0  0  0  0
 26 28  1  0  0  0  0
M  END
> <IDNUMBER>
D490-0182

> <available>
144

> <H_acceptor>
6

> <H_donor>
0

> <B_rotN>
8

> <N_O>
6

> <logP>
5.1703

> <logD>
5.1703

> <logSw>
-5.2203

> <PSA>
53.607

> <pKa_ma>
22.7151

> <pKa_mb>
2.0033

> <N_Chirals>
0

> <Name>
4-(3-methoxy-4-propoxyphenyl)-2-(methylsulfanyl)-6-(piperidin-1-yl)pyrimidine-5-carbonitrile

> <Smile>
CCCOc(ccc(-c1nc(SC)nc(N2CCCCC2)c1C#N)c1)c1OC

> <Color>
ORANGE

> <Collection>
DC

> <InChI>
InChI=1S/C21H26N4O2S/c1-4-12-27-17-9-8-15(13-18(17)26-2)19-16(14-22)20(24-21(23-19)28-3)25-10-6-5-7-11-25/h8-9,13H,4-7,10-12H2,1-3H3

> <InChI Key>
OOQJUJOCDGLIPK-UHFFFAOYSA-N

> <PERCENTSP3>
47.6

> <Link>
https://www.chemdiv.com/catalog/screening-compounds/compound-D490-0182/

> <MFCDNUMBER>
MFCD10090311

> <CLNUMBER>
CL6864

> <STEREO>
ACHIRAL

> <State>
Solid

> <Similarity score>
0.21

$$$$
1-(3,4-dimethylphenyl)-6,8-difluoro-3-(3-methoxyphenyl)-1H-pyrazolo[4,3-c]quinol
  -OEChem-04222410502D

 31 35  0     0  0  0  0  0  0999 V2000
   -0.4488    0.2927    0.0000 N   0  0  0  0  0  0  0  0  0  0  0  0
    0.2258   -1.1903    0.0000 C   0  0  0  0  0  0  0  0  0  0  0  0
   -0.6495   -0.6718    0.0000 C   0  0  0  0  0  0  0  0  0  0  0  0
    0.5547    0.3986    0.0000 N   0  0  0  0  0  0  0  0  0  0  0  0
    0.9839   -0.5101    0.0000 C   0  0  0  0  0  0  0  0  0  0  0  0
   -1.5359   -1.1903    0.0000 C   0  0  0  0  0  0  0  0  0  0  0  0
   -1.5359   -2.1659    0.0000 C   0  0  0  0  0  0  0  0  0  0  0  0
   -0.6495   -2.6675    0.0000 N   0  0  0  0  0  0  0  0  0  0  0  0
   -1.0731    1.0620    0.0000 C   0  0  0  0  0  0  0  0  0  0  0  0
    0.2258   -2.1659    0.0000 C   0  0  0  0  0  0  0  0  0  0  0  0
    1.9818   -0.5993    0.0000 C   0  0  0  0  0  0  0  0  0  0  0  0
   -2.3998   -2.6675    0.0000 C   0  0  0  0  0  0  0  0  0  0  0  0
   -0.7331    1.9818    0.0000 C   0  0  0  0  0  0  0  0  0  0  0  0
   -3.2863   -2.1659    0.0000 C   0  0  0  0  0  0  0  0  0  0  0  0
   -2.3998   -0.6718    0.0000 C   0  0  0  0  0  0  0  0  0  0  0  0
   -1.3853    2.7343    0.0000 C   0  0  0  0  0  0  0  0  0  0  0  0
   -3.2752   -1.1903    0.0000 C   0  0  0  0  0  0  0  0  0  0  0  0
    2.5616    0.2147    0.0000 C   0  0  0  0  0  0  0  0  0  0  0  0
   -2.0655    0.8948    0.0000 C   0  0  0  0  0  0  0  0  0  0  0  0
   -2.3721    2.5560    0.0000 C   0  0  0  0  0  0  0  0  0  0  0  0
   -2.7122    1.6306    0.0000 C   0  0  0  0  0  0  0  0  0  0  0  0
   -2.3944   -3.6597    0.0000 F   0  0  0  0  0  0  0  0  0  0  0  0
    3.5762    0.1254    0.0000 C   0  0  0  0  0  0  0  0  0  0  0  0
   -4.1504   -0.6884    0.0000 F   0  0  0  0  0  0  0  0  0  0  0  0
    2.4055   -1.5024    0.0000 C   0  0  0  0  0  0  0  0  0  0  0  0
    4.1504    0.9226    0.0000 O   0  0  0  0  0  0  0  0  0  0  0  0
    3.4090   -1.5973    0.0000 C   0  0  0  0  0  0  0  0  0  0  0  0
   -1.0508    3.6597    0.0000 C   0  0  0  0  0  0  0  0  0  0  0  0
   -3.0186    3.3198    0.0000 C   0  0  0  0  0  0  0  0  0  0  0  0
    4.0000   -0.7833    0.0000 C   0  0  0  0  0  0  0  0  0  0  0  0
    3.7156    1.8202    0.0000 C   0  0  0  0  0  0  0  0  0  0  0  0
  2  3  2  0  0  0  0
  2  5  1  0  0  0  0
  1  3  1  0  0  0  0
  1  4  1  0  0  0  0
  4  5  2  0  0  0  0
  3  6  1  0  0  0  0
  6  7  1  0  0  0  0
  7  8  1  0  0  0  0
  8 10  2  0  0  0  0
  1  9  1  0  0  0  0
  2 10  1  0  0  0  0
  5 11  1  0  0  0  0
  7 12  2  0  0  0  0
 12 14  1  0  0  0  0
  9 13  1  0  0  0  0
 14 17  2  0  0  0  0
  6 15  2  0  0  0  0
 13 16  2  0  0  0  0
 16 20  1  0  0  0  0
 15 17  1  0  0  0  0
 11 18  1  0  0  0  0
  9 19  2  0  0  0  0
 20 21  2  0  0  0  0
 19 21  1  0  0  0  0
 12 22  1  0  0  0  0
 18 23  2  0  0  0  0
 23 30  1  0  0  0  0
 17 24  1  0  0  0  0
 11 25  2  0  0  0  0
 23 26  1  0  0  0  0
 25 27  1  0  0  0  0
 16 28  1  0  0  0  0
 20 29  1  0  0  0  0
 27 30  2  0  0  0  0
 26 31  1  0  0  0  0
M  END
> <IDNUMBER>
C350-0670

> <available>
49

> <H_acceptor>
3

> <H_donor>
0

> <B_rotN>
3

> <N_O>
4

> <logP>
6.7029

> <logD>
6.7024

> <logSw>
-5.9369

> <PSA>
31.0241

> <pKa_ma>
28.0078

> <pKa_mb>
4.4251

> <N_Chirals>
0

> <Name>
1-(3,4-dimethylphenyl)-6,8-difluoro-3-(3-methoxyphenyl)-1H-pyrazolo[4,3-c]quinoline

> <Smile>
Cc(cc1)c(C)cc1-n(c1c(cc(cc2F)F)c2ncc11)nc1-c1cc(OC)ccc1

> <Color>
NOT COLORED

> <Collection>
DC

> <InChI>
InChI=1S/C25H19F2N3O/c1-14-7-8-18(9-15(14)2)30-25-20-11-17(26)12-22(27)24(20)28-13-21(25)23(29-30)16-5-4-6-19(10-16)31-3/h4-13H,1-3H3

> <InChI Key>
OLNNKQODUWNSJF-UHFFFAOYSA-N

> <PERCENTSP3>
12

> <Link>
https://www.chemdiv.com/catalog/screening-compounds/compound-C350-0670/

> <MFCDNUMBER>
MFCD14750567

> <CLNUMBER>
CL4130

> <STEREO>
ACHIRAL

> <State>
Solid

> <Similarity score>
0.21

$$$$
2-(2-fluorophenyl)-4-(4-phenylpiperazin-1-yl)quinazoline
  -OEChem-04222410502D

 29 33  0     0  0  0  0  0  0999 V2000
    1.5230    0.0960    0.0000 N   0  0  0  0  0  0  0  0  0  0  0  0
    2.4913    0.3530    0.0000 C   0  0  0  0  0  0  0  0  0  0  0  0
    1.2506   -0.8573    0.0000 C   0  0  0  0  0  0  0  0  0  0  0  0
    3.1872   -0.3581    0.0000 N   0  0  0  0  0  0  0  0  0  0  0  0
    1.9619   -1.5483    0.0000 C   0  0  0  0  0  0  0  0  0  0  0  0
    2.7637    1.3061    0.0000 C   0  0  0  0  0  0  0  0  0  0  0  0
    0.2927   -1.0945    0.0000 N   0  0  0  0  0  0  0  0  0  0  0  0
   -1.6388   -1.5936    0.0000 N   0  0  0  0  0  0  0  0  0  0  0  0
    2.9250   -1.3061    0.0000 C   0  0  0  0  0  0  0  0  0  0  0  0
    3.7318    1.5483    0.0000 C   0  0  0  0  0  0  0  0  0  0  0  0
   -0.4135   -0.3884    0.0000 C   0  0  0  0  0  0  0  0  0  0  0  0
    0.0101   -2.0576    0.0000 C   0  0  0  0  0  0  0  0  0  0  0  0
   -0.9429   -2.2994    0.0000 C   0  0  0  0  0  0  0  0  0  0  0  0
   -1.3815   -0.6302    0.0000 C   0  0  0  0  0  0  0  0  0  0  0  0
   -2.6019   -1.8456    0.0000 C   0  0  0  0  0  0  0  0  0  0  0  0
    4.5638    0.8320    0.0000 F   0  0  0  0  0  0  0  0  0  0  0  0
    1.6994   -2.5164    0.0000 C   0  0  0  0  0  0  0  0  0  0  0  0
    2.0675    2.0172    0.0000 C   0  0  0  0  0  0  0  0  0  0  0  0
    3.6259   -2.0021    0.0000 C   0  0  0  0  0  0  0  0  0  0  0  0
    3.9990    2.5164    0.0000 C   0  0  0  0  0  0  0  0  0  0  0  0
   -3.3132   -1.1245    0.0000 C   0  0  0  0  0  0  0  0  0  0  0  0
   -2.8997   -2.8140    0.0000 C   0  0  0  0  0  0  0  0  0  0  0  0
    2.4006   -3.2275    0.0000 C   0  0  0  0  0  0  0  0  0  0  0  0
    2.3250    2.9702    0.0000 C   0  0  0  0  0  0  0  0  0  0  0  0
    3.3687   -2.9702    0.0000 C   0  0  0  0  0  0  0  0  0  0  0  0
    3.2931    3.2275    0.0000 C   0  0  0  0  0  0  0  0  0  0  0  0
   -4.2813   -1.3815    0.0000 C   0  0  0  0  0  0  0  0  0  0  0  0
   -3.8577   -3.0559    0.0000 C   0  0  0  0  0  0  0  0  0  0  0  0
   -4.5638   -2.3350    0.0000 C   0  0  0  0  0  0  0  0  0  0  0  0
  1  2  1  0  0  0  0
  1  3  2  0  0  0  0
  2  4  2  0  0  0  0
  3  5  1  0  0  0  0
  2  6  1  0  0  0  0
  3  7  1  0  0  0  0
  8 13  1  0  0  0  0
  5  9  1  0  0  0  0
  4  9  1  0  0  0  0
  6 10  2  0  0  0  0
  7 11  1  0  0  0  0
  7 12  1  0  0  0  0
 12 13  1  0  0  0  0
 11 14  1  0  0  0  0
  8 14  1  0  0  0  0
  8 15  1  0  0  0  0
 10 16  1  0  0  0  0
  5 17  2  0  0  0  0
  6 18  1  0  0  0  0
  9 19  2  0  0  0  0
 19 25  1  0  0  0  0
 10 20  1  0  0  0  0
 20 26  2  0  0  0  0
 15 21  2  0  0  0  0
 15 22  1  0  0  0  0
 17 23  1  0  0  0  0
 18 24  2  0  0  0  0
 23 25  2  0  0  0  0
 24 26  1  0  0  0  0
 21 27  1  0  0  0  0
 27 29  2  0  0  0  0
 22 28  2  0  0  0  0
 28 29  1  0  0  0  0
M  END
> <IDNUMBER>
K669-0185

> <available>
2

> <H_acceptor>
2

> <H_donor>
0

> <B_rotN>
3

> <N_O>
4

> <logP>
5.3989

> <logD>
5.1295

> <logSw>
-6.2224

> <PSA>
24.8988

> <pKa_ma>
22.2134

> <pKa_mb>
7.3342

> <N_Chirals>
0

> <Name>
2-(2-fluorophenyl)-4-(4-phenylpiperazin-1-yl)quinazoline

> <Smile>
Fc(cccc1)c1-c1nc2ccccc2c(N(CC2)CCN2c2ccccc2)n1

> <Color>
ORANGE

> <Collection>
NC

> <InChI>
InChI=1S/C24H21FN4/c25-21-12-6-4-10-19(21)23-26-22-13-7-5-11-20(22)24(27-23)29-16-14-28(15-17-29)18-8-2-1-3-9-18/h1-13H,14-17H2

> <InChI Key>
RHWPOMMEZPJCJP-UHFFFAOYSA-N

> <PERCENTSP3>
16.7

> <Link>
https://www.chemdiv.com/catalog/screening-compounds/compound-K669-0185/

> <MFCDNUMBER>
MFCD03671775

> <CLNUMBER>
CL2243

> <STEREO>
ACHIRAL

> <State>
Solid

> <Similarity score>
0.21

$$$$
6-ethoxy-4-(piperidin-1-yl)quinoline-3-carbonitrile
  -OEChem-04222410502D

 21 23  0     0  0  0  0  0  0999 V2000
    0.0278   -0.9923    0.0000 C   0  0  0  0  0  0  0  0  0  0  0  0
   -0.8357   -0.5024    0.0000 C   0  0  0  0  0  0  0  0  0  0  0  0
   -1.7043   -1.0075    0.0000 C   0  0  0  0  0  0  0  0  0  0  0  0
   -0.8408    0.5075    0.0000 N   0  0  0  0  0  0  0  0  0  0  0  0
   -0.8257   -2.5073    0.0000 N   0  0  0  0  0  0  0  0  0  0  0  0
   -2.5678   -0.5075    0.0000 C   0  0  0  0  0  0  0  0  0  0  0  0
   -3.4465   -0.0177    0.0000 N   0  0  0  0  0  0  0  0  0  0  0  0
    0.0278   -1.9923    0.0000 C   0  0  0  0  0  0  0  0  0  0  0  0
    0.8863   -0.4925    0.0000 C   0  0  0  0  0  0  0  0  0  0  0  0
   -1.6992   -2.0072    0.0000 C   0  0  0  0  0  0  0  0  0  0  0  0
    0.9015   -2.4770    0.0000 C   0  0  0  0  0  0  0  0  0  0  0  0
    1.7499   -0.9772    0.0000 C   0  0  0  0  0  0  0  0  0  0  0  0
    1.7650   -1.9771    0.0000 C   0  0  0  0  0  0  0  0  0  0  0  0
    0.0228    1.0074    0.0000 C   0  0  0  0  0  0  0  0  0  0  0  0
   -1.7195    0.9923    0.0000 C   0  0  0  0  0  0  0  0  0  0  0  0
    2.6032   -0.4620    0.0000 O   0  0  0  0  0  0  0  0  0  0  0  0
    2.5881    0.5378    0.0000 C   0  0  0  0  0  0  0  0  0  0  0  0
   -1.7195    1.9971    0.0000 C   0  0  0  0  0  0  0  0  0  0  0  0
    0.0076    2.0072    0.0000 C   0  0  0  0  0  0  0  0  0  0  0  0
    3.4465    1.0529    0.0000 C   0  0  0  0  0  0  0  0  0  0  0  0
   -0.8559    2.5073    0.0000 C   0  0  0  0  0  0  0  0  0  0  0  0
  1  2  1  0  0  0  0
  2  3  2  0  0  0  0
  3 10  1  0  0  0  0
  2  4  1  0  0  0  0
  5  8  1  0  0  0  0
  3  6  1  0  0  0  0
  6  7  3  0  0  0  0
  1  8  1  0  0  0  0
  1  9  2  0  0  0  0
  5 10  2  0  0  0  0
  8 11  2  0  0  0  0
 11 13  1  0  0  0  0
  9 12  1  0  0  0  0
 12 13  2  0  0  0  0
  4 14  1  0  0  0  0
  4 15  1  0  0  0  0
 12 16  1  0  0  0  0
 16 17  1  0  0  0  0
 15 18  1  0  0  0  0
 14 19  1  0  0  0  0
 19 21  1  0  0  0  0
 17 20  1  0  0  0  0
 18 21  1  0  0  0  0
M  END
> <IDNUMBER>
F360-0966

> <available>
32

> <H_acceptor>
3

> <H_donor>
0

> <B_rotN>
4

> <N_O>
4

> <logP>
3.5826

> <logD>
3.554

> <logSw>
-3.6327

> <PSA>
36.121

> <pKa_ma>
25.7034

> <pKa_mb>
6.2336

> <N_Chirals>
0

> <Name>
6-ethoxy-4-(piperidin-1-yl)quinoline-3-carbonitrile

> <Smile>
CCOc(ccc1ncc2C#N)cc1c2N1CCCCC1

> <Color>
NOT COLORED

> <Collection>
NC

> <InChI>
InChI=1S/C17H19N3O/c1-2-21-14-6-7-16-15(10-14)17(13(11-18)12-19-16)20-8-4-3-5-9-20/h6-7,10,12H,2-5,8-9H2,1H3

> <InChI Key>
GARRQDDQGGOIGD-UHFFFAOYSA-N

> <PERCENTSP3>
41.2

> <Link>
https://www.chemdiv.com/catalog/screening-compounds/compound-F360-0966/

> <MFCDNUMBER>
MFCD27119034

> <CLNUMBER>
CL6761

> <STEREO>
ACHIRAL

> <State>
Solid

> <Similarity score>
0.21

$$$$
3-(3-bromophenyl)-6-fluoro-1-(4-fluorophenyl)-1H-pyrazolo[4,3-c]quinoline
  -OEChem-04222410502D

 28 32  0     0  0  0  0  0  0999 V2000
   -0.8724    0.4389    0.0000 N   0  0  0  0  0  0  0  0  0  0  0  0
   -0.2097   -1.0286    0.0000 C   0  0  0  0  0  0  0  0  0  0  0  0
    0.1207    0.5385    0.0000 N   0  0  0  0  0  0  0  0  0  0  0  0
   -1.0839   -0.5329    0.0000 C   0  0  0  0  0  0  0  0  0  0  0  0
    0.5455   -0.3517    0.0000 C   0  0  0  0  0  0  0  0  0  0  0  0
   -1.9651   -1.0286    0.0000 C   0  0  0  0  0  0  0  0  0  0  0  0
   -1.0839   -2.5194    0.0000 N   0  0  0  0  0  0  0  0  0  0  0  0
   -1.9651   -2.0254    0.0000 C   0  0  0  0  0  0  0  0  0  0  0  0
   -0.2097   -2.0254    0.0000 C   0  0  0  0  0  0  0  0  0  0  0  0
    1.5583   -0.4567    0.0000 C   0  0  0  0  0  0  0  0  0  0  0  0
   -1.4960    1.2101    0.0000 C   0  0  0  0  0  0  0  0  0  0  0  0
   -2.8375   -2.5194    0.0000 C   0  0  0  0  0  0  0  0  0  0  0  0
    2.1303    0.3589    0.0000 C   0  0  0  0  0  0  0  0  0  0  0  0
   -1.1442    2.1249    0.0000 C   0  0  0  0  0  0  0  0  0  0  0  0
   -2.4751    1.0519    0.0000 C   0  0  0  0  0  0  0  0  0  0  0  0
   -2.8375   -0.5329    0.0000 C   0  0  0  0  0  0  0  0  0  0  0  0
    3.1430    0.2720    0.0000 C   0  0  0  0  0  0  0  0  0  0  0  0
   -2.7469    2.7415    0.0000 C   0  0  0  0  0  0  0  0  0  0  0  0
   -2.8375   -3.5162    0.0000 F   0  0  0  0  0  0  0  0  0  0  0  0
   -1.7678    2.8979    0.0000 C   0  0  0  0  0  0  0  0  0  0  0  0
   -3.0933    1.8105    0.0000 C   0  0  0  0  0  0  0  0  0  0  0  0
    3.7117    1.0981    0.0000 Br  0  0  0  0  0  0  0  0  0  0  0  0
   -3.3812    3.5162    0.0000 F   0  0  0  0  0  0  0  0  0  0  0  0
    1.9651   -1.3574    0.0000 C   0  0  0  0  0  0  0  0  0  0  0  0
   -3.7010   -1.0286    0.0000 C   0  0  0  0  0  0  0  0  0  0  0  0
    2.9761   -1.4534    0.0000 C   0  0  0  0  0  0  0  0  0  0  0  0
   -3.7117   -2.0254    0.0000 C   0  0  0  0  0  0  0  0  0  0  0  0
    3.5800   -0.6378    0.0000 C   0  0  0  0  0  0  0  0  0  0  0  0
  2  4  2  0  0  0  0
  2  5  1  0  0  0  0
  1  3  1  0  0  0  0
  1  4  1  0  0  0  0
  3  5  2  0  0  0  0
  4  6  1  0  0  0  0
  7  8  1  0  0  0  0
  7  9  2  0  0  0  0
  6  8  1  0  0  0  0
  2  9  1  0  0  0  0
  5 10  1  0  0  0  0
  1 11  1  0  0  0  0
  8 12  2  0  0  0  0
 10 13  1  0  0  0  0
 11 14  2  0  0  0  0
 11 15  1  0  0  0  0
  6 16  2  0  0  0  0
 13 17  2  0  0  0  0
 18 21  1  0  0  0  0
 18 20  2  0  0  0  0
 12 19  1  0  0  0  0
 14 20  1  0  0  0  0
 15 21  2  0  0  0  0
 17 22  1  0  0  0  0
 18 23  1  0  0  0  0
 10 24  2  0  0  0  0
 16 25  1  0  0  0  0
 24 26  1  0  0  0  0
 25 27  2  0  0  0  0
 12 27  1  0  0  0  0
 26 28  2  0  0  0  0
 17 28  1  0  0  0  0
M  END
> <IDNUMBER>
C350-0859

> <available>
109

> <H_acceptor>
2

> <H_donor>
0

> <B_rotN>
2

> <N_O>
3

> <logP>
6.1773

> <logD>
6.1773

> <logSw>
-6.6124

> <PSA>
23.4803

> <pKa_ma>
14

> <pKa_mb>
2.6131

> <N_Chirals>
0

> <Name>
3-(3-bromophenyl)-6-fluoro-1-(4-fluorophenyl)-1H-pyrazolo[4,3-c]quinoline

> <Smile>
Fc(cc1)ccc1-n(c(c1ccc2)c3cnc1c2F)nc3-c1cccc(Br)c1

> <Color>
NOT COLORED

> <Collection>
DC

> <InChI>
InChI=1S/C22H12BrF2N3/c23-14-4-1-3-13(11-14)20-18-12-26-21-17(5-2-6-19(21)25)22(18)28(27-20)16-9-7-15(24)8-10-16/h1-12H

> <InChI Key>
PLWYDPINYRKPOI-UHFFFAOYSA-N

> <PERCENTSP3>
0

> <Link>
https://www.chemdiv.com/catalog/screening-compounds/compound-C350-0859/

> <MFCDNUMBER>
MFCD14750713

> <CLNUMBER>
CL4130

> <STEREO>
ACHIRAL

> <State>
Solid

> <Similarity score>
0.21

$$$$
1-(3-chloro-4-fluorophenyl)-6,8-difluoro-3-phenyl-1H-pyrazolo[4,3-c]quinoline
  -OEChem-04222410502D

 29 33  0     0  0  0  0  0  0999 V2000
   -0.3339    0.5180    0.0000 N   0  0  0  0  0  0  0  0  0  0  0  0
    0.3171   -0.9549    0.0000 C   0  0  0  0  0  0  0  0  0  0  0  0
   -0.5463   -0.4563    0.0000 C   0  0  0  0  0  0  0  0  0  0  0  0
    0.6510    0.6242    0.0000 N   0  0  0  0  0  0  0  0  0  0  0  0
    1.0588   -0.2901    0.0000 C   0  0  0  0  0  0  0  0  0  0  0  0
   -1.4082   -0.9704    0.0000 C   0  0  0  0  0  0  0  0  0  0  0  0
   -1.4082   -1.9707    0.0000 C   0  0  0  0  0  0  0  0  0  0  0  0
   -0.5356   -2.4695    0.0000 N   0  0  0  0  0  0  0  0  0  0  0  0
   -1.0004    1.2597    0.0000 C   0  0  0  0  0  0  0  0  0  0  0  0
    0.3324   -1.9707    0.0000 C   0  0  0  0  0  0  0  0  0  0  0  0
   -2.2764   -2.4804    0.0000 C   0  0  0  0  0  0  0  0  0  0  0  0
   -1.9684    1.0473    0.0000 C   0  0  0  0  0  0  0  0  0  0  0  0
   -2.6333    1.7845    0.0000 C   0  0  0  0  0  0  0  0  0  0  0  0
   -3.1489   -1.9800    0.0000 C   0  0  0  0  0  0  0  0  0  0  0  0
   -2.2764   -0.4656    0.0000 C   0  0  0  0  0  0  0  0  0  0  0  0
   -3.1489   -0.9704    0.0000 C   0  0  0  0  0  0  0  0  0  0  0  0
    2.0439   -0.4871    0.0000 C   0  0  0  0  0  0  0  0  0  0  0  0
   -2.3317    2.7279    0.0000 C   0  0  0  0  0  0  0  0  0  0  0  0
   -0.6973    2.1986    0.0000 C   0  0  0  0  0  0  0  0  0  0  0  0
   -1.3528    2.9358    0.0000 C   0  0  0  0  0  0  0  0  0  0  0  0
   -2.2870   -3.4698    0.0000 F   0  0  0  0  0  0  0  0  0  0  0  0
   -3.6076    1.5722    0.0000 Cl  0  0  0  0  0  0  0  0  0  0  0  0
   -2.9966    3.4698    0.0000 F   0  0  0  0  0  0  0  0  0  0  0  0
   -4.0123   -0.4718    0.0000 F   0  0  0  0  0  0  0  0  0  0  0  0
    2.3609   -1.4397    0.0000 C   0  0  0  0  0  0  0  0  0  0  0  0
    2.7103    0.2609    0.0000 C   0  0  0  0  0  0  0  0  0  0  0  0
    3.6891    0.0638    0.0000 C   0  0  0  0  0  0  0  0  0  0  0  0
    3.3460   -1.6476    0.0000 C   0  0  0  0  0  0  0  0  0  0  0  0
    4.0123   -0.8949    0.0000 C   0  0  0  0  0  0  0  0  0  0  0  0
  2  3  2  0  0  0  0
  2  5  1  0  0  0  0
  1  3  1  0  0  0  0
  1  4  1  0  0  0  0
  4  5  2  0  0  0  0
  3  6  1  0  0  0  0
  6  7  1  0  0  0  0
  7  8  1  0  0  0  0
  1  9  1  0  0  0  0
  2 10  1  0  0  0  0
  8 10  2  0  0  0  0
  7 11  2  0  0  0  0
  9 12  1  0  0  0  0
 12 13  2  0  0  0  0
 14 16  2  0  0  0  0
 11 14  1  0  0  0  0
  6 15  2  0  0  0  0
 15 16  1  0  0  0  0
  5 17  1  0  0  0  0
 18 20  2  0  0  0  0
 13 18  1  0  0  0  0
  9 19  2  0  0  0  0
 19 20  1  0  0  0  0
 11 21  1  0  0  0  0
 13 22  1  0  0  0  0
 18 23  1  0  0  0  0
 16 24  1  0  0  0  0
 17 25  2  0  0  0  0
 17 26  1  0  0  0  0
 26 27  2  0  0  0  0
 25 28  1  0  0  0  0
 28 29  2  0  0  0  0
 27 29  1  0  0  0  0
M  END
> <IDNUMBER>
C350-0098

> <available>
56

> <H_acceptor>
2

> <H_donor>
0

> <B_rotN>
2

> <N_O>
3

> <logP>
5.9114

> <logD>
5.9114

> <logSw>
-6.4075

> <PSA>
23.4803

> <pKa_ma>
14

> <pKa_mb>
2.2647

> <N_Chirals>
0

> <Name>
1-(3-chloro-4-fluorophenyl)-6,8-difluoro-3-phenyl-1H-pyrazolo[4,3-c]quinoline

> <Smile>
Fc(cc12)cc(F)c1ncc1c2n(-c(cc2)cc(Cl)c2F)nc1-c1ccccc1

> <Color>
NOT COLORED

> <Collection>
DC

> <InChI>
InChI=1S/C22H11ClF3N3/c23-17-10-14(6-7-18(17)25)29-22-15-8-13(24)9-19(26)21(15)27-11-16(22)20(28-29)12-4-2-1-3-5-12/h1-11H

> <InChI Key>
OKMBUHWMGSXEED-UHFFFAOYSA-N

> <PERCENTSP3>
0

> <Link>
https://www.chemdiv.com/catalog/screening-compounds/compound-C350-0098/

> <MFCDNUMBER>
MFCD14750125

> <CLNUMBER>
CL4130

> <STEREO>
ACHIRAL

> <State>
Solid

> <Similarity score>
0.21

$$$$
2-(2-fluorophenyl)-N,N-dipropylquinazolin-4-amine
  -OEChem-04222410502D

 24 26  0     0  0  0  0  0  0999 V2000
    0.4507   -0.2455    0.0000 N   0  0  0  0  0  0  0  0  0  0  0  0
    0.4302   -1.2476    0.0000 C   0  0  0  0  0  0  0  0  0  0  0  0
   -0.4149    0.2556    0.0000 C   0  0  0  0  0  0  0  0  0  0  0  0
   -0.4350   -1.7435    0.0000 N   0  0  0  0  0  0  0  0  0  0  0  0
   -1.2853   -0.2455    0.0000 C   0  0  0  0  0  0  0  0  0  0  0  0
    1.2857   -1.7640    0.0000 C   0  0  0  0  0  0  0  0  0  0  0  0
   -1.3006   -1.2323    0.0000 C   0  0  0  0  0  0  0  0  0  0  0  0
   -0.4149    1.2577    0.0000 N   0  0  0  0  0  0  0  0  0  0  0  0
    2.1509   -1.2730    0.0000 C   0  0  0  0  0  0  0  0  0  0  0  0
    2.1509   -0.2709    0.0000 F   0  0  0  0  0  0  0  0  0  0  0  0
   -2.1356    0.2709    0.0000 C   0  0  0  0  0  0  0  0  0  0  0  0
    1.2704   -2.7658    0.0000 C   0  0  0  0  0  0  0  0  0  0  0  0
   -2.1610   -1.7181    0.0000 C   0  0  0  0  0  0  0  0  0  0  0  0
    0.4656    1.7588    0.0000 C   0  0  0  0  0  0  0  0  0  0  0  0
   -1.2805    1.7588    0.0000 C   0  0  0  0  0  0  0  0  0  0  0  0
    3.0165   -1.7789    0.0000 C   0  0  0  0  0  0  0  0  0  0  0  0
    0.4757    2.7609    0.0000 C   0  0  0  0  0  0  0  0  0  0  0  0
   -1.2704    2.7658    0.0000 C   0  0  0  0  0  0  0  0  0  0  0  0
   -3.0012   -0.2153    0.0000 C   0  0  0  0  0  0  0  0  0  0  0  0
    2.1308   -3.2769    0.0000 C   0  0  0  0  0  0  0  0  0  0  0  0
   -3.0165   -1.2170    0.0000 C   0  0  0  0  0  0  0  0  0  0  0  0
    1.3465    3.2519    0.0000 C   0  0  0  0  0  0  0  0  0  0  0  0
   -2.1356    3.2769    0.0000 C   0  0  0  0  0  0  0  0  0  0  0  0
    3.0012   -2.7811    0.0000 C   0  0  0  0  0  0  0  0  0  0  0  0
  1  2  1  0  0  0  0
  1  3  2  0  0  0  0
  2  4  2  0  0  0  0
  4  7  1  0  0  0  0
  3  5  1  0  0  0  0
  2  6  1  0  0  0  0
  5  7  1  0  0  0  0
  3  8  1  0  0  0  0
  6  9  1  0  0  0  0
  9 10  1  0  0  0  0
  5 11  2  0  0  0  0
  6 12  2  0  0  0  0
  7 13  2  0  0  0  0
 13 21  1  0  0  0  0
  8 14  1  0  0  0  0
  8 15  1  0  0  0  0
  9 16  2  0  0  0  0
 14 17  1  0  0  0  0
 15 18  1  0  0  0  0
 11 19  1  0  0  0  0
 12 20  1  0  0  0  0
 19 21  2  0  0  0  0
 17 22  1  0  0  0  0
 18 23  1  0  0  0  0
 20 24  2  0  0  0  0
 16 24  1  0  0  0  0
M  END
> <IDNUMBER>
3909-9057

> <available>
1

> <H_acceptor>
2

> <H_donor>
0

> <B_rotN>
6

> <N_O>
3

> <logP>
5.5423

> <logD>
5.2729

> <logSw>
-5.998

> <PSA>
21.4295

> <pKa_ma>
23.0057

> <pKa_mb>
7.3342

> <N_Chirals>
0

> <Name>
2-(2-fluorophenyl)-N,N-dipropylquinazolin-4-amine

> <Smile>
CCCN(CCC)c1nc(-c(cccc2)c2F)nc2ccccc12

> <Color>
NOT COLORED

> <Collection>
NC

> <InChI>
InChI=1S/C20H22FN3/c1-3-13-24(14-4-2)20-16-10-6-8-12-18(16)22-19(23-20)15-9-5-7-11-17(15)21/h5-12H,3-4,13-14H2,1-2H3

> <InChI Key>
CERZUSYCGVPYPZ-UHFFFAOYSA-N

> <PERCENTSP3>
30

> <Link>
https://www.chemdiv.com/catalog/screening-compounds/compound-3909-9057/

> <MFCDNUMBER>
MFCD03675480

> <CLNUMBER>
CL2243

> <STEREO>
ACHIRAL

> <State>
Solid

> <Similarity score>
0.21

$$$$
3-(4-chlorophenyl)-6,8-difluoro-1-(4-fluorophenyl)-1H-pyrazolo[4,3-c]quinoline
  -OEChem-04222410502D

 29 33  0     0  0  0  0  0  0999 V2000
   -0.8749    0.4623    0.0000 N   0  0  0  0  0  0  0  0  0  0  0  0
   -0.2127   -1.0172    0.0000 C   0  0  0  0  0  0  0  0  0  0  0  0
   -1.0873   -0.5034    0.0000 C   0  0  0  0  0  0  0  0  0  0  0  0
    0.1197    0.5571    0.0000 N   0  0  0  0  0  0  0  0  0  0  0  0
    0.5530   -0.3362    0.0000 C   0  0  0  0  0  0  0  0  0  0  0  0
   -1.9664   -1.0172    0.0000 C   0  0  0  0  0  0  0  0  0  0  0  0
   -1.9664   -2.0075    0.0000 C   0  0  0  0  0  0  0  0  0  0  0  0
   -1.0873   -2.4945    0.0000 N   0  0  0  0  0  0  0  0  0  0  0  0
   -0.2127   -2.0075    0.0000 C   0  0  0  0  0  0  0  0  0  0  0  0
   -2.8371   -2.4945    0.0000 C   0  0  0  0  0  0  0  0  0  0  0  0
   -1.5082    1.2298    0.0000 C   0  0  0  0  0  0  0  0  0  0  0  0
   -3.7099   -2.0075    0.0000 C   0  0  0  0  0  0  0  0  0  0  0  0
    1.5516   -0.4395    0.0000 C   0  0  0  0  0  0  0  0  0  0  0  0
   -2.8371   -0.5034    0.0000 C   0  0  0  0  0  0  0  0  0  0  0  0
   -3.7099   -1.0172    0.0000 C   0  0  0  0  0  0  0  0  0  0  0  0
   -2.4904    1.0647    0.0000 C   0  0  0  0  0  0  0  0  0  0  0  0
   -1.1783    2.1522    0.0000 C   0  0  0  0  0  0  0  0  0  0  0  0
    1.9601   -1.3328    0.0000 C   0  0  0  0  0  0  0  0  0  0  0  0
    2.1252    0.3880    0.0000 C   0  0  0  0  0  0  0  0  0  0  0  0
   -2.8267   -3.4911    0.0000 F   0  0  0  0  0  0  0  0  0  0  0  0
   -2.8061    2.7256    0.0000 C   0  0  0  0  0  0  0  0  0  0  0  0
    3.5738   -0.6086    0.0000 C   0  0  0  0  0  0  0  0  0  0  0  0
   -4.5703   -0.5200    0.0000 F   0  0  0  0  0  0  0  0  0  0  0  0
    3.1362    0.2951    0.0000 C   0  0  0  0  0  0  0  0  0  0  0  0
   -3.1425    1.8055    0.0000 C   0  0  0  0  0  0  0  0  0  0  0  0
    2.9691   -1.4318    0.0000 C   0  0  0  0  0  0  0  0  0  0  0  0
   -1.8097    2.9031    0.0000 C   0  0  0  0  0  0  0  0  0  0  0  0
    4.5703   -0.7138    0.0000 Cl  0  0  0  0  0  0  0  0  0  0  0  0
   -3.4396    3.4911    0.0000 F   0  0  0  0  0  0  0  0  0  0  0  0
  2  3  2  0  0  0  0
  1  3  1  0  0  0  0
  1  4  1  0  0  0  0
  4  5  2  0  0  0  0
  2  5  1  0  0  0  0
  3  6  1  0  0  0  0
  6  7  1  0  0  0  0
  7  8  1  0  0  0  0
  2  9  1  0  0  0  0
  8  9  2  0  0  0  0
  7 10  2  0  0  0  0
  1 11  1  0  0  0  0
 12 15  2  0  0  0  0
 10 12  1  0  0  0  0
  5 13  1  0  0  0  0
  6 14  2  0  0  0  0
 14 15  1  0  0  0  0
 11 16  2  0  0  0  0
 11 17  1  0  0  0  0
 13 18  2  0  0  0  0
 13 19  1  0  0  0  0
 10 20  1  0  0  0  0
 21 27  1  0  0  0  0
 22 24  1  0  0  0  0
 22 26  2  0  0  0  0
 15 23  1  0  0  0  0
 19 24  2  0  0  0  0
 16 25  1  0  0  0  0
 21 25  2  0  0  0  0
 18 26  1  0  0  0  0
 17 27  2  0  0  0  0
 22 28  1  0  0  0  0
 21 29  1  0  0  0  0
M  END
> <IDNUMBER>
C350-0760

> <available>
103

> <H_acceptor>
2

> <H_donor>
0

> <B_rotN>
2

> <N_O>
3

> <logP>
6.0505

> <logD>
6.0505

> <logSw>
-6.6598

> <PSA>
23.4803

> <pKa_ma>
14

> <pKa_mb>
2.2647

> <N_Chirals>
0

> <Name>
3-(4-chlorophenyl)-6,8-difluoro-1-(4-fluorophenyl)-1H-pyrazolo[4,3-c]quinoline

> <Smile>
Fc(cc1)ccc1-n(c(c1cc(F)c2)c3cnc1c2F)nc3-c(cc1)ccc1Cl

> <Color>
NOT COLORED

> <Collection>
DC

> <InChI>
InChI=1S/C22H11ClF3N3/c23-13-3-1-12(2-4-13)20-18-11-27-21-17(9-15(25)10-19(21)26)22(18)29(28-20)16-7-5-14(24)6-8-16/h1-11H

> <InChI Key>
LMXRSQUMJOHGTP-UHFFFAOYSA-N

> <PERCENTSP3>
0

> <Link>
https://www.chemdiv.com/catalog/screening-compounds/compound-C350-0760/

> <MFCDNUMBER>
MFCD14750652

> <CLNUMBER>
CL4130

> <STEREO>
ACHIRAL

> <State>
Solid

> <Similarity score>
0.21

$$$$
6,8-difluoro-3-(4-fluorophenyl)-1-(4-methylphenyl)-1H-pyrazolo[4,3-c]quinoline
  -OEChem-04222410502D

 29 33  0     0  0  0  0  0  0999 V2000
   -0.8203    0.5260    0.0000 N   0  0  0  0  0  0  0  0  0  0  0  0
   -0.1637   -0.9529    0.0000 C   0  0  0  0  0  0  0  0  0  0  0  0
   -1.0325   -0.4531    0.0000 C   0  0  0  0  0  0  0  0  0  0  0  0
    0.1703    0.6321    0.0000 N   0  0  0  0  0  0  0  0  0  0  0  0
    0.5791   -0.2764    0.0000 C   0  0  0  0  0  0  0  0  0  0  0  0
   -1.8901   -0.9571    0.0000 C   0  0  0  0  0  0  0  0  0  0  0  0
   -1.8901   -1.9676    0.0000 C   0  0  0  0  0  0  0  0  0  0  0  0
   -1.0280   -2.4671    0.0000 N   0  0  0  0  0  0  0  0  0  0  0  0
   -0.1547   -1.9586    0.0000 C   0  0  0  0  0  0  0  0  0  0  0  0
   -2.7701   -2.4738    0.0000 C   0  0  0  0  0  0  0  0  0  0  0  0
   -1.4878    1.2688    0.0000 C   0  0  0  0  0  0  0  0  0  0  0  0
   -3.6389   -1.9676    0.0000 C   0  0  0  0  0  0  0  0  0  0  0  0
    1.5630   -0.4841    0.0000 C   0  0  0  0  0  0  0  0  0  0  0  0
   -2.7701   -0.4576    0.0000 C   0  0  0  0  0  0  0  0  0  0  0  0
   -3.6344   -0.9571    0.0000 C   0  0  0  0  0  0  0  0  0  0  0  0
   -1.1784    2.2086    0.0000 C   0  0  0  0  0  0  0  0  0  0  0  0
   -2.4517    1.0566    0.0000 C   0  0  0  0  0  0  0  0  0  0  0  0
    2.2239    0.2698    0.0000 C   0  0  0  0  0  0  0  0  0  0  0  0
    1.8769   -1.4370    0.0000 C   0  0  0  0  0  0  0  0  0  0  0  0
   -2.7701   -3.4686    0.0000 F   0  0  0  0  0  0  0  0  0  0  0  0
    3.5283   -0.8821    0.0000 C   0  0  0  0  0  0  0  0  0  0  0  0
   -4.5032   -0.4576    0.0000 F   0  0  0  0  0  0  0  0  0  0  0  0
    3.1988    0.0730    0.0000 C   0  0  0  0  0  0  0  0  0  0  0  0
    2.8605   -1.6402    0.0000 C   0  0  0  0  0  0  0  0  0  0  0  0
   -1.8458    2.9492    0.0000 C   0  0  0  0  0  0  0  0  0  0  0  0
   -3.0773    1.7729    0.0000 C   0  0  0  0  0  0  0  0  0  0  0  0
   -2.8141    2.7390    0.0000 C   0  0  0  0  0  0  0  0  0  0  0  0
    4.5032   -1.0898    0.0000 F   0  0  0  0  0  0  0  0  0  0  0  0
   -3.4972    3.4686    0.0000 C   0  0  0  0  0  0  0  0  0  0  0  0
  2  3  2  0  0  0  0
  2  5  1  0  0  0  0
  1  3  1  0  0  0  0
  1  4  1  0  0  0  0
  4  5  2  0  0  0  0
  3  6  1  0  0  0  0
  6  7  1  0  0  0  0
  7  8  1  0  0  0  0
  2  9  1  0  0  0  0
  8  9  2  0  0  0  0
  7 10  2  0  0  0  0
  1 11  1  0  0  0  0
 12 15  2  0  0  0  0
 10 12  1  0  0  0  0
  5 13  1  0  0  0  0
  6 14  2  0  0  0  0
 14 15  1  0  0  0  0
 11 16  2  0  0  0  0
 11 17  1  0  0  0  0
 13 18  1  0  0  0  0
 13 19  2  0  0  0  0
 10 20  1  0  0  0  0
 21 24  2  0  0  0  0
 15 22  1  0  0  0  0
 18 23  2  0  0  0  0
 21 23  1  0  0  0  0
 19 24  1  0  0  0  0
 16 25  1  0  0  0  0
 25 27  2  0  0  0  0
 17 26  2  0  0  0  0
 26 27  1  0  0  0  0
 21 28  1  0  0  0  0
 27 29  1  0  0  0  0
M  END
> <IDNUMBER>
C350-0429

> <available>
80

> <H_acceptor>
2

> <H_donor>
0

> <B_rotN>
2

> <N_O>
3

> <logP>
5.8792

> <logD>
5.8791

> <logSw>
-5.6923

> <PSA>
23.4803

> <pKa_ma>
28.3737

> <pKa_mb>
2.2647

> <N_Chirals>
0

> <Name>
6,8-difluoro-3-(4-fluorophenyl)-1-(4-methylphenyl)-1H-pyrazolo[4,3-c]quinoline

> <Smile>
Cc(cc1)ccc1-n(c1c(cc(cc2F)F)c2ncc11)nc1-c(cc1)ccc1F

> <Color>
NOT COLORED

> <Collection>
DC

> <InChI>
InChI=1S/C23H14F3N3/c1-13-2-8-17(9-3-13)29-23-18-10-16(25)11-20(26)22(18)27-12-19(23)21(28-29)14-4-6-15(24)7-5-14/h2-12H,1H3

> <InChI Key>
GUACDNVINLDAQX-UHFFFAOYSA-N

> <PERCENTSP3>
4.3

> <Link>
https://www.chemdiv.com/catalog/screening-compounds/compound-C350-0429/

> <MFCDNUMBER>
MFCD14750401

> <CLNUMBER>
CL4130

> <STEREO>
ACHIRAL

> <State>
Solid

> <Similarity score>
0.21

$$$$
1-(4-chlorophenyl)-6,8-difluoro-3-(4-fluorophenyl)-1H-pyrazolo[4,3-c]quinoline
  -OEChem-04222410502D

 29 33  0     0  0  0  0  0  0999 V2000
   -0.8194    0.5200    0.0000 N   0  0  0  0  0  0  0  0  0  0  0  0
   -0.1635   -0.9574    0.0000 C   0  0  0  0  0  0  0  0  0  0  0  0
   -1.0313   -0.4582    0.0000 C   0  0  0  0  0  0  0  0  0  0  0  0
    0.1701    0.6259    0.0000 N   0  0  0  0  0  0  0  0  0  0  0  0
    0.5786   -0.2817    0.0000 C   0  0  0  0  0  0  0  0  0  0  0  0
   -1.8880   -0.9616    0.0000 C   0  0  0  0  0  0  0  0  0  0  0  0
   -1.8880   -1.9709    0.0000 C   0  0  0  0  0  0  0  0  0  0  0  0
   -1.0268   -2.4699    0.0000 N   0  0  0  0  0  0  0  0  0  0  0  0
   -0.1545   -1.9619    0.0000 C   0  0  0  0  0  0  0  0  0  0  0  0
   -2.7671   -2.4765    0.0000 C   0  0  0  0  0  0  0  0  0  0  0  0
   -1.4861    1.2619    0.0000 C   0  0  0  0  0  0  0  0  0  0  0  0
   -3.6348   -1.9709    0.0000 C   0  0  0  0  0  0  0  0  0  0  0  0
    1.5613   -0.4892    0.0000 C   0  0  0  0  0  0  0  0  0  0  0  0
   -2.7671   -0.4627    0.0000 C   0  0  0  0  0  0  0  0  0  0  0  0
   -3.6303   -0.9616    0.0000 C   0  0  0  0  0  0  0  0  0  0  0  0
   -1.1771    2.2004    0.0000 C   0  0  0  0  0  0  0  0  0  0  0  0
   -2.4490    1.0499    0.0000 C   0  0  0  0  0  0  0  0  0  0  0  0
    2.2214    0.2638    0.0000 C   0  0  0  0  0  0  0  0  0  0  0  0
    1.8749   -1.4410    0.0000 C   0  0  0  0  0  0  0  0  0  0  0  0
   -2.7671   -3.4702    0.0000 F   0  0  0  0  0  0  0  0  0  0  0  0
    3.5243   -0.8866    0.0000 C   0  0  0  0  0  0  0  0  0  0  0  0
   -2.8109    2.7304    0.0000 C   0  0  0  0  0  0  0  0  0  0  0  0
   -4.4982   -0.4627    0.0000 F   0  0  0  0  0  0  0  0  0  0  0  0
    3.1952    0.0673    0.0000 C   0  0  0  0  0  0  0  0  0  0  0  0
   -3.1157    1.7810    0.0000 C   0  0  0  0  0  0  0  0  0  0  0  0
    2.8573   -1.6441    0.0000 C   0  0  0  0  0  0  0  0  0  0  0  0
   -1.8438    2.9404    0.0000 C   0  0  0  0  0  0  0  0  0  0  0  0
    4.4982   -1.0942    0.0000 F   0  0  0  0  0  0  0  0  0  0  0  0
   -3.4824    3.4702    0.0000 Cl  0  0  0  0  0  0  0  0  0  0  0  0
  2  3  2  0  0  0  0
  2  5  1  0  0  0  0
  1  3  1  0  0  0  0
  1  4  1  0  0  0  0
  4  5  2  0  0  0  0
  3  6  1  0  0  0  0
  6  7  1  0  0  0  0
  7  8  1  0  0  0  0
  2  9  1  0  0  0  0
  8  9  2  0  0  0  0
  7 10  2  0  0  0  0
  1 11  1  0  0  0  0
 12 15  2  0  0  0  0
 10 12  1  0  0  0  0
  5 13  1  0  0  0  0
  6 14  2  0  0  0  0
 14 15  1  0  0  0  0
 11 16  2  0  0  0  0
 11 17  1  0  0  0  0
 13 18  1  0  0  0  0
 13 19  2  0  0  0  0
 10 20  1  0  0  0  0
 21 26  2  0  0  0  0
 22 25  1  0  0  0  0
 15 23  1  0  0  0  0
 18 24  2  0  0  0  0
 21 24  1  0  0  0  0
 17 25  2  0  0  0  0
 19 26  1  0  0  0  0
 16 27  1  0  0  0  0
 22 27  2  0  0  0  0
 21 28  1  0  0  0  0
 22 29  1  0  0  0  0
M  END
> <IDNUMBER>
C350-0428

> <available>
97

> <H_acceptor>
2

> <H_donor>
0

> <B_rotN>
2

> <N_O>
3

> <logP>
6.0505

> <logD>
6.0505

> <logSw>
-6.6598

> <PSA>
23.4803

> <pKa_ma>
14

> <pKa_mb>
2.2647

> <N_Chirals>
0

> <Name>
1-(4-chlorophenyl)-6,8-difluoro-3-(4-fluorophenyl)-1H-pyrazolo[4,3-c]quinoline

> <Smile>
Fc(cc1)ccc1-c(c1c2c3cc(F)cc(F)c3nc1)nn2-c(cc1)ccc1Cl

> <Color>
NOT COLORED

> <Collection>
DC

> <InChI>
InChI=1S/C22H11ClF3N3/c23-13-3-7-16(8-4-13)29-22-17-9-15(25)10-19(26)21(17)27-11-18(22)20(28-29)12-1-5-14(24)6-2-12/h1-11H

> <InChI Key>
OFETZQWCIWAGBD-UHFFFAOYSA-N

> <PERCENTSP3>
0

> <Link>
https://www.chemdiv.com/catalog/screening-compounds/compound-C350-0428/

> <MFCDNUMBER>
MFCD14750400

> <CLNUMBER>
CL4130

> <STEREO>
ACHIRAL

> <State>
Solid

> <Similarity score>
0.21

$$$$
4-(3-methoxy-4-propoxyphenyl)-6-(4-methylpiperazin-1-yl)-2-(methylsulfanyl)pyrim
  -OEChem-04222410502D

 29 31  0     0  0  0  0  0  0999 V2000
   -1.9136    0.5148    0.0000 C   0  0  0  0  0  0  0  0  0  0  0  0
   -1.0380   -0.0104    0.0000 C   0  0  0  0  0  0  0  0  0  0  0  0
   -2.7891   -0.0104    0.0000 N   0  0  0  0  0  0  0  0  0  0  0  0
   -1.0380   -1.0278    0.0000 C   0  0  0  0  0  0  0  0  0  0  0  0
   -2.7891   -1.0278    0.0000 C   0  0  0  0  0  0  0  0  0  0  0  0
   -1.9136   -1.5405    0.0000 N   0  0  0  0  0  0  0  0  0  0  0  0
   -1.9219    1.5405    0.0000 N   0  0  0  0  0  0  0  0  0  0  0  0
   -0.1458   -1.5405    0.0000 C   0  0  0  0  0  0  0  0  0  0  0  0
   -0.1458    0.5023    0.0000 C   0  0  0  0  0  0  0  0  0  0  0  0
    0.7380   -0.0104    0.0000 N   0  0  0  0  0  0  0  0  0  0  0  0
   -0.1458   -2.5660    0.0000 C   0  0  0  0  0  0  0  0  0  0  0  0
   -1.8969    3.6000    0.0000 N   0  0  0  0  0  0  0  0  0  0  0  0
    0.7380   -3.0789    0.0000 C   0  0  0  0  0  0  0  0  0  0  0  0
    1.6302   -2.5660    0.0000 C   0  0  0  0  0  0  0  0  0  0  0  0
   -1.0215    2.0533    0.0000 C   0  0  0  0  0  0  0  0  0  0  0  0
   -2.8016    2.0491    0.0000 C   0  0  0  0  0  0  0  0  0  0  0  0
    0.7380   -1.0278    0.0000 C   0  0  0  0  0  0  0  0  0  0  0  0
   -3.6855   -1.5405    0.0000 S   0  0  0  0  0  0  0  0  0  0  0  0
    1.6177   -1.5405    0.0000 C   0  0  0  0  0  0  0  0  0  0  0  0
   -2.8016    3.0871    0.0000 C   0  0  0  0  0  0  0  0  0  0  0  0
   -1.0215    3.0871    0.0000 C   0  0  0  0  0  0  0  0  0  0  0  0
    0.7298   -4.0879    0.0000 O   0  0  0  0  0  0  0  0  0  0  0  0
    2.3555   -2.9789    0.0000 O   0  0  0  0  0  0  0  0  0  0  0  0
   -1.8969    4.6006    0.0000 C   0  0  0  0  0  0  0  0  0  0  0  0
   -4.5652   -1.0278    0.0000 C   0  0  0  0  0  0  0  0  0  0  0  0
    3.0935   -2.5536    0.0000 C   0  0  0  0  0  0  0  0  0  0  0  0
    1.6177   -4.6006    0.0000 C   0  0  0  0  0  0  0  0  0  0  0  0
    3.8314   -2.9789    0.0000 C   0  0  0  0  0  0  0  0  0  0  0  0
    4.5652   -2.5619    0.0000 C   0  0  0  0  0  0  0  0  0  0  0  0
  1  2  1  0  0  0  0
  1  3  2  0  0  0  0
  2  4  2  0  0  0  0
  3  5  1  0  0  0  0
  5  6  2  0  0  0  0
  4  6  1  0  0  0  0
  1  7  1  0  0  0  0
  4  8  1  0  0  0  0
  2  9  1  0  0  0  0
  9 10  3  0  0  0  0
  8 11  2  0  0  0  0
 12 20  1  0  0  0  0
 12 21  1  0  0  0  0
 11 13  1  0  0  0  0
 13 14  2  0  0  0  0
 14 19  1  0  0  0  0
  7 15  1  0  0  0  0
  7 16  1  0  0  0  0
  8 17  1  0  0  0  0
  5 18  1  0  0  0  0
 17 19  2  0  0  0  0
 16 20  1  0  0  0  0
 15 21  1  0  0  0  0
 13 22  1  0  0  0  0
 14 23  1  0  0  0  0
 12 24  1  0  0  0  0
 18 25  1  0  0  0  0
 23 26  1  0  0  0  0
 22 27  1  0  0  0  0
 26 28  1  0  0  0  0
 28 29  1  0  0  0  0
M  END
> <IDNUMBER>
D490-0162

> <available>
82

> <H_acceptor>
7

> <H_donor>
0

> <B_rotN>
8

> <N_O>
7

> <logP>
3.9884

> <logD>
3.7177

> <logSw>
-4.2962

> <PSA>
57.084

> <pKa_ma>
22.8179

> <pKa_mb>
7.337

> <N_Chirals>
0

> <Name>
4-(3-methoxy-4-propoxyphenyl)-6-(4-methylpiperazin-1-yl)-2-(methylsulfanyl)pyrimidine-5-carbonitrile

> <Smile>
CCCOc(ccc(-c1nc(SC)nc(N2CCN(C)CC2)c1C#N)c1)c1OC

> <Color>
NOT COLORED

> <Collection>
DC

> <InChI>
InChI=1S/C21H27N5O2S/c1-5-12-28-17-7-6-15(13-18(17)27-3)19-16(14-22)20(24-21(23-19)29-4)26-10-8-25(2)9-11-26/h6-7,13H,5,8-12H2,1-4H3

> <InChI Key>
OIBHQODDBBWDKC-UHFFFAOYSA-N

> <PERCENTSP3>
47.6

> <Link>
https://www.chemdiv.com/catalog/screening-compounds/compound-D490-0162/

> <MFCDNUMBER>
MFCD10090309

> <CLNUMBER>
CL6864

> <STEREO>
ACHIRAL

> <State>
Solid

> <Similarity score>
0.21

$$$$
3-(benzenesulfonyl)-4-(3,5-dimethylpiperidin-1-yl)-6-ethoxyquinoline
  -OEChem-04222410502D

 30 33  0     0  0  0  0  0  0999 V2000
    2.1511   -0.5032    0.0000 S   0  0  0  0  0  0  0  0  0  0  0  0
    1.2748   -1.0022    0.0000 C   0  0  0  0  0  0  0  0  0  0  0  0
    0.4123   -0.5032    0.0000 C   0  0  0  0  0  0  0  0  0  0  0  0
    0.4123    0.4977    0.0000 N   0  0  0  0  0  0  0  0  0  0  0  0
   -0.4503   -1.0022    0.0000 C   0  0  0  0  0  0  0  0  0  0  0  0
    1.2748   -2.0005    0.0000 C   0  0  0  0  0  0  0  0  0  0  0  0
    0.4123   -2.4995    0.0000 N   0  0  0  0  0  0  0  0  0  0  0  0
   -0.4503   -2.0005    0.0000 C   0  0  0  0  0  0  0  0  0  0  0  0
    1.6490    0.3648    0.0000 O   0  0  0  0  0  0  0  0  0  0  0  0
    2.6499   -1.3765    0.0000 O   0  0  0  0  0  0  0  0  0  0  0  0
   -0.4503    0.9996    0.0000 C   0  0  0  0  0  0  0  0  0  0  0  0
    1.2829    0.9996    0.0000 C   0  0  0  0  0  0  0  0  0  0  0  0
    3.0299   -0.0013    0.0000 C   0  0  0  0  0  0  0  0  0  0  0  0
   -1.3128   -0.5032    0.0000 C   0  0  0  0  0  0  0  0  0  0  0  0
    1.2829    1.9950    0.0000 C   0  0  3  0  0  0  0  0  0  0  0  0
   -0.4503    1.9950    0.0000 C   0  0  3  0  0  0  0  0  0  0  0  0
   -1.3128   -2.4995    0.0000 C   0  0  0  0  0  0  0  0  0  0  0  0
   -2.1754   -1.0022    0.0000 C   0  0  0  0  0  0  0  0  0  0  0  0
    0.4123    2.4968    0.0000 C   0  0  0  0  0  0  0  0  0  0  0  0
   -2.1754   -2.0005    0.0000 C   0  0  0  0  0  0  0  0  0  0  0  0
   -3.0381   -0.5032    0.0000 O   0  0  0  0  0  0  0  0  0  0  0  0
    3.8924   -0.5139    0.0000 C   0  0  0  0  0  0  0  0  0  0  0  0
    3.0299    0.9996    0.0000 C   0  0  0  0  0  0  0  0  0  0  0  0
   -1.3128    2.4968    0.0000 C   0  0  0  0  0  0  0  0  0  0  0  0
    2.1455    2.4995    0.0000 C   0  0  0  0  0  0  0  0  0  0  0  0
   -3.9086   -1.0022    0.0000 C   0  0  0  0  0  0  0  0  0  0  0  0
   -4.7712   -0.5032    0.0000 C   0  0  0  0  0  0  0  0  0  0  0  0
    3.8924    1.4961    0.0000 C   0  0  0  0  0  0  0  0  0  0  0  0
    4.7549   -0.0176    0.0000 C   0  0  0  0  0  0  0  0  0  0  0  0
    4.7712    0.9833    0.0000 C   0  0  0  0  0  0  0  0  0  0  0  0
  1  2  1  0  0  0  0
  2  3  2  0  0  0  0
  3  4  1  0  0  0  0
  3  5  1  0  0  0  0
  2  6  1  0  0  0  0
  6  7  2  0  0  0  0
  7  8  1  0  0  0  0
  5  8  1  0  0  0  0
  1  9  2  0  0  0  0
  1 10  2  0  0  0  0
  4 11  1  0  0  0  0
  4 12  1  0  0  0  0
  1 13  1  0  0  0  0
  5 14  2  0  0  0  0
 12 15  1  0  0  0  0
 11 16  1  0  0  0  0
 16 19  1  0  0  0  0
  8 17  2  0  0  0  0
 14 18  1  0  0  0  0
 18 20  2  0  0  0  0
 15 19  1  0  0  0  0
 17 20  1  0  0  0  0
 18 21  1  0  0  0  0
 13 22  2  0  0  0  0
 13 23  1  0  0  0  0
 16 24  1  0  0  0  0
 15 25  1  0  0  0  0
 21 26  1  0  0  0  0
 26 27  1  0  0  0  0
 23 28  2  0  0  0  0
 22 29  1  0  0  0  0
 28 30  1  0  0  0  0
 29 30  2  0  0  0  0
M  END
> <IDNUMBER>
C769-0060

> <available>
46

> <H_acceptor>
6

> <H_donor>
0

> <B_rotN>
5

> <N_O>
5

> <logP>
5.4472

> <logD>
5.4471

> <logSw>
-5.5339

> <PSA>
48.433

> <pKa_ma>
24.8321

> <pKa_mb>
3.6445

> <N_Chirals>
2

> <Name>
3-(benzenesulfonyl)-4-(3,5-dimethylpiperidin-1-yl)-6-ethoxyquinoline

> <Smile>
CCOc(cc12)ccc2ncc(S(c2ccccc2)(=O)=O)c1N1CC(C)CC(C)C1

> <Color>
ORANGE

> <Collection>
NC

> <InChI>
InChI=1S/C24H28N2O3S/c1-4-29-19-10-11-22-21(13-19)24(26-15-17(2)12-18(3)16-26)23(14-25-22)30(27,28)20-8-6-5-7-9-20/h5-11,13-14,17-18H,4,12,15-16H2,1-3H3

> <InChI Key>
FASFXZWYPVOGDV-UHFFFAOYSA-N

> <PERCENTSP3>
37.5

> <Link>
https://www.chemdiv.com/catalog/screening-compounds/compound-C769-0060/

> <MFCDNUMBER>
MFCD07655061

> <CLNUMBER>
CL3582

> <STEREO>
MIXTURE OF STEREOISOMERS

> <State>
Solid

> <Similarity score>
0.21

$$$$
N-(2,5-difluorophenyl)-1-(morpholin-4-yl)isoquinoline-4-carboxamide
  -OEChem-04222410502D

 27 30  0     0  0  0  0  0  0999 V2000
    0.0000   -0.0000    0.0000 C   0  0  0  0  0  0  0  0  0  0  0  0
   -1.0001    1.7333    0.0000 C   0  0  0  0  0  0  0  0  0  0  0  0
    0.5000   -0.8625    0.0000 C   0  0  0  0  0  0  0  0  0  0  0  0
    0.0000    1.7333    0.0000 N   0  0  0  0  0  0  0  0  0  0  0  0
   -1.0001   -0.0000    0.0000 C   0  0  0  0  0  0  0  0  0  0  0  0
   -1.4999    0.8709    0.0000 C   0  0  0  0  0  0  0  0  0  0  0  0
    0.0000   -1.7293    0.0000 N   0  0  0  0  0  0  0  0  0  0  0  0
   -1.4999    2.6000    0.0000 N   0  0  0  0  0  0  0  0  0  0  0  0
    0.5000   -2.5917    0.0000 C   0  0  0  0  0  0  0  0  0  0  0  0
    0.5000    0.8709    0.0000 C   0  0  0  0  0  0  0  0  0  0  0  0
    1.4999   -2.5917    0.0000 C   0  0  0  0  0  0  0  0  0  0  0  0
    0.0000   -3.4626    0.0000 C   0  0  0  0  0  0  0  0  0  0  0  0
    1.4999   -0.8625    0.0000 O   0  0  0  0  0  0  0  0  0  0  0  0
   -2.5000    4.3292    0.0000 O   0  0  0  0  0  0  0  0  0  0  0  0
    0.5000   -4.3292    0.0000 C   0  0  0  0  0  0  0  0  0  0  0  0
    2.0000   -3.4626    0.0000 C   0  0  0  0  0  0  0  0  0  0  0  0
   -1.0001   -3.4626    0.0000 F   0  0  0  0  0  0  0  0  0  0  0  0
    1.4999   -4.3292    0.0000 C   0  0  0  0  0  0  0  0  0  0  0  0
    3.0000   -3.4626    0.0000 F   0  0  0  0  0  0  0  0  0  0  0  0
   -2.5000    2.6000    0.0000 C   0  0  0  0  0  0  0  0  0  0  0  0
   -1.0001    3.4708    0.0000 C   0  0  0  0  0  0  0  0  0  0  0  0
   -1.4999   -0.8625    0.0000 C   0  0  0  0  0  0  0  0  0  0  0  0
   -2.5000    0.8709    0.0000 C   0  0  0  0  0  0  0  0  0  0  0  0
   -1.4999    4.3292    0.0000 C   0  0  0  0  0  0  0  0  0  0  0  0
   -3.0000    3.4708    0.0000 C   0  0  0  0  0  0  0  0  0  0  0  0
   -2.5000   -0.8625    0.0000 C   0  0  0  0  0  0  0  0  0  0  0  0
   -3.0000   -0.0000    0.0000 C   0  0  0  0  0  0  0  0  0  0  0  0
  2  4  2  0  0  0  0
  2  6  1  0  0  0  0
  1  3  1  0  0  0  0
  4 10  1  0  0  0  0
  1  5  1  0  0  0  0
  5  6  1  0  0  0  0
  3  7  1  0  0  0  0
  2  8  1  0  0  0  0
  7  9  1  0  0  0  0
  1 10  2  0  0  0  0
  9 11  1  0  0  0  0
  9 12  2  0  0  0  0
  3 13  2  0  0  0  0
 14 24  1  0  0  0  0
 12 15  1  0  0  0  0
 11 16  2  0  0  0  0
 16 18  1  0  0  0  0
 12 17  1  0  0  0  0
 15 18  2  0  0  0  0
 16 19  1  0  0  0  0
  8 20  1  0  0  0  0
  8 21  1  0  0  0  0
  5 22  2  0  0  0  0
  6 23  2  0  0  0  0
 23 27  1  0  0  0  0
 21 24  1  0  0  0  0
 20 25  1  0  0  0  0
 14 25  1  0  0  0  0
 22 26  1  0  0  0  0
 26 27  2  0  0  0  0
M  END
> <IDNUMBER>
G817-0416

> <available>
103

> <H_acceptor>
4

> <H_donor>
1

> <B_rotN>
4

> <N_O>
5

> <logP>
3.9358

> <logD>
3.9249

> <logSw>
-3.907

> <PSA>
42.792

> <pKa_ma>
9.0788

> <pKa_mb>
5.0343

> <N_Chirals>
0

> <Name>
N-(2,5-difluorophenyl)-1-(morpholin-4-yl)isoquinoline-4-carboxamide

> <Smile>
O=C(c(c1ccccc11)cnc1N1CCOCC1)Nc(cc(cc1)F)c1F

> <Color>
BROWN

> <Collection>
DC

> <InChI>
InChI=1S/C20H17F2N3O2/c21-13-5-6-17(22)18(11-13)24-20(26)16-12-23-19(25-7-9-27-10-8-25)15-4-2-1-3-14(15)16/h1-6,11-12H,7-10H2,(H,24,26)

> <InChI Key>
IPEQIYPMUJCUKW-UHFFFAOYSA-N

> <PERCENTSP3>
20

> <Link>
https://www.chemdiv.com/catalog/screening-compounds/compound-G817-0416/

> <MFCDNUMBER>
MFCD15038786

> <CLNUMBER>
CL1054

> <STEREO>
ACHIRAL

> <State>
Solid

> <Similarity score>
0.21

$$$$
N-(3-cyano-4-fluorophenyl)-1-(3-cyano-6-fluoroquinolin-4-yl)piperidine-4-carboxa
  -OEChem-04222410502D

 31 34  0     0  0  0  0  0  0999 V2000
   -0.8522   -3.7366    0.0000 C   0  0  0  0  0  0  0  0  0  0  0  0
    0.0228   -3.2286    0.0000 C   0  0  0  0  0  0  0  0  0  0  0  0
    0.0228   -2.2330    0.0000 N   0  0  0  0  0  0  0  0  0  0  0  0
    0.8928   -3.7366    0.0000 C   0  0  0  0  0  0  0  0  0  0  0  0
    0.0327    0.7695    0.0000 C   0  0  0  0  0  0  0  0  0  0  0  0
    1.7276    3.7469    0.0000 C   0  0  0  0  0  0  0  0  0  0  0  0
    0.0176   -5.2505    0.0000 N   0  0  0  0  0  0  0  0  0  0  0  0
    0.8928    1.2677    0.0000 N   0  0  0  0  0  0  0  0  0  0  0  0
    1.7576   -3.2437    0.0000 C   0  0  0  0  0  0  0  0  0  0  0  0
    2.6177   -2.7308    0.0000 N   0  0  0  0  0  0  0  0  0  0  0  0
    3.4475    4.7527    0.0000 N   0  0  0  0  0  0  0  0  0  0  0  0
    2.5875    4.2546    0.0000 C   0  0  0  0  0  0  0  0  0  0  0  0
   -0.8522   -4.7475    0.0000 C   0  0  0  0  0  0  0  0  0  0  0  0
   -1.7173   -3.2437    0.0000 C   0  0  0  0  0  0  0  0  0  0  0  0
    0.8928   -4.7475    0.0000 C   0  0  0  0  0  0  0  0  0  0  0  0
    0.8526    4.2447    0.0000 C   0  0  0  0  0  0  0  0  0  0  0  0
    0.0327   -0.2363    0.0000 C   0  0  0  0  0  0  0  0  0  0  0  0
    0.8827    2.2631    0.0000 C   0  0  0  0  0  0  0  0  0  0  0  0
    1.7376    2.7511    0.0000 C   0  0  0  0  0  0  0  0  0  0  0  0
   -0.8425   -1.7299    0.0000 C   0  0  0  0  0  0  0  0  0  0  0  0
    0.8827   -1.7299    0.0000 C   0  0  0  0  0  0  0  0  0  0  0  0
   -0.8371    1.2828    0.0000 O   0  0  0  0  0  0  0  0  0  0  0  0
   -0.8371   -0.7242    0.0000 C   0  0  0  0  0  0  0  0  0  0  0  0
    0.8928   -0.7339    0.0000 C   0  0  0  0  0  0  0  0  0  0  0  0
    0.0025    3.7169    0.0000 C   0  0  0  0  0  0  0  0  0  0  0  0
   -1.7173   -5.2505    0.0000 C   0  0  0  0  0  0  0  0  0  0  0  0
   -2.5875   -3.7417    0.0000 C   0  0  0  0  0  0  0  0  0  0  0  0
    0.0228    2.7311    0.0000 C   0  0  0  0  0  0  0  0  0  0  0  0
    0.8375    5.2505    0.0000 F   0  0  0  0  0  0  0  0  0  0  0  0
   -2.5875   -4.7373    0.0000 C   0  0  0  0  0  0  0  0  0  0  0  0
   -3.4475   -3.2286    0.0000 F   0  0  0  0  0  0  0  0  0  0  0  0
  1  2  1  0  0  0  0
  2  3  1  0  0  0  0
  2  4  2  0  0  0  0
  5 17  1  0  0  0  0
  6 19  1  0  0  0  0
  7 13  1  0  0  0  0
  5  8  1  0  0  0  0
  4  9  1  0  0  0  0
  9 10  3  0  0  0  0
 11 12  3  0  0  0  0
  6 12  1  0  0  0  0
  1 13  1  0  0  0  0
  1 14  2  0  0  0  0
  7 15  2  0  0  0  0
  4 15  1  0  0  0  0
 16 25  1  0  0  0  0
  6 16  2  0  0  0  0
 17 24  1  0  0  0  0
  8 18  1  0  0  0  0
 18 19  2  0  0  0  0
  3 20  1  0  0  0  0
  3 21  1  0  0  0  0
  5 22  2  0  0  0  0
 20 23  1  0  0  0  0
 17 23  1  0  0  0  0
 21 24  1  0  0  0  0
 25 28  2  0  0  0  0
 13 26  2  0  0  0  0
 26 30  1  0  0  0  0
 14 27  1  0  0  0  0
 18 28  1  0  0  0  0
 16 29  1  0  0  0  0
 27 30  2  0  0  0  0
 27 31  1  0  0  0  0
M  END
> <IDNUMBER>
L483-0477

> <available>
43

> <H_acceptor>
5

> <H_donor>
1

> <B_rotN>
6

> <N_O>
6

> <logP>
3.4836

> <logD>
3.4473

> <logSw>
-3.6507

> <PSA>
69.145

> <pKa_ma>
8.4639

> <pKa_mb>
4.2541

> <N_Chirals>
0

> <Name>
N-(3-cyano-4-fluorophenyl)-1-(3-cyano-6-fluoroquinolin-4-yl)piperidine-4-carboxamide

> <Smile>
N#Cc(cc(cc1)NC(C(CC2)CCN2c(c2cc(F)ccc2nc2)c2C#N)=O)c1F

> <Color>
ORANGE

> <Collection>
NC

> <InChI>
InChI=1S/C23H17F2N5O/c24-17-1-4-21-19(10-17)22(16(12-27)13-28-21)30-7-5-14(6-8-30)23(31)29-18-2-3-20(25)15(9-18)11-26/h1-4,9-10,13-14H,5-8H2,(H,29,31)

> <InChI Key>
YFEBRPONRHXDER-UHFFFAOYSA-N

> <PERCENTSP3>
21.7

> <Link>
https://www.chemdiv.com/catalog/screening-compounds/compound-L483-0477/

> <MFCDNUMBER>
MFCD27456466

> <CLNUMBER>
CL6761A

> <STEREO>
ACHIRAL

> <State>
Solid

> <Similarity score>
0.21

$$$$
N-(3-cyano-4-fluorophenyl)-1-(3-cyanoquinolin-4-yl)piperidine-4-carboxamide
  -OEChem-04222410502D

 30 33  0     0  0  0  0  0  0999 V2000
   -0.4075   -3.2297    0.0000 C   0  0  0  0  0  0  0  0  0  0  0  0
   -0.4075   -2.2339    0.0000 N   0  0  0  0  0  0  0  0  0  0  0  0
    0.4629   -3.7282    0.0000 C   0  0  0  0  0  0  0  0  0  0  0  0
   -0.3974    0.7749    0.0000 C   0  0  0  0  0  0  0  0  0  0  0  0
   -1.2827   -3.7282    0.0000 C   0  0  0  0  0  0  0  0  0  0  0  0
    1.2981    3.7581    0.0000 C   0  0  0  0  0  0  0  0  0  0  0  0
   -0.4123   -5.2523    0.0000 N   0  0  0  0  0  0  0  0  0  0  0  0
    0.4629    1.2729    0.0000 N   0  0  0  0  0  0  0  0  0  0  0  0
    1.3285   -3.2451    0.0000 C   0  0  0  0  0  0  0  0  0  0  0  0
    2.1887   -2.7319    0.0000 N   0  0  0  0  0  0  0  0  0  0  0  0
    3.0186    4.7593    0.0000 N   0  0  0  0  0  0  0  0  0  0  0  0
    2.1584    4.2560    0.0000 C   0  0  0  0  0  0  0  0  0  0  0  0
    0.4629   -4.7389    0.0000 C   0  0  0  0  0  0  0  0  0  0  0  0
   -1.2827   -4.7389    0.0000 C   0  0  0  0  0  0  0  0  0  0  0  0
    0.4228    4.2560    0.0000 C   0  0  0  0  0  0  0  0  0  0  0  0
   -0.3974   -0.2263    0.0000 C   0  0  0  0  0  0  0  0  0  0  0  0
    0.4529    2.2692    0.0000 C   0  0  0  0  0  0  0  0  0  0  0  0
    1.3082    2.7617    0.0000 C   0  0  0  0  0  0  0  0  0  0  0  0
    0.4529   -1.7205    0.0000 C   0  0  0  0  0  0  0  0  0  0  0  0
   -1.2725   -1.7205    0.0000 C   0  0  0  0  0  0  0  0  0  0  0  0
   -1.2678    1.2829    0.0000 O   0  0  0  0  0  0  0  0  0  0  0  0
    0.4629   -0.7247    0.0000 C   0  0  0  0  0  0  0  0  0  0  0  0
   -1.2678   -0.7247    0.0000 C   0  0  0  0  0  0  0  0  0  0  0  0
   -0.4277    3.7277    0.0000 C   0  0  0  0  0  0  0  0  0  0  0  0
   -0.4075    2.7368    0.0000 C   0  0  0  0  0  0  0  0  0  0  0  0
    0.4075    5.2523    0.0000 F   0  0  0  0  0  0  0  0  0  0  0  0
   -2.1482   -3.2399    0.0000 C   0  0  0  0  0  0  0  0  0  0  0  0
   -2.1482   -5.2471    0.0000 C   0  0  0  0  0  0  0  0  0  0  0  0
   -3.0186   -3.7379    0.0000 C   0  0  0  0  0  0  0  0  0  0  0  0
   -3.0186   -4.7389    0.0000 C   0  0  0  0  0  0  0  0  0  0  0  0
  1  2  1  0  0  0  0
  1  3  2  0  0  0  0
  4 16  1  0  0  0  0
  1  5  1  0  0  0  0
  6 18  1  0  0  0  0
  6 15  2  0  0  0  0
  7 14  1  0  0  0  0
  4  8  1  0  0  0  0
  3  9  1  0  0  0  0
  9 10  3  0  0  0  0
 11 12  3  0  0  0  0
  6 12  1  0  0  0  0
  3 13  1  0  0  0  0
  7 13  2  0  0  0  0
  5 14  1  0  0  0  0
 15 24  1  0  0  0  0
 16 23  1  0  0  0  0
  8 17  1  0  0  0  0
 17 18  2  0  0  0  0
  2 19  1  0  0  0  0
  2 20  1  0  0  0  0
  4 21  2  0  0  0  0
 19 22  1  0  0  0  0
 16 22  1  0  0  0  0
 20 23  1  0  0  0  0
 24 25  2  0  0  0  0
 17 25  1  0  0  0  0
 15 26  1  0  0  0  0
  5 27  2  0  0  0  0
 14 28  2  0  0  0  0
 27 29  1  0  0  0  0
 29 30  2  0  0  0  0
 28 30  1  0  0  0  0
M  END
> <IDNUMBER>
L483-0093

> <available>
79

> <H_acceptor>
5

> <H_donor>
1

> <B_rotN>
6

> <N_O>
6

> <logP>
3.2256

> <logD>
3.189

> <logSw>
-3.4013

> <PSA>
69.145

> <pKa_ma>
8.4639

> <pKa_mb>
4.6025

> <N_Chirals>
0

> <Name>
N-(3-cyano-4-fluorophenyl)-1-(3-cyanoquinolin-4-yl)piperidine-4-carboxamide

> <Smile>
N#Cc(cc(cc1)NC(C(CC2)CCN2c(c2ccccc2nc2)c2C#N)=O)c1F

> <Color>
ORANGE

> <Collection>
NC

> <InChI>
InChI=1S/C23H18FN5O/c24-20-6-5-18(11-16(20)12-25)28-23(30)15-7-9-29(10-8-15)22-17(13-26)14-27-21-4-2-1-3-19(21)22/h1-6,11,14-15H,7-10H2,(H,28,30)

> <InChI Key>
PWJOILWUJOXPPX-UHFFFAOYSA-N

> <PERCENTSP3>
21.7

> <Link>
https://www.chemdiv.com/catalog/screening-compounds/compound-L483-0093/

> <MFCDNUMBER>
MFCD27456325

> <CLNUMBER>
CL6761A

> <STEREO>
ACHIRAL

> <State>
Solid

> <Similarity score>
0.21

$$$$
6,8-difluoro-1-(3-fluorophenyl)-3-phenyl-1H-pyrazolo[4,3-c]quinoline
  -OEChem-04222410502D

 28 32  0     0  0  0  0  0  0999 V2000
   -0.3340    0.3084    0.0000 N   0  0  0  0  0  0  0  0  0  0  0  0
    0.3174   -1.1652    0.0000 C   0  0  0  0  0  0  0  0  0  0  0  0
   -0.5464   -0.6653    0.0000 C   0  0  0  0  0  0  0  0  0  0  0  0
    0.6508    0.4149    0.0000 N   0  0  0  0  0  0  0  0  0  0  0  0
    1.0590   -0.4989    0.0000 C   0  0  0  0  0  0  0  0  0  0  0  0
   -1.4087   -1.1799    0.0000 C   0  0  0  0  0  0  0  0  0  0  0  0
   -1.4087   -2.1793    0.0000 C   0  0  0  0  0  0  0  0  0  0  0  0
   -0.5355   -2.6792    0.0000 N   0  0  0  0  0  0  0  0  0  0  0  0
   -1.0005    1.0497    0.0000 C   0  0  0  0  0  0  0  0  0  0  0  0
    0.3324   -2.1793    0.0000 C   0  0  0  0  0  0  0  0  0  0  0  0
   -2.2764   -2.6882    0.0000 C   0  0  0  0  0  0  0  0  0  0  0  0
   -3.1496   -2.1884    0.0000 C   0  0  0  0  0  0  0  0  0  0  0  0
   -0.6964    1.9890    0.0000 C   0  0  0  0  0  0  0  0  0  0  0  0
   -2.2764   -0.6746    0.0000 C   0  0  0  0  0  0  0  0  0  0  0  0
   -3.1496   -1.1799    0.0000 C   0  0  0  0  0  0  0  0  0  0  0  0
    2.0421   -0.6946    0.0000 C   0  0  0  0  0  0  0  0  0  0  0  0
   -2.2874   -3.6787    0.0000 F   0  0  0  0  0  0  0  0  0  0  0  0
   -1.3538    2.7250    0.0000 C   0  0  0  0  0  0  0  0  0  0  0  0
   -4.0119   -0.6801    0.0000 F   0  0  0  0  0  0  0  0  0  0  0  0
   -1.0462    3.6787    0.0000 F   0  0  0  0  0  0  0  0  0  0  0  0
   -1.9688    0.8486    0.0000 C   0  0  0  0  0  0  0  0  0  0  0  0
   -2.6351    1.5753    0.0000 C   0  0  0  0  0  0  0  0  0  0  0  0
    2.7085    0.0523    0.0000 C   0  0  0  0  0  0  0  0  0  0  0  0
    2.3605   -1.6485    0.0000 C   0  0  0  0  0  0  0  0  0  0  0  0
   -2.3330    2.5199    0.0000 C   0  0  0  0  0  0  0  0  0  0  0  0
    3.3455   -1.8554    0.0000 C   0  0  0  0  0  0  0  0  0  0  0  0
    3.6878   -0.1454    0.0000 C   0  0  0  0  0  0  0  0  0  0  0  0
    4.0119   -1.1048    0.0000 C   0  0  0  0  0  0  0  0  0  0  0  0
  2  3  2  0  0  0  0
  2  5  1  0  0  0  0
  1  3  1  0  0  0  0
  1  4  1  0  0  0  0
  4  5  2  0  0  0  0
  3  6  1  0  0  0  0
  6  7  1  0  0  0  0
  7  8  1  0  0  0  0
  1  9  1  0  0  0  0
  2 10  1  0  0  0  0
  8 10  2  0  0  0  0
  7 11  2  0  0  0  0
 12 15  2  0  0  0  0
 11 12  1  0  0  0  0
  9 13  2  0  0  0  0
  6 14  2  0  0  0  0
 14 15  1  0  0  0  0
  5 16  1  0  0  0  0
 11 17  1  0  0  0  0
 13 18  1  0  0  0  0
 18 25  2  0  0  0  0
 15 19  1  0  0  0  0
 18 20  1  0  0  0  0
  9 21  1  0  0  0  0
 21 22  2  0  0  0  0
 16 23  1  0  0  0  0
 16 24  2  0  0  0  0
 22 25  1  0  0  0  0
 24 26  1  0  0  0  0
 23 27  2  0  0  0  0
 27 28  1  0  0  0  0
 26 28  2  0  0  0  0
M  END
> <IDNUMBER>
C350-0107

> <available>
57

> <H_acceptor>
2

> <H_donor>
0

> <B_rotN>
2

> <N_O>
3

> <logP>
5.3921

> <logD>
5.3921

> <logSw>
-6.1008

> <PSA>
23.4803

> <pKa_ma>
14

> <pKa_mb>
2.2647

> <N_Chirals>
0

> <Name>
6,8-difluoro-1-(3-fluorophenyl)-3-phenyl-1H-pyrazolo[4,3-c]quinoline

> <Smile>
Fc1cccc(-n(c2c(cc(cc3F)F)c3ncc22)nc2-c2ccccc2)c1

> <Color>
NOT COLORED

> <Collection>
DC

> <InChI>
InChI=1S/C22H12F3N3/c23-14-7-4-8-16(9-14)28-22-17-10-15(24)11-19(25)21(17)26-12-18(22)20(27-28)13-5-2-1-3-6-13/h1-12H

> <InChI Key>
ZUWMCINFEVOKCL-UHFFFAOYSA-N

> <PERCENTSP3>
0

> <Link>
https://www.chemdiv.com/catalog/screening-compounds/compound-C350-0107/

> <MFCDNUMBER>
MFCD14750134

> <CLNUMBER>
CL4130

> <STEREO>
ACHIRAL

> <State>
Solid

> <Similarity score>
0.21

$$$$
5-(naphthalen-2-yl)-2-(piperidin-1-yl)pyrido[2,3-d]pyrimidin-4(3H)-one
  -OEChem-04222410502D

 27 31  0     0  0  0  0  0  0999 V2000
   -0.4229    2.5229    0.0000 N   0  0  0  0  0  0  0  0  0  0  0  0
    0.4395    2.0060    0.0000 C   0  0  0  0  0  0  0  0  0  0  0  0
    0.4228    1.0062    0.0000 N   0  0  0  0  0  0  0  0  0  0  0  0
   -0.4522    0.5229    0.0000 C   0  0  0  0  0  0  0  0  0  0  0  0
   -1.2896    2.0354    0.0000 C   0  0  0  0  0  0  0  0  0  0  0  0
   -1.3062    1.0354    0.0000 C   0  0  0  0  0  0  0  0  0  0  0  0
    1.3145    2.4896    0.0000 N   0  0  0  0  0  0  0  0  0  0  0  0
   -2.1772    0.5437    0.0000 C   0  0  0  0  0  0  0  0  0  0  0  0
   -2.1897   -0.4521    0.0000 C   0  0  0  0  0  0  0  0  0  0  0  0
   -2.1522    2.5479    0.0000 N   0  0  0  0  0  0  0  0  0  0  0  0
   -1.3312   -0.9563    0.0000 C   0  0  0  0  0  0  0  0  0  0  0  0
   -0.4688   -0.4854    0.0000 O   0  0  0  0  0  0  0  0  0  0  0  0
   -1.3312   -1.9564    0.0000 C   0  0  0  0  0  0  0  0  0  0  0  0
   -3.0563   -0.9438    0.0000 C   0  0  0  0  0  0  0  0  0  0  0  0
   -2.2063   -2.4520    0.0000 C   0  0  0  0  0  0  0  0  0  0  0  0
   -3.0688   -1.9479    0.0000 C   0  0  0  0  0  0  0  0  0  0  0  0
   -3.0230    2.0479    0.0000 C   0  0  0  0  0  0  0  0  0  0  0  0
   -3.0272    1.0520    0.0000 C   0  0  0  0  0  0  0  0  0  0  0  0
    2.1688    1.9604    0.0000 C   0  0  0  0  0  0  0  0  0  0  0  0
    1.3312    3.4854    0.0000 C   0  0  0  0  0  0  0  0  0  0  0  0
   -0.4688   -2.4645    0.0000 C   0  0  0  0  0  0  0  0  0  0  0  0
   -2.2063   -3.4521    0.0000 C   0  0  0  0  0  0  0  0  0  0  0  0
    2.2146    3.9604    0.0000 C   0  0  0  0  0  0  0  0  0  0  0  0
    3.0477    2.4437    0.0000 C   0  0  0  0  0  0  0  0  0  0  0  0
   -0.4730   -3.4604    0.0000 C   0  0  0  0  0  0  0  0  0  0  0  0
   -1.3437   -3.9604    0.0000 C   0  0  0  0  0  0  0  0  0  0  0  0
    3.0688    3.4396    0.0000 C   0  0  0  0  0  0  0  0  0  0  0  0
  1  2  2  0  0  0  0
  2  3  1  0  0  0  0
  3  4  1  0  0  0  0
  4  6  1  0  0  0  0
  1  5  1  0  0  0  0
  5  6  2  0  0  0  0
  2  7  1  0  0  0  0
  6  8  1  0  0  0  0
  8 18  2  0  0  0  0
  8  9  1  0  0  0  0
  5 10  1  0  0  0  0
  9 11  1  0  0  0  0
  4 12  2  0  0  0  0
 11 13  2  0  0  0  0
 13 15  1  0  0  0  0
  9 14  2  0  0  0  0
 15 16  2  0  0  0  0
 14 16  1  0  0  0  0
 10 17  2  0  0  0  0
 17 18  1  0  0  0  0
  7 19  1  0  0  0  0
  7 20  1  0  0  0  0
 13 21  1  0  0  0  0
 15 22  1  0  0  0  0
 20 23  1  0  0  0  0
 19 24  1  0  0  0  0
 24 27  1  0  0  0  0
 21 25  2  0  0  0  0
 22 26  2  0  0  0  0
 25 26  1  0  0  0  0
 23 27  1  0  0  0  0
M  END
> <IDNUMBER>
Y020-2847

> <available>
26

> <H_acceptor>
4

> <H_donor>
1

> <B_rotN>
2

> <N_O>
5

> <logP>
4.5263

> <logD>
4.5212

> <logSw>
-4.2873

> <PSA>
47.037

> <pKa_ma>
9.4303

> <pKa_mb>
4.8093

> <N_Chirals>
0

> <Name>
5-(naphthalen-2-yl)-2-(piperidin-1-yl)pyrido[2,3-d]pyrimidin-4(3H)-one

> <Smile>
O=C1NC(N2CCCCC2)=Nc2c1c(-c1cc3ccccc3cc1)ccn2

> <Color>
YELLOW

> <Collection>
DC

> <InChI>
InChI=1S/C22H20N4O/c27-21-19-18(17-9-8-15-6-2-3-7-16(15)14-17)10-11-23-20(19)24-22(25-21)26-12-4-1-5-13-26/h2-3,6-11,14H,1,4-5,12-13H2,(H,23,24,25,27)

> <InChI Key>
KWCMRSUZGHHSLJ-UHFFFAOYSA-N

> <PERCENTSP3>
22.7

> <Link>
https://www.chemdiv.com/catalog/screening-compounds/compound-Y020-2847/

> <MFCDNUMBER>
MFCD09463074

> <STEREO>
ACHIRAL

> <State>
Solid

> <Similarity score>
0.21

$$$$
N-(4-fluorophenyl)-4-(morpholin-4-yl)[1]benzofuro[3,2-d]pyrimidine-2-carboxamide
  -OEChem-04222410502D

 29 33  0     0  0  0  0  0  0999 V2000
    0.4210    0.2436    0.0000 C   0  0  0  0  0  0  0  0  0  0  0  0
    1.2711   -0.2439    0.0000 C   0  0  0  0  0  0  0  0  0  0  0  0
   -0.4209   -0.2439    0.0000 C   0  0  0  0  0  0  0  0  0  0  0  0
    1.2711   -1.2188    0.0000 N   0  0  0  0  0  0  0  0  0  0  0  0
   -0.4209   -1.2188    0.0000 N   0  0  0  0  0  0  0  0  0  0  0  0
    0.4210   -1.7149    0.0000 C   0  0  0  0  0  0  0  0  0  0  0  0
    0.4210    1.2231    0.0000 O   0  0  0  0  0  0  0  0  0  0  0  0
   -1.2711    1.2231    0.0000 C   0  0  0  0  0  0  0  0  0  0  0  0
    0.4210   -2.6900    0.0000 C   0  0  0  0  0  0  0  0  0  0  0  0
   -0.4209    1.7106    0.0000 C   0  0  0  0  0  0  0  0  0  0  0  0
    2.1211    0.2436    0.0000 N   0  0  0  0  0  0  0  0  0  0  0  0
   -0.4209   -3.1817    0.0000 N   0  0  0  0  0  0  0  0  0  0  0  0
    1.2711   -3.1817    0.0000 O   0  0  0  0  0  0  0  0  0  0  0  0
    3.8088    1.2231    0.0000 O   0  0  0  0  0  0  0  0  0  0  0  0
   -1.2711   -2.6900    0.0000 C   0  0  0  0  0  0  0  0  0  0  0  0
   -2.9671   -1.7065    0.0000 C   0  0  0  0  0  0  0  0  0  0  0  0
   -3.8088   -1.2188    0.0000 F   0  0  0  0  0  0  0  0  0  0  0  0
   -2.1170    1.7106    0.0000 C   0  0  0  0  0  0  0  0  0  0  0  0
   -2.1170   -3.1817    0.0000 C   0  0  0  0  0  0  0  0  0  0  0  0
   -1.2711   -1.7065    0.0000 C   0  0  0  0  0  0  0  0  0  0  0  0
   -2.9671   -2.6900    0.0000 C   0  0  0  0  0  0  0  0  0  0  0  0
   -2.1170   -1.2188    0.0000 C   0  0  0  0  0  0  0  0  0  0  0  0
    2.1211    1.2231    0.0000 C   0  0  0  0  0  0  0  0  0  0  0  0
    2.9672   -0.2439    0.0000 C   0  0  0  0  0  0  0  0  0  0  0  0
   -0.4209    2.6940    0.0000 C   0  0  0  0  0  0  0  0  0  0  0  0
    3.8088    0.2436    0.0000 C   0  0  0  0  0  0  0  0  0  0  0  0
    2.9672    1.7106    0.0000 C   0  0  0  0  0  0  0  0  0  0  0  0
   -2.1170    2.6940    0.0000 C   0  0  0  0  0  0  0  0  0  0  0  0
   -1.2711    3.1817    0.0000 C   0  0  0  0  0  0  0  0  0  0  0  0
  1  2  1  0  0  0  0
  1  3  2  0  0  0  0
  2  4  2  0  0  0  0
  4  6  1  0  0  0  0
  3  5  1  0  0  0  0
  5  6  2  0  0  0  0
  1  7  1  0  0  0  0
  3  8  1  0  0  0  0
  8 10  1  0  0  0  0
  6  9  1  0  0  0  0
  7 10  1  0  0  0  0
  2 11  1  0  0  0  0
  9 12  1  0  0  0  0
  9 13  2  0  0  0  0
 14 26  1  0  0  0  0
 12 15  1  0  0  0  0
 16 22  2  0  0  0  0
 16 17  1  0  0  0  0
  8 18  2  0  0  0  0
 15 19  1  0  0  0  0
 15 20  2  0  0  0  0
 19 21  2  0  0  0  0
 16 21  1  0  0  0  0
 20 22  1  0  0  0  0
 11 23  1  0  0  0  0
 11 24  1  0  0  0  0
 10 25  2  0  0  0  0
 24 26  1  0  0  0  0
 23 27  1  0  0  0  0
 14 27  1  0  0  0  0
 18 28  1  0  0  0  0
 28 29  2  0  0  0  0
 25 29  1  0  0  0  0
M  END
> <IDNUMBER>
L331-0190

> <available>
21

> <H_acceptor>
6

> <H_donor>
1

> <B_rotN>
4

> <N_O>
7

> <logP>
4.0497

> <logD>
4.0496

> <logSw>
-4.2276

> <PSA>
62.1

> <pKa_ma>
10.9771

> <pKa_mb>
8.6338

> <N_Chirals>
0

> <Name>
N-(4-fluorophenyl)-4-(morpholin-4-yl)[1]benzofuro[3,2-d]pyrimidine-2-carboxamide

> <Smile>
O=C(c1nc(N2CCOCC2)c2oc(cccc3)c3c2n1)Nc(cc1)ccc1F

> <Color>
NOT COLORED

> <Collection>
NC

> <InChI>
InChI=1S/C21H17FN4O3/c22-13-5-7-14(8-6-13)23-21(27)19-24-17-15-3-1-2-4-16(15)29-18(17)20(25-19)26-9-11-28-12-10-26/h1-8H,9-12H2,(H,23,27)

> <InChI Key>
FEODUOXVTZFYSA-UHFFFAOYSA-N

> <PERCENTSP3>
19

> <Link>
https://www.chemdiv.com/catalog/screening-compounds/compound-L331-0190/

> <MFCDNUMBER>
MFCD27246893

> <CLNUMBER>
CL7949

> <STEREO>
ACHIRAL

> <State>
Solid

> <Similarity score>
0.21

$$$$
4-(4-benzylpiperazin-1-yl)-2-(2-fluorophenyl)quinazoline
  -OEChem-04222410502D

 30 34  0     0  0  0  0  0  0999 V2000
    0.8379    1.2544    0.0000 N   0  0  0  0  0  0  0  0  0  0  0  0
    1.7062    1.7569    0.0000 C   0  0  0  0  0  0  0  0  0  0  0  0
    0.8379    0.2540    0.0000 C   0  0  0  0  0  0  0  0  0  0  0  0
    2.5847    1.2544    0.0000 N   0  0  0  0  0  0  0  0  0  0  0  0
    1.7062   -0.2488    0.0000 C   0  0  0  0  0  0  0  0  0  0  0  0
    1.7163    2.7471    0.0000 C   0  0  0  0  0  0  0  0  0  0  0  0
   -0.0303   -0.2437    0.0000 N   0  0  0  0  0  0  0  0  0  0  0  0
    2.5747    0.2540    0.0000 C   0  0  0  0  0  0  0  0  0  0  0  0
   -1.7516   -1.2390    0.0000 N   0  0  0  0  0  0  0  0  0  0  0  0
    2.5847    3.2600    0.0000 C   0  0  0  0  0  0  0  0  0  0  0  0
   -0.8886    0.2540    0.0000 C   0  0  0  0  0  0  0  0  0  0  0  0
   -0.0303   -1.2390    0.0000 C   0  0  0  0  0  0  0  0  0  0  0  0
   -2.6152   -1.7517    0.0000 C   0  0  0  0  0  0  0  0  0  0  0  0
   -0.8886   -1.7418    0.0000 C   0  0  0  0  0  0  0  0  0  0  0  0
   -1.7516   -0.2437    0.0000 C   0  0  0  0  0  0  0  0  0  0  0  0
    3.4682    2.7471    0.0000 F   0  0  0  0  0  0  0  0  0  0  0  0
    1.7062   -1.2390    0.0000 C   0  0  0  0  0  0  0  0  0  0  0  0
    0.8481    3.2501    0.0000 C   0  0  0  0  0  0  0  0  0  0  0  0
   -2.6152   -2.7572    0.0000 C   0  0  0  0  0  0  0  0  0  0  0  0
    3.4429   -0.2334    0.0000 C   0  0  0  0  0  0  0  0  0  0  0  0
    2.5900    4.2554    0.0000 C   0  0  0  0  0  0  0  0  0  0  0  0
   -3.4682   -3.2600    0.0000 C   0  0  0  0  0  0  0  0  0  0  0  0
   -1.7569   -3.2600    0.0000 C   0  0  0  0  0  0  0  0  0  0  0  0
    2.5747   -1.7418    0.0000 C   0  0  0  0  0  0  0  0  0  0  0  0
    0.8481    4.2554    0.0000 C   0  0  0  0  0  0  0  0  0  0  0  0
    3.4429   -1.2390    0.0000 C   0  0  0  0  0  0  0  0  0  0  0  0
    1.7163    4.7581    0.0000 C   0  0  0  0  0  0  0  0  0  0  0  0
   -3.4682   -4.2551    0.0000 C   0  0  0  0  0  0  0  0  0  0  0  0
   -1.7569   -4.2551    0.0000 C   0  0  0  0  0  0  0  0  0  0  0  0
   -2.6152   -4.7581    0.0000 C   0  0  0  0  0  0  0  0  0  0  0  0
  1  2  1  0  0  0  0
  1  3  2  0  0  0  0
  2  4  2  0  0  0  0
  3  5  1  0  0  0  0
  2  6  1  0  0  0  0
  3  7  1  0  0  0  0
  5  8  1  0  0  0  0
  4  8  1  0  0  0  0
  9 14  1  0  0  0  0
  6 10  2  0  0  0  0
  7 11  1  0  0  0  0
  7 12  1  0  0  0  0
  9 13  1  0  0  0  0
 12 14  1  0  0  0  0
 11 15  1  0  0  0  0
  9 15  1  0  0  0  0
 10 16  1  0  0  0  0
  5 17  2  0  0  0  0
  6 18  1  0  0  0  0
 13 19  1  0  0  0  0
  8 20  2  0  0  0  0
 20 26  1  0  0  0  0
 10 21  1  0  0  0  0
 21 27  2  0  0  0  0
 19 22  2  0  0  0  0
 19 23  1  0  0  0  0
 17 24  1  0  0  0  0
 18 25  2  0  0  0  0
 24 26  2  0  0  0  0
 25 27  1  0  0  0  0
 22 28  1  0  0  0  0
 23 29  2  0  0  0  0
 29 30  1  0  0  0  0
 28 30  2  0  0  0  0
M  END
> <IDNUMBER>
K841-0197

> <available>
1

> <H_acceptor>
3

> <H_donor>
0

> <B_rotN>
4

> <N_O>
4

> <logP>
5.0799

> <logD>
4.8106

> <logSw>
-5.3831

> <PSA>
25.1789

> <pKa_ma>
22.1102

> <pKa_mb>
7.3342

> <N_Chirals>
0

> <Name>
4-(4-benzylpiperazin-1-yl)-2-(2-fluorophenyl)quinazoline

> <Smile>
Fc(cccc1)c1-c1nc2ccccc2c(N2CCN(Cc3ccccc3)CC2)n1

> <Color>
NOT COLORED

> <Collection>
NC

> <InChI>
InChI=1S/C25H23FN4/c26-22-12-6-4-10-20(22)24-27-23-13-7-5-11-21(23)25(28-24)30-16-14-29(15-17-30)18-19-8-2-1-3-9-19/h1-13H,14-18H2

> <InChI Key>
QYHBYHLILDBRAT-UHFFFAOYSA-N

> <PERCENTSP3>
20

> <Link>
https://www.chemdiv.com/catalog/screening-compounds/compound-K841-0197/

> <MFCDNUMBER>
MFCD03670673

> <CLNUMBER>
CL2243

> <STEREO>
ACHIRAL

> <State>
Solid

> <Similarity score>
0.21

$$$$
N-(2-chloro-4-fluorophenyl)-4-(morpholin-4-yl)[1]benzofuro[3,2-d]pyrimidine-2-ca
  -OEChem-04222410502D

 30 34  0     0  0  0  0  0  0999 V2000
    2.1201   -0.2437    0.0000 C   0  0  0  0  0  0  0  0  0  0  0  0
    2.1201   -1.2183    0.0000 C   0  0  0  0  0  0  0  0  0  0  0  0
    1.2704    0.2437    0.0000 C   0  0  0  0  0  0  0  0  0  0  0  0
    1.2704   -1.7138    0.0000 N   0  0  0  0  0  0  0  0  0  0  0  0
    0.4207   -0.2437    0.0000 N   0  0  0  0  0  0  0  0  0  0  0  0
    0.4207   -1.2183    0.0000 C   0  0  0  0  0  0  0  0  0  0  0  0
    2.9697    0.2437    0.0000 O   0  0  0  0  0  0  0  0  0  0  0  0
    2.1201    1.7181    0.0000 C   0  0  0  0  0  0  0  0  0  0  0  0
   -0.4207   -1.7138    0.0000 C   0  0  0  0  0  0  0  0  0  0  0  0
    2.9697    1.2226    0.0000 C   0  0  0  0  0  0  0  0  0  0  0  0
    2.9697   -1.7138    0.0000 N   0  0  0  0  0  0  0  0  0  0  0  0
   -1.2704   -1.2183    0.0000 N   0  0  0  0  0  0  0  0  0  0  0  0
   -2.1158   -1.7138    0.0000 C   0  0  0  0  0  0  0  0  0  0  0  0
   -2.9655   -1.2183    0.0000 C   0  0  0  0  0  0  0  0  0  0  0  0
   -3.8152   -1.7138    0.0000 C   0  0  0  0  0  0  0  0  0  0  0  0
   -0.4207   -2.6927    0.0000 O   0  0  0  0  0  0  0  0  0  0  0  0
   -2.1158   -2.6927    0.0000 C   0  0  0  0  0  0  0  0  0  0  0  0
    4.6566   -2.6927    0.0000 O   0  0  0  0  0  0  0  0  0  0  0  0
   -3.8152   -2.6927    0.0000 C   0  0  0  0  0  0  0  0  0  0  0  0
   -2.9655   -0.2437    0.0000 Cl  0  0  0  0  0  0  0  0  0  0  0  0
   -2.9655   -3.1802    0.0000 C   0  0  0  0  0  0  0  0  0  0  0  0
   -4.6566   -3.1802    0.0000 F   0  0  0  0  0  0  0  0  0  0  0  0
    2.1201    2.6927    0.0000 C   0  0  0  0  0  0  0  0  0  0  0  0
    2.9697   -2.6927    0.0000 C   0  0  0  0  0  0  0  0  0  0  0  0
    3.8152   -1.2183    0.0000 C   0  0  0  0  0  0  0  0  0  0  0  0
    3.8152    1.7181    0.0000 C   0  0  0  0  0  0  0  0  0  0  0  0
    4.6566   -1.7138    0.0000 C   0  0  0  0  0  0  0  0  0  0  0  0
    3.8152   -3.1802    0.0000 C   0  0  0  0  0  0  0  0  0  0  0  0
    2.9697    3.1802    0.0000 C   0  0  0  0  0  0  0  0  0  0  0  0
    3.8152    2.6927    0.0000 C   0  0  0  0  0  0  0  0  0  0  0  0
  1  2  1  0  0  0  0
  1  3  2  0  0  0  0
  2  4  2  0  0  0  0
  4  6  1  0  0  0  0
  3  5  1  0  0  0  0
  5  6  2  0  0  0  0
  1  7  1  0  0  0  0
  3  8  1  0  0  0  0
  8 10  1  0  0  0  0
  6  9  1  0  0  0  0
  7 10  1  0  0  0  0
  2 11  1  0  0  0  0
  9 12  1  0  0  0  0
 12 13  1  0  0  0  0
 13 14  1  0  0  0  0
 14 15  2  0  0  0  0
  9 16  2  0  0  0  0
 13 17  2  0  0  0  0
 18 27  1  0  0  0  0
 19 21  2  0  0  0  0
 15 19  1  0  0  0  0
 14 20  1  0  0  0  0
 17 21  1  0  0  0  0
 19 22  1  0  0  0  0
  8 23  2  0  0  0  0
 11 24  1  0  0  0  0
 11 25  1  0  0  0  0
 10 26  2  0  0  0  0
 25 27  1  0  0  0  0
 24 28  1  0  0  0  0
 18 28  1  0  0  0  0
 23 29  1  0  0  0  0
 29 30  2  0  0  0  0
 26 30  1  0  0  0  0
M  END
> <IDNUMBER>
L331-0256

> <available>
72

> <H_acceptor>
6

> <H_donor>
1

> <B_rotN>
4

> <N_O>
7

> <logP>
4.652

> <logD>
4.6433

> <logSw>
-4.9805

> <PSA>
61.402

> <pKa_ma>
9.092

> <pKa_mb>
8.6338

> <N_Chirals>
0

> <Name>
N-(2-chloro-4-fluorophenyl)-4-(morpholin-4-yl)[1]benzofuro[3,2-d]pyrimidine-2-carboxamide

> <Smile>
O=C(c1nc(N2CCOCC2)c2oc(cccc3)c3c2n1)Nc(ccc(F)c1)c1Cl

> <Color>
NOT COLORED

> <Collection>
NC

> <InChI>
InChI=1S/C21H16ClFN4O3/c22-14-11-12(23)5-6-15(14)24-21(28)19-25-17-13-3-1-2-4-16(13)30-18(17)20(26-19)27-7-9-29-10-8-27/h1-6,11H,7-10H2,(H,24,28)

> <InChI Key>
SDECTUCHLLRUEC-UHFFFAOYSA-N

> <PERCENTSP3>
19

> <Link>
https://www.chemdiv.com/catalog/screening-compounds/compound-L331-0256/

> <MFCDNUMBER>
MFCD27246923

> <CLNUMBER>
CL7949

> <STEREO>
ACHIRAL

> <State>
Solid

> <Similarity score>
0.21

$$$$
2-[4-(2-fluorophenyl)piperazin-1-yl]-8-methyl-3-(5-methyl-1,2,4-oxadiazol-3-yl)q
  -OEChem-04222410502D

 30 34  0     0  0  0  0  0  0999 V2000
   -0.0042    1.6219    0.0000 C   0  0  0  0  0  0  0  0  0  0  0  0
    0.8048    1.0340    0.0000 C   0  0  0  0  0  0  0  0  0  0  0  0
   -0.9175    1.2217    0.0000 C   0  0  0  0  0  0  0  0  0  0  0  0
    1.7553    1.3468    0.0000 N   0  0  0  0  0  0  0  0  0  0  0  0
   -1.7220    1.8013    0.0000 N   0  0  0  0  0  0  0  0  0  0  0  0
    0.8048    0.0334    0.0000 N   0  0  0  0  0  0  0  0  0  0  0  0
   -1.0173    0.2209    0.0000 N   0  0  0  0  0  0  0  0  0  0  0  0
    0.1040    2.6142    0.0000 C   0  0  0  0  0  0  0  0  0  0  0  0
   -1.6178    2.7977    0.0000 C   0  0  0  0  0  0  0  0  0  0  0  0
   -1.2219   -1.7762    0.0000 N   0  0  0  0  0  0  0  0  0  0  0  0
    2.3432    0.5378    0.0000 C   0  0  0  0  0  0  0  0  0  0  0  0
    1.7553   -0.2752    0.0000 O   0  0  0  0  0  0  0  0  0  0  0  0
   -0.7048    3.2065    0.0000 C   0  0  0  0  0  0  0  0  0  0  0  0
   -1.3301   -2.7769    0.0000 C   0  0  0  0  0  0  0  0  0  0  0  0
   -0.2044   -0.3670    0.0000 C   0  0  0  0  0  0  0  0  0  0  0  0
   -1.9347   -0.1918    0.0000 C   0  0  0  0  0  0  0  0  0  0  0  0
   -0.3045   -1.3676    0.0000 C   0  0  0  0  0  0  0  0  0  0  0  0
   -2.0348   -1.1925    0.0000 C   0  0  0  0  0  0  0  0  0  0  0  0
   -0.5087   -3.3649    0.0000 C   0  0  0  0  0  0  0  0  0  0  0  0
   -2.4309    3.3856    0.0000 C   0  0  0  0  0  0  0  0  0  0  0  0
    0.4043   -2.9520    0.0000 F   0  0  0  0  0  0  0  0  0  0  0  0
   -0.6047    4.1822    0.0000 C   0  0  0  0  0  0  0  0  0  0  0  0
    3.3357    0.5378    0.0000 C   0  0  0  0  0  0  0  0  0  0  0  0
   -1.4094    4.7700    0.0000 C   0  0  0  0  0  0  0  0  0  0  0  0
   -2.2434   -3.1896    0.0000 C   0  0  0  0  0  0  0  0  0  0  0  0
   -2.3224    4.3697    0.0000 C   0  0  0  0  0  0  0  0  0  0  0  0
   -3.3357    2.9812    0.0000 C   0  0  0  0  0  0  0  0  0  0  0  0
   -0.6173   -4.3572    0.0000 C   0  0  0  0  0  0  0  0  0  0  0  0
   -2.3434   -4.1822    0.0000 C   0  0  0  0  0  0  0  0  0  0  0  0
   -1.5303   -4.7700    0.0000 C   0  0  0  0  0  0  0  0  0  0  0  0
  1  2  1  0  0  0  0
  1  3  1  0  0  0  0
  2  4  1  0  0  0  0
  3  5  2  0  0  0  0
  5  9  1  0  0  0  0
  2  6  2  0  0  0  0
  3  7  1  0  0  0  0
  1  8  2  0  0  0  0
  9 13  1  0  0  0  0
 10 18  1  0  0  0  0
 10 17  1  0  0  0  0
  4 11  2  0  0  0  0
 11 12  1  0  0  0  0
  6 12  1  0  0  0  0
  8 13  1  0  0  0  0
 10 14  1  0  0  0  0
  7 15  1  0  0  0  0
  7 16  1  0  0  0  0
 15 17  1  0  0  0  0
 16 18  1  0  0  0  0
 14 19  1  0  0  0  0
  9 20  2  0  0  0  0
 20 26  1  0  0  0  0
 19 21  1  0  0  0  0
 13 22  2  0  0  0  0
 11 23  1  0  0  0  0
 22 24  1  0  0  0  0
 14 25  2  0  0  0  0
 24 26  2  0  0  0  0
 20 27  1  0  0  0  0
 19 28  2  0  0  0  0
 25 29  1  0  0  0  0
 29 30  2  0  0  0  0
 28 30  1  0  0  0  0
M  END
> <IDNUMBER>
D420-1292

> <available>
173

> <H_acceptor>
4

> <H_donor>
0

> <B_rotN>
3

> <N_O>
6

> <logP>
5.5931

> <logD>
5.0253

> <logSw>
-6.3988

> <PSA>
46.59

> <pKa_ma>
23.536

> <pKa_mb>
7.8308

> <N_Chirals>
0

> <Name>
2-[4-(2-fluorophenyl)piperazin-1-yl]-8-methyl-3-(5-methyl-1,2,4-oxadiazol-3-yl)quinoline

> <Smile>
Cc1nc(-c2cc3cccc(C)c3nc2N(CC2)CCN2c(cccc2)c2F)no1

> <Color>
NOT COLORED

> <Collection>
NC

> <InChI>
InChI=1S/C23H22FN5O/c1-15-6-5-7-17-14-18(22-25-16(2)30-27-22)23(26-21(15)17)29-12-10-28(11-13-29)20-9-4-3-8-19(20)24/h3-9,14H,10-13H2,1-2H3

> <InChI Key>
RCTVXZOERYVTFC-UHFFFAOYSA-N

> <PERCENTSP3>
26.1

> <Link>
https://www.chemdiv.com/catalog/screening-compounds/compound-D420-1292/

> <MFCDNUMBER>
MFCD27584902

> <CLNUMBER>
CL7646

> <STEREO>
ACHIRAL

> <State>
Solid

> <Similarity score>
0.21

$$$$
8-methyl-2-(morpholin-4-yl)-3-(5-phenyl-1,2,4-oxadiazol-3-yl)quinoline
  -OEChem-04222410502D

 28 32  0     0  0  0  0  0  0999 V2000
   -1.0037    0.1188    0.0000 C   0  0  0  0  0  0  0  0  0  0  0  0
   -0.1916   -0.4685    0.0000 C   0  0  0  0  0  0  0  0  0  0  0  0
    0.7578   -0.1561    0.0000 N   0  0  0  0  0  0  0  0  0  0  0  0
   -1.9155   -0.2894    0.0000 C   0  0  0  0  0  0  0  0  0  0  0  0
   -2.7191    0.2978    0.0000 N   0  0  0  0  0  0  0  0  0  0  0  0
   -0.1916   -1.4678    0.0000 N   0  0  0  0  0  0  0  0  0  0  0  0
    1.3451   -0.9681    0.0000 C   0  0  0  0  0  0  0  0  0  0  0  0
    0.7578   -1.7759    0.0000 O   0  0  0  0  0  0  0  0  0  0  0  0
   -0.8953    1.1098    0.0000 C   0  0  0  0  0  0  0  0  0  0  0  0
   -2.6151    1.2930    0.0000 C   0  0  0  0  0  0  0  0  0  0  0  0
   -2.0155   -1.2804    0.0000 N   0  0  0  0  0  0  0  0  0  0  0  0
   -1.7031    1.6970    0.0000 C   0  0  0  0  0  0  0  0  0  0  0  0
    2.3444   -0.9681    0.0000 C   0  0  0  0  0  0  0  0  0  0  0  0
   -3.4271    1.8801    0.0000 C   0  0  0  0  0  0  0  0  0  0  0  0
   -2.2195   -3.2792    0.0000 O   0  0  0  0  0  0  0  0  0  0  0  0
   -2.9315   -1.6928    0.0000 C   0  0  0  0  0  0  0  0  0  0  0  0
   -1.2034   -1.8675    0.0000 C   0  0  0  0  0  0  0  0  0  0  0  0
   -1.6033    2.6921    0.0000 C   0  0  0  0  0  0  0  0  0  0  0  0
   -2.4068    3.2792    0.0000 C   0  0  0  0  0  0  0  0  0  0  0  0
   -3.3188    2.8712    0.0000 C   0  0  0  0  0  0  0  0  0  0  0  0
   -1.3035   -2.8670    0.0000 C   0  0  0  0  0  0  0  0  0  0  0  0
   -3.0399   -2.6921    0.0000 C   0  0  0  0  0  0  0  0  0  0  0  0
   -4.3390    1.4721    0.0000 C   0  0  0  0  0  0  0  0  0  0  0  0
    2.8399   -0.0978    0.0000 C   0  0  0  0  0  0  0  0  0  0  0  0
    2.8399   -1.8301    0.0000 C   0  0  0  0  0  0  0  0  0  0  0  0
    3.8393   -0.0978    0.0000 C   0  0  0  0  0  0  0  0  0  0  0  0
    3.8393   -1.8301    0.0000 C   0  0  0  0  0  0  0  0  0  0  0  0
    4.3390   -0.9681    0.0000 C   0  0  0  0  0  0  0  0  0  0  0  0
  1  2  1  0  0  0  0
  2  3  1  0  0  0  0
  1  4  1  0  0  0  0
  4  5  2  0  0  0  0
  5 10  1  0  0  0  0
  2  6  2  0  0  0  0
  3  7  2  0  0  0  0
  7  8  1  0  0  0  0
  6  8  1  0  0  0  0
  1  9  2  0  0  0  0
 10 12  1  0  0  0  0
  4 11  1  0  0  0  0
  9 12  1  0  0  0  0
  7 13  1  0  0  0  0
 10 14  2  0  0  0  0
 14 20  1  0  0  0  0
 15 21  1  0  0  0  0
 11 16  1  0  0  0  0
 11 17  1  0  0  0  0
 12 18  2  0  0  0  0
 18 19  1  0  0  0  0
 19 20  2  0  0  0  0
 17 21  1  0  0  0  0
 16 22  1  0  0  0  0
 15 22  1  0  0  0  0
 14 23  1  0  0  0  0
 13 24  1  0  0  0  0
 13 25  2  0  0  0  0
 24 26  2  0  0  0  0
 26 28  1  0  0  0  0
 25 27  1  0  0  0  0
 27 28  2  0  0  0  0
M  END
> <IDNUMBER>
D420-0998

> <available>
96

> <H_acceptor>
5

> <H_donor>
0

> <B_rotN>
3

> <N_O>
6

> <logP>
5.2063

> <logD>
5.1296

> <logSw>
-5.9336

> <PSA>
52.039

> <pKa_ma>
23.7205

> <pKa_mb>
6.6859

> <N_Chirals>
0

> <Name>
8-methyl-2-(morpholin-4-yl)-3-(5-phenyl-1,2,4-oxadiazol-3-yl)quinoline

> <Smile>
Cc(cccc1cc2-c3noc(-c4ccccc4)n3)c1nc2N1CCOCC1

> <Color>
NOT COLORED

> <Collection>
NC

> <InChI>
InChI=1S/C22H20N4O2/c1-15-6-5-9-17-14-18(21(23-19(15)17)26-10-12-27-13-11-26)20-24-22(28-25-20)16-7-3-2-4-8-16/h2-9,14H,10-13H2,1H3

> <InChI Key>
RHQZTBDZZSMHFS-UHFFFAOYSA-N

> <PERCENTSP3>
22.7

> <Link>
https://www.chemdiv.com/catalog/screening-compounds/compound-D420-0998/

> <MFCDNUMBER>
MFCD21611688

> <CLNUMBER>
CL7646

> <STEREO>
ACHIRAL

> <State>
Solid

> <Similarity score>
0.21

$$$$
4-amino-2-(morpholin-4-yl)-6-(3-nitrophenyl)pyridine-3,5-dicarbonitrile
  -OEChem-04222410502D

 26 28  0     0  0  0  0  0  0999 V2000
    1.7693   -0.2479    0.0000 C   0  0  0  0  0  0  0  0  0  0  0  0
    1.7693    0.7439    0.0000 C   0  0  0  0  0  0  0  0  0  0  0  0
    0.0521    0.7439    0.0000 C   0  0  0  0  0  0  0  0  0  0  0  0
    0.9108   -0.7439    0.0000 N   0  0  0  0  0  0  0  0  0  0  0  0
    0.0521   -0.2479    0.0000 C   0  0  0  0  0  0  0  0  0  0  0  0
    0.9108    1.2401    0.0000 C   0  0  0  0  0  0  0  0  0  0  0  0
   -3.4447   -0.1896    0.0000 N   0  3  0  0  0  0  0  0  0  0  0  0
    2.6321   -0.7439    0.0000 N   0  0  0  0  0  0  0  0  0  0  0  0
    2.6321    1.2401    0.0000 C   0  0  0  0  0  0  0  0  0  0  0  0
   -0.8064    1.2401    0.0000 C   0  0  0  0  0  0  0  0  0  0  0  0
   -0.8064   -0.7439    0.0000 C   0  0  0  0  0  0  0  0  0  0  0  0
   -2.5363   -0.7106    0.0000 C   0  0  0  0  0  0  0  0  0  0  0  0
    3.4907    0.7439    0.0000 N   0  0  0  0  0  0  0  0  0  0  0  0
   -1.6692    0.7439    0.0000 N   0  0  0  0  0  0  0  0  0  0  0  0
   -1.6692   -0.2479    0.0000 C   0  0  0  0  0  0  0  0  0  0  0  0
   -4.3492   -0.7106    0.0000 O   0  5  0  0  0  0  0  0  0  0  0  0
   -3.4447    0.8607    0.0000 O   0  0  0  0  0  0  0  0  0  0  0  0
    0.9108    2.2320    0.0000 N   0  0  0  0  0  0  0  0  0  0  0  0
    4.3492   -1.7359    0.0000 O   0  0  0  0  0  0  0  0  0  0  0  0
    2.6321   -1.7359    0.0000 C   0  0  0  0  0  0  0  0  0  0  0  0
    3.4907   -0.2479    0.0000 C   0  0  0  0  0  0  0  0  0  0  0  0
   -0.8064   -1.7359    0.0000 C   0  0  0  0  0  0  0  0  0  0  0  0
   -2.5404   -1.7609    0.0000 C   0  0  0  0  0  0  0  0  0  0  0  0
   -1.6692   -2.2320    0.0000 C   0  0  0  0  0  0  0  0  0  0  0  0
    3.4907   -2.2320    0.0000 C   0  0  0  0  0  0  0  0  0  0  0  0
    4.3492   -0.7439    0.0000 C   0  0  0  0  0  0  0  0  0  0  0  0
  1  2  2  0  0  0  0
  3  5  1  0  0  0  0
  1  4  1  0  0  0  0
  4  5  2  0  0  0  0
  2  6  1  0  0  0  0
  3  6  2  0  0  0  0
  7 12  1  0  0  0  0
  1  8  1  0  0  0  0
  2  9  1  0  0  0  0
  3 10  1  0  0  0  0
  5 11  1  0  0  0  0
 12 15  1  0  0  0  0
  9 13  3  0  0  0  0
 10 14  3  0  0  0  0
 11 15  2  0  0  0  0
  7 16  1  0  0  0  0
  7 17  2  0  0  0  0
  6 18  1  0  0  0  0
 19 25  1  0  0  0  0
  8 20  1  0  0  0  0
  8 21  1  0  0  0  0
 11 22  1  0  0  0  0
 12 23  2  0  0  0  0
 23 24  1  0  0  0  0
 22 24  2  0  0  0  0
 20 25  1  0  0  0  0
 21 26  1  0  0  0  0
 19 26  1  0  0  0  0
M  CHG  2   7   1  16  -1
M  END
> <IDNUMBER>
8020-7826

> <available>
18

> <H_acceptor>
8

> <H_donor>
2

> <B_rotN>
5

> <N_O>
9

> <logP>
2.3436

> <logD>
2.3436

> <logSw>
-2.648

> <PSA>
107.527

> <pKa_ma>
16.0033

> <pKa_mb>
1.8535

> <N_Chirals>
0

> <Name>
4-amino-2-(morpholin-4-yl)-6-(3-nitrophenyl)pyridine-3,5-dicarbonitrile

> <Smile>
Nc(c(C#N)c(N1CCOCC1)nc1-c2cccc([N+]([O-])=O)c2)c1C#N

> <Color>
NOT COLORED

> <Collection>
DC

> <InChI>
InChI=1S/C17H14N6O3/c18-9-13-15(20)14(10-19)17(22-4-6-26-7-5-22)21-16(13)11-2-1-3-12(8-11)23(24)25/h1-3,8H,4-7H2,(H2,20,21)

> <InChI Key>
OMWHHCKHWCPLHL-UHFFFAOYSA-N

> <PERCENTSP3>
23.53

> <Link>
https://www.chemdiv.com/catalog/screening-compounds/compound-8020-7826/

> <MFCDNUMBER>
MFCD30711407

> <STEREO>
ACHIRAL

> <State>
Solid

> <Similarity score>
0.21

$$$$
3-(3-bromophenyl)-6-fluoro-1-phenyl-1H-pyrazolo[4,3-c]quinoline
  -OEChem-04222410502D

 27 31  0     0  0  0  0  0  0999 V2000
   -0.8745    0.7497    0.0000 N   0  0  0  0  0  0  0  0  0  0  0  0
   -0.2078   -0.7199    0.0000 C   0  0  0  0  0  0  0  0  0  0  0  0
    0.1231    0.8503    0.0000 N   0  0  0  0  0  0  0  0  0  0  0  0
   -1.0862   -0.2227    0.0000 C   0  0  0  0  0  0  0  0  0  0  0  0
    0.5466   -0.0392    0.0000 C   0  0  0  0  0  0  0  0  0  0  0  0
   -1.9661   -0.7199    0.0000 C   0  0  0  0  0  0  0  0  0  0  0  0
   -1.0862   -2.2083    0.0000 N   0  0  0  0  0  0  0  0  0  0  0  0
   -1.9661   -1.7174    0.0000 C   0  0  0  0  0  0  0  0  0  0  0  0
   -0.2078   -1.7174    0.0000 C   0  0  0  0  0  0  0  0  0  0  0  0
    1.5553   -0.1474    0.0000 C   0  0  0  0  0  0  0  0  0  0  0  0
   -1.4971    1.5167    0.0000 C   0  0  0  0  0  0  0  0  0  0  0  0
   -2.8367   -2.2083    0.0000 C   0  0  0  0  0  0  0  0  0  0  0  0
    2.1309    0.6683    0.0000 C   0  0  0  0  0  0  0  0  0  0  0  0
   -2.8367   -0.2227    0.0000 C   0  0  0  0  0  0  0  0  0  0  0  0
    3.1426    0.5850    0.0000 C   0  0  0  0  0  0  0  0  0  0  0  0
   -2.8367   -3.2060    0.0000 F   0  0  0  0  0  0  0  0  0  0  0  0
    3.7119    1.4070    0.0000 Br  0  0  0  0  0  0  0  0  0  0  0  0
    1.9630   -1.0461    0.0000 C   0  0  0  0  0  0  0  0  0  0  0  0
   -3.7025   -0.7199    0.0000 C   0  0  0  0  0  0  0  0  0  0  0  0
    2.9747   -1.1434    0.0000 C   0  0  0  0  0  0  0  0  0  0  0  0
   -3.7119   -1.7174    0.0000 C   0  0  0  0  0  0  0  0  0  0  0  0
   -2.4744    1.3615    0.0000 C   0  0  0  0  0  0  0  0  0  0  0  0
   -1.1442    2.4374    0.0000 C   0  0  0  0  0  0  0  0  0  0  0  0
    3.5802   -0.3262    0.0000 C   0  0  0  0  0  0  0  0  0  0  0  0
   -1.7685    3.2060    0.0000 C   0  0  0  0  0  0  0  0  0  0  0  0
   -3.0922    2.1190    0.0000 C   0  0  0  0  0  0  0  0  0  0  0  0
   -2.7441    3.0507    0.0000 C   0  0  0  0  0  0  0  0  0  0  0  0
  2  4  2  0  0  0  0
  2  5  1  0  0  0  0
  1  3  1  0  0  0  0
  1  4  1  0  0  0  0
  3  5  2  0  0  0  0
  4  6  1  0  0  0  0
  7  8  1  0  0  0  0
  7  9  2  0  0  0  0
  6  8  1  0  0  0  0
  2  9  1  0  0  0  0
  5 10  1  0  0  0  0
  1 11  1  0  0  0  0
  8 12  2  0  0  0  0
 10 13  1  0  0  0  0
  6 14  2  0  0  0  0
 13 15  2  0  0  0  0
 12 16  1  0  0  0  0
 15 17  1  0  0  0  0
 10 18  2  0  0  0  0
 14 19  1  0  0  0  0
 18 20  1  0  0  0  0
 19 21  2  0  0  0  0
 12 21  1  0  0  0  0
 11 22  1  0  0  0  0
 11 23  2  0  0  0  0
 20 24  2  0  0  0  0
 15 24  1  0  0  0  0
 23 25  1  0  0  0  0
 22 26  2  0  0  0  0
 26 27  1  0  0  0  0
 25 27  2  0  0  0  0
M  END
> <IDNUMBER>
C350-0857

> <available>
72

> <H_acceptor>
2

> <H_donor>
0

> <B_rotN>
2

> <N_O>
3

> <logP>
6.0267

> <logD>
6.0267

> <logSw>
-6.5063

> <PSA>
23.4803

> <pKa_ma>
14

> <pKa_mb>
2.6131

> <N_Chirals>
0

> <Name>
3-(3-bromophenyl)-6-fluoro-1-phenyl-1H-pyrazolo[4,3-c]quinoline

> <Smile>
Fc(cccc12)c1ncc1c2n(-c2ccccc2)nc1-c1cccc(Br)c1

> <Color>
NOT COLORED

> <Collection>
DC

> <InChI>
InChI=1S/C22H13BrFN3/c23-15-7-4-6-14(12-15)20-18-13-25-21-17(10-5-11-19(21)24)22(18)27(26-20)16-8-2-1-3-9-16/h1-13H

> <InChI Key>
YVCHCCNIMXOLDO-UHFFFAOYSA-N

> <PERCENTSP3>
0

> <Link>
https://www.chemdiv.com/catalog/screening-compounds/compound-C350-0857/

> <MFCDNUMBER>
MFCD14750711

> <CLNUMBER>
CL4130

> <STEREO>
ACHIRAL

> <State>
Solid

> <Similarity score>
0.21

$$$$
2-(2-fluorophenyl)-4-(4-methylpiperidin-1-yl)quinazoline
  -OEChem-04222410502D

 24 27  0     0  0  0  0  0  0999 V2000
    0.5423    0.0959    0.0000 N   0  0  0  0  0  0  0  0  0  0  0  0
    1.5107    0.3530    0.0000 C   0  0  0  0  0  0  0  0  0  0  0  0
    0.2699   -0.8575    0.0000 C   0  0  0  0  0  0  0  0  0  0  0  0
    2.2068   -0.3581    0.0000 N   0  0  0  0  0  0  0  0  0  0  0  0
    0.9810   -1.5484    0.0000 C   0  0  0  0  0  0  0  0  0  0  0  0
    1.7831    1.3064    0.0000 C   0  0  0  0  0  0  0  0  0  0  0  0
   -0.6884   -1.0947    0.0000 N   0  0  0  0  0  0  0  0  0  0  0  0
    1.9443   -1.3064    0.0000 C   0  0  0  0  0  0  0  0  0  0  0  0
    2.7515    1.5484    0.0000 C   0  0  0  0  0  0  0  0  0  0  0  0
   -1.3999   -0.3884    0.0000 C   0  0  0  0  0  0  0  0  0  0  0  0
   -0.9711   -2.0631    0.0000 C   0  0  0  0  0  0  0  0  0  0  0  0
    3.5839    0.8323    0.0000 F   0  0  0  0  0  0  0  0  0  0  0  0
    0.7186   -2.5171    0.0000 C   0  0  0  0  0  0  0  0  0  0  0  0
   -1.9395   -2.3051    0.0000 C   0  0  0  0  0  0  0  0  0  0  0  0
   -2.3783   -0.6456    0.0000 C   0  0  0  0  0  0  0  0  0  0  0  0
    1.0870    2.0177    0.0000 C   0  0  0  0  0  0  0  0  0  0  0  0
   -2.6254   -1.5941    0.0000 C   0  0  0  0  0  0  0  0  0  0  0  0
    2.6455   -2.0024    0.0000 C   0  0  0  0  0  0  0  0  0  0  0  0
    3.0187    2.5171    0.0000 C   0  0  0  0  0  0  0  0  0  0  0  0
   -3.5839   -1.8511    0.0000 C   0  0  0  0  0  0  0  0  0  0  0  0
    1.4197   -3.2282    0.0000 C   0  0  0  0  0  0  0  0  0  0  0  0
    1.3441    2.9708    0.0000 C   0  0  0  0  0  0  0  0  0  0  0  0
    2.3885   -2.9708    0.0000 C   0  0  0  0  0  0  0  0  0  0  0  0
    2.3129    3.2282    0.0000 C   0  0  0  0  0  0  0  0  0  0  0  0
  1  2  1  0  0  0  0
  1  3  2  0  0  0  0
  2  4  2  0  0  0  0
  3  5  1  0  0  0  0
  2  6  1  0  0  0  0
  3  7  1  0  0  0  0
  5  8  1  0  0  0  0
  4  8  1  0  0  0  0
  6  9  2  0  0  0  0
  7 10  1  0  0  0  0
  7 11  1  0  0  0  0
  9 12  1  0  0  0  0
  5 13  2  0  0  0  0
 11 14  1  0  0  0  0
 10 15  1  0  0  0  0
  6 16  1  0  0  0  0
 14 17  1  0  0  0  0
 15 17  1  0  0  0  0
  8 18  2  0  0  0  0
  9 19  1  0  0  0  0
 19 24  2  0  0  0  0
 17 20  1  0  0  0  0
 13 21  1  0  0  0  0
 16 22  2  0  0  0  0
 21 23  2  0  0  0  0
 18 23  1  0  0  0  0
 22 24  1  0  0  0  0
M  END
> <IDNUMBER>
K669-0177

> <available>
1

> <H_acceptor>
2

> <H_donor>
0

> <B_rotN>
2

> <N_O>
3

> <logP>
5.094

> <logD>
4.8246

> <logSw>
-5.1663

> <PSA>
21.6385

> <pKa_ma>
21.7195

> <pKa_mb>
7.3342

> <N_Chirals>
0

> <Name>
2-(2-fluorophenyl)-4-(4-methylpiperidin-1-yl)quinazoline

> <Smile>
CC(CC1)CCN1c1nc(-c(cccc2)c2F)nc2ccccc12

> <Color>
ORANGE

> <Collection>
DC

> <InChI>
InChI=1S/C20H20FN3/c1-14-10-12-24(13-11-14)20-16-7-3-5-9-18(16)22-19(23-20)15-6-2-4-8-17(15)21/h2-9,14H,10-13H2,1H3

> <InChI Key>
QLWQYQSKIFKLDI-UHFFFAOYSA-N

> <PERCENTSP3>
30

> <Link>
https://www.chemdiv.com/catalog/screening-compounds/compound-K669-0177/

> <MFCDNUMBER>
MFCD03675268

> <CLNUMBER>
CL2243

> <STEREO>
ACHIRAL

> <State>
Solid

> <Similarity score>
0.21

$$$$
4-[4-(2-fluorophenyl)piperazin-1-yl]-2-(4-methoxyphenyl)quinazoline
  -OEChem-04222410502D

 31 35  0     0  0  0  0  0  0999 V2000
    0.0098   -1.2068    0.0000 N   0  0  0  0  0  0  0  0  0  0  0  0
   -0.8614   -0.7160    0.0000 C   0  0  0  0  0  0  0  0  0  0  0  0
    0.0098   -2.2181    0.0000 C   0  0  0  0  0  0  0  0  0  0  0  0
   -1.7226   -1.2068    0.0000 C   0  0  0  0  0  0  0  0  0  0  0  0
   -0.8614   -2.7090    0.0000 N   0  0  0  0  0  0  0  0  0  0  0  0
   -0.8614    0.2955    0.0000 N   0  0  0  0  0  0  0  0  0  0  0  0
   -0.8514    2.3084    0.0000 N   0  0  0  0  0  0  0  0  0  0  0  0
   -1.7226   -2.2181    0.0000 C   0  0  0  0  0  0  0  0  0  0  0  0
   -0.8514    3.2898    0.0000 C   0  0  0  0  0  0  0  0  0  0  0  0
    0.8611   -2.7090    0.0000 C   0  0  0  0  0  0  0  0  0  0  0  0
    0.0098    0.8063    0.0000 C   0  0  0  0  0  0  0  0  0  0  0  0
   -1.7226    0.8063    0.0000 C   0  0  0  0  0  0  0  0  0  0  0  0
   -1.7226    1.7975    0.0000 C   0  0  0  0  0  0  0  0  0  0  0  0
    0.0098    1.7975    0.0000 C   0  0  0  0  0  0  0  0  0  0  0  0
    0.1102    3.5903    0.0000 C   0  0  0  0  0  0  0  0  0  0  0  0
    0.8611   -3.7203    0.0000 C   0  0  0  0  0  0  0  0  0  0  0  0
    1.7323   -2.2181    0.0000 C   0  0  0  0  0  0  0  0  0  0  0  0
    0.8611    2.8991    0.0000 F   0  0  0  0  0  0  0  0  0  0  0  0
    2.5935   -3.7203    0.0000 C   0  0  0  0  0  0  0  0  0  0  0  0
    1.7223   -4.2112    0.0000 C   0  0  0  0  0  0  0  0  0  0  0  0
    2.6037   -2.7090    0.0000 C   0  0  0  0  0  0  0  0  0  0  0  0
   -2.5935   -0.7160    0.0000 C   0  0  0  0  0  0  0  0  0  0  0  0
    3.4648   -4.2312    0.0000 O   0  0  0  0  0  0  0  0  0  0  0  0
   -2.5935   -2.7090    0.0000 C   0  0  0  0  0  0  0  0  0  0  0  0
   -1.5722    3.9506    0.0000 C   0  0  0  0  0  0  0  0  0  0  0  0
    0.3205    4.5515    0.0000 C   0  0  0  0  0  0  0  0  0  0  0  0
    3.4448   -5.2325    0.0000 C   0  0  0  0  0  0  0  0  0  0  0  0
   -3.4648   -1.2068    0.0000 C   0  0  0  0  0  0  0  0  0  0  0  0
   -3.4648   -2.2181    0.0000 C   0  0  0  0  0  0  0  0  0  0  0  0
   -1.3421    4.9320    0.0000 C   0  0  0  0  0  0  0  0  0  0  0  0
   -0.4008    5.2325    0.0000 C   0  0  0  0  0  0  0  0  0  0  0  0
  1  2  2  0  0  0  0
  1  3  1  0  0  0  0
  2  4  1  0  0  0  0
  3  5  2  0  0  0  0
  2  6  1  0  0  0  0
  7 13  1  0  0  0  0
  7 14  1  0  0  0  0
  5  8  1  0  0  0  0
  4  8  1  0  0  0  0
  7  9  1  0  0  0  0
  3 10  1  0  0  0  0
  6 11  1  0  0  0  0
  6 12  1  0  0  0  0
 12 13  1  0  0  0  0
 11 14  1  0  0  0  0
  9 15  2  0  0  0  0
 10 16  2  0  0  0  0
 10 17  1  0  0  0  0
 15 18  1  0  0  0  0
 19 21  1  0  0  0  0
 19 20  2  0  0  0  0
 16 20  1  0  0  0  0
 17 21  2  0  0  0  0
  4 22  2  0  0  0  0
 19 23  1  0  0  0  0
  8 24  2  0  0  0  0
  9 25  1  0  0  0  0
 15 26  1  0  0  0  0
 26 31  2  0  0  0  0
 23 27  1  0  0  0  0
 22 28  1  0  0  0  0
 24 29  1  0  0  0  0
 28 29  2  0  0  0  0
 25 30  2  0  0  0  0
 30 31  1  0  0  0  0
M  END
> <IDNUMBER>
G516-0035

> <available>
216

> <H_acceptor>
3

> <H_donor>
0

> <B_rotN>
4

> <N_O>
5

> <logP>
6.4283

> <logD>
5.9871

> <logSw>
-6.1757

> <PSA>
32.142

> <pKa_ma>
22.2134

> <pKa_mb>
7.6461

> <N_Chirals>
0

> <Name>
4-[4-(2-fluorophenyl)piperazin-1-yl]-2-(4-methoxyphenyl)quinazoline

> <Smile>
COc(cc1)ccc1-c1nc2ccccc2c(N(CC2)CCN2c(cccc2)c2F)n1

> <Color>
YELLOW

> <Collection>
NC

> <InChI>
InChI=1S/C25H23FN4O/c1-31-19-12-10-18(11-13-19)24-27-22-8-4-2-6-20(22)25(28-24)30-16-14-29(15-17-30)23-9-5-3-7-21(23)26/h2-13H,14-17H2,1H3

> <InChI Key>
BSYVVVYSHHYOHE-UHFFFAOYSA-N

> <PERCENTSP3>
20

> <Link>
https://www.chemdiv.com/catalog/screening-compounds/compound-G516-0035/

> <MFCDNUMBER>
MFCD15014993

> <CLNUMBER>
CL2243

> <STEREO>
ACHIRAL

> <State>
Solid

> <Similarity score>
0.21

$$$$
1-(3,4-dimethylphenyl)-6,8-difluoro-3-(4-fluorophenyl)-1H-pyrazolo[4,3-c]quinoli
  -OEChem-04222410502D

 30 34  0     0  0  0  0  0  0999 V2000
   -0.8194    0.3091    0.0000 N   0  0  0  0  0  0  0  0  0  0  0  0
   -0.1635   -1.1683    0.0000 C   0  0  0  0  0  0  0  0  0  0  0  0
   -1.0314   -0.6690    0.0000 C   0  0  0  0  0  0  0  0  0  0  0  0
    0.1701    0.4151    0.0000 N   0  0  0  0  0  0  0  0  0  0  0  0
    0.5784   -0.4926    0.0000 C   0  0  0  0  0  0  0  0  0  0  0  0
   -1.8881   -1.1725    0.0000 C   0  0  0  0  0  0  0  0  0  0  0  0
   -1.8881   -2.1818    0.0000 C   0  0  0  0  0  0  0  0  0  0  0  0
   -1.0269   -2.6808    0.0000 N   0  0  0  0  0  0  0  0  0  0  0  0
   -1.4861    1.0510    0.0000 C   0  0  0  0  0  0  0  0  0  0  0  0
   -0.1545   -2.1728    0.0000 C   0  0  0  0  0  0  0  0  0  0  0  0
   -2.7671   -2.6874    0.0000 C   0  0  0  0  0  0  0  0  0  0  0  0
   -1.1771    1.9898    0.0000 C   0  0  0  0  0  0  0  0  0  0  0  0
   -3.6350   -2.1818    0.0000 C   0  0  0  0  0  0  0  0  0  0  0  0
    1.5613   -0.7000    0.0000 C   0  0  0  0  0  0  0  0  0  0  0  0
   -2.7671   -0.6735    0.0000 C   0  0  0  0  0  0  0  0  0  0  0  0
   -1.8438    2.7296    0.0000 C   0  0  0  0  0  0  0  0  0  0  0  0
   -3.6305   -1.1725    0.0000 C   0  0  0  0  0  0  0  0  0  0  0  0
   -2.4491    0.8391    0.0000 C   0  0  0  0  0  0  0  0  0  0  0  0
   -2.8110    2.5197    0.0000 C   0  0  0  0  0  0  0  0  0  0  0  0
   -3.1159    1.5702    0.0000 C   0  0  0  0  0  0  0  0  0  0  0  0
    1.8748   -1.6518    0.0000 C   0  0  0  0  0  0  0  0  0  0  0  0
    2.2214    0.0531    0.0000 C   0  0  0  0  0  0  0  0  0  0  0  0
   -2.7671   -3.6811    0.0000 F   0  0  0  0  0  0  0  0  0  0  0  0
    3.5244   -1.0976    0.0000 C   0  0  0  0  0  0  0  0  0  0  0  0
   -4.4982   -0.6735    0.0000 F   0  0  0  0  0  0  0  0  0  0  0  0
    3.1953   -0.1435    0.0000 C   0  0  0  0  0  0  0  0  0  0  0  0
    2.8574   -1.8548    0.0000 C   0  0  0  0  0  0  0  0  0  0  0  0
    4.4982   -1.3050    0.0000 F   0  0  0  0  0  0  0  0  0  0  0  0
   -1.5302    3.6811    0.0000 C   0  0  0  0  0  0  0  0  0  0  0  0
   -3.4780    3.2595    0.0000 C   0  0  0  0  0  0  0  0  0  0  0  0
  2  3  2  0  0  0  0
  2  5  1  0  0  0  0
  1  3  1  0  0  0  0
  1  4  1  0  0  0  0
  4  5  2  0  0  0  0
  3  6  1  0  0  0  0
  6  7  1  0  0  0  0
  7  8  1  0  0  0  0
  1  9  1  0  0  0  0
  2 10  1  0  0  0  0
  8 10  2  0  0  0  0
  7 11  2  0  0  0  0
  9 12  2  0  0  0  0
 13 17  2  0  0  0  0
 11 13  1  0  0  0  0
  5 14  1  0  0  0  0
  6 15  2  0  0  0  0
 12 16  1  0  0  0  0
 16 19  2  0  0  0  0
 15 17  1  0  0  0  0
  9 18  1  0  0  0  0
 19 20  1  0  0  0  0
 18 20  2  0  0  0  0
 14 21  2  0  0  0  0
 14 22  1  0  0  0  0
 11 23  1  0  0  0  0
 24 26  1  0  0  0  0
 17 25  1  0  0  0  0
 22 26  2  0  0  0  0
 21 27  1  0  0  0  0
 24 27  2  0  0  0  0
 24 28  1  0  0  0  0
 16 29  1  0  0  0  0
 19 30  1  0  0  0  0
M  END
> <IDNUMBER>
C350-0426

> <available>
73

> <H_acceptor>
2

> <H_donor>
0

> <B_rotN>
2

> <N_O>
3

> <logP>
6.5833

> <logD>
6.5833

> <logSw>
-5.9041

> <PSA>
23.4803

> <pKa_ma>
28.0078

> <pKa_mb>
2.3765

> <N_Chirals>
0

> <Name>
1-(3,4-dimethylphenyl)-6,8-difluoro-3-(4-fluorophenyl)-1H-pyrazolo[4,3-c]quinoline

> <Smile>
Cc(cc1)c(C)cc1-n(c1c(cc(cc2F)F)c2ncc11)nc1-c(cc1)ccc1F

> <Color>
NOT COLORED

> <Collection>
DC

> <InChI>
InChI=1S/C24H16F3N3/c1-13-3-8-18(9-14(13)2)30-24-19-10-17(26)11-21(27)23(19)28-12-20(24)22(29-30)15-4-6-16(25)7-5-15/h3-12H,1-2H3

> <InChI Key>
LANGNRBUBYUVAX-UHFFFAOYSA-N

> <PERCENTSP3>
8.3

> <Link>
https://www.chemdiv.com/catalog/screening-compounds/compound-C350-0426/

> <MFCDNUMBER>
MFCD14750398

> <CLNUMBER>
CL4130

> <STEREO>
ACHIRAL

> <State>
Solid

> <Similarity score>
0.21

$$$$
4-(3-methoxy-4-propoxyphenyl)-6-(4-methylpiperidin-1-yl)-2-(methylsulfanyl)pyrim
  -OEChem-04222410502D

 29 31  0     0  0  0  0  0  0999 V2000
   -1.7315    0.5084    0.0000 C   0  0  0  0  0  0  0  0  0  0  0  0
   -0.8691   -0.0042    0.0000 C   0  0  0  0  0  0  0  0  0  0  0  0
   -2.5942   -0.0042    0.0000 N   0  0  0  0  0  0  0  0  0  0  0  0
   -0.8691   -1.0044    0.0000 C   0  0  0  0  0  0  0  0  0  0  0  0
   -2.5942   -1.0044    0.0000 C   0  0  0  0  0  0  0  0  0  0  0  0
   -1.7315   -1.5046    0.0000 N   0  0  0  0  0  0  0  0  0  0  0  0
   -1.7315    1.5210    0.0000 N   0  0  0  0  0  0  0  0  0  0  0  0
    0.0063   -1.5046    0.0000 C   0  0  0  0  0  0  0  0  0  0  0  0
    0.0063    0.4958    0.0000 C   0  0  0  0  0  0  0  0  0  0  0  0
    0.8688   -0.0042    0.0000 N   0  0  0  0  0  0  0  0  0  0  0  0
    0.0063   -2.5172    0.0000 C   0  0  0  0  0  0  0  0  0  0  0  0
    0.8688   -3.0173    0.0000 C   0  0  0  0  0  0  0  0  0  0  0  0
    1.7442   -2.5172    0.0000 C   0  0  0  0  0  0  0  0  0  0  0  0
   -0.8691    2.0212    0.0000 C   0  0  0  0  0  0  0  0  0  0  0  0
   -2.5942    2.0087    0.0000 C   0  0  0  0  0  0  0  0  0  0  0  0
    0.8688   -1.0044    0.0000 C   0  0  0  0  0  0  0  0  0  0  0  0
   -3.4693   -1.5046    0.0000 S   0  0  0  0  0  0  0  0  0  0  0  0
    1.7315   -1.5046    0.0000 C   0  0  0  0  0  0  0  0  0  0  0  0
    0.8688   -4.0050    0.0000 O   0  0  0  0  0  0  0  0  0  0  0  0
   -0.8691    3.0214    0.0000 C   0  0  0  0  0  0  0  0  0  0  0  0
   -2.5942    3.0005    0.0000 C   0  0  0  0  0  0  0  0  0  0  0  0
    2.6066   -3.0131    0.0000 O   0  0  0  0  0  0  0  0  0  0  0  0
   -1.7315    3.5214    0.0000 C   0  0  0  0  0  0  0  0  0  0  0  0
   -4.3321   -1.0044    0.0000 C   0  0  0  0  0  0  0  0  0  0  0  0
    3.4693   -2.5047    0.0000 C   0  0  0  0  0  0  0  0  0  0  0  0
    1.7315   -4.5051    0.0000 C   0  0  0  0  0  0  0  0  0  0  0  0
   -1.7484    4.5051    0.0000 C   0  0  0  0  0  0  0  0  0  0  0  0
    3.4693   -1.5046    0.0000 C   0  0  0  0  0  0  0  0  0  0  0  0
    4.3321   -1.0127    0.0000 C   0  0  0  0  0  0  0  0  0  0  0  0
  1  2  1  0  0  0  0
  1  3  2  0  0  0  0
  2  4  2  0  0  0  0
  4  6  1  0  0  0  0
  3  5  1  0  0  0  0
  5  6  2  0  0  0  0
  1  7  1  0  0  0  0
  4  8  1  0  0  0  0
  2  9  1  0  0  0  0
  9 10  3  0  0  0  0
  8 11  2  0  0  0  0
 11 12  1  0  0  0  0
 12 13  2  0  0  0  0
 13 18  1  0  0  0  0
  7 14  1  0  0  0  0
  7 15  1  0  0  0  0
  8 16  1  0  0  0  0
  5 17  1  0  0  0  0
 16 18  2  0  0  0  0
 12 19  1  0  0  0  0
 14 20  1  0  0  0  0
 20 23  1  0  0  0  0
 15 21  1  0  0  0  0
 13 22  1  0  0  0  0
 21 23  1  0  0  0  0
 17 24  1  0  0  0  0
 22 25  1  0  0  0  0
 19 26  1  0  0  0  0
 23 27  1  0  0  0  0
 25 28  1  0  0  0  0
 28 29  1  0  0  0  0
M  END
> <IDNUMBER>
D287-0168

> <available>
179

> <H_acceptor>
6

> <H_donor>
0

> <B_rotN>
8

> <N_O>
6

> <logP>
5.5007

> <logD>
5.5007

> <logSw>
-5.6446

> <PSA>
53.607

> <pKa_ma>
22.4272

> <pKa_mb>
2.0033

> <N_Chirals>
0

> <Name>
4-(3-methoxy-4-propoxyphenyl)-6-(4-methylpiperidin-1-yl)-2-(methylsulfanyl)pyrimidine-5-carbonitrile

> <Smile>
CCCOc(ccc(-c1nc(SC)nc(N2CCC(C)CC2)c1C#N)c1)c1OC

> <Color>
YELLOW

> <Collection>
DC

> <InChI>
InChI=1S/C22H28N4O2S/c1-5-12-28-18-7-6-16(13-19(18)27-3)20-17(14-23)21(25-22(24-20)29-4)26-10-8-15(2)9-11-26/h6-7,13,15H,5,8-12H2,1-4H3

> <InChI Key>
MVOOZPDUOMIHKA-UHFFFAOYSA-N

> <PERCENTSP3>
50

> <Link>
https://www.chemdiv.com/catalog/screening-compounds/compound-D287-0168/

> <MFCDNUMBER>
MFCD08154858

> <CLNUMBER>
CL6864

> <STEREO>
ACHIRAL

> <State>
Solid

> <Similarity score>
0.21

$$$$
N-(3-cyano-4-fluorophenyl)-1-(3-cyano-6-methylquinolin-4-yl)piperidine-4-carboxa
  -OEChem-04222410502D

 31 34  0     0  0  0  0  0  0999 V2000
   -0.8525   -3.7370    0.0000 C   0  0  0  0  0  0  0  0  0  0  0  0
    0.0228   -3.2291    0.0000 C   0  0  0  0  0  0  0  0  0  0  0  0
    0.0228   -2.2333    0.0000 N   0  0  0  0  0  0  0  0  0  0  0  0
    0.8927   -3.7370    0.0000 C   0  0  0  0  0  0  0  0  0  0  0  0
    0.0327    0.7696    0.0000 C   0  0  0  0  0  0  0  0  0  0  0  0
    1.7277    3.7475    0.0000 C   0  0  0  0  0  0  0  0  0  0  0  0
    0.0176   -5.2513    0.0000 N   0  0  0  0  0  0  0  0  0  0  0  0
    0.8927    1.2679    0.0000 N   0  0  0  0  0  0  0  0  0  0  0  0
    1.7579   -3.2442    0.0000 C   0  0  0  0  0  0  0  0  0  0  0  0
    2.6181   -2.7312    0.0000 N   0  0  0  0  0  0  0  0  0  0  0  0
    3.4481    4.7534    0.0000 N   0  0  0  0  0  0  0  0  0  0  0  0
    2.5879    4.2552    0.0000 C   0  0  0  0  0  0  0  0  0  0  0  0
   -0.8525   -4.7482    0.0000 C   0  0  0  0  0  0  0  0  0  0  0  0
   -1.7177   -3.2442    0.0000 C   0  0  0  0  0  0  0  0  0  0  0  0
    0.8927   -4.7482    0.0000 C   0  0  0  0  0  0  0  0  0  0  0  0
    0.8528    4.2454    0.0000 C   0  0  0  0  0  0  0  0  0  0  0  0
    0.0327   -0.2363    0.0000 C   0  0  0  0  0  0  0  0  0  0  0  0
    0.8830    2.2635    0.0000 C   0  0  0  0  0  0  0  0  0  0  0  0
    1.7379    2.7515    0.0000 C   0  0  0  0  0  0  0  0  0  0  0  0
   -0.8427   -1.7301    0.0000 C   0  0  0  0  0  0  0  0  0  0  0  0
    0.8830   -1.7301    0.0000 C   0  0  0  0  0  0  0  0  0  0  0  0
   -0.8374    1.2830    0.0000 O   0  0  0  0  0  0  0  0  0  0  0  0
   -0.8374   -0.7244    0.0000 C   0  0  0  0  0  0  0  0  0  0  0  0
    0.8927   -0.7342    0.0000 C   0  0  0  0  0  0  0  0  0  0  0  0
    0.0025    3.7173    0.0000 C   0  0  0  0  0  0  0  0  0  0  0  0
   -1.7177   -5.2513    0.0000 C   0  0  0  0  0  0  0  0  0  0  0  0
   -2.5879   -3.7424    0.0000 C   0  0  0  0  0  0  0  0  0  0  0  0
    0.0228    2.7315    0.0000 C   0  0  0  0  0  0  0  0  0  0  0  0
    0.8377    5.2513    0.0000 F   0  0  0  0  0  0  0  0  0  0  0  0
   -2.5879   -4.7380    0.0000 C   0  0  0  0  0  0  0  0  0  0  0  0
   -3.4481   -3.2392    0.0000 C   0  0  0  0  0  0  0  0  0  0  0  0
  1  2  1  0  0  0  0
  2  3  1  0  0  0  0
  2  4  2  0  0  0  0
  5 17  1  0  0  0  0
  6 19  1  0  0  0  0
  7 13  1  0  0  0  0
  5  8  1  0  0  0  0
  4  9  1  0  0  0  0
  9 10  3  0  0  0  0
 11 12  3  0  0  0  0
  6 12  1  0  0  0  0
  1 13  1  0  0  0  0
  1 14  2  0  0  0  0
  7 15  2  0  0  0  0
  4 15  1  0  0  0  0
 16 25  1  0  0  0  0
  6 16  2  0  0  0  0
 17 24  1  0  0  0  0
  8 18  1  0  0  0  0
 18 19  2  0  0  0  0
  3 20  1  0  0  0  0
  3 21  1  0  0  0  0
  5 22  2  0  0  0  0
 20 23  1  0  0  0  0
 17 23  1  0  0  0  0
 21 24  1  0  0  0  0
 25 28  2  0  0  0  0
 13 26  2  0  0  0  0
 26 30  1  0  0  0  0
 14 27  1  0  0  0  0
 18 28  1  0  0  0  0
 16 29  1  0  0  0  0
 27 30  2  0  0  0  0
 27 31  1  0  0  0  0
M  END
> <IDNUMBER>
L483-0669

> <available>
56

> <H_acceptor>
5

> <H_donor>
1

> <B_rotN>
6

> <N_O>
6

> <logP>
3.8729

> <logD>
3.8331

> <logSw>
-3.7904

> <PSA>
69.145

> <pKa_ma>
8.4639

> <pKa_mb>
5.3498

> <N_Chirals>
0

> <Name>
N-(3-cyano-4-fluorophenyl)-1-(3-cyano-6-methylquinolin-4-yl)piperidine-4-carboxamide

> <Smile>
Cc(cc12)ccc2ncc(C#N)c1N(CC1)CCC1C(Nc(cc1)cc(C#N)c1F)=O

> <Color>
ORANGE

> <Collection>
NC

> <InChI>
InChI=1S/C24H20FN5O/c1-15-2-5-22-20(10-15)23(18(13-27)14-28-22)30-8-6-16(7-9-30)24(31)29-19-3-4-21(25)17(11-19)12-26/h2-5,10-11,14,16H,6-9H2,1H3,(H,29,31)

> <InChI Key>
DIRABTLXBZEJFV-UHFFFAOYSA-N

> <PERCENTSP3>
25

> <Link>
https://www.chemdiv.com/catalog/screening-compounds/compound-L483-0669/

> <MFCDNUMBER>
MFCD27456594

> <CLNUMBER>
CL6761A

> <STEREO>
ACHIRAL

> <State>
Solid

> <Similarity score>
0.21

$$$$
2-(3,4-dimethoxyphenyl)-7-ethoxy-6-methoxy-4-{4-[3-(trifluoromethyl)phenyl]piper
  -OEChem-04222410502D

 41 45  0     0  0  0  0  0  0999 V2000
    0.0189    1.6586    0.0000 C   0  0  0  0  0  0  0  0  0  0  0  0
    0.9065    2.1755    0.0000 N   0  0  0  0  0  0  0  0  0  0  0  0
   -0.8522    2.1755    0.0000 C   0  0  0  0  0  0  0  0  0  0  0  0
    0.8814    3.1881    0.0000 C   0  0  0  0  0  0  0  0  0  0  0  0
   -0.8522    3.1714    0.0000 C   0  0  0  0  0  0  0  0  0  0  0  0
    0.0021    3.6881    0.0000 N   0  0  0  0  0  0  0  0  0  0  0  0
    0.0189    0.6627    0.0000 N   0  0  0  0  0  0  0  0  0  0  0  0
   -1.6939   -4.3175    0.0000 C   0  0  0  0  0  0  0  0  0  0  0  0
   -1.7232    1.6586    0.0000 C   0  0  0  0  0  0  0  0  0  0  0  0
    0.0314   -1.3336    0.0000 N   0  0  0  0  0  0  0  0  0  0  0  0
   -1.7399    3.6714    0.0000 C   0  0  0  0  0  0  0  0  0  0  0  0
    1.7526    3.6923    0.0000 C   0  0  0  0  0  0  0  0  0  0  0  0
   -0.8313   -3.8133    0.0000 C   0  0  0  0  0  0  0  0  0  0  0  0
   -2.6067    2.1755    0.0000 C   0  0  0  0  0  0  0  0  0  0  0  0
    0.0314   -2.3212    0.0000 C   0  0  0  0  0  0  0  0  0  0  0  0
   -2.6067    3.1714    0.0000 C   0  0  0  0  0  0  0  0  0  0  0  0
   -0.8313   -2.8213    0.0000 C   0  0  0  0  0  0  0  0  0  0  0  0
    2.6069    3.2047    0.0000 C   0  0  0  0  0  0  0  0  0  0  0  0
    3.4694    3.6923    0.0000 C   0  0  0  0  0  0  0  0  0  0  0  0
   -0.8439    0.1624    0.0000 C   0  0  0  0  0  0  0  0  0  0  0  0
    0.8814    0.1750    0.0000 C   0  0  0  0  0  0  0  0  0  0  0  0
   -0.8439   -0.8502    0.0000 C   0  0  0  0  0  0  0  0  0  0  0  0
    0.9065   -0.8209    0.0000 C   0  0  0  0  0  0  0  0  0  0  0  0
    3.4694    4.6967    0.0000 C   0  0  0  0  0  0  0  0  0  0  0  0
    1.7526    4.6841    0.0000 C   0  0  0  0  0  0  0  0  0  0  0  0
   -2.5441   -4.8050    0.0000 F   0  0  0  0  0  0  0  0  0  0  0  0
   -1.1939   -5.1841    0.0000 F   0  0  0  0  0  0  0  0  0  0  0  0
   -2.1817   -3.4507    0.0000 F   0  0  0  0  0  0  0  0  0  0  0  0
    2.6025    5.1675    0.0000 C   0  0  0  0  0  0  0  0  0  0  0  0
   -3.4527    1.6586    0.0000 O   0  0  0  0  0  0  0  0  0  0  0  0
   -3.4527    3.6714    0.0000 O   0  0  0  0  0  0  0  0  0  0  0  0
    4.3570    3.2088    0.0000 O   0  0  0  0  0  0  0  0  0  0  0  0
    4.3321    5.1841    0.0000 O   0  0  0  0  0  0  0  0  0  0  0  0
    0.0563   -4.3175    0.0000 C   0  0  0  0  0  0  0  0  0  0  0  0
    0.9065   -2.8047    0.0000 C   0  0  0  0  0  0  0  0  0  0  0  0
    0.9065   -3.8133    0.0000 C   0  0  0  0  0  0  0  0  0  0  0  0
   -4.3404    3.1714    0.0000 C   0  0  0  0  0  0  0  0  0  0  0  0
    5.2030    3.6923    0.0000 C   0  0  0  0  0  0  0  0  0  0  0  0
   -4.3279    2.1755    0.0000 C   0  0  0  0  0  0  0  0  0  0  0  0
    5.2030    4.7134    0.0000 C   0  0  0  0  0  0  0  0  0  0  0  0
   -5.2030    3.6714    0.0000 C   0  0  0  0  0  0  0  0  0  0  0  0
  1  2  2  0  0  0  0
  1  3  1  0  0  0  0
  2  4  1  0  0  0  0
  4  6  2  0  0  0  0
  3  5  2  0  0  0  0
  5  6  1  0  0  0  0
  1  7  1  0  0  0  0
  8 13  1  0  0  0  0
  3  9  1  0  0  0  0
 10 23  1  0  0  0  0
  5 11  1  0  0  0  0
 11 16  2  0  0  0  0
  4 12  1  0  0  0  0
 13 17  2  0  0  0  0
 13 34  1  0  0  0  0
  9 14  2  0  0  0  0
 10 15  1  0  0  0  0
 14 16  1  0  0  0  0
 15 17  1  0  0  0  0
 12 18  1  0  0  0  0
 18 19  2  0  0  0  0
 19 24  1  0  0  0  0
  7 20  1  0  0  0  0
  7 21  1  0  0  0  0
 20 22  1  0  0  0  0
 10 22  1  0  0  0  0
 21 23  1  0  0  0  0
 24 29  2  0  0  0  0
 12 25  2  0  0  0  0
  8 26  1  0  0  0  0
  8 27  1  0  0  0  0
  8 28  1  0  0  0  0
 25 29  1  0  0  0  0
 14 30  1  0  0  0  0
 16 31  1  0  0  0  0
 19 32  1  0  0  0  0
 24 33  1  0  0  0  0
 34 36  2  0  0  0  0
 15 35  2  0  0  0  0
 35 36  1  0  0  0  0
 31 37  1  0  0  0  0
 32 38  1  0  0  0  0
 30 39  1  0  0  0  0
 33 40  1  0  0  0  0
 37 41  1  0  0  0  0
M  END
> <IDNUMBER>
IB02-2513

> <available>
50

> <H_acceptor>
6

> <H_donor>
0

> <B_rotN>
9

> <N_O>
8

> <logP>
6.53

> <logD>
5.58

> <logSw>
-7.81

> <PSA>
57.38

> <pKa_ma>
14

> <pKa_mb>
8.3

> <N_Chirals>
0

> <Name>
2-(3,4-dimethoxyphenyl)-7-ethoxy-6-methoxy-4-{4-[3-(trifluoromethyl)phenyl]piperazin-1-yl}quinazoline

> <Smile>
CCOc(cc(c1c2)nc(-c(cc3)cc(OC)c3OC)nc1N(CC1)CCN1c1cccc(C(F)(F)F)c1)c2OC

> <Color>
NOT COLORED

> <Collection>
DC

> <InChI>
InChI=1S/C30H31F3N4O4/c1-5-41-27-18-23-22(17-26(27)40-4)29(35-28(34-23)19-9-10-24(38-2)25(15-19)39-3)37-13-11-36(12-14-37)21-8-6-7-20(16-21)30(31,32)33/h6-10,15-18H,5,11-14H2,1-4H3

> <InChI Key>
GRKYKENRTLMKPY-UHFFFAOYSA-N

> <PERCENTSP3>
33.3

> <Link>
https://www.chemdiv.com/catalog/screening-compounds/compound-IB02-2513/

> <STEREO>
ACHIRAL

> <State>
Solid

> <Similarity score>
0.21

$$$$
4-[4-(4-fluorophenyl)piperazin-1-yl]-2-(4-methoxyphenyl)quinazoline
  -OEChem-04222410502D

 31 35  0     0  0  0  0  0  0999 V2000
    0.0097   -1.7367    0.0000 N   0  0  0  0  0  0  0  0  0  0  0  0
   -0.8611   -1.2463    0.0000 C   0  0  0  0  0  0  0  0  0  0  0  0
    0.0097   -2.7479    0.0000 C   0  0  0  0  0  0  0  0  0  0  0  0
   -1.7218   -1.7367    0.0000 C   0  0  0  0  0  0  0  0  0  0  0  0
   -0.8611   -3.2385    0.0000 N   0  0  0  0  0  0  0  0  0  0  0  0
   -0.8611   -0.2351    0.0000 N   0  0  0  0  0  0  0  0  0  0  0  0
   -0.8807    1.7765    0.0000 N   0  0  0  0  0  0  0  0  0  0  0  0
   -1.7218   -2.7479    0.0000 C   0  0  0  0  0  0  0  0  0  0  0  0
    0.8611   -3.2385    0.0000 C   0  0  0  0  0  0  0  0  0  0  0  0
   -0.8807    2.7580    0.0000 C   0  0  0  0  0  0  0  0  0  0  0  0
   -0.0097    0.2751    0.0000 C   0  0  0  0  0  0  0  0  0  0  0  0
   -1.7319    0.2751    0.0000 C   0  0  0  0  0  0  0  0  0  0  0  0
   -0.0097    1.2659    0.0000 C   0  0  0  0  0  0  0  0  0  0  0  0
   -1.7319    1.2659    0.0000 C   0  0  0  0  0  0  0  0  0  0  0  0
    1.7319   -2.7479    0.0000 C   0  0  0  0  0  0  0  0  0  0  0  0
    0.8611   -4.2492    0.0000 C   0  0  0  0  0  0  0  0  0  0  0  0
   -1.7515    3.2385    0.0000 C   0  0  0  0  0  0  0  0  0  0  0  0
   -0.0200    3.2385    0.0000 C   0  0  0  0  0  0  0  0  0  0  0  0
   -0.8908    4.7398    0.0000 C   0  0  0  0  0  0  0  0  0  0  0  0
    2.5926   -4.2492    0.0000 C   0  0  0  0  0  0  0  0  0  0  0  0
   -0.0400    4.2593    0.0000 C   0  0  0  0  0  0  0  0  0  0  0  0
   -1.7515    4.2593    0.0000 C   0  0  0  0  0  0  0  0  0  0  0  0
    2.6027   -3.2385    0.0000 C   0  0  0  0  0  0  0  0  0  0  0  0
    1.7218   -4.7401    0.0000 C   0  0  0  0  0  0  0  0  0  0  0  0
   -2.5926   -1.2463    0.0000 C   0  0  0  0  0  0  0  0  0  0  0  0
   -0.8908    5.7609    0.0000 F   0  0  0  0  0  0  0  0  0  0  0  0
    3.4634   -4.7597    0.0000 O   0  0  0  0  0  0  0  0  0  0  0  0
   -2.5926   -3.2385    0.0000 C   0  0  0  0  0  0  0  0  0  0  0  0
    3.4437   -5.7609    0.0000 C   0  0  0  0  0  0  0  0  0  0  0  0
   -3.4634   -1.7367    0.0000 C   0  0  0  0  0  0  0  0  0  0  0  0
   -3.4634   -2.7479    0.0000 C   0  0  0  0  0  0  0  0  0  0  0  0
  1  2  2  0  0  0  0
  1  3  1  0  0  0  0
  2  4  1  0  0  0  0
  3  5  2  0  0  0  0
  2  6  1  0  0  0  0
  7 14  1  0  0  0  0
  7 13  1  0  0  0  0
  5  8  1  0  0  0  0
  4  8  1  0  0  0  0
  3  9  1  0  0  0  0
  7 10  1  0  0  0  0
  6 11  1  0  0  0  0
  6 12  1  0  0  0  0
 11 13  1  0  0  0  0
 12 14  1  0  0  0  0
  9 15  1  0  0  0  0
  9 16  2  0  0  0  0
 10 17  2  0  0  0  0
 10 18  1  0  0  0  0
 19 21  1  0  0  0  0
 19 22  2  0  0  0  0
 20 24  2  0  0  0  0
 18 21  2  0  0  0  0
 17 22  1  0  0  0  0
 15 23  2  0  0  0  0
 20 23  1  0  0  0  0
 16 24  1  0  0  0  0
  4 25  2  0  0  0  0
 19 26  1  0  0  0  0
 20 27  1  0  0  0  0
  8 28  2  0  0  0  0
 27 29  1  0  0  0  0
 25 30  1  0  0  0  0
 28 31  1  0  0  0  0
 30 31  2  0  0  0  0
M  END
> <IDNUMBER>
G516-0073

> <available>
95

> <H_acceptor>
3

> <H_donor>
0

> <B_rotN>
4

> <N_O>
5

> <logP>
6.4004

> <logD>
5.9592

> <logSw>
-6.1865

> <PSA>
32.443

> <pKa_ma>
22.2134

> <pKa_mb>
7.6461

> <N_Chirals>
0

> <Name>
4-[4-(4-fluorophenyl)piperazin-1-yl]-2-(4-methoxyphenyl)quinazoline

> <Smile>
COc(cc1)ccc1-c1nc2ccccc2c(N(CC2)CCN2c(cc2)ccc2F)n1

> <Color>
YELLOW

> <Collection>
NC

> <InChI>
InChI=1S/C25H23FN4O/c1-31-21-12-6-18(7-13-21)24-27-23-5-3-2-4-22(23)25(28-24)30-16-14-29(15-17-30)20-10-8-19(26)9-11-20/h2-13H,14-17H2,1H3

> <InChI Key>
DEIYRUOEGMADCH-UHFFFAOYSA-N

> <PERCENTSP3>
20

> <Link>
https://www.chemdiv.com/catalog/screening-compounds/compound-G516-0073/

> <MFCDNUMBER>
MFCD15015016

> <CLNUMBER>
CL2243

> <STEREO>
ACHIRAL

> <State>
Solid

> <Similarity score>
0.21

$$$$
2-(4-chlorophenyl)-4-(piperidin-1-yl)[1]benzofuro[3,2-d]pyrimidine
  -OEChem-04222410502D

 26 30  0     0  0  0  0  0  0999 V2000
   -0.1369   -2.0507    0.0000 C   0  0  0  0  0  0  0  0  0  0  0  0
    0.7298   -1.5542    0.0000 C   0  0  0  0  0  0  0  0  0  0  0  0
   -1.0006   -1.5542    0.0000 C   0  0  0  0  0  0  0  0  0  0  0  0
    0.7298   -0.5521    0.0000 N   0  0  0  0  0  0  0  0  0  0  0  0
   -1.0006   -0.5521    0.0000 N   0  0  0  0  0  0  0  0  0  0  0  0
   -0.3445   -3.0317    0.0000 O   0  0  0  0  0  0  0  0  0  0  0  0
   -0.1369   -0.0527    0.0000 C   0  0  0  0  0  0  0  0  0  0  0  0
   -1.7438   -2.2222    0.0000 C   0  0  0  0  0  0  0  0  0  0  0  0
   -1.3375   -3.1340    0.0000 C   0  0  0  0  0  0  0  0  0  0  0  0
    1.5963   -2.0507    0.0000 N   0  0  0  0  0  0  0  0  0  0  0  0
   -0.1369    0.9464    0.0000 C   0  0  0  0  0  0  0  0  0  0  0  0
   -1.0006    1.4458    0.0000 C   0  0  0  0  0  0  0  0  0  0  0  0
    0.7298    1.4458    0.0000 C   0  0  0  0  0  0  0  0  0  0  0  0
   -0.1369    2.9444    0.0000 C   0  0  0  0  0  0  0  0  0  0  0  0
    0.7298    2.4450    0.0000 C   0  0  0  0  0  0  0  0  0  0  0  0
   -1.0006    2.4450    0.0000 C   0  0  0  0  0  0  0  0  0  0  0  0
   -0.1369    3.9465    0.0000 Cl  0  0  0  0  0  0  0  0  0  0  0  0
   -2.7429   -2.1200    0.0000 C   0  0  0  0  0  0  0  0  0  0  0  0
    2.4631   -1.5542    0.0000 C   0  0  0  0  0  0  0  0  0  0  0  0
    1.5963   -3.0527    0.0000 C   0  0  0  0  0  0  0  0  0  0  0  0
   -1.9304   -3.9465    0.0000 C   0  0  0  0  0  0  0  0  0  0  0  0
   -3.3297   -2.9264    0.0000 C   0  0  0  0  0  0  0  0  0  0  0  0
    3.3297   -2.0507    0.0000 C   0  0  0  0  0  0  0  0  0  0  0  0
    2.4631   -3.5554    0.0000 C   0  0  0  0  0  0  0  0  0  0  0  0
   -2.9235   -3.8381    0.0000 C   0  0  0  0  0  0  0  0  0  0  0  0
    3.3297   -3.0527    0.0000 C   0  0  0  0  0  0  0  0  0  0  0  0
  1  2  1  0  0  0  0
  1  3  2  0  0  0  0
  2  4  2  0  0  0  0
  4  7  1  0  0  0  0
  3  5  1  0  0  0  0
  1  6  1  0  0  0  0
  5  7  2  0  0  0  0
  3  8  1  0  0  0  0
  6  9  1  0  0  0  0
  8  9  2  0  0  0  0
  2 10  1  0  0  0  0
  7 11  1  0  0  0  0
 11 12  1  0  0  0  0
 11 13  2  0  0  0  0
 14 15  2  0  0  0  0
 13 15  1  0  0  0  0
 12 16  2  0  0  0  0
 14 16  1  0  0  0  0
 14 17  1  0  0  0  0
  8 18  1  0  0  0  0
 10 19  1  0  0  0  0
 10 20  1  0  0  0  0
  9 21  1  0  0  0  0
 18 22  2  0  0  0  0
 19 23  1  0  0  0  0
 20 24  1  0  0  0  0
 21 25  2  0  0  0  0
 22 25  1  0  0  0  0
 24 26  1  0  0  0  0
 23 26  1  0  0  0  0
M  END
> <IDNUMBER>
4237-0557

> <available>
74

> <H_acceptor>
3

> <H_donor>
0

> <B_rotN>
2

> <N_O>
4

> <logP>
6.826

> <logD>
6.6055

> <logSw>
-6.7996

> <PSA>
30.8283

> <pKa_ma>
22.8374

> <pKa_mb>
7.2207

> <N_Chirals>
0

> <Name>
2-(4-chlorophenyl)-4-(piperidin-1-yl)[1]benzofuro[3,2-d]pyrimidine

> <Smile>
Clc(cc1)ccc1-c1nc(N2CCCCC2)c2oc(cccc3)c3c2n1

> <Color>
ORANGE

> <Collection>
DC

> <InChI>
InChI=1S/C21H18ClN3O/c22-15-10-8-14(9-11-15)20-23-18-16-6-2-3-7-17(16)26-19(18)21(24-20)25-12-4-1-5-13-25/h2-3,6-11H,1,4-5,12-13H2

> <InChI Key>
WQDHJJIGUHPVNY-UHFFFAOYSA-N

> <PERCENTSP3>
23.8

> <Link>
https://www.chemdiv.com/catalog/screening-compounds/compound-4237-0557/

> <MFCDNUMBER>
MFCD01872129

> <CLNUMBER>
CL1503

> <STEREO>
ACHIRAL

> <State>
Solid

> <Similarity score>
0.21

$$$$
4-amino-2-(3,4-dichlorophenyl)-6-(diethylamino)pyridine-3,5-dicarbonitrile
  -OEChem-04222410502D

 24 25  0     0  0  0  0  0  0999 V2000
    1.3150    0.7648    0.0000 C   0  0  0  0  0  0  0  0  0  0  0  0
   -0.4064    0.7648    0.0000 C   0  0  0  0  0  0  0  0  0  0  0  0
    1.3150   -0.2314    0.0000 C   0  0  0  0  0  0  0  0  0  0  0  0
    0.4564   -0.7273    0.0000 N   0  0  0  0  0  0  0  0  0  0  0  0
   -0.4064   -0.2314    0.0000 C   0  0  0  0  0  0  0  0  0  0  0  0
    0.4564    1.2608    0.0000 C   0  0  0  0  0  0  0  0  0  0  0  0
   -1.2690   -0.7273    0.0000 C   0  0  0  0  0  0  0  0  0  0  0  0
    2.1777    1.2608    0.0000 C   0  0  0  0  0  0  0  0  0  0  0  0
   -1.2690    1.2608    0.0000 C   0  0  0  0  0  0  0  0  0  0  0  0
   -2.1319    0.7648    0.0000 N   0  0  0  0  0  0  0  0  0  0  0  0
    3.0405    0.7648    0.0000 N   0  0  0  0  0  0  0  0  0  0  0  0
   -2.1319   -0.2314    0.0000 C   0  0  0  0  0  0  0  0  0  0  0  0
   -2.9989   -0.6939    0.0000 C   0  0  0  0  0  0  0  0  0  0  0  0
    2.1777   -0.7273    0.0000 N   0  0  0  0  0  0  0  0  0  0  0  0
   -2.9989   -1.7359    0.0000 C   0  0  0  0  0  0  0  0  0  0  0  0
   -1.2690   -1.7234    0.0000 C   0  0  0  0  0  0  0  0  0  0  0  0
    0.4564    2.2568    0.0000 N   0  0  0  0  0  0  0  0  0  0  0  0
   -2.1319   -2.2195    0.0000 C   0  0  0  0  0  0  0  0  0  0  0  0
   -3.9033   -0.1771    0.0000 Cl  0  0  0  0  0  0  0  0  0  0  0  0
   -3.8991   -2.2568    0.0000 Cl  0  0  0  0  0  0  0  0  0  0  0  0
    2.1777   -1.7234    0.0000 C   0  0  0  0  0  0  0  0  0  0  0  0
    3.0405   -0.2314    0.0000 C   0  0  0  0  0  0  0  0  0  0  0  0
    3.0405   -2.2195    0.0000 C   0  0  0  0  0  0  0  0  0  0  0  0
    3.9033   -0.7273    0.0000 C   0  0  0  0  0  0  0  0  0  0  0  0
  2  6  2  0  0  0  0
  1  3  2  0  0  0  0
  3  4  1  0  0  0  0
  4  5  2  0  0  0  0
  2  5  1  0  0  0  0
  1  6  1  0  0  0  0
  5  7  1  0  0  0  0
  1  8  1  0  0  0  0
  2  9  1  0  0  0  0
  9 10  3  0  0  0  0
  8 11  3  0  0  0  0
  7 12  2  0  0  0  0
 12 13  1  0  0  0  0
  3 14  1  0  0  0  0
 13 15  2  0  0  0  0
 15 18  1  0  0  0  0
  7 16  1  0  0  0  0
  6 17  1  0  0  0  0
 16 18  2  0  0  0  0
 13 19  1  0  0  0  0
 15 20  1  0  0  0  0
 14 21  1  0  0  0  0
 14 22  1  0  0  0  0
 21 23  1  0  0  0  0
 22 24  1  0  0  0  0
M  END
> <IDNUMBER>
8020-7829

> <available>
8

> <H_acceptor>
3

> <H_donor>
2

> <B_rotN>
6

> <N_O>
5

> <logP>
4.5006

> <logD>
4.5005

> <logSw>
-4.9199

> <PSA>
65.521

> <pKa_ma>
16.0033

> <pKa_mb>
3.7815

> <N_Chirals>
0

> <Name>
4-amino-2-(3,4-dichlorophenyl)-6-(diethylamino)pyridine-3,5-dicarbonitrile

> <Smile>
CCN(CC)c(nc(-c(cc1)cc(Cl)c1Cl)c(C#N)c1N)c1C#N

> <Color>
NOT COLORED

> <Collection>
DC

> <InChI>
InChI=1S/C17H15Cl2N5/c1-3-24(4-2)17-12(9-21)15(22)11(8-20)16(23-17)10-5-6-13(18)14(19)7-10/h5-7H,3-4H2,1-2H3,(H2,22,23)

> <InChI Key>
MIIYVXJNTLTMJH-UHFFFAOYSA-N

> <PERCENTSP3>
23.53

> <Link>
https://www.chemdiv.com/catalog/screening-compounds/compound-8020-7829/

> <MFCDNUMBER>
MFCD31943786

> <STEREO>
ACHIRAL

> <State>
Solid

> <Similarity score>
0.21

$$$$
6-ethoxy-4-(4-methylpiperidin-1-yl)quinoline-3-carbonitrile
  -OEChem-04222410502D

 22 24  0     0  0  0  0  0  0999 V2000
    0.0278   -1.4922    0.0000 C   0  0  0  0  0  0  0  0  0  0  0  0
   -0.8357   -0.9923    0.0000 C   0  0  0  0  0  0  0  0  0  0  0  0
   -0.8408    0.0076    0.0000 N   0  0  0  0  0  0  0  0  0  0  0  0
   -1.7043   -1.5074    0.0000 C   0  0  0  0  0  0  0  0  0  0  0  0
   -0.8257   -3.0072    0.0000 N   0  0  0  0  0  0  0  0  0  0  0  0
   -2.5678   -1.0075    0.0000 C   0  0  0  0  0  0  0  0  0  0  0  0
   -3.4465   -0.5176    0.0000 N   0  0  0  0  0  0  0  0  0  0  0  0
    0.0278   -2.4921    0.0000 C   0  0  0  0  0  0  0  0  0  0  0  0
    0.8863   -0.9923    0.0000 C   0  0  0  0  0  0  0  0  0  0  0  0
   -1.6992   -2.5073    0.0000 C   0  0  0  0  0  0  0  0  0  0  0  0
   -1.7195    0.4923    0.0000 C   0  0  0  0  0  0  0  0  0  0  0  0
    0.0228    0.5075    0.0000 C   0  0  0  0  0  0  0  0  0  0  0  0
    0.9015   -2.9768    0.0000 C   0  0  0  0  0  0  0  0  0  0  0  0
    1.7499   -1.4770    0.0000 C   0  0  0  0  0  0  0  0  0  0  0  0
    1.7650   -2.4770    0.0000 C   0  0  0  0  0  0  0  0  0  0  0  0
   -1.7195    1.4973    0.0000 C   0  0  0  0  0  0  0  0  0  0  0  0
    0.0076    1.5074    0.0000 C   0  0  0  0  0  0  0  0  0  0  0  0
   -0.8559    2.0073    0.0000 C   0  0  0  0  0  0  0  0  0  0  0  0
    2.6032   -0.9620    0.0000 O   0  0  0  0  0  0  0  0  0  0  0  0
    2.5881    0.0379    0.0000 C   0  0  0  0  0  0  0  0  0  0  0  0
   -0.8559    3.0072    0.0000 C   0  0  0  0  0  0  0  0  0  0  0  0
    3.4465    0.5529    0.0000 C   0  0  0  0  0  0  0  0  0  0  0  0
  1  2  1  0  0  0  0
  2  3  1  0  0  0  0
  2  4  2  0  0  0  0
  5  8  1  0  0  0  0
  4  6  1  0  0  0  0
  6  7  3  0  0  0  0
  1  8  1  0  0  0  0
  1  9  2  0  0  0  0
  5 10  2  0  0  0  0
  4 10  1  0  0  0  0
  3 11  1  0  0  0  0
  3 12  1  0  0  0  0
  8 13  2  0  0  0  0
 13 15  1  0  0  0  0
  9 14  1  0  0  0  0
 14 15  2  0  0  0  0
 11 16  1  0  0  0  0
 16 18  1  0  0  0  0
 12 17  1  0  0  0  0
 17 18  1  0  0  0  0
 14 19  1  0  0  0  0
 19 20  1  0  0  0  0
 18 21  1  0  0  0  0
 20 22  1  0  0  0  0
M  END
> <IDNUMBER>
F360-0969

> <available>
58

> <H_acceptor>
3

> <H_donor>
0

> <B_rotN>
4

> <N_O>
4

> <logP>
3.913

> <logD>
3.8844

> <logSw>
-3.8897

> <PSA>
36.121

> <pKa_ma>
25.4155

> <pKa_mb>
6.2336

> <N_Chirals>
0

> <Name>
6-ethoxy-4-(4-methylpiperidin-1-yl)quinoline-3-carbonitrile

> <Smile>
CCOc(ccc1ncc2C#N)cc1c2N1CCC(C)CC1

> <Color>
NOT COLORED

> <Collection>
NC

> <InChI>
InChI=1S/C18H21N3O/c1-3-22-15-4-5-17-16(10-15)18(14(11-19)12-20-17)21-8-6-13(2)7-9-21/h4-5,10,12-13H,3,6-9H2,1-2H3

> <InChI Key>
SRRPIRUMBZEWSL-UHFFFAOYSA-N

> <PERCENTSP3>
44.4

> <Link>
https://www.chemdiv.com/catalog/screening-compounds/compound-F360-0969/

> <MFCDNUMBER>
MFCD11995798

> <CLNUMBER>
CL6761

> <STEREO>
ACHIRAL

> <State>
Solid

> <Similarity score>
0.21

$$$$
4-(2,6-dimethylmorpholin-4-yl)-2-(4-nitrophenyl)quinazoline
  -OEChem-04222410502D

 27 30  0     0  0  0  0  0  0999 V2000
   -1.3229    0.7686    0.0000 C   0  0  0  0  0  0  0  0  0  0  0  0
   -0.4642    0.2747    0.0000 N   0  0  0  0  0  0  0  0  0  0  0  0
   -1.3229    1.7661    0.0000 N   0  0  0  0  0  0  0  0  0  0  0  0
   -0.4364   -0.7274    0.0000 C   0  0  0  0  0  0  0  0  0  0  0  0
    3.0545   -2.7222    0.0000 N   0  3  0  0  0  0  0  0  0  0  0  0
   -2.1819    0.2563    0.0000 C   0  0  0  0  0  0  0  0  0  0  0  0
   -1.3229   -1.2538    0.0000 N   0  0  0  0  0  0  0  0  0  0  0  0
   -2.1819   -0.7274    0.0000 C   0  0  0  0  0  0  0  0  0  0  0  0
    2.1771   -2.2188    0.0000 C   0  0  0  0  0  0  0  0  0  0  0  0
   -0.4642    2.2510    0.0000 C   0  0  0  0  0  0  0  0  0  0  0  0
   -2.1819    2.2510    0.0000 C   0  0  0  0  0  0  0  0  0  0  0  0
   -1.3229    3.7333    0.0000 O   0  0  0  0  0  0  0  0  0  0  0  0
    0.4226   -1.2261    0.0000 C   0  0  0  0  0  0  0  0  0  0  0  0
    3.0777   -3.7333    0.0000 O   0  5  0  0  0  0  0  0  0  0  0  0
    3.9273   -2.2049    0.0000 O   0  0  0  0  0  0  0  0  0  0  0  0
   -2.1819    3.2346    0.0000 C   0  0  3  0  0  0  0  0  0  0  0  0
   -0.4642    3.2346    0.0000 C   0  0  3  0  0  0  0  0  0  0  0  0
    2.1543   -1.2214    0.0000 C   0  0  0  0  0  0  0  0  0  0  0  0
    1.3045   -2.7222    0.0000 C   0  0  0  0  0  0  0  0  0  0  0  0
    1.2675   -0.7227    0.0000 C   0  0  0  0  0  0  0  0  0  0  0  0
    0.4226   -2.2372    0.0000 C   0  0  0  0  0  0  0  0  0  0  0  0
   -3.0685    0.7549    0.0000 C   0  0  0  0  0  0  0  0  0  0  0  0
   -3.0685   -1.2538    0.0000 C   0  0  0  0  0  0  0  0  0  0  0  0
    0.3809    3.7333    0.0000 C   0  0  0  0  0  0  0  0  0  0  0  0
   -3.0407    3.7333    0.0000 C   0  0  0  0  0  0  0  0  0  0  0  0
   -3.9273    0.2563    0.0000 C   0  0  0  0  0  0  0  0  0  0  0  0
   -3.9273   -0.7274    0.0000 C   0  0  0  0  0  0  0  0  0  0  0  0
  1  2  2  0  0  0  0
  1  3  1  0  0  0  0
  2  4  1  0  0  0  0
  5  9  1  0  0  0  0
  1  6  1  0  0  0  0
  7  8  1  0  0  0  0
  4  7  2  0  0  0  0
  6  8  1  0  0  0  0
  9 19  2  0  0  0  0
  9 18  1  0  0  0  0
  3 10  1  0  0  0  0
  3 11  1  0  0  0  0
 12 16  1  0  0  0  0
  4 13  1  0  0  0  0
  5 14  1  0  0  0  0
  5 15  2  0  0  0  0
 11 16  1  0  0  0  0
 10 17  1  0  0  0  0
 12 17  1  0  0  0  0
 18 20  2  0  0  0  0
 19 21  1  0  0  0  0
 13 20  1  0  0  0  0
 13 21  2  0  0  0  0
  6 22  2  0  0  0  0
  8 23  2  0  0  0  0
 17 24  1  0  0  0  0
 16 25  1  0  0  0  0
 22 26  1  0  0  0  0
 26 27  2  0  0  0  0
 23 27  1  0  0  0  0
M  CHG  2   5   1  14  -1
M  END
> <IDNUMBER>
4358-4653

> <available>
1

> <H_acceptor>
7

> <H_donor>
0

> <B_rotN>
3

> <N_O>
7

> <logP>
4.6803

> <logD>
4.0959

> <logSw>
-4.5853

> <PSA>
61.952

> <pKa_ma>
23.0256

> <pKa_mb>
7.8534

> <N_Chirals>
2

> <Name>
4-(2,6-dimethylmorpholin-4-yl)-2-(4-nitrophenyl)quinazoline

> <Smile>
CC(C1)OC(C)CN1c1nc(-c(cc2)ccc2[N+]([O-])=O)nc2ccccc12

> <Color>
YELLOW

> <Collection>
NC

> <InChI>
InChI=1S/C20H20N4O3/c1-13-11-23(12-14(2)27-13)20-17-5-3-4-6-18(17)21-19(22-20)15-7-9-16(10-8-15)24(25)26/h3-10,13-14H,11-12H2,1-2H3

> <InChI Key>
MQCJWTDNHBARFK-UHFFFAOYSA-N

> <PERCENTSP3>
30

> <Link>
https://www.chemdiv.com/catalog/screening-compounds/compound-4358-4653/

> <MFCDNUMBER>
MFCD03293730

> <CLNUMBER>
CL2243

> <STEREO>
MIXTURE OF STEREOISOMERS

> <State>
Solid

> <Similarity score>
0.21

$$$$
6,8-difluoro-1,3-diphenyl-1H-pyrazolo[4,3-c]quinoline
  -OEChem-04222410502D

 27 31  0     0  0  0  0  0  0999 V2000
   -0.3338    0.7848    0.0000 N   0  0  0  0  0  0  0  0  0  0  0  0
    0.3170   -0.6877    0.0000 C   0  0  0  0  0  0  0  0  0  0  0  0
   -0.5462   -0.1892    0.0000 C   0  0  0  0  0  0  0  0  0  0  0  0
    0.6509    0.8911    0.0000 N   0  0  0  0  0  0  0  0  0  0  0  0
    1.0587   -0.0229    0.0000 C   0  0  0  0  0  0  0  0  0  0  0  0
   -1.4079   -0.7031    0.0000 C   0  0  0  0  0  0  0  0  0  0  0  0
   -1.4079   -1.7033    0.0000 C   0  0  0  0  0  0  0  0  0  0  0  0
   -0.5355   -2.2018    0.0000 N   0  0  0  0  0  0  0  0  0  0  0  0
    0.3325   -1.7033    0.0000 C   0  0  0  0  0  0  0  0  0  0  0  0
   -2.2758   -2.2127    0.0000 C   0  0  0  0  0  0  0  0  0  0  0  0
   -3.1482   -1.7125    0.0000 C   0  0  0  0  0  0  0  0  0  0  0  0
   -1.0002    1.5264    0.0000 C   0  0  0  0  0  0  0  0  0  0  0  0
   -2.2758   -0.1984    0.0000 C   0  0  0  0  0  0  0  0  0  0  0  0
   -3.1482   -0.7031    0.0000 C   0  0  0  0  0  0  0  0  0  0  0  0
    2.0435   -0.2200    0.0000 C   0  0  0  0  0  0  0  0  0  0  0  0
   -2.2866   -3.2021    0.0000 F   0  0  0  0  0  0  0  0  0  0  0  0
   -4.0115   -0.2047    0.0000 F   0  0  0  0  0  0  0  0  0  0  0  0
   -0.6970    2.4651    0.0000 C   0  0  0  0  0  0  0  0  0  0  0  0
   -1.9680    1.3140    0.0000 C   0  0  0  0  0  0  0  0  0  0  0  0
    2.3603   -1.1724    0.0000 C   0  0  0  0  0  0  0  0  0  0  0  0
    2.7096    0.5278    0.0000 C   0  0  0  0  0  0  0  0  0  0  0  0
    3.6883    0.3308    0.0000 C   0  0  0  0  0  0  0  0  0  0  0  0
   -1.3525    3.2021    0.0000 C   0  0  0  0  0  0  0  0  0  0  0  0
   -2.6327    2.0513    0.0000 C   0  0  0  0  0  0  0  0  0  0  0  0
    3.3453   -1.3801    0.0000 C   0  0  0  0  0  0  0  0  0  0  0  0
   -2.3312    2.9943    0.0000 C   0  0  0  0  0  0  0  0  0  0  0  0
    4.0115   -0.6277    0.0000 C   0  0  0  0  0  0  0  0  0  0  0  0
  2  3  2  0  0  0  0
  2  5  1  0  0  0  0
  1  3  1  0  0  0  0
  1  4  1  0  0  0  0
  4  5  2  0  0  0  0
  3  6  1  0  0  0  0
  6  7  1  0  0  0  0
  7  8  1  0  0  0  0
  2  9  1  0  0  0  0
  8  9  2  0  0  0  0
  7 10  2  0  0  0  0
 11 14  2  0  0  0  0
 10 11  1  0  0  0  0
  1 12  1  0  0  0  0
  6 13  2  0  0  0  0
 13 14  1  0  0  0  0
  5 15  1  0  0  0  0
 10 16  1  0  0  0  0
 14 17  1  0  0  0  0
 12 18  2  0  0  0  0
 12 19  1  0  0  0  0
 15 20  2  0  0  0  0
 15 21  1  0  0  0  0
 21 22  2  0  0  0  0
 18 23  1  0  0  0  0
 23 26  2  0  0  0  0
 19 24  2  0  0  0  0
 20 25  1  0  0  0  0
 25 27  2  0  0  0  0
 24 26  1  0  0  0  0
 22 27  1  0  0  0  0
M  END
> <IDNUMBER>
C350-0099

> <available>
40

> <H_acceptor>
2

> <H_donor>
0

> <B_rotN>
2

> <N_O>
3

> <logP>
5.2001

> <logD>
5.2001

> <logSw>
-5.5426

> <PSA>
23.4803

> <pKa_ma>
14

> <pKa_mb>
2.2647

> <N_Chirals>
0

> <Name>
6,8-difluoro-1,3-diphenyl-1H-pyrazolo[4,3-c]quinoline

> <Smile>
Fc(cc(c1ncc23)F)cc1c3n(-c1ccccc1)nc2-c1ccccc1

> <Color>
NOT COLORED

> <Collection>
DC

> <InChI>
InChI=1S/C22H13F2N3/c23-15-11-17-21(19(24)12-15)25-13-18-20(14-7-3-1-4-8-14)26-27(22(17)18)16-9-5-2-6-10-16/h1-13H

> <InChI Key>
MJMLASBHGHYTLB-UHFFFAOYSA-N

> <PERCENTSP3>
0

> <Link>
https://www.chemdiv.com/catalog/screening-compounds/compound-C350-0099/

> <MFCDNUMBER>
MFCD14750126

> <CLNUMBER>
CL4130

> <STEREO>
ACHIRAL

> <State>
Solid

> <Similarity score>
0.21

$$$$
1-(3-cyano-6-fluoroquinolin-4-yl)-N-(4-ethoxyphenyl)piperidine-4-carboxamide
  -OEChem-04222410502D

 31 34  0     0  0  0  0  0  0999 V2000
   -0.4368   -4.4872    0.0000 C   0  0  0  0  0  0  0  0  0  0  0  0
    0.4316   -3.9775    0.0000 C   0  0  0  0  0  0  0  0  0  0  0  0
    0.4316   -2.9781    0.0000 N   0  0  0  0  0  0  0  0  0  0  0  0
    1.3097   -4.4872    0.0000 C   0  0  0  0  0  0  0  0  0  0  0  0
    0.4415    0.0202    0.0000 C   0  0  0  0  0  0  0  0  0  0  0  0
    0.4263   -5.9917    0.0000 N   0  0  0  0  0  0  0  0  0  0  0  0
    2.1729   -3.9927    0.0000 C   0  0  0  0  0  0  0  0  0  0  0  0
    3.0361   -3.4778    0.0000 N   0  0  0  0  0  0  0  0  0  0  0  0
    1.3097    0.5100    0.0000 N   0  0  0  0  0  0  0  0  0  0  0  0
   -0.4468   -5.4919    0.0000 C   0  0  0  0  0  0  0  0  0  0  0  0
   -1.3099   -3.9877    0.0000 C   0  0  0  0  0  0  0  0  0  0  0  0
    1.3097   -5.4919    0.0000 C   0  0  0  0  0  0  0  0  0  0  0  0
    0.4415   -0.9791    0.0000 C   0  0  0  0  0  0  0  0  0  0  0  0
   -0.4318   -2.4785    0.0000 C   0  0  0  0  0  0  0  0  0  0  0  0
    1.3047   -2.4785    0.0000 C   0  0  0  0  0  0  0  0  0  0  0  0
   -0.4217    0.5202    0.0000 O   0  0  0  0  0  0  0  0  0  0  0  0
   -0.4318   -1.4788    0.0000 C   0  0  0  0  0  0  0  0  0  0  0  0
    1.3097   -1.4889    0.0000 C   0  0  0  0  0  0  0  0  0  0  0  0
    1.2948    1.5043    0.0000 C   0  0  0  0  0  0  0  0  0  0  0  0
   -1.3099   -5.9917    0.0000 C   0  0  0  0  0  0  0  0  0  0  0  0
   -2.1729   -4.4923    0.0000 C   0  0  0  0  0  0  0  0  0  0  0  0
    1.2644    3.4879    0.0000 C   0  0  0  0  0  0  0  0  0  0  0  0
   -2.1729   -5.4919    0.0000 C   0  0  0  0  0  0  0  0  0  0  0  0
   -3.0361   -3.9927    0.0000 F   0  0  0  0  0  0  0  0  0  0  0  0
    2.1529    2.0040    0.0000 C   0  0  0  0  0  0  0  0  0  0  0  0
    0.4316    1.9788    0.0000 C   0  0  0  0  0  0  0  0  0  0  0  0
    0.4164    2.9734    0.0000 C   0  0  0  0  0  0  0  0  0  0  0  0
    2.1428    2.9934    0.0000 C   0  0  0  0  0  0  0  0  0  0  0  0
    1.2495    4.4874    0.0000 O   0  0  0  0  0  0  0  0  0  0  0  0
    1.2339    5.4867    0.0000 C   0  0  0  0  0  0  0  0  0  0  0  0
    2.0922    5.9917    0.0000 C   0  0  0  0  0  0  0  0  0  0  0  0
  1  2  1  0  0  0  0
  2  3  1  0  0  0  0
  2  4  2  0  0  0  0
  5 13  1  0  0  0  0
  6 10  1  0  0  0  0
  4  7  1  0  0  0  0
  7  8  3  0  0  0  0
  5  9  1  0  0  0  0
  1 10  1  0  0  0  0
  1 11  2  0  0  0  0
  6 12  2  0  0  0  0
  4 12  1  0  0  0  0
 13 18  1  0  0  0  0
  3 14  1  0  0  0  0
  3 15  1  0  0  0  0
  5 16  2  0  0  0  0
 14 17  1  0  0  0  0
 13 17  1  0  0  0  0
 15 18  1  0  0  0  0
  9 19  1  0  0  0  0
 10 20  2  0  0  0  0
 20 23  1  0  0  0  0
 11 21  1  0  0  0  0
 22 27  1  0  0  0  0
 21 23  2  0  0  0  0
 21 24  1  0  0  0  0
 19 25  2  0  0  0  0
 19 26  1  0  0  0  0
 26 27  2  0  0  0  0
 25 28  1  0  0  0  0
 22 28  2  0  0  0  0
 22 29  1  0  0  0  0
 29 30  1  0  0  0  0
 30 31  1  0  0  0  0
M  END
> <IDNUMBER>
L483-0445

> <available>
88

> <H_acceptor>
5

> <H_donor>
1

> <B_rotN>
7

> <N_O>
6

> <logP>
3.9199

> <logD>
3.9196

> <logSw>
-3.7934

> <PSA>
59.213

> <pKa_ma>
11.7513

> <pKa_mb>
4.2541

> <N_Chirals>
0

> <Name>
1-(3-cyano-6-fluoroquinolin-4-yl)-N-(4-ethoxyphenyl)piperidine-4-carboxamide

> <Smile>
CCOc(cc1)ccc1NC(C(CC1)CCN1c1c(cc(cc2)F)c2ncc1C#N)=O

> <Color>
BROWN

> <Collection>
NC

> <InChI>
InChI=1S/C24H23FN4O2/c1-2-31-20-6-4-19(5-7-20)28-24(30)16-9-11-29(12-10-16)23-17(14-26)15-27-22-8-3-18(25)13-21(22)23/h3-8,13,15-16H,2,9-12H2,1H3,(H,28,30)

> <InChI Key>
XEHCNWUPEAJDRL-UHFFFAOYSA-N

> <PERCENTSP3>
29.2

> <Link>
https://www.chemdiv.com/catalog/screening-compounds/compound-L483-0445/

> <MFCDNUMBER>
MFCD16638914

> <CLNUMBER>
CL6761A

> <STEREO>
ACHIRAL

> <State>
Solid

> <Similarity score>
0.21

$$$$
1-(3-cyano-6-fluoroquinolin-4-yl)-N-[4-(trifluoromethoxy)phenyl]piperidine-4-car
  -OEChem-04222410502D

 33 36  0     0  0  0  0  0  0999 V2000
   -0.4327   -4.4931    0.0000 C   0  0  0  0  0  0  0  0  0  0  0  0
    0.4327   -3.9849    0.0000 C   0  0  0  0  0  0  0  0  0  0  0  0
    0.4327   -2.9886    0.0000 N   0  0  0  0  0  0  0  0  0  0  0  0
    1.3082   -4.4931    0.0000 C   0  0  0  0  0  0  0  0  0  0  0  0
    0.4478    0.0154    0.0000 C   0  0  0  0  0  0  0  0  0  0  0  0
    2.1083    5.0015    0.0000 C   0  0  0  0  0  0  0  0  0  0  0  0
    0.4327   -6.0076    0.0000 N   0  0  0  0  0  0  0  0  0  0  0  0
    2.1785   -4.0000    0.0000 C   0  0  0  0  0  0  0  0  0  0  0  0
    3.0389   -3.4869    0.0000 N   0  0  0  0  0  0  0  0  0  0  0  0
    1.3082    0.5133    0.0000 N   0  0  0  0  0  0  0  0  0  0  0  0
   -0.4429   -5.5045    0.0000 C   0  0  0  0  0  0  0  0  0  0  0  0
   -1.3033   -4.0000    0.0000 C   0  0  0  0  0  0  0  0  0  0  0  0
    1.3082   -5.5045    0.0000 C   0  0  0  0  0  0  0  0  0  0  0  0
    0.4478   -0.9911    0.0000 C   0  0  0  0  0  0  0  0  0  0  0  0
    1.2477    4.4884    0.0000 O   0  0  0  0  0  0  0  0  0  0  0  0
   -0.4277   -2.4753    0.0000 C   0  0  0  0  0  0  0  0  0  0  0  0
    1.3029   -2.4753    0.0000 C   0  0  0  0  0  0  0  0  0  0  0  0
   -0.4177    0.5287    0.0000 O   0  0  0  0  0  0  0  0  0  0  0  0
   -0.4277   -1.4792    0.0000 C   0  0  0  0  0  0  0  0  0  0  0  0
    1.3082   -1.4891    0.0000 C   0  0  0  0  0  0  0  0  0  0  0  0
    1.2930    1.5096    0.0000 C   0  0  0  0  0  0  0  0  0  0  0  0
    2.0882    6.0076    0.0000 F   0  0  0  0  0  0  0  0  0  0  0  0
    2.3798    4.0456    0.0000 F   0  0  0  0  0  0  0  0  0  0  0  0
    2.9788    4.5185    0.0000 F   0  0  0  0  0  0  0  0  0  0  0  0
   -1.3033   -6.0076    0.0000 C   0  0  0  0  0  0  0  0  0  0  0  0
   -2.1688   -4.4931    0.0000 C   0  0  0  0  0  0  0  0  0  0  0  0
    1.2629    3.4921    0.0000 C   0  0  0  0  0  0  0  0  0  0  0  0
   -2.1688   -5.4943    0.0000 C   0  0  0  0  0  0  0  0  0  0  0  0
   -3.0389   -3.9849    0.0000 F   0  0  0  0  0  0  0  0  0  0  0  0
    0.4429    1.9774    0.0000 C   0  0  0  0  0  0  0  0  0  0  0  0
    2.1534    1.9977    0.0000 C   0  0  0  0  0  0  0  0  0  0  0  0
    0.4177    2.9638    0.0000 C   0  0  0  0  0  0  0  0  0  0  0  0
    2.1383    2.9940    0.0000 C   0  0  0  0  0  0  0  0  0  0  0  0
  1  2  1  0  0  0  0
  2  3  1  0  0  0  0
  2  4  2  0  0  0  0
  5 14  1  0  0  0  0
  6 15  1  0  0  0  0
  7 11  1  0  0  0  0
  4  8  1  0  0  0  0
  8  9  3  0  0  0  0
  5 10  1  0  0  0  0
  1 11  1  0  0  0  0
  1 12  2  0  0  0  0
  7 13  2  0  0  0  0
  4 13  1  0  0  0  0
 14 20  1  0  0  0  0
 15 27  1  0  0  0  0
  3 16  1  0  0  0  0
  3 17  1  0  0  0  0
  5 18  2  0  0  0  0
 16 19  1  0  0  0  0
 14 19  1  0  0  0  0
 17 20  1  0  0  0  0
 10 21  1  0  0  0  0
  6 22  1  0  0  0  0
  6 23  1  0  0  0  0
  6 24  1  0  0  0  0
 11 25  2  0  0  0  0
 25 28  1  0  0  0  0
 12 26  1  0  0  0  0
 27 33  2  0  0  0  0
 26 28  2  0  0  0  0
 26 29  1  0  0  0  0
 21 30  1  0  0  0  0
 21 31  2  0  0  0  0
 30 32  2  0  0  0  0
 27 32  1  0  0  0  0
 31 33  1  0  0  0  0
M  END
> <IDNUMBER>
L483-0472

> <available>
54

> <H_acceptor>
5

> <H_donor>
1

> <B_rotN>
7

> <N_O>
6

> <logP>
4.7422

> <logD>
4.7419

> <logSw>
-4.7161

> <PSA>
58.026

> <pKa_ma>
11.7513

> <pKa_mb>
4.2541

> <N_Chirals>
0

> <Name>
1-(3-cyano-6-fluoroquinolin-4-yl)-N-[4-(trifluoromethoxy)phenyl]piperidine-4-carboxamide

> <Smile>
N#Cc1cnc(ccc(F)c2)c2c1N(CC1)CCC1C(Nc(cc1)ccc1OC(F)(F)F)=O

> <Color>
NOT COLORED

> <Collection>
NC

> <InChI>
InChI=1S/C23H18F4N4O2/c24-16-1-6-20-19(11-16)21(15(12-28)13-29-20)31-9-7-14(8-10-31)22(32)30-17-2-4-18(5-3-17)33-23(25,26)27/h1-6,11,13-14H,7-10H2,(H,30,32)

> <InChI Key>
ZRAXHVMZOHXYBH-UHFFFAOYSA-N

> <PERCENTSP3>
26.1

> <Link>
https://www.chemdiv.com/catalog/screening-compounds/compound-L483-0472/

> <MFCDNUMBER>
MFCD27456462

> <CLNUMBER>
CL6761A

> <STEREO>
ACHIRAL

> <State>
Solid

> <Similarity score>
0.21

$$$$
1-(3-cyano-6-ethoxyquinolin-4-yl)-N-(3,5-difluorophenyl)piperidine-4-carboxamide
  -OEChem-04222410502D

 32 35  0     0  0  0  0  0  0999 V2000
    0.4279   -3.2363    0.0000 C   0  0  0  0  0  0  0  0  0  0  0  0
    1.2936   -2.7330    0.0000 C   0  0  0  0  0  0  0  0  0  0  0  0
    1.2936   -1.7364    0.0000 N   0  0  0  0  0  0  0  0  0  0  0  0
    2.1694   -3.2363    0.0000 C   0  0  0  0  0  0  0  0  0  0  0  0
    1.3088    1.2783    0.0000 C   0  0  0  0  0  0  0  0  0  0  0  0
    1.2936   -4.7564    0.0000 N   0  0  0  0  0  0  0  0  0  0  0  0
    2.1694    1.7767    0.0000 N   0  0  0  0  0  0  0  0  0  0  0  0
    2.1541    2.7731    0.0000 C   0  0  0  0  0  0  0  0  0  0  0  0
    3.0399   -2.7482    0.0000 C   0  0  0  0  0  0  0  0  0  0  0  0
    3.9007   -2.2348    0.0000 N   0  0  0  0  0  0  0  0  0  0  0  0
    0.4178   -4.2481    0.0000 C   0  0  0  0  0  0  0  0  0  0  0  0
   -0.4429   -2.7381    0.0000 C   0  0  0  0  0  0  0  0  0  0  0  0
    2.1694   -4.2481    0.0000 C   0  0  0  0  0  0  0  0  0  0  0  0
    1.3088    0.2667    0.0000 C   0  0  0  0  0  0  0  0  0  0  0  0
    1.3037    3.2413    0.0000 C   0  0  0  0  0  0  0  0  0  0  0  0
    3.0148    3.2564    0.0000 C   0  0  0  0  0  0  0  0  0  0  0  0
    2.1642   -1.2280    0.0000 C   0  0  0  0  0  0  0  0  0  0  0  0
    0.4328   -1.2280    0.0000 C   0  0  0  0  0  0  0  0  0  0  0  0
    1.2786    4.2227    0.0000 C   0  0  0  0  0  0  0  0  0  0  0  0
    2.9997    4.2531    0.0000 C   0  0  0  0  0  0  0  0  0  0  0  0
    0.4429    1.7816    0.0000 O   0  0  0  0  0  0  0  0  0  0  0  0
    2.1239    4.7514    0.0000 C   0  0  0  0  0  0  0  0  0  0  0  0
    0.4328   -0.2264    0.0000 C   0  0  0  0  0  0  0  0  0  0  0  0
    2.1694   -0.2314    0.0000 C   0  0  0  0  0  0  0  0  0  0  0  0
   -0.4429   -4.7463    0.0000 C   0  0  0  0  0  0  0  0  0  0  0  0
   -1.3088   -3.2363    0.0000 C   0  0  0  0  0  0  0  0  0  0  0  0
    0.4028    4.7059    0.0000 F   0  0  0  0  0  0  0  0  0  0  0  0
    3.8606    4.7564    0.0000 F   0  0  0  0  0  0  0  0  0  0  0  0
   -1.3088   -4.2430    0.0000 C   0  0  0  0  0  0  0  0  0  0  0  0
   -2.1694   -2.7381    0.0000 O   0  0  0  0  0  0  0  0  0  0  0  0
   -3.0399   -3.2312    0.0000 C   0  0  0  0  0  0  0  0  0  0  0  0
   -3.9007   -2.7330    0.0000 C   0  0  0  0  0  0  0  0  0  0  0  0
  1  2  1  0  0  0  0
  2  3  1  0  0  0  0
  2  4  2  0  0  0  0
  5 14  1  0  0  0  0
  6 11  1  0  0  0  0
  5  7  1  0  0  0  0
  7  8  1  0  0  0  0
  4  9  1  0  0  0  0
  9 10  3  0  0  0  0
  1 11  1  0  0  0  0
  1 12  2  0  0  0  0
  6 13  2  0  0  0  0
  4 13  1  0  0  0  0
 14 23  1  0  0  0  0
  8 15  1  0  0  0  0
  8 16  2  0  0  0  0
  3 17  1  0  0  0  0
  3 18  1  0  0  0  0
 15 19  2  0  0  0  0
 19 22  1  0  0  0  0
 16 20  1  0  0  0  0
  5 21  2  0  0  0  0
 20 22  2  0  0  0  0
 18 23  1  0  0  0  0
 17 24  1  0  0  0  0
 14 24  1  0  0  0  0
 11 25  2  0  0  0  0
 25 29  1  0  0  0  0
 12 26  1  0  0  0  0
 19 27  1  0  0  0  0
 20 28  1  0  0  0  0
 26 29  2  0  0  0  0
 26 30  1  0  0  0  0
 30 31  1  0  0  0  0
 31 32  1  0  0  0  0
M  END
> <IDNUMBER>
L483-0759

> <available>
5

> <H_acceptor>
5

> <H_donor>
1

> <B_rotN>
7

> <N_O>
6

> <logP>
4.3605

> <logD>
4.2823

> <logSw>
-4.0791

> <PSA>
59.213

> <pKa_ma>
8.3176

> <pKa_mb>
6.2336

> <N_Chirals>
0

> <Name>
1-(3-cyano-6-ethoxyquinolin-4-yl)-N-(3,5-difluorophenyl)piperidine-4-carboxamide

> <Smile>
CCOc(cc12)ccc2ncc(C#N)c1N(CC1)CCC1C(Nc1cc(F)cc(F)c1)=O

> <Color>
BROWN

> <Collection>
NC

> <InChI>
InChI=1S/C24H22F2N4O2/c1-2-32-20-3-4-22-21(12-20)23(16(13-27)14-28-22)30-7-5-15(6-8-30)24(31)29-19-10-17(25)9-18(26)11-19/h3-4,9-12,14-15H,2,5-8H2,1H3,(H,29,31)

> <InChI Key>
OHCHUUNUOQPUPC-UHFFFAOYSA-N

> <PERCENTSP3>
29.2

> <Link>
https://www.chemdiv.com/catalog/screening-compounds/compound-L483-0759/

> <MFCDNUMBER>
MFCD27456619

> <CLNUMBER>
CL6761A

> <STEREO>
ACHIRAL

> <State>
Solid

> <Similarity score>
0.21

$$$$
1-(3-cyano-6-ethoxyquinolin-4-yl)-N-[(4-fluorophenyl)methyl]piperidine-4-carboxa
  -OEChem-04222410502D

 32 35  0     0  0  0  0  0  0999 V2000
   -0.4266   -3.2461    0.0000 C   0  0  0  0  0  0  0  0  0  0  0  0
    0.4417   -2.7361    0.0000 C   0  0  0  0  0  0  0  0  0  0  0  0
    0.4417   -1.7365    0.0000 N   0  0  0  0  0  0  0  0  0  0  0  0
    1.3151   -3.2461    0.0000 C   0  0  0  0  0  0  0  0  0  0  0  0
    0.4370   -4.7506    0.0000 N   0  0  0  0  0  0  0  0  0  0  0  0
    0.4517    1.2621    0.0000 C   0  0  0  0  0  0  0  0  0  0  0  0
    2.1834   -2.7514    0.0000 C   0  0  0  0  0  0  0  0  0  0  0  0
    3.0468   -2.2465    0.0000 N   0  0  0  0  0  0  0  0  0  0  0  0
   -0.4365   -4.2505    0.0000 C   0  0  0  0  0  0  0  0  0  0  0  0
    1.3151    1.7518    0.0000 N   0  0  0  0  0  0  0  0  0  0  0  0
   -1.2999   -2.7462    0.0000 C   0  0  0  0  0  0  0  0  0  0  0  0
    1.3151   -4.2505    0.0000 C   0  0  0  0  0  0  0  0  0  0  0  0
    0.4517    0.2625    0.0000 C   0  0  0  0  0  0  0  0  0  0  0  0
   -0.4214   -1.2368    0.0000 C   0  0  0  0  0  0  0  0  0  0  0  0
    1.3051   -1.2368    0.0000 C   0  0  0  0  0  0  0  0  0  0  0  0
   -0.4114    1.7617    0.0000 O   0  0  0  0  0  0  0  0  0  0  0  0
   -0.4214   -0.2372    0.0000 C   0  0  0  0  0  0  0  0  0  0  0  0
    1.3151   -0.2472    0.0000 C   0  0  0  0  0  0  0  0  0  0  0  0
   -1.2999   -4.7506    0.0000 C   0  0  0  0  0  0  0  0  0  0  0  0
   -2.1630   -3.2461    0.0000 C   0  0  0  0  0  0  0  0  0  0  0  0
    1.3051    2.7462    0.0000 C   0  0  0  0  0  0  0  0  0  0  0  0
    3.8796    4.2505    0.0000 C   0  0  0  0  0  0  0  0  0  0  0  0
    2.1682    3.2461    0.0000 C   0  0  0  0  0  0  0  0  0  0  0  0
   -2.1630   -4.2505    0.0000 C   0  0  0  0  0  0  0  0  0  0  0  0
    4.7530    4.7506    0.0000 F   0  0  0  0  0  0  0  0  0  0  0  0
    3.0165    4.7454    0.0000 C   0  0  0  0  0  0  0  0  0  0  0  0
    3.8898    3.2509    0.0000 C   0  0  0  0  0  0  0  0  0  0  0  0
    2.1531    4.2454    0.0000 C   0  0  0  0  0  0  0  0  0  0  0  0
    3.0316    2.7514    0.0000 C   0  0  0  0  0  0  0  0  0  0  0  0
   -3.0264   -2.7462    0.0000 O   0  0  0  0  0  0  0  0  0  0  0  0
   -3.8895   -3.2461    0.0000 C   0  0  0  0  0  0  0  0  0  0  0  0
   -4.7530   -2.7462    0.0000 C   0  0  0  0  0  0  0  0  0  0  0  0
  1  2  1  0  0  0  0
  2  3  1  0  0  0  0
  2  4  2  0  0  0  0
  5  9  1  0  0  0  0
  6 13  1  0  0  0  0
  4  7  1  0  0  0  0
  7  8  3  0  0  0  0
  1  9  1  0  0  0  0
  6 10  1  0  0  0  0
  1 11  2  0  0  0  0
  5 12  2  0  0  0  0
  4 12  1  0  0  0  0
 13 18  1  0  0  0  0
  3 14  1  0  0  0  0
  3 15  1  0  0  0  0
  6 16  2  0  0  0  0
 14 17  1  0  0  0  0
 13 17  1  0  0  0  0
 15 18  1  0  0  0  0
  9 19  2  0  0  0  0
 19 24  1  0  0  0  0
 11 20  1  0  0  0  0
 10 21  1  0  0  0  0
 22 27  2  0  0  0  0
 22 26  1  0  0  0  0
 21 23  1  0  0  0  0
 20 24  2  0  0  0  0
 22 25  1  0  0  0  0
 26 28  2  0  0  0  0
 27 29  1  0  0  0  0
 23 28  1  0  0  0  0
 23 29  2  0  0  0  0
 20 30  1  0  0  0  0
 30 31  1  0  0  0  0
 31 32  1  0  0  0  0
M  END
> <IDNUMBER>
L483-0684

> <available>
133

> <H_acceptor>
5

> <H_donor>
1

> <B_rotN>
8

> <N_O>
6

> <logP>
3.616

> <logD>
3.5874

> <logSw>
-3.6555

> <PSA>
60.535

> <pKa_ma>
12.1429

> <pKa_mb>
6.2336

> <N_Chirals>
0

> <Name>
1-(3-cyano-6-ethoxyquinolin-4-yl)-N-[(4-fluorophenyl)methyl]piperidine-4-carboxamide

> <Smile>
CCOc(cc12)ccc2ncc(C#N)c1N(CC1)CCC1C(NCc(cc1)ccc1F)=O

> <Color>
NOT COLORED

> <Collection>
NC

> <InChI>
InChI=1S/C25H25FN4O2/c1-2-32-21-7-8-23-22(13-21)24(19(14-27)16-28-23)30-11-9-18(10-12-30)25(31)29-15-17-3-5-20(26)6-4-17/h3-8,13,16,18H,2,9-12,15H2,1H3,(H,29,31)

> <InChI Key>
KZVLCDPHSPICTR-UHFFFAOYSA-N

> <PERCENTSP3>
32

> <Link>
https://www.chemdiv.com/catalog/screening-compounds/compound-L483-0684/

> <MFCDNUMBER>
MFCD27456605

> <CLNUMBER>
CL6761A

> <STEREO>
ACHIRAL

> <State>
Solid

> <Similarity score>
0.21

$$$$
1-[5-(naphthalen-2-yl)-4-oxo-3,4-dihydropyrido[2,3-d]pyrimidin-2-yl]piperidine-4
  -OEChem-04222410502D

 30 34  0     0  0  0  0  0  0999 V2000
    1.3060    0.0147    0.0000 C   0  0  0  0  0  0  0  0  0  0  0  0
    0.4394   -0.4853    0.0000 N   0  0  0  0  0  0  0  0  0  0  0  0
    1.3143    1.0144    0.0000 N   0  0  0  0  0  0  0  0  0  0  0  0
    0.4561    1.5102    0.0000 C   0  0  0  0  0  0  0  0  0  0  0  0
   -0.4147    1.0062    0.0000 C   0  0  0  0  0  0  0  0  0  0  0  0
   -0.4314    0.0147    0.0000 C   0  0  0  0  0  0  0  0  0  0  0  0
    2.1642   -0.5019    0.0000 N   0  0  0  0  0  0  0  0  0  0  0  0
   -1.2811    1.5229    0.0000 C   0  0  0  0  0  0  0  0  0  0  0  0
   -2.1477    1.0144    0.0000 C   0  0  0  0  0  0  0  0  0  0  0  0
    4.7598   -2.0102    0.0000 C   0  0  0  0  0  0  0  0  0  0  0  0
    0.4437    2.5185    0.0000 N   0  0  0  0  0  0  0  0  0  0  0  0
   -3.0143    1.5229    0.0000 C   0  0  0  0  0  0  0  0  0  0  0  0
   -3.8849    1.0144    0.0000 C   0  0  0  0  0  0  0  0  0  0  0  0
    2.1642   -1.4893    0.0000 C   0  0  0  0  0  0  0  0  0  0  0  0
    3.0392    0.0147    0.0000 C   0  0  0  0  0  0  0  0  0  0  0  0
    3.8934   -1.5062    0.0000 C   0  0  0  0  0  0  0  0  0  0  0  0
   -2.1477    0.0147    0.0000 C   0  0  0  0  0  0  0  0  0  0  0  0
    5.6181   -1.5102    0.0000 O   0  0  0  0  0  0  0  0  0  0  0  0
   -1.2895   -0.4688    0.0000 O   0  0  0  0  0  0  0  0  0  0  0  0
    3.0268   -1.9936    0.0000 C   0  0  0  0  0  0  0  0  0  0  0  0
    3.9099   -0.5019    0.0000 C   0  0  0  0  0  0  0  0  0  0  0  0
   -3.8891    0.0147    0.0000 C   0  0  0  0  0  0  0  0  0  0  0  0
   -3.0143   -0.4853    0.0000 C   0  0  0  0  0  0  0  0  0  0  0  0
    4.7433   -3.0143    0.0000 N   0  0  0  0  0  0  0  0  0  0  0  0
   -0.4147    3.0143    0.0000 C   0  0  0  0  0  0  0  0  0  0  0  0
   -1.2811    2.5185    0.0000 C   0  0  0  0  0  0  0  0  0  0  0  0
   -4.7433    1.5102    0.0000 C   0  0  0  0  0  0  0  0  0  0  0  0
   -4.7433   -0.4811    0.0000 C   0  0  0  0  0  0  0  0  0  0  0  0
   -5.6057    1.0144    0.0000 C   0  0  0  0  0  0  0  0  0  0  0  0
   -5.6181    0.0147    0.0000 C   0  0  0  0  0  0  0  0  0  0  0  0
  1  2  1  0  0  0  0
  1  3  2  0  0  0  0
  3  4  1  0  0  0  0
  4  5  1  0  0  0  0
  2  6  2  0  0  0  0
  5  6  1  0  0  0  0
  1  7  1  0  0  0  0
  5  8  2  0  0  0  0
  8  9  1  0  0  0  0
 10 16  1  0  0  0  0
  4 11  2  0  0  0  0
  9 12  2  0  0  0  0
 12 13  1  0  0  0  0
  7 14  1  0  0  0  0
  7 15  1  0  0  0  0
 16 21  1  0  0  0  0
  9 17  1  0  0  0  0
 10 18  2  0  0  0  0
  6 19  1  0  0  0  0
 14 20  1  0  0  0  0
 16 20  1  0  0  0  0
 15 21  1  0  0  0  0
 22 23  1  0  0  0  0
 13 22  1  0  0  0  0
 17 23  2  0  0  0  0
 10 24  1  0  0  0  0
 11 25  1  0  0  0  0
 25 26  2  0  0  0  0
  8 26  1  0  0  0  0
 13 27  2  0  0  0  0
 22 28  2  0  0  0  0
 27 29  1  0  0  0  0
 29 30  2  0  0  0  0
 28 30  1  0  0  0  0
M  END
> <IDNUMBER>
IB05-7741

> <available>
50

> <H_acceptor>
6

> <H_donor>
3

> <B_rotN>
3

> <N_O>
7

> <logP>
3.38

> <logD>
3.3

> <logSw>
-4.07

> <PSA>
156.9

> <pKa_ma>
8.18

> <pKa_mb>
5.73

> <N_Chirals>
0

> <Name>
1-[5-(naphthalen-2-yl)-4-oxo-3,4-dihydropyrido[2,3-d]pyrimidin-2-yl]piperidine-4-carboxamide

> <Smile>
NC(C(CC1)CCN1c1nc2nccc(-c3cc4ccccc4cc3)c2c(O)n1)=O

> <Color>
NOT COLORED

> <Collection>
DC

> <InChI>
InChI=1S/C23H21N5O2/c24-20(29)15-8-11-28(12-9-15)23-26-21-19(22(30)27-23)18(7-10-25-21)17-6-5-14-3-1-2-4-16(14)13-17/h1-7,10,13,15H,8-9,11-12H2,(H2,24,29)(H,25,26,27,30)

> <InChI Key>
PSTFZJDWRDLOPZ-UHFFFAOYSA-N

> <PERCENTSP3>
21.7

> <Link>
https://www.chemdiv.com/catalog/screening-compounds/compound-IB05-7741/

> <STEREO>
ACHIRAL

> <State>
Solid

> <Similarity score>
0.21

$$$$
1-(3-cyano-6-ethoxyquinolin-4-yl)-N-[(2-fluorophenyl)methyl]piperidine-4-carboxa
  -OEChem-04222410502D

 32 35  0     0  0  0  0  0  0999 V2000
    0.0076   -3.2345    0.0000 C   0  0  0  0  0  0  0  0  0  0  0  0
    0.8706   -2.7302    0.0000 C   0  0  0  0  0  0  0  0  0  0  0  0
    0.8706   -1.7358    0.0000 N   0  0  0  0  0  0  0  0  0  0  0  0
    1.7486   -3.2345    0.0000 C   0  0  0  0  0  0  0  0  0  0  0  0
    0.8706   -4.7484    0.0000 N   0  0  0  0  0  0  0  0  0  0  0  0
    0.8857    1.2666    0.0000 C   0  0  0  0  0  0  0  0  0  0  0  0
    2.6214   -2.7453    0.0000 C   0  0  0  0  0  0  0  0  0  0  0  0
    3.4743   -2.2356    0.0000 N   0  0  0  0  0  0  0  0  0  0  0  0
    0.0024   -4.2489    0.0000 C   0  0  0  0  0  0  0  0  0  0  0  0
    1.7486    1.7612    0.0000 N   0  0  0  0  0  0  0  0  0  0  0  0
   -0.8603   -2.7351    0.0000 C   0  0  0  0  0  0  0  0  0  0  0  0
    1.7486   -4.2489    0.0000 C   0  0  0  0  0  0  0  0  0  0  0  0
    2.6064    3.2497    0.0000 C   0  0  0  0  0  0  0  0  0  0  0  0
    0.8857    0.2623    0.0000 C   0  0  0  0  0  0  0  0  0  0  0  0
    1.7486   -1.2364    0.0000 C   0  0  0  0  0  0  0  0  0  0  0  0
    0.0076   -1.2364    0.0000 C   0  0  0  0  0  0  0  0  0  0  0  0
    1.7434    2.7502    0.0000 C   0  0  0  0  0  0  0  0  0  0  0  0
    0.0227    1.7661    0.0000 O   0  0  0  0  0  0  0  0  0  0  0  0
    2.5962    4.2440    0.0000 C   0  0  0  0  0  0  0  0  0  0  0  0
    1.7486   -0.2371    0.0000 C   0  0  0  0  0  0  0  0  0  0  0  0
    0.0175   -0.2371    0.0000 C   0  0  0  0  0  0  0  0  0  0  0  0
   -0.8603   -4.7435    0.0000 C   0  0  0  0  0  0  0  0  0  0  0  0
   -1.7232   -3.2448    0.0000 C   0  0  0  0  0  0  0  0  0  0  0  0
    1.7183    4.7435    0.0000 F   0  0  0  0  0  0  0  0  0  0  0  0
   -1.7232   -4.2437    0.0000 C   0  0  0  0  0  0  0  0  0  0  0  0
   -2.5965   -2.7502    0.0000 O   0  0  0  0  0  0  0  0  0  0  0  0
    3.4590    2.7502    0.0000 C   0  0  0  0  0  0  0  0  0  0  0  0
    3.4439    4.7484    0.0000 C   0  0  0  0  0  0  0  0  0  0  0  0
   -3.4590   -3.2497    0.0000 C   0  0  0  0  0  0  0  0  0  0  0  0
   -4.3219   -2.7502    0.0000 C   0  0  0  0  0  0  0  0  0  0  0  0
    4.3219    3.2599    0.0000 C   0  0  0  0  0  0  0  0  0  0  0  0
    4.3170    4.2587    0.0000 C   0  0  0  0  0  0  0  0  0  0  0  0
  1  2  1  0  0  0  0
  2  3  1  0  0  0  0
  2  4  2  0  0  0  0
  5  9  1  0  0  0  0
  6 14  1  0  0  0  0
  4  7  1  0  0  0  0
  7  8  3  0  0  0  0
  1  9  1  0  0  0  0
  6 10  1  0  0  0  0
  1 11  2  0  0  0  0
  5 12  2  0  0  0  0
  4 12  1  0  0  0  0
 13 17  1  0  0  0  0
 14 21  1  0  0  0  0
  3 15  1  0  0  0  0
  3 16  1  0  0  0  0
 10 17  1  0  0  0  0
  6 18  2  0  0  0  0
 13 19  1  0  0  0  0
 15 20  1  0  0  0  0
 14 20  1  0  0  0  0
 16 21  1  0  0  0  0
  9 22  2  0  0  0  0
 22 25  1  0  0  0  0
 11 23  1  0  0  0  0
 19 24  1  0  0  0  0
 23 25  2  0  0  0  0
 23 26  1  0  0  0  0
 13 27  2  0  0  0  0
 19 28  2  0  0  0  0
 26 29  1  0  0  0  0
 29 30  1  0  0  0  0
 27 31  1  0  0  0  0
 31 32  2  0  0  0  0
 28 32  1  0  0  0  0
M  END
> <IDNUMBER>
L483-0693

> <available>
132

> <H_acceptor>
5

> <H_donor>
1

> <B_rotN>
8

> <N_O>
6

> <logP>
3.9613

> <logD>
3.9327

> <logSw>
-3.7869

> <PSA>
60.535

> <pKa_ma>
12.563

> <pKa_mb>
6.2336

> <N_Chirals>
0

> <Name>
1-(3-cyano-6-ethoxyquinolin-4-yl)-N-[(2-fluorophenyl)methyl]piperidine-4-carboxamide

> <Smile>
CCOc(cc12)ccc2ncc(C#N)c1N(CC1)CCC1C(NCc(cccc1)c1F)=O

> <Color>
NOT COLORED

> <Collection>
NC

> <InChI>
InChI=1S/C25H25FN4O2/c1-2-32-20-7-8-23-21(13-20)24(19(14-27)16-28-23)30-11-9-17(10-12-30)25(31)29-15-18-5-3-4-6-22(18)26/h3-8,13,16-17H,2,9-12,15H2,1H3,(H,29,31)

> <InChI Key>
BLVHEBGAZOCVKU-UHFFFAOYSA-N

> <PERCENTSP3>
32

> <Link>
https://www.chemdiv.com/catalog/screening-compounds/compound-L483-0693/

> <MFCDNUMBER>
MFCD16639823

> <CLNUMBER>
CL6761A

> <STEREO>
ACHIRAL

> <State>
Solid

> <Similarity score>
0.21

$$$$
1-(furan-2-yl)-3-methoxy-13,14-dihydronaphtho[1,2-i][1,9]phenanthroline-2-carbon
  -OEChem-04222410502D

 31 36  0     0  0  0  0  0  0999 V2000
    0.4706    0.2293    0.0000 C   0  0  0  0  0  0  0  0  0  0  0  0
    0.4706   -0.7684    0.0000 C   0  0  0  0  0  0  0  0  0  0  0  0
    1.3079    0.7471    0.0000 N   0  0  0  0  0  0  0  0  0  0  0  0
   -0.3975    0.7330    0.0000 C   0  0  0  0  0  0  0  0  0  0  0  0
    0.4566    2.2189    0.0000 C   0  0  0  0  0  0  0  0  0  0  0  0
   -0.3806   -1.2509    0.0000 C   0  0  0  0  0  0  0  0  0  0  0  0
   -0.3975    1.7195    0.0000 C   0  0  0  0  0  0  0  0  0  0  0  0
    1.2938    1.7336    0.0000 C   0  0  0  0  0  0  0  0  0  0  0  0
   -0.3806   -2.2232    0.0000 C   0  0  0  0  0  0  0  0  0  0  0  0
   -1.2502    2.2050    0.0000 C   0  0  0  0  0  0  0  0  0  0  0  0
    1.3220   -2.2232    0.0000 N   0  0  0  0  0  0  0  0  0  0  0  0
    1.3220   -1.2509    0.0000 C   0  0  0  0  0  0  0  0  0  0  0  0
    0.4566    3.1912    0.0000 C   0  0  0  0  0  0  0  0  0  0  0  0
   -1.2502    0.2293    0.0000 C   0  0  0  0  0  0  0  0  0  0  0  0
   -1.2502   -0.7684    0.0000 C   0  0  0  0  0  0  0  0  0  0  0  0
   -1.2332   -2.7073    0.0000 C   0  0  0  0  0  0  0  0  0  0  0  0
    0.4566    4.1650    0.0000 N   0  0  0  0  0  0  0  0  0  0  0  0
    0.4706   -2.7073    0.0000 C   0  0  0  0  0  0  0  0  0  0  0  0
   -2.0889    1.7195    0.0000 O   0  0  0  0  0  0  0  0  0  0  0  0
   -1.2332    3.1618    0.0000 C   0  0  0  0  0  0  0  0  0  0  0  0
   -2.9430    2.2050    0.0000 C   0  0  0  0  0  0  0  0  0  0  0  0
   -2.9556    3.1744    0.0000 C   0  0  0  0  0  0  0  0  0  0  0  0
   -1.2332   -3.6797    0.0000 C   0  0  0  0  0  0  0  0  0  0  0  0
    0.4706   -3.6797    0.0000 C   0  0  0  0  0  0  0  0  0  0  0  0
   -0.3806   -4.1650    0.0000 C   0  0  0  0  0  0  0  0  0  0  0  0
    2.1184    2.2330    0.0000 O   0  0  0  0  0  0  0  0  0  0  0  0
   -2.0889   -2.2232    0.0000 C   0  0  0  0  0  0  0  0  0  0  0  0
   -2.0889   -4.1650    0.0000 C   0  0  0  0  0  0  0  0  0  0  0  0
    2.9556    1.7631    0.0000 C   0  0  0  0  0  0  0  0  0  0  0  0
   -2.9430   -2.7073    0.0000 C   0  0  0  0  0  0  0  0  0  0  0  0
   -2.9430   -3.6797    0.0000 C   0  0  0  0  0  0  0  0  0  0  0  0
  1  2  1  0  0  0  0
  1  3  2  0  0  0  0
  1  4  1  0  0  0  0
  5  7  1  0  0  0  0
  5  8  2  0  0  0  0
  2  6  2  0  0  0  0
  4  7  2  0  0  0  0
  3  8  1  0  0  0  0
  6  9  1  0  0  0  0
  7 10  1  0  0  0  0
 11 12  2  0  0  0  0
  2 12  1  0  0  0  0
  5 13  1  0  0  0  0
  4 14  1  0  0  0  0
 14 15  1  0  0  0  0
  6 15  1  0  0  0  0
  9 16  1  0  0  0  0
 13 17  3  0  0  0  0
 11 18  1  0  0  0  0
  9 18  2  0  0  0  0
 10 19  1  0  0  0  0
 10 20  2  0  0  0  0
 19 21  1  0  0  0  0
 21 22  2  0  0  0  0
 20 22  1  0  0  0  0
 16 23  2  0  0  0  0
 23 25  1  0  0  0  0
 18 24  1  0  0  0  0
 24 25  2  0  0  0  0
  8 26  1  0  0  0  0
 16 27  1  0  0  0  0
 23 28  1  0  0  0  0
 26 29  1  0  0  0  0
 27 30  2  0  0  0  0
 30 31  1  0  0  0  0
 28 31  2  0  0  0  0
M  END
> <IDNUMBER>
8014-2314

> <available>
25

> <H_acceptor>
5

> <H_donor>
0

> <B_rotN>
3

> <N_O>
5

> <logP>
5.8241

> <logD>
5.8239

> <logSw>
-6.8337

> <PSA>
51.61

> <pKa_ma>
20.0087

> <pKa_mb>
3.9944

> <N_Chirals>
0

> <Name>
1-(furan-2-yl)-3-methoxy-13,14-dihydronaphtho[1,2-i][1,9]phenanthroline-2-carbonitrile

> <Smile>
COc1nc(-c2c(CC3)c4c(cccc5)c5ccc4nc2)c3c(-c2ccco2)c1C#N

> <Color>
YELLOW

> <Collection>
DC

> <InChI>
InChI=1S/C26H17N3O2/c1-30-26-19(13-27)24(22-7-4-12-31-22)18-10-9-17-20(25(18)29-26)14-28-21-11-8-15-5-2-3-6-16(15)23(17)21/h2-8,11-12,14H,9-10H2,1H3

> <InChI Key>
MQQTZAXBKOITDA-UHFFFAOYSA-N

> <PERCENTSP3>
11.5

> <Link>
https://www.chemdiv.com/catalog/screening-compounds/compound-8014-2314/

> <MFCDNUMBER>
MFCD03768261

> <STEREO>
ACHIRAL

> <State>
Solid

> <Similarity score>
0.21

$$$$
4-(azepan-1-yl)-7-methoxyquinoline-3-carbonitrile
  -OEChem-04222410502D

 21 23  0     0  0  0  0  0  0999 V2000
   -0.8551   -0.5423    0.0000 C   0  0  0  0  0  0  0  0  0  0  0  0
    0.0227   -1.0418    0.0000 C   0  0  0  0  0  0  0  0  0  0  0  0
   -1.7381   -1.0468    0.0000 C   0  0  0  0  0  0  0  0  0  0  0  0
    0.0328   -2.0559    0.0000 C   0  0  0  0  0  0  0  0  0  0  0  0
   -0.8702    0.4818    0.0000 N   0  0  0  0  0  0  0  0  0  0  0  0
   -0.8451   -2.5756    0.0000 N   0  0  0  0  0  0  0  0  0  0  0  0
   -2.6159   -0.5475    0.0000 C   0  0  0  0  0  0  0  0  0  0  0  0
   -3.5037   -0.0480    0.0000 N   0  0  0  0  0  0  0  0  0  0  0  0
    0.8855   -0.5323    0.0000 C   0  0  0  0  0  0  0  0  0  0  0  0
    0.9005   -2.5452    0.0000 C   0  0  0  0  0  0  0  0  0  0  0  0
   -1.7329   -2.0761    0.0000 C   0  0  0  0  0  0  0  0  0  0  0  0
    1.7784   -2.0407    0.0000 C   0  0  0  0  0  0  0  0  0  0  0  0
    1.7632   -1.0267    0.0000 C   0  0  0  0  0  0  0  0  0  0  0  0
    0.0076    0.9964    0.0000 C   0  0  0  0  0  0  0  0  0  0  0  0
   -1.7178    0.7138    0.0000 C   0  0  0  0  0  0  0  0  0  0  0  0
    2.6411   -2.5301    0.0000 O   0  0  0  0  0  0  0  0  0  0  0  0
    3.5037   -2.0155    0.0000 C   0  0  0  0  0  0  0  0  0  0  0  0
   -2.0507    1.6471    0.0000 C   0  0  0  0  0  0  0  0  0  0  0  0
    0.2143    1.8188    0.0000 C   0  0  0  0  0  0  0  0  0  0  0  0
   -0.4213    2.5756    0.0000 C   0  0  0  0  0  0  0  0  0  0  0  0
   -1.4505    2.5149    0.0000 C   0  0  0  0  0  0  0  0  0  0  0  0
  1  2  1  0  0  0  0
  1  3  2  0  0  0  0
  2  4  1  0  0  0  0
  4  6  1  0  0  0  0
  1  5  1  0  0  0  0
  6 11  2  0  0  0  0
  3  7  1  0  0  0  0
  7  8  3  0  0  0  0
  2  9  2  0  0  0  0
  4 10  2  0  0  0  0
 10 12  1  0  0  0  0
  3 11  1  0  0  0  0
 12 13  2  0  0  0  0
  9 13  1  0  0  0  0
  5 14  1  0  0  0  0
  5 15  1  0  0  0  0
 12 16  1  0  0  0  0
 16 17  1  0  0  0  0
 15 18  1  0  0  0  0
 14 19  1  0  0  0  0
 19 20  1  0  0  0  0
 20 21  1  0  0  0  0
 18 21  1  0  0  0  0
M  END
> <IDNUMBER>
F360-0697

> <available>
1

> <H_acceptor>
3

> <H_donor>
0

> <B_rotN>
3

> <N_O>
4

> <logP>
3.6312

> <logD>
3.6299

> <logSw>
-3.9936

> <PSA>
36.873

> <pKa_ma>
26.4994

> <pKa_mb>
4.8836

> <N_Chirals>
0

> <Name>
4-(azepan-1-yl)-7-methoxyquinoline-3-carbonitrile

> <Smile>
COc(ccc1c2N3CCCCCC3)cc1ncc2C#N

> <Color>
YELLOW

> <Collection>
DC

> <InChI>
InChI=1S/C17H19N3O/c1-21-14-6-7-15-16(10-14)19-12-13(11-18)17(15)20-8-4-2-3-5-9-20/h6-7,10,12H,2-5,8-9H2,1H3

> <InChI Key>
QQOXEHQATFUBMS-UHFFFAOYSA-N

> <PERCENTSP3>
41.2

> <Link>
https://www.chemdiv.com/catalog/screening-compounds/compound-F360-0697/

> <MFCDNUMBER>
MFCD27118984

> <CLNUMBER>
CL6761

> <STEREO>
ACHIRAL

> <State>
Solid

> <Similarity score>
0.21

$$$$
6-fluoro-4-(4-methylpiperidin-1-yl)quinoline-3-carbonitrile
  -OEChem-04222410502D

 20 22  0     0  0  0  0  0  0999 V2000
    0.4569   -1.4890    0.0000 C   0  0  0  0  0  0  0  0  0  0  0  0
   -0.4117   -0.9969    0.0000 C   0  0  0  0  0  0  0  0  0  0  0  0
   -0.4268    0.0125    0.0000 N   0  0  0  0  0  0  0  0  0  0  0  0
   -1.2856   -1.5040    0.0000 C   0  0  0  0  0  0  0  0  0  0  0  0
   -0.4018   -3.0007    0.0000 N   0  0  0  0  0  0  0  0  0  0  0  0
   -2.1494   -1.0120    0.0000 C   0  0  0  0  0  0  0  0  0  0  0  0
   -3.0233   -0.5148    0.0000 N   0  0  0  0  0  0  0  0  0  0  0  0
    0.4621   -2.4884    0.0000 C   0  0  0  0  0  0  0  0  0  0  0  0
    1.3058   -0.9818    0.0000 C   0  0  0  0  0  0  0  0  0  0  0  0
   -1.2756   -2.5035    0.0000 C   0  0  0  0  0  0  0  0  0  0  0  0
   -1.3006    0.4946    0.0000 C   0  0  0  0  0  0  0  0  0  0  0  0
    0.4419    0.5097    0.0000 C   0  0  0  0  0  0  0  0  0  0  0  0
    1.3208   -2.9805    0.0000 C   0  0  0  0  0  0  0  0  0  0  0  0
    2.1745   -1.4739    0.0000 C   0  0  0  0  0  0  0  0  0  0  0  0
    2.1895   -2.4734    0.0000 C   0  0  0  0  0  0  0  0  0  0  0  0
   -1.3006    1.5040    0.0000 C   0  0  0  0  0  0  0  0  0  0  0  0
    0.4319    1.5040    0.0000 C   0  0  0  0  0  0  0  0  0  0  0  0
    3.0233   -0.9617    0.0000 F   0  0  0  0  0  0  0  0  0  0  0  0
   -0.4319    2.0012    0.0000 C   0  0  0  0  0  0  0  0  0  0  0  0
   -0.4419    3.0007    0.0000 C   0  0  0  0  0  0  0  0  0  0  0  0
  1  2  1  0  0  0  0
  2  3  1  0  0  0  0
  2  4  2  0  0  0  0
  4 10  1  0  0  0  0
  5  8  1  0  0  0  0
  4  6  1  0  0  0  0
  6  7  3  0  0  0  0
  1  8  1  0  0  0  0
  1  9  2  0  0  0  0
  5 10  2  0  0  0  0
  3 11  1  0  0  0  0
  3 12  1  0  0  0  0
  8 13  2  0  0  0  0
 13 15  1  0  0  0  0
  9 14  1  0  0  0  0
 14 15  2  0  0  0  0
 11 16  1  0  0  0  0
 12 17  1  0  0  0  0
 14 18  1  0  0  0  0
 17 19  1  0  0  0  0
 16 19  1  0  0  0  0
 19 20  1  0  0  0  0
M  END
> <IDNUMBER>
F360-0332

> <available>
16

> <H_acceptor>
2

> <H_donor>
0

> <B_rotN>
2

> <N_O>
3

> <logP>
3.5659

> <logD>
3.5656

> <logSw>
-3.7284

> <PSA>
28.9977

> <pKa_ma>
25.4155

> <pKa_mb>
4.2541

> <N_Chirals>
0

> <Name>
6-fluoro-4-(4-methylpiperidin-1-yl)quinoline-3-carbonitrile

> <Smile>
CC(CC1)CCN1c1c(cc(cc2)F)c2ncc1C#N

> <Color>
NOT COLORED

> <Collection>
DC

> <InChI>
InChI=1S/C16H16FN3/c1-11-4-6-20(7-5-11)16-12(9-18)10-19-15-3-2-13(17)8-14(15)16/h2-3,8,10-11H,4-7H2,1H3

> <InChI Key>
UKEBPHPTAFJLJT-UHFFFAOYSA-N

> <PERCENTSP3>
37.5

> <Link>
https://www.chemdiv.com/catalog/screening-compounds/compound-F360-0332/

> <MFCDNUMBER>
MFCD27118916

> <CLNUMBER>
CL6761

> <STEREO>
ACHIRAL

> <State>
Solid

> <Similarity score>
0.21

$$$$
1-(3-cyano-6-ethoxyquinolin-4-yl)-N-(4-fluorophenyl)piperidine-4-carboxamide
  -OEChem-04222410502D

 31 34  0     0  0  0  0  0  0999 V2000
    0.4172   -3.7321    0.0000 C   0  0  0  0  0  0  0  0  0  0  0  0
    1.2916   -3.2194    0.0000 C   0  0  0  0  0  0  0  0  0  0  0  0
    1.2916   -2.2242    0.0000 N   0  0  0  0  0  0  0  0  0  0  0  0
    2.1665   -3.7321    0.0000 C   0  0  0  0  0  0  0  0  0  0  0  0
    1.3016    0.7816    0.0000 C   0  0  0  0  0  0  0  0  0  0  0  0
    1.2867   -5.2399    0.0000 N   0  0  0  0  0  0  0  0  0  0  0  0
    3.0409   -3.2345    0.0000 C   0  0  0  0  0  0  0  0  0  0  0  0
    3.9004   -2.7218    0.0000 N   0  0  0  0  0  0  0  0  0  0  0  0
    2.1665    1.2741    0.0000 N   0  0  0  0  0  0  0  0  0  0  0  0
    0.4172   -4.7422    0.0000 C   0  0  0  0  0  0  0  0  0  0  0  0
   -0.4474   -3.2294    0.0000 C   0  0  0  0  0  0  0  0  0  0  0  0
    2.1665   -4.7422    0.0000 C   0  0  0  0  0  0  0  0  0  0  0  0
    1.3016   -0.2188    0.0000 C   0  0  0  0  0  0  0  0  0  0  0  0
    0.4272   -1.7265    0.0000 C   0  0  0  0  0  0  0  0  0  0  0  0
    2.1665   -1.7265    0.0000 C   0  0  0  0  0  0  0  0  0  0  0  0
    0.4321    1.2790    0.0000 O   0  0  0  0  0  0  0  0  0  0  0  0
    0.4321   -0.7264    0.0000 C   0  0  0  0  0  0  0  0  0  0  0  0
    2.1665   -0.7315    0.0000 C   0  0  0  0  0  0  0  0  0  0  0  0
    2.1611    2.2694    0.0000 C   0  0  0  0  0  0  0  0  0  0  0  0
   -0.4474   -5.2348    0.0000 C   0  0  0  0  0  0  0  0  0  0  0  0
   -1.3168   -3.7321    0.0000 C   0  0  0  0  0  0  0  0  0  0  0  0
    2.1361    4.2446    0.0000 C   0  0  0  0  0  0  0  0  0  0  0  0
   -1.3168   -4.7373    0.0000 C   0  0  0  0  0  0  0  0  0  0  0  0
    2.1210    5.2399    0.0000 F   0  0  0  0  0  0  0  0  0  0  0  0
    1.2916    2.7419    0.0000 C   0  0  0  0  0  0  0  0  0  0  0  0
    3.0110    2.7670    0.0000 C   0  0  0  0  0  0  0  0  0  0  0  0
    3.0056    3.7622    0.0000 C   0  0  0  0  0  0  0  0  0  0  0  0
    1.2766    3.7321    0.0000 C   0  0  0  0  0  0  0  0  0  0  0  0
   -2.1765   -3.2445    0.0000 O   0  0  0  0  0  0  0  0  0  0  0  0
   -3.0360   -3.7421    0.0000 C   0  0  0  0  0  0  0  0  0  0  0  0
   -3.9004   -3.2495    0.0000 C   0  0  0  0  0  0  0  0  0  0  0  0
  1  2  1  0  0  0  0
  2  3  1  0  0  0  0
  2  4  2  0  0  0  0
  5 13  1  0  0  0  0
  6 10  1  0  0  0  0
  4  7  1  0  0  0  0
  7  8  3  0  0  0  0
  5  9  1  0  0  0  0
  1 10  1  0  0  0  0
  1 11  2  0  0  0  0
  6 12  2  0  0  0  0
  4 12  1  0  0  0  0
 13 18  1  0  0  0  0
  3 14  1  0  0  0  0
  3 15  1  0  0  0  0
  5 16  2  0  0  0  0
 14 17  1  0  0  0  0
 13 17  1  0  0  0  0
 15 18  1  0  0  0  0
  9 19  1  0  0  0  0
 10 20  2  0  0  0  0
 20 23  1  0  0  0  0
 11 21  1  0  0  0  0
 22 27  2  0  0  0  0
 22 28  1  0  0  0  0
 21 23  2  0  0  0  0
 22 24  1  0  0  0  0
 19 25  1  0  0  0  0
 19 26  2  0  0  0  0
 26 27  1  0  0  0  0
 25 28  2  0  0  0  0
 21 29  1  0  0  0  0
 29 30  1  0  0  0  0
 30 31  1  0  0  0  0
M  END
> <IDNUMBER>
L483-0704

> <available>
103

> <H_acceptor>
5

> <H_donor>
1

> <B_rotN>
7

> <N_O>
6

> <logP>
3.9272

> <logD>
3.898

> <logSw>
-3.8132

> <PSA>
59.213

> <pKa_ma>
10.2785

> <pKa_mb>
6.2336

> <N_Chirals>
0

> <Name>
1-(3-cyano-6-ethoxyquinolin-4-yl)-N-(4-fluorophenyl)piperidine-4-carboxamide

> <Smile>
CCOc(cc12)ccc2ncc(C#N)c1N(CC1)CCC1C(Nc(cc1)ccc1F)=O

> <Color>
ORANGE

> <Collection>
NC

> <InChI>
InChI=1S/C24H23FN4O2/c1-2-31-20-7-8-22-21(13-20)23(17(14-26)15-27-22)29-11-9-16(10-12-29)24(30)28-19-5-3-18(25)4-6-19/h3-8,13,15-16H,2,9-12H2,1H3,(H,28,30)

> <InChI Key>
JURIHDFRFHYZID-UHFFFAOYSA-N

> <PERCENTSP3>
29.2

> <Link>
https://www.chemdiv.com/catalog/screening-compounds/compound-L483-0704/

> <MFCDNUMBER>
MFCD27456610

> <CLNUMBER>
CL6761A

> <STEREO>
ACHIRAL

> <State>
Solid

> <Similarity score>
0.21

$$$$
6,8-difluoro-3-(4-fluorophenyl)-1-(3-nitrophenyl)-1H-pyrazolo[4,3-c]quinoline
  -OEChem-04222410502D

 31 35  0     0  0  0  0  0  0999 V2000
   -0.8202   -0.0619    0.0000 N   0  0  0  0  0  0  0  0  0  0  0  0
   -0.1636   -1.5407    0.0000 C   0  0  0  0  0  0  0  0  0  0  0  0
   -1.0324   -1.0409    0.0000 C   0  0  0  0  0  0  0  0  0  0  0  0
    0.1703    0.0442    0.0000 N   0  0  0  0  0  0  0  0  0  0  0  0
    0.5790   -0.8644    0.0000 C   0  0  0  0  0  0  0  0  0  0  0  0
   -1.8900   -1.5449    0.0000 C   0  0  0  0  0  0  0  0  0  0  0  0
   -1.5319    3.3133    0.0000 N   0  3  0  0  0  0  0  0  0  0  0  0
   -1.8900   -2.5553    0.0000 C   0  0  0  0  0  0  0  0  0  0  0  0
   -1.0279   -3.0547    0.0000 N   0  0  0  0  0  0  0  0  0  0  0  0
   -1.4875    0.6807    0.0000 C   0  0  0  0  0  0  0  0  0  0  0  0
   -0.1546   -2.5463    0.0000 C   0  0  0  0  0  0  0  0  0  0  0  0
   -2.7698   -3.0613    0.0000 C   0  0  0  0  0  0  0  0  0  0  0  0
   -1.1781    1.6202    0.0000 C   0  0  0  0  0  0  0  0  0  0  0  0
   -1.8456    2.3609    0.0000 C   0  0  0  0  0  0  0  0  0  0  0  0
   -3.6385   -2.5553    0.0000 C   0  0  0  0  0  0  0  0  0  0  0  0
    1.5630   -1.0720    0.0000 C   0  0  0  0  0  0  0  0  0  0  0  0
   -2.7698   -1.0454    0.0000 C   0  0  0  0  0  0  0  0  0  0  0  0
   -0.5571    3.5168    0.0000 O   0  5  0  0  0  0  0  0  0  0  0  0
   -2.2082    4.0561    0.0000 O   0  0  0  0  0  0  0  0  0  0  0  0
   -3.6338   -1.5449    0.0000 C   0  0  0  0  0  0  0  0  0  0  0  0
    2.2236   -0.3181    0.0000 C   0  0  0  0  0  0  0  0  0  0  0  0
    1.8767   -2.0247    0.0000 C   0  0  0  0  0  0  0  0  0  0  0  0
   -2.7698   -4.0561    0.0000 F   0  0  0  0  0  0  0  0  0  0  0  0
    3.5278   -1.4699    0.0000 C   0  0  0  0  0  0  0  0  0  0  0  0
   -4.5026   -1.0454    0.0000 F   0  0  0  0  0  0  0  0  0  0  0  0
    2.8601   -2.2279    0.0000 C   0  0  0  0  0  0  0  0  0  0  0  0
    3.1984   -0.5150    0.0000 C   0  0  0  0  0  0  0  0  0  0  0  0
    4.5026   -1.6776    0.0000 F   0  0  0  0  0  0  0  0  0  0  0  0
   -2.4515    0.4685    0.0000 C   0  0  0  0  0  0  0  0  0  0  0  0
   -2.8138    2.1508    0.0000 C   0  0  0  0  0  0  0  0  0  0  0  0
   -3.0769    1.1847    0.0000 C   0  0  0  0  0  0  0  0  0  0  0  0
  2  3  2  0  0  0  0
  2  5  1  0  0  0  0
  1  3  1  0  0  0  0
  1  4  1  0  0  0  0
  4  5  2  0  0  0  0
  3  6  1  0  0  0  0
  7 14  1  0  0  0  0
  6  8  1  0  0  0  0
  8  9  1  0  0  0  0
  1 10  1  0  0  0  0
  2 11  1  0  0  0  0
  9 11  2  0  0  0  0
  8 12  2  0  0  0  0
 10 13  2  0  0  0  0
 13 14  1  0  0  0  0
 14 30  2  0  0  0  0
 15 20  2  0  0  0  0
 12 15  1  0  0  0  0
  5 16  1  0  0  0  0
  6 17  2  0  0  0  0
  7 18  1  0  0  0  0
  7 19  2  0  0  0  0
 17 20  1  0  0  0  0
 16 21  1  0  0  0  0
 16 22  2  0  0  0  0
 12 23  1  0  0  0  0
 24 26  2  0  0  0  0
 20 25  1  0  0  0  0
 22 26  1  0  0  0  0
 21 27  2  0  0  0  0
 24 27  1  0  0  0  0
 24 28  1  0  0  0  0
 10 29  1  0  0  0  0
 30 31  1  0  0  0  0
 29 31  2  0  0  0  0
M  CHG  2   7   1  18  -1
M  END
> <IDNUMBER>
C350-0430

> <available>
53

> <H_acceptor>
6

> <H_donor>
0

> <B_rotN>
3

> <N_O>
6

> <logP>
5.326

> <logD>
5.326

> <logSw>
-5.9593

> <PSA>
56.862

> <pKa_ma>
14

> <pKa_mb>
2.2647

> <N_Chirals>
0

> <Name>
6,8-difluoro-3-(4-fluorophenyl)-1-(3-nitrophenyl)-1H-pyrazolo[4,3-c]quinoline

> <Smile>
[O-][N+](c1cccc(-n(c2c(cc(cc3F)F)c3ncc22)nc2-c(cc2)ccc2F)c1)=O

> <Color>
NOT COLORED

> <Collection>
DC

> <InChI>
InChI=1S/C22H11F3N4O2/c23-13-6-4-12(5-7-13)20-18-11-26-21-17(8-14(24)9-19(21)25)22(18)28(27-20)15-2-1-3-16(10-15)29(30)31/h1-11H

> <InChI Key>
ULKSZAFQOSYQAY-UHFFFAOYSA-N

> <PERCENTSP3>
0

> <Link>
https://www.chemdiv.com/catalog/screening-compounds/compound-C350-0430/

> <MFCDNUMBER>
MFCD14750402

> <CLNUMBER>
CL4130

> <STEREO>
ACHIRAL

> <State>
Solid

> <Similarity score>
0.21

$$$$
6-chloro-2-phenyl-4-(piperidin-1-yl)quinazoline
  -OEChem-04222410502D

 23 26  0     0  0  0  0  0  0999 V2000
    0.0089   -0.2596    0.0000 C   0  0  0  0  0  0  0  0  0  0  0  0
    0.8862    0.2560    0.0000 N   0  0  0  0  0  0  0  0  0  0  0  0
   -0.8504    0.2560    0.0000 C   0  0  0  0  0  0  0  0  0  0  0  0
    0.8862    1.2512    0.0000 C   0  0  0  0  0  0  0  0  0  0  0  0
    0.0089    1.7491    0.0000 N   0  0  0  0  0  0  0  0  0  0  0  0
   -0.8504    1.2512    0.0000 C   0  0  0  0  0  0  0  0  0  0  0  0
    0.0089   -1.2584    0.0000 N   0  0  0  0  0  0  0  0  0  0  0  0
   -1.7097   -0.2596    0.0000 C   0  0  0  0  0  0  0  0  0  0  0  0
    1.7453    1.7491    0.0000 C   0  0  0  0  0  0  0  0  0  0  0  0
   -1.7097    1.7491    0.0000 C   0  0  0  0  0  0  0  0  0  0  0  0
   -2.5904    0.2560    0.0000 C   0  0  0  0  0  0  0  0  0  0  0  0
   -2.5904    1.2512    0.0000 C   0  0  0  0  0  0  0  0  0  0  0  0
   -3.4640   -0.2596    0.0000 Cl  0  0  0  0  0  0  0  0  0  0  0  0
    0.8683   -1.7562    0.0000 C   0  0  0  0  0  0  0  0  0  0  0  0
   -0.8504   -1.7562    0.0000 C   0  0  0  0  0  0  0  0  0  0  0  0
    2.6047    1.2512    0.0000 C   0  0  0  0  0  0  0  0  0  0  0  0
    1.7275    2.7551    0.0000 C   0  0  0  0  0  0  0  0  0  0  0  0
   -0.8504   -2.7515    0.0000 C   0  0  0  0  0  0  0  0  0  0  0  0
    0.8683   -2.7515    0.0000 C   0  0  0  0  0  0  0  0  0  0  0  0
    2.5868    3.2492    0.0000 C   0  0  0  0  0  0  0  0  0  0  0  0
    3.4640    1.7491    0.0000 C   0  0  0  0  0  0  0  0  0  0  0  0
    0.0089   -3.2492    0.0000 C   0  0  0  0  0  0  0  0  0  0  0  0
    3.4640    2.7551    0.0000 C   0  0  0  0  0  0  0  0  0  0  0  0
  1  2  2  0  0  0  0
  1  3  1  0  0  0  0
  2  4  1  0  0  0  0
  4  5  2  0  0  0  0
  5  6  1  0  0  0  0
  3  6  2  0  0  0  0
  1  7  1  0  0  0  0
  3  8  1  0  0  0  0
  4  9  1  0  0  0  0
  6 10  1  0  0  0  0
 10 12  2  0  0  0  0
  8 11  2  0  0  0  0
 11 12  1  0  0  0  0
 11 13  1  0  0  0  0
  7 14  1  0  0  0  0
  7 15  1  0  0  0  0
  9 16  2  0  0  0  0
  9 17  1  0  0  0  0
 15 18  1  0  0  0  0
 14 19  1  0  0  0  0
 19 22  1  0  0  0  0
 17 20  2  0  0  0  0
 16 21  1  0  0  0  0
 18 22  1  0  0  0  0
 20 23  1  0  0  0  0
 21 23  2  0  0  0  0
M  END
> <IDNUMBER>
3497-0078

> <available>
1

> <H_acceptor>
2

> <H_donor>
0

> <B_rotN>
2

> <N_O>
3

> <logP>
6.3264

> <logD>
5.742

> <logSw>
-6.556

> <PSA>
21.6385

> <pKa_ma>
21.6185

> <pKa_mb>
7.8534

> <N_Chirals>
0

> <Name>
6-chloro-2-phenyl-4-(piperidin-1-yl)quinazoline

> <Smile>
Clc1cc2c(N3CCCCC3)nc(-c3ccccc3)nc2cc1

> <Color>
NOT COLORED

> <Collection>
NC

> <InChI>
InChI=1S/C19H18ClN3/c20-15-9-10-17-16(13-15)19(23-11-5-2-6-12-23)22-18(21-17)14-7-3-1-4-8-14/h1,3-4,7-10,13H,2,5-6,11-12H2

> <InChI Key>
RACDUDJYCUWVRR-UHFFFAOYSA-N

> <PERCENTSP3>
26.3

> <Link>
https://www.chemdiv.com/catalog/screening-compounds/compound-3497-0078/

> <MFCDNUMBER>
MFCD00823083

> <CLNUMBER>
CL2243

> <STEREO>
ACHIRAL

> <State>
Solid

> <Similarity score>
0.21

$$$$
3-(3-bromophenyl)-6-fluoro-1-(4-methylphenyl)-1H-pyrazolo[4,3-c]quinoline
  -OEChem-04222410502D

 28 32  0     0  0  0  0  0  0999 V2000
   -0.8733    0.4380    0.0000 N   0  0  0  0  0  0  0  0  0  0  0  0
   -0.2085   -1.0328    0.0000 C   0  0  0  0  0  0  0  0  0  0  0  0
    0.1212    0.5443    0.0000 N   0  0  0  0  0  0  0  0  0  0  0  0
   -1.0843   -0.5251    0.0000 C   0  0  0  0  0  0  0  0  0  0  0  0
    0.5452   -0.3454    0.0000 C   0  0  0  0  0  0  0  0  0  0  0  0
   -1.9653   -1.0328    0.0000 C   0  0  0  0  0  0  0  0  0  0  0  0
   -1.0843   -2.5193    0.0000 N   0  0  0  0  0  0  0  0  0  0  0  0
   -1.9653   -2.0204    0.0000 C   0  0  0  0  0  0  0  0  0  0  0  0
   -0.2085   -2.0204    0.0000 C   0  0  0  0  0  0  0  0  0  0  0  0
    1.5553   -0.4518    0.0000 C   0  0  0  0  0  0  0  0  0  0  0  0
   -1.4961    1.2074    0.0000 C   0  0  0  0  0  0  0  0  0  0  0  0
   -2.8360   -2.5193    0.0000 C   0  0  0  0  0  0  0  0  0  0  0  0
    2.1294    0.3648    0.0000 C   0  0  0  0  0  0  0  0  0  0  0  0
   -1.1454    2.1267    0.0000 C   0  0  0  0  0  0  0  0  0  0  0  0
   -2.4713    1.0468    0.0000 C   0  0  0  0  0  0  0  0  0  0  0  0
   -2.8360   -0.5251    0.0000 C   0  0  0  0  0  0  0  0  0  0  0  0
    3.1413    0.2722    0.0000 C   0  0  0  0  0  0  0  0  0  0  0  0
   -2.8360   -3.5137    0.0000 F   0  0  0  0  0  0  0  0  0  0  0  0
   -1.7683    2.8961    0.0000 C   0  0  0  0  0  0  0  0  0  0  0  0
   -3.0925    1.8074    0.0000 C   0  0  0  0  0  0  0  0  0  0  0  0
   -2.7435    2.7443    0.0000 C   0  0  0  0  0  0  0  0  0  0  0  0
    3.7101    1.0922    0.0000 Br  0  0  0  0  0  0  0  0  0  0  0  0
    1.9636   -1.3573    0.0000 C   0  0  0  0  0  0  0  0  0  0  0  0
   -3.6997   -1.0328    0.0000 C   0  0  0  0  0  0  0  0  0  0  0  0
    2.9738   -1.4568    0.0000 C   0  0  0  0  0  0  0  0  0  0  0  0
   -3.7101   -2.0204    0.0000 C   0  0  0  0  0  0  0  0  0  0  0  0
    3.5793   -0.6333    0.0000 C   0  0  0  0  0  0  0  0  0  0  0  0
   -3.3768    3.5137    0.0000 C   0  0  0  0  0  0  0  0  0  0  0  0
  2  4  2  0  0  0  0
  2  5  1  0  0  0  0
  1  3  1  0  0  0  0
  1  4  1  0  0  0  0
  3  5  2  0  0  0  0
  4  6  1  0  0  0  0
  7  8  1  0  0  0  0
  7  9  2  0  0  0  0
  6  8  1  0  0  0  0
  2  9  1  0  0  0  0
  5 10  1  0  0  0  0
  1 11  1  0  0  0  0
  8 12  2  0  0  0  0
 10 13  1  0  0  0  0
 11 14  2  0  0  0  0
 11 15  1  0  0  0  0
  6 16  2  0  0  0  0
 13 17  2  0  0  0  0
 12 18  1  0  0  0  0
 14 19  1  0  0  0  0
 15 20  2  0  0  0  0
 20 21  1  0  0  0  0
 19 21  2  0  0  0  0
 17 22  1  0  0  0  0
 10 23  2  0  0  0  0
 16 24  1  0  0  0  0
 23 25  1  0  0  0  0
 24 26  2  0  0  0  0
 12 26  1  0  0  0  0
 25 27  2  0  0  0  0
 17 27  1  0  0  0  0
 21 28  1  0  0  0  0
M  END
> <IDNUMBER>
C350-0858

> <available>
91

> <H_acceptor>
2

> <H_donor>
0

> <B_rotN>
2

> <N_O>
3

> <logP>
6.5716

> <logD>
6.5716

> <logSw>
-6.139

> <PSA>
23.4803

> <pKa_ma>
28.3737

> <pKa_mb>
3.0286

> <N_Chirals>
0

> <Name>
3-(3-bromophenyl)-6-fluoro-1-(4-methylphenyl)-1H-pyrazolo[4,3-c]quinoline

> <Smile>
Cc(cc1)ccc1-n(c(c1ccc2)c3cnc1c2F)nc3-c1cccc(Br)c1

> <Color>
NOT COLORED

> <Collection>
DC

> <InChI>
InChI=1S/C23H15BrFN3/c1-14-8-10-17(11-9-14)28-23-18-6-3-7-20(25)22(18)26-13-19(23)21(27-28)15-4-2-5-16(24)12-15/h2-13H,1H3

> <InChI Key>
IWQGJRRPIZTRCC-UHFFFAOYSA-N

> <PERCENTSP3>
4.3

> <Link>
https://www.chemdiv.com/catalog/screening-compounds/compound-C350-0858/

> <MFCDNUMBER>
MFCD14750712

> <CLNUMBER>
CL4130

> <STEREO>
ACHIRAL

> <State>
Solid

> <Similarity score>
0.21

$$$$
1-(3-cyano-6-fluoroquinolin-4-yl)-N-(3,5-difluorophenyl)piperidine-4-carboxamide
  -OEChem-04222410502D

 30 33  0     0  0  0  0  0  0999 V2000
   -0.4326   -3.2342    0.0000 C   0  0  0  0  0  0  0  0  0  0  0  0
    0.4326   -2.7313    0.0000 C   0  0  0  0  0  0  0  0  0  0  0  0
    0.4326   -1.7353    0.0000 N   0  0  0  0  0  0  0  0  0  0  0  0
    1.3079   -3.2342    0.0000 C   0  0  0  0  0  0  0  0  0  0  0  0
    0.4477    1.2775    0.0000 C   0  0  0  0  0  0  0  0  0  0  0  0
    0.4326   -4.7534    0.0000 N   0  0  0  0  0  0  0  0  0  0  0  0
    1.3079    1.7754    0.0000 N   0  0  0  0  0  0  0  0  0  0  0  0
    1.2925    2.7714    0.0000 C   0  0  0  0  0  0  0  0  0  0  0  0
    2.1778   -2.7463    0.0000 C   0  0  0  0  0  0  0  0  0  0  0  0
    3.0380   -2.2333    0.0000 N   0  0  0  0  0  0  0  0  0  0  0  0
   -0.4427   -4.2452    0.0000 C   0  0  0  0  0  0  0  0  0  0  0  0
   -1.3027   -2.7363    0.0000 C   0  0  0  0  0  0  0  0  0  0  0  0
    1.3079   -4.2452    0.0000 C   0  0  0  0  0  0  0  0  0  0  0  0
    0.4477    0.2663    0.0000 C   0  0  0  0  0  0  0  0  0  0  0  0
    0.4427    3.2393    0.0000 C   0  0  0  0  0  0  0  0  0  0  0  0
    2.1527    3.2544    0.0000 C   0  0  0  0  0  0  0  0  0  0  0  0
    1.3024   -1.2273    0.0000 C   0  0  0  0  0  0  0  0  0  0  0  0
   -0.4277   -1.2273    0.0000 C   0  0  0  0  0  0  0  0  0  0  0  0
    0.4176    4.2200    0.0000 C   0  0  0  0  0  0  0  0  0  0  0  0
    2.1377    4.2504    0.0000 C   0  0  0  0  0  0  0  0  0  0  0  0
   -0.4176    1.7804    0.0000 O   0  0  0  0  0  0  0  0  0  0  0  0
    1.2625    4.7483    0.0000 C   0  0  0  0  0  0  0  0  0  0  0  0
   -0.4277   -0.2262    0.0000 C   0  0  0  0  0  0  0  0  0  0  0  0
    1.3079   -0.2313    0.0000 C   0  0  0  0  0  0  0  0  0  0  0  0
   -1.3027   -4.7433    0.0000 C   0  0  0  0  0  0  0  0  0  0  0  0
   -2.1681   -3.2342    0.0000 C   0  0  0  0  0  0  0  0  0  0  0  0
   -0.4577    4.7029    0.0000 F   0  0  0  0  0  0  0  0  0  0  0  0
    2.9979    4.7534    0.0000 F   0  0  0  0  0  0  0  0  0  0  0  0
   -2.1681   -4.2403    0.0000 C   0  0  0  0  0  0  0  0  0  0  0  0
   -3.0380   -2.7213    0.0000 F   0  0  0  0  0  0  0  0  0  0  0  0
  1  2  1  0  0  0  0
  2  3  1  0  0  0  0
  2  4  2  0  0  0  0
  5 14  1  0  0  0  0
  6 11  1  0  0  0  0
  5  7  1  0  0  0  0
  7  8  1  0  0  0  0
  4  9  1  0  0  0  0
  9 10  3  0  0  0  0
  1 11  1  0  0  0  0
  1 12  2  0  0  0  0
  6 13  2  0  0  0  0
  4 13  1  0  0  0  0
 14 23  1  0  0  0  0
  8 15  1  0  0  0  0
  8 16  2  0  0  0  0
  3 17  1  0  0  0  0
  3 18  1  0  0  0  0
 15 19  2  0  0  0  0
 19 22  1  0  0  0  0
 16 20  1  0  0  0  0
  5 21  2  0  0  0  0
 20 22  2  0  0  0  0
 18 23  1  0  0  0  0
 17 24  1  0  0  0  0
 14 24  1  0  0  0  0
 11 25  2  0  0  0  0
 25 29  1  0  0  0  0
 12 26  1  0  0  0  0
 19 27  1  0  0  0  0
 20 28  1  0  0  0  0
 26 29  2  0  0  0  0
 26 30  1  0  0  0  0
M  END
> <IDNUMBER>
L483-0471

> <available>
23

> <H_acceptor>
4

> <H_donor>
1

> <B_rotN>
5

> <N_O>
5

> <logP>
4.0133

> <logD>
3.9635

> <logSw>
-4.0652

> <PSA>
52.089

> <pKa_ma>
8.3176

> <pKa_mb>
4.2541

> <N_Chirals>
0

> <Name>
1-(3-cyano-6-fluoroquinolin-4-yl)-N-(3,5-difluorophenyl)piperidine-4-carboxamide

> <Smile>
N#Cc(cnc(c1c2)ccc2F)c1N(CC1)CCC1C(Nc1cc(F)cc(F)c1)=O

> <Color>
YELLOW

> <Collection>
NC

> <InChI>
InChI=1S/C22H17F3N4O/c23-15-1-2-20-19(10-15)21(14(11-26)12-27-20)29-5-3-13(4-6-29)22(30)28-18-8-16(24)7-17(25)9-18/h1-2,7-10,12-13H,3-6H2,(H,28,30)

> <InChI Key>
HTDWMGWUGCIELU-UHFFFAOYSA-N

> <PERCENTSP3>
22.7

> <Link>
https://www.chemdiv.com/catalog/screening-compounds/compound-L483-0471/

> <MFCDNUMBER>
MFCD27456461

> <CLNUMBER>
CL6761A

> <STEREO>
ACHIRAL

> <State>
Solid

> <Similarity score>
0.21

$$$$
1-(4-chlorophenyl)-6,8-difluoro-3-phenyl-1H-pyrazolo[4,3-c]quinoline
  -OEChem-04222410502D

 28 32  0     0  0  0  0  0  0999 V2000
   -0.3341    0.5182    0.0000 N   0  0  0  0  0  0  0  0  0  0  0  0
    0.3176   -0.9558    0.0000 C   0  0  0  0  0  0  0  0  0  0  0  0
   -0.5466   -0.4560    0.0000 C   0  0  0  0  0  0  0  0  0  0  0  0
    0.6510    0.6245    0.0000 N   0  0  0  0  0  0  0  0  0  0  0  0
    1.0593   -0.2894    0.0000 C   0  0  0  0  0  0  0  0  0  0  0  0
   -1.4090   -0.9706    0.0000 C   0  0  0  0  0  0  0  0  0  0  0  0
   -1.4090   -1.9703    0.0000 C   0  0  0  0  0  0  0  0  0  0  0  0
   -0.5356   -2.4703    0.0000 N   0  0  0  0  0  0  0  0  0  0  0  0
    0.3323   -1.9703    0.0000 C   0  0  0  0  0  0  0  0  0  0  0  0
   -2.2770   -2.4792    0.0000 C   0  0  0  0  0  0  0  0  0  0  0  0
   -1.0008    1.2597    0.0000 C   0  0  0  0  0  0  0  0  0  0  0  0
   -3.1504   -1.9793    0.0000 C   0  0  0  0  0  0  0  0  0  0  0  0
   -2.2770   -0.4652    0.0000 C   0  0  0  0  0  0  0  0  0  0  0  0
   -3.1504   -0.9706    0.0000 C   0  0  0  0  0  0  0  0  0  0  0  0
    2.0425   -0.4852    0.0000 C   0  0  0  0  0  0  0  0  0  0  0  0
   -0.6967    2.1992    0.0000 C   0  0  0  0  0  0  0  0  0  0  0  0
   -1.9693    1.0584    0.0000 C   0  0  0  0  0  0  0  0  0  0  0  0
   -2.2881   -3.4700    0.0000 F   0  0  0  0  0  0  0  0  0  0  0  0
   -2.3337    2.7302    0.0000 C   0  0  0  0  0  0  0  0  0  0  0  0
   -4.0128   -0.4708    0.0000 F   0  0  0  0  0  0  0  0  0  0  0  0
   -2.6358    1.7853    0.0000 C   0  0  0  0  0  0  0  0  0  0  0  0
   -1.3541    2.9353    0.0000 C   0  0  0  0  0  0  0  0  0  0  0  0
   -2.9983    3.4700    0.0000 Cl  0  0  0  0  0  0  0  0  0  0  0  0
    2.7092    0.2620    0.0000 C   0  0  0  0  0  0  0  0  0  0  0  0
    2.3612   -1.4392    0.0000 C   0  0  0  0  0  0  0  0  0  0  0  0
    3.3464   -1.6463    0.0000 C   0  0  0  0  0  0  0  0  0  0  0  0
    3.6887    0.0642    0.0000 C   0  0  0  0  0  0  0  0  0  0  0  0
    4.0128   -0.8954    0.0000 C   0  0  0  0  0  0  0  0  0  0  0  0
  2  3  2  0  0  0  0
  2  5  1  0  0  0  0
  1  3  1  0  0  0  0
  1  4  1  0  0  0  0
  4  5  2  0  0  0  0
  3  6  1  0  0  0  0
  6  7  1  0  0  0  0
  7  8  1  0  0  0  0
  2  9  1  0  0  0  0
  8  9  2  0  0  0  0
  7 10  2  0  0  0  0
  1 11  1  0  0  0  0
 12 14  2  0  0  0  0
 10 12  1  0  0  0  0
  6 13  2  0  0  0  0
 13 14  1  0  0  0  0
  5 15  1  0  0  0  0
 11 16  2  0  0  0  0
 11 17  1  0  0  0  0
 10 18  1  0  0  0  0
 19 21  1  0  0  0  0
 14 20  1  0  0  0  0
 17 21  2  0  0  0  0
 16 22  1  0  0  0  0
 19 22  2  0  0  0  0
 19 23  1  0  0  0  0
 15 24  1  0  0  0  0
 15 25  2  0  0  0  0
 25 26  1  0  0  0  0
 24 27  2  0  0  0  0
 27 28  1  0  0  0  0
 26 28  2  0  0  0  0
M  END
> <IDNUMBER>
C350-0109

> <available>
60

> <H_acceptor>
2

> <H_donor>
0

> <B_rotN>
2

> <N_O>
3

> <logP>
5.9164

> <logD>
5.9164

> <logSw>
-6.47

> <PSA>
23.4803

> <pKa_ma>
14

> <pKa_mb>
2.2647

> <N_Chirals>
0

> <Name>
1-(4-chlorophenyl)-6,8-difluoro-3-phenyl-1H-pyrazolo[4,3-c]quinoline

> <Smile>
Fc(cc12)cc(F)c1ncc1c2n(-c(cc2)ccc2Cl)nc1-c1ccccc1

> <Color>
NOT COLORED

> <Collection>
DC

> <InChI>
InChI=1S/C22H12ClF2N3/c23-14-6-8-16(9-7-14)28-22-17-10-15(24)11-19(25)21(17)26-12-18(22)20(27-28)13-4-2-1-3-5-13/h1-12H

> <InChI Key>
YPZVVCJTJLRYSZ-UHFFFAOYSA-N

> <PERCENTSP3>
0

> <Link>
https://www.chemdiv.com/catalog/screening-compounds/compound-C350-0109/

> <MFCDNUMBER>
MFCD14750136

> <CLNUMBER>
CL4130

> <STEREO>
ACHIRAL

> <State>
Solid

> <Similarity score>
0.21

$$$$
1-(4-bromophenyl)-6,8-difluoro-3-phenyl-1H-pyrazolo[4,3-c]quinoline
  -OEChem-04222410502D

 28 32  0     0  0  0  0  0  0999 V2000
   -0.3341    0.5182    0.0000 N   0  0  0  0  0  0  0  0  0  0  0  0
    0.3176   -0.9558    0.0000 C   0  0  0  0  0  0  0  0  0  0  0  0
   -0.5466   -0.4560    0.0000 C   0  0  0  0  0  0  0  0  0  0  0  0
    0.6510    0.6245    0.0000 N   0  0  0  0  0  0  0  0  0  0  0  0
    1.0593   -0.2894    0.0000 C   0  0  0  0  0  0  0  0  0  0  0  0
   -1.4090   -0.9706    0.0000 C   0  0  0  0  0  0  0  0  0  0  0  0
   -1.4090   -1.9703    0.0000 C   0  0  0  0  0  0  0  0  0  0  0  0
   -0.5356   -2.4703    0.0000 N   0  0  0  0  0  0  0  0  0  0  0  0
    0.3323   -1.9703    0.0000 C   0  0  0  0  0  0  0  0  0  0  0  0
   -2.2770   -2.4792    0.0000 C   0  0  0  0  0  0  0  0  0  0  0  0
   -1.0008    1.2597    0.0000 C   0  0  0  0  0  0  0  0  0  0  0  0
   -3.1504   -1.9793    0.0000 C   0  0  0  0  0  0  0  0  0  0  0  0
   -2.2770   -0.4652    0.0000 C   0  0  0  0  0  0  0  0  0  0  0  0
   -3.1504   -0.9706    0.0000 C   0  0  0  0  0  0  0  0  0  0  0  0
    2.0425   -0.4852    0.0000 C   0  0  0  0  0  0  0  0  0  0  0  0
   -0.6967    2.1992    0.0000 C   0  0  0  0  0  0  0  0  0  0  0  0
   -1.9693    1.0584    0.0000 C   0  0  0  0  0  0  0  0  0  0  0  0
   -2.2881   -3.4700    0.0000 F   0  0  0  0  0  0  0  0  0  0  0  0
   -2.3337    2.7302    0.0000 C   0  0  0  0  0  0  0  0  0  0  0  0
   -4.0128   -0.4708    0.0000 F   0  0  0  0  0  0  0  0  0  0  0  0
   -2.6358    1.7853    0.0000 C   0  0  0  0  0  0  0  0  0  0  0  0
   -1.3541    2.9353    0.0000 C   0  0  0  0  0  0  0  0  0  0  0  0
   -2.9983    3.4700    0.0000 Br  0  0  0  0  0  0  0  0  0  0  0  0
    2.7092    0.2620    0.0000 C   0  0  0  0  0  0  0  0  0  0  0  0
    2.3612   -1.4392    0.0000 C   0  0  0  0  0  0  0  0  0  0  0  0
    3.3464   -1.6463    0.0000 C   0  0  0  0  0  0  0  0  0  0  0  0
    3.6887    0.0642    0.0000 C   0  0  0  0  0  0  0  0  0  0  0  0
    4.0128   -0.8954    0.0000 C   0  0  0  0  0  0  0  0  0  0  0  0
  2  3  2  0  0  0  0
  2  5  1  0  0  0  0
  1  3  1  0  0  0  0
  1  4  1  0  0  0  0
  4  5  2  0  0  0  0
  3  6  1  0  0  0  0
  6  7  1  0  0  0  0
  7  8  1  0  0  0  0
  2  9  1  0  0  0  0
  8  9  2  0  0  0  0
  7 10  2  0  0  0  0
  1 11  1  0  0  0  0
 12 14  2  0  0  0  0
 10 12  1  0  0  0  0
  6 13  2  0  0  0  0
 13 14  1  0  0  0  0
  5 15  1  0  0  0  0
 11 16  2  0  0  0  0
 11 17  1  0  0  0  0
 10 18  1  0  0  0  0
 19 21  1  0  0  0  0
 14 20  1  0  0  0  0
 17 21  2  0  0  0  0
 16 22  1  0  0  0  0
 19 22  2  0  0  0  0
 19 23  1  0  0  0  0
 15 24  1  0  0  0  0
 15 25  2  0  0  0  0
 25 26  1  0  0  0  0
 24 27  2  0  0  0  0
 27 28  1  0  0  0  0
 26 28  2  0  0  0  0
M  END
> <IDNUMBER>
C350-0108

> <available>
67

> <H_acceptor>
2

> <H_donor>
0

> <B_rotN>
2

> <N_O>
3

> <logP>
6.1555

> <logD>
6.1555

> <logSw>
-6.3292

> <PSA>
23.4803

> <pKa_ma>
14

> <pKa_mb>
2.2647

> <N_Chirals>
0

> <Name>
1-(4-bromophenyl)-6,8-difluoro-3-phenyl-1H-pyrazolo[4,3-c]quinoline

> <Smile>
Fc(cc12)cc(F)c1ncc1c2n(-c(cc2)ccc2Br)nc1-c1ccccc1

> <Color>
NOT COLORED

> <Collection>
DC

> <InChI>
InChI=1S/C22H12BrF2N3/c23-14-6-8-16(9-7-14)28-22-17-10-15(24)11-19(25)21(17)26-12-18(22)20(27-28)13-4-2-1-3-5-13/h1-12H

> <InChI Key>
IQJFCCRKYOCKAH-UHFFFAOYSA-N

> <PERCENTSP3>
0

> <Link>
https://www.chemdiv.com/catalog/screening-compounds/compound-C350-0108/

> <MFCDNUMBER>
MFCD14750135

> <CLNUMBER>
CL4130

> <STEREO>
ACHIRAL

> <State>
Solid

> <Similarity score>
0.21

$$$$
6,8-difluoro-1-(4-methylphenyl)-3-phenyl-1H-pyrazolo[4,3-c]quinoline
  -OEChem-04222410502D

 28 32  0     0  0  0  0  0  0999 V2000
   -0.3339    0.5179    0.0000 N   0  0  0  0  0  0  0  0  0  0  0  0
    0.3171   -0.9549    0.0000 C   0  0  0  0  0  0  0  0  0  0  0  0
   -0.5463   -0.4562    0.0000 C   0  0  0  0  0  0  0  0  0  0  0  0
    0.6509    0.6241    0.0000 N   0  0  0  0  0  0  0  0  0  0  0  0
    1.0587   -0.2900    0.0000 C   0  0  0  0  0  0  0  0  0  0  0  0
   -1.4081   -0.9704    0.0000 C   0  0  0  0  0  0  0  0  0  0  0  0
   -1.4081   -1.9705    0.0000 C   0  0  0  0  0  0  0  0  0  0  0  0
   -0.5355   -2.4691    0.0000 N   0  0  0  0  0  0  0  0  0  0  0  0
    0.3324   -1.9705    0.0000 C   0  0  0  0  0  0  0  0  0  0  0  0
   -2.2761   -2.4800    0.0000 C   0  0  0  0  0  0  0  0  0  0  0  0
   -1.0004    1.2595    0.0000 C   0  0  0  0  0  0  0  0  0  0  0  0
   -3.1485   -1.9798    0.0000 C   0  0  0  0  0  0  0  0  0  0  0  0
   -2.2761   -0.4655    0.0000 C   0  0  0  0  0  0  0  0  0  0  0  0
   -3.1485   -0.9704    0.0000 C   0  0  0  0  0  0  0  0  0  0  0  0
    2.0437   -0.4871    0.0000 C   0  0  0  0  0  0  0  0  0  0  0  0
   -0.6971    2.1985    0.0000 C   0  0  0  0  0  0  0  0  0  0  0  0
   -1.9683    1.0473    0.0000 C   0  0  0  0  0  0  0  0  0  0  0  0
   -2.2868   -3.4695    0.0000 F   0  0  0  0  0  0  0  0  0  0  0  0
   -4.0120   -0.4717    0.0000 F   0  0  0  0  0  0  0  0  0  0  0  0
   -2.6330    1.7845    0.0000 C   0  0  0  0  0  0  0  0  0  0  0  0
   -1.3527    2.9354    0.0000 C   0  0  0  0  0  0  0  0  0  0  0  0
   -2.3315    2.7277    0.0000 C   0  0  0  0  0  0  0  0  0  0  0  0
    2.3606   -1.4396    0.0000 C   0  0  0  0  0  0  0  0  0  0  0  0
    2.7100    0.2608    0.0000 C   0  0  0  0  0  0  0  0  0  0  0  0
   -2.9963    3.4695    0.0000 C   0  0  0  0  0  0  0  0  0  0  0  0
    3.3458   -1.6474    0.0000 C   0  0  0  0  0  0  0  0  0  0  0  0
    3.6888    0.0638    0.0000 C   0  0  0  0  0  0  0  0  0  0  0  0
    4.0120   -0.8948    0.0000 C   0  0  0  0  0  0  0  0  0  0  0  0
  2  3  2  0  0  0  0
  2  5  1  0  0  0  0
  1  3  1  0  0  0  0
  1  4  1  0  0  0  0
  4  5  2  0  0  0  0
  3  6  1  0  0  0  0
  6  7  1  0  0  0  0
  7  8  1  0  0  0  0
  2  9  1  0  0  0  0
  8  9  2  0  0  0  0
  7 10  2  0  0  0  0
  1 11  1  0  0  0  0
 12 14  2  0  0  0  0
 10 12  1  0  0  0  0
  6 13  2  0  0  0  0
 13 14  1  0  0  0  0
  5 15  1  0  0  0  0
 11 16  2  0  0  0  0
 11 17  1  0  0  0  0
 10 18  1  0  0  0  0
 14 19  1  0  0  0  0
 17 20  2  0  0  0  0
 16 21  1  0  0  0  0
 21 22  2  0  0  0  0
 20 22  1  0  0  0  0
 15 23  2  0  0  0  0
 15 24  1  0  0  0  0
 22 25  1  0  0  0  0
 23 26  1  0  0  0  0
 26 28  2  0  0  0  0
 24 27  2  0  0  0  0
 27 28  1  0  0  0  0
M  END
> <IDNUMBER>
C350-0100

> <available>
68

> <H_acceptor>
2

> <H_donor>
0

> <B_rotN>
2

> <N_O>
3

> <logP>
5.745

> <logD>
5.745

> <logSw>
-5.7314

> <PSA>
23.4803

> <pKa_ma>
28.3737

> <pKa_mb>
2.5095

> <N_Chirals>
0

> <Name>
6,8-difluoro-1-(4-methylphenyl)-3-phenyl-1H-pyrazolo[4,3-c]quinoline

> <Smile>
Cc(cc1)ccc1-n(c1c(cc(cc2F)F)c2ncc11)nc1-c1ccccc1

> <Color>
NOT COLORED

> <Collection>
DC

> <InChI>
InChI=1S/C23H15F2N3/c1-14-7-9-17(10-8-14)28-23-18-11-16(24)12-20(25)22(18)26-13-19(23)21(27-28)15-5-3-2-4-6-15/h2-13H,1H3

> <InChI Key>
NVLCCVUWOYLQAN-UHFFFAOYSA-N

> <PERCENTSP3>
4.3

> <Link>
https://www.chemdiv.com/catalog/screening-compounds/compound-C350-0100/

> <MFCDNUMBER>
MFCD14750127

> <CLNUMBER>
CL4130

> <STEREO>
ACHIRAL

> <State>
Solid

> <Similarity score>
0.21

$$$$
4-(3,5-dimethylpiperidin-1-yl)-3-(4-fluorophenyl)[1,2]oxazolo[5,4-d]pyrimidine
  -OEChem-04222410502D

 24 27  0     0  0  0  0  0  0999 V2000
    0.3880   -1.0151    0.0000 C   0  0  0  0  0  0  0  0  0  0  0  0
    1.2392    0.4911    0.0000 N   0  0  0  0  0  0  0  0  0  0  0  0
    1.2491   -0.5062    0.0000 C   0  0  0  0  0  0  0  0  0  0  0  0
   -1.1536   -1.5186    0.0000 N   0  0  0  0  0  0  0  0  0  0  0  0
   -0.5642   -0.7127    0.0000 C   0  0  0  0  0  0  0  0  0  0  0  0
    0.3880   -2.0175    0.0000 C   0  0  0  0  0  0  0  0  0  0  0  0
   -0.5591   -2.3347    0.0000 O   0  0  0  0  0  0  0  0  0  0  0  0
    2.1257   -1.0048    0.0000 N   0  0  0  0  0  0  0  0  0  0  0  0
    1.2642   -2.5161    0.0000 N   0  0  0  0  0  0  0  0  0  0  0  0
    2.1003    0.9897    0.0000 C   0  0  0  0  0  0  0  0  0  0  0  0
    0.3777    0.9897    0.0000 C   0  0  0  0  0  0  0  0  0  0  0  0
   -1.1636    0.0983    0.0000 C   0  0  0  0  0  0  0  0  0  0  0  0
    2.1306   -2.0024    0.0000 C   0  0  0  0  0  0  0  0  0  0  0  0
   -2.1508   -0.0076    0.0000 C   0  0  0  0  0  0  0  0  0  0  0  0
   -0.7605    1.0199    0.0000 C   0  0  0  0  0  0  0  0  0  0  0  0
    2.0955    1.9869    0.0000 C   0  0  3  0  0  0  0  0  0  0  0  0
    0.3629    1.9721    0.0000 C   0  0  3  0  0  0  0  0  0  0  0  0
    1.2240    2.4707    0.0000 C   0  0  0  0  0  0  0  0  0  0  0  0
   -2.3474    1.7051    0.0000 C   0  0  0  0  0  0  0  0  0  0  0  0
   -2.7501    0.7934    0.0000 C   0  0  0  0  0  0  0  0  0  0  0  0
   -1.3498    1.8209    0.0000 C   0  0  0  0  0  0  0  0  0  0  0  0
   -2.9618    2.5161    0.0000 F   0  0  0  0  0  0  0  0  0  0  0  0
    2.9618    2.4907    0.0000 C   0  0  0  0  0  0  0  0  0  0  0  0
   -0.4986    2.4556    0.0000 C   0  0  0  0  0  0  0  0  0  0  0  0
  2  3  1  0  0  0  0
  1  3  1  0  0  0  0
  4  5  2  0  0  0  0
  1  5  1  0  0  0  0
  1  6  2  0  0  0  0
  6  7  1  0  0  0  0
  4  7  1  0  0  0  0
  3  8  2  0  0  0  0
  8 13  1  0  0  0  0
  6  9  1  0  0  0  0
  2 10  1  0  0  0  0
  2 11  1  0  0  0  0
  5 12  1  0  0  0  0
  9 13  2  0  0  0  0
 12 14  1  0  0  0  0
 12 15  2  0  0  0  0
 10 16  1  0  0  0  0
 11 17  1  0  0  0  0
 17 18  1  0  0  0  0
 16 18  1  0  0  0  0
 19 21  2  0  0  0  0
 14 20  2  0  0  0  0
 19 20  1  0  0  0  0
 15 21  1  0  0  0  0
 19 22  1  0  0  0  0
 16 23  1  0  0  0  0
 17 24  1  0  0  0  0
M  END
> <IDNUMBER>
E899-0074

> <available>
100

> <H_acceptor>
4

> <H_donor>
0

> <B_rotN>
2

> <N_O>
5

> <logP>
4.2941

> <logD>
4.2941

> <logSw>
-4.5221

> <PSA>
45.401

> <pKa_ma>
21.6325

> <pKa_mb>
2.7118

> <N_Chirals>
2

> <Name>
4-(3,5-dimethylpiperidin-1-yl)-3-(4-fluorophenyl)[1,2]oxazolo[5,4-d]pyrimidine

> <Smile>
CC(CC(C)C1)CN1c1c(c(-c(cc2)ccc2F)no2)c2ncn1

> <Color>
NOT COLORED

> <Collection>
DC

> <InChI>
InChI=1S/C18H19FN4O/c1-11-7-12(2)9-23(8-11)17-15-16(13-3-5-14(19)6-4-13)22-24-18(15)21-10-20-17/h3-6,10-12H,7-9H2,1-2H3

> <InChI Key>
ANSNSLYKFXSGIO-UHFFFAOYSA-N

> <PERCENTSP3>
38.9

> <Link>
https://www.chemdiv.com/catalog/screening-compounds/compound-E899-0074/

> <MFCDNUMBER>
MFCD14926671

> <CLNUMBER>
CL5509

> <STEREO>
MIXTURE OF STEREOISOMERS

> <State>
Solid

> <Similarity score>
0.21

$$$$
N-(3-chloro-4-fluorophenyl)-1-(morpholin-4-yl)isoquinoline-4-carboxamide
  -OEChem-04222410502D

 27 30  0     0  0  0  0  0  0999 V2000
   -0.2501   -1.2940    0.0000 C   0  0  0  0  0  0  0  0  0  0  0  0
   -1.2503    0.4313    0.0000 C   0  0  0  0  0  0  0  0  0  0  0  0
    0.2501   -2.1650    0.0000 C   0  0  0  0  0  0  0  0  0  0  0  0
   -0.2501    0.4313    0.0000 N   0  0  0  0  0  0  0  0  0  0  0  0
   -1.2503   -1.2940    0.0000 C   0  0  0  0  0  0  0  0  0  0  0  0
   -1.7504   -0.4313    0.0000 C   0  0  0  0  0  0  0  0  0  0  0  0
   -1.7504    1.2984    0.0000 N   0  0  0  0  0  0  0  0  0  0  0  0
    0.2501   -0.4313    0.0000 C   0  0  0  0  0  0  0  0  0  0  0  0
    1.2503   -2.1650    0.0000 N   0  0  0  0  0  0  0  0  0  0  0  0
    1.7504    0.4313    0.0000 C   0  0  0  0  0  0  0  0  0  0  0  0
    1.2503   -0.4313    0.0000 C   0  0  0  0  0  0  0  0  0  0  0  0
    1.7504   -1.2940    0.0000 C   0  0  0  0  0  0  0  0  0  0  0  0
   -0.2501   -3.0319    0.0000 O   0  0  0  0  0  0  0  0  0  0  0  0
    2.7506    0.4313    0.0000 C   0  0  0  0  0  0  0  0  0  0  0  0
   -2.7506    3.0319    0.0000 O   0  0  0  0  0  0  0  0  0  0  0  0
    3.2507   -0.4313    0.0000 C   0  0  0  0  0  0  0  0  0  0  0  0
    1.2503    1.2984    0.0000 Cl  0  0  0  0  0  0  0  0  0  0  0  0
    2.7506   -1.2940    0.0000 C   0  0  0  0  0  0  0  0  0  0  0  0
    3.2507    1.2984    0.0000 F   0  0  0  0  0  0  0  0  0  0  0  0
   -2.7506    1.2984    0.0000 C   0  0  0  0  0  0  0  0  0  0  0  0
   -1.2503    2.1692    0.0000 C   0  0  0  0  0  0  0  0  0  0  0  0
   -1.7504   -2.1650    0.0000 C   0  0  0  0  0  0  0  0  0  0  0  0
   -2.7506   -0.4313    0.0000 C   0  0  0  0  0  0  0  0  0  0  0  0
   -1.7504    3.0319    0.0000 C   0  0  0  0  0  0  0  0  0  0  0  0
   -3.2507    2.1692    0.0000 C   0  0  0  0  0  0  0  0  0  0  0  0
   -2.7506   -2.1650    0.0000 C   0  0  0  0  0  0  0  0  0  0  0  0
   -3.2507   -1.2940    0.0000 C   0  0  0  0  0  0  0  0  0  0  0  0
  2  4  2  0  0  0  0
  2  6  1  0  0  0  0
  1  3  1  0  0  0  0
  4  8  1  0  0  0  0
  1  5  1  0  0  0  0
  5  6  1  0  0  0  0
  2  7  1  0  0  0  0
  1  8  2  0  0  0  0
  3  9  1  0  0  0  0
 10 11  2  0  0  0  0
 11 12  1  0  0  0  0
  9 12  1  0  0  0  0
  3 13  2  0  0  0  0
 14 16  2  0  0  0  0
 10 14  1  0  0  0  0
 15 24  1  0  0  0  0
 16 18  1  0  0  0  0
 10 17  1  0  0  0  0
 12 18  2  0  0  0  0
 14 19  1  0  0  0  0
  7 20  1  0  0  0  0
  7 21  1  0  0  0  0
  5 22  2  0  0  0  0
  6 23  2  0  0  0  0
 23 27  1  0  0  0  0
 21 24  1  0  0  0  0
 20 25  1  0  0  0  0
 15 25  1  0  0  0  0
 22 26  1  0  0  0  0
 26 27  2  0  0  0  0
M  END
> <IDNUMBER>
G817-0245

> <available>
139

> <H_acceptor>
4

> <H_donor>
1

> <B_rotN>
4

> <N_O>
5

> <logP>
4.3004

> <logD>
4.2912

> <logSw>
-4.547

> <PSA>
43.489

> <pKa_ma>
9.1669

> <pKa_mb>
5.0343

> <N_Chirals>
0

> <Name>
N-(3-chloro-4-fluorophenyl)-1-(morpholin-4-yl)isoquinoline-4-carboxamide

> <Smile>
O=C(c(c1ccccc11)cnc1N1CCOCC1)Nc(cc1)cc(Cl)c1F

> <Color>
NOT COLORED

> <Collection>
DC

> <InChI>
InChI=1S/C20H17ClFN3O2/c21-17-11-13(5-6-18(17)22)24-20(26)16-12-23-19(25-7-9-27-10-8-25)15-4-2-1-3-14(15)16/h1-6,11-12H,7-10H2,(H,24,26)

> <InChI Key>
YVIKZHVUFPYMKD-UHFFFAOYSA-N

> <PERCENTSP3>
20

> <Link>
https://www.chemdiv.com/catalog/screening-compounds/compound-G817-0245/

> <MFCDNUMBER>
MFCD15038704

> <CLNUMBER>
CL1054

> <STEREO>
ACHIRAL

> <State>
Solid

> <Similarity score>
0.21

$$$$
1-(3-cyano-6-ethoxyquinolin-4-yl)-N-(3,4-difluorophenyl)piperidine-4-carboxamide
  -OEChem-04222410502D

 32 35  0     0  0  0  0  0  0999 V2000
    0.4173   -3.7329    0.0000 C   0  0  0  0  0  0  0  0  0  0  0  0
    1.2921   -3.2201    0.0000 C   0  0  0  0  0  0  0  0  0  0  0  0
    1.2921   -2.2246    0.0000 N   0  0  0  0  0  0  0  0  0  0  0  0
    2.1671   -3.7329    0.0000 C   0  0  0  0  0  0  0  0  0  0  0  0
    1.3021    0.7767    0.0000 C   0  0  0  0  0  0  0  0  0  0  0  0
    1.2872   -5.2412    0.0000 N   0  0  0  0  0  0  0  0  0  0  0  0
    2.1671    1.2744    0.0000 N   0  0  0  0  0  0  0  0  0  0  0  0
    3.0366   -3.2351    0.0000 C   0  0  0  0  0  0  0  0  0  0  0  0
    3.8964   -2.7223    0.0000 N   0  0  0  0  0  0  0  0  0  0  0  0
    0.4173   -4.7435    0.0000 C   0  0  0  0  0  0  0  0  0  0  0  0
    2.9965    3.7532    0.0000 C   0  0  0  0  0  0  0  0  0  0  0  0
    3.0114    2.7577    0.0000 C   0  0  0  0  0  0  0  0  0  0  0  0
   -0.4475   -3.2351    0.0000 C   0  0  0  0  0  0  0  0  0  0  0  0
    2.1671   -4.7435    0.0000 C   0  0  0  0  0  0  0  0  0  0  0  0
    2.1517    2.2699    0.0000 C   0  0  0  0  0  0  0  0  0  0  0  0
    1.3021   -0.2285    0.0000 C   0  0  0  0  0  0  0  0  0  0  0  0
    2.1216    4.2459    0.0000 C   0  0  0  0  0  0  0  0  0  0  0  0
    0.4273   -1.7268    0.0000 C   0  0  0  0  0  0  0  0  0  0  0  0
    2.1617   -1.7268    0.0000 C   0  0  0  0  0  0  0  0  0  0  0  0
    0.4324    1.2798    0.0000 O   0  0  0  0  0  0  0  0  0  0  0  0
    0.4324   -0.7262    0.0000 C   0  0  0  0  0  0  0  0  0  0  0  0
    2.1671   -0.7313    0.0000 C   0  0  0  0  0  0  0  0  0  0  0  0
    1.2718    3.7332    0.0000 C   0  0  0  0  0  0  0  0  0  0  0  0
   -0.4475   -5.2412    0.0000 C   0  0  0  0  0  0  0  0  0  0  0  0
   -1.3173   -3.7329    0.0000 C   0  0  0  0  0  0  0  0  0  0  0  0
    3.8562    4.2611    0.0000 F   0  0  0  0  0  0  0  0  0  0  0  0
    1.2921    2.7377    0.0000 C   0  0  0  0  0  0  0  0  0  0  0  0
    2.1166    5.2412    0.0000 F   0  0  0  0  0  0  0  0  0  0  0  0
   -1.3173   -4.7384    0.0000 C   0  0  0  0  0  0  0  0  0  0  0  0
   -2.1767   -3.2351    0.0000 O   0  0  0  0  0  0  0  0  0  0  0  0
   -3.0366   -3.7329    0.0000 C   0  0  0  0  0  0  0  0  0  0  0  0
   -3.8964   -3.2351    0.0000 C   0  0  0  0  0  0  0  0  0  0  0  0
  1  2  1  0  0  0  0
  2  3  1  0  0  0  0
  2  4  2  0  0  0  0
  5 16  1  0  0  0  0
  6 10  1  0  0  0  0
  5  7  1  0  0  0  0
  4  8  1  0  0  0  0
  8  9  3  0  0  0  0
  1 10  1  0  0  0  0
 11 12  1  0  0  0  0
 12 15  2  0  0  0  0
  1 13  2  0  0  0  0
  6 14  2  0  0  0  0
  4 14  1  0  0  0  0
  7 15  1  0  0  0  0
 16 22  1  0  0  0  0
 17 23  1  0  0  0  0
 11 17  2  0  0  0  0
  3 18  1  0  0  0  0
  3 19  1  0  0  0  0
  5 20  2  0  0  0  0
 18 21  1  0  0  0  0
 16 21  1  0  0  0  0
 19 22  1  0  0  0  0
 23 27  2  0  0  0  0
 10 24  2  0  0  0  0
 24 29  1  0  0  0  0
 13 25  1  0  0  0  0
 11 26  1  0  0  0  0
 15 27  1  0  0  0  0
 17 28  1  0  0  0  0
 25 29  2  0  0  0  0
 25 30  1  0  0  0  0
 30 31  1  0  0  0  0
 31 32  1  0  0  0  0
M  END
> <IDNUMBER>
L483-0739

> <available>
77

> <H_acceptor>
5

> <H_donor>
1

> <B_rotN>
7

> <N_O>
6

> <logP>
4.2547

> <logD>
4.1847

> <logSw>
-4.0722

> <PSA>
59.213

> <pKa_ma>
8.3996

> <pKa_mb>
6.2336

> <N_Chirals>
0

> <Name>
1-(3-cyano-6-ethoxyquinolin-4-yl)-N-(3,4-difluorophenyl)piperidine-4-carboxamide

> <Smile>
CCOc(cc12)ccc2ncc(C#N)c1N(CC1)CCC1C(Nc(cc1)cc(F)c1F)=O

> <Color>
YELLOW

> <Collection>
NC

> <InChI>
InChI=1S/C24H22F2N4O2/c1-2-32-18-4-6-22-19(12-18)23(16(13-27)14-28-22)30-9-7-15(8-10-30)24(31)29-17-3-5-20(25)21(26)11-17/h3-6,11-12,14-15H,2,7-10H2,1H3,(H,29,31)

> <InChI Key>
URNJEEHERHANOM-UHFFFAOYSA-N

> <PERCENTSP3>
29.2

> <Link>
https://www.chemdiv.com/catalog/screening-compounds/compound-L483-0739/

> <MFCDNUMBER>
MFCD16639839

> <CLNUMBER>
CL6761A

> <STEREO>
ACHIRAL

> <State>
Solid

> <Similarity score>
0.21

$$$$
4-(azepan-1-yl)-N-(4-chloro-2-fluorophenyl)[1]benzofuro[3,2-d]pyrimidine-2-carbo
  -OEChem-04222410502D

 31 35  0     0  0  0  0  0  0999 V2000
    1.9194   -0.1563    0.0000 C   0  0  0  0  0  0  0  0  0  0  0  0
    1.9194   -1.1399    0.0000 C   0  0  0  0  0  0  0  0  0  0  0  0
    1.0692    0.3314    0.0000 C   0  0  0  0  0  0  0  0  0  0  0  0
    1.0692   -1.6278    0.0000 N   0  0  0  0  0  0  0  0  0  0  0  0
    0.2189   -0.1563    0.0000 N   0  0  0  0  0  0  0  0  0  0  0  0
    0.2189   -1.1399    0.0000 C   0  0  0  0  0  0  0  0  0  0  0  0
    2.7657    0.3314    0.0000 O   0  0  0  0  0  0  0  0  0  0  0  0
    1.9194    1.8069    0.0000 C   0  0  0  0  0  0  0  0  0  0  0  0
   -0.6315   -1.6278    0.0000 C   0  0  0  0  0  0  0  0  0  0  0  0
    2.7657    1.3110    0.0000 C   0  0  0  0  0  0  0  0  0  0  0  0
    2.7657   -1.6278    0.0000 N   0  0  0  0  0  0  0  0  0  0  0  0
   -1.4820   -1.1399    0.0000 N   0  0  0  0  0  0  0  0  0  0  0  0
   -2.3240   -1.6278    0.0000 C   0  0  0  0  0  0  0  0  0  0  0  0
   -3.1743   -1.1399    0.0000 C   0  0  0  0  0  0  0  0  0  0  0  0
   -4.0204   -1.6278    0.0000 C   0  0  0  0  0  0  0  0  0  0  0  0
   -0.6315   -2.6074    0.0000 O   0  0  0  0  0  0  0  0  0  0  0  0
   -2.3240   -2.6074    0.0000 C   0  0  0  0  0  0  0  0  0  0  0  0
   -4.0204   -2.6074    0.0000 C   0  0  0  0  0  0  0  0  0  0  0  0
   -3.1743   -0.1563    0.0000 F   0  0  0  0  0  0  0  0  0  0  0  0
   -3.1743   -3.0951    0.0000 C   0  0  0  0  0  0  0  0  0  0  0  0
   -4.8709   -3.0951    0.0000 Cl  0  0  0  0  0  0  0  0  0  0  0  0
    1.9194    2.7825    0.0000 C   0  0  0  0  0  0  0  0  0  0  0  0
    3.5703   -1.0774    0.0000 C   0  0  0  0  0  0  0  0  0  0  0  0
    2.6950   -2.6074    0.0000 C   0  0  0  0  0  0  0  0  0  0  0  0
    3.6160    1.8069    0.0000 C   0  0  0  0  0  0  0  0  0  0  0  0
    2.7657    3.2700    0.0000 C   0  0  0  0  0  0  0  0  0  0  0  0
    4.5083   -1.3651    0.0000 C   0  0  0  0  0  0  0  0  0  0  0  0
    3.4078   -3.2700    0.0000 C   0  0  0  0  0  0  0  0  0  0  0  0
    3.6160    2.7825    0.0000 C   0  0  0  0  0  0  0  0  0  0  0  0
    4.8709   -2.2780    0.0000 C   0  0  0  0  0  0  0  0  0  0  0  0
    4.3789   -3.1201    0.0000 C   0  0  0  0  0  0  0  0  0  0  0  0
  1  2  1  0  0  0  0
  1  3  2  0  0  0  0
  2  4  2  0  0  0  0
  4  6  1  0  0  0  0
  3  5  1  0  0  0  0
  5  6  2  0  0  0  0
  1  7  1  0  0  0  0
  3  8  1  0  0  0  0
  8 10  1  0  0  0  0
  6  9  1  0  0  0  0
  7 10  1  0  0  0  0
  2 11  1  0  0  0  0
  9 12  1  0  0  0  0
 12 13  1  0  0  0  0
 13 14  1  0  0  0  0
 14 15  2  0  0  0  0
  9 16  2  0  0  0  0
 13 17  2  0  0  0  0
 18 20  2  0  0  0  0
 15 18  1  0  0  0  0
 14 19  1  0  0  0  0
 17 20  1  0  0  0  0
 18 21  1  0  0  0  0
  8 22  2  0  0  0  0
 11 23  1  0  0  0  0
 11 24  1  0  0  0  0
 10 25  2  0  0  0  0
 22 26  1  0  0  0  0
 26 29  2  0  0  0  0
 23 27  1  0  0  0  0
 24 28  1  0  0  0  0
 25 29  1  0  0  0  0
 27 30  1  0  0  0  0
 30 31  1  0  0  0  0
 28 31  1  0  0  0  0
M  END
> <IDNUMBER>
L331-0715

> <available>
18

> <H_acceptor>
5

> <H_donor>
1

> <B_rotN>
4

> <N_O>
6

> <logP>
6.4953

> <logD>
6.4754

> <logSw>
-6.4906

> <PSA>
53.824

> <pKa_ma>
9.092

> <pKa_mb>
11.0435

> <N_Chirals>
0

> <Name>
4-(azepan-1-yl)-N-(4-chloro-2-fluorophenyl)[1]benzofuro[3,2-d]pyrimidine-2-carboxamide

> <Smile>
O=C(c1nc(N2CCCCCC2)c2oc(cccc3)c3c2n1)Nc(ccc(Cl)c1)c1F

> <Color>
NOT COLORED

> <Collection>
NC

> <InChI>
InChI=1S/C23H20ClFN4O2/c24-14-9-10-17(16(25)13-14)26-23(30)21-27-19-15-7-3-4-8-18(15)31-20(19)22(28-21)29-11-5-1-2-6-12-29/h3-4,7-10,13H,1-2,5-6,11-12H2,(H,26,30)

> <InChI Key>
NMJNQRPBTVKIQZ-UHFFFAOYSA-N

> <PERCENTSP3>
26.1

> <Link>
https://www.chemdiv.com/catalog/screening-compounds/compound-L331-0715/

> <MFCDNUMBER>
MFCD27247027

> <CLNUMBER>
CL7949

> <STEREO>
ACHIRAL

> <State>
Solid

> <Similarity score>
0.21

$$$$
N,N-diethyl-2-(4-propoxyphenyl)quinazolin-4-amine
  -OEChem-04222410502D

 25 27  0     0  0  0  0  0  0999 V2000
   -1.3140    0.0079    0.0000 N   0  0  0  0  0  0  0  0  0  0  0  0
   -2.1745    0.4989    0.0000 C   0  0  0  0  0  0  0  0  0  0  0  0
   -1.3140   -0.9978    0.0000 C   0  0  0  0  0  0  0  0  0  0  0  0
   -3.0425    0.0079    0.0000 C   0  0  0  0  0  0  0  0  0  0  0  0
   -2.1745   -1.4928    0.0000 N   0  0  0  0  0  0  0  0  0  0  0  0
   -3.0425   -0.9978    0.0000 C   0  0  0  0  0  0  0  0  0  0  0  0
   -2.1745    1.5046    0.0000 N   0  0  0  0  0  0  0  0  0  0  0  0
   -0.4498   -1.4928    0.0000 C   0  0  0  0  0  0  0  0  0  0  0  0
    0.4106   -0.9978    0.0000 C   0  0  0  0  0  0  0  0  0  0  0  0
   -0.4498   -2.5024    0.0000 C   0  0  0  0  0  0  0  0  0  0  0  0
    1.2785   -2.5024    0.0000 C   0  0  0  0  0  0  0  0  0  0  0  0
    0.4106   -2.9896    0.0000 C   0  0  0  0  0  0  0  0  0  0  0  0
    1.2785   -1.4928    0.0000 C   0  0  0  0  0  0  0  0  0  0  0  0
   -3.9030    0.4989    0.0000 C   0  0  0  0  0  0  0  0  0  0  0  0
    2.1548   -3.0091    0.0000 O   0  0  0  0  0  0  0  0  0  0  0  0
   -3.9030   -1.4928    0.0000 C   0  0  0  0  0  0  0  0  0  0  0  0
   -1.3140    1.9957    0.0000 C   0  0  0  0  0  0  0  0  0  0  0  0
   -3.0425    1.9957    0.0000 C   0  0  0  0  0  0  0  0  0  0  0  0
    3.0269   -2.5024    0.0000 C   0  0  0  0  0  0  0  0  0  0  0  0
    3.9069   -3.0091    0.0000 C   0  0  0  0  0  0  0  0  0  0  0  0
   -4.7712    0.0079    0.0000 C   0  0  0  0  0  0  0  0  0  0  0  0
   -3.0425    3.0091    0.0000 C   0  0  0  0  0  0  0  0  0  0  0  0
   -0.4498    1.5046    0.0000 C   0  0  0  0  0  0  0  0  0  0  0  0
   -4.7712   -0.9978    0.0000 C   0  0  0  0  0  0  0  0  0  0  0  0
    4.7712   -2.5182    0.0000 C   0  0  0  0  0  0  0  0  0  0  0  0
  1  2  2  0  0  0  0
  1  3  1  0  0  0  0
  2  4  1  0  0  0  0
  3  5  2  0  0  0  0
  5  6  1  0  0  0  0
  4  6  1  0  0  0  0
  2  7  1  0  0  0  0
  3  8  1  0  0  0  0
  8  9  1  0  0  0  0
  8 10  2  0  0  0  0
 11 12  2  0  0  0  0
 11 13  1  0  0  0  0
 10 12  1  0  0  0  0
  9 13  2  0  0  0  0
  4 14  2  0  0  0  0
 11 15  1  0  0  0  0
  6 16  2  0  0  0  0
  7 17  1  0  0  0  0
  7 18  1  0  0  0  0
 15 19  1  0  0  0  0
 19 20  1  0  0  0  0
 14 21  1  0  0  0  0
 18 22  1  0  0  0  0
 17 23  1  0  0  0  0
 16 24  1  0  0  0  0
 21 24  2  0  0  0  0
 20 25  1  0  0  0  0
M  END
> <IDNUMBER>
4229-0098

> <available>
5

> <H_acceptor>
3

> <H_donor>
0

> <B_rotN>
7

> <N_O>
4

> <logP>
6.2517

> <logD>
5.8104

> <logSw>
-6.0218

> <PSA>
28.34

> <pKa_ma>
22.6824

> <pKa_mb>
7.6461

> <N_Chirals>
0

> <Name>
N,N-diethyl-2-(4-propoxyphenyl)quinazolin-4-amine

> <Smile>
CCCOc(cc1)ccc1-c1nc2ccccc2c(N(CC)CC)n1

> <Color>
YELLOW

> <Collection>
NC

> <InChI>
InChI=1S/C21H25N3O/c1-4-15-25-17-13-11-16(12-14-17)20-22-19-10-8-7-9-18(19)21(23-20)24(5-2)6-3/h7-14H,4-6,15H2,1-3H3

> <InChI Key>
TYAMZBWDFBINGV-UHFFFAOYSA-N

> <PERCENTSP3>
33.3

> <Link>
https://www.chemdiv.com/catalog/screening-compounds/compound-4229-0098/

> <MFCDNUMBER>
MFCD02988445

> <CLNUMBER>
CL2243

> <STEREO>
ACHIRAL

> <State>
Solid

> <Similarity score>
0.21

$$$$
4-(azepan-1-yl)-2-(3-methylphenyl)quinazoline
  -OEChem-04222410502D

 24 27  0     0  0  0  0  0  0999 V2000
   -0.0040   -0.3477    0.0000 N   0  0  0  0  0  0  0  0  0  0  0  0
   -0.8478    0.1585    0.0000 C   0  0  0  0  0  0  0  0  0  0  0  0
   -0.0040   -1.3848    0.0000 C   0  0  0  0  0  0  0  0  0  0  0  0
   -1.6997   -0.3477    0.0000 C   0  0  0  0  0  0  0  0  0  0  0  0
   -0.8478   -1.8581    0.0000 N   0  0  0  0  0  0  0  0  0  0  0  0
   -0.8478    1.1339    0.0000 N   0  0  0  0  0  0  0  0  0  0  0  0
   -1.6997   -1.3519    0.0000 C   0  0  0  0  0  0  0  0  0  0  0  0
    0.8849   -1.8952    0.0000 C   0  0  0  0  0  0  0  0  0  0  0  0
    1.7696   -1.3848    0.0000 C   0  0  0  0  0  0  0  0  0  0  0  0
    2.6133   -1.8581    0.0000 C   0  0  0  0  0  0  0  0  0  0  0  0
   -2.5886    0.1585    0.0000 C   0  0  0  0  0  0  0  0  0  0  0  0
   -1.6997    1.6731    0.0000 C   0  0  0  0  0  0  0  0  0  0  0  0
    0.0947    1.5495    0.0000 C   0  0  0  0  0  0  0  0  0  0  0  0
    0.8849   -2.8704    0.0000 C   0  0  0  0  0  0  0  0  0  0  0  0
   -2.5886   -1.8581    0.0000 C   0  0  0  0  0  0  0  0  0  0  0  0
    1.7696   -3.3767    0.0000 C   0  0  0  0  0  0  0  0  0  0  0  0
    2.6133   -2.9034    0.0000 C   0  0  0  0  0  0  0  0  0  0  0  0
    3.4363   -1.3025    0.0000 C   0  0  0  0  0  0  0  0  0  0  0  0
   -3.4363   -0.3477    0.0000 C   0  0  0  0  0  0  0  0  0  0  0  0
   -1.8560    2.6606    0.0000 C   0  0  0  0  0  0  0  0  0  0  0  0
    0.3745    2.5001    0.0000 C   0  0  0  0  0  0  0  0  0  0  0  0
   -3.4363   -1.3848    0.0000 C   0  0  0  0  0  0  0  0  0  0  0  0
   -0.1893    3.3273    0.0000 C   0  0  0  0  0  0  0  0  0  0  0  0
   -1.1400    3.3767    0.0000 C   0  0  0  0  0  0  0  0  0  0  0  0
  1  2  2  0  0  0  0
  1  3  1  0  0  0  0
  2  4  1  0  0  0  0
  3  5  2  0  0  0  0
  2  6  1  0  0  0  0
  5  7  1  0  0  0  0
  4  7  1  0  0  0  0
  3  8  1  0  0  0  0
  8  9  1  0  0  0  0
  9 10  2  0  0  0  0
 10 17  1  0  0  0  0
  4 11  2  0  0  0  0
  6 12  1  0  0  0  0
  6 13  1  0  0  0  0
  8 14  2  0  0  0  0
  7 15  2  0  0  0  0
 14 16  1  0  0  0  0
 16 17  2  0  0  0  0
 10 18  1  0  0  0  0
 11 19  1  0  0  0  0
 12 20  1  0  0  0  0
 13 21  1  0  0  0  0
 15 22  1  0  0  0  0
 19 22  2  0  0  0  0
 21 23  1  0  0  0  0
 20 24  1  0  0  0  0
 23 24  1  0  0  0  0
M  END
> <IDNUMBER>
3909-7945

> <available>
4

> <H_acceptor>
2

> <H_donor>
0

> <B_rotN>
2

> <N_O>
3

> <logP>
6.4974

> <logD>
5.5991

> <logSw>
-6.0824

> <PSA>
21.9695

> <pKa_ma>
22.8034

> <pKa_mb>
8.2395

> <N_Chirals>
0

> <Name>
4-(azepan-1-yl)-2-(3-methylphenyl)quinazoline

> <Smile>
Cc1cccc(-c2nc3ccccc3c(N3CCCCCC3)n2)c1

> <Color>
NOT COLORED

> <Collection>
NC

> <InChI>
InChI=1S/C21H23N3/c1-16-9-8-10-17(15-16)20-22-19-12-5-4-11-18(19)21(23-20)24-13-6-2-3-7-14-24/h4-5,8-12,15H,2-3,6-7,13-14H2,1H3

> <InChI Key>
QJSLAHHBSQSQBF-UHFFFAOYSA-N

> <PERCENTSP3>
33.3

> <Link>
https://www.chemdiv.com/catalog/screening-compounds/compound-3909-7945/

> <MFCDNUMBER>
MFCD08052400

> <CLNUMBER>
CL2243

> <STEREO>
ACHIRAL

> <State>
Solid

> <Similarity score>
0.21

$$$$
3-(1-phenyl-4,7-phenanthrolin-3-yl)phenol
  -OEChem-04222410502D

 27 31  0     0  0  0  0  0  0999 V2000
   -1.2906    0.4839    0.0000 C   0  0  0  0  0  0  0  0  0  0  0  0
   -1.2906   -0.5091    0.0000 C   0  0  0  0  0  0  0  0  0  0  0  0
    0.4459   -0.5091    0.0000 N   0  0  0  0  0  0  0  0  0  0  0  0
   -0.4303   -1.0070    0.0000 C   0  0  0  0  0  0  0  0  0  0  0  0
    0.4459    0.4839    0.0000 C   0  0  0  0  0  0  0  0  0  0  0  0
   -0.4303    0.9726    0.0000 C   0  0  0  0  0  0  0  0  0  0  0  0
   -2.1601   -1.0070    0.0000 C   0  0  0  0  0  0  0  0  0  0  0  0
    1.3142    0.9726    0.0000 C   0  0  0  0  0  0  0  0  0  0  0  0
   -2.1601   -1.9895    0.0000 C   0  0  0  0  0  0  0  0  0  0  0  0
   -2.1601    0.9726    0.0000 C   0  0  0  0  0  0  0  0  0  0  0  0
   -3.0352   -2.4887    0.0000 N   0  0  0  0  0  0  0  0  0  0  0  0
   -0.4303   -1.9895    0.0000 C   0  0  0  0  0  0  0  0  0  0  0  0
    2.1866    0.4839    0.0000 C   0  0  0  0  0  0  0  0  0  0  0  0
   -1.2906   -2.4887    0.0000 C   0  0  0  0  0  0  0  0  0  0  0  0
    3.0574    0.9726    0.0000 C   0  0  0  0  0  0  0  0  0  0  0  0
    3.9140    0.4667    0.0000 O   0  0  0  0  0  0  0  0  0  0  0  0
    1.3142    1.9829    0.0000 C   0  0  0  0  0  0  0  0  0  0  0  0
   -3.0352   -0.5091    0.0000 C   0  0  0  0  0  0  0  0  0  0  0  0
    2.1866    2.4887    0.0000 C   0  0  0  0  0  0  0  0  0  0  0  0
   -3.9021   -1.9895    0.0000 C   0  0  0  0  0  0  0  0  0  0  0  0
   -3.0352    0.4667    0.0000 C   0  0  0  0  0  0  0  0  0  0  0  0
   -2.1601    1.9829    0.0000 C   0  0  0  0  0  0  0  0  0  0  0  0
    3.0695    1.9829    0.0000 C   0  0  0  0  0  0  0  0  0  0  0  0
   -3.9021   -1.0070    0.0000 C   0  0  0  0  0  0  0  0  0  0  0  0
   -3.9021    0.9606    0.0000 C   0  0  0  0  0  0  0  0  0  0  0  0
   -3.0591    2.4568    0.0000 C   0  0  0  0  0  0  0  0  0  0  0  0
   -3.9140    1.9629    0.0000 C   0  0  0  0  0  0  0  0  0  0  0  0
  1  2  1  0  0  0  0
  3  5  2  0  0  0  0
  3  4  1  0  0  0  0
  2  4  2  0  0  0  0
  5  6  1  0  0  0  0
  1  6  2  0  0  0  0
  2  7  1  0  0  0  0
  5  8  1  0  0  0  0
  7  9  2  0  0  0  0
  1 10  1  0  0  0  0
  9 11  1  0  0  0  0
 11 20  2  0  0  0  0
  4 12  1  0  0  0  0
 12 14  2  0  0  0  0
  8 13  2  0  0  0  0
  9 14  1  0  0  0  0
 13 15  1  0  0  0  0
 15 16  1  0  0  0  0
  8 17  1  0  0  0  0
  7 18  1  0  0  0  0
 17 19  2  0  0  0  0
 20 24  1  0  0  0  0
 10 21  1  0  0  0  0
 10 22  2  0  0  0  0
 19 23  1  0  0  0  0
 15 23  2  0  0  0  0
 18 24  2  0  0  0  0
 21 25  2  0  0  0  0
 25 27  1  0  0  0  0
 22 26  1  0  0  0  0
 26 27  2  0  0  0  0
M  END
> <IDNUMBER>
8011-4043

> <available>
47

> <H_acceptor>
3

> <H_donor>
1

> <B_rotN>
2

> <N_O>
3

> <logP>
6.047

> <logD>
6.0019

> <logSw>
-6.5766

> <PSA>
34.406

> <pKa_ma>
8.5171

> <pKa_mb>
5.8879

> <N_Chirals>
0

> <Name>
3-(1-phenyl-4,7-phenanthrolin-3-yl)phenol

> <Smile>
Oc1cc(-c2nc3ccc4ncccc4c3c(-c3ccccc3)c2)ccc1

> <Color>
NOT COLORED

> <Collection>
DC

> <InChI>
InChI=1S/C24H16N2O/c27-18-9-4-8-17(14-18)23-15-20(16-6-2-1-3-7-16)24-19-10-5-13-25-21(19)11-12-22(24)26-23/h1-15,27H

> <InChI Key>
OAZXIPGHYAIEQW-UHFFFAOYSA-N

> <PERCENTSP3>
0

> <Link>
https://www.chemdiv.com/catalog/screening-compounds/compound-8011-4043/

> <MFCDNUMBER>
MFCD02641288

> <STEREO>
ACHIRAL

> <State>
Solid

> <Similarity score>
0.20

$$$$
N-(4-fluorophenyl)-4-(piperidin-1-yl)[1]benzofuro[3,2-d]pyrimidine-2-carboxamide
  -OEChem-04222410502D

 29 33  0     0  0  0  0  0  0999 V2000
    0.4210    0.2436    0.0000 C   0  0  0  0  0  0  0  0  0  0  0  0
    1.2711   -0.2439    0.0000 C   0  0  0  0  0  0  0  0  0  0  0  0
   -0.4209   -0.2439    0.0000 C   0  0  0  0  0  0  0  0  0  0  0  0
    1.2711   -1.2188    0.0000 N   0  0  0  0  0  0  0  0  0  0  0  0
   -0.4209   -1.2188    0.0000 N   0  0  0  0  0  0  0  0  0  0  0  0
    0.4210   -1.7149    0.0000 C   0  0  0  0  0  0  0  0  0  0  0  0
    0.4210    1.2231    0.0000 O   0  0  0  0  0  0  0  0  0  0  0  0
   -1.2711    1.2231    0.0000 C   0  0  0  0  0  0  0  0  0  0  0  0
    0.4210   -2.6900    0.0000 C   0  0  0  0  0  0  0  0  0  0  0  0
   -0.4209    1.7106    0.0000 C   0  0  0  0  0  0  0  0  0  0  0  0
    2.1211    0.2436    0.0000 N   0  0  0  0  0  0  0  0  0  0  0  0
   -0.4209   -3.1817    0.0000 N   0  0  0  0  0  0  0  0  0  0  0  0
    1.2711   -3.1817    0.0000 O   0  0  0  0  0  0  0  0  0  0  0  0
   -1.2711   -2.6900    0.0000 C   0  0  0  0  0  0  0  0  0  0  0  0
   -2.9671   -1.7065    0.0000 C   0  0  0  0  0  0  0  0  0  0  0  0
   -3.8088   -1.2188    0.0000 F   0  0  0  0  0  0  0  0  0  0  0  0
   -2.1170    1.7106    0.0000 C   0  0  0  0  0  0  0  0  0  0  0  0
   -2.1170   -3.1817    0.0000 C   0  0  0  0  0  0  0  0  0  0  0  0
   -1.2711   -1.7065    0.0000 C   0  0  0  0  0  0  0  0  0  0  0  0
   -2.9671   -2.6900    0.0000 C   0  0  0  0  0  0  0  0  0  0  0  0
   -2.1170   -1.2188    0.0000 C   0  0  0  0  0  0  0  0  0  0  0  0
    2.1211    1.2231    0.0000 C   0  0  0  0  0  0  0  0  0  0  0  0
    2.9672   -0.2439    0.0000 C   0  0  0  0  0  0  0  0  0  0  0  0
   -0.4209    2.6940    0.0000 C   0  0  0  0  0  0  0  0  0  0  0  0
   -2.1170    2.6940    0.0000 C   0  0  0  0  0  0  0  0  0  0  0  0
    3.8088    0.2436    0.0000 C   0  0  0  0  0  0  0  0  0  0  0  0
    2.9672    1.7106    0.0000 C   0  0  0  0  0  0  0  0  0  0  0  0
   -1.2711    3.1817    0.0000 C   0  0  0  0  0  0  0  0  0  0  0  0
    3.8088    1.2231    0.0000 C   0  0  0  0  0  0  0  0  0  0  0  0
  1  2  1  0  0  0  0
  1  3  2  0  0  0  0
  2  4  2  0  0  0  0
  4  6  1  0  0  0  0
  3  5  1  0  0  0  0
  5  6  2  0  0  0  0
  1  7  1  0  0  0  0
  3  8  1  0  0  0  0
  8 10  1  0  0  0  0
  6  9  1  0  0  0  0
  7 10  1  0  0  0  0
  2 11  1  0  0  0  0
  9 12  1  0  0  0  0
  9 13  2  0  0  0  0
 12 14  1  0  0  0  0
 15 21  2  0  0  0  0
 15 16  1  0  0  0  0
  8 17  2  0  0  0  0
 14 18  1  0  0  0  0
 14 19  2  0  0  0  0
 18 20  2  0  0  0  0
 15 20  1  0  0  0  0
 19 21  1  0  0  0  0
 11 22  1  0  0  0  0
 11 23  1  0  0  0  0
 10 24  2  0  0  0  0
 17 25  1  0  0  0  0
 25 28  2  0  0  0  0
 23 26  1  0  0  0  0
 22 27  1  0  0  0  0
 27 29  1  0  0  0  0
 24 28  1  0  0  0  0
 26 29  1  0  0  0  0
M  END
> <IDNUMBER>
L331-0345

> <available>
63

> <H_acceptor>
5

> <H_donor>
1

> <B_rotN>
4

> <N_O>
6

> <logP>
5.2084

> <logD>
5.2072

> <logSw>
-5.4822

> <PSA>
54.191

> <pKa_ma>
10.9771

> <pKa_mb>
4.8079

> <N_Chirals>
0

> <Name>
N-(4-fluorophenyl)-4-(piperidin-1-yl)[1]benzofuro[3,2-d]pyrimidine-2-carboxamide

> <Smile>
O=C(c1nc(N2CCCCC2)c2oc(cccc3)c3c2n1)Nc(cc1)ccc1F

> <Color>
NOT COLORED

> <Collection>
NC

> <InChI>
InChI=1S/C22H19FN4O2/c23-14-8-10-15(11-9-14)24-22(28)20-25-18-16-6-2-3-7-17(16)29-19(18)21(26-20)27-12-4-1-5-13-27/h2-3,6-11H,1,4-5,12-13H2,(H,24,28)

> <InChI Key>
ZJYZQSNFYXQUNQ-UHFFFAOYSA-N

> <PERCENTSP3>
22.7

> <Link>
https://www.chemdiv.com/catalog/screening-compounds/compound-L331-0345/

> <MFCDNUMBER>
MFCD27246950

> <CLNUMBER>
CL7949

> <STEREO>
ACHIRAL

> <State>
Solid

> <Similarity score>
0.20

$$$$
ethyl 4-(3,5-dimethylpiperidin-1-yl)-8-methoxyquinoline-3-carboxylate
  -OEChem-04222410502D

 25 27  0     0  0  0  0  0  0999 V2000
   -0.7731   -1.3092    0.0000 N   0  0  0  0  0  0  0  0  0  0  0  0
    0.1012   -0.8081    0.0000 C   0  0  0  0  0  0  0  0  0  0  0  0
    0.1012    0.1115    0.0000 C   0  0  0  0  0  0  0  0  0  0  0  0
    0.9118   -1.2909    0.0000 C   0  0  0  0  0  0  0  0  0  0  0  0
    1.7382    0.1115    0.0000 N   0  0  0  0  0  0  0  0  0  0  0  0
    1.7292   -0.8081    0.0000 C   0  0  0  0  0  0  0  0  0  0  0  0
   -1.4104    1.4479    0.0000 C   0  0  0  0  0  0  0  0  0  0  0  0
    0.9118    0.5827    0.0000 C   0  0  0  0  0  0  0  0  0  0  0  0
   -1.6289   -0.8242    0.0000 C   0  0  0  0  0  0  0  0  0  0  0  0
   -0.7731   -2.3222    0.0000 C   0  0  0  0  0  0  0  0  0  0  0  0
    2.5488   -1.2909    0.0000 C   0  0  0  0  0  0  0  0  0  0  0  0
   -2.2300    0.9882    0.0000 O   0  0  0  0  0  0  0  0  0  0  0  0
   -2.4943   -1.3092    0.0000 C   0  0  3  0  0  0  0  0  0  0  0  0
   -1.6381   -2.8093    0.0000 C   0  0  3  0  0  0  0  0  0  0  0  0
   -2.4985   -2.3222    0.0000 C   0  0  0  0  0  0  0  0  0  0  0  0
    0.9118   -2.2312    0.0000 C   0  0  0  0  0  0  0  0  0  0  0  0
   -1.4104    2.3883    0.0000 O   0  0  0  0  0  0  0  0  0  0  0  0
    3.3524   -0.8081    0.0000 O   0  0  0  0  0  0  0  0  0  0  0  0
    1.7292   -2.7068    0.0000 C   0  0  0  0  0  0  0  0  0  0  0  0
    2.5488   -2.2356    0.0000 C   0  0  0  0  0  0  0  0  0  0  0  0
   -3.3637   -0.8242    0.0000 C   0  0  0  0  0  0  0  0  0  0  0  0
   -1.6426   -3.8111    0.0000 C   0  0  0  0  0  0  0  0  0  0  0  0
   -0.5908    2.8686    0.0000 C   0  0  0  0  0  0  0  0  0  0  0  0
    3.3637    0.1276    0.0000 C   0  0  0  0  0  0  0  0  0  0  0  0
   -0.5818    3.8111    0.0000 C   0  0  0  0  0  0  0  0  0  0  0  0
  1  2  1  0  0  0  0
  2  3  2  0  0  0  0
  2  4  1  0  0  0  0
  5  6  1  0  0  0  0
  4  6  1  0  0  0  0
  3  7  1  0  0  0  0
  3  8  1  0  0  0  0
  5  8  2  0  0  0  0
  1  9  1  0  0  0  0
  1 10  1  0  0  0  0
  6 11  2  0  0  0  0
 11 20  1  0  0  0  0
  7 12  2  0  0  0  0
  9 13  1  0  0  0  0
 10 14  1  0  0  0  0
 14 15  1  0  0  0  0
 13 15  1  0  0  0  0
  4 16  2  0  0  0  0
  7 17  1  0  0  0  0
 11 18  1  0  0  0  0
 16 19  1  0  0  0  0
 19 20  2  0  0  0  0
 13 21  1  0  0  0  0
 14 22  1  0  0  0  0
 17 23  1  0  0  0  0
 18 24  1  0  0  0  0
 23 25  1  0  0  0  0
M  END
> <IDNUMBER>
C053-0511

> <available>
1

> <H_acceptor>
5

> <H_donor>
0

> <B_rotN>
5

> <N_O>
5

> <logP>
4.573

> <logD>
4.5721

> <logSw>
-4.3448

> <PSA>
40.963

> <pKa_ma>
24.8321

> <pKa_mb>
4.6974

> <N_Chirals>
2

> <Name>
ethyl 4-(3,5-dimethylpiperidin-1-yl)-8-methoxyquinoline-3-carboxylate

> <Smile>
CCOC(c(cnc(c1ccc2)c2OC)c1N1CC(C)CC(C)C1)=O

> <Color>
YELLOW

> <Collection>
DC

> <InChI>
InChI=1S/C20H26N2O3/c1-5-25-20(23)16-10-21-18-15(7-6-8-17(18)24-4)19(16)22-11-13(2)9-14(3)12-22/h6-8,10,13-14H,5,9,11-12H2,1-4H3

> <InChI Key>
CEIWOYOCFQOHOE-UHFFFAOYSA-N

> <PERCENTSP3>
50

> <Link>
https://www.chemdiv.com/catalog/screening-compounds/compound-C053-0511/

> <MFCDNUMBER>
MFCD14714100

> <CLNUMBER>
CL1568

> <STEREO>
MIXTURE OF STEREOISOMERS

> <State>
Solid

> <Similarity score>
0.20

$$$$
4-(azepan-1-yl)-N-(4-fluorophenyl)[1]benzofuro[3,2-d]pyrimidine-2-carboxamide
  -OEChem-04222410502D

 30 34  0     0  0  0  0  0  0999 V2000
    0.2189    0.2437    0.0000 C   0  0  0  0  0  0  0  0  0  0  0  0
    1.0685   -0.2438    0.0000 C   0  0  0  0  0  0  0  0  0  0  0  0
   -0.6311   -0.2438    0.0000 C   0  0  0  0  0  0  0  0  0  0  0  0
    1.0685   -1.2184    0.0000 N   0  0  0  0  0  0  0  0  0  0  0  0
   -0.6311   -1.2184    0.0000 N   0  0  0  0  0  0  0  0  0  0  0  0
    0.2189   -1.7142    0.0000 C   0  0  0  0  0  0  0  0  0  0  0  0
    0.2189    1.2227    0.0000 O   0  0  0  0  0  0  0  0  0  0  0  0
   -1.4810    1.2227    0.0000 C   0  0  0  0  0  0  0  0  0  0  0  0
    0.2189   -2.6933    0.0000 C   0  0  0  0  0  0  0  0  0  0  0  0
   -0.6311    1.7184    0.0000 C   0  0  0  0  0  0  0  0  0  0  0  0
    1.9142    0.2437    0.0000 N   0  0  0  0  0  0  0  0  0  0  0  0
   -0.6311   -3.1807    0.0000 N   0  0  0  0  0  0  0  0  0  0  0  0
    1.0685   -3.1807    0.0000 O   0  0  0  0  0  0  0  0  0  0  0  0
   -1.4810   -2.6933    0.0000 C   0  0  0  0  0  0  0  0  0  0  0  0
   -3.1680   -1.7142    0.0000 C   0  0  0  0  0  0  0  0  0  0  0  0
   -4.0180   -1.2184    0.0000 F   0  0  0  0  0  0  0  0  0  0  0  0
   -2.3225    1.7184    0.0000 C   0  0  0  0  0  0  0  0  0  0  0  0
   -2.3225   -3.1807    0.0000 C   0  0  0  0  0  0  0  0  0  0  0  0
   -1.4727   -1.7142    0.0000 C   0  0  0  0  0  0  0  0  0  0  0  0
   -3.1680   -2.6933    0.0000 C   0  0  0  0  0  0  0  0  0  0  0  0
   -2.3225   -1.2184    0.0000 C   0  0  0  0  0  0  0  0  0  0  0  0
    2.7266   -0.3062    0.0000 C   0  0  0  0  0  0  0  0  0  0  0  0
    1.8434    1.2184    0.0000 C   0  0  0  0  0  0  0  0  0  0  0  0
   -0.6311    2.6933    0.0000 C   0  0  0  0  0  0  0  0  0  0  0  0
   -2.3225    2.6933    0.0000 C   0  0  0  0  0  0  0  0  0  0  0  0
    3.6556   -0.0188    0.0000 C   0  0  0  0  0  0  0  0  0  0  0  0
    2.5558    1.8892    0.0000 C   0  0  0  0  0  0  0  0  0  0  0  0
   -1.4727    3.1807    0.0000 C   0  0  0  0  0  0  0  0  0  0  0  0
    4.0180    0.8935    0.0000 C   0  0  0  0  0  0  0  0  0  0  0  0
    3.5264    1.7434    0.0000 C   0  0  0  0  0  0  0  0  0  0  0  0
  1  2  1  0  0  0  0
  1  3  2  0  0  0  0
  2  4  2  0  0  0  0
  4  6  1  0  0  0  0
  3  5  1  0  0  0  0
  5  6  2  0  0  0  0
  1  7  1  0  0  0  0
  3  8  1  0  0  0  0
  8 10  1  0  0  0  0
  6  9  1  0  0  0  0
  7 10  1  0  0  0  0
  2 11  1  0  0  0  0
  9 12  1  0  0  0  0
  9 13  2  0  0  0  0
 12 14  1  0  0  0  0
 15 21  2  0  0  0  0
 15 16  1  0  0  0  0
  8 17  2  0  0  0  0
 14 18  1  0  0  0  0
 14 19  2  0  0  0  0
 18 20  2  0  0  0  0
 15 20  1  0  0  0  0
 19 21  1  0  0  0  0
 11 22  1  0  0  0  0
 11 23  1  0  0  0  0
 10 24  2  0  0  0  0
 17 25  1  0  0  0  0
 25 28  2  0  0  0  0
 22 26  1  0  0  0  0
 23 27  1  0  0  0  0
 24 28  1  0  0  0  0
 26 29  1  0  0  0  0
 27 30  1  0  0  0  0
 29 30  1  0  0  0  0
M  END
> <IDNUMBER>
L331-0654

> <available>
1

> <H_acceptor>
5

> <H_donor>
1

> <B_rotN>
4

> <N_O>
6

> <logP>
5.7043

> <logD>
5.693

> <logSw>
-6.0192

> <PSA>
54.522

> <pKa_ma>
10.9771

> <pKa_mb>
11.0435

> <N_Chirals>
0

> <Name>
4-(azepan-1-yl)-N-(4-fluorophenyl)[1]benzofuro[3,2-d]pyrimidine-2-carboxamide

> <Smile>
O=C(c1nc(N2CCCCCC2)c2oc(cccc3)c3c2n1)Nc(cc1)ccc1F

> <Color>
NOT COLORED

> <Collection>
NC

> <InChI>
InChI=1S/C23H21FN4O2/c24-15-9-11-16(12-10-15)25-23(29)21-26-19-17-7-3-4-8-18(17)30-20(19)22(27-21)28-13-5-1-2-6-14-28/h3-4,7-12H,1-2,5-6,13-14H2,(H,25,29)

> <InChI Key>
VYMURXXSSOVYST-UHFFFAOYSA-N

> <PERCENTSP3>
26.1

> <Link>
https://www.chemdiv.com/catalog/screening-compounds/compound-L331-0654/

> <MFCDNUMBER>
MFCD27247004

> <CLNUMBER>
CL7949

> <STEREO>
ACHIRAL

> <State>
Solid

> <Similarity score>
0.20

$$$$
