
  -OEChem-04222410502D

 27 31  0     0  0  0  0  0  0999 V2000
   -0.8958   -1.4875    0.0000 N   0  0  0  0  0  0  0  0  0  0  0  0
    0.0958   -1.6042    0.0000 C   0  0  0  0  0  0  0  0  0  0  0  0
    0.6917   -0.8000    0.0000 N   0  0  0  0  0  0  0  0  0  0  0  0
    0.2958    0.1167    0.0000 C   0  0  0  0  0  0  0  0  0  0  0  0
   -1.2917   -0.5708    0.0000 C   0  0  0  0  0  0  0  0  0  0  0  0
   -0.6958    0.2333    0.0000 C   0  0  0  0  0  0  0  0  0  0  0  0
    0.4958   -2.5208    0.0000 N   0  0  3  0  0  0  0  0  0  0  0  0
   -1.0958    1.1500    0.0000 C   0  0  0  0  0  0  0  0  0  0  0  0
   -0.5000    1.9542    0.0000 C   0  0  0  0  0  0  0  0  0  0  0  0
   -2.2875   -0.4583    0.0000 N   0  0  0  0  0  0  0  0  0  0  0  0
    0.4958    1.8375    0.0000 C   0  0  0  0  0  0  0  0  0  0  0  0
    0.8917    0.9208    0.0000 O   0  0  0  0  0  0  0  0  0  0  0  0
    1.0917    2.6417    0.0000 C   0  0  0  0  0  0  0  0  0  0  0  0
   -0.8958    2.8708    0.0000 C   0  0  0  0  0  0  0  0  0  0  0  0
    0.6917    3.5583    0.0000 C   0  0  0  0  0  0  0  0  0  0  0  0
   -0.3000    3.6708    0.0000 C   0  0  0  0  0  0  0  0  0  0  0  0
   -2.6833    0.4625    0.0000 C   0  0  0  0  0  0  0  0  0  0  0  0
   -2.0875    1.2625    0.0000 C   0  0  0  0  0  0  0  0  0  0  0  0
   -0.1000   -3.3250    0.0000 C   0  0  0  0  0  0  0  0  0  0  0  0
    1.4875   -2.6375    0.0000 C   0  0  0  0  0  0  0  0  0  0  0  0
    2.0833    2.5250    0.0000 C   0  0  0  0  0  0  0  0  0  0  0  0
    1.2875    4.3583    0.0000 C   0  0  0  0  0  0  0  0  0  0  0  0
    0.2958   -4.2417    0.0000 C   0  0  0  0  0  0  0  0  0  0  0  0
    1.8875   -3.5542    0.0000 C   0  0  0  0  0  0  0  0  0  0  0  0
    2.6792    3.3292    0.0000 C   0  0  0  0  0  0  0  0  0  0  0  0
    2.2833    4.2417    0.0000 C   0  0  0  0  0  0  0  0  0  0  0  0
    1.2875   -4.3583    0.0000 C   0  0  0  0  0  0  0  0  0  0  0  0
  1  2  2  0  0  0  0
  2  3  1  0  0  0  0
  4  6  1  0  0  0  0
  1  5  1  0  0  0  0
  5  6  2  0  0  0  0
  2  7  1  0  0  0  0
  6  8  1  0  0  0  0
  8  9  1  0  0  0  0
  5 10  1  0  0  0  0
  9 11  1  0  0  0  0
  4 12  2  0  0  0  0
 11 13  2  0  0  0  0
  9 14  2  0  0  0  0
 15 16  2  0  0  0  0
 14 16  1  0  0  0  0
 10 17  2  0  0  0  0
 17 18  1  0  0  0  0
  7 19  1  0  0  0  0
  7 20  1  0  0  0  0
 13 21  1  0  0  0  0
 15 22  1  0  0  0  0
 19 23  1  0  0  0  0
 20 24  1  0  0  0  0
 21 25  2  0  0  0  0
 22 26  2  0  0  0  0
 24 27  1  0  0  0  0
  3  4  1  0  0  0  0
  8 18  2  0  0  0  0
 23 27  1  0  0  0  0
 13 15  1  0  0  0  0
 25 26  1  0  0  0  0
M  END
> <MOLFORMULA>
C22 H20 N4 O

> <MOLWEIGHT>
3.564270000000000e+002

> <IDNUMBER>
AN-153/J102310

> <PRICE>
EUR 130/10 mg

> <Similarity score>
0.21

$$$$

  -OEChem-04222410502D

 26 28  0     0  0  0  0  0  0999 V2000
    0.5375   -0.1167    0.0000 N   0  0  0  0  0  0  0  0  0  0  0  0
    1.2417    1.1208    0.0000 C   0  0  0  0  0  0  0  0  0  0  0  0
   -0.1833    0.2958    0.0000 C   0  0  0  0  0  0  0  0  0  0  0  0
    1.2417    0.2958    0.0000 C   0  0  0  0  0  0  0  0  0  0  0  0
    2.6667    1.1208    0.0000 C   0  0  0  0  0  0  0  0  0  0  0  0
    1.9542    1.5333    0.0000 C   0  0  0  0  0  0  0  0  0  0  0  0
   -0.8958   -0.1167    0.0000 N   0  0  3  0  0  0  0  0  0  0  0  0
    0.5292    1.5333    0.0000 C   0  0  0  0  0  0  0  0  0  0  0  0
    1.9542   -0.1167    0.0000 N   0  0  0  0  0  0  0  0  0  0  0  0
   -2.3250   -0.9417    0.0000 N   0  0  3  0  0  0  0  0  0  0  0  0
   -0.1833    1.1208    0.0000 C   0  0  0  0  0  0  0  0  0  0  0  0
    3.3792    1.5333    0.0000 C   0  0  0  0  0  0  0  0  0  0  0  0
    2.6667    0.2958    0.0000 C   0  0  0  0  0  0  0  0  0  0  0  0
   -3.0458   -1.3542    0.0000 C   0  0  0  0  0  0  0  0  0  0  0  0
   -0.8958   -0.9417    0.0000 C   0  0  0  0  0  0  0  0  0  0  0  0
   -1.6125    0.2958    0.0000 C   0  0  0  0  0  0  0  0  0  0  0  0
   -2.3250   -0.1167    0.0000 C   0  0  0  0  0  0  0  0  0  0  0  0
   -1.6125   -1.3542    0.0000 C   0  0  0  0  0  0  0  0  0  0  0  0
    3.3875    2.3583    0.0000 O   0  0  0  0  0  0  0  0  0  0  0  0
   -3.0458   -2.1792    0.0000 O   0  0  0  0  0  0  0  0  0  0  0  0
    1.9542    2.3583    0.0000 O   0  0  0  0  0  0  0  0  0  0  0  0
   -0.8958    1.5333    0.0000 F   0  0  0  0  0  0  0  0  0  0  0  0
    4.0917    1.1125    0.0000 O   0  0  0  0  0  0  0  0  0  0  0  0
   -3.7583   -0.9417    0.0000 C   0  0  0  0  0  0  0  0  0  0  0  0
    4.8042    1.5333    0.0000 C   0  0  0  0  0  0  0  0  0  0  0  0
    5.5250    1.1250    0.0000 C   0  0  0  0  0  0  0  0  0  0  0  0
  2  4  1  0  0  0  0
  1  3  1  0  0  0  0
  1  4  2  0  0  0  0
  5 13  1  0  0  0  0
  2  6  1  0  0  0  0
  3  7  1  0  0  0  0
  2  8  2  0  0  0  0
  4  9  1  0  0  0  0
 10 17  1  0  0  0  0
  3 11  2  0  0  0  0
  5 12  1  0  0  0  0
  9 13  2  0  0  0  0
 10 14  1  0  0  0  0
  7 15  1  0  0  0  0
  7 16  1  0  0  0  0
 16 17  1  0  0  0  0
 15 18  1  0  0  0  0
 12 19  2  0  0  0  0
 14 20  2  0  0  0  0
  6 21  1  0  0  0  0
 11 22  1  0  0  0  0
 12 23  1  0  0  0  0
 14 24  1  0  0  0  0
 23 25  1  0  0  0  0
 25 26  1  0  0  0  0
  8 11  1  0  0  0  0
  5  6  2  0  0  0  0
 10 18  1  0  0  0  0
M  END
> <MOLFORMULA>
C17 H19 F N4 O4

> <MOLWEIGHT>
3.623591000000000e+002

> <IDNUMBER>
AT-225/JK10309

> <PRICE>
EUR 140/10 mg

> <Similarity score>
0.21

$$$$

  -OEChem-04222410502D

 20 22  0     0  0  0  0  0  0999 V2000
   -1.5000    0.6833    0.0000 C   0  0  0  0  0  0  0  0  0  0  0  0
   -2.2708    0.1333    0.0000 N   0  0  0  0  0  0  0  0  0  0  0  0
   -1.7833    1.5958    0.0000 C   0  0  0  0  0  0  0  0  0  0  0  0
   -0.5708    0.4958    0.0000 C   0  0  0  0  0  0  0  0  0  0  0  0
   -2.7458    1.5958    0.0000 C   0  0  0  0  0  0  0  0  0  0  0  0
   -3.0333    0.7125    0.0000 C   0  0  0  0  0  0  0  0  0  0  0  0
    0.0667    1.1833    0.0000 N   0  0  0  0  0  0  0  0  0  0  0  0
   -1.1333    2.2958    0.0000 N   0  0  0  0  0  0  0  0  0  0  0  0
   -0.2833   -0.4000    0.0000 N   0  0  3  0  0  0  0  0  0  0  0  0
   -0.2125    2.0833    0.0000 C   0  0  0  0  0  0  0  0  0  0  0  0
   -3.3958    2.3125    0.0000 C   0  0  0  0  0  0  0  0  0  0  0  0
   -3.9625    0.5125    0.0000 C   0  0  0  0  0  0  0  0  0  0  0  0
   -4.3208    2.1125    0.0000 C   0  0  0  0  0  0  0  0  0  0  0  0
   -4.6000    1.2125    0.0000 C   0  0  0  0  0  0  0  0  0  0  0  0
   -4.9583    2.8208    0.0000 O   0  0  0  0  0  0  0  0  0  0  0  0
   -0.9000   -1.1167    0.0000 C   0  0  0  0  0  0  0  0  0  0  0  0
    0.6375   -0.5875    0.0000 C   0  0  0  0  0  0  0  0  0  0  0  0
   -5.8958    2.6458    0.0000 C   0  0  0  0  0  0  0  0  0  0  0  0
    0.9500   -1.4875    0.0000 C   0  0  0  0  0  0  0  0  0  0  0  0
   -0.5958   -2.0167    0.0000 C   0  0  0  0  0  0  0  0  0  0  0  0
  1  2  1  0  0  0  0
  1  3  2  0  0  0  0
  1  4  1  0  0  0  0
  3  5  1  0  0  0  0
  2  6  1  0  0  0  0
  4  7  2  0  0  0  0
  3  8  1  0  0  0  0
  4  9  1  0  0  0  0
  7 10  1  0  0  0  0
  5 11  1  0  0  0  0
  6 12  1  0  0  0  0
 11 13  2  0  0  0  0
 12 14  2  0  0  0  0
 13 15  1  0  0  0  0
  9 16  1  0  0  0  0
  9 17  1  0  0  0  0
 15 18  1  0  0  0  0
 17 19  1  0  0  0  0
 16 20  1  0  0  0  0
  5  6  2  0  0  0  0
  8 10  2  0  0  0  0
 13 14  1  0  0  0  0
M  END
> <MOLFORMULA>
C15 H18 N4 O

> <MOLWEIGHT>
2.703342000000000e+002

> <IDNUMBER>
AT-225/JK07514

> <PRICE>
EUR 140/10 mg

> <Similarity score>
0.20

$$$$

  -OEChem-04222410502D

 21 24  0     0  0  0  0  0  0999 V2000
   -0.8333    0.0708    0.0000 C   0  0  0  0  0  0  0  0  0  0  0  0
   -1.6208   -0.5292    0.0000 N   0  0  0  0  0  0  0  0  0  0  0  0
    0.1542   -0.0875    0.0000 C   0  0  0  0  0  0  0  0  0  0  0  0
   -1.1625    0.9625    0.0000 C   0  0  0  0  0  0  0  0  0  0  0  0
   -2.1125    0.9625    0.0000 C   0  0  0  0  0  0  0  0  0  0  0  0
   -2.4000    0.0208    0.0000 C   0  0  0  0  0  0  0  0  0  0  0  0
    0.5167   -1.0000    0.0000 N   0  0  3  0  0  0  0  0  0  0  0  0
    0.7875    0.6625    0.0000 N   0  0  0  0  0  0  0  0  0  0  0  0
   -0.5458    1.7458    0.0000 N   0  0  0  0  0  0  0  0  0  0  0  0
    0.4375    1.5958    0.0000 C   0  0  0  0  0  0  0  0  0  0  0  0
   -2.7833    1.6833    0.0000 C   0  0  0  0  0  0  0  0  0  0  0  0
   -3.3625   -0.1875    0.0000 C   0  0  0  0  0  0  0  0  0  0  0  0
   -3.7500    1.4500    0.0000 C   0  0  0  0  0  0  0  0  0  0  0  0
   -4.0500    0.5208    0.0000 C   0  0  0  0  0  0  0  0  0  0  0  0
   -0.0833   -1.7792    0.0000 C   0  0  0  0  0  0  0  0  0  0  0  0
    1.4875   -1.1292    0.0000 C   0  0  0  0  0  0  0  0  0  0  0  0
   -4.4208    2.1500    0.0000 O   0  0  0  0  0  0  0  0  0  0  0  0
   -4.1583    3.1083    0.0000 C   0  0  0  0  0  0  0  0  0  0  0  0
    1.8542   -2.0500    0.0000 C   0  0  0  0  0  0  0  0  0  0  0  0
    0.2875   -2.6875    0.0000 C   0  0  0  0  0  0  0  0  0  0  0  0
    1.2542   -2.8292    0.0000 C   0  0  0  0  0  0  0  0  0  0  0  0
  1  2  1  0  0  0  0
  1  3  1  0  0  0  0
  1  4  2  0  0  0  0
  4  5  1  0  0  0  0
  2  6  1  0  0  0  0
  3  7  1  0  0  0  0
  3  8  2  0  0  0  0
  4  9  1  0  0  0  0
  9 10  2  0  0  0  0
  5 11  1  0  0  0  0
  6 12  1  0  0  0  0
 11 13  2  0  0  0  0
 12 14  2  0  0  0  0
  7 15  1  0  0  0  0
  7 16  1  0  0  0  0
 13 17  1  0  0  0  0
 17 18  1  0  0  0  0
 16 19  1  0  0  0  0
 15 20  1  0  0  0  0
 19 21  1  0  0  0  0
  5  6  2  0  0  0  0
  8 10  1  0  0  0  0
 13 14  1  0  0  0  0
 20 21  1  0  0  0  0
M  END
> <MOLFORMULA>
C16 H18 N4 O

> <MOLWEIGHT>
2.823452000000000e+002

> <IDNUMBER>
AT-225/JK07488

> <PRICE>
EUR 140/10 mg

> <Similarity score>
0.20

$$$$

  -OEChem-04222410502D

 26 30  0     0  0  0  0  0  0999 V2000
    5.3583   -7.0583    0.0000 C   0  0  0  0  0  0  0  0  0  0  0  0
    5.3667   -6.3208    0.0000 C   0  0  0  0  0  0  0  0  0  0  0  0
    4.7292   -7.4125    0.0000 N   0  0  0  0  0  0  0  0  0  0  0  0
    4.7292   -5.9500    0.0000 C   0  0  0  0  0  0  0  0  0  0  0  0
    6.0083   -7.4167    0.0000 C   0  0  0  0  0  0  0  0  0  0  0  0
    4.0917   -6.3250    0.0000 C   0  0  0  0  0  0  0  0  0  0  0  0
    4.7208   -5.2250    0.0000 N   0  0  3  0  0  0  0  0  0  0  0  0
    4.0917   -7.0500    0.0000 C   0  0  0  0  0  0  0  0  0  0  0  0
    6.6542   -7.0583    0.0000 C   0  0  0  0  0  0  0  0  0  0  0  0
    6.0083   -5.9500    0.0000 C   0  0  0  0  0  0  0  0  0  0  0  0
    6.0042   -8.1583    0.0000 C   0  0  0  0  0  0  0  0  0  0  0  0
    6.6542   -6.3208    0.0000 C   0  0  0  0  0  0  0  0  0  0  0  0
    7.2917   -7.4250    0.0000 C   0  0  0  0  0  0  0  0  0  0  0  0
    4.7208   -3.7708    0.0000 O   0  0  0  0  0  0  0  0  0  0  0  0
    7.2917   -8.1625    0.0000 C   0  0  0  0  0  0  0  0  0  0  0  0
    6.6417   -8.5250    0.0000 C   0  0  0  0  0  0  0  0  0  0  0  0
    5.3583   -4.8625    0.0000 C   0  0  0  0  0  0  0  0  0  0  0  0
    4.0833   -4.8625    0.0000 C   0  0  0  0  0  0  0  0  0  0  0  0
    3.4583   -5.9583    0.0000 C   0  0  0  0  0  0  0  0  0  0  0  0
    7.9208   -8.5250    0.0000 O   0  0  0  0  0  0  0  0  0  0  0  0
    3.4583   -7.4125    0.0000 C   0  0  0  0  0  0  0  0  0  0  0  0
    5.3583   -4.1333    0.0000 C   0  0  0  0  0  0  0  0  0  0  0  0
    4.0833   -4.1375    0.0000 C   0  0  0  0  0  0  0  0  0  0  0  0
    8.5583   -8.1583    0.0000 C   0  0  0  0  0  0  0  0  0  0  0  0
    2.8208   -6.3250    0.0000 C   0  0  0  0  0  0  0  0  0  0  0  0
    2.8208   -7.0500    0.0000 C   0  0  0  0  0  0  0  0  0  0  0  0
  1  2  1  0  0  0  0
  1  3  2  0  0  0  0
  2  4  2  0  0  0  0
  1  5  1  0  0  0  0
  6  8  1  0  0  0  0
  4  7  1  0  0  0  0
  3  8  1  0  0  0  0
  5  9  2  0  0  0  0
  2 10  1  0  0  0  0
  5 11  1  0  0  0  0
  9 12  1  0  0  0  0
  9 13  1  0  0  0  0
 14 23  1  0  0  0  0
 15 16  1  0  0  0  0
 11 16  2  0  0  0  0
  7 17  1  0  0  0  0
  7 18  1  0  0  0  0
  6 19  2  0  0  0  0
 15 20  1  0  0  0  0
  8 21  2  0  0  0  0
 17 22  1  0  0  0  0
 18 23  1  0  0  0  0
 20 24  1  0  0  0  0
 25 26  2  0  0  0  0
 21 26  1  0  0  0  0
 10 12  1  0  0  0  0
  4  6  1  0  0  0  0
 13 15  2  0  0  0  0
 19 25  1  0  0  0  0
 14 22  1  0  0  0  0
M  END
> <MOLFORMULA>
C22 H22 N2 O2

> <MOLWEIGHT>
3.464278000000000e+002

> <IDNUMBER>
AT-225/NB48356

> <SALTDATA>
2 H2O

> <PRICE>
EUR 140/10 mg

> <Similarity score>
0.20

$$$$

  -OEChem-04222410502D

 26 30  0     0  0  0  0  0  0999 V2000
    5.6500   -6.7417    0.0000 C   0  0  0  0  0  0  0  0  0  0  0  0
    5.6583   -6.0417    0.0000 C   0  0  0  0  0  0  0  0  0  0  0  0
    5.0500   -7.0833    0.0000 N   0  0  0  0  0  0  0  0  0  0  0  0
    5.0500   -5.6958    0.0000 C   0  0  0  0  0  0  0  0  0  0  0  0
    6.2583   -7.0917    0.0000 C   0  0  0  0  0  0  0  0  0  0  0  0
    4.4583   -6.0458    0.0000 C   0  0  0  0  0  0  0  0  0  0  0  0
    5.0500   -4.9958    0.0000 N   0  0  3  0  0  0  0  0  0  0  0  0
    4.4583   -6.7333    0.0000 C   0  0  0  0  0  0  0  0  0  0  0  0
    6.8625   -6.7417    0.0000 C   0  0  0  0  0  0  0  0  0  0  0  0
    6.2625   -5.6833    0.0000 C   0  0  0  0  0  0  0  0  0  0  0  0
    6.2500   -7.7833    0.0000 C   0  0  0  0  0  0  0  0  0  0  0  0
    6.8625   -6.0417    0.0000 C   0  0  0  0  0  0  0  0  0  0  0  0
    7.4625   -7.0917    0.0000 C   0  0  0  0  0  0  0  0  0  0  0  0
    5.0500   -3.6083    0.0000 O   0  0  0  0  0  0  0  0  0  0  0  0
    7.4625   -7.7917    0.0000 C   0  0  0  0  0  0  0  0  0  0  0  0
    6.8583   -8.1417    0.0000 C   0  0  0  0  0  0  0  0  0  0  0  0
    5.6500   -4.6542    0.0000 C   0  0  0  0  0  0  0  0  0  0  0  0
    4.4500   -4.6542    0.0000 C   0  0  0  0  0  0  0  0  0  0  0  0
    3.8583   -5.6958    0.0000 C   0  0  0  0  0  0  0  0  0  0  0  0
    8.0625   -8.1333    0.0000 O   0  0  0  0  0  0  0  0  0  0  0  0
    3.8583   -7.0833    0.0000 C   0  0  0  0  0  0  0  0  0  0  0  0
    5.6500   -3.9583    0.0000 C   0  0  0  0  0  0  0  0  0  0  0  0
    4.4500   -3.9583    0.0000 C   0  0  0  0  0  0  0  0  0  0  0  0
    8.0583   -8.8292    0.0000 C   0  0  0  0  0  0  0  0  0  0  0  0
    3.2583   -6.0458    0.0000 C   0  0  0  0  0  0  0  0  0  0  0  0
    3.2583   -6.7333    0.0000 C   0  0  0  0  0  0  0  0  0  0  0  0
  1  2  1  0  0  0  0
  1  3  2  0  0  0  0
  2  4  2  0  0  0  0
  1  5  1  0  0  0  0
  6  8  1  0  0  0  0
  4  7  1  0  0  0  0
  3  8  1  0  0  0  0
  5  9  2  0  0  0  0
  2 10  1  0  0  0  0
  5 11  1  0  0  0  0
  9 12  1  0  0  0  0
  9 13  1  0  0  0  0
 14 23  1  0  0  0  0
 15 16  1  0  0  0  0
 11 16  2  0  0  0  0
  7 17  1  0  0  0  0
  7 18  1  0  0  0  0
  6 19  2  0  0  0  0
 15 20  1  0  0  0  0
  8 21  2  0  0  0  0
 17 22  1  0  0  0  0
 18 23  1  0  0  0  0
 20 24  1  0  0  0  0
 19 25  1  0  0  0  0
 21 26  1  0  0  0  0
 10 12  1  0  0  0  0
  4  6  1  0  0  0  0
 13 15  2  0  0  0  0
 25 26  2  0  0  0  0
 14 22  1  0  0  0  0
M  END
> <MOLFORMULA>
C22 H22 N2 O2

> <MOLWEIGHT>
3.464278000000000e+002

> <IDNUMBER>
AT-225/NB47209

> <SALTDATA>
H2O

> <PRICE>
EUR 140/10 mg

> <Similarity score>
0.20

$$$$

  -OEChem-04222410502D

 26 30  0     0  0  0  0  0  0999 V2000
   -2.9375   -6.7125    0.0000 C   0  0  0  0  0  0  0  0  0  0  0  0
   -2.9375   -5.9542    0.0000 C   0  0  0  0  0  0  0  0  0  0  0  0
   -3.5958   -7.0875    0.0000 N   0  0  0  0  0  0  0  0  0  0  0  0
   -3.6125   -5.5792    0.0000 C   0  0  0  0  0  0  0  0  0  0  0  0
   -2.2833   -7.0875    0.0000 C   0  0  0  0  0  0  0  0  0  0  0  0
   -4.2458   -5.9542    0.0000 C   0  0  0  0  0  0  0  0  0  0  0  0
   -3.6125   -4.7917    0.0000 N   0  0  3  0  0  0  0  0  0  0  0  0
   -4.2458   -6.7125    0.0000 C   0  0  0  0  0  0  0  0  0  0  0  0
   -1.6333   -6.7125    0.0000 C   0  0  0  0  0  0  0  0  0  0  0  0
   -2.2833   -5.5792    0.0000 C   0  0  0  0  0  0  0  0  0  0  0  0
   -2.2833   -7.8417    0.0000 C   0  0  0  0  0  0  0  0  0  0  0  0
   -1.6333   -5.9542    0.0000 C   0  0  0  0  0  0  0  0  0  0  0  0
   -0.9833   -7.0875    0.0000 C   0  0  0  0  0  0  0  0  0  0  0  0
   -3.6125   -3.2875    0.0000 O   0  0  0  0  0  0  0  0  0  0  0  0
   -0.9833   -7.8417    0.0000 C   0  0  0  0  0  0  0  0  0  0  0  0
   -1.6333   -8.2167    0.0000 C   0  0  0  0  0  0  0  0  0  0  0  0
   -2.9625   -4.4167    0.0000 C   0  0  0  0  0  0  0  0  0  0  0  0
   -4.2708   -4.4167    0.0000 C   0  0  0  0  0  0  0  0  0  0  0  0
   -4.9083   -5.5792    0.0000 C   0  0  0  0  0  0  0  0  0  0  0  0
   -0.3333   -8.2167    0.0000 O   0  0  0  0  0  0  0  0  0  0  0  0
   -4.9083   -7.0875    0.0000 C   0  0  0  0  0  0  0  0  0  0  0  0
   -2.9583   -3.6667    0.0000 C   0  0  0  0  0  0  0  0  0  0  0  0
   -4.2708   -3.6625    0.0000 C   0  0  0  0  0  0  0  0  0  0  0  0
   -0.3333   -8.9667    0.0000 C   0  0  0  0  0  0  0  0  0  0  0  0
   -5.5458   -5.9542    0.0000 C   0  0  0  0  0  0  0  0  0  0  0  0
   -5.5458   -6.7125    0.0000 C   0  0  0  0  0  0  0  0  0  0  0  0
  1  2  2  0  0  0  0
  1  3  1  0  0  0  0
  2  4  1  0  0  0  0
  1  5  1  0  0  0  0
  6  8  1  0  0  0  0
  4  7  1  0  0  0  0
  3  8  2  0  0  0  0
  5  9  2  0  0  0  0
  2 10  1  0  0  0  0
  5 11  1  0  0  0  0
  9 12  1  0  0  0  0
  9 13  1  0  0  0  0
 14 23  1  0  0  0  0
 15 16  1  0  0  0  0
 11 16  2  0  0  0  0
  7 17  1  0  0  0  0
  7 18  1  0  0  0  0
  6 19  1  0  0  0  0
 15 20  1  0  0  0  0
  8 21  1  0  0  0  0
 17 22  1  0  0  0  0
 18 23  1  0  0  0  0
 20 24  1  0  0  0  0
 25 26  1  0  0  0  0
 21 26  2  0  0  0  0
 10 12  1  0  0  0  0
  4  6  2  0  0  0  0
 13 15  2  0  0  0  0
 19 25  2  0  0  0  0
 14 22  1  0  0  0  0
M  END
> <MOLFORMULA>
C22 H22 N2 O2

> <MOLWEIGHT>
3.464278000000000e+002

> <IDNUMBER>
AT-225/JK06946

> <PRICE>
EUR 140/10 mg

> <Similarity score>
0.20

$$$$

  -OEChem-04222410502D

 35 39  0     0  0  0  0  0  0999 V2000
   -0.9208   -1.3792    0.0000 C   0  0  0  0  0  0  0  0  0  0  0  0
   -0.9333   -2.3792    0.0000 C   0  0  0  0  0  0  0  0  0  0  0  0
    0.8125   -1.3917    0.0000 C   0  0  0  0  0  0  0  0  0  0  0  0
   -0.0583   -0.8792    0.0000 N   0  0  0  0  0  0  0  0  0  0  0  0
    0.8042   -2.3917    0.0000 N   0  0  0  0  0  0  0  0  0  0  0  0
   -1.8750   -1.0667    0.0000 C   0  0  0  0  0  0  0  0  0  0  0  0
   -0.0708   -2.8917    0.0000 C   0  0  0  0  0  0  0  0  0  0  0  0
   -1.8833   -2.6792    0.0000 S   0  0  0  0  0  0  0  0  0  0  0  0
   -2.4708   -1.8750    0.0000 C   0  0  0  0  0  0  0  0  0  0  0  0
    1.6792   -0.9042    0.0000 N   0  0  3  0  0  0  0  0  0  0  0  0
   -2.1833   -0.1167    0.0000 C   0  0  0  0  0  0  0  0  0  0  0  0
    3.4292    0.0833    0.0000 N   0  0  3  0  0  0  0  0  0  0  0  0
    4.3042    0.5583    0.0000 C   0  0  0  0  0  0  0  0  0  0  0  0
   -3.1625    0.1000    0.0000 C   0  0  0  0  0  0  0  0  0  0  0  0
   -3.4708    1.0375    0.0000 C   0  0  0  0  0  0  0  0  0  0  0  0
   -0.0833   -3.8917    0.0000 O   0  0  0  0  0  0  0  0  0  0  0  0
    1.7000    0.1000    0.0000 C   0  0  0  0  0  0  0  0  0  0  0  0
    2.5417   -1.4125    0.0000 C   0  0  0  0  0  0  0  0  0  0  0  0
    2.5667    0.5833    0.0000 C   0  0  0  0  0  0  0  0  0  0  0  0
    3.4167   -0.9250    0.0000 C   0  0  0  0  0  0  0  0  0  0  0  0
   -2.7833    1.7833    0.0000 C   0  0  0  0  0  0  0  0  0  0  0  0
   -1.5000    0.6125    0.0000 C   0  0  0  0  0  0  0  0  0  0  0  0
    4.3167    1.5625    0.0000 C   0  0  0  0  0  0  0  0  0  0  0  0
   -1.8125    1.5708    0.0000 C   0  0  0  0  0  0  0  0  0  0  0  0
    3.4542    2.0708    0.0000 F   0  0  0  0  0  0  0  0  0  0  0  0
   -4.4250    1.2583    0.0000 O   0  0  0  0  0  0  0  0  0  0  0  0
   -3.0875    2.7333    0.0000 O   0  0  0  0  0  0  0  0  0  0  0  0
    5.1667    0.0583    0.0000 C   0  0  0  0  0  0  0  0  0  0  0  0
    5.1875    2.0500    0.0000 C   0  0  0  0  0  0  0  0  0  0  0  0
   -5.0958    0.5208    0.0000 C   0  0  0  0  0  0  0  0  0  0  0  0
   -4.0708    2.9458    0.0000 C   0  0  0  0  0  0  0  0  0  0  0  0
   -6.0667    0.7333    0.0000 C   0  0  0  0  0  0  0  0  0  0  0  0
   -4.3583    3.9000    0.0000 C   0  0  0  0  0  0  0  0  0  0  0  0
    6.0417    0.5375    0.0000 C   0  0  0  0  0  0  0  0  0  0  0  0
    6.0667    1.5458    0.0000 C   0  0  0  0  0  0  0  0  0  0  0  0
  1  2  2  0  0  0  0
  3  4  2  0  0  0  0
  1  4  1  0  0  0  0
  3  5  1  0  0  0  0
  1  6  1  0  0  0  0
  2  7  1  0  0  0  0
  2  8  1  0  0  0  0
  6  9  2  0  0  0  0
  3 10  1  0  0  0  0
  6 11  1  0  0  0  0
 12 20  1  0  0  0  0
 12 13  1  0  0  0  0
 11 14  2  0  0  0  0
 14 15  1  0  0  0  0
  7 16  2  0  0  0  0
 10 17  1  0  0  0  0
 10 18  1  0  0  0  0
 17 19  1  0  0  0  0
 18 20  1  0  0  0  0
 21 24  1  0  0  0  0
 11 22  1  0  0  0  0
 13 23  1  0  0  0  0
 22 24  2  0  0  0  0
 23 25  1  0  0  0  0
 15 26  1  0  0  0  0
 21 27  1  0  0  0  0
 13 28  2  0  0  0  0
 23 29  2  0  0  0  0
 26 30  1  0  0  0  0
 27 31  1  0  0  0  0
 30 32  1  0  0  0  0
 31 33  1  0  0  0  0
 28 34  1  0  0  0  0
 34 35  2  0  0  0  0
  8  9  1  0  0  0  0
  5  7  1  0  0  0  0
 15 21  2  0  0  0  0
 12 19  1  0  0  0  0
 29 35  1  0  0  0  0
M  END
> <MOLFORMULA>
C26 H27 F N4 O3 S

> <MOLWEIGHT>
4.945883000000000e+002

> <IDNUMBER>
AT-687/PE25854

> <PRICE>
EUR 80/10 mg

> <Similarity score>
0.20

$$$$

  -OEChem-04222410502D

 24 26  0     0  0  0  0  0  0999 V2000
    5.6042   -2.7542    0.0000 C   0  0  0  0  0  0  0  0  0  0  0  0
    6.3250   -3.1667    0.0000 C   0  0  0  0  0  0  0  0  0  0  0  0
    6.3250   -4.0000    0.0000 N   0  0  3  0  0  0  0  0  0  0  0  0
    7.0417   -2.7542    0.0000 C   0  0  0  0  0  0  0  0  0  0  0  0
    6.3250   -1.5125    0.0000 N   0  0  0  0  0  0  0  0  0  0  0  0
    7.7542   -3.1667    0.0000 C   0  0  0  0  0  0  0  0  0  0  0  0
    8.4792   -3.5875    0.0000 N   0  0  0  0  0  0  0  0  0  0  0  0
    5.6042   -1.9292    0.0000 C   0  0  0  0  0  0  0  0  0  0  0  0
    6.3125   -6.4792    0.0000 C   0  0  0  0  0  0  0  0  0  0  0  0
    4.8875   -3.1667    0.0000 C   0  0  0  0  0  0  0  0  0  0  0  0
    7.0417   -1.9292    0.0000 C   0  0  0  0  0  0  0  0  0  0  0  0
    6.3167   -5.6542    0.0000 C   0  0  3  0  0  0  0  0  0  0  0  0
    7.0417   -4.4042    0.0000 C   0  0  0  0  0  0  0  0  0  0  0  0
    5.6042   -4.4125    0.0000 C   0  0  0  0  0  0  0  0  0  0  0  0
    7.0292   -6.9000    0.0000 O   0  0  0  0  0  0  0  0  0  0  0  0
    7.0375   -5.2417    0.0000 C   0  0  0  0  0  0  0  0  0  0  0  0
    5.6000   -5.2375    0.0000 C   0  0  0  0  0  0  0  0  0  0  0  0
    4.8875   -1.5125    0.0000 C   0  0  0  0  0  0  0  0  0  0  0  0
    4.1667   -2.7542    0.0000 C   0  0  0  0  0  0  0  0  0  0  0  0
    5.6000   -6.8917    0.0000 O   0  0  0  0  0  0  0  0  0  0  0  0
    4.1667   -1.9292    0.0000 C   0  0  0  0  0  0  0  0  0  0  0  0
    3.4542   -3.1667    0.0000 F   0  0  0  0  0  0  0  0  0  0  0  0
    4.8792   -6.4792    0.0000 C   0  0  0  0  0  0  0  0  0  0  0  0
    4.1667   -6.8917    0.0000 C   0  0  0  0  0  0  0  0  0  0  0  0
  1  2  1  0  0  0  0
  2  3  1  0  0  0  0
  2  4  2  0  0  0  0
  5  8  1  0  0  0  0
  4  6  1  0  0  0  0
  6  7  3  0  0  0  0
  1  8  1  0  0  0  0
  9 12  1  0  0  0  0
  1 10  2  0  0  0  0
  5 11  2  0  0  0  0
 12 17  1  0  0  0  0
  3 13  1  0  0  0  0
  3 14  1  0  0  0  0
  9 15  2  0  0  0  0
 13 16  1  0  0  0  0
 14 17  1  0  0  0  0
  8 18  2  0  0  0  0
 10 19  1  0  0  0  0
  9 20  1  0  0  0  0
 19 21  2  0  0  0  0
 19 22  1  0  0  0  0
 20 23  1  0  0  0  0
 23 24  1  0  0  0  0
 18 21  1  0  0  0  0
  4 11  1  0  0  0  0
 12 16  1  0  0  0  0
M  END
> <MOLFORMULA>
C18 H18 F N3 O2

> <MOLWEIGHT>
3.273572000000000e+002

> <IDNUMBER>
AT-687/SK17411

> <PRICE>
EUR 80/10 mg

> <Similarity score>
0.20

$$$$

  -OEChem-04222410502D

 22 24  0     0  0  0  0  0  0999 V2000
    2.7625   -3.4667    0.0000 C   0  0  0  0  0  0  0  0  0  0  0  0
    3.4667   -3.0542    0.0000 C   0  0  0  0  0  0  0  0  0  0  0  0
    3.4667   -2.2292    0.0000 N   0  0  3  0  0  0  0  0  0  0  0  0
    4.1875   -3.4625    0.0000 C   0  0  0  0  0  0  0  0  0  0  0  0
    3.4792   -4.7042    0.0000 N   0  0  0  0  0  0  0  0  0  0  0  0
    4.8917   -3.0417    0.0000 C   0  0  0  0  0  0  0  0  0  0  0  0
    5.6042   -2.6292    0.0000 N   0  0  0  0  0  0  0  0  0  0  0  0
    3.4625    0.2458    0.0000 C   0  0  0  0  0  0  0  0  0  0  0  0
    2.7625   -4.2917    0.0000 C   0  0  0  0  0  0  0  0  0  0  0  0
    2.0417   -3.0542    0.0000 C   0  0  0  0  0  0  0  0  0  0  0  0
    4.1917   -4.2917    0.0000 C   0  0  0  0  0  0  0  0  0  0  0  0
    3.4625   -0.5792    0.0000 C   0  0  3  0  0  0  0  0  0  0  0  0
    2.7500   -1.8292    0.0000 C   0  0  0  0  0  0  0  0  0  0  0  0
    4.1792   -1.8167    0.0000 C   0  0  0  0  0  0  0  0  0  0  0  0
    2.7500    0.6583    0.0000 O   0  0  0  0  0  0  0  0  0  0  0  0
    2.7500   -1.0000    0.0000 C   0  0  0  0  0  0  0  0  0  0  0  0
    4.1792   -1.0000    0.0000 C   0  0  0  0  0  0  0  0  0  0  0  0
    2.0417   -4.7125    0.0000 C   0  0  0  0  0  0  0  0  0  0  0  0
    1.3292   -3.4750    0.0000 C   0  0  0  0  0  0  0  0  0  0  0  0
    4.1750    0.6583    0.0000 O   0  0  0  0  0  0  0  0  0  0  0  0
    1.3292   -4.3000    0.0000 C   0  0  0  0  0  0  0  0  0  0  0  0
    0.6167   -3.0625    0.0000 F   0  0  0  0  0  0  0  0  0  0  0  0
  1  2  1  0  0  0  0
  2  3  1  0  0  0  0
  2  4  2  0  0  0  0
  5  9  1  0  0  0  0
  4  6  1  0  0  0  0
  6  7  3  0  0  0  0
  8 12  1  0  0  0  0
  1  9  1  0  0  0  0
  1 10  2  0  0  0  0
  5 11  2  0  0  0  0
 12 17  1  0  0  0  0
  3 13  1  0  0  0  0
  3 14  1  0  0  0  0
  8 15  2  0  0  0  0
 13 16  1  0  0  0  0
 14 17  1  0  0  0  0
  9 18  2  0  0  0  0
 10 19  1  0  0  0  0
  8 20  1  0  0  0  0
 19 21  2  0  0  0  0
 19 22  1  0  0  0  0
 18 21  1  0  0  0  0
  4 11  1  0  0  0  0
 12 16  1  0  0  0  0
M  END
> <MOLFORMULA>
C16 H14 F N3 O2

> <MOLWEIGHT>
2.993036000000000e+002

> <IDNUMBER>
AT-687/SK17429

> <PRICE>
EUR 80/10 mg

> <Similarity score>
0.20

$$$$

  -OEChem-04222410502D

 33 37  0     0  0  0  0  0  0999 V2000
    5.9750   -8.0542    0.0000 S   0  0  3  0  0  0  0  0  0  0  0  0
    4.6417   -8.0542    0.0000 C   0  0  0  0  0  0  0  0  0  0  0  0
    3.9750   -6.9042    0.0000 C   0  0  0  0  0  0  0  0  0  0  0  0
    2.6542   -6.9042    0.0000 C   0  0  0  0  0  0  0  0  0  0  0  0
    2.6542   -9.2042    0.0000 N   0  0  0  0  0  0  0  0  0  0  0  0
    1.9750   -8.0542    0.0000 C   0  0  0  0  0  0  0  0  0  0  0  0
    4.6417   -5.7500    0.0000 N   0  0  3  0  0  0  0  0  0  0  0  0
    3.9750   -9.2042    0.0000 C   0  0  0  0  0  0  0  0  0  0  0  0
    6.6417   -2.3042    0.0000 N   0  0  3  0  0  0  0  0  0  0  0  0
    7.3000   -8.0542    0.0000 C   0  0  0  0  0  0  0  0  0  0  0  0
    5.9750   -6.7292    0.0000 O   0  0  0  0  0  0  0  0  0  0  0  0
    5.9750   -9.3917    0.0000 O   0  0  0  0  0  0  0  0  0  0  0  0
    5.9750   -3.4542    0.0000 C   0  0  3  0  0  0  0  0  0  0  0  0
    4.6417   -3.4542    0.0000 C   0  0  0  0  0  0  0  0  0  0  0  0
    6.6417   -4.5917    0.0000 C   0  0  0  0  0  0  0  0  0  0  0  0
    3.9750   -4.5917    0.0000 C   0  0  0  0  0  0  0  0  0  0  0  0
    5.9750   -5.7500    0.0000 C   0  0  0  0  0  0  0  0  0  0  0  0
    0.6667   -8.0542    0.0000 C   0  0  0  0  0  0  0  0  0  0  0  0
    7.9750   -9.2042    0.0000 C   0  0  0  0  0  0  0  0  0  0  0  0
    7.9750   -6.9042    0.0000 C   0  0  0  0  0  0  0  0  0  0  0  0
    1.9750   -5.7500    0.0000 C   0  0  0  0  0  0  0  0  0  0  0  0
    9.9542   -8.0542    0.0000 C   0  0  0  0  0  0  0  0  0  0  0  0
    0.0000   -9.2042    0.0000 F   0  0  0  0  0  0  0  0  0  0  0  0
    9.3125   -6.9042    0.0000 C   0  0  0  0  0  0  0  0  0  0  0  0
    9.3125   -9.2042    0.0000 C   0  0  0  0  0  0  0  0  0  0  0  0
   11.3000   -8.0542    0.0000 F   0  0  0  0  0  0  0  0  0  0  0  0
    5.9750   -1.1500    0.0000 C   0  0  0  0  0  0  0  0  0  0  0  0
    7.9750   -2.3042    0.0000 C   0  0  0  0  0  0  0  0  0  0  0  0
    0.6667   -5.7500    0.0000 C   0  0  0  0  0  0  0  0  0  0  0  0
    0.0000   -6.9042    0.0000 C   0  0  0  0  0  0  0  0  0  0  0  0
    6.6417   -0.0000    0.0000 C   0  0  0  0  0  0  0  0  0  0  0  0
    8.6417   -1.1500    0.0000 C   0  0  0  0  0  0  0  0  0  0  0  0
    7.9750   -0.0000    0.0000 C   0  0  0  0  0  0  0  0  0  0  0  0
  1  2  1  0  0  0  0
  2  3  2  0  0  0  0
  3  4  1  0  0  0  0
  5  8  2  0  0  0  0
  5  6  1  0  0  0  0
  3  7  1  0  0  0  0
  2  8  1  0  0  0  0
  9 13  1  0  0  0  0
  1 10  1  0  0  0  0
  1 11  2  0  0  0  0
  1 12  2  0  0  0  0
 13 15  1  0  0  0  0
 14 16  1  0  0  0  0
 15 17  1  0  0  0  0
  7 16  1  0  0  0  0
  7 17  1  0  0  0  0
  6 18  2  0  0  0  0
 10 19  2  0  0  0  0
 10 20  1  0  0  0  0
  4 21  2  0  0  0  0
 22 24  1  0  0  0  0
 18 23  1  0  0  0  0
 20 24  2  0  0  0  0
 19 25  1  0  0  0  0
 22 26  1  0  0  0  0
  9 27  1  0  0  0  0
  9 28  1  0  0  0  0
 21 29  1  0  0  0  0
 18 30  1  0  0  0  0
 27 31  1  0  0  0  0
 28 32  1  0  0  0  0
 32 33  1  0  0  0  0
 22 25  2  0  0  0  0
  4  6  1  0  0  0  0
 13 14  1  0  0  0  0
 29 30  2  0  0  0  0
 31 33  1  0  0  0  0
M  END
> <MOLFORMULA>
C25 H27 F2 N3 O2 S

> <MOLWEIGHT>
4.715693000000000e+002

> <IDNUMBER>
AT-687/NB06792

> <PRICE>
EUR 80/10 mg

> <Similarity score>
0.20

$$$$

  -OEChem-04222410502D

 33 37  0     0  0  0  0  0  0999 V2000
    5.9792   -6.8292    0.0000 S   0  0  3  0  0  0  0  0  0  0  0  0
    4.6375   -6.8292    0.0000 C   0  0  0  0  0  0  0  0  0  0  0  0
    3.9667   -5.6792    0.0000 C   0  0  0  0  0  0  0  0  0  0  0  0
    2.6625   -5.6792    0.0000 C   0  0  0  0  0  0  0  0  0  0  0  0
    2.6625   -7.9792    0.0000 N   0  0  0  0  0  0  0  0  0  0  0  0
    1.9917   -6.8292    0.0000 C   0  0  0  0  0  0  0  0  0  0  0  0
    4.6375   -4.5375    0.0000 N   0  0  3  0  0  0  0  0  0  0  0  0
    3.9667   -7.9792    0.0000 C   0  0  0  0  0  0  0  0  0  0  0  0
    7.3042   -6.8292    0.0000 C   0  0  0  0  0  0  0  0  0  0  0  0
    5.9792   -5.4917    0.0000 O   0  0  0  0  0  0  0  0  0  0  0  0
    5.9792   -8.1625    0.0000 O   0  0  0  0  0  0  0  0  0  0  0  0
    7.9667   -1.0542    0.0000 N   0  0  3  0  0  0  0  0  0  0  0  0
    0.6625   -6.8292    0.0000 C   0  0  0  0  0  0  0  0  0  0  0  0
    3.9667   -3.3750    0.0000 C   0  0  0  0  0  0  0  0  0  0  0  0
    5.9792   -4.5375    0.0000 C   0  0  0  0  0  0  0  0  0  0  0  0
    7.9667   -7.9792    0.0000 C   0  0  0  0  0  0  0  0  0  0  0  0
    7.9667   -5.6792    0.0000 C   0  0  0  0  0  0  0  0  0  0  0  0
    6.6500   -1.0542    0.0000 C   0  0  0  0  0  0  0  0  0  0  0  0
    1.9917   -4.5375    0.0000 C   0  0  0  0  0  0  0  0  0  0  0  0
    9.9542   -6.8292    0.0000 C   0  0  0  0  0  0  0  0  0  0  0  0
    0.0000   -7.9792    0.0000 F   0  0  0  0  0  0  0  0  0  0  0  0
    9.3000   -5.6792    0.0000 C   0  0  0  0  0  0  0  0  0  0  0  0
    9.3000   -7.9792    0.0000 C   0  0  0  0  0  0  0  0  0  0  0  0
    4.6375   -2.2167    0.0000 C   0  0  0  0  0  0  0  0  0  0  0  0
    6.6500   -3.3750    0.0000 C   0  0  0  0  0  0  0  0  0  0  0  0
    5.9792   -2.2167    0.0000 C   0  0  3  0  0  0  0  0  0  0  0  0
   11.2875   -6.8292    0.0000 F   0  0  0  0  0  0  0  0  0  0  0  0
    8.7542   -2.1417    0.0000 C   0  0  0  0  0  0  0  0  0  0  0  0
    8.7542   -0.0000    0.0000 C   0  0  0  0  0  0  0  0  0  0  0  0
    0.6625   -4.5375    0.0000 C   0  0  0  0  0  0  0  0  0  0  0  0
    0.0000   -5.6792    0.0000 C   0  0  0  0  0  0  0  0  0  0  0  0
   10.0208   -1.7375    0.0000 C   0  0  0  0  0  0  0  0  0  0  0  0
   10.0208   -0.4042    0.0000 C   0  0  0  0  0  0  0  0  0  0  0  0
  1  2  1  0  0  0  0
  2  3  2  0  0  0  0
  3  4  1  0  0  0  0
  5  8  2  0  0  0  0
  5  6  1  0  0  0  0
  3  7  1  0  0  0  0
  2  8  1  0  0  0  0
  1  9  1  0  0  0  0
  1 10  2  0  0  0  0
  1 11  2  0  0  0  0
 12 18  1  0  0  0  0
  6 13  2  0  0  0  0
  7 14  1  0  0  0  0
  7 15  1  0  0  0  0
  9 16  2  0  0  0  0
  9 17  1  0  0  0  0
 18 26  1  0  0  0  0
  4 19  2  0  0  0  0
 20 22  1  0  0  0  0
 13 21  1  0  0  0  0
 17 22  2  0  0  0  0
 16 23  1  0  0  0  0
 14 24  1  0  0  0  0
 15 25  1  0  0  0  0
 25 26  1  0  0  0  0
 20 27  1  0  0  0  0
 12 28  1  0  0  0  0
 12 29  1  0  0  0  0
 19 30  1  0  0  0  0
 13 31  1  0  0  0  0
 28 32  1  0  0  0  0
 29 33  1  0  0  0  0
 20 23  2  0  0  0  0
  4  6  1  0  0  0  0
 30 31  2  0  0  0  0
 24 26  1  0  0  0  0
 32 33  1  0  0  0  0
M  END
> <MOLFORMULA>
C25 H27 F2 N3 O2 S

> <MOLWEIGHT>
4.715693000000000e+002

> <IDNUMBER>
AT-687/NB06795

> <PRICE>
EUR 80/10 mg

> <Similarity score>
0.20

$$$$

  -OEChem-04222410502D

 29 32  0     0  0  0  0  0  0999 V2000
    0.2500   -1.6625    0.0000 S   0  0  3  0  0  0  0  0  0  0  0  0
   -0.7583   -1.6625    0.0000 C   0  0  0  0  0  0  0  0  0  0  0  0
   -1.2583   -0.7917    0.0000 C   0  0  0  0  0  0  0  0  0  0  0  0
   -2.2500   -0.7917    0.0000 C   0  0  0  0  0  0  0  0  0  0  0  0
   -2.2500   -2.5292    0.0000 N   0  0  0  0  0  0  0  0  0  0  0  0
   -2.7583   -1.6625    0.0000 C   0  0  0  0  0  0  0  0  0  0  0  0
   -0.7583    0.0708    0.0000 C   0  0  0  0  0  0  0  0  0  0  0  0
   -1.2583   -2.5292    0.0000 C   0  0  0  0  0  0  0  0  0  0  0  0
   -3.7500   -1.6625    0.0000 C   0  0  0  0  0  0  0  0  0  0  0  0
    1.2417   -1.6625    0.0000 C   0  0  0  0  0  0  0  0  0  0  0  0
   -4.2500   -0.7917    0.0000 C   0  0  0  0  0  0  0  0  0  0  0  0
    0.2500   -0.6625    0.0000 O   0  0  0  0  0  0  0  0  0  0  0  0
    0.2500   -2.6625    0.0000 O   0  0  0  0  0  0  0  0  0  0  0  0
   -2.7583    0.0708    0.0000 C   0  0  0  0  0  0  0  0  0  0  0  0
   -3.7500    0.0708    0.0000 C   0  0  0  0  0  0  0  0  0  0  0  0
   -1.2583    0.9333    0.0000 C   0  0  0  0  0  0  0  0  0  0  0  0
    1.7417   -2.5292    0.0000 C   0  0  0  0  0  0  0  0  0  0  0  0
    1.7417   -0.7917    0.0000 C   0  0  0  0  0  0  0  0  0  0  0  0
   -4.2500   -2.5292    0.0000 F   0  0  0  0  0  0  0  0  0  0  0  0
   -0.7583    1.8000    0.0000 C   0  0  0  0  0  0  0  0  0  0  0  0
    3.2417   -1.6625    0.0000 C   0  0  0  0  0  0  0  0  0  0  0  0
   -4.2500    0.9333    0.0000 Cl  0  0  0  0  0  0  0  0  0  0  0  0
    2.7500   -0.7917    0.0000 C   0  0  0  0  0  0  0  0  0  0  0  0
    2.7500   -2.5292    0.0000 C   0  0  0  0  0  0  0  0  0  0  0  0
   -1.2583    2.6708    0.0000 F   0  0  0  0  0  0  0  0  0  0  0  0
    4.2500   -1.6625    0.0000 F   0  0  0  0  0  0  0  0  0  0  0  0
    0.2500    0.0708    0.0000 C   0  0  0  0  0  0  0  0  0  0  0  0
    0.7500    0.9333    0.0000 C   0  0  0  0  0  0  0  0  0  0  0  0
    0.2500    1.8000    0.0000 C   0  0  0  0  0  0  0  0  0  0  0  0
  1  2  1  0  0  0  0
  2  3  2  0  0  0  0
  3  4  1  0  0  0  0
  5  8  2  0  0  0  0
  5  6  1  0  0  0  0
  3  7  1  0  0  0  0
  2  8  1  0  0  0  0
  6  9  2  0  0  0  0
  1 10  1  0  0  0  0
  9 11  1  0  0  0  0
  1 12  2  0  0  0  0
  1 13  2  0  0  0  0
  4 14  2  0  0  0  0
 14 15  1  0  0  0  0
  7 16  2  0  0  0  0
 10 17  2  0  0  0  0
 10 18  1  0  0  0  0
  9 19  1  0  0  0  0
 16 20  1  0  0  0  0
 21 23  1  0  0  0  0
 15 22  1  0  0  0  0
 18 23  2  0  0  0  0
 17 24  1  0  0  0  0
 20 25  1  0  0  0  0
 21 26  1  0  0  0  0
  7 27  1  0  0  0  0
 27 28  2  0  0  0  0
 28 29  1  0  0  0  0
 21 24  2  0  0  0  0
  4  6  1  0  0  0  0
 11 15  2  0  0  0  0
 20 29  2  0  0  0  0
M  END
> <MOLFORMULA>
C21 H11 Cl F3 N O2 S

> <MOLWEIGHT>
4.338359000000000e+002

> <IDNUMBER>
AT-687/PE25811

> <PRICE>
EUR 80/10 mg

> <Similarity score>
0.20

$$$$

  -OEChem-04222410502D

 26 30  0     0  0  0  0  0  0999 V2000
   -0.6458    1.4625    0.0000 N   0  0  0  0  0  0  0  0  0  0  0  0
    0.3500    1.5583    0.0000 C   0  0  0  0  0  0  0  0  0  0  0  0
    0.9333    0.7458    0.0000 N   0  0  0  0  0  0  0  0  0  0  0  0
    0.5208   -0.1625    0.0000 C   0  0  0  0  0  0  0  0  0  0  0  0
   -1.0583    0.5542    0.0000 C   0  0  0  0  0  0  0  0  0  0  0  0
   -0.4750   -0.2625    0.0000 C   0  0  0  0  0  0  0  0  0  0  0  0
    0.7667    2.4708    0.0000 N   0  0  3  0  0  0  0  0  0  0  0  0
   -0.8917   -1.1708    0.0000 C   0  0  0  0  0  0  0  0  0  0  0  0
   -0.3083   -1.9833    0.0000 C   0  0  0  0  0  0  0  0  0  0  0  0
    1.2667   -2.7000    0.0000 C   0  0  0  0  0  0  0  0  0  0  0  0
   -2.0542    0.4542    0.0000 N   0  0  0  0  0  0  0  0  0  0  0  0
    0.6875   -1.8875    0.0000 C   0  0  0  0  0  0  0  0  0  0  0  0
    1.1000   -0.9792    0.0000 O   0  0  0  0  0  0  0  0  0  0  0  0
    0.8542   -3.6125    0.0000 C   0  0  0  0  0  0  0  0  0  0  0  0
    2.2625   -2.8125    0.0000 O   0  0  0  0  0  0  0  0  0  0  0  0
    1.5917   -4.2875    0.0000 O   0  0  0  0  0  0  0  0  0  0  0  0
    2.4625   -3.7917    0.0000 C   0  0  0  0  0  0  0  0  0  0  0  0
   -0.7208   -2.8958    0.0000 C   0  0  0  0  0  0  0  0  0  0  0  0
   -0.1417   -3.7083    0.0000 C   0  0  0  0  0  0  0  0  0  0  0  0
   -2.4667   -0.4542    0.0000 C   0  0  0  0  0  0  0  0  0  0  0  0
   -1.8833   -1.2667    0.0000 C   0  0  0  0  0  0  0  0  0  0  0  0
    1.7625    2.5667    0.0000 C   0  0  0  0  0  0  0  0  0  0  0  0
    0.1833    3.2833    0.0000 C   0  0  0  0  0  0  0  0  0  0  0  0
    0.5958    4.1917    0.0000 C   0  0  0  0  0  0  0  0  0  0  0  0
    2.1750    3.4792    0.0000 C   0  0  0  0  0  0  0  0  0  0  0  0
    1.5917    4.2875    0.0000 C   0  0  0  0  0  0  0  0  0  0  0  0
  1  2  2  0  0  0  0
  2  3  1  0  0  0  0
  4  6  1  0  0  0  0
  1  5  1  0  0  0  0
  5  6  2  0  0  0  0
  2  7  1  0  0  0  0
  6  8  1  0  0  0  0
  8  9  1  0  0  0  0
 10 12  2  0  0  0  0
  5 11  1  0  0  0  0
  9 12  1  0  0  0  0
  4 13  2  0  0  0  0
 14 19  2  0  0  0  0
 10 15  1  0  0  0  0
 14 16  1  0  0  0  0
 15 17  1  0  0  0  0
  9 18  2  0  0  0  0
 18 19  1  0  0  0  0
 11 20  2  0  0  0  0
 20 21  1  0  0  0  0
  7 22  1  0  0  0  0
  7 23  1  0  0  0  0
 23 24  1  0  0  0  0
 22 25  1  0  0  0  0
 24 26  1  0  0  0  0
  3  4  1  0  0  0  0
  8 21  2  0  0  0  0
 25 26  1  0  0  0  0
 10 14  1  0  0  0  0
 16 17  1  0  0  0  0
M  END
> <MOLFORMULA>
C19 H18 N4 O3

> <MOLWEIGHT>
3.503762000000000e+002

> <IDNUMBER>
AN-153/J107084

> <PRICE>
EUR 130/10 mg

> <Similarity score>
0.20

$$$$

  -OEChem-04222410502D

 26 30  0     0  0  0  0  0  0999 V2000
   -0.4917   -1.7042    0.0000 N   0  0  0  0  0  0  0  0  0  0  0  0
    0.4875   -1.9167    0.0000 C   0  0  0  0  0  0  0  0  0  0  0  0
    1.1583   -1.1750    0.0000 N   0  0  0  0  0  0  0  0  0  0  0  0
    0.8500   -0.2208    0.0000 C   0  0  0  0  0  0  0  0  0  0  0  0
   -0.8000   -0.7542    0.0000 C   0  0  0  0  0  0  0  0  0  0  0  0
   -0.1292   -0.0125    0.0000 C   0  0  0  0  0  0  0  0  0  0  0  0
    0.7958   -2.8667    0.0000 N   0  0  3  0  0  0  0  0  0  0  0  0
   -0.4375    0.9375    0.0000 C   0  0  0  0  0  0  0  0  0  0  0  0
    0.2333    1.6792    0.0000 C   0  0  0  0  0  0  0  0  0  0  0  0
    0.5958    3.3750    0.0000 C   0  0  0  0  0  0  0  0  0  0  0  0
   -1.7750   -0.5458    0.0000 N   0  0  0  0  0  0  0  0  0  0  0  0
   -0.0708    2.6333    0.0000 C   0  0  0  0  0  0  0  0  0  0  0  0
    1.5208    0.5208    0.0000 O   0  0  0  0  0  0  0  0  0  0  0  0
    1.5750    3.1667    0.0000 C   0  0  0  0  0  0  0  0  0  0  0  0
    0.4958    4.3667    0.0000 O   0  0  0  0  0  0  0  0  0  0  0  0
    2.0750    4.0250    0.0000 O   0  0  0  0  0  0  0  0  0  0  0  0
    1.4083    4.7708    0.0000 C   0  0  0  0  0  0  0  0  0  0  0  0
    1.2125    1.4708    0.0000 C   0  0  0  0  0  0  0  0  0  0  0  0
    1.8833    2.2125    0.0000 C   0  0  0  0  0  0  0  0  0  0  0  0
    1.4083   -4.7708    0.0000 O   0  0  0  0  0  0  0  0  0  0  0  0
   -2.0833    0.4083    0.0000 C   0  0  0  0  0  0  0  0  0  0  0  0
   -1.4125    1.1500    0.0000 C   0  0  0  0  0  0  0  0  0  0  0  0
    0.1250   -3.6083    0.0000 C   0  0  0  0  0  0  0  0  0  0  0  0
    1.7708   -3.0750    0.0000 C   0  0  0  0  0  0  0  0  0  0  0  0
    0.4292   -4.5625    0.0000 C   0  0  0  0  0  0  0  0  0  0  0  0
    2.0792   -4.0292    0.0000 C   0  0  0  0  0  0  0  0  0  0  0  0
  1  2  2  0  0  0  0
  2  3  1  0  0  0  0
  4  6  1  0  0  0  0
  1  5  1  0  0  0  0
  5  6  2  0  0  0  0
  2  7  1  0  0  0  0
  6  8  1  0  0  0  0
  8  9  1  0  0  0  0
 10 12  2  0  0  0  0
  5 11  1  0  0  0  0
  9 12  1  0  0  0  0
  4 13  2  0  0  0  0
 14 19  2  0  0  0  0
 10 15  1  0  0  0  0
 14 16  1  0  0  0  0
 15 17  1  0  0  0  0
  9 18  2  0  0  0  0
 18 19  1  0  0  0  0
 20 26  1  0  0  0  0
 11 21  2  0  0  0  0
 21 22  1  0  0  0  0
  7 23  1  0  0  0  0
  7 24  1  0  0  0  0
 23 25  1  0  0  0  0
 24 26  1  0  0  0  0
  3  4  1  0  0  0  0
  8 22  2  0  0  0  0
 20 25  1  0  0  0  0
 10 14  1  0  0  0  0
 16 17  1  0  0  0  0
M  END
> <MOLFORMULA>
C18 H16 N4 O4

> <MOLWEIGHT>
3.523484000000000e+002

> <IDNUMBER>
AN-153/J107076

> <PRICE>
EUR 130/10 mg

> <Similarity score>
0.20

$$$$

  -OEChem-04222410502D

 24 27  0     0  0  0  0  0  0999 V2000
    6.6625   -3.0500    0.0000 N   0  0  0  0  0  0  0  0  0  0  0  0
    5.9500   -2.6375    0.0000 C   0  0  0  0  0  0  0  0  0  0  0  0
    7.3792   -2.6375    0.0000 C   0  0  0  0  0  0  0  0  0  0  0  0
    5.9500   -1.8125    0.0000 C   0  0  0  0  0  0  0  0  0  0  0  0
    5.2292   -3.0500    0.0000 N   0  0  3  0  0  0  0  0  0  0  0  0
    7.3792   -1.8042    0.0000 N   0  0  0  0  0  0  0  0  0  0  0  0
   10.1917   -2.6667    0.0000 C   0  0  0  0  0  0  0  0  0  0  0  0
    8.0917   -3.8750    0.0000 N   0  0  0  0  0  0  0  0  0  0  0  0
   10.8792   -3.0542    0.0000 C   0  0  0  0  0  0  0  0  0  0  0  0
   10.1917   -1.8792    0.0000 O   0  0  0  0  0  0  0  0  0  0  0  0
    6.6625   -1.3917    0.0000 C   0  0  0  0  0  0  0  0  0  0  0  0
   11.5625   -2.6542    0.0000 O   0  0  0  0  0  0  0  0  0  0  0  0
    8.0917   -3.0500    0.0000 N   0  0  0  0  0  0  0  0  0  0  0  0
   11.1542   -1.7792    0.0000 C   0  0  0  0  0  0  0  0  0  0  0  0
    9.5125   -3.0750    0.0000 C   0  0  0  0  0  0  0  0  0  0  0  0
   10.8917   -3.8500    0.0000 C   0  0  0  0  0  0  0  0  0  0  0  0
    5.2375   -1.4000    0.0000 F   0  0  0  0  0  0  0  0  0  0  0  0
    8.8125   -4.2792    0.0000 C   0  0  0  0  0  0  0  0  0  0  0  0
    9.5250   -3.8667    0.0000 C   0  0  0  0  0  0  0  0  0  0  0  0
   10.2042   -4.2542    0.0000 C   0  0  0  0  0  0  0  0  0  0  0  0
    4.4875   -2.7125    0.0000 C   0  0  0  0  0  0  0  0  0  0  0  0
    5.1542   -3.8667    0.0000 C   0  0  0  0  0  0  0  0  0  0  0  0
    4.3417   -4.0417    0.0000 C   0  0  0  0  0  0  0  0  0  0  0  0
    3.9292   -3.3250    0.0000 C   0  0  0  0  0  0  0  0  0  0  0  0
  1  2  1  0  0  0  0
  1  3  2  0  0  0  0
  2  4  2  0  0  0  0
  2  5  1  0  0  0  0
  3  6  1  0  0  0  0
  7 15  1  0  0  0  0
  8 13  1  0  0  0  0
  9 16  1  0  0  0  0
  7 10  1  0  0  0  0
  6 11  2  0  0  0  0
  9 12  1  0  0  0  0
  3 13  1  0  0  0  0
 10 14  1  0  0  0  0
 15 19  2  0  0  0  0
 16 20  2  0  0  0  0
  4 17  1  0  0  0  0
  8 18  2  0  0  0  0
 18 19  1  0  0  0  0
 19 20  1  0  0  0  0
  5 21  1  0  0  0  0
  5 22  1  0  0  0  0
 22 23  1  0  0  0  0
 21 24  1  0  0  0  0
  4 11  1  0  0  0  0
 23 24  1  0  0  0  0
  7  9  2  0  0  0  0
 12 14  1  0  0  0  0
M  END
> <MOLFORMULA>
C16 H16 F N5 O2

> <MOLWEIGHT>
3.293334000000000e+002

> <IDNUMBER>
AT-138/QI01021

> <CHIRALFLAG>
-

> <PRICE>
EUR 125.00/10 mg

> <Similarity score>
0.20

$$$$

  -OEChem-04222410502D

 27 31  0     0  0  0  0  0  0999 V2000
   -2.9375   -6.7125    0.0000 C   0  0  0  0  0  0  0  0  0  0  0  0
   -2.9375   -5.9542    0.0000 C   0  0  0  0  0  0  0  0  0  0  0  0
   -3.5958   -7.0875    0.0000 N   0  0  0  0  0  0  0  0  0  0  0  0
   -3.6125   -5.5792    0.0000 C   0  0  0  0  0  0  0  0  0  0  0  0
   -2.2833   -7.0875    0.0000 C   0  0  0  0  0  0  0  0  0  0  0  0
   -3.6125   -4.7917    0.0000 N   0  0  3  0  0  0  0  0  0  0  0  0
   -4.2458   -5.9542    0.0000 C   0  0  0  0  0  0  0  0  0  0  0  0
   -4.2458   -6.7125    0.0000 C   0  0  0  0  0  0  0  0  0  0  0  0
   -1.6333   -6.7125    0.0000 C   0  0  0  0  0  0  0  0  0  0  0  0
   -2.2833   -5.5792    0.0000 C   0  0  0  0  0  0  0  0  0  0  0  0
   -3.6125   -3.2875    0.0000 N   0  0  3  0  0  0  0  0  0  0  0  0
   -2.2833   -7.8417    0.0000 C   0  0  0  0  0  0  0  0  0  0  0  0
   -1.6333   -5.9542    0.0000 C   0  0  0  0  0  0  0  0  0  0  0  0
   -0.9833   -7.0875    0.0000 C   0  0  0  0  0  0  0  0  0  0  0  0
   -2.9625   -4.4167    0.0000 C   0  0  0  0  0  0  0  0  0  0  0  0
   -4.2708   -4.4167    0.0000 C   0  0  0  0  0  0  0  0  0  0  0  0
   -4.2708   -3.6625    0.0000 C   0  0  0  0  0  0  0  0  0  0  0  0
   -2.9583   -3.6667    0.0000 C   0  0  0  0  0  0  0  0  0  0  0  0
   -0.9833   -7.8417    0.0000 C   0  0  0  0  0  0  0  0  0  0  0  0
   -1.6333   -8.2167    0.0000 C   0  0  0  0  0  0  0  0  0  0  0  0
   -4.9083   -5.5792    0.0000 C   0  0  0  0  0  0  0  0  0  0  0  0
   -0.3333   -8.2167    0.0000 O   0  0  0  0  0  0  0  0  0  0  0  0
   -3.6083   -2.5375    0.0000 C   0  0  0  0  0  0  0  0  0  0  0  0
   -4.9083   -7.0875    0.0000 C   0  0  0  0  0  0  0  0  0  0  0  0
   -0.3333   -8.9667    0.0000 C   0  0  0  0  0  0  0  0  0  0  0  0
   -5.5458   -5.9542    0.0000 C   0  0  0  0  0  0  0  0  0  0  0  0
   -5.5458   -6.7125    0.0000 C   0  0  0  0  0  0  0  0  0  0  0  0
  1  2  2  0  0  0  0
  1  3  1  0  0  0  0
  2  4  1  0  0  0  0
  1  5  1  0  0  0  0
  4  6  1  0  0  0  0
  7  8  1  0  0  0  0
  3  8  2  0  0  0  0
  5  9  2  0  0  0  0
  2 10  1  0  0  0  0
 11 17  1  0  0  0  0
  5 12  1  0  0  0  0
  9 13  1  0  0  0  0
  9 14  1  0  0  0  0
  6 15  1  0  0  0  0
  6 16  1  0  0  0  0
 16 17  1  0  0  0  0
 15 18  1  0  0  0  0
 19 20  1  0  0  0  0
 12 20  2  0  0  0  0
  7 21  1  0  0  0  0
 19 22  1  0  0  0  0
 11 23  1  0  0  0  0
  8 24  1  0  0  0  0
 22 25  1  0  0  0  0
 26 27  1  0  0  0  0
 24 27  2  0  0  0  0
 10 13  1  0  0  0  0
  4  7  2  0  0  0  0
 14 19  2  0  0  0  0
 21 26  2  0  0  0  0
 11 18  1  0  0  0  0
M  END
> <MOLFORMULA>
C23 H25 N3 O

> <MOLWEIGHT>
3.594705000000000e+002

> <IDNUMBER>
AT-225/JK06945

> <PRICE>
EUR 140/10 mg

> <Similarity score>
0.20

$$$$

  -OEChem-04222410502D

 27 31  0     0  0  0  0  0  0999 V2000
    5.3958   -7.8167    0.0000 C   0  0  0  0  0  0  0  0  0  0  0  0
    5.3958   -6.9875    0.0000 C   0  0  0  0  0  0  0  0  0  0  0  0
    4.6833   -8.2292    0.0000 N   0  0  0  0  0  0  0  0  0  0  0  0
    4.6833   -6.5750    0.0000 C   0  0  0  0  0  0  0  0  0  0  0  0
    6.1083   -8.2292    0.0000 C   0  0  0  0  0  0  0  0  0  0  0  0
    4.6833   -5.7458    0.0000 N   0  0  3  0  0  0  0  0  0  0  0  0
    3.9667   -6.9875    0.0000 C   0  0  0  0  0  0  0  0  0  0  0  0
    3.9667   -7.8167    0.0000 C   0  0  0  0  0  0  0  0  0  0  0  0
    6.8250   -7.8167    0.0000 C   0  0  0  0  0  0  0  0  0  0  0  0
    6.1083   -6.5750    0.0000 C   0  0  0  0  0  0  0  0  0  0  0  0
    4.6833   -4.0917    0.0000 N   0  0  3  0  0  0  0  0  0  0  0  0
    6.1083   -9.0583    0.0000 C   0  0  0  0  0  0  0  0  0  0  0  0
    6.8250   -6.9875    0.0000 C   0  0  0  0  0  0  0  0  0  0  0  0
    7.5417   -8.2292    0.0000 C   0  0  0  0  0  0  0  0  0  0  0  0
    5.4000   -5.3333    0.0000 C   0  0  0  0  0  0  0  0  0  0  0  0
    3.9708   -5.3333    0.0000 C   0  0  0  0  0  0  0  0  0  0  0  0
    3.9708   -4.5042    0.0000 C   0  0  0  0  0  0  0  0  0  0  0  0
    5.4000   -4.5042    0.0000 C   0  0  0  0  0  0  0  0  0  0  0  0
    7.5417   -9.0583    0.0000 C   0  0  0  0  0  0  0  0  0  0  0  0
    6.8208   -9.4708    0.0000 C   0  0  0  0  0  0  0  0  0  0  0  0
    3.2542   -6.5750    0.0000 C   0  0  0  0  0  0  0  0  0  0  0  0
    8.2667   -9.4750    0.0000 O   0  0  0  0  0  0  0  0  0  0  0  0
    4.6750   -3.2667    0.0000 C   0  0  0  0  0  0  0  0  0  0  0  0
    3.2542   -8.2292    0.0000 C   0  0  0  0  0  0  0  0  0  0  0  0
    8.9875   -9.0583    0.0000 C   0  0  0  0  0  0  0  0  0  0  0  0
    2.5375   -6.9875    0.0000 C   0  0  0  0  0  0  0  0  0  0  0  0
    2.5375   -7.8167    0.0000 C   0  0  0  0  0  0  0  0  0  0  0  0
  1  2  1  0  0  0  0
  1  3  2  0  0  0  0
  2  4  2  0  0  0  0
  1  5  1  0  0  0  0
  4  6  1  0  0  0  0
  7  8  1  0  0  0  0
  3  8  1  0  0  0  0
  5  9  2  0  0  0  0
  2 10  1  0  0  0  0
 11 17  1  0  0  0  0
  5 12  1  0  0  0  0
  9 13  1  0  0  0  0
  9 14  1  0  0  0  0
  6 15  1  0  0  0  0
  6 16  1  0  0  0  0
 16 17  1  0  0  0  0
 15 18  1  0  0  0  0
 19 20  1  0  0  0  0
 12 20  2  0  0  0  0
  7 21  2  0  0  0  0
 19 22  1  0  0  0  0
 11 23  1  0  0  0  0
  8 24  2  0  0  0  0
 22 25  1  0  0  0  0
 26 27  2  0  0  0  0
 24 27  1  0  0  0  0
 10 13  1  0  0  0  0
  4  7  1  0  0  0  0
 14 19  2  0  0  0  0
 21 26  1  0  0  0  0
 11 18  1  0  0  0  0
M  END
> <MOLFORMULA>
C23 H25 N3 O

> <MOLWEIGHT>
3.594705000000000e+002

> <IDNUMBER>
AT-225/NB48355

> <SALTDATA>
H2O

> <PRICE>
EUR 140/10 mg

> <Similarity score>
0.20

$$$$

  -OEChem-04222410502D

 23 25  0     0  0  0  0  0  0999 V2000
    4.5042   -1.7042    0.0000 C   0  0  0  0  0  0  0  0  0  0  0  0
    3.7917   -2.1250    0.0000 C   0  0  0  0  0  0  0  0  0  0  0  0
    4.5000   -0.8792    0.0000 N   0  0  3  0  0  0  0  0  0  0  0  0
    5.2167   -2.1167    0.0000 C   0  0  0  0  0  0  0  0  0  0  0  0
    3.7917   -2.9500    0.0000 C   0  0  0  0  0  0  0  0  0  0  0  0
    4.5125   -3.3625    0.0000 N   0  0  0  0  0  0  0  0  0  0  0  0
    5.9292   -1.7000    0.0000 C   0  0  0  0  0  0  0  0  0  0  0  0
    6.6417   -1.2792    0.0000 N   0  0  0  0  0  0  0  0  0  0  0  0
    4.5000    1.5875    0.0000 C   0  0  0  0  0  0  0  0  0  0  0  0
    3.0792   -1.7125    0.0000 C   0  0  0  0  0  0  0  0  0  0  0  0
    3.0792   -3.3667    0.0000 C   0  0  0  0  0  0  0  0  0  0  0  0
    5.2250   -2.9417    0.0000 C   0  0  0  0  0  0  0  0  0  0  0  0
    4.5000    0.7625    0.0000 C   0  0  3  0  0  0  0  0  0  0  0  0
    3.7875   -0.4792    0.0000 C   0  0  0  0  0  0  0  0  0  0  0  0
    5.2167   -0.4667    0.0000 C   0  0  0  0  0  0  0  0  0  0  0  0
    3.7792    2.0000    0.0000 O   0  0  0  0  0  0  0  0  0  0  0  0
    3.7875    0.3458    0.0000 C   0  0  0  0  0  0  0  0  0  0  0  0
    5.2167    0.3500    0.0000 C   0  0  0  0  0  0  0  0  0  0  0  0
    2.3667   -2.9542    0.0000 C   0  0  0  0  0  0  0  0  0  0  0  0
    2.3667   -2.1250    0.0000 C   0  0  0  0  0  0  0  0  0  0  0  0
    5.2125    2.0083    0.0000 O   0  0  0  0  0  0  0  0  0  0  0  0
    1.6542   -3.3625    0.0000 O   0  0  0  0  0  0  0  0  0  0  0  0
    1.6542   -4.1875    0.0000 C   0  0  0  0  0  0  0  0  0  0  0  0
  1  2  1  0  0  0  0
  1  3  1  0  0  0  0
  1  4  2  0  0  0  0
  2  5  1  0  0  0  0
  6 12  2  0  0  0  0
  4  7  1  0  0  0  0
  7  8  3  0  0  0  0
  9 13  1  0  0  0  0
  2 10  2  0  0  0  0
  5 11  2  0  0  0  0
  4 12  1  0  0  0  0
 13 18  1  0  0  0  0
  3 14  1  0  0  0  0
  3 15  1  0  0  0  0
  9 16  2  0  0  0  0
 14 17  1  0  0  0  0
 15 18  1  0  0  0  0
 19 20  2  0  0  0  0
 10 20  1  0  0  0  0
  9 21  1  0  0  0  0
 19 22  1  0  0  0  0
 22 23  1  0  0  0  0
  5  6  1  0  0  0  0
 13 17  1  0  0  0  0
 11 19  1  0  0  0  0
M  END
> <MOLFORMULA>
C17 H17 N3 O3

> <MOLWEIGHT>
3.113393000000000e+002

> <IDNUMBER>
AT-687/SK17441

> <PRICE>
EUR 80/10 mg

> <Similarity score>
0.20

$$$$

  -OEChem-04222410502D

 27 31  0     0  0  0  0  0  0999 V2000
    0.1000    2.2625    0.0000 N   0  0  0  0  0  0  0  0  0  0  0  0
   -0.6417    1.5917    0.0000 C   0  0  0  0  0  0  0  0  0  0  0  0
   -0.4333    0.6125    0.0000 N   0  0  0  0  0  0  0  0  0  0  0  0
    0.5167    0.3042    0.0000 C   0  0  0  0  0  0  0  0  0  0  0  0
    1.0500    1.9500    0.0000 C   0  0  0  0  0  0  0  0  0  0  0  0
    1.2583    0.9750    0.0000 C   0  0  0  0  0  0  0  0  0  0  0  0
   -1.5958    1.9000    0.0000 N   0  0  3  0  0  0  0  0  0  0  0  0
    2.2083    0.6625    0.0000 C   0  0  0  0  0  0  0  0  0  0  0  0
    2.4167   -0.3125    0.0000 C   0  0  0  0  0  0  0  0  0  0  0  0
    3.5792   -1.6000    0.0000 C   0  0  0  0  0  0  0  0  0  0  0  0
    1.7958    2.6208    0.0000 N   0  0  0  0  0  0  0  0  0  0  0  0
    3.3708   -0.6208    0.0000 C   0  0  0  0  0  0  0  0  0  0  0  0
   -3.4958    2.5167    0.0000 N   0  0  3  0  0  0  0  0  0  0  0  0
    0.7250   -0.6750    0.0000 O   0  0  0  0  0  0  0  0  0  0  0  0
    2.8333   -2.2708    0.0000 C   0  0  0  0  0  0  0  0  0  0  0  0
    4.4417   -2.1000    0.0000 O   0  0  0  0  0  0  0  0  0  0  0  0
    3.2417   -3.1833    0.0000 O   0  0  0  0  0  0  0  0  0  0  0  0
    4.2333   -3.0792    0.0000 C   0  0  0  0  0  0  0  0  0  0  0  0
   -2.3375    1.2333    0.0000 C   0  0  0  0  0  0  0  0  0  0  0  0
   -1.8000    2.8792    0.0000 C   0  0  0  0  0  0  0  0  0  0  0  0
    1.6750   -0.9833    0.0000 C   0  0  0  0  0  0  0  0  0  0  0  0
    1.8833   -1.9625    0.0000 C   0  0  0  0  0  0  0  0  0  0  0  0
   -2.7542    3.1875    0.0000 C   0  0  0  0  0  0  0  0  0  0  0  0
   -3.2875    1.5417    0.0000 C   0  0  0  0  0  0  0  0  0  0  0  0
    2.7458    2.3125    0.0000 C   0  0  0  0  0  0  0  0  0  0  0  0
    2.9542    1.3333    0.0000 C   0  0  0  0  0  0  0  0  0  0  0  0
   -4.4458    2.8292    0.0000 C   0  0  0  0  0  0  0  0  0  0  0  0
  1  2  2  0  0  0  0
  2  3  1  0  0  0  0
  4  6  1  0  0  0  0
  1  5  1  0  0  0  0
  5  6  1  0  0  0  0
  2  7  1  0  0  0  0
  6  8  2  0  0  0  0
  8  9  1  0  0  0  0
 10 12  1  0  0  0  0
  5 11  2  0  0  0  0
  9 12  2  0  0  0  0
 13 24  1  0  0  0  0
  4 14  2  0  0  0  0
 15 22  1  0  0  0  0
 10 16  1  0  0  0  0
 15 17  1  0  0  0  0
 16 18  1  0  0  0  0
  7 19  1  0  0  0  0
  7 20  1  0  0  0  0
  9 21  1  0  0  0  0
 21 22  2  0  0  0  0
 20 23  1  0  0  0  0
 19 24  1  0  0  0  0
 11 25  1  0  0  0  0
 25 26  2  0  0  0  0
 13 27  1  0  0  0  0
  3  4  1  0  0  0  0
  8 26  1  0  0  0  0
 13 23  1  0  0  0  0
 10 15  2  0  0  0  0
 17 18  1  0  0  0  0
M  END
> <MOLFORMULA>
C19 H19 N5 O3

> <MOLWEIGHT>
3.653911000000000e+002

> <IDNUMBER>
AN-153/NB25804

> <PRICE>
EUR 130/10 mg

> <Similarity score>
0.20

$$$$

  -OEChem-04222410502D

 23 25  0     0  0  0  0  0  0999 V2000
    4.8333    6.2500    0.0000 C   0  0  0  0  0  0  0  0  0  0  0  0
    4.8375    7.6500    0.0000 N   0  0  0  0  0  0  0  0  0  0  0  0
    3.6167    5.5583    0.0000 C   0  0  0  0  0  0  0  0  0  0  0  0
    3.6250    8.3500    0.0000 C   0  0  0  0  0  0  0  0  0  0  0  0
    2.4125    7.6500    0.0000 N   0  0  0  0  0  0  0  0  0  0  0  0
    6.0417    5.5458    0.0000 C   0  0  0  0  0  0  0  0  0  0  0  0
    2.4125    6.2542    0.0000 C   0  0  0  0  0  0  0  0  0  0  0  0
    3.6167    4.1708    0.0000 C   0  0  0  0  0  0  0  0  0  0  0  0
    7.2583    6.2417    0.0000 C   0  0  0  0  0  0  0  0  0  0  0  0
    3.6250    9.7500    0.0000 O   0  0  0  0  0  0  0  0  0  0  0  0
    2.4125    3.4792    0.0000 C   0  0  0  0  0  0  0  0  0  0  0  0
    1.2125    5.5583    0.0000 C   0  0  0  0  0  0  0  0  0  0  0  0
    2.4125    2.0833    0.0000 O   0  0  0  0  0  0  0  0  0  0  0  0
    1.2000    1.3958    0.0000 C   0  0  3  0  0  0  0  0  0  0  0  0
    1.2125    4.1708    0.0000 C   0  0  0  0  0  0  0  0  0  0  0  0
    7.2625    7.6417    0.0000 F   0  0  0  0  0  0  0  0  0  0  0  0
    6.0333    4.1458    0.0000 C   0  0  0  0  0  0  0  0  0  0  0  0
    8.4667    5.5333    0.0000 C   0  0  0  0  0  0  0  0  0  0  0  0
    1.2000   -0.0000    0.0000 C   0  0  0  0  0  0  0  0  0  0  0  0
    0.0000    2.0833    0.0000 C   0  0  0  0  0  0  0  0  0  0  0  0
    0.0000    0.7000    0.0000 C   0  0  0  0  0  0  0  0  0  0  0  0
    7.2458    3.4458    0.0000 C   0  0  0  0  0  0  0  0  0  0  0  0
    8.4583    4.1333    0.0000 C   0  0  0  0  0  0  0  0  0  0  0  0
  1  2  2  0  0  0  0
  1  3  1  0  0  0  0
  2  4  1  0  0  0  0
  5  7  1  0  0  0  0
  1  6  1  0  0  0  0
  3  7  2  0  0  0  0
  3  8  1  0  0  0  0
  6  9  1  0  0  0  0
  4 10  2  0  0  0  0
  8 11  2  0  0  0  0
  7 12  1  0  0  0  0
 11 13  1  0  0  0  0
 13 14  1  0  0  0  0
 12 15  2  0  0  0  0
  9 16  1  0  0  0  0
  6 17  2  0  0  0  0
  9 18  2  0  0  0  0
 14 19  1  0  0  0  0
 14 20  1  0  0  0  0
 14 21  1  0  0  0  0
 17 22  1  0  0  0  0
 18 23  1  0  0  0  0
  4  5  1  0  0  0  0
 11 15  1  0  0  0  0
 22 23  2  0  0  0  0
M  END
> <MOLFORMULA>
C18 H17 F N2 O2

> <MOLWEIGHT>
3.123423000000000e+002

> <IDNUMBER>
AT-819/OC12801

> <PRICE>
EUR 192/10 mg

> <Similarity score>
0.20

$$$$

  -OEChem-04222410502D

 18 21  0     0  0  0  0  0  0999 V2000
    3.1042    0.1958    0.0000 C   0  0  0  0  0  0  0  0  0  0  0  0
    1.8042   -0.5542    0.0000 C   0  0  0  0  0  0  0  0  0  0  0  0
    0.5042    0.1958    0.0000 C   0  0  0  0  0  0  0  0  0  0  0  0
    3.1042    1.6958    0.0000 C   0  0  0  0  0  0  0  0  0  0  0  0
   -0.7875   -0.5542    0.0000 C   0  0  0  0  0  0  0  0  0  0  0  0
    5.7042    0.1958    0.0000 N   0  0  0  0  0  0  0  0  0  0  0  0
    4.4042   -0.5542    0.0000 N   0  0  0  0  0  0  0  0  0  0  0  0
   -0.7875   -2.0542    0.0000 C   0  0  0  0  0  0  0  0  0  0  0  0
    1.8042   -2.0542    0.0000 C   0  0  0  0  0  0  0  0  0  0  0  0
    0.5042    1.6958    0.0000 C   0  0  0  0  0  0  0  0  0  0  0  0
   -2.0875    0.1958    0.0000 C   0  0  0  0  0  0  0  0  0  0  0  0
    1.8042    2.4458    0.0000 C   0  0  0  0  0  0  0  0  0  0  0  0
    5.7042    1.6958    0.0000 C   0  0  0  0  0  0  0  0  0  0  0  0
    0.5042   -2.8042    0.0000 C   0  0  0  0  0  0  0  0  0  0  0  0
   -2.0875   -2.8042    0.0000 C   0  0  0  0  0  0  0  0  0  0  0  0
   -3.3875   -2.0542    0.0000 C   0  0  0  0  0  0  0  0  0  0  0  0
   -3.3875   -0.5542    0.0000 C   0  0  0  0  0  0  0  0  0  0  0  0
   -4.6875   -2.8042    0.0000 O   0  0  0  0  0  0  0  0  0  0  0  0
  1  2  1  0  0  0  0
  2  3  2  0  0  0  0
  1  4  2  0  0  0  0
  3  5  1  0  0  0  0
  6  7  1  0  0  0  0
  1  7  1  0  0  0  0
  8 14  1  0  0  0  0
  2  9  1  0  0  0  0
 10 12  1  0  0  0  0
  5 11  1  0  0  0  0
  4 12  1  0  0  0  0
  4 13  1  0  0  0  0
  9 14  2  0  0  0  0
  8 15  1  0  0  0  0
 15 16  2  0  0  0  0
 11 17  2  0  0  0  0
 16 18  1  0  0  0  0
  6 13  2  0  0  0  0
  3 10  1  0  0  0  0
  5  8  2  0  0  0  0
 16 17  1  0  0  0  0
M  END
> <MOLFORMULA>
C15 H12 N2 O

> <MOLWEIGHT>
2.362728000000000e+002

> <IDNUMBER>
AT-225/JK13034

> <PRICE>
EUR 140/10 mg

> <Similarity score>
0.20

$$$$

  -OEChem-04222410502D

 24 27  0     0  0  0  0  0  0999 V2000
   -0.5000    1.4917    0.0000 N   0  0  0  0  0  0  0  0  0  0  0  0
    0.4958    1.6083    0.0000 C   0  0  0  0  0  0  0  0  0  0  0  0
    1.0917    0.8042    0.0000 N   0  0  0  0  0  0  0  0  0  0  0  0
    0.6917   -0.1125    0.0000 C   0  0  0  0  0  0  0  0  0  0  0  0
   -0.8958    0.5750    0.0000 C   0  0  0  0  0  0  0  0  0  0  0  0
   -0.3000   -0.2292    0.0000 C   0  0  0  0  0  0  0  0  0  0  0  0
    0.8917    2.5250    0.0000 N   0  0  3  0  0  0  0  0  0  0  0  0
   -0.6958   -1.1458    0.0000 C   0  0  0  0  0  0  0  0  0  0  0  0
   -1.8875    0.4625    0.0000 N   0  0  0  0  0  0  0  0  0  0  0  0
    1.2875   -0.9167    0.0000 O   0  0  0  0  0  0  0  0  0  0  0  0
   -0.1000   -1.9500    0.0000 C   0  0  0  0  0  0  0  0  0  0  0  0
    1.6875    4.3583    0.0000 O   0  0  0  0  0  0  0  0  0  0  0  0
   -0.5000   -2.8667    0.0000 C   0  0  0  0  0  0  0  0  0  0  0  0
    0.8917   -1.8333    0.0000 C   0  0  0  0  0  0  0  0  0  0  0  0
    1.0917   -3.5542    0.0000 C   0  0  0  0  0  0  0  0  0  0  0  0
   -2.2875   -0.4583    0.0000 C   0  0  0  0  0  0  0  0  0  0  0  0
    0.0958   -3.6667    0.0000 C   0  0  0  0  0  0  0  0  0  0  0  0
    1.4875   -2.6375    0.0000 C   0  0  0  0  0  0  0  0  0  0  0  0
    1.6875   -4.3583    0.0000 F   0  0  0  0  0  0  0  0  0  0  0  0
   -1.6917   -1.2583    0.0000 C   0  0  0  0  0  0  0  0  0  0  0  0
    1.8875    2.6417    0.0000 C   0  0  0  0  0  0  0  0  0  0  0  0
    0.2958    3.3292    0.0000 C   0  0  0  0  0  0  0  0  0  0  0  0
    2.2833    3.5583    0.0000 C   0  0  0  0  0  0  0  0  0  0  0  0
    0.6917    4.2417    0.0000 C   0  0  0  0  0  0  0  0  0  0  0  0
  1  2  2  0  0  0  0
  2  3  1  0  0  0  0
  4  6  1  0  0  0  0
  1  5  1  0  0  0  0
  5  6  2  0  0  0  0
  2  7  1  0  0  0  0
  6  8  1  0  0  0  0
  5  9  1  0  0  0  0
  4 10  2  0  0  0  0
  8 11  1  0  0  0  0
 12 24  1  0  0  0  0
 11 13  2  0  0  0  0
 11 14  1  0  0  0  0
 15 18  1  0  0  0  0
  9 16  2  0  0  0  0
 13 17  1  0  0  0  0
 14 18  2  0  0  0  0
 15 19  1  0  0  0  0
 16 20  1  0  0  0  0
  7 21  1  0  0  0  0
  7 22  1  0  0  0  0
 21 23  1  0  0  0  0
 22 24  1  0  0  0  0
  3  4  1  0  0  0  0
  8 20  2  0  0  0  0
 12 23  1  0  0  0  0
 15 17  2  0  0  0  0
M  END
> <MOLFORMULA>
C17 H15 F N4 O2

> <MOLWEIGHT>
3.263295000000000e+002

> <IDNUMBER>
AN-153/J103479

> <PRICE>
EUR 130/10 mg

> <Similarity score>
0.20

$$$$

  -OEChem-04222410502D

 29 32  0     0  0  0  0  0  0999 V2000
   -0.4333    0.2500    0.0000 S   0  0  3  0  0  0  0  0  0  0  0  0
    0.4292   -0.2417    0.0000 C   0  0  0  0  0  0  0  0  0  0  0  0
    0.4292   -1.2500    0.0000 C   0  0  0  0  0  0  0  0  0  0  0  0
   -1.3000    0.7500    0.0000 C   0  0  0  0  0  0  0  0  0  0  0  0
    1.2917   -1.7500    0.0000 C   0  0  0  0  0  0  0  0  0  0  0  0
    2.1625   -0.2417    0.0000 N   0  0  0  0  0  0  0  0  0  0  0  0
    2.1625   -1.2500    0.0000 C   0  0  0  0  0  0  0  0  0  0  0  0
    1.2917    0.2500    0.0000 C   0  0  0  0  0  0  0  0  0  0  0  0
   -2.1708    0.2500    0.0000 C   0  0  0  0  0  0  0  0  0  0  0  0
   -1.3000    1.7583    0.0000 C   0  0  0  0  0  0  0  0  0  0  0  0
    0.0667    1.1208    0.0000 O   0  0  0  0  0  0  0  0  0  0  0  0
   -0.9333   -0.6125    0.0000 O   0  0  0  0  0  0  0  0  0  0  0  0
   -0.4333   -1.7500    0.0000 C   0  0  0  0  0  0  0  0  0  0  0  0
   -2.1708    2.2500    0.0000 C   0  0  0  0  0  0  0  0  0  0  0  0
   -3.0333    0.7500    0.0000 C   0  0  0  0  0  0  0  0  0  0  0  0
    3.0292   -1.7500    0.0000 C   0  0  0  0  0  0  0  0  0  0  0  0
   -3.0333    1.7583    0.0000 C   0  0  0  0  0  0  0  0  0  0  0  0
   -0.4333   -2.7500    0.0000 C   0  0  0  0  0  0  0  0  0  0  0  0
   -1.3000   -1.2500    0.0000 C   0  0  0  0  0  0  0  0  0  0  0  0
   -2.1708   -2.7500    0.0000 C   0  0  0  0  0  0  0  0  0  0  0  0
   -3.9000    0.2500    0.0000 F   0  0  0  0  0  0  0  0  0  0  0  0
   -2.1708    3.2500    0.0000 F   0  0  0  0  0  0  0  0  0  0  0  0
    3.8917   -1.2500    0.0000 F   0  0  0  0  0  0  0  0  0  0  0  0
    1.2917   -2.7500    0.0000 C   0  0  0  0  0  0  0  0  0  0  0  0
   -2.1708   -1.7500    0.0000 C   0  0  0  0  0  0  0  0  0  0  0  0
   -1.3000   -3.2500    0.0000 C   0  0  0  0  0  0  0  0  0  0  0  0
   -3.0333   -3.2500    0.0000 F   0  0  0  0  0  0  0  0  0  0  0  0
    2.1625   -3.2500    0.0000 C   0  0  0  0  0  0  0  0  0  0  0  0
    3.0292   -2.7500    0.0000 C   0  0  0  0  0  0  0  0  0  0  0  0
  1  2  1  0  0  0  0
  2  3  2  0  0  0  0
  1  4  1  0  0  0  0
  3  5  1  0  0  0  0
  6  8  2  0  0  0  0
  6  7  1  0  0  0  0
  2  8  1  0  0  0  0
  4  9  1  0  0  0  0
  4 10  2  0  0  0  0
  1 11  2  0  0  0  0
  1 12  2  0  0  0  0
  3 13  1  0  0  0  0
 10 14  1  0  0  0  0
  9 15  2  0  0  0  0
  7 16  1  0  0  0  0
 14 17  2  0  0  0  0
 13 18  1  0  0  0  0
 13 19  2  0  0  0  0
 20 25  2  0  0  0  0
 15 21  1  0  0  0  0
 14 22  1  0  0  0  0
 16 23  1  0  0  0  0
  5 24  1  0  0  0  0
 19 25  1  0  0  0  0
 18 26  2  0  0  0  0
 20 27  1  0  0  0  0
 24 28  2  0  0  0  0
 16 29  2  0  0  0  0
 15 17  1  0  0  0  0
  5  7  2  0  0  0  0
 20 26  1  0  0  0  0
 28 29  1  0  0  0  0
M  END
> <MOLFORMULA>
C21 H11 F4 N O2 S

> <MOLWEIGHT>
4.173809000000000e+002

> <IDNUMBER>
AT-687/PE13102

> <PRICE>
EUR 80/10 mg

> <Similarity score>
0.20

$$$$

  -OEChem-04222410502D

 31 35  0     0  0  0  0  0  0999 V2000
   -1.7375   -0.8000    0.0000 C   0  0  0  0  0  0  0  0  0  0  0  0
   -1.7583   -1.7917    0.0000 C   0  0  0  0  0  0  0  0  0  0  0  0
   -0.0125   -0.8125    0.0000 C   0  0  0  0  0  0  0  0  0  0  0  0
   -0.8750   -0.3000    0.0000 N   0  0  0  0  0  0  0  0  0  0  0  0
   -0.0208   -1.8125    0.0000 N   0  0  0  0  0  0  0  0  0  0  0  0
   -2.6958   -0.4792    0.0000 C   0  0  0  0  0  0  0  0  0  0  0  0
   -0.8958   -2.3125    0.0000 C   0  0  0  0  0  0  0  0  0  0  0  0
   -2.6958   -2.1000    0.0000 S   0  0  0  0  0  0  0  0  0  0  0  0
   -3.2833   -1.2917    0.0000 C   0  0  0  0  0  0  0  0  0  0  0  0
    0.8625   -0.3250    0.0000 N   0  0  3  0  0  0  0  0  0  0  0  0
   -2.9958    0.4625    0.0000 C   0  0  0  0  0  0  0  0  0  0  0  0
    2.6042    0.6625    0.0000 N   0  0  3  0  0  0  0  0  0  0  0  0
    3.4875    1.1458    0.0000 C   0  0  0  0  0  0  0  0  0  0  0  0
   -3.9833    0.6833    0.0000 C   0  0  0  0  0  0  0  0  0  0  0  0
   -4.2833    1.6208    0.0000 C   0  0  0  0  0  0  0  0  0  0  0  0
   -0.9083   -3.3125    0.0000 O   0  0  0  0  0  0  0  0  0  0  0  0
    0.8750    0.6833    0.0000 C   0  0  0  0  0  0  0  0  0  0  0  0
    1.7250   -0.8292    0.0000 C   0  0  0  0  0  0  0  0  0  0  0  0
   -3.6000    2.3625    0.0000 C   0  0  0  0  0  0  0  0  0  0  0  0
    1.7417    1.1625    0.0000 C   0  0  0  0  0  0  0  0  0  0  0  0
    2.5917   -0.3417    0.0000 C   0  0  0  0  0  0  0  0  0  0  0  0
   -2.3208    1.1958    0.0000 C   0  0  0  0  0  0  0  0  0  0  0  0
    3.4917    2.1458    0.0000 C   0  0  0  0  0  0  0  0  0  0  0  0
   -2.6333    2.1500    0.0000 C   0  0  0  0  0  0  0  0  0  0  0  0
   -5.2458    1.8458    0.0000 Cl  0  0  0  0  0  0  0  0  0  0  0  0
   -3.9083    3.3208    0.0000 Cl  0  0  0  0  0  0  0  0  0  0  0  0
    2.6292    2.6583    0.0000 F   0  0  0  0  0  0  0  0  0  0  0  0
    4.3500    0.6458    0.0000 C   0  0  0  0  0  0  0  0  0  0  0  0
    4.3625    2.6333    0.0000 C   0  0  0  0  0  0  0  0  0  0  0  0
    5.2167    1.1208    0.0000 C   0  0  0  0  0  0  0  0  0  0  0  0
    5.2417    2.1250    0.0000 C   0  0  0  0  0  0  0  0  0  0  0  0
  1  2  2  0  0  0  0
  3  4  2  0  0  0  0
  1  4  1  0  0  0  0
  3  5  1  0  0  0  0
  1  6  1  0  0  0  0
  2  7  1  0  0  0  0
  2  8  1  0  0  0  0
  6  9  2  0  0  0  0
  3 10  1  0  0  0  0
  6 11  1  0  0  0  0
 12 21  1  0  0  0  0
 12 13  1  0  0  0  0
 11 14  2  0  0  0  0
 14 15  1  0  0  0  0
  7 16  2  0  0  0  0
 10 17  1  0  0  0  0
 10 18  1  0  0  0  0
 19 24  1  0  0  0  0
 17 20  1  0  0  0  0
 18 21  1  0  0  0  0
 11 22  1  0  0  0  0
 13 23  1  0  0  0  0
 22 24  2  0  0  0  0
 15 25  1  0  0  0  0
 19 26  1  0  0  0  0
 23 27  1  0  0  0  0
 13 28  2  0  0  0  0
 23 29  2  0  0  0  0
 28 30  1  0  0  0  0
 30 31  2  0  0  0  0
  8  9  1  0  0  0  0
  5  7  1  0  0  0  0
 15 19  2  0  0  0  0
 12 20  1  0  0  0  0
 29 31  1  0  0  0  0
M  END
> <MOLFORMULA>
C22 H17 Cl2 F N4 O S

> <MOLWEIGHT>
4.753733000000000e+002

> <IDNUMBER>
AT-687/PE25900

> <PRICE>
EUR 80/10 mg

> <Similarity score>
0.20

$$$$

  -OEChem-04222410502D

 25 27  0     0  0  0  0  0  0999 V2000
    4.5917   -5.9917    0.0000 C   0  0  0  0  0  0  0  0  0  0  0  0
    3.4500   -6.6500    0.0000 C   0  0  0  0  0  0  0  0  0  0  0  0
    4.5750   -4.6542    0.0000 N   0  0  3  0  0  0  0  0  0  0  0  0
    5.7500   -6.6417    0.0000 C   0  0  0  0  0  0  0  0  0  0  0  0
    3.4500   -7.9792    0.0000 C   0  0  0  0  0  0  0  0  0  0  0  0
    4.6000   -8.6500    0.0000 N   0  0  0  0  0  0  0  0  0  0  0  0
    6.9000   -5.9667    0.0000 C   0  0  0  0  0  0  0  0  0  0  0  0
    8.0500   -5.3000    0.0000 N   0  0  0  0  0  0  0  0  0  0  0  0
    4.5750   -0.6667    0.0000 C   0  0  0  0  0  0  0  0  0  0  0  0
    2.2917   -5.9917    0.0000 C   0  0  0  0  0  0  0  0  0  0  0  0
    2.2917   -8.6500    0.0000 C   0  0  0  0  0  0  0  0  0  0  0  0
    5.7500   -7.9750    0.0000 C   0  0  0  0  0  0  0  0  0  0  0  0
    4.5750   -2.0000    0.0000 C   0  0  3  0  0  0  0  0  0  0  0  0
    3.4250   -4.0042    0.0000 C   0  0  0  0  0  0  0  0  0  0  0  0
    5.7250   -3.9917    0.0000 C   0  0  0  0  0  0  0  0  0  0  0  0
    3.4250   -0.0000    0.0000 O   0  0  0  0  0  0  0  0  0  0  0  0
    5.7250   -2.6667    0.0000 C   0  0  0  0  0  0  0  0  0  0  0  0
    3.4250   -2.6667    0.0000 C   0  0  0  0  0  0  0  0  0  0  0  0
    1.1417   -7.9792    0.0000 C   0  0  0  0  0  0  0  0  0  0  0  0
    1.1417   -6.6500    0.0000 C   0  0  0  0  0  0  0  0  0  0  0  0
    5.7250   -0.0000    0.0000 O   0  0  0  0  0  0  0  0  0  0  0  0
    0.0000   -8.6500    0.0000 O   0  0  0  0  0  0  0  0  0  0  0  0
    6.8750   -0.6667    0.0000 C   0  0  0  0  0  0  0  0  0  0  0  0
    0.0000   -9.9792    0.0000 C   0  0  0  0  0  0  0  0  0  0  0  0
    8.0250   -0.0000    0.0000 C   0  0  0  0  0  0  0  0  0  0  0  0
  1  2  1  0  0  0  0
  1  3  1  0  0  0  0
  1  4  2  0  0  0  0
  2  5  2  0  0  0  0
  6 12  2  0  0  0  0
  4  7  1  0  0  0  0
  7  8  3  0  0  0  0
  9 13  1  0  0  0  0
  2 10  1  0  0  0  0
  5 11  1  0  0  0  0
  4 12  1  0  0  0  0
 13 17  1  0  0  0  0
  3 14  1  0  0  0  0
  3 15  1  0  0  0  0
  9 16  2  0  0  0  0
 15 17  1  0  0  0  0
 14 18  1  0  0  0  0
 19 20  1  0  0  0  0
 10 20  2  0  0  0  0
  9 21  1  0  0  0  0
 19 22  1  0  0  0  0
 21 23  1  0  0  0  0
 22 24  1  0  0  0  0
 23 25  1  0  0  0  0
  5  6  1  0  0  0  0
 13 18  1  0  0  0  0
 11 19  2  0  0  0  0
M  END
> <MOLFORMULA>
C19 H21 N3 O3

> <MOLWEIGHT>
3.393929000000000e+002

> <IDNUMBER>
AT-687/PE27681

> <PRICE>
EUR 80/10 mg

> <Similarity score>
0.19

$$$$

  -OEChem-04222410502D

 30 34  0     0  0  0  0  0  0999 V2000
   -2.2208   -0.5875    0.0000 C   0  0  0  0  0  0  0  0  0  0  0  0
   -2.2333   -1.5792    0.0000 C   0  0  0  0  0  0  0  0  0  0  0  0
   -0.4958   -0.6000    0.0000 C   0  0  0  0  0  0  0  0  0  0  0  0
   -1.3583   -0.0875    0.0000 N   0  0  0  0  0  0  0  0  0  0  0  0
   -0.5000   -1.6000    0.0000 N   0  0  0  0  0  0  0  0  0  0  0  0
   -3.1750   -0.2667    0.0000 C   0  0  0  0  0  0  0  0  0  0  0  0
   -1.3708   -2.1000    0.0000 C   0  0  0  0  0  0  0  0  0  0  0  0
   -3.1833   -1.8875    0.0000 S   0  0  0  0  0  0  0  0  0  0  0  0
   -3.7625   -1.0792    0.0000 C   0  0  0  0  0  0  0  0  0  0  0  0
    0.3792   -0.1125    0.0000 N   0  0  3  0  0  0  0  0  0  0  0  0
    2.1250    0.8708    0.0000 N   0  0  3  0  0  0  0  0  0  0  0  0
   -3.4750    0.6750    0.0000 C   0  0  0  0  0  0  0  0  0  0  0  0
    3.0042    1.3500    0.0000 C   0  0  0  0  0  0  0  0  0  0  0  0
   -1.3875   -3.1000    0.0000 O   0  0  0  0  0  0  0  0  0  0  0  0
    0.3917    0.8958    0.0000 C   0  0  0  0  0  0  0  0  0  0  0  0
    1.2417   -0.6167    0.0000 C   0  0  0  0  0  0  0  0  0  0  0  0
    1.2625    1.3708    0.0000 C   0  0  0  0  0  0  0  0  0  0  0  0
    2.1042   -0.1292    0.0000 C   0  0  0  0  0  0  0  0  0  0  0  0
   -2.8000    1.4083    0.0000 C   0  0  0  0  0  0  0  0  0  0  0  0
    3.0125    2.3583    0.0000 C   0  0  0  0  0  0  0  0  0  0  0  0
    2.1500    2.8708    0.0000 F   0  0  0  0  0  0  0  0  0  0  0  0
   -3.1125    2.3625    0.0000 C   0  0  0  0  0  0  0  0  0  0  0  0
   -4.4583    0.8958    0.0000 C   0  0  0  0  0  0  0  0  0  0  0  0
   -4.7708    1.8333    0.0000 C   0  0  0  0  0  0  0  0  0  0  0  0
    3.8667    0.8583    0.0000 C   0  0  0  0  0  0  0  0  0  0  0  0
    3.8792    2.8458    0.0000 C   0  0  0  0  0  0  0  0  0  0  0  0
   -4.0833    2.5833    0.0000 C   0  0  0  0  0  0  0  0  0  0  0  0
   -2.4375    3.1083    0.0000 C   0  0  0  0  0  0  0  0  0  0  0  0
    4.7375    1.3333    0.0000 C   0  0  0  0  0  0  0  0  0  0  0  0
    4.7542    2.3375    0.0000 C   0  0  0  0  0  0  0  0  0  0  0  0
  1  2  2  0  0  0  0
  3  4  2  0  0  0  0
  1  4  1  0  0  0  0
  3  5  1  0  0  0  0
  1  6  1  0  0  0  0
  2  7  1  0  0  0  0
  2  8  1  0  0  0  0
  6  9  2  0  0  0  0
  3 10  1  0  0  0  0
 11 18  1  0  0  0  0
  6 12  1  0  0  0  0
 11 13  1  0  0  0  0
  7 14  2  0  0  0  0
 10 15  1  0  0  0  0
 10 16  1  0  0  0  0
 15 17  1  0  0  0  0
 16 18  1  0  0  0  0
 12 19  1  0  0  0  0
 13 20  1  0  0  0  0
 20 21  1  0  0  0  0
 19 22  2  0  0  0  0
 12 23  2  0  0  0  0
 23 24  1  0  0  0  0
 13 25  2  0  0  0  0
 20 26  2  0  0  0  0
 24 27  2  0  0  0  0
 22 28  1  0  0  0  0
 25 29  1  0  0  0  0
 29 30  2  0  0  0  0
  8  9  1  0  0  0  0
  5  7  1  0  0  0  0
 22 27  1  0  0  0  0
 11 17  1  0  0  0  0
 26 30  1  0  0  0  0
M  END
> <MOLFORMULA>
C23 H21 F N4 O S

> <MOLWEIGHT>
4.205099000000000e+002

> <IDNUMBER>
AT-687/PE25833

> <PRICE>
EUR 80/10 mg

> <Similarity score>
0.19

$$$$

  -OEChem-04222410502D

 30 34  0     0  0  0  0  0  0999 V2000
   -1.7375   -0.4667    0.0000 C   0  0  0  0  0  0  0  0  0  0  0  0
   -1.7583   -1.4667    0.0000 C   0  0  0  0  0  0  0  0  0  0  0  0
   -0.0125   -0.4792    0.0000 C   0  0  0  0  0  0  0  0  0  0  0  0
   -0.8750    0.0333    0.0000 N   0  0  0  0  0  0  0  0  0  0  0  0
   -0.0208   -1.4792    0.0000 N   0  0  0  0  0  0  0  0  0  0  0  0
   -2.6958   -0.1542    0.0000 C   0  0  0  0  0  0  0  0  0  0  0  0
   -0.8958   -1.9792    0.0000 C   0  0  0  0  0  0  0  0  0  0  0  0
   -2.6958   -1.7667    0.0000 S   0  0  0  0  0  0  0  0  0  0  0  0
   -3.2833   -0.9625    0.0000 C   0  0  0  0  0  0  0  0  0  0  0  0
    0.8625    0.0083    0.0000 N   0  0  3  0  0  0  0  0  0  0  0  0
    2.6042    0.9958    0.0000 N   0  0  3  0  0  0  0  0  0  0  0  0
   -2.9958    0.7958    0.0000 C   0  0  0  0  0  0  0  0  0  0  0  0
    3.4875    1.4708    0.0000 C   0  0  0  0  0  0  0  0  0  0  0  0
   -0.9083   -2.9792    0.0000 O   0  0  0  0  0  0  0  0  0  0  0  0
    0.8750    1.0125    0.0000 C   0  0  0  0  0  0  0  0  0  0  0  0
    1.7250   -0.4917    0.0000 C   0  0  0  0  0  0  0  0  0  0  0  0
    1.7417    1.4958    0.0000 C   0  0  0  0  0  0  0  0  0  0  0  0
    2.5917   -0.0125    0.0000 C   0  0  0  0  0  0  0  0  0  0  0  0
   -3.9833    1.0125    0.0000 C   0  0  0  0  0  0  0  0  0  0  0  0
    3.4917    2.4750    0.0000 C   0  0  0  0  0  0  0  0  0  0  0  0
   -4.2833    1.9583    0.0000 C   0  0  0  0  0  0  0  0  0  0  0  0
    2.6292    2.9875    0.0000 F   0  0  0  0  0  0  0  0  0  0  0  0
   -5.2458    2.1750    0.0000 F   0  0  0  0  0  0  0  0  0  0  0  0
   -2.3208    1.5250    0.0000 C   0  0  0  0  0  0  0  0  0  0  0  0
   -2.6333    2.4833    0.0000 C   0  0  0  0  0  0  0  0  0  0  0  0
    4.3500    0.9708    0.0000 C   0  0  0  0  0  0  0  0  0  0  0  0
    4.3625    2.9708    0.0000 C   0  0  0  0  0  0  0  0  0  0  0  0
   -3.6000    2.6958    0.0000 C   0  0  0  0  0  0  0  0  0  0  0  0
    5.2167    1.4500    0.0000 C   0  0  0  0  0  0  0  0  0  0  0  0
    5.2417    2.4583    0.0000 C   0  0  0  0  0  0  0  0  0  0  0  0
  1  2  2  0  0  0  0
  3  4  2  0  0  0  0
  1  4  1  0  0  0  0
  3  5  1  0  0  0  0
  1  6  1  0  0  0  0
  2  7  1  0  0  0  0
  2  8  1  0  0  0  0
  6  9  2  0  0  0  0
  3 10  1  0  0  0  0
 11 18  1  0  0  0  0
  6 12  1  0  0  0  0
 11 13  1  0  0  0  0
  7 14  2  0  0  0  0
 10 15  1  0  0  0  0
 10 16  1  0  0  0  0
 15 17  1  0  0  0  0
 16 18  1  0  0  0  0
 12 19  2  0  0  0  0
 13 20  1  0  0  0  0
 19 21  1  0  0  0  0
 20 22  1  0  0  0  0
 21 23  1  0  0  0  0
 12 24  1  0  0  0  0
 24 25  2  0  0  0  0
 13 26  2  0  0  0  0
 20 27  2  0  0  0  0
 25 28  1  0  0  0  0
 26 29  1  0  0  0  0
 29 30  2  0  0  0  0
  8  9  1  0  0  0  0
  5  7  1  0  0  0  0
 21 28  2  0  0  0  0
 11 17  1  0  0  0  0
 27 30  1  0  0  0  0
M  END
> <MOLFORMULA>
C22 H18 F2 N4 O S

> <MOLWEIGHT>
4.244732000000000e+002

> <IDNUMBER>
AT-687/PE25861

> <PRICE>
EUR 80/10 mg

> <Similarity score>
0.19

$$$$

  -OEChem-04222410502D

 29 32  0     0  0  0  0  0  0999 V2000
    0.4292   -0.2417    0.0000 S   0  0  3  0  0  0  0  0  0  0  0  0
   -0.4333    0.2500    0.0000 C   0  0  0  0  0  0  0  0  0  0  0  0
   -0.4333    1.2500    0.0000 C   0  0  0  0  0  0  0  0  0  0  0  0
    1.2917   -0.7500    0.0000 C   0  0  0  0  0  0  0  0  0  0  0  0
   -1.3000    1.7583    0.0000 C   0  0  0  0  0  0  0  0  0  0  0  0
   -2.1708    0.2500    0.0000 N   0  0  0  0  0  0  0  0  0  0  0  0
   -2.1708    1.2500    0.0000 C   0  0  0  0  0  0  0  0  0  0  0  0
   -1.3000   -0.2417    0.0000 C   0  0  0  0  0  0  0  0  0  0  0  0
    2.1625   -0.2417    0.0000 C   0  0  0  0  0  0  0  0  0  0  0  0
    1.2917   -1.7500    0.0000 C   0  0  0  0  0  0  0  0  0  0  0  0
    0.9292    0.6208    0.0000 O   0  0  0  0  0  0  0  0  0  0  0  0
   -0.0708   -1.1125    0.0000 O   0  0  0  0  0  0  0  0  0  0  0  0
    0.4292    1.7583    0.0000 C   0  0  0  0  0  0  0  0  0  0  0  0
    2.1625   -2.2500    0.0000 C   0  0  0  0  0  0  0  0  0  0  0  0
    3.0292   -0.7500    0.0000 C   0  0  0  0  0  0  0  0  0  0  0  0
   -3.0333    1.7583    0.0000 C   0  0  0  0  0  0  0  0  0  0  0  0
    3.0292   -1.7500    0.0000 C   0  0  0  0  0  0  0  0  0  0  0  0
    0.4292    2.7583    0.0000 C   0  0  0  0  0  0  0  0  0  0  0  0
    1.2917    1.2500    0.0000 C   0  0  0  0  0  0  0  0  0  0  0  0
    2.1625    2.7583    0.0000 C   0  0  0  0  0  0  0  0  0  0  0  0
    3.8917   -0.2417    0.0000 Cl  0  0  0  0  0  0  0  0  0  0  0  0
    2.1625   -3.2500    0.0000 Cl  0  0  0  0  0  0  0  0  0  0  0  0
   -3.9000    1.2500    0.0000 F   0  0  0  0  0  0  0  0  0  0  0  0
   -1.3000    2.7583    0.0000 C   0  0  0  0  0  0  0  0  0  0  0  0
    2.1625    1.7583    0.0000 C   0  0  0  0  0  0  0  0  0  0  0  0
    1.2917    3.2500    0.0000 C   0  0  0  0  0  0  0  0  0  0  0  0
    3.0292    3.2500    0.0000 F   0  0  0  0  0  0  0  0  0  0  0  0
   -2.1708    3.2500    0.0000 C   0  0  0  0  0  0  0  0  0  0  0  0
   -3.0333    2.7583    0.0000 C   0  0  0  0  0  0  0  0  0  0  0  0
  1  2  1  0  0  0  0
  2  3  2  0  0  0  0
  1  4  1  0  0  0  0
  3  5  1  0  0  0  0
  6  8  2  0  0  0  0
  6  7  1  0  0  0  0
  2  8  1  0  0  0  0
  4  9  2  0  0  0  0
  4 10  1  0  0  0  0
  1 11  2  0  0  0  0
  1 12  2  0  0  0  0
  3 13  1  0  0  0  0
 10 14  2  0  0  0  0
  9 15  1  0  0  0  0
  7 16  1  0  0  0  0
 14 17  1  0  0  0  0
 13 18  1  0  0  0  0
 13 19  2  0  0  0  0
 20 25  2  0  0  0  0
 15 21  1  0  0  0  0
 14 22  1  0  0  0  0
 16 23  1  0  0  0  0
  5 24  1  0  0  0  0
 19 25  1  0  0  0  0
 18 26  2  0  0  0  0
 20 27  1  0  0  0  0
 24 28  2  0  0  0  0
 16 29  2  0  0  0  0
 15 17  2  0  0  0  0
  5  7  2  0  0  0  0
 20 26  1  0  0  0  0
 28 29  1  0  0  0  0
M  END
> <MOLFORMULA>
C21 H11 Cl2 F2 N O2 S

> <MOLWEIGHT>
4.502909000000000e+002

> <IDNUMBER>
AT-687/PE13101

> <PRICE>
EUR 80/10 mg

> <Similarity score>
0.19

$$$$

  -OEChem-04222410502D

 35 39  0     0  0  0  0  0  0999 V2000
    7.9792   -5.7667    0.0000 S   0  0  3  0  0  0  0  0  0  0  0  0
    6.6375   -5.7667    0.0000 C   0  0  0  0  0  0  0  0  0  0  0  0
    5.9792   -4.6042    0.0000 C   0  0  0  0  0  0  0  0  0  0  0  0
    4.6542   -4.6042    0.0000 C   0  0  0  0  0  0  0  0  0  0  0  0
    6.6375   -3.4542    0.0000 N   0  0  3  0  0  0  0  0  0  0  0  0
    4.6542   -6.9125    0.0000 N   0  0  0  0  0  0  0  0  0  0  0  0
    3.9667   -5.7667    0.0000 C   0  0  0  0  0  0  0  0  0  0  0  0
    9.3042   -5.7667    0.0000 C   0  0  0  0  0  0  0  0  0  0  0  0
    5.9792   -6.9125    0.0000 C   0  0  0  0  0  0  0  0  0  0  0  0
    7.9792   -4.4375    0.0000 O   0  0  0  0  0  0  0  0  0  0  0  0
    7.9792   -7.0917    0.0000 O   0  0  0  0  0  0  0  0  0  0  0  0
    9.9542   -4.6042    0.0000 C   0  0  0  0  0  0  0  0  0  0  0  0
    2.6542   -1.1542    0.0000 N   0  0  3  0  0  0  0  0  0  0  0  0
    5.9792   -2.3042    0.0000 C   0  0  3  0  0  0  0  0  0  0  0  0
    4.6542   -2.3042    0.0000 C   0  0  0  0  0  0  0  0  0  0  0  0
    2.6542   -5.7667    0.0000 C   0  0  0  0  0  0  0  0  0  0  0  0
    3.9667   -1.1542    0.0000 C   0  0  0  0  0  0  0  0  0  0  0  0
    0.0000   -1.1542    0.0000 O   0  0  0  0  0  0  0  0  0  0  0  0
   11.2917   -4.6042    0.0000 C   0  0  0  0  0  0  0  0  0  0  0  0
    3.9667   -3.4542    0.0000 C   0  0  0  0  0  0  0  0  0  0  0  0
    7.9792   -3.4542    0.0000 C   0  0  0  0  0  0  0  0  0  0  0  0
    1.9917   -6.9125    0.0000 F   0  0  0  0  0  0  0  0  0  0  0  0
   11.9625   -3.4542    0.0000 F   0  0  0  0  0  0  0  0  0  0  0  0
    9.9542   -6.9125    0.0000 C   0  0  0  0  0  0  0  0  0  0  0  0
    1.9917   -2.3042    0.0000 C   0  0  0  0  0  0  0  0  0  0  0  0
    1.9917   -0.0000    0.0000 C   0  0  0  0  0  0  0  0  0  0  0  0
    2.6542   -3.4542    0.0000 C   0  0  0  0  0  0  0  0  0  0  0  0
   11.2917   -6.9125    0.0000 C   0  0  0  0  0  0  0  0  0  0  0  0
    1.9917   -4.6042    0.0000 C   0  0  0  0  0  0  0  0  0  0  0  0
    0.6542   -2.3042    0.0000 C   0  0  0  0  0  0  0  0  0  0  0  0
    0.6542   -0.0000    0.0000 C   0  0  0  0  0  0  0  0  0  0  0  0
    6.6375   -1.1542    0.0000 C   0  0  0  0  0  0  0  0  0  0  0  0
   11.9625   -5.7667    0.0000 C   0  0  0  0  0  0  0  0  0  0  0  0
    8.6375   -2.3042    0.0000 C   0  0  0  0  0  0  0  0  0  0  0  0
    7.9792   -1.1542    0.0000 C   0  0  0  0  0  0  0  0  0  0  0  0
  1  2  1  0  0  0  0
  2  3  2  0  0  0  0
  3  4  1  0  0  0  0
  3  5  1  0  0  0  0
  6  9  2  0  0  0  0
  6  7  1  0  0  0  0
  1  8  1  0  0  0  0
  2  9  1  0  0  0  0
  1 10  2  0  0  0  0
  1 11  2  0  0  0  0
  8 12  1  0  0  0  0
 13 17  1  0  0  0  0
  5 14  1  0  0  0  0
 14 15  1  0  0  0  0
  7 16  2  0  0  0  0
 15 17  1  0  0  0  0
 18 31  1  0  0  0  0
 12 19  2  0  0  0  0
  4 20  2  0  0  0  0
  5 21  1  0  0  0  0
 16 22  1  0  0  0  0
 19 23  1  0  0  0  0
  8 24  2  0  0  0  0
 13 25  1  0  0  0  0
 13 26  1  0  0  0  0
 20 27  1  0  0  0  0
 24 28  1  0  0  0  0
 16 29  1  0  0  0  0
 25 30  1  0  0  0  0
 26 31  1  0  0  0  0
 14 32  1  0  0  0  0
 28 33  2  0  0  0  0
 21 34  1  0  0  0  0
 34 35  1  0  0  0  0
 19 33  1  0  0  0  0
  4  7  1  0  0  0  0
 27 29  2  0  0  0  0
 32 35  1  0  0  0  0
 18 30  1  0  0  0  0
M  END
> <MOLFORMULA>
C26 H29 F2 N3 O3 S

> <MOLWEIGHT>
5.015951000000000e+002

> <IDNUMBER>
AT-687/NB06794

> <PRICE>
EUR 80/10 mg

> <Similarity score>
0.19

$$$$

  -OEChem-04222410502D

 27 31  0     0  0  0  0  0  0999 V2000
   -1.0458    1.3667    0.0000 N   0  0  0  0  0  0  0  0  0  0  0  0
   -0.1375    1.7833    0.0000 C   0  0  0  0  0  0  0  0  0  0  0  0
    0.6792    1.2083    0.0000 N   0  0  0  0  0  0  0  0  0  0  0  0
   -0.3208   -0.2083    0.0000 C   0  0  0  0  0  0  0  0  0  0  0  0
    0.5875    0.2125    0.0000 C   0  0  0  0  0  0  0  0  0  0  0  0
   -1.1375    0.3708    0.0000 C   0  0  0  0  0  0  0  0  0  0  0  0
   -0.4125   -1.2042    0.0000 C   0  0  0  0  0  0  0  0  0  0  0  0
    0.4042   -1.7792    0.0000 C   0  0  0  0  0  0  0  0  0  0  0  0
   -0.0458    2.7792    0.0000 N   0  0  3  0  0  0  0  0  0  0  0  0
    0.3167   -2.7750    0.0000 C   0  0  0  0  0  0  0  0  0  0  0  0
   -2.0458   -0.0500    0.0000 N   0  0  0  0  0  0  0  0  0  0  0  0
    1.4042   -0.3667    0.0000 O   0  0  0  0  0  0  0  0  0  0  0  0
    0.1333    4.7667    0.0000 O   0  0  0  0  0  0  0  0  0  0  0  0
    1.1333   -3.3542    0.0000 C   0  0  0  0  0  0  0  0  0  0  0  0
   -1.3167   -1.6208    0.0000 C   0  0  0  0  0  0  0  0  0  0  0  0
   -2.1375   -1.0458    0.0000 C   0  0  0  0  0  0  0  0  0  0  0  0
    1.3125   -1.3625    0.0000 C   0  0  0  0  0  0  0  0  0  0  0  0
   -0.8667    3.3583    0.0000 C   0  0  0  0  0  0  0  0  0  0  0  0
    0.8625    3.2000    0.0000 C   0  0  0  0  0  0  0  0  0  0  0  0
   -0.5917   -3.1958    0.0000 C   0  0  0  0  0  0  0  0  0  0  0  0
    2.1333   -1.9375    0.0000 C   0  0  0  0  0  0  0  0  0  0  0  0
    0.9500    4.1917    0.0000 C   0  0  0  0  0  0  0  0  0  0  0  0
   -0.7750    4.3500    0.0000 C   0  0  0  0  0  0  0  0  0  0  0  0
    2.0417   -2.9333    0.0000 C   0  0  0  0  0  0  0  0  0  0  0  0
    1.0417   -4.3500    0.0000 C   0  0  0  0  0  0  0  0  0  0  0  0
   -0.6833   -4.1917    0.0000 C   0  0  0  0  0  0  0  0  0  0  0  0
    0.1333   -4.7667    0.0000 C   0  0  0  0  0  0  0  0  0  0  0  0
  1  2  2  0  0  0  0
  2  3  1  0  0  0  0
  4  6  2  0  0  0  0
  4  5  1  0  0  0  0
  1  6  1  0  0  0  0
  4  7  1  0  0  0  0
  7  8  1  0  0  0  0
  2  9  1  0  0  0  0
  8 10  2  0  0  0  0
  6 11  1  0  0  0  0
  5 12  2  0  0  0  0
 13 22  1  0  0  0  0
 10 14  1  0  0  0  0
 15 16  1  0  0  0  0
 11 16  2  0  0  0  0
  8 17  1  0  0  0  0
  9 18  1  0  0  0  0
  9 19  1  0  0  0  0
 10 20  1  0  0  0  0
 17 21  2  0  0  0  0
 19 22  1  0  0  0  0
 18 23  1  0  0  0  0
 21 24  1  0  0  0  0
 14 25  1  0  0  0  0
 20 26  2  0  0  0  0
 26 27  1  0  0  0  0
  3  5  1  0  0  0  0
  7 15  2  0  0  0  0
 13 23  1  0  0  0  0
 14 24  2  0  0  0  0
 25 27  2  0  0  0  0
M  END
> <MOLFORMULA>
C21 H18 N4 O2

> <MOLWEIGHT>
3.583992000000000e+002

> <IDNUMBER>
AN-153/J102306

> <PRICE>
EUR 130/10 mg

> <Similarity score>
0.19

$$$$

  -OEChem-04222410502D

 29 32  0     0  0  0  0  0  0999 V2000
    6.3250   -4.9875    0.0000 C   0  0  0  0  0  0  0  0  0  0  0  0
    6.3250   -4.1667    0.0000 N   0  0  3  0  0  0  0  0  0  0  0  0
    6.3292   -1.6875    0.0000 C   0  0  0  0  0  0  0  0  0  0  0  0
    7.0500   -5.4125    0.0000 C   0  0  0  0  0  0  0  0  0  0  0  0
    7.0500   -1.2875    0.0000 N   0  0  0  0  0  0  0  0  0  0  0  0
    5.6042   -5.4125    0.0000 C   0  0  0  0  0  0  0  0  0  0  0  0
    7.0375   -0.4625    0.0000 C   0  0  0  0  0  0  0  0  0  0  0  0
    6.3167   -6.6542    0.0000 N   0  0  0  0  0  0  0  0  0  0  0  0
    7.7625   -5.0000    0.0000 C   0  0  0  0  0  0  0  0  0  0  0  0
    8.4750   -4.5875    0.0000 N   0  0  0  0  0  0  0  0  0  0  0  0
    6.3250   -0.0750    0.0000 C   0  0  0  0  0  0  0  0  0  0  0  0
    7.0500   -6.2417    0.0000 C   0  0  0  0  0  0  0  0  0  0  0  0
    5.6000   -6.2417    0.0000 C   0  0  0  0  0  0  0  0  0  0  0  0
    7.7417   -0.0542    0.0000 C   0  0  0  0  0  0  0  0  0  0  0  0
    6.3292   -2.5167    0.0000 C   0  0  3  0  0  0  0  0  0  0  0  0
    7.0417   -3.7542    0.0000 C   0  0  0  0  0  0  0  0  0  0  0  0
    5.6125   -3.7542    0.0000 C   0  0  0  0  0  0  0  0  0  0  0  0
    5.6167   -1.2750    0.0000 O   0  0  0  0  0  0  0  0  0  0  0  0
    7.0500   -2.9375    0.0000 C   0  0  0  0  0  0  0  0  0  0  0  0
    5.6125   -2.9292    0.0000 C   0  0  0  0  0  0  0  0  0  0  0  0
    7.7375    0.7625    0.0000 C   0  0  0  0  0  0  0  0  0  0  0  0
    6.3125    0.7458    0.0000 C   0  0  0  0  0  0  0  0  0  0  0  0
    8.4625   -0.4625    0.0000 F   0  0  0  0  0  0  0  0  0  0  0  0
    7.0125    1.1708    0.0000 C   0  0  0  0  0  0  0  0  0  0  0  0
    5.5875    1.1458    0.0000 Cl  0  0  0  0  0  0  0  0  0  0  0  0
    4.8875   -5.0000    0.0000 C   0  0  0  0  0  0  0  0  0  0  0  0
    4.8875   -6.6500    0.0000 C   0  0  0  0  0  0  0  0  0  0  0  0
    4.1750   -5.4125    0.0000 C   0  0  0  0  0  0  0  0  0  0  0  0
    4.1750   -6.2375    0.0000 C   0  0  0  0  0  0  0  0  0  0  0  0
  1  2  1  0  0  0  0
  3 15  1  0  0  0  0
  1  4  2  0  0  0  0
  3  5  1  0  0  0  0
  1  6  1  0  0  0  0
  5  7  1  0  0  0  0
  8 13  1  0  0  0  0
  4  9  1  0  0  0  0
  9 10  3  0  0  0  0
  7 11  1  0  0  0  0
  4 12  1  0  0  0  0
  6 13  1  0  0  0  0
  7 14  2  0  0  0  0
 15 20  1  0  0  0  0
  2 16  1  0  0  0  0
  2 17  1  0  0  0  0
  3 18  2  0  0  0  0
 16 19  1  0  0  0  0
 17 20  1  0  0  0  0
 14 21  1  0  0  0  0
 11 22  2  0  0  0  0
 14 23  1  0  0  0  0
 21 24  2  0  0  0  0
 22 25  1  0  0  0  0
  6 26  2  0  0  0  0
 13 27  2  0  0  0  0
 26 28  1  0  0  0  0
 28 29  2  0  0  0  0
  8 12  2  0  0  0  0
 15 19  1  0  0  0  0
 27 29  1  0  0  0  0
 22 24  1  0  0  0  0
M  END
> <MOLFORMULA>
C22 H18 Cl F N4 O

> <MOLWEIGHT>
4.088622000000000e+002

> <IDNUMBER>
AT-687/SK17415

> <PRICE>
EUR 80/10 mg

> <Similarity score>
0.19

$$$$

  -OEChem-04222410502D

 35 39  0     0  0  0  0  0  0999 V2000
    6.6292   -5.7542    0.0000 C   0  0  0  0  0  0  0  0  0  0  0  0
    5.3042   -5.7542    0.0000 S   0  0  3  0  0  0  0  0  0  0  0  0
    7.2917   -4.6042    0.0000 C   0  0  0  0  0  0  0  0  0  0  0  0
    8.6250   -4.6042    0.0000 C   0  0  0  0  0  0  0  0  0  0  0  0
    6.6292   -3.4500    0.0000 N   0  0  3  0  0  0  0  0  0  0  0  0
    8.6250   -6.9125    0.0000 N   0  0  0  0  0  0  0  0  0  0  0  0
    9.2875   -5.7542    0.0000 C   0  0  0  0  0  0  0  0  0  0  0  0
    7.2917   -6.9125    0.0000 C   0  0  0  0  0  0  0  0  0  0  0  0
    3.9792   -5.7542    0.0000 C   0  0  0  0  0  0  0  0  0  0  0  0
    5.3042   -4.4292    0.0000 O   0  0  0  0  0  0  0  0  0  0  0  0
    5.3042   -7.0792    0.0000 O   0  0  0  0  0  0  0  0  0  0  0  0
   10.6292   -1.1542    0.0000 N   0  0  3  0  0  0  0  0  0  0  0  0
    7.2917   -2.3042    0.0000 C   0  0  3  0  0  0  0  0  0  0  0  0
    8.6250   -2.3042    0.0000 C   0  0  0  0  0  0  0  0  0  0  0  0
   10.6292   -5.7542    0.0000 C   0  0  0  0  0  0  0  0  0  0  0  0
    9.2875   -1.1542    0.0000 C   0  0  0  0  0  0  0  0  0  0  0  0
   13.2667   -1.1542    0.0000 O   0  0  0  0  0  0  0  0  0  0  0  0
    3.3167   -6.9125    0.0000 C   0  0  0  0  0  0  0  0  0  0  0  0
    3.3167   -4.6042    0.0000 C   0  0  0  0  0  0  0  0  0  0  0  0
    9.2875   -3.4500    0.0000 C   0  0  0  0  0  0  0  0  0  0  0  0
    5.3042   -3.4500    0.0000 C   0  0  0  0  0  0  0  0  0  0  0  0
    1.3125   -5.7542    0.0000 C   0  0  0  0  0  0  0  0  0  0  0  0
   11.2917   -6.9125    0.0000 F   0  0  0  0  0  0  0  0  0  0  0  0
    1.9750   -4.6042    0.0000 C   0  0  0  0  0  0  0  0  0  0  0  0
    1.9750   -6.9125    0.0000 C   0  0  0  0  0  0  0  0  0  0  0  0
    0.0000   -5.7542    0.0000 F   0  0  0  0  0  0  0  0  0  0  0  0
   11.2917   -2.3042    0.0000 C   0  0  0  0  0  0  0  0  0  0  0  0
   11.2917   -0.0000    0.0000 C   0  0  0  0  0  0  0  0  0  0  0  0
   10.6292   -3.4500    0.0000 C   0  0  0  0  0  0  0  0  0  0  0  0
   11.2917   -4.6042    0.0000 C   0  0  0  0  0  0  0  0  0  0  0  0
   12.6042   -0.0000    0.0000 C   0  0  0  0  0  0  0  0  0  0  0  0
   12.6042   -2.3042    0.0000 C   0  0  0  0  0  0  0  0  0  0  0  0
    6.6292   -1.1542    0.0000 C   0  0  0  0  0  0  0  0  0  0  0  0
    4.6292   -2.3042    0.0000 C   0  0  0  0  0  0  0  0  0  0  0  0
    5.3042   -1.1542    0.0000 C   0  0  0  0  0  0  0  0  0  0  0  0
  1  2  1  0  0  0  0
  1  3  2  0  0  0  0
  3  4  1  0  0  0  0
  3  5  1  0  0  0  0
  6  8  2  0  0  0  0
  6  7  1  0  0  0  0
  1  8  1  0  0  0  0
  2  9  1  0  0  0  0
  2 10  2  0  0  0  0
  2 11  2  0  0  0  0
 12 16  1  0  0  0  0
  5 13  1  0  0  0  0
 13 14  1  0  0  0  0
  7 15  2  0  0  0  0
 14 16  1  0  0  0  0
 17 31  1  0  0  0  0
  9 18  2  0  0  0  0
  9 19  1  0  0  0  0
  4 20  2  0  0  0  0
  5 21  1  0  0  0  0
 22 24  1  0  0  0  0
 15 23  1  0  0  0  0
 19 24  2  0  0  0  0
 18 25  1  0  0  0  0
 22 26  1  0  0  0  0
 12 27  1  0  0  0  0
 12 28  1  0  0  0  0
 20 29  1  0  0  0  0
 15 30  1  0  0  0  0
 28 31  1  0  0  0  0
 27 32  1  0  0  0  0
 13 33  1  0  0  0  0
 21 34  1  0  0  0  0
 34 35  1  0  0  0  0
  4  7  1  0  0  0  0
 22 25  2  0  0  0  0
 29 30  2  0  0  0  0
 33 35  1  0  0  0  0
 17 32  1  0  0  0  0
M  END
> <MOLFORMULA>
C26 H29 F2 N3 O3 S

> <MOLWEIGHT>
5.015951000000000e+002

> <IDNUMBER>
AT-687/NB06793

> <PRICE>
EUR 80/10 mg

> <Similarity score>
0.19

$$$$

  -OEChem-04222410502D

 27 30  0     0  0  0  0  0  0999 V2000
    2.5083  -11.6167    0.0000 N   0  0  0  0  0  0  0  0  0  0  0  0
    1.8542  -12.7417    0.0000 C   0  0  0  0  0  0  0  0  0  0  0  0
    2.5042  -12.3667    0.0000 C   0  0  0  0  0  0  0  0  0  0  0  0
    1.2000  -14.6125    0.0000 N   0  3  0  0  0  0  0  0  0  0  0  0
    1.2042   -9.3542    0.0000 N   0  3  0  0  0  0  0  0  0  0  0  0
    1.8542  -11.2417    0.0000 C   0  0  0  0  0  0  0  0  0  0  0  0
    1.2042  -12.3667    0.0000 C   0  0  0  0  0  0  0  0  0  0  0  0
    1.2042  -11.6167    0.0000 C   0  0  0  0  0  0  0  0  0  0  0  0
    1.8542  -13.4917    0.0000 C   0  0  0  0  0  0  0  0  0  0  0  0
    1.2042  -13.8625    0.0000 C   0  0  0  0  0  0  0  0  0  0  0  0
    1.2042  -10.1042    0.0000 C   0  0  0  0  0  0  0  0  0  0  0  0
    1.8542  -10.4875    0.0000 C   0  0  0  0  0  0  0  0  0  0  0  0
    3.1542  -12.7500    0.0000 C   0  0  0  0  0  0  0  0  0  0  0  0
    0.5542  -12.7375    0.0000 C   0  0  0  0  0  0  0  0  0  0  0  0
    0.5542  -11.2375    0.0000 C   0  0  0  0  0  0  0  0  0  0  0  0
    0.5500  -14.9875    0.0000 O   0  5  0  0  0  0  0  0  0  0  0  0
    1.8542   -8.9792    0.0000 O   0  5  0  0  0  0  0  0  0  0  0  0
    1.8500  -14.9917    0.0000 O   0  0  0  0  0  0  0  0  0  0  0  0
    0.5542   -8.9792    0.0000 O   0  0  0  0  0  0  0  0  0  0  0  0
    0.5542  -13.4875    0.0000 C   0  0  0  0  0  0  0  0  0  0  0  0
    3.1542  -13.5000    0.0000 C   0  0  0  0  0  0  0  0  0  0  0  0
    0.5542  -10.4875    0.0000 C   0  0  0  0  0  0  0  0  0  0  0  0
    3.8042  -13.8750    0.0000 C   0  0  0  0  0  0  0  0  0  0  0  0
    3.8000  -14.6250    0.0000 O   0  0  0  0  0  0  0  0  0  0  0  0
    3.8042  -12.3750    0.0000 C   0  0  0  0  0  0  0  0  0  0  0  0
    4.4542  -12.7542    0.0000 C   0  0  0  0  0  0  0  0  0  0  0  0
    4.4542  -13.5042    0.0000 C   0  0  0  0  0  0  0  0  0  0  0  0
  2  3  1  0  0  0  0
  1  3  2  0  0  0  0
  4 10  1  0  0  0  0
  5 11  1  0  0  0  0
  1  6  1  0  0  0  0
  7  8  1  0  0  0  0
  6  8  1  0  0  0  0
  2  9  1  0  0  0  0
  9 10  2  0  0  0  0
 11 12  1  0  0  0  0
  6 12  2  0  0  0  0
  3 13  1  0  0  0  0
  7 14  1  0  0  0  0
  8 15  2  0  0  0  0
  4 16  1  0  0  0  0
  5 17  1  0  0  0  0
  4 18  2  0  0  0  0
  5 19  2  0  0  0  0
 14 20  2  0  0  0  0
 13 21  1  0  0  0  0
 11 22  2  0  0  0  0
 21 23  2  0  0  0  0
 23 24  1  0  0  0  0
 13 25  2  0  0  0  0
 25 26  1  0  0  0  0
 26 27  2  0  0  0  0
  2  7  2  0  0  0  0
 15 22  1  0  0  0  0
 10 20  1  0  0  0  0
 23 27  1  0  0  0  0
M  CHG  4   4   1   5   1  16  -1  17  -1
M  END
> <MOLFORMULA>
C19 H11 N3 O5

> <MOLWEIGHT>
3.613119000000000e+002

> <IDNUMBER>
AT-225/NB32526

> <PRICE>
EUR 140/10 mg

> <Similarity score>
0.19

$$$$

  -OEChem-04222410502D

 22 24  0     0  0  0  0  0  0999 V2000
    5.9792   -7.2500    0.0000 N   0  0  0  0  0  0  0  0  0  0  0  0
    5.2667   -6.8375    0.0000 C   0  0  0  0  0  0  0  0  0  0  0  0
    6.6917   -6.8375    0.0000 C   0  0  0  0  0  0  0  0  0  0  0  0
    5.2667   -6.0125    0.0000 C   0  0  0  0  0  0  0  0  0  0  0  0
    4.5500   -7.2500    0.0000 N   0  0  3  0  0  0  0  0  0  0  0  0
    6.6917   -6.0042    0.0000 N   0  0  0  0  0  0  0  0  0  0  0  0
    7.4125   -7.2500    0.0000 N   0  0  0  0  0  0  0  0  0  0  0  0
    5.9792   -5.5917    0.0000 C   0  0  0  0  0  0  0  0  0  0  0  0
    3.1250   -8.0667    0.0000 O   0  0  0  0  0  0  0  0  0  0  0  0
    4.5542   -5.6000    0.0000 F   0  0  0  0  0  0  0  0  0  0  0  0
    8.1250   -6.8292    0.0000 C   0  0  0  0  0  0  0  0  0  0  0  0
    9.5417   -6.0000    0.0000 C   0  0  0  0  0  0  0  0  0  0  0  0
    8.8375   -7.2417    0.0000 C   0  0  0  0  0  0  0  0  0  0  0  0
    8.1167   -6.0125    0.0000 C   0  0  0  0  0  0  0  0  0  0  0  0
    8.8167   -5.5917    0.0000 C   0  0  0  0  0  0  0  0  0  0  0  0
    9.5500   -6.8250    0.0000 C   0  0  0  0  0  0  0  0  0  0  0  0
    3.8417   -6.8292    0.0000 C   0  0  0  0  0  0  0  0  0  0  0  0
    4.5542   -8.0667    0.0000 C   0  0  0  0  0  0  0  0  0  0  0  0
   10.2500   -5.5792    0.0000 O   0  0  0  0  0  0  0  0  0  0  0  0
    3.1292   -7.2417    0.0000 C   0  0  0  0  0  0  0  0  0  0  0  0
    3.8375   -8.4792    0.0000 C   0  0  0  0  0  0  0  0  0  0  0  0
   10.2417   -4.7542    0.0000 C   0  0  0  0  0  0  0  0  0  0  0  0
  1  2  1  0  0  0  0
  1  3  2  0  0  0  0
  2  4  2  0  0  0  0
  2  5  1  0  0  0  0
  3  6  1  0  0  0  0
  3  7  1  0  0  0  0
  6  8  2  0  0  0  0
  9 21  1  0  0  0  0
  4 10  1  0  0  0  0
  7 11  1  0  0  0  0
 12 15  1  0  0  0  0
 11 13  2  0  0  0  0
 11 14  1  0  0  0  0
 14 15  2  0  0  0  0
 13 16  1  0  0  0  0
  5 17  1  0  0  0  0
  5 18  1  0  0  0  0
 12 19  1  0  0  0  0
 17 20  1  0  0  0  0
 18 21  1  0  0  0  0
 19 22  1  0  0  0  0
  4  8  1  0  0  0  0
  9 20  1  0  0  0  0
 12 16  2  0  0  0  0
M  END
> <MOLFORMULA>
C15 H17 F N4 O2

> <MOLWEIGHT>
3.043233000000000e+002

> <IDNUMBER>
AT-138/QI00258

> <CHIRALFLAG>
-

> <PRICE>
EUR 125.00/10 mg

> <Similarity score>
0.19

$$$$

  -OEChem-04222410502D

 30 34  0     0  0  0  0  0  0999 V2000
   -1.7375   -0.4667    0.0000 C   0  0  0  0  0  0  0  0  0  0  0  0
   -1.7583   -1.4667    0.0000 C   0  0  0  0  0  0  0  0  0  0  0  0
   -0.0125   -0.4792    0.0000 C   0  0  0  0  0  0  0  0  0  0  0  0
   -0.8750    0.0333    0.0000 N   0  0  0  0  0  0  0  0  0  0  0  0
   -0.0208   -1.4792    0.0000 N   0  0  0  0  0  0  0  0  0  0  0  0
   -2.6958   -0.1542    0.0000 C   0  0  0  0  0  0  0  0  0  0  0  0
   -0.8958   -1.9792    0.0000 C   0  0  0  0  0  0  0  0  0  0  0  0
   -2.6958   -1.7667    0.0000 S   0  0  0  0  0  0  0  0  0  0  0  0
   -3.2833   -0.9625    0.0000 C   0  0  0  0  0  0  0  0  0  0  0  0
    0.8625    0.0083    0.0000 N   0  0  3  0  0  0  0  0  0  0  0  0
    2.6042    0.9958    0.0000 N   0  0  3  0  0  0  0  0  0  0  0  0
   -2.9958    0.7958    0.0000 C   0  0  0  0  0  0  0  0  0  0  0  0
    3.4875    1.4708    0.0000 C   0  0  0  0  0  0  0  0  0  0  0  0
   -0.9083   -2.9792    0.0000 O   0  0  0  0  0  0  0  0  0  0  0  0
    0.8750    1.0125    0.0000 C   0  0  0  0  0  0  0  0  0  0  0  0
    1.7250   -0.4917    0.0000 C   0  0  0  0  0  0  0  0  0  0  0  0
    1.7417    1.4958    0.0000 C   0  0  0  0  0  0  0  0  0  0  0  0
    2.5917   -0.0125    0.0000 C   0  0  0  0  0  0  0  0  0  0  0  0
   -3.9833    1.0125    0.0000 C   0  0  0  0  0  0  0  0  0  0  0  0
    3.4917    2.4750    0.0000 C   0  0  0  0  0  0  0  0  0  0  0  0
   -4.2833    1.9583    0.0000 C   0  0  0  0  0  0  0  0  0  0  0  0
    2.6292    2.9875    0.0000 F   0  0  0  0  0  0  0  0  0  0  0  0
   -5.2458    2.1750    0.0000 Cl  0  0  0  0  0  0  0  0  0  0  0  0
   -2.3208    1.5250    0.0000 C   0  0  0  0  0  0  0  0  0  0  0  0
   -2.6333    2.4833    0.0000 C   0  0  0  0  0  0  0  0  0  0  0  0
    4.3500    0.9708    0.0000 C   0  0  0  0  0  0  0  0  0  0  0  0
    4.3625    2.9708    0.0000 C   0  0  0  0  0  0  0  0  0  0  0  0
   -3.6000    2.6958    0.0000 C   0  0  0  0  0  0  0  0  0  0  0  0
    5.2167    1.4500    0.0000 C   0  0  0  0  0  0  0  0  0  0  0  0
    5.2417    2.4583    0.0000 C   0  0  0  0  0  0  0  0  0  0  0  0
  1  2  2  0  0  0  0
  3  4  2  0  0  0  0
  1  4  1  0  0  0  0
  3  5  1  0  0  0  0
  1  6  1  0  0  0  0
  2  7  1  0  0  0  0
  2  8  1  0  0  0  0
  6  9  2  0  0  0  0
  3 10  1  0  0  0  0
 11 18  1  0  0  0  0
  6 12  1  0  0  0  0
 11 13  1  0  0  0  0
  7 14  2  0  0  0  0
 10 15  1  0  0  0  0
 10 16  1  0  0  0  0
 15 17  1  0  0  0  0
 16 18  1  0  0  0  0
 12 19  2  0  0  0  0
 13 20  1  0  0  0  0
 19 21  1  0  0  0  0
 20 22  1  0  0  0  0
 21 23  1  0  0  0  0
 12 24  1  0  0  0  0
 24 25  2  0  0  0  0
 13 26  2  0  0  0  0
 20 27  2  0  0  0  0
 25 28  1  0  0  0  0
 26 29  1  0  0  0  0
 29 30  2  0  0  0  0
  8  9  1  0  0  0  0
  5  7  1  0  0  0  0
 21 28  2  0  0  0  0
 11 17  1  0  0  0  0
 27 30  1  0  0  0  0
M  END
> <MOLFORMULA>
C22 H18 Cl F N4 O S

> <MOLWEIGHT>
4.409282000000000e+002

> <IDNUMBER>
AT-687/PE25884

> <PRICE>
EUR 80/10 mg

> <Similarity score>
0.19

$$$$

  -OEChem-04222410502D

 34 38  0     0  0  0  0  0  0999 V2000
    0.0917   -0.6542    0.0000 C   0  0  0  0  0  0  0  0  0  0  0  0
    0.6583    0.9833    0.0000 C   0  0  0  0  0  0  0  0  0  0  0  0
   -0.0958    0.3292    0.0000 N   0  0  0  0  0  0  0  0  0  0  0  0
   -0.4750   -2.2875    0.0000 C   0  0  0  0  0  0  0  0  0  0  0  0
    1.0375   -0.9792    0.0000 N   0  0  0  0  0  0  0  0  0  0  0  0
    0.0917    3.9292    0.0000 C   0  0  0  0  0  0  0  0  0  0  0  0
    1.6042    0.6583    0.0000 C   0  0  0  0  0  0  0  0  0  0  0  0
    0.4708    1.9667    0.0000 C   0  0  0  0  0  0  0  0  0  0  0  0
    1.0375    3.6042    0.0000 N   0  0  0  0  0  0  0  0  0  0  0  0
   -0.6625   -1.3083    0.0000 N   0  0  0  0  0  0  0  0  0  0  0  0
   -0.0958   -4.2542    0.0000 C   0  0  0  0  0  0  0  0  0  0  0  0
   -1.0417   -3.9250    0.0000 C   0  0  0  0  0  0  0  0  0  0  0  0
    1.7917   -0.3250    0.0000 C   0  0  0  0  0  0  0  0  0  0  0  0
   -1.2292   -2.9458    0.0000 N   0  0  0  0  0  0  0  0  0  0  0  0
    0.4708   -2.6167    0.0000 N   0  0  0  0  0  0  0  0  0  0  0  0
   -0.6625    3.2750    0.0000 N   0  0  0  0  0  0  0  0  0  0  0  0
    1.2250    2.6208    0.0000 C   0  0  0  0  0  0  0  0  0  0  0  0
    0.6583   -3.6000    0.0000 C   0  0  0  0  0  0  0  0  0  0  0  0
   -0.0958    4.9083    0.0000 N   0  0  3  0  0  0  0  0  0  0  0  0
   -0.4750    2.2917    0.0000 C   0  0  0  0  0  0  0  0  0  0  0  0
   -1.7958   -4.5792    0.0000 C   0  0  0  0  0  0  0  0  0  0  0  0
    0.0917   -5.2333    0.0000 C   0  0  0  0  0  0  0  0  0  0  0  0
   -1.6083   -5.5625    0.0000 C   0  0  0  0  0  0  0  0  0  0  0  0
    2.7375   -0.6542    0.0000 O   0  0  0  0  0  0  0  0  0  0  0  0
   -0.6625   -5.8917    0.0000 C   0  0  0  0  0  0  0  0  0  0  0  0
   -0.4750    6.8708    0.0000 O   0  0  0  0  0  0  0  0  0  0  0  0
    0.6583    5.5625    0.0000 C   0  0  0  0  0  0  0  0  0  0  0  0
   -1.0417    5.2333    0.0000 C   0  0  0  0  0  0  0  0  0  0  0  0
    2.1708    2.2917    0.0000 C   0  0  0  0  0  0  0  0  0  0  0  0
    1.6042   -3.9250    0.0000 C   0  0  0  0  0  0  0  0  0  0  0  0
   -2.7417   -4.2542    0.0000 C   0  0  0  0  0  0  0  0  0  0  0  0
   -1.2292    6.2167    0.0000 C   0  0  0  0  0  0  0  0  0  0  0  0
    0.4708    6.5458    0.0000 C   0  0  0  0  0  0  0  0  0  0  0  0
   -0.4750   -6.8708    0.0000 C   0  0  0  0  0  0  0  0  0  0  0  0
  2  3  1  0  0  0  0
  1  3  2  0  0  0  0
  4 10  1  0  0  0  0
  1  5  1  0  0  0  0
  6 16  2  0  0  0  0
  7 13  1  0  0  0  0
  2  8  1  0  0  0  0
  9 17  2  0  0  0  0
  1 10  1  0  0  0  0
 11 18  1  0  0  0  0
 12 14  1  0  0  0  0
  5 13  1  0  0  0  0
  4 14  2  0  0  0  0
  4 15  1  0  0  0  0
 16 20  1  0  0  0  0
  8 17  1  0  0  0  0
 15 18  2  0  0  0  0
  6 19  1  0  0  0  0
  8 20  2  0  0  0  0
 12 21  1  0  0  0  0
 11 22  1  0  0  0  0
 21 23  2  0  0  0  0
 13 24  2  0  0  0  0
 22 25  2  0  0  0  0
 26 32  1  0  0  0  0
 19 27  1  0  0  0  0
 19 28  1  0  0  0  0
 17 29  1  0  0  0  0
 18 30  1  0  0  0  0
 21 31  1  0  0  0  0
 28 32  1  0  0  0  0
 27 33  1  0  0  0  0
 25 34  1  0  0  0  0
  2  7  2  0  0  0  0
 11 12  2  0  0  0  0
  6  9  1  0  0  0  0
 23 25  1  0  0  0  0
 26 33  1  0  0  0  0
M  END
> <MOLFORMULA>
C24 H26 N8 O2

> <MOLWEIGHT>
4.585234000000000e+002

> <IDNUMBER>
AN-153/NB22716

> <PRICE>
EUR 130/10 mg

> <Similarity score>
0.19

$$$$

  -OEChem-04222410502D

 35 39  0     0  0  0  0  0  0999 V2000
   -3.3208    0.9208    0.0000 C   0  0  0  0  0  0  0  0  0  0  0  0
   -3.3125    0.0875    0.0000 C   0  0  0  0  0  0  0  0  0  0  0  0
   -1.8833    0.9208    0.0000 C   0  0  0  0  0  0  0  0  0  0  0  0
   -2.6083    1.3333    0.0000 N   0  0  0  0  0  0  0  0  0  0  0  0
   -4.1000    1.1625    0.0000 C   0  0  0  0  0  0  0  0  0  0  0  0
   -1.8833    0.0875    0.0000 N   0  0  0  0  0  0  0  0  0  0  0  0
   -2.6000   -0.3250    0.0000 C   0  0  0  0  0  0  0  0  0  0  0  0
   -4.0958   -0.1667    0.0000 S   0  0  0  0  0  0  0  0  0  0  0  0
   -4.5833    0.4958    0.0000 C   0  0  0  0  0  0  0  0  0  0  0  0
   -1.1708    1.3333    0.0000 N   0  0  3  0  0  0  0  0  0  0  0  0
   -4.3625    1.9458    0.0000 C   0  0  0  0  0  0  0  0  0  0  0  0
    0.9792    2.5583    0.0000 C   0  0  0  0  0  0  0  0  0  0  0  0
    3.1250    3.7833    0.0000 C   0  0  0  0  0  0  0  0  0  0  0  0
    2.4042    3.3958    0.0000 C   0  0  0  0  0  0  0  0  0  0  0  0
    0.9792    3.3833    0.0000 N   0  0  0  0  0  0  0  0  0  0  0  0
    3.8292    3.3750    0.0000 C   0  0  0  0  0  0  0  0  0  0  0  0
   -2.6000   -1.1500    0.0000 O   0  0  0  0  0  0  0  0  0  0  0  0
   -0.4583    0.9125    0.0000 C   0  0  0  0  0  0  0  0  0  0  0  0
   -1.1708    2.1500    0.0000 C   0  0  0  0  0  0  0  0  0  0  0  0
    0.2625    2.1458    0.0000 C   0  0  3  0  0  0  0  0  0  0  0  0
    1.7000    3.7958    0.0000 C   0  0  0  0  0  0  0  0  0  0  0  0
   -5.1708    2.1208    0.0000 C   0  0  0  0  0  0  0  0  0  0  0  0
    1.6917    2.1458    0.0000 O   0  0  0  0  0  0  0  0  0  0  0  0
    2.3917    2.5625    0.0000 C   0  0  0  0  0  0  0  0  0  0  0  0
   -0.4583    2.5625    0.0000 C   0  0  0  0  0  0  0  0  0  0  0  0
    0.2542    1.3208    0.0000 C   0  0  0  0  0  0  0  0  0  0  0  0
    3.8250    2.5500    0.0000 C   0  0  0  0  0  0  0  0  0  0  0  0
    3.1250    4.6042    0.0000 F   0  0  0  0  0  0  0  0  0  0  0  0
   -5.7250    1.5083    0.0000 F   0  0  0  0  0  0  0  0  0  0  0  0
    3.1042    2.1333    0.0000 C   0  0  0  0  0  0  0  0  0  0  0  0
    4.5292    2.1208    0.0000 F   0  0  0  0  0  0  0  0  0  0  0  0
   -3.8083    2.5708    0.0000 C   0  0  0  0  0  0  0  0  0  0  0  0
   -5.4333    2.9000    0.0000 C   0  0  0  0  0  0  0  0  0  0  0  0
   -4.0708    3.3583    0.0000 C   0  0  0  0  0  0  0  0  0  0  0  0
   -4.8750    3.5208    0.0000 C   0  0  0  0  0  0  0  0  0  0  0  0
  1  2  2  0  0  0  0
  3  4  2  0  0  0  0
  1  4  1  0  0  0  0
  1  5  1  0  0  0  0
  3  6  1  0  0  0  0
  2  7  1  0  0  0  0
  2  8  1  0  0  0  0
  5  9  2  0  0  0  0
  3 10  1  0  0  0  0
  5 11  1  0  0  0  0
 12 20  1  0  0  0  0
 13 14  2  0  0  0  0
 14 21  1  0  0  0  0
 12 15  1  0  0  0  0
 13 16  1  0  0  0  0
  7 17  2  0  0  0  0
 10 18  1  0  0  0  0
 10 19  1  0  0  0  0
 20 25  1  0  0  0  0
 15 21  1  0  0  0  0
 11 22  2  0  0  0  0
 12 23  2  0  0  0  0
 14 24  1  0  0  0  0
 19 25  1  0  0  0  0
 18 26  1  0  0  0  0
 27 30  1  0  0  0  0
 13 28  1  0  0  0  0
 22 29  1  0  0  0  0
 24 30  2  0  0  0  0
 27 31  1  0  0  0  0
 11 32  1  0  0  0  0
 22 33  1  0  0  0  0
 32 34  2  0  0  0  0
 34 35  1  0  0  0  0
  8  9  1  0  0  0  0
  6  7  1  0  0  0  0
 33 35  2  0  0  0  0
 20 26  1  0  0  0  0
 16 27  2  0  0  0  0
M  END
> <MOLFORMULA>
C25 H21 F3 N4 O2 S

> <MOLWEIGHT>
4.985269000000000e+002

> <IDNUMBER>
AT-687/PE25914

> <PRICE>
EUR 80/10 mg

> <Similarity score>
0.19

$$$$

  -OEChem-04222410502D

 35 39  0     0  0  0  0  0  0999 V2000
   -0.2333   -0.0000    0.0000 C   0  0  0  0  0  0  0  0  0  0  0  0
    0.4583    1.5917    0.0000 C   0  0  0  0  0  0  0  0  0  0  0  0
   -0.3458    0.9958    0.0000 N   0  0  0  0  0  0  0  0  0  0  0  0
   -0.9208   -1.5875    0.0000 C   0  0  0  0  0  0  0  0  0  0  0  0
    0.6875   -0.3958    0.0000 N   0  0  0  0  0  0  0  0  0  0  0  0
    0.1125    4.5667    0.0000 C   0  0  0  0  0  0  0  0  0  0  0  0
    1.3750    1.1958    0.0000 C   0  0  0  0  0  0  0  0  0  0  0  0
    0.3417    2.5833    0.0000 C   0  0  0  0  0  0  0  0  0  0  0  0
    1.0292    4.1708    0.0000 N   0  0  0  0  0  0  0  0  0  0  0  0
   -1.0333   -0.5958    0.0000 N   0  0  0  0  0  0  0  0  0  0  0  0
    1.4875    0.2000    0.0000 C   0  0  0  0  0  0  0  0  0  0  0  0
   -0.0042   -1.9833    0.0000 N   0  0  0  0  0  0  0  0  0  0  0  0
   -1.7208   -2.1833    0.0000 N   0  0  0  0  0  0  0  0  0  0  0  0
   -0.6917   -3.5750    0.0000 C   0  0  0  0  0  0  0  0  0  0  0  0
   -0.6917    3.9750    0.0000 N   0  0  0  0  0  0  0  0  0  0  0  0
    1.1458    3.1792    0.0000 C   0  0  0  0  0  0  0  0  0  0  0  0
    0.0000    5.5625    0.0000 N   0  0  3  0  0  0  0  0  0  0  0  0
    0.1125   -2.9792    0.0000 C   0  0  0  0  0  0  0  0  0  0  0  0
   -1.6083   -3.1750    0.0000 C   0  0  0  0  0  0  0  0  0  0  0  0
   -0.5750    2.9833    0.0000 C   0  0  0  0  0  0  0  0  0  0  0  0
   -0.5750   -4.5667    0.0000 C   0  0  0  0  0  0  0  0  0  0  0  0
    2.4083   -0.1958    0.0000 O   0  0  0  0  0  0  0  0  0  0  0  0
   -2.4125   -3.7750    0.0000 C   0  0  0  0  0  0  0  0  0  0  0  0
   -0.2333    7.5500    0.0000 O   0  0  0  0  0  0  0  0  0  0  0  0
   -1.3792   -5.1625    0.0000 C   0  0  0  0  0  0  0  0  0  0  0  0
   -2.2958   -4.7667    0.0000 C   0  0  0  0  0  0  0  0  0  0  0  0
    0.8000    6.1583    0.0000 C   0  0  0  0  0  0  0  0  0  0  0  0
   -0.9208    5.9583    0.0000 C   0  0  0  0  0  0  0  0  0  0  0  0
   -1.2625   -6.1583    0.0000 O   0  0  0  0  0  0  0  0  0  0  0  0
    2.0625    2.7833    0.0000 C   0  0  0  0  0  0  0  0  0  0  0  0
    1.0292   -3.3750    0.0000 C   0  0  0  0  0  0  0  0  0  0  0  0
   -1.0333    6.9500    0.0000 C   0  0  0  0  0  0  0  0  0  0  0  0
    0.6875    7.1500    0.0000 C   0  0  0  0  0  0  0  0  0  0  0  0
   -0.3458   -6.5542    0.0000 C   0  0  0  0  0  0  0  0  0  0  0  0
   -0.2333   -7.5500    0.0000 C   0  0  0  0  0  0  0  0  0  0  0  0
  2  3  1  0  0  0  0
  1  3  2  0  0  0  0
  4 10  1  0  0  0  0
  1  5  1  0  0  0  0
  6 15  2  0  0  0  0
  7 11  1  0  0  0  0
  2  8  1  0  0  0  0
  9 16  2  0  0  0  0
  1 10  1  0  0  0  0
  5 11  1  0  0  0  0
  4 12  1  0  0  0  0
  4 13  2  0  0  0  0
 14 19  2  0  0  0  0
 15 20  1  0  0  0  0
  8 16  1  0  0  0  0
  6 17  1  0  0  0  0
 12 18  2  0  0  0  0
 13 19  1  0  0  0  0
  8 20  2  0  0  0  0
 14 21  1  0  0  0  0
 11 22  2  0  0  0  0
 19 23  1  0  0  0  0
 24 32  1  0  0  0  0
 25 26  1  0  0  0  0
 23 26  2  0  0  0  0
 17 27  1  0  0  0  0
 17 28  1  0  0  0  0
 25 29  1  0  0  0  0
 16 30  1  0  0  0  0
 18 31  1  0  0  0  0
 28 32  1  0  0  0  0
 27 33  1  0  0  0  0
 29 34  1  0  0  0  0
 34 35  1  0  0  0  0
  2  7  2  0  0  0  0
 14 18  1  0  0  0  0
  6  9  1  0  0  0  0
 21 25  2  0  0  0  0
 24 33  1  0  0  0  0
M  END
> <MOLFORMULA>
C24 H26 N8 O3

> <MOLWEIGHT>
4.745224000000000e+002

> <IDNUMBER>
AN-153/NB22718

> <PRICE>
EUR 130/10 mg

> <Similarity score>
0.19

$$$$

  -OEChem-04222410502D

 34 38  0     0  0  0  0  0  0999 V2000
    1.6000   -2.4250    0.0000 C   0  0  0  0  0  0  0  0  0  0  0  0
    2.3167   -2.8417    0.0000 N   0  0  0  0  0  0  0  0  0  0  0  0
    2.3167   -3.6667    0.0000 N   0  0  0  0  0  0  0  0  0  0  0  0
    1.6000   -4.0667    0.0000 C   0  0  0  0  0  0  0  0  0  0  0  0
    3.0417    2.5500    0.0000 C   0  0  3  0  0  0  0  0  0  0  0  0
    1.6000   -1.6000    0.0000 N   0  0  3  0  0  0  0  0  0  0  0  0
    0.8917   -2.8417    0.0000 C   0  0  0  0  0  0  0  0  0  0  0  0
    0.8917   -3.6667    0.0000 C   0  0  0  0  0  0  0  0  0  0  0  0
    1.6000    0.0583    0.0000 N   0  0  3  0  0  0  0  0  0  0  0  0
    1.6000   -4.9000    0.0000 C   0  0  0  0  0  0  0  0  0  0  0  0
    2.3167    2.1250    0.0000 C   0  0  0  0  0  0  0  0  0  0  0  0
    1.6000    0.8833    0.0000 C   0  0  0  0  0  0  0  0  0  0  0  0
    2.3167   -5.3167    0.0000 C   0  0  0  0  0  0  0  0  0  0  0  0
    2.3167    1.3000    0.0000 C   0  0  0  0  0  0  0  0  0  0  0  0
    2.3167   -6.1500    0.0000 C   0  0  0  0  0  0  0  0  0  0  0  0
    2.3167   -1.1792    0.0000 C   0  0  0  0  0  0  0  0  0  0  0  0
    0.8917   -1.1792    0.0000 C   0  0  0  0  0  0  0  0  0  0  0  0
    0.8917   -0.3500    0.0000 C   0  0  0  0  0  0  0  0  0  0  0  0
    2.3167   -0.3500    0.0000 C   0  0  0  0  0  0  0  0  0  0  0  0
    1.6000   -6.5542    0.0000 C   0  0  0  0  0  0  0  0  0  0  0  0
    0.8917   -5.3167    0.0000 C   0  0  0  0  0  0  0  0  0  0  0  0
    3.4667    1.8250    0.0000 F   0  0  0  0  0  0  0  0  0  0  0  0
    3.7667    2.9833    0.0000 F   0  0  0  0  0  0  0  0  0  0  0  0
    2.6250    3.2750    0.0000 F   0  0  0  0  0  0  0  0  0  0  0  0
    0.8917   -6.1500    0.0000 C   0  0  0  0  0  0  0  0  0  0  0  0
    0.1750   -2.4250    0.0000 C   0  0  0  0  0  0  0  0  0  0  0  0
    0.1750   -4.0667    0.0000 C   0  0  0  0  0  0  0  0  0  0  0  0
    1.6000    2.5375    0.0000 C   0  0  0  0  0  0  0  0  0  0  0  0
    0.8917    1.3000    0.0000 C   0  0  0  0  0  0  0  0  0  0  0  0
    0.8917    2.1250    0.0000 C   0  0  0  0  0  0  0  0  0  0  0  0
    3.0417   -6.5667    0.0000 C   0  0  0  0  0  0  0  0  0  0  0  0
    1.6167   -7.3792    0.0000 C   0  0  0  0  0  0  0  0  0  0  0  0
   -0.5333   -3.6667    0.0000 C   0  0  0  0  0  0  0  0  0  0  0  0
   -0.5333   -2.8417    0.0000 C   0  0  0  0  0  0  0  0  0  0  0  0
  1  2  2  0  0  0  0
  2  3  1  0  0  0  0
  4  8  1  0  0  0  0
  5 11  1  0  0  0  0
  1  6  1  0  0  0  0
  1  7  1  0  0  0  0
  7  8  2  0  0  0  0
  9 18  1  0  0  0  0
  4 10  1  0  0  0  0
 11 14  1  0  0  0  0
  9 12  1  0  0  0  0
 10 13  2  0  0  0  0
 12 14  2  0  0  0  0
 13 15  1  0  0  0  0
  6 16  1  0  0  0  0
  6 17  1  0  0  0  0
 17 18  1  0  0  0  0
 16 19  1  0  0  0  0
 20 25  1  0  0  0  0
 10 21  1  0  0  0  0
  5 22  1  0  0  0  0
  5 23  1  0  0  0  0
  5 24  1  0  0  0  0
 21 25  2  0  0  0  0
  7 26  1  0  0  0  0
  8 27  1  0  0  0  0
 28 30  1  0  0  0  0
 12 29  1  0  0  0  0
 29 30  2  0  0  0  0
 15 31  1  0  0  0  0
 20 32  1  0  0  0  0
 33 34  1  0  0  0  0
 26 34  2  0  0  0  0
  3  4  2  0  0  0  0
  9 19  1  0  0  0  0
 27 33  2  0  0  0  0
 15 20  2  0  0  0  0
 11 28  2  0  0  0  0
M  END
> <MOLFORMULA>
C27 H25 F3 N4

> <MOLWEIGHT>
4.625165000000000e+002

> <IDNUMBER>
AT-687/SK06467

> <PRICE>
EUR 80/10 mg

> <Similarity score>
0.19

$$$$

  -OEChem-04222410502D

 31 34  0     0  0  0  0  0  0999 V2000
    6.3417   -5.2875    0.0000 C   0  0  0  0  0  0  0  0  0  0  0  0
    5.6250   -5.7042    0.0000 C   0  0  0  0  0  0  0  0  0  0  0  0
    6.3417   -4.4625    0.0000 N   0  0  3  0  0  0  0  0  0  0  0  0
    7.0667   -5.7042    0.0000 C   0  0  0  0  0  0  0  0  0  0  0  0
    6.3542   -1.9750    0.0000 C   0  0  0  0  0  0  0  0  0  0  0  0
    5.6167   -6.5417    0.0000 C   0  0  0  0  0  0  0  0  0  0  0  0
    6.3417   -6.9625    0.0000 N   0  0  0  0  0  0  0  0  0  0  0  0
    7.7875   -5.3000    0.0000 C   0  0  0  0  0  0  0  0  0  0  0  0
    8.5000   -4.8750    0.0000 N   0  0  0  0  0  0  0  0  0  0  0  0
    7.0667   -1.5625    0.0000 N   0  0  0  0  0  0  0  0  0  0  0  0
    4.9042   -5.3000    0.0000 C   0  0  0  0  0  0  0  0  0  0  0  0
    4.9042   -6.9625    0.0000 C   0  0  0  0  0  0  0  0  0  0  0  0
    7.0667   -6.5417    0.0000 C   0  0  0  0  0  0  0  0  0  0  0  0
    6.3542   -2.8042    0.0000 C   0  0  3  0  0  0  0  0  0  0  0  0
    7.0625   -4.0417    0.0000 C   0  0  0  0  0  0  0  0  0  0  0  0
    5.6292   -4.0417    0.0000 C   0  0  0  0  0  0  0  0  0  0  0  0
    5.6375   -1.5500    0.0000 O   0  0  0  0  0  0  0  0  0  0  0  0
    7.0667   -3.2167    0.0000 C   0  0  0  0  0  0  0  0  0  0  0  0
    5.6292   -3.2125    0.0000 C   0  0  0  0  0  0  0  0  0  0  0  0
    7.0542   -0.7375    0.0000 C   0  0  0  0  0  0  0  0  0  0  0  0
    4.1875   -6.5375    0.0000 C   0  0  0  0  0  0  0  0  0  0  0  0
    4.1875   -5.7125    0.0000 C   0  0  0  0  0  0  0  0  0  0  0  0
    7.0292    0.9083    0.0000 C   0  0  0  0  0  0  0  0  0  0  0  0
    6.3500   -0.3500    0.0000 C   0  0  0  0  0  0  0  0  0  0  0  0
    7.7667   -0.3292    0.0000 C   0  0  0  0  0  0  0  0  0  0  0  0
    6.3292    0.4708    0.0000 C   0  0  0  0  0  0  0  0  0  0  0  0
    7.7542    0.4958    0.0000 C   0  0  0  0  0  0  0  0  0  0  0  0
    3.4667   -6.9500    0.0000 O   0  0  0  0  0  0  0  0  0  0  0  0
    7.0167    1.7333    0.0000 C   0  0  0  0  0  0  0  0  0  0  0  0
    3.4667   -7.7750    0.0000 C   0  0  0  0  0  0  0  0  0  0  0  0
    7.7292    2.1583    0.0000 C   0  0  0  0  0  0  0  0  0  0  0  0
  1  2  1  0  0  0  0
  1  3  1  0  0  0  0
  1  4  2  0  0  0  0
  5 14  1  0  0  0  0
  2  6  1  0  0  0  0
  7 13  2  0  0  0  0
  4  8  1  0  0  0  0
  8  9  3  0  0  0  0
  5 10  1  0  0  0  0
  2 11  2  0  0  0  0
  6 12  2  0  0  0  0
  4 13  1  0  0  0  0
 14 19  1  0  0  0  0
  3 15  1  0  0  0  0
  3 16  1  0  0  0  0
  5 17  2  0  0  0  0
 15 18  1  0  0  0  0
 16 19  1  0  0  0  0
 10 20  1  0  0  0  0
 21 22  2  0  0  0  0
 11 22  1  0  0  0  0
 23 27  2  0  0  0  0
 20 24  1  0  0  0  0
 20 25  2  0  0  0  0
 24 26  2  0  0  0  0
 25 27  1  0  0  0  0
 21 28  1  0  0  0  0
 23 29  1  0  0  0  0
 28 30  1  0  0  0  0
 29 31  1  0  0  0  0
  6  7  1  0  0  0  0
 14 18  1  0  0  0  0
 12 21  1  0  0  0  0
 23 26  1  0  0  0  0
M  END
> <MOLFORMULA>
C25 H26 N4 O2

> <MOLWEIGHT>
4.145064000000000e+002

> <IDNUMBER>
AT-687/SK17414

> <PRICE>
EUR 80/10 mg

> <Similarity score>
0.19

$$$$

  -OEChem-04222410502D

 24 26  0     0  0  0  0  0  0999 V2000
    3.4542   -6.6500    0.0000 C   0  0  0  0  0  0  0  0  0  0  0  0
    4.5917   -5.9875    0.0000 C   0  0  0  0  0  0  0  0  0  0  0  0
    4.5917   -4.6625    0.0000 N   0  0  3  0  0  0  0  0  0  0  0  0
    5.7500   -6.6292    0.0000 C   0  0  0  0  0  0  0  0  0  0  0  0
    4.6042   -8.6500    0.0000 N   0  0  0  0  0  0  0  0  0  0  0  0
    6.9042   -5.9667    0.0000 C   0  0  0  0  0  0  0  0  0  0  0  0
    8.0542   -5.3000    0.0000 N   0  0  0  0  0  0  0  0  0  0  0  0
    3.4542   -7.9792    0.0000 C   0  0  0  0  0  0  0  0  0  0  0  0
    4.5792   -0.6667    0.0000 C   0  0  0  0  0  0  0  0  0  0  0  0
    2.3000   -5.9917    0.0000 C   0  0  0  0  0  0  0  0  0  0  0  0
    5.7625   -7.9750    0.0000 C   0  0  0  0  0  0  0  0  0  0  0  0
    4.5792   -1.9917    0.0000 C   0  0  3  0  0  0  0  0  0  0  0  0
    3.4417   -4.0083    0.0000 C   0  0  0  0  0  0  0  0  0  0  0  0
    5.7417   -3.9917    0.0000 C   0  0  0  0  0  0  0  0  0  0  0  0
    3.4417   -0.0042    0.0000 O   0  0  0  0  0  0  0  0  0  0  0  0
    3.4417   -2.6625    0.0000 C   0  0  0  0  0  0  0  0  0  0  0  0
    5.7417   -2.6625    0.0000 C   0  0  0  0  0  0  0  0  0  0  0  0
    2.3000   -8.6500    0.0000 C   0  0  0  0  0  0  0  0  0  0  0  0
    1.1500   -6.6500    0.0000 C   0  0  0  0  0  0  0  0  0  0  0  0
    5.7292   -0.0042    0.0000 O   0  0  0  0  0  0  0  0  0  0  0  0
    1.1500   -7.9792    0.0000 C   0  0  0  0  0  0  0  0  0  0  0  0
    6.8875   -0.6667    0.0000 C   0  0  0  0  0  0  0  0  0  0  0  0
    0.0000   -5.9917    0.0000 C   0  0  0  0  0  0  0  0  0  0  0  0
    8.0375   -0.0000    0.0000 C   0  0  0  0  0  0  0  0  0  0  0  0
  1  2  1  0  0  0  0
  2  3  1  0  0  0  0
  2  4  2  0  0  0  0
  5  8  1  0  0  0  0
  4  6  1  0  0  0  0
  6  7  3  0  0  0  0
  1  8  1  0  0  0  0
  9 12  1  0  0  0  0
  1 10  2  0  0  0  0
  5 11  2  0  0  0  0
 12 17  1  0  0  0  0
  3 13  1  0  0  0  0
  3 14  1  0  0  0  0
  9 15  2  0  0  0  0
 13 16  1  0  0  0  0
 14 17  1  0  0  0  0
  8 18  2  0  0  0  0
 10 19  1  0  0  0  0
  9 20  1  0  0  0  0
 19 21  2  0  0  0  0
 20 22  1  0  0  0  0
 19 23  1  0  0  0  0
 22 24  1  0  0  0  0
 18 21  1  0  0  0  0
  4 11  1  0  0  0  0
 12 16  1  0  0  0  0
M  END
> <MOLFORMULA>
C19 H21 N3 O2

> <MOLWEIGHT>
3.233939000000000e+002

> <IDNUMBER>
AT-687/NB05220

> <PRICE>
EUR 80/10 mg

> <Similarity score>
0.19

$$$$

  -OEChem-04222410502D

 25 28  0     0  0  0  0  0  0999 V2000
    6.6625   -3.0667    0.0000 N   0  0  0  0  0  0  0  0  0  0  0  0
    5.9500   -2.6542    0.0000 C   0  0  0  0  0  0  0  0  0  0  0  0
    7.3792   -2.6542    0.0000 C   0  0  0  0  0  0  0  0  0  0  0  0
    5.9500   -1.8250    0.0000 C   0  0  0  0  0  0  0  0  0  0  0  0
    5.2292   -3.0667    0.0000 N   0  0  3  0  0  0  0  0  0  0  0  0
   11.7250   -2.7792    0.0000 O   0  0  0  0  0  0  0  0  0  0  0  0
   10.9542   -3.8667    0.0000 C   0  0  0  0  0  0  0  0  0  0  0  0
   10.9417   -3.0417    0.0000 C   0  0  0  0  0  0  0  0  0  0  0  0
    7.3792   -1.8250    0.0000 N   0  0  0  0  0  0  0  0  0  0  0  0
    8.0917   -3.8917    0.0000 N   0  0  0  0  0  0  0  0  0  0  0  0
    6.6625   -1.4125    0.0000 C   0  0  0  0  0  0  0  0  0  0  0  0
   11.7417   -4.1167    0.0000 C   0  0  0  0  0  0  0  0  0  0  0  0
    8.0917   -3.0667    0.0000 N   0  0  0  0  0  0  0  0  0  0  0  0
   10.2417   -4.2875    0.0000 C   0  0  0  0  0  0  0  0  0  0  0  0
   12.2167   -3.4417    0.0000 C   0  0  3  0  0  0  0  0  0  0  0  0
   10.2167   -2.6375    0.0000 C   0  0  0  0  0  0  0  0  0  0  0  0
    5.2375   -1.4167    0.0000 F   0  0  0  0  0  0  0  0  0  0  0  0
    8.8125   -4.3000    0.0000 C   0  0  0  0  0  0  0  0  0  0  0  0
    9.5250   -3.8792    0.0000 C   0  0  0  0  0  0  0  0  0  0  0  0
    9.5125   -3.0542    0.0000 C   0  0  0  0  0  0  0  0  0  0  0  0
    4.4875   -2.7292    0.0000 C   0  0  0  0  0  0  0  0  0  0  0  0
    5.1542   -3.8875    0.0000 C   0  0  0  0  0  0  0  0  0  0  0  0
   13.0417   -3.4292    0.0000 C   0  0  0  0  0  0  0  0  0  0  0  0
    3.9292   -3.3417    0.0000 C   0  0  0  0  0  0  0  0  0  0  0  0
    4.3417   -4.0542    0.0000 C   0  0  0  0  0  0  0  0  0  0  0  0
  1  2  1  0  0  0  0
  1  3  2  0  0  0  0
  2  4  2  0  0  0  0
  2  5  1  0  0  0  0
  6  8  1  0  0  0  0
  7 14  1  0  0  0  0
  8 16  1  0  0  0  0
  3  9  1  0  0  0  0
 10 13  1  0  0  0  0
  9 11  2  0  0  0  0
  7 12  1  0  0  0  0
  3 13  1  0  0  0  0
 14 19  2  0  0  0  0
 12 15  1  0  0  0  0
 16 20  2  0  0  0  0
  4 17  1  0  0  0  0
 10 18  2  0  0  0  0
 18 19  1  0  0  0  0
 19 20  1  0  0  0  0
  5 21  1  0  0  0  0
  5 22  1  0  0  0  0
 15 23  1  0  0  0  0
 21 24  1  0  0  0  0
 22 25  1  0  0  0  0
  4 11  1  0  0  0  0
 24 25  1  0  0  0  0
  7  8  2  0  0  0  0
  6 15  1  0  0  0  0
M  END
> <MOLFORMULA>
C18 H20 F N5 O

> <MOLWEIGHT>
3.413880000000000e+002

> <IDNUMBER>
AT-138/QI01024

> <CHIRALFLAG>
-

> <PRICE>
EUR 125.00/10 mg

> <Similarity score>
0.19

$$$$

  -OEChem-04222410502D

 25 29  0     0  0  0  0  0  0999 V2000
    5.3375   -5.5167    0.0000 C   0  0  0  0  0  0  0  0  0  0  0  0
    5.6250   -4.2042    0.0000 N   0  0  0  0  0  0  0  0  0  0  0  0
    4.6167   -5.1000    0.0000 C   0  0  0  0  0  0  0  0  0  0  0  0
    5.9542   -4.9667    0.0000 C   0  0  0  0  0  0  0  0  0  0  0  0
    4.8000   -4.2875    0.0000 N   0  0  0  0  0  0  0  0  0  0  0  0
    3.9042   -5.5167    0.0000 C   0  0  0  0  0  0  0  0  0  0  0  0
    3.9000   -6.3542    0.0000 C   0  0  0  0  0  0  0  0  0  0  0  0
    4.6167   -6.7667    0.0000 N   0  0  0  0  0  0  0  0  0  0  0  0
    3.1875   -5.1042    0.0000 C   0  0  0  0  0  0  0  0  0  0  0  0
    6.7625   -5.1417    0.0000 C   0  0  0  0  0  0  0  0  0  0  0  0
    5.3417   -6.3542    0.0000 C   0  0  0  0  0  0  0  0  0  0  0  0
    3.1875   -6.7625    0.0000 C   0  0  0  0  0  0  0  0  0  0  0  0
    2.4750   -5.5250    0.0000 C   0  0  0  0  0  0  0  0  0  0  0  0
    2.4750   -6.3500    0.0000 C   0  0  0  0  0  0  0  0  0  0  0  0
    7.3167   -4.5375    0.0000 C   0  0  0  0  0  0  0  0  0  0  0  0
    8.1167   -4.7042    0.0000 C   0  0  0  0  0  0  0  0  0  0  0  0
    1.7625   -5.1042    0.0000 O   0  0  0  0  0  0  0  0  0  0  0  0
    1.7625   -6.7625    0.0000 O   0  0  0  0  0  0  0  0  0  0  0  0
    8.3750   -5.5000    0.0000 C   0  0  0  0  0  0  0  0  0  0  0  0
    7.0125   -5.9292    0.0000 C   0  0  0  0  0  0  0  0  0  0  0  0
    7.8167   -6.1042    0.0000 C   0  0  0  0  0  0  0  0  0  0  0  0
    8.6750   -4.0917    0.0000 C   0  0  0  0  0  0  0  0  0  0  0  0
    1.0417   -5.5167    0.0000 C   0  0  0  0  0  0  0  0  0  0  0  0
    1.0417   -6.3417    0.0000 C   0  0  0  0  0  0  0  0  0  0  0  0
    9.1792   -5.6750    0.0000 C   0  0  0  0  0  0  0  0  0  0  0  0
  2  4  2  0  0  0  0
  1  3  2  0  0  0  0
  1  4  1  0  0  0  0
  3  5  1  0  0  0  0
  3  6  1  0  0  0  0
  7  8  1  0  0  0  0
  8 11  2  0  0  0  0
  6  9  2  0  0  0  0
  4 10  1  0  0  0  0
  1 11  1  0  0  0  0
  7 12  2  0  0  0  0
  9 13  1  0  0  0  0
 12 14  1  0  0  0  0
 10 15  1  0  0  0  0
 15 16  2  0  0  0  0
 13 17  1  0  0  0  0
 14 18  1  0  0  0  0
 19 21  2  0  0  0  0
 10 20  2  0  0  0  0
 20 21  1  0  0  0  0
 16 22  1  0  0  0  0
 17 23  1  0  0  0  0
 18 24  1  0  0  0  0
 19 25  1  0  0  0  0
  2  5  1  0  0  0  0
  6  7  1  0  0  0  0
 13 14  2  0  0  0  0
 16 19  1  0  0  0  0
 23 24  1  0  0  0  0
M  END
> <MOLFORMULA>
C20 H17 N3 O2

> <MOLWEIGHT>
3.313733000000000e+002

> <IDNUMBER>
AT-687/SK17479

> <PRICE>
EUR 80/10 mg

> <Similarity score>
0.19

$$$$

  -OEChem-04222410502D

 27 30  0     0  0  0  0  0  0999 V2000
   -0.5000   -2.1625    0.0000 N   0  0  0  0  0  0  0  0  0  0  0  0
    0.4958   -2.1625    0.0000 C   0  0  0  0  0  0  0  0  0  0  0  0
    1.0000   -1.2958    0.0000 N   0  0  0  0  0  0  0  0  0  0  0  0
    0.4958   -0.4292    0.0000 C   0  0  0  0  0  0  0  0  0  0  0  0
   -1.0000   -1.2958    0.0000 C   0  0  0  0  0  0  0  0  0  0  0  0
   -0.5000   -0.4292    0.0000 C   0  0  0  0  0  0  0  0  0  0  0  0
    1.0000   -3.0292    0.0000 N   0  0  3  0  0  0  0  0  0  0  0  0
   -1.0000    0.4333    0.0000 C   0  0  0  0  0  0  0  0  0  0  0  0
   -0.5000    1.3000    0.0000 C   0  0  0  0  0  0  0  0  0  0  0  0
   -2.0000   -1.2958    0.0000 N   0  0  0  0  0  0  0  0  0  0  0  0
   -1.0000    2.1667    0.0000 C   0  0  0  0  0  0  0  0  0  0  0  0
   -0.5000    3.0333    0.0000 C   0  0  0  0  0  0  0  0  0  0  0  0
    1.0000    0.4333    0.0000 O   0  0  0  0  0  0  0  0  0  0  0  0
    0.4958    3.0333    0.0000 C   0  0  0  0  0  0  0  0  0  0  0  0
    0.4958    1.3000    0.0000 C   0  0  0  0  0  0  0  0  0  0  0  0
    1.0000    2.1667    0.0000 C   0  0  0  0  0  0  0  0  0  0  0  0
   -2.5000   -0.4292    0.0000 C   0  0  0  0  0  0  0  0  0  0  0  0
   -1.0000    3.9000    0.0000 O   0  0  0  0  0  0  0  0  0  0  0  0
   -2.0000    0.4333    0.0000 C   0  0  0  0  0  0  0  0  0  0  0  0
    1.0000    3.9000    0.0000 O   0  0  0  0  0  0  0  0  0  0  0  0
    0.4958   -3.8958    0.0000 C   0  0  0  0  0  0  0  0  0  0  0  0
    2.0000   -3.0292    0.0000 C   0  0  0  0  0  0  0  0  0  0  0  0
   -0.5000    4.7625    0.0000 C   0  0  0  0  0  0  0  0  0  0  0  0
    2.0000    3.9000    0.0000 C   0  0  0  0  0  0  0  0  0  0  0  0
    2.4958   -3.8958    0.0000 C   0  0  0  0  0  0  0  0  0  0  0  0
    1.0000   -4.7625    0.0000 C   0  0  0  0  0  0  0  0  0  0  0  0
    2.0000   -4.7625    0.0000 C   0  0  0  0  0  0  0  0  0  0  0  0
  1  2  2  0  0  0  0
  2  3  1  0  0  0  0
  4  6  1  0  0  0  0
  1  5  1  0  0  0  0
  5  6  2  0  0  0  0
  2  7  1  0  0  0  0
  6  8  1  0  0  0  0
  8  9  1  0  0  0  0
  5 10  1  0  0  0  0
  9 11  1  0  0  0  0
 11 12  2  0  0  0  0
  4 13  2  0  0  0  0
 14 16  2  0  0  0  0
  9 15  2  0  0  0  0
 15 16  1  0  0  0  0
 10 17  2  0  0  0  0
 12 18  1  0  0  0  0
 17 19  1  0  0  0  0
 14 20  1  0  0  0  0
  7 21  1  0  0  0  0
  7 22  1  0  0  0  0
 18 23  1  0  0  0  0
 20 24  1  0  0  0  0
 22 25  1  0  0  0  0
 21 26  1  0  0  0  0
 25 27  1  0  0  0  0
  3  4  1  0  0  0  0
  8 19  2  0  0  0  0
 26 27  1  0  0  0  0
 12 14  1  0  0  0  0
M  END
> <MOLFORMULA>
C20 H22 N4 O3

> <MOLWEIGHT>
3.664188000000000e+002

> <IDNUMBER>
AN-153/J107083

> <PRICE>
EUR 130/10 mg

> <Similarity score>
0.19

$$$$

  -OEChem-04222410502D

 30 34  0     0  0  0  0  0  0999 V2000
    3.3917   -4.5750    0.0000 C   0  0  0  0  0  0  0  0  0  0  0  0
    3.3667   -5.9042    0.0000 C   0  0  0  0  0  0  0  0  0  0  0  0
    5.6792   -4.6000    0.0000 C   0  0  0  0  0  0  0  0  0  0  0  0
    4.5250   -3.9250    0.0000 N   0  0  0  0  0  0  0  0  0  0  0  0
    2.1250   -4.1667    0.0000 C   0  0  0  0  0  0  0  0  0  0  0  0
    5.6667   -5.9292    0.0000 N   0  0  0  0  0  0  0  0  0  0  0  0
    4.5167   -6.5917    0.0000 C   0  0  0  0  0  0  0  0  0  0  0  0
    2.1042   -6.3167    0.0000 S   0  0  0  0  0  0  0  0  0  0  0  0
    1.3417   -5.2417    0.0000 C   0  0  0  0  0  0  0  0  0  0  0  0
    6.8500   -3.9500    0.0000 N   0  0  3  0  0  0  0  0  0  0  0  0
    9.1667   -2.6417    0.0000 N   0  0  3  0  0  0  0  0  0  0  0  0
    1.7167   -2.9042    0.0000 C   0  0  0  0  0  0  0  0  0  0  0  0
   10.3250   -2.0042    0.0000 C   0  0  0  0  0  0  0  0  0  0  0  0
    4.4917   -7.9250    0.0000 O   0  0  0  0  0  0  0  0  0  0  0  0
    7.9917   -4.6167    0.0000 C   0  0  0  0  0  0  0  0  0  0  0  0
    6.8542   -2.6167    0.0000 C   0  0  0  0  0  0  0  0  0  0  0  0
    8.0167   -1.9750    0.0000 C   0  0  0  0  0  0  0  0  0  0  0  0
    9.1417   -3.9792    0.0000 C   0  0  0  0  0  0  0  0  0  0  0  0
    2.6167   -1.9292    0.0000 C   0  0  0  0  0  0  0  0  0  0  0  0
   10.3417   -0.6667    0.0000 C   0  0  0  0  0  0  0  0  0  0  0  0
    3.9042   -2.2167    0.0000 F   0  0  0  0  0  0  0  0  0  0  0  0
    9.2000   -0.0000    0.0000 F   0  0  0  0  0  0  0  0  0  0  0  0
    0.3917   -2.6167    0.0000 C   0  0  0  0  0  0  0  0  0  0  0  0
   11.4792   -2.6667    0.0000 C   0  0  0  0  0  0  0  0  0  0  0  0
    2.1917   -0.6667    0.0000 C   0  0  0  0  0  0  0  0  0  0  0  0
   11.5000   -0.0250    0.0000 C   0  0  0  0  0  0  0  0  0  0  0  0
    0.0000   -1.3667    0.0000 C   0  0  0  0  0  0  0  0  0  0  0  0
   12.6417   -2.0292    0.0000 C   0  0  0  0  0  0  0  0  0  0  0  0
   12.6667   -0.6917    0.0000 C   0  0  0  0  0  0  0  0  0  0  0  0
    0.9000   -0.3750    0.0000 C   0  0  0  0  0  0  0  0  0  0  0  0
  1  2  2  0  0  0  0
  3  4  2  0  0  0  0
  1  4  1  0  0  0  0
  1  5  1  0  0  0  0
  3  6  1  0  0  0  0
  2  7  1  0  0  0  0
  2  8  1  0  0  0  0
  5  9  2  0  0  0  0
  3 10  1  0  0  0  0
 11 17  1  0  0  0  0
  5 12  1  0  0  0  0
 11 13  1  0  0  0  0
  7 14  2  0  0  0  0
 10 15  1  0  0  0  0
 10 16  1  0  0  0  0
 16 17  1  0  0  0  0
 15 18  1  0  0  0  0
 12 19  2  0  0  0  0
 13 20  2  0  0  0  0
 19 21  1  0  0  0  0
 20 22  1  0  0  0  0
 12 23  1  0  0  0  0
 13 24  1  0  0  0  0
 19 25  1  0  0  0  0
 20 26  1  0  0  0  0
 23 27  2  0  0  0  0
 24 28  2  0  0  0  0
 28 29  1  0  0  0  0
 27 30  1  0  0  0  0
  8  9  1  0  0  0  0
  6  7  1  0  0  0  0
 25 30  2  0  0  0  0
 11 18  1  0  0  0  0
 26 29  2  0  0  0  0
M  END
> <MOLFORMULA>
C22 H18 F2 N4 O S

> <MOLWEIGHT>
4.244732000000000e+002

> <IDNUMBER>
AT-687/PE25858

> <PRICE>
EUR 80/10 mg

> <Similarity score>
0.19

$$$$

  -OEChem-04222410502D

 24 26  0     0  0  0  0  0  0999 V2000
    3.3250   -2.1875    0.0000 C   0  0  0  0  0  0  0  0  0  0  0  0
    4.0292   -1.7667    0.0000 C   0  0  0  0  0  0  0  0  0  0  0  0
    4.0292   -0.9417    0.0000 N   0  0  3  0  0  0  0  0  0  0  0  0
    4.7500   -2.1792    0.0000 C   0  0  0  0  0  0  0  0  0  0  0  0
    4.0417   -3.4250    0.0000 N   0  0  0  0  0  0  0  0  0  0  0  0
    5.4542   -1.7625    0.0000 C   0  0  0  0  0  0  0  0  0  0  0  0
    6.1667   -1.3417    0.0000 N   0  0  0  0  0  0  0  0  0  0  0  0
    3.3250   -3.0125    0.0000 C   0  0  0  0  0  0  0  0  0  0  0  0
    4.0250    1.5333    0.0000 C   0  0  0  0  0  0  0  0  0  0  0  0
    2.6042   -1.7750    0.0000 C   0  0  0  0  0  0  0  0  0  0  0  0
    4.7542   -3.0042    0.0000 C   0  0  0  0  0  0  0  0  0  0  0  0
    4.0292    0.7000    0.0000 C   0  0  3  0  0  0  0  0  0  0  0  0
    3.3167   -0.5417    0.0000 C   0  0  0  0  0  0  0  0  0  0  0  0
    4.7417   -0.5292    0.0000 C   0  0  0  0  0  0  0  0  0  0  0  0
    3.3125    1.9375    0.0000 O   0  0  0  0  0  0  0  0  0  0  0  0
    3.3167    0.2833    0.0000 C   0  0  0  0  0  0  0  0  0  0  0  0
    4.7417    0.2875    0.0000 C   0  0  0  0  0  0  0  0  0  0  0  0
    2.6042   -3.4292    0.0000 C   0  0  0  0  0  0  0  0  0  0  0  0
    1.8917   -2.1875    0.0000 C   0  0  0  0  0  0  0  0  0  0  0  0
    4.7417    1.9458    0.0000 O   0  0  0  0  0  0  0  0  0  0  0  0
    1.8917   -3.0167    0.0000 C   0  0  0  0  0  0  0  0  0  0  0  0
    1.1792   -1.7792    0.0000 Cl  0  0  0  0  0  0  0  0  0  0  0  0
    5.4542    1.5333    0.0000 C   0  0  0  0  0  0  0  0  0  0  0  0
    6.1667    1.9458    0.0000 C   0  0  0  0  0  0  0  0  0  0  0  0
  1  2  1  0  0  0  0
  2  3  1  0  0  0  0
  2  4  2  0  0  0  0
  5  8  1  0  0  0  0
  4  6  1  0  0  0  0
  6  7  3  0  0  0  0
  1  8  1  0  0  0  0
  9 12  1  0  0  0  0
  1 10  2  0  0  0  0
  5 11  2  0  0  0  0
 12 17  1  0  0  0  0
  3 13  1  0  0  0  0
  3 14  1  0  0  0  0
  9 15  2  0  0  0  0
 13 16  1  0  0  0  0
 14 17  1  0  0  0  0
  8 18  2  0  0  0  0
 10 19  1  0  0  0  0
  9 20  1  0  0  0  0
 19 21  2  0  0  0  0
 19 22  1  0  0  0  0
 20 23  1  0  0  0  0
 23 24  1  0  0  0  0
 18 21  1  0  0  0  0
  4 11  1  0  0  0  0
 12 16  1  0  0  0  0
M  END
> <MOLFORMULA>
C18 H18 Cl N3 O2

> <MOLWEIGHT>
3.438122000000000e+002

> <IDNUMBER>
AT-687/SK17905

> <PRICE>
EUR 80/10 mg

> <Similarity score>
0.19

$$$$

  -OEChem-04222410502D

 32 35  0     0  0  0  0  0  0999 V2000
    4.6042   -6.6292    0.0000 S   0  0  3  0  0  0  0  0  0  0  0  0
    5.7417   -7.3000    0.0000 C   0  0  0  0  0  0  0  0  0  0  0  0
    6.9042   -1.3167    0.0000 S   0  0  3  0  0  0  0  0  0  0  0  0
    6.9042   -6.6292    0.0000 C   0  0  0  0  0  0  0  0  0  0  0  0
    8.0542   -7.3000    0.0000 C   0  0  0  0  0  0  0  0  0  0  0  0
    3.4542   -5.9750    0.0000 C   0  0  0  0  0  0  0  0  0  0  0  0
    6.9042   -2.6417    0.0000 N   0  0  3  0  0  0  0  0  0  0  0  0
    6.9042   -5.3042    0.0000 N   0  0  3  0  0  0  0  0  0  0  0  0
    5.7417   -8.6292    0.0000 C   0  0  0  0  0  0  0  0  0  0  0  0
    6.9042   -9.2917    0.0000 N   0  0  0  0  0  0  0  0  0  0  0  0
    2.3000   -6.6292    0.0000 C   0  0  0  0  0  0  0  0  0  0  0  0
    3.4542   -4.6375    0.0000 C   0  0  0  0  0  0  0  0  0  0  0  0
    8.0542   -8.6250    0.0000 C   0  0  0  0  0  0  0  0  0  0  0  0
    5.2625   -5.4917    0.0000 O   0  0  0  0  0  0  0  0  0  0  0  0
    3.9375   -7.7917    0.0000 O   0  0  0  0  0  0  0  0  0  0  0  0
    8.0542   -3.3125    0.0000 C   0  0  0  0  0  0  0  0  0  0  0  0
    5.7417   -3.3125    0.0000 C   0  0  0  0  0  0  0  0  0  0  0  0
    5.5667   -1.3167    0.0000 O   0  0  0  0  0  0  0  0  0  0  0  0
    8.2292   -1.3167    0.0000 O   0  0  0  0  0  0  0  0  0  0  0  0
    9.2000   -6.6292    0.0000 C   0  0  0  0  0  0  0  0  0  0  0  0
    5.7417   -4.6375    0.0000 C   0  0  0  0  0  0  0  0  0  0  0  0
    8.0542   -4.6375    0.0000 C   0  0  0  0  0  0  0  0  0  0  0  0
    1.1500   -5.9750    0.0000 C   0  0  0  0  0  0  0  0  0  0  0  0
    2.3000   -3.9792    0.0000 C   0  0  0  0  0  0  0  0  0  0  0  0
    1.1500   -4.6375    0.0000 C   0  0  0  0  0  0  0  0  0  0  0  0
    9.2000   -9.2917    0.0000 C   0  0  0  0  0  0  0  0  0  0  0  0
    6.9042   -0.0000    0.0000 C   0  0  0  0  0  0  0  0  0  0  0  0
   10.3625   -7.3000    0.0000 C   0  0  0  0  0  0  0  0  0  0  0  0
    0.0000   -6.6417    0.0000 F   0  0  0  0  0  0  0  0  0  0  0  0
    2.3000   -2.6417    0.0000 F   0  0  0  0  0  0  0  0  0  0  0  0
   10.3625   -8.6250    0.0000 C   0  0  0  0  0  0  0  0  0  0  0  0
   11.5125   -6.6292    0.0000 F   0  0  0  0  0  0  0  0  0  0  0  0
  1  2  1  0  0  0  0
  3  7  1  0  0  0  0
  2  4  2  0  0  0  0
  4  5  1  0  0  0  0
  1  6  1  0  0  0  0
  7 16  1  0  0  0  0
  4  8  1  0  0  0  0
  2  9  1  0  0  0  0
  9 10  2  0  0  0  0
  6 11  2  0  0  0  0
  6 12  1  0  0  0  0
 10 13  1  0  0  0  0
  1 14  2  0  0  0  0
  1 15  2  0  0  0  0
 16 22  1  0  0  0  0
 17 21  1  0  0  0  0
  3 18  2  0  0  0  0
  3 19  2  0  0  0  0
  5 20  2  0  0  0  0
  8 21  1  0  0  0  0
  8 22  1  0  0  0  0
 11 23  1  0  0  0  0
 12 24  2  0  0  0  0
 24 25  1  0  0  0  0
 13 26  2  0  0  0  0
  3 27  1  0  0  0  0
 20 28  1  0  0  0  0
 23 29  1  0  0  0  0
 24 30  1  0  0  0  0
 26 31  1  0  0  0  0
 28 32  1  0  0  0  0
 23 25  2  0  0  0  0
  5 13  1  0  0  0  0
  7 17  1  0  0  0  0
 28 31  2  0  0  0  0
M  END
> <MOLFORMULA>
C20 H18 F3 N3 O4 S2

> <MOLWEIGHT>
4.855052000000000e+002

> <IDNUMBER>
AT-687/NB06807

> <PRICE>
EUR 80/10 mg

> <Similarity score>
0.19

$$$$

  -OEChem-04222410502D

 34 38  0     0  0  0  0  0  0999 V2000
   -0.3042    0.1917    0.0000 C   0  0  0  0  0  0  0  0  0  0  0  0
    0.3208    1.8083    0.0000 C   0  0  0  0  0  0  0  0  0  0  0  0
   -0.4583    1.1792    0.0000 N   0  0  0  0  0  0  0  0  0  0  0  0
   -0.9333   -1.4208    0.0000 C   0  0  0  0  0  0  0  0  0  0  0  0
    0.6250   -0.1708    0.0000 N   0  0  0  0  0  0  0  0  0  0  0  0
   -0.1333    4.7667    0.0000 C   0  0  0  0  0  0  0  0  0  0  0  0
    1.2542    1.4458    0.0000 C   0  0  0  0  0  0  0  0  0  0  0  0
    0.1708    2.7958    0.0000 C   0  0  0  0  0  0  0  0  0  0  0  0
    0.8000    4.4042    0.0000 N   0  0  0  0  0  0  0  0  0  0  0  0
   -1.0875   -0.4333    0.0000 N   0  0  0  0  0  0  0  0  0  0  0  0
    1.4083    0.4542    0.0000 C   0  0  0  0  0  0  0  0  0  0  0  0
   -1.7125   -2.0458    0.0000 N   0  0  0  0  0  0  0  0  0  0  0  0
   -0.0042   -1.7833    0.0000 N   0  0  0  0  0  0  0  0  0  0  0  0
   -0.6292   -3.4000    0.0000 C   0  0  0  0  0  0  0  0  0  0  0  0
   -0.9125    4.1417    0.0000 N   0  0  0  0  0  0  0  0  0  0  0  0
    0.9500    3.4208    0.0000 C   0  0  0  0  0  0  0  0  0  0  0  0
   -0.2833    5.7542    0.0000 N   0  0  3  0  0  0  0  0  0  0  0  0
   -1.5625   -3.0375    0.0000 C   0  0  0  0  0  0  0  0  0  0  0  0
    0.1500   -2.7708    0.0000 C   0  0  0  0  0  0  0  0  0  0  0  0
   -0.7625    3.1583    0.0000 C   0  0  0  0  0  0  0  0  0  0  0  0
   -0.4792   -4.3875    0.0000 C   0  0  0  0  0  0  0  0  0  0  0  0
    2.3375    0.0917    0.0000 O   0  0  0  0  0  0  0  0  0  0  0  0
    1.0833   -3.1333    0.0000 C   0  0  0  0  0  0  0  0  0  0  0  0
    0.4542   -4.7500    0.0000 C   0  0  0  0  0  0  0  0  0  0  0  0
    1.2333   -4.1250    0.0000 C   0  0  0  0  0  0  0  0  0  0  0  0
    0.4250    6.4583    0.0000 C   0  0  0  0  0  0  0  0  0  0  0  0
   -1.1750    6.2125    0.0000 C   0  0  0  0  0  0  0  0  0  0  0  0
    0.6042   -5.7375    0.0000 O   0  0  0  0  0  0  0  0  0  0  0  0
    1.8833    3.0583    0.0000 C   0  0  0  0  0  0  0  0  0  0  0  0
   -2.3417   -3.6625    0.0000 C   0  0  0  0  0  0  0  0  0  0  0  0
   -0.1750   -6.3625    0.0000 C   0  0  0  0  0  0  0  0  0  0  0  0
   -0.0250    7.3542    0.0000 C   0  0  0  0  0  0  0  0  0  0  0  0
   -1.0125    7.2000    0.0000 C   0  0  0  0  0  0  0  0  0  0  0  0
   -0.0250   -7.3542    0.0000 C   0  0  0  0  0  0  0  0  0  0  0  0
  2  3  1  0  0  0  0
  1  3  2  0  0  0  0
  4 10  1  0  0  0  0
  1  5  1  0  0  0  0
  6 15  2  0  0  0  0
  7 11  1  0  0  0  0
  2  8  1  0  0  0  0
  9 16  2  0  0  0  0
  1 10  1  0  0  0  0
  5 11  1  0  0  0  0
  4 12  1  0  0  0  0
  4 13  2  0  0  0  0
 14 19  1  0  0  0  0
 15 20  1  0  0  0  0
  8 16  1  0  0  0  0
  6 17  1  0  0  0  0
 12 18  2  0  0  0  0
 13 19  1  0  0  0  0
  8 20  2  0  0  0  0
 14 21  2  0  0  0  0
 11 22  2  0  0  0  0
 19 23  2  0  0  0  0
 24 25  2  0  0  0  0
 23 25  1  0  0  0  0
 17 26  1  0  0  0  0
 17 27  1  0  0  0  0
 24 28  1  0  0  0  0
 16 29  1  0  0  0  0
 18 30  1  0  0  0  0
 28 31  1  0  0  0  0
 26 32  1  0  0  0  0
 27 33  1  0  0  0  0
 31 34  1  0  0  0  0
  2  7  2  0  0  0  0
 14 18  1  0  0  0  0
  6  9  1  0  0  0  0
 21 24  1  0  0  0  0
 32 33  1  0  0  0  0
M  END
> <MOLFORMULA>
C24 H26 N8 O2

> <MOLWEIGHT>
4.585234000000000e+002

> <IDNUMBER>
AN-153/NB22781

> <PRICE>
EUR 130/10 mg

> <Similarity score>
0.19

$$$$

  -OEChem-04222410502D

 29 32  0     0  0  0  0  0  0999 V2000
    0.4292   -0.2500    0.0000 S   0  0  3  0  0  0  0  0  0  0  0  0
   -0.4333    0.2500    0.0000 C   0  0  0  0  0  0  0  0  0  0  0  0
   -0.4333    1.2583    0.0000 C   0  0  0  0  0  0  0  0  0  0  0  0
   -1.3000    1.7583    0.0000 C   0  0  0  0  0  0  0  0  0  0  0  0
   -2.1708    0.2500    0.0000 N   0  0  0  0  0  0  0  0  0  0  0  0
    1.2917   -0.7500    0.0000 C   0  0  0  0  0  0  0  0  0  0  0  0
   -2.1708    1.2583    0.0000 C   0  0  0  0  0  0  0  0  0  0  0  0
   -1.3000   -0.2500    0.0000 C   0  0  0  0  0  0  0  0  0  0  0  0
    1.2917   -1.7500    0.0000 C   0  0  0  0  0  0  0  0  0  0  0  0
    2.1625   -2.2500    0.0000 C   0  0  0  0  0  0  0  0  0  0  0  0
    0.9292    0.6208    0.0000 O   0  0  0  0  0  0  0  0  0  0  0  0
   -0.0708   -1.1125    0.0000 O   0  0  0  0  0  0  0  0  0  0  0  0
    0.4292    1.7583    0.0000 C   0  0  0  0  0  0  0  0  0  0  0  0
    3.0292   -1.7500    0.0000 C   0  0  0  0  0  0  0  0  0  0  0  0
   -3.0333    1.7583    0.0000 C   0  0  0  0  0  0  0  0  0  0  0  0
    2.1625   -0.2500    0.0000 C   0  0  0  0  0  0  0  0  0  0  0  0
    3.0292   -0.7500    0.0000 C   0  0  0  0  0  0  0  0  0  0  0  0
    0.4292    2.7500    0.0000 C   0  0  0  0  0  0  0  0  0  0  0  0
    1.2917    1.2583    0.0000 C   0  0  0  0  0  0  0  0  0  0  0  0
    2.1625   -3.2500    0.0000 F   0  0  0  0  0  0  0  0  0  0  0  0
    2.1625    2.7500    0.0000 C   0  0  0  0  0  0  0  0  0  0  0  0
    3.8917   -2.2500    0.0000 F   0  0  0  0  0  0  0  0  0  0  0  0
   -3.9000    1.2500    0.0000 F   0  0  0  0  0  0  0  0  0  0  0  0
   -1.3000    2.7500    0.0000 C   0  0  0  0  0  0  0  0  0  0  0  0
    2.1625    1.7583    0.0000 C   0  0  0  0  0  0  0  0  0  0  0  0
    1.2917    3.2500    0.0000 C   0  0  0  0  0  0  0  0  0  0  0  0
    3.0292    3.2500    0.0000 Cl  0  0  0  0  0  0  0  0  0  0  0  0
   -2.1708    3.2500    0.0000 C   0  0  0  0  0  0  0  0  0  0  0  0
   -3.0333    2.7500    0.0000 C   0  0  0  0  0  0  0  0  0  0  0  0
  1  2  1  0  0  0  0
  2  3  2  0  0  0  0
  3  4  1  0  0  0  0
  5  8  2  0  0  0  0
  1  6  1  0  0  0  0
  5  7  1  0  0  0  0
  2  8  1  0  0  0  0
  6  9  1  0  0  0  0
  9 10  2  0  0  0  0
  1 11  2  0  0  0  0
  1 12  2  0  0  0  0
  3 13  1  0  0  0  0
 14 17  2  0  0  0  0
  7 15  1  0  0  0  0
  6 16  2  0  0  0  0
 16 17  1  0  0  0  0
 13 18  2  0  0  0  0
 13 19  1  0  0  0  0
 10 20  1  0  0  0  0
 21 25  1  0  0  0  0
 14 22  1  0  0  0  0
 15 23  1  0  0  0  0
  4 24  1  0  0  0  0
 19 25  2  0  0  0  0
 18 26  1  0  0  0  0
 21 27  1  0  0  0  0
 24 28  2  0  0  0  0
 15 29  2  0  0  0  0
 10 14  1  0  0  0  0
  4  7  2  0  0  0  0
 21 26  2  0  0  0  0
 28 29  1  0  0  0  0
M  END
> <MOLFORMULA>
C21 H11 Cl F3 N O2 S

> <MOLWEIGHT>
4.338359000000000e+002

> <IDNUMBER>
AT-687/PE13104

> <PRICE>
EUR 80/10 mg

> <Similarity score>
0.19

$$$$

  -OEChem-04222410502D

 30 34  0     0  0  0  0  0  0999 V2000
   -2.2208   -0.8000    0.0000 C   0  0  0  0  0  0  0  0  0  0  0  0
   -2.2333   -1.7917    0.0000 C   0  0  0  0  0  0  0  0  0  0  0  0
   -0.4958   -0.8125    0.0000 C   0  0  0  0  0  0  0  0  0  0  0  0
   -1.3583   -0.3000    0.0000 N   0  0  0  0  0  0  0  0  0  0  0  0
   -0.5000   -1.8125    0.0000 N   0  0  0  0  0  0  0  0  0  0  0  0
   -1.3708   -2.3125    0.0000 C   0  0  0  0  0  0  0  0  0  0  0  0
   -3.1750   -0.4792    0.0000 C   0  0  0  0  0  0  0  0  0  0  0  0
   -3.1833   -2.1000    0.0000 S   0  0  0  0  0  0  0  0  0  0  0  0
   -3.7625   -1.2917    0.0000 C   0  0  0  0  0  0  0  0  0  0  0  0
    0.3792   -0.3250    0.0000 N   0  0  3  0  0  0  0  0  0  0  0  0
    2.1250    0.6625    0.0000 N   0  0  3  0  0  0  0  0  0  0  0  0
    3.0042    1.1458    0.0000 C   0  0  0  0  0  0  0  0  0  0  0  0
   -3.4750    0.4625    0.0000 C   0  0  0  0  0  0  0  0  0  0  0  0
   -1.3875   -3.3125    0.0000 O   0  0  0  0  0  0  0  0  0  0  0  0
    0.3917    0.6833    0.0000 C   0  0  0  0  0  0  0  0  0  0  0  0
    1.2417   -0.8292    0.0000 C   0  0  0  0  0  0  0  0  0  0  0  0
    1.2625    1.1583    0.0000 C   0  0  0  0  0  0  0  0  0  0  0  0
    2.1042   -0.3417    0.0000 C   0  0  0  0  0  0  0  0  0  0  0  0
    3.0125    2.1458    0.0000 C   0  0  0  0  0  0  0  0  0  0  0  0
   -4.4708    0.6833    0.0000 C   0  0  0  0  0  0  0  0  0  0  0  0
   -2.8000    1.1958    0.0000 C   0  0  0  0  0  0  0  0  0  0  0  0
   -4.0833    2.3625    0.0000 C   0  0  0  0  0  0  0  0  0  0  0  0
    2.1500    2.6583    0.0000 F   0  0  0  0  0  0  0  0  0  0  0  0
   -3.1125    2.1500    0.0000 C   0  0  0  0  0  0  0  0  0  0  0  0
   -4.7708    1.6208    0.0000 C   0  0  0  0  0  0  0  0  0  0  0  0
   -4.3833    3.3208    0.0000 F   0  0  0  0  0  0  0  0  0  0  0  0
    3.8667    0.6458    0.0000 C   0  0  0  0  0  0  0  0  0  0  0  0
    3.8792    2.6333    0.0000 C   0  0  0  0  0  0  0  0  0  0  0  0
    4.7375    1.1208    0.0000 C   0  0  0  0  0  0  0  0  0  0  0  0
    4.7542    2.1250    0.0000 C   0  0  0  0  0  0  0  0  0  0  0  0
  1  2  2  0  0  0  0
  3  4  2  0  0  0  0
  1  4  1  0  0  0  0
  3  5  1  0  0  0  0
  2  6  1  0  0  0  0
  1  7  1  0  0  0  0
  2  8  1  0  0  0  0
  7  9  2  0  0  0  0
  3 10  1  0  0  0  0
 11 18  1  0  0  0  0
 11 12  1  0  0  0  0
  7 13  1  0  0  0  0
  6 14  2  0  0  0  0
 10 15  1  0  0  0  0
 10 16  1  0  0  0  0
 15 17  1  0  0  0  0
 16 18  1  0  0  0  0
 12 19  1  0  0  0  0
 13 20  2  0  0  0  0
 13 21  1  0  0  0  0
 22 24  1  0  0  0  0
 19 23  1  0  0  0  0
 21 24  2  0  0  0  0
 20 25  1  0  0  0  0
 22 26  1  0  0  0  0
 12 27  2  0  0  0  0
 19 28  2  0  0  0  0
 27 29  1  0  0  0  0
 29 30  2  0  0  0  0
  8  9  1  0  0  0  0
  5  6  1  0  0  0  0
 22 25  2  0  0  0  0
 11 17  1  0  0  0  0
 28 30  1  0  0  0  0
M  END
> <MOLFORMULA>
C22 H18 F2 N4 O S

> <MOLWEIGHT>
4.244732000000000e+002

> <IDNUMBER>
AT-687/PE25870

> <PRICE>
EUR 80/10 mg

> <Similarity score>
0.19

$$$$

  -OEChem-04222410502D

 25 28  0     0  0  0  0  0  0999 V2000
   -1.5375   -0.8542    0.0000 N   0  0  0  0  0  0  0  0  0  0  0  0
   -0.5833   -1.1583    0.0000 C   0  0  0  0  0  0  0  0  0  0  0  0
    0.1583   -0.4875    0.0000 N   0  0  0  0  0  0  0  0  0  0  0  0
   -0.0542    0.4917    0.0000 C   0  0  0  0  0  0  0  0  0  0  0  0
   -1.7458    0.1250    0.0000 C   0  0  0  0  0  0  0  0  0  0  0  0
   -1.0083    0.7958    0.0000 C   0  0  0  0  0  0  0  0  0  0  0  0
   -0.3708   -2.1375    0.0000 N   0  0  3  0  0  0  0  0  0  0  0  0
   -1.2167    1.7750    0.0000 C   0  0  0  0  0  0  0  0  0  0  0  0
   -0.4792    2.4458    0.0000 C   0  0  0  0  0  0  0  0  0  0  0  0
   -2.7000    0.4292    0.0000 N   0  0  0  0  0  0  0  0  0  0  0  0
    0.6875    1.1625    0.0000 O   0  0  0  0  0  0  0  0  0  0  0  0
    0.4750    2.1417    0.0000 C   0  0  0  0  0  0  0  0  0  0  0  0
    0.0500   -4.0917    0.0000 O   0  0  0  0  0  0  0  0  0  0  0  0
    1.2167    2.8125    0.0000 C   0  0  0  0  0  0  0  0  0  0  0  0
   -2.9125    1.4083    0.0000 C   0  0  0  0  0  0  0  0  0  0  0  0
   -2.1708    2.0792    0.0000 C   0  0  0  0  0  0  0  0  0  0  0  0
   -1.1125   -2.8083    0.0000 C   0  0  0  0  0  0  0  0  0  0  0  0
    0.5792   -2.4417    0.0000 C   0  0  0  0  0  0  0  0  0  0  0  0
   -0.6917    3.4208    0.0000 C   0  0  0  0  0  0  0  0  0  0  0  0
    2.1667    2.5083    0.0000 O   0  0  0  0  0  0  0  0  0  0  0  0
    0.0500    4.0917    0.0000 C   0  0  0  0  0  0  0  0  0  0  0  0
   -0.9000   -3.7833    0.0000 C   0  0  0  0  0  0  0  0  0  0  0  0
    0.7917   -3.4167    0.0000 C   0  0  0  0  0  0  0  0  0  0  0  0
    1.0042    3.7875    0.0000 C   0  0  0  0  0  0  0  0  0  0  0  0
    2.9083    3.1792    0.0000 C   0  0  0  0  0  0  0  0  0  0  0  0
  1  2  2  0  0  0  0
  2  3  1  0  0  0  0
  4  6  1  0  0  0  0
  1  5  1  0  0  0  0
  5  6  2  0  0  0  0
  2  7  1  0  0  0  0
  6  8  1  0  0  0  0
  8  9  1  0  0  0  0
  5 10  1  0  0  0  0
  4 11  2  0  0  0  0
  9 12  2  0  0  0  0
 13 23  1  0  0  0  0
 12 14  1  0  0  0  0
 10 15  2  0  0  0  0
 15 16  1  0  0  0  0
  7 17  1  0  0  0  0
  7 18  1  0  0  0  0
  9 19  1  0  0  0  0
 14 20  1  0  0  0  0
 19 21  2  0  0  0  0
 17 22  1  0  0  0  0
 18 23  1  0  0  0  0
 21 24  1  0  0  0  0
 20 25  1  0  0  0  0
  3  4  1  0  0  0  0
  8 16  2  0  0  0  0
 13 22  1  0  0  0  0
 14 24  2  0  0  0  0
M  END
> <MOLFORMULA>
C18 H18 N4 O3

> <MOLWEIGHT>
3.383652000000000e+002

> <IDNUMBER>
AN-153/J102308

> <PRICE>
EUR 130/10 mg

> <Similarity score>
0.19

$$$$

  -OEChem-04222410502D

 22 24  0     0  0  0  0  0  0999 V2000
    0.3750   -3.8042    0.0000 C   0  0  0  0  0  0  0  0  0  0  0  0
    1.0750   -3.3917    0.0000 C   0  0  0  0  0  0  0  0  0  0  0  0
    1.0750   -2.5750    0.0000 N   0  0  3  0  0  0  0  0  0  0  0  0
    1.8000   -3.8000    0.0000 C   0  0  0  0  0  0  0  0  0  0  0  0
    1.0917   -5.0500    0.0000 N   0  0  0  0  0  0  0  0  0  0  0  0
    2.5000   -3.3792    0.0000 C   0  0  0  0  0  0  0  0  0  0  0  0
    3.2250   -2.9667    0.0000 N   0  0  0  0  0  0  0  0  0  0  0  0
    1.0750   -0.0917    0.0000 C   0  0  0  0  0  0  0  0  0  0  0  0
    0.3750   -4.6292    0.0000 C   0  0  0  0  0  0  0  0  0  0  0  0
   -0.3500   -3.4000    0.0000 C   0  0  0  0  0  0  0  0  0  0  0  0
    1.8000   -4.6250    0.0000 C   0  0  0  0  0  0  0  0  0  0  0  0
    1.0750   -0.9250    0.0000 C   0  0  3  0  0  0  0  0  0  0  0  0
    1.7917   -2.1500    0.0000 C   0  0  0  0  0  0  0  0  0  0  0  0
    0.3667   -2.1667    0.0000 C   0  0  0  0  0  0  0  0  0  0  0  0
    0.3542    0.3125    0.0000 O   0  0  0  0  0  0  0  0  0  0  0  0
    0.3667   -1.3417    0.0000 C   0  0  0  0  0  0  0  0  0  0  0  0
    1.7917   -1.3292    0.0000 C   0  0  0  0  0  0  0  0  0  0  0  0
   -0.3500   -5.0500    0.0000 C   0  0  0  0  0  0  0  0  0  0  0  0
   -1.0583   -3.8042    0.0000 C   0  0  0  0  0  0  0  0  0  0  0  0
    1.7917    0.3250    0.0000 O   0  0  0  0  0  0  0  0  0  0  0  0
   -1.0583   -4.6417    0.0000 C   0  0  0  0  0  0  0  0  0  0  0  0
   -1.7833   -3.4000    0.0000 C   0  0  0  0  0  0  0  0  0  0  0  0
  1  2  2  0  0  0  0
  2  3  1  0  0  0  0
  2  4  1  0  0  0  0
  5  9  2  0  0  0  0
  4  6  1  0  0  0  0
  6  7  3  0  0  0  0
  8 12  1  0  0  0  0
  1  9  1  0  0  0  0
  1 10  1  0  0  0  0
  5 11  1  0  0  0  0
 12 16  1  0  0  0  0
  3 13  1  0  0  0  0
  3 14  1  0  0  0  0
  8 15  2  0  0  0  0
 14 16  1  0  0  0  0
 13 17  1  0  0  0  0
  9 18  1  0  0  0  0
 10 19  2  0  0  0  0
  8 20  1  0  0  0  0
 19 21  1  0  0  0  0
 19 22  1  0  0  0  0
 18 21  2  0  0  0  0
  4 11  2  0  0  0  0
 12 17  1  0  0  0  0
M  END
> <MOLFORMULA>
C17 H17 N3 O2

> <MOLWEIGHT>
2.953403000000000e+002

> <IDNUMBER>
AT-687/PE35213

> <PRICE>
EUR 80/10 mg

> <Similarity score>
0.19

$$$$

  -OEChem-04222410502D

 22 24  0     0  0  0  0  0  0999 V2000
    5.2542   -8.7000    0.0000 C   0  0  0  0  0  0  0  0  0  0  0  0
    5.9667   -8.2917    0.0000 C   0  0  0  0  0  0  0  0  0  0  0  0
    5.9667   -7.4667    0.0000 N   0  0  3  0  0  0  0  0  0  0  0  0
    6.6792   -8.7000    0.0000 C   0  0  0  0  0  0  0  0  0  0  0  0
    5.9750   -9.9417    0.0000 N   0  0  0  0  0  0  0  0  0  0  0  0
    7.4000   -8.2750    0.0000 C   0  0  0  0  0  0  0  0  0  0  0  0
    8.1042   -7.8667    0.0000 N   0  0  0  0  0  0  0  0  0  0  0  0
    5.9542   -4.9917    0.0000 C   0  0  0  0  0  0  0  0  0  0  0  0
    5.2542   -9.5250    0.0000 C   0  0  0  0  0  0  0  0  0  0  0  0
    4.5417   -8.2917    0.0000 C   0  0  0  0  0  0  0  0  0  0  0  0
    6.6917   -9.5250    0.0000 C   0  0  0  0  0  0  0  0  0  0  0  0
    5.9667   -5.8167    0.0000 C   0  0  3  0  0  0  0  0  0  0  0  0
    6.6750   -7.0500    0.0000 C   0  0  0  0  0  0  0  0  0  0  0  0
    5.2500   -7.0542    0.0000 C   0  0  0  0  0  0  0  0  0  0  0  0
    5.2500   -4.5750    0.0000 O   0  0  0  0  0  0  0  0  0  0  0  0
    5.2500   -6.2292    0.0000 C   0  0  0  0  0  0  0  0  0  0  0  0
    6.6750   -6.2250    0.0000 C   0  0  0  0  0  0  0  0  0  0  0  0
    4.5417   -9.9500    0.0000 C   0  0  0  0  0  0  0  0  0  0  0  0
    3.8250   -8.7042    0.0000 C   0  0  0  0  0  0  0  0  0  0  0  0
    6.6750   -4.5750    0.0000 O   0  0  0  0  0  0  0  0  0  0  0  0
    3.8250   -9.5292    0.0000 C   0  0  0  0  0  0  0  0  0  0  0  0
    3.1167   -8.2917    0.0000 Cl  0  0  0  0  0  0  0  0  0  0  0  0
  1  2  2  0  0  0  0
  2  3  1  0  0  0  0
  2  4  1  0  0  0  0
  5  9  2  0  0  0  0
  4  6  1  0  0  0  0
  6  7  3  0  0  0  0
  8 12  1  0  0  0  0
  1  9  1  0  0  0  0
  1 10  1  0  0  0  0
  5 11  1  0  0  0  0
 12 16  1  0  0  0  0
  3 13  1  0  0  0  0
  3 14  1  0  0  0  0
  8 15  2  0  0  0  0
 14 16  1  0  0  0  0
 13 17  1  0  0  0  0
  9 18  1  0  0  0  0
 10 19  2  0  0  0  0
  8 20  1  0  0  0  0
 19 21  1  0  0  0  0
 19 22  1  0  0  0  0
 18 21  2  0  0  0  0
  4 11  2  0  0  0  0
 12 17  1  0  0  0  0
M  END
> <MOLFORMULA>
C16 H14 Cl N3 O2

> <MOLWEIGHT>
3.157586000000000e+002

> <IDNUMBER>
AT-687/PE27527

> <PRICE>
EUR 80/10 mg

> <Similarity score>
0.19

$$$$

  -OEChem-04222410502D

 34 38  0     0  0  0  0  0  0999 V2000
   -0.2458   -0.4958    0.0000 C   0  0  0  0  0  0  0  0  0  0  0  0
    0.4292    1.1000    0.0000 C   0  0  0  0  0  0  0  0  0  0  0  0
   -0.3708    0.5000    0.0000 N   0  0  0  0  0  0  0  0  0  0  0  0
   -0.9250   -2.0875    0.0000 C   0  0  0  0  0  0  0  0  0  0  0  0
    0.6750   -0.8833    0.0000 N   0  0  0  0  0  0  0  0  0  0  0  0
    0.0583    4.0750    0.0000 C   0  0  0  0  0  0  0  0  0  0  0  0
    1.3500    0.7125    0.0000 C   0  0  0  0  0  0  0  0  0  0  0  0
    0.3042    2.0917    0.0000 C   0  0  0  0  0  0  0  0  0  0  0  0
    0.9792    3.6875    0.0000 N   0  0  0  0  0  0  0  0  0  0  0  0
   -1.0458   -1.0958    0.0000 N   0  0  0  0  0  0  0  0  0  0  0  0
    1.4708   -0.2792    0.0000 C   0  0  0  0  0  0  0  0  0  0  0  0
   -1.7208   -2.6917    0.0000 N   0  0  0  0  0  0  0  0  0  0  0  0
   -0.0042   -2.4792    0.0000 N   0  0  0  0  0  0  0  0  0  0  0  0
   -0.6792   -4.0750    0.0000 C   0  0  0  0  0  0  0  0  0  0  0  0
   -0.7375    3.4750    0.0000 N   0  0  0  0  0  0  0  0  0  0  0  0
    1.1042    2.6958    0.0000 C   0  0  0  0  0  0  0  0  0  0  0  0
   -0.0625    5.0667    0.0000 N   0  0  3  0  0  0  0  0  0  0  0  0
   -1.6000   -3.6833    0.0000 C   0  0  0  0  0  0  0  0  0  0  0  0
    0.1208   -3.4708    0.0000 C   0  0  0  0  0  0  0  0  0  0  0  0
   -0.6167    2.4833    0.0000 C   0  0  0  0  0  0  0  0  0  0  0  0
   -0.5542   -5.0667    0.0000 C   0  0  0  0  0  0  0  0  0  0  0  0
    2.3917   -0.6708    0.0000 O   0  0  0  0  0  0  0  0  0  0  0  0
    1.0417   -3.8625    0.0000 C   0  0  0  0  0  0  0  0  0  0  0  0
   -0.3083    7.0500    0.0000 O   0  0  0  0  0  0  0  0  0  0  0  0
    0.3667   -5.4583    0.0000 C   0  0  0  0  0  0  0  0  0  0  0  0
    1.1625   -4.8542    0.0000 C   0  0  0  0  0  0  0  0  0  0  0  0
   -0.9833    5.4583    0.0000 C   0  0  0  0  0  0  0  0  0  0  0  0
    0.7333    5.6708    0.0000 C   0  0  0  0  0  0  0  0  0  0  0  0
    0.4875   -6.4500    0.0000 O   0  0  0  0  0  0  0  0  0  0  0  0
    2.0250    2.3042    0.0000 C   0  0  0  0  0  0  0  0  0  0  0  0
   -2.3958   -4.2875    0.0000 C   0  0  0  0  0  0  0  0  0  0  0  0
   -1.1083    6.4500    0.0000 C   0  0  0  0  0  0  0  0  0  0  0  0
    0.6125    6.6625    0.0000 C   0  0  0  0  0  0  0  0  0  0  0  0
   -0.3083   -7.0500    0.0000 C   0  0  0  0  0  0  0  0  0  0  0  0
  2  3  1  0  0  0  0
  1  3  2  0  0  0  0
  4 10  1  0  0  0  0
  1  5  1  0  0  0  0
  6 15  2  0  0  0  0
  7 11  1  0  0  0  0
  2  8  1  0  0  0  0
  9 16  2  0  0  0  0
  1 10  1  0  0  0  0
  5 11  1  0  0  0  0
  4 12  1  0  0  0  0
  4 13  2  0  0  0  0
 14 19  2  0  0  0  0
 15 20  1  0  0  0  0
  8 16  1  0  0  0  0
  6 17  1  0  0  0  0
 12 18  2  0  0  0  0
 13 19  1  0  0  0  0
  8 20  2  0  0  0  0
 14 21  1  0  0  0  0
 11 22  2  0  0  0  0
 19 23  1  0  0  0  0
 24 32  1  0  0  0  0
 25 26  1  0  0  0  0
 23 26  2  0  0  0  0
 17 27  1  0  0  0  0
 17 28  1  0  0  0  0
 25 29  1  0  0  0  0
 16 30  1  0  0  0  0
 18 31  1  0  0  0  0
 27 32  1  0  0  0  0
 28 33  1  0  0  0  0
 29 34  1  0  0  0  0
  2  7  2  0  0  0  0
 14 18  1  0  0  0  0
  6  9  1  0  0  0  0
 21 25  2  0  0  0  0
 24 33  1  0  0  0  0
M  END
> <MOLFORMULA>
C23 H24 N8 O3

> <MOLWEIGHT>
4.604956000000000e+002

> <IDNUMBER>
AN-153/NB22717

> <PRICE>
EUR 130/10 mg

> <Similarity score>
0.19

$$$$

  -OEChem-04222410502D

 31 35  0     0  0  0  0  0  0999 V2000
    4.6500   -4.5750    0.0000 C   0  0  0  0  0  0  0  0  0  0  0  0
    4.6417   -5.9000    0.0000 C   0  0  0  0  0  0  0  0  0  0  0  0
    6.9542   -4.5917    0.0000 C   0  0  0  0  0  0  0  0  0  0  0  0
    5.8167   -3.9167    0.0000 N   0  0  0  0  0  0  0  0  0  0  0  0
    6.9417   -5.9292    0.0000 N   0  0  0  0  0  0  0  0  0  0  0  0
    3.3792   -4.1500    0.0000 C   0  0  0  0  0  0  0  0  0  0  0  0
    5.7792   -6.6000    0.0000 C   0  0  0  0  0  0  0  0  0  0  0  0
    3.3792   -6.3042    0.0000 S   0  0  0  0  0  0  0  0  0  0  0  0
    2.6000   -5.2250    0.0000 C   0  0  0  0  0  0  0  0  0  0  0  0
    8.1167   -3.9417    0.0000 N   0  0  3  0  0  0  0  0  0  0  0  0
   10.4250   -2.6292    0.0000 N   0  0  3  0  0  0  0  0  0  0  0  0
   11.6000   -2.0000    0.0000 C   0  0  0  0  0  0  0  0  0  0  0  0
    2.9750   -2.9000    0.0000 C   0  0  0  0  0  0  0  0  0  0  0  0
   12.7500   -2.6667    0.0000 C   0  0  0  0  0  0  0  0  0  0  0  0
    5.7667   -7.9250    0.0000 O   0  0  0  0  0  0  0  0  0  0  0  0
    8.1292   -2.6167    0.0000 C   0  0  0  0  0  0  0  0  0  0  0  0
    9.2667   -4.6250    0.0000 C   0  0  0  0  0  0  0  0  0  0  0  0
   11.6167   -0.6542    0.0000 C   0  0  0  0  0  0  0  0  0  0  0  0
   10.4042   -3.9750    0.0000 C   0  0  0  0  0  0  0  0  0  0  0  0
    9.2750   -1.9667    0.0000 C   0  0  0  0  0  0  0  0  0  0  0  0
    1.6667   -2.6167    0.0000 C   0  0  0  0  0  0  0  0  0  0  0  0
   12.7750   -0.0042    0.0000 C   0  0  0  0  0  0  0  0  0  0  0  0
   13.9250   -2.0250    0.0000 C   0  0  0  0  0  0  0  0  0  0  0  0
    1.2750   -1.3500    0.0000 C   0  0  0  0  0  0  0  0  0  0  0  0
   13.9417   -0.6917    0.0000 C   0  0  0  0  0  0  0  0  0  0  0  0
   15.0667   -2.6917    0.0000 Cl  0  0  0  0  0  0  0  0  0  0  0  0
    0.0000   -1.0667    0.0000 F   0  0  0  0  0  0  0  0  0  0  0  0
    3.8792   -1.9250    0.0000 C   0  0  0  0  0  0  0  0  0  0  0  0
    3.4667   -0.6542    0.0000 C   0  0  0  0  0  0  0  0  0  0  0  0
   10.4750   -0.0000    0.0000 C   0  0  0  0  0  0  0  0  0  0  0  0
    2.1667   -0.3750    0.0000 C   0  0  0  0  0  0  0  0  0  0  0  0
  1  2  2  0  0  0  0
  3  4  2  0  0  0  0
  1  4  1  0  0  0  0
  3  5  1  0  0  0  0
  1  6  1  0  0  0  0
  2  7  1  0  0  0  0
  2  8  1  0  0  0  0
  6  9  2  0  0  0  0
  3 10  1  0  0  0  0
 11 19  1  0  0  0  0
 11 12  1  0  0  0  0
  6 13  1  0  0  0  0
 12 14  2  0  0  0  0
  7 15  2  0  0  0  0
 10 16  1  0  0  0  0
 10 17  1  0  0  0  0
 12 18  1  0  0  0  0
 17 19  1  0  0  0  0
 16 20  1  0  0  0  0
 13 21  2  0  0  0  0
 18 22  2  0  0  0  0
 14 23  1  0  0  0  0
 21 24  1  0  0  0  0
 22 25  1  0  0  0  0
 23 26  1  0  0  0  0
 24 27  1  0  0  0  0
 13 28  1  0  0  0  0
 28 29  2  0  0  0  0
 18 30  1  0  0  0  0
 29 31  1  0  0  0  0
  8  9  1  0  0  0  0
  5  7  1  0  0  0  0
 24 31  2  0  0  0  0
 11 20  1  0  0  0  0
 23 25  2  0  0  0  0
M  END
> <MOLFORMULA>
C23 H20 Cl F N4 O S

> <MOLWEIGHT>
4.549550000000000e+002

> <IDNUMBER>
AT-687/PE25864

> <PRICE>
EUR 80/10 mg

> <Similarity score>
0.19

$$$$

  -OEChem-04222410502D

 27 31  0     0  0  0  0  0  0999 V2000
   10.0000   -0.2500    0.0000 C   0  0  0  0  0  0  0  0  0  0  0  0
    9.3500    0.1250    0.0000 C   0  0  0  0  0  0  0  0  0  0  0  0
    8.0500    0.8833    0.0000 C   0  0  0  0  0  0  0  0  0  0  0  0
    8.0500    0.1250    0.0000 C   0  0  0  0  0  0  0  0  0  0  0  0
    7.3917    1.2583    0.0000 C   0  0  0  0  0  0  0  0  0  0  0  0
    8.6917   -0.2500    0.0000 N   0  0  0  0  0  0  0  0  0  0  0  0
    9.3500    0.8833    0.0000 N   0  0  0  0  0  0  0  0  0  0  0  0
    8.6917    1.2583    0.0000 C   0  0  0  0  0  0  0  0  0  0  0  0
   10.6458    0.1250    0.0000 C   0  0  0  0  0  0  0  0  0  0  0  0
   10.0000   -1.0000    0.0000 C   0  0  0  0  0  0  0  0  0  0  0  0
    6.7417    0.8833    0.0000 O   0  0  0  0  0  0  0  0  0  0  0  0
    7.3917   -0.2500    0.0000 C   0  0  0  0  0  0  0  0  0  0  0  0
   11.3000   -0.2500    0.0000 O   0  0  0  0  0  0  0  0  0  0  0  0
    6.7417    0.1250    0.0000 C   0  0  0  0  0  0  0  0  0  0  0  0
   10.6458   -1.3750    0.0000 C   0  0  0  0  0  0  0  0  0  0  0  0
   11.3000   -1.0000    0.0000 C   0  0  0  0  0  0  0  0  0  0  0  0
    7.3917    2.0083    0.0000 O   0  0  0  0  0  0  0  0  0  0  0  0
   10.6458    0.8750    0.0000 O   0  0  0  0  0  0  0  0  0  0  0  0
    8.6917    2.0083    0.0000 N   0  0  0  0  0  0  0  0  0  0  0  0
    7.3917   -1.0042    0.0000 C   0  0  0  0  0  0  0  0  0  0  0  0
    6.0875   -0.2500    0.0000 C   0  0  0  0  0  0  0  0  0  0  0  0
   10.6417   -2.1250    0.0000 C   0  0  0  0  0  0  0  0  0  0  0  0
   11.9417   -1.3750    0.0000 C   0  0  0  0  0  0  0  0  0  0  0  0
    6.7417   -1.3792    0.0000 C   0  0  0  0  0  0  0  0  0  0  0  0
    6.0875   -1.0042    0.0000 C   0  0  0  0  0  0  0  0  0  0  0  0
   11.9417   -2.1250    0.0000 C   0  0  0  0  0  0  0  0  0  0  0  0
   11.2917   -2.5000    0.0000 C   0  0  0  0  0  0  0  0  0  0  0  0
  1  2  1  0  0  0  0
  3  8  2  0  0  0  0
  4  6  2  0  0  0  0
  3  5  1  0  0  0  0
  2  6  1  0  0  0  0
  2  7  2  0  0  0  0
  7  8  1  0  0  0  0
  1  9  1  0  0  0  0
  1 10  2  0  0  0  0
  5 11  1  0  0  0  0
  4 12  1  0  0  0  0
  9 13  1  0  0  0  0
 12 14  2  0  0  0  0
 10 15  1  0  0  0  0
 15 16  2  0  0  0  0
  5 17  2  0  0  0  0
  9 18  2  0  0  0  0
  8 19  1  0  0  0  0
 12 20  1  0  0  0  0
 14 21  1  0  0  0  0
 15 22  1  0  0  0  0
 16 23  1  0  0  0  0
 20 24  2  0  0  0  0
 24 25  1  0  0  0  0
 26 27  1  0  0  0  0
 22 27  2  0  0  0  0
 13 16  1  0  0  0  0
  3  4  1  0  0  0  0
 23 26  2  0  0  0  0
 11 14  1  0  0  0  0
 21 25  2  0  0  0  0
M  END
> <MOLFORMULA>
C20 H11 N3 O4

> <MOLWEIGHT>
3.573239000000000e+002

> <IDNUMBER>
AT-225/NB31025

> <PRICE>
EUR 140/10 mg

> <Similarity score>
0.19

$$$$

  -OEChem-04222410502D

 26 29  0     0  0  0  0  0  0999 V2000
    0.5250   -1.7750    0.0000 N   0  0  0  0  0  0  0  0  0  0  0  0
   -0.4417   -2.0292    0.0000 C   0  0  0  0  0  0  0  0  0  0  0  0
   -1.1458   -1.3167    0.0000 N   0  0  0  0  0  0  0  0  0  0  0  0
   -0.8833   -0.3542    0.0000 C   0  0  0  0  0  0  0  0  0  0  0  0
    0.7875   -0.8083    0.0000 C   0  0  0  0  0  0  0  0  0  0  0  0
    0.0875   -0.1000    0.0000 C   0  0  0  0  0  0  0  0  0  0  0  0
   -0.5292    4.2125    0.0000 N   0  3  0  0  0  0  0  0  0  0  0  0
   -0.7042   -2.9917    0.0000 N   0  0  3  0  0  0  0  0  0  0  0  0
    0.3500    0.8667    0.0000 C   0  0  0  0  0  0  0  0  0  0  0  0
   -0.3542    1.5750    0.0000 C   0  0  0  0  0  0  0  0  0  0  0  0
   -0.7917    3.2500    0.0000 C   0  0  0  0  0  0  0  0  0  0  0  0
    1.7583   -0.5583    0.0000 N   0  0  0  0  0  0  0  0  0  0  0  0
   -0.0917    2.5417    0.0000 C   0  0  0  0  0  0  0  0  0  0  0  0
   -1.2333    4.9208    0.0000 O   0  5  0  0  0  0  0  0  0  0  0  0
   -1.5833    0.3583    0.0000 O   0  0  0  0  0  0  0  0  0  0  0  0
    0.4375    4.4667    0.0000 O   0  0  0  0  0  0  0  0  0  0  0  0
   -1.2333   -4.9208    0.0000 O   0  0  0  0  0  0  0  0  0  0  0  0
    2.0208    0.4083    0.0000 C   0  0  0  0  0  0  0  0  0  0  0  0
    1.3167    1.1208    0.0000 C   0  0  0  0  0  0  0  0  0  0  0  0
   -0.0042   -3.7042    0.0000 C   0  0  0  0  0  0  0  0  0  0  0  0
   -1.6708   -3.2458    0.0000 C   0  0  0  0  0  0  0  0  0  0  0  0
   -1.3208    1.3208    0.0000 C   0  0  0  0  0  0  0  0  0  0  0  0
   -1.7625    2.9958    0.0000 C   0  0  0  0  0  0  0  0  0  0  0  0
   -2.0250    2.0333    0.0000 C   0  0  0  0  0  0  0  0  0  0  0  0
   -1.9375   -4.2125    0.0000 C   0  0  0  0  0  0  0  0  0  0  0  0
   -0.2667   -4.6667    0.0000 C   0  0  0  0  0  0  0  0  0  0  0  0
  1  2  2  0  0  0  0
  2  3  1  0  0  0  0
  4  6  1  0  0  0  0
  1  5  1  0  0  0  0
  5  6  2  0  0  0  0
  7 11  1  0  0  0  0
  2  8  1  0  0  0  0
  6  9  1  0  0  0  0
  9 10  1  0  0  0  0
 11 13  1  0  0  0  0
  5 12  1  0  0  0  0
 10 13  2  0  0  0  0
  7 14  1  0  0  0  0
  4 15  2  0  0  0  0
  7 16  2  0  0  0  0
 17 25  1  0  0  0  0
 12 18  2  0  0  0  0
 18 19  1  0  0  0  0
  8 20  1  0  0  0  0
  8 21  1  0  0  0  0
 10 22  1  0  0  0  0
 23 24  1  0  0  0  0
 22 24  2  0  0  0  0
 21 25  1  0  0  0  0
 20 26  1  0  0  0  0
  3  4  1  0  0  0  0
  9 19  2  0  0  0  0
 17 26  1  0  0  0  0
 11 23  2  0  0  0  0
M  CHG  2   7   1  14  -1
M  END
> <MOLFORMULA>
C17 H15 N5 O4

> <MOLWEIGHT>
3.533365000000000e+002

> <IDNUMBER>
AN-153/J103477

> <PRICE>
EUR 130/10 mg

> <Similarity score>
0.19

$$$$

  -OEChem-04222410502D

 35 39  0     0  0  0  0  0  0999 V2000
   -0.2333    0.0042    0.0000 C   0  0  0  0  0  0  0  0  0  0  0  0
    0.4583    1.5917    0.0000 C   0  0  0  0  0  0  0  0  0  0  0  0
   -0.3458    0.9958    0.0000 N   0  0  0  0  0  0  0  0  0  0  0  0
   -0.9208   -1.5875    0.0000 C   0  0  0  0  0  0  0  0  0  0  0  0
    0.6875   -0.3958    0.0000 N   0  0  0  0  0  0  0  0  0  0  0  0
    0.1125    4.5667    0.0000 C   0  0  0  0  0  0  0  0  0  0  0  0
    1.3750    1.1958    0.0000 C   0  0  0  0  0  0  0  0  0  0  0  0
    0.3417    2.5833    0.0000 C   0  0  0  0  0  0  0  0  0  0  0  0
    1.0292    4.1708    0.0000 N   0  0  0  0  0  0  0  0  0  0  0  0
   -1.0333   -0.5958    0.0000 N   0  0  0  0  0  0  0  0  0  0  0  0
    1.4875    0.2000    0.0000 C   0  0  0  0  0  0  0  0  0  0  0  0
    0.0000   -1.9833    0.0000 N   0  0  0  0  0  0  0  0  0  0  0  0
   -1.7208   -2.1833    0.0000 N   0  0  0  0  0  0  0  0  0  0  0  0
   -0.6917   -3.5750    0.0000 C   0  0  0  0  0  0  0  0  0  0  0  0
   -0.6917    3.9750    0.0000 N   0  0  0  0  0  0  0  0  0  0  0  0
    1.1458    3.1792    0.0000 C   0  0  0  0  0  0  0  0  0  0  0  0
    0.0000    5.5625    0.0000 N   0  0  3  0  0  0  0  0  0  0  0  0
    0.1125   -2.9792    0.0000 C   0  0  0  0  0  0  0  0  0  0  0  0
   -1.6083   -3.1750    0.0000 C   0  0  0  0  0  0  0  0  0  0  0  0
   -0.5750    2.9833    0.0000 C   0  0  0  0  0  0  0  0  0  0  0  0
   -0.5750   -4.5667    0.0000 C   0  0  0  0  0  0  0  0  0  0  0  0
    2.4083   -0.1958    0.0000 O   0  0  0  0  0  0  0  0  0  0  0  0
   -2.4125   -3.7750    0.0000 C   0  0  0  0  0  0  0  0  0  0  0  0
   -1.3792   -5.1625    0.0000 C   0  0  0  0  0  0  0  0  0  0  0  0
   -2.2958   -4.7667    0.0000 C   0  0  0  0  0  0  0  0  0  0  0  0
    0.8000    6.1583    0.0000 C   0  0  0  0  0  0  0  0  0  0  0  0
   -0.9208    5.9583    0.0000 C   0  0  0  0  0  0  0  0  0  0  0  0
   -1.2625   -6.1583    0.0000 O   0  0  0  0  0  0  0  0  0  0  0  0
    2.0625    2.7833    0.0000 C   0  0  0  0  0  0  0  0  0  0  0  0
    1.0292   -3.3750    0.0000 C   0  0  0  0  0  0  0  0  0  0  0  0
   -0.3458   -6.5542    0.0000 C   0  0  0  0  0  0  0  0  0  0  0  0
   -1.0333    6.9500    0.0000 C   0  0  0  0  0  0  0  0  0  0  0  0
    0.6875    7.1500    0.0000 C   0  0  0  0  0  0  0  0  0  0  0  0
   -0.2333   -7.5458    0.0000 C   0  0  0  0  0  0  0  0  0  0  0  0
   -0.2333    7.5458    0.0000 C   0  0  0  0  0  0  0  0  0  0  0  0
  2  3  1  0  0  0  0
  1  3  2  0  0  0  0
  4 10  1  0  0  0  0
  1  5  1  0  0  0  0
  6 15  2  0  0  0  0
  7 11  1  0  0  0  0
  2  8  1  0  0  0  0
  9 16  2  0  0  0  0
  1 10  1  0  0  0  0
  5 11  1  0  0  0  0
  4 12  1  0  0  0  0
  4 13  2  0  0  0  0
 14 19  2  0  0  0  0
 15 20  1  0  0  0  0
  8 16  1  0  0  0  0
  6 17  1  0  0  0  0
 12 18  2  0  0  0  0
 13 19  1  0  0  0  0
  8 20  2  0  0  0  0
 14 21  1  0  0  0  0
 11 22  2  0  0  0  0
 19 23  1  0  0  0  0
 24 25  1  0  0  0  0
 23 25  2  0  0  0  0
 17 26  1  0  0  0  0
 17 27  1  0  0  0  0
 24 28  1  0  0  0  0
 16 29  1  0  0  0  0
 18 30  1  0  0  0  0
 28 31  1  0  0  0  0
 27 32  1  0  0  0  0
 26 33  1  0  0  0  0
 31 34  1  0  0  0  0
 33 35  1  0  0  0  0
  2  7  2  0  0  0  0
 14 18  1  0  0  0  0
  6  9  1  0  0  0  0
 21 24  2  0  0  0  0
 32 35  1  0  0  0  0
M  END
> <MOLFORMULA>
C25 H28 N8 O2

> <MOLWEIGHT>
4.725502000000000e+002

> <IDNUMBER>
AN-153/NB22740

> <PRICE>
EUR 130/10 mg

> <Similarity score>
0.19

$$$$

  -OEChem-04222410502D

 24 27  0     0  0  0  0  0  0999 V2000
    0.8708    1.6208    0.0000 N   0  0  0  0  0  0  0  0  0  0  0  0
   -0.0583    1.9875    0.0000 C   0  0  0  0  0  0  0  0  0  0  0  0
   -0.8417    1.3625    0.0000 N   0  0  0  0  0  0  0  0  0  0  0  0
   -0.6917    0.3750    0.0000 C   0  0  0  0  0  0  0  0  0  0  0  0
    1.0208    0.6333    0.0000 C   0  0  0  0  0  0  0  0  0  0  0  0
    0.2375    0.0083    0.0000 C   0  0  0  0  0  0  0  0  0  0  0  0
   -0.2083    2.9750    0.0000 N   0  0  3  0  0  0  0  0  0  0  0  0
    0.3875   -0.9792    0.0000 C   0  0  0  0  0  0  0  0  0  0  0  0
   -0.3917   -1.6042    0.0000 C   0  0  0  0  0  0  0  0  0  0  0  0
    1.9500    0.2708    0.0000 N   0  0  0  0  0  0  0  0  0  0  0  0
   -1.4750   -0.2500    0.0000 O   0  0  0  0  0  0  0  0  0  0  0  0
   -0.2417   -2.5917    0.0000 C   0  0  0  0  0  0  0  0  0  0  0  0
   -1.0250   -3.2167    0.0000 C   0  0  0  0  0  0  0  0  0  0  0  0
    2.1000   -0.7208    0.0000 C   0  0  0  0  0  0  0  0  0  0  0  0
    1.3208   -1.3417    0.0000 C   0  0  0  0  0  0  0  0  0  0  0  0
    0.5042    3.6792    0.0000 C   0  0  0  0  0  0  0  0  0  0  0  0
   -1.0958    3.4375    0.0000 C   0  0  0  0  0  0  0  0  0  0  0  0
   -1.3250   -1.2375    0.0000 C   0  0  0  0  0  0  0  0  0  0  0  0
   -0.8750   -4.2042    0.0000 O   0  0  0  0  0  0  0  0  0  0  0  0
   -2.1042   -1.8625    0.0000 C   0  0  0  0  0  0  0  0  0  0  0  0
   -1.9542   -2.8500    0.0000 C   0  0  0  0  0  0  0  0  0  0  0  0
    0.0542   -4.5667    0.0000 C   0  0  0  0  0  0  0  0  0  0  0  0
    0.0542    4.5667    0.0000 C   0  0  0  0  0  0  0  0  0  0  0  0
   -0.9333    4.4208    0.0000 C   0  0  0  0  0  0  0  0  0  0  0  0
  1  2  2  0  0  0  0
  2  3  1  0  0  0  0
  4  6  1  0  0  0  0
  1  5  1  0  0  0  0
  5  6  2  0  0  0  0
  2  7  1  0  0  0  0
  6  8  1  0  0  0  0
  8  9  1  0  0  0  0
  5 10  1  0  0  0  0
  4 11  2  0  0  0  0
  9 12  1  0  0  0  0
 12 13  2  0  0  0  0
 10 14  2  0  0  0  0
 14 15  1  0  0  0  0
  7 16  1  0  0  0  0
  7 17  1  0  0  0  0
  9 18  2  0  0  0  0
 13 19  1  0  0  0  0
 18 20  1  0  0  0  0
 20 21  2  0  0  0  0
 19 22  1  0  0  0  0
 16 23  1  0  0  0  0
 17 24  1  0  0  0  0
  3  4  1  0  0  0  0
  8 15  2  0  0  0  0
 23 24  1  0  0  0  0
 13 21  1  0  0  0  0
M  END
> <MOLFORMULA>
C18 H18 N4 O2

> <MOLWEIGHT>
3.223662000000000e+002

> <IDNUMBER>
AN-153/J110173

> <PRICE>
EUR 130/10 mg

> <Similarity score>
0.19

$$$$

  -OEChem-04222410502D

 31 34  0     0  0  0  0  0  0999 V2000
    8.0667   -5.9792    0.0000 S   0  0  3  0  0  0  0  0  0  0  0  0
    8.0667   -4.6417    0.0000 C   0  0  0  0  0  0  0  0  0  0  0  0
    6.9042   -3.9667    0.0000 C   0  0  0  0  0  0  0  0  0  0  0  0
    6.9042   -2.6542    0.0000 C   0  0  0  0  0  0  0  0  0  0  0  0
    8.0667   -7.3125    0.0000 C   0  0  0  0  0  0  0  0  0  0  0  0
    5.7667   -4.6417    0.0000 N   0  0  3  0  0  0  0  0  0  0  0  0
    9.2167   -3.9667    0.0000 C   0  0  0  0  0  0  0  0  0  0  0  0
    9.2167   -2.6542    0.0000 N   0  0  0  0  0  0  0  0  0  0  0  0
    9.2167   -7.9875    0.0000 C   0  0  0  0  0  0  0  0  0  0  0  0
    6.9042   -7.9875    0.0000 C   0  0  0  0  0  0  0  0  0  0  0  0
    8.0667   -1.9917    0.0000 C   0  0  0  0  0  0  0  0  0  0  0  0
    6.7417   -5.9792    0.0000 O   0  0  0  0  0  0  0  0  0  0  0  0
    9.3917   -5.9792    0.0000 O   0  0  0  0  0  0  0  0  0  0  0  0
    5.7667   -1.9917    0.0000 C   0  0  0  0  0  0  0  0  0  0  0  0
    9.2167   -9.3125    0.0000 C   0  0  0  0  0  0  0  0  0  0  0  0
    6.9042   -9.3125    0.0000 C   0  0  0  0  0  0  0  0  0  0  0  0
    8.0667   -9.9667    0.0000 C   0  0  0  0  0  0  0  0  0  0  0  0
    4.6125   -3.9667    0.0000 C   0  0  0  0  0  0  0  0  0  0  0  0
    5.7667   -5.9792    0.0000 C   0  0  0  0  0  0  0  0  0  0  0  0
    8.0667   -0.6625    0.0000 C   0  0  0  0  0  0  0  0  0  0  0  0
    5.7667   -0.6625    0.0000 C   0  0  0  0  0  0  0  0  0  0  0  0
   10.3667   -9.9667    0.0000 F   0  0  0  0  0  0  0  0  0  0  0  0
    5.7667   -9.9667    0.0000 F   0  0  0  0  0  0  0  0  0  0  0  0
    6.9042   -0.0000    0.0000 C   0  0  0  0  0  0  0  0  0  0  0  0
    3.4625   -4.6417    0.0000 C   0  0  0  0  0  0  0  0  0  0  0  0
    4.6125   -6.6417    0.0000 C   0  0  0  0  0  0  0  0  0  0  0  0
    4.6125   -0.0000    0.0000 F   0  0  0  0  0  0  0  0  0  0  0  0
    3.4625   -5.9792    0.0000 C   0  0  3  0  0  0  0  0  0  0  0  0
    1.1500   -5.9792    0.0000 O   0  0  0  0  0  0  0  0  0  0  0  0
    2.3000   -6.6417    0.0000 C   0  0  0  0  0  0  0  0  0  0  0  0
    0.0000   -6.6417    0.0000 C   0  0  0  0  0  0  0  0  0  0  0  0
  1  2  1  0  0  0  0
  2  3  2  0  0  0  0
  3  4  1  0  0  0  0
  1  5  1  0  0  0  0
  3  6  1  0  0  0  0
  2  7  1  0  0  0  0
  7  8  2  0  0  0  0
  5  9  2  0  0  0  0
  5 10  1  0  0  0  0
  8 11  1  0  0  0  0
  1 12  2  0  0  0  0
  1 13  2  0  0  0  0
  4 14  2  0  0  0  0
  9 15  1  0  0  0  0
 10 16  2  0  0  0  0
 16 17  1  0  0  0  0
  6 18  1  0  0  0  0
  6 19  1  0  0  0  0
 11 20  2  0  0  0  0
 14 21  1  0  0  0  0
 15 22  1  0  0  0  0
 16 23  1  0  0  0  0
 20 24  1  0  0  0  0
 18 25  1  0  0  0  0
 19 26  1  0  0  0  0
 21 27  1  0  0  0  0
 26 28  1  0  0  0  0
 29 30  1  0  0  0  0
 28 30  1  0  0  0  0
 29 31  1  0  0  0  0
 15 17  2  0  0  0  0
  4 11  1  0  0  0  0
 21 24  2  0  0  0  0
 25 28  1  0  0  0  0
M  END
> <MOLFORMULA>
C22 H21 F3 N2 O3 S

> <MOLWEIGHT>
4.504789000000000e+002

> <IDNUMBER>
AT-687/NB06799

> <PRICE>
EUR 80/10 mg

> <Similarity score>
0.19

$$$$

  -OEChem-04222410502D

 26 30  0     0  0  0  0  0  0999 V2000
    4.6375   -6.0167    0.0000 C   0  0  0  0  0  0  0  0  0  0  0  0
    4.6375   -7.5917    0.0000 N   0  0  0  0  0  0  0  0  0  0  0  0
    5.3250   -6.4125    0.0000 C   0  0  0  0  0  0  0  0  0  0  0  0
    5.3250   -7.2042    0.0000 C   0  0  0  0  0  0  0  0  0  0  0  0
    3.9625   -6.4167    0.0000 C   0  0  0  0  0  0  0  0  0  0  0  0
    4.6375   -5.2292    0.0000 N   0  0  3  0  0  0  0  0  0  0  0  0
    3.9625   -7.2042    0.0000 C   0  0  0  0  0  0  0  0  0  0  0  0
    6.0083   -7.6000    0.0000 C   0  0  0  0  0  0  0  0  0  0  0  0
    6.7000   -7.2042    0.0000 C   0  0  0  0  0  0  0  0  0  0  0  0
    7.3833   -7.6042    0.0000 C   0  0  0  0  0  0  0  0  0  0  0  0
    6.0000   -8.3917    0.0000 C   0  0  0  0  0  0  0  0  0  0  0  0
    4.6375   -3.6417    0.0000 O   0  0  0  0  0  0  0  0  0  0  0  0
    7.3833   -8.3917    0.0000 C   0  0  0  0  0  0  0  0  0  0  0  0
    6.6875   -8.7917    0.0000 C   0  0  0  0  0  0  0  0  0  0  0  0
    5.3250   -4.8292    0.0000 C   0  0  0  0  0  0  0  0  0  0  0  0
    3.9500   -4.8375    0.0000 C   0  0  0  0  0  0  0  0  0  0  0  0
    3.2750   -6.0167    0.0000 C   0  0  0  0  0  0  0  0  0  0  0  0
    3.2750   -7.5917    0.0000 C   0  0  0  0  0  0  0  0  0  0  0  0
    3.9500   -4.0417    0.0000 C   0  0  0  0  0  0  0  0  0  0  0  0
    5.3167   -4.0417    0.0000 C   0  0  0  0  0  0  0  0  0  0  0  0
    8.0625   -7.2125    0.0000 C   0  0  0  0  0  0  0  0  0  0  0  0
    8.0625   -8.7875    0.0000 C   0  0  0  0  0  0  0  0  0  0  0  0
    2.6000   -6.4167    0.0000 C   0  0  0  0  0  0  0  0  0  0  0  0
    2.6000   -7.2042    0.0000 C   0  0  0  0  0  0  0  0  0  0  0  0
    8.7458   -7.6042    0.0000 C   0  0  0  0  0  0  0  0  0  0  0  0
    8.7500   -8.3917    0.0000 C   0  0  0  0  0  0  0  0  0  0  0  0
  2  7  1  0  0  0  0
  1  3  2  0  0  0  0
  3  4  1  0  0  0  0
  1  5  1  0  0  0  0
  1  6  1  0  0  0  0
  5  7  1  0  0  0  0
  4  8  1  0  0  0  0
  8  9  2  0  0  0  0
  9 10  1  0  0  0  0
  8 11  1  0  0  0  0
 12 19  1  0  0  0  0
 13 14  1  0  0  0  0
 11 14  2  0  0  0  0
  6 15  1  0  0  0  0
  6 16  1  0  0  0  0
  5 17  2  0  0  0  0
  7 18  2  0  0  0  0
 16 19  1  0  0  0  0
 15 20  1  0  0  0  0
 10 21  2  0  0  0  0
 13 22  2  0  0  0  0
 17 23  1  0  0  0  0
 23 24  2  0  0  0  0
 21 25  1  0  0  0  0
 22 26  1  0  0  0  0
  2  4  2  0  0  0  0
 12 20  1  0  0  0  0
 18 24  1  0  0  0  0
 10 13  1  0  0  0  0
 25 26  2  0  0  0  0
M  END
> <MOLFORMULA>
C23 H20 N2 O

> <MOLWEIGHT>
3.404240000000000e+002

> <IDNUMBER>
AT-225/NB47216

> <SALTDATA>
2 H2O

> <PRICE>
EUR 140/10 mg

> <Similarity score>
0.19

$$$$

  -OEChem-04222410502D

 26 30  0     0  0  0  0  0  0999 V2000
   -1.6125    1.1958    0.0000 C   0  0  0  0  0  0  0  0  0  0  0  0
   -1.6125   -0.3125    0.0000 N   0  0  0  0  0  0  0  0  0  0  0  0
   -0.9583    0.8208    0.0000 C   0  0  0  0  0  0  0  0  0  0  0  0
   -0.9583    0.0625    0.0000 C   0  0  0  0  0  0  0  0  0  0  0  0
   -2.2708    0.8208    0.0000 C   0  0  0  0  0  0  0  0  0  0  0  0
   -1.6125    1.9458    0.0000 N   0  0  3  0  0  0  0  0  0  0  0  0
   -2.2708    0.0625    0.0000 C   0  0  0  0  0  0  0  0  0  0  0  0
   -0.3083   -0.3125    0.0000 C   0  0  0  0  0  0  0  0  0  0  0  0
    0.3417    0.0625    0.0000 C   0  0  0  0  0  0  0  0  0  0  0  0
    0.9875   -0.3125    0.0000 C   0  0  0  0  0  0  0  0  0  0  0  0
   -0.3083   -1.0625    0.0000 C   0  0  0  0  0  0  0  0  0  0  0  0
   -1.6125    3.4583    0.0000 O   0  0  0  0  0  0  0  0  0  0  0  0
    0.9875   -1.0625    0.0000 C   0  0  0  0  0  0  0  0  0  0  0  0
    0.3417   -1.4375    0.0000 C   0  0  0  0  0  0  0  0  0  0  0  0
   -0.9625    2.3333    0.0000 C   0  0  0  0  0  0  0  0  0  0  0  0
   -2.2708    2.3333    0.0000 C   0  0  0  0  0  0  0  0  0  0  0  0
   -2.9208    1.1958    0.0000 C   0  0  0  0  0  0  0  0  0  0  0  0
   -2.9208   -0.3125    0.0000 C   0  0  0  0  0  0  0  0  0  0  0  0
   -2.2708    3.0833    0.0000 C   0  0  0  0  0  0  0  0  0  0  0  0
   -0.9583    3.0833    0.0000 C   0  0  0  0  0  0  0  0  0  0  0  0
    1.6375    0.0625    0.0000 C   0  0  0  0  0  0  0  0  0  0  0  0
    1.6375   -1.4375    0.0000 C   0  0  0  0  0  0  0  0  0  0  0  0
   -3.5708    0.8208    0.0000 C   0  0  0  0  0  0  0  0  0  0  0  0
   -3.5708    0.0625    0.0000 C   0  0  0  0  0  0  0  0  0  0  0  0
    2.2875   -0.3125    0.0000 C   0  0  0  0  0  0  0  0  0  0  0  0
    2.2875   -1.0625    0.0000 C   0  0  0  0  0  0  0  0  0  0  0  0
  2  7  2  0  0  0  0
  1  3  1  0  0  0  0
  3  4  2  0  0  0  0
  1  5  2  0  0  0  0
  1  6  1  0  0  0  0
  5  7  1  0  0  0  0
  4  8  1  0  0  0  0
  8  9  2  0  0  0  0
  9 10  1  0  0  0  0
  8 11  1  0  0  0  0
 12 19  1  0  0  0  0
 13 14  1  0  0  0  0
 11 14  2  0  0  0  0
  6 15  1  0  0  0  0
  6 16  1  0  0  0  0
  5 17  1  0  0  0  0
  7 18  1  0  0  0  0
 16 19  1  0  0  0  0
 15 20  1  0  0  0  0
 10 21  2  0  0  0  0
 13 22  2  0  0  0  0
 17 23  2  0  0  0  0
 23 24  1  0  0  0  0
 21 25  1  0  0  0  0
 22 26  1  0  0  0  0
  2  4  1  0  0  0  0
 12 20  1  0  0  0  0
 18 24  2  0  0  0  0
 10 13  1  0  0  0  0
 25 26  2  0  0  0  0
M  END
> <MOLFORMULA>
C23 H20 N2 O

> <MOLWEIGHT>
3.404240000000000e+002

> <IDNUMBER>
AT-225/JK06935

> <PRICE>
EUR 140/10 mg

> <Similarity score>
0.19

$$$$

  -OEChem-04222410502D

 26 30  0     0  0  0  0  0  0999 V2000
   -0.4333    2.9083    0.0000 C   0  0  0  0  0  0  0  0  0  0  0  0
   -0.4333    2.1583    0.0000 N   0  0  0  0  0  0  0  0  0  0  0  0
   -0.1083    2.7208    0.0000 C   0  0  0  0  0  0  0  0  0  0  0  0
   -0.1083    2.3458    0.0000 C   0  0  0  0  0  0  0  0  0  0  0  0
   -0.7625    2.7208    0.0000 C   0  0  0  0  0  0  0  0  0  0  0  0
   -0.4333    3.2958    0.0000 N   0  0  3  0  0  0  0  0  0  0  0  0
   -0.7625    2.3458    0.0000 C   0  0  0  0  0  0  0  0  0  0  0  0
    0.2167    2.1583    0.0000 C   0  0  0  0  0  0  0  0  0  0  0  0
    0.5500    2.3458    0.0000 C   0  0  0  0  0  0  0  0  0  0  0  0
    0.8750    2.1583    0.0000 C   0  0  0  0  0  0  0  0  0  0  0  0
    0.2167    1.7833    0.0000 C   0  0  0  0  0  0  0  0  0  0  0  0
   -0.4333    4.0292    0.0000 O   0  0  0  0  0  0  0  0  0  0  0  0
    0.8750    1.7833    0.0000 C   0  0  0  0  0  0  0  0  0  0  0  0
    0.5500    1.5958    0.0000 C   0  0  0  0  0  0  0  0  0  0  0  0
   -0.1083    3.4833    0.0000 C   0  0  0  0  0  0  0  0  0  0  0  0
   -0.7583    3.4833    0.0000 C   0  0  0  0  0  0  0  0  0  0  0  0
   -1.0875    2.9083    0.0000 C   0  0  0  0  0  0  0  0  0  0  0  0
   -1.0875    2.1583    0.0000 C   0  0  0  0  0  0  0  0  0  0  0  0
   -0.7583    3.8583    0.0000 C   0  0  0  0  0  0  0  0  0  0  0  0
   -0.1083    3.8583    0.0000 C   0  0  0  0  0  0  0  0  0  0  0  0
    1.2000    2.3458    0.0000 C   0  0  0  0  0  0  0  0  0  0  0  0
    1.2000    1.5958    0.0000 C   0  0  0  0  0  0  0  0  0  0  0  0
   -1.4125    2.7208    0.0000 C   0  0  0  0  0  0  0  0  0  0  0  0
   -1.4125    2.3458    0.0000 C   0  0  0  0  0  0  0  0  0  0  0  0
    1.5250    2.1583    0.0000 C   0  0  0  0  0  0  0  0  0  0  0  0
    1.5250    1.7833    0.0000 C   0  0  0  0  0  0  0  0  0  0  0  0
  2  7  2  0  0  0  0
  1  3  1  0  0  0  0
  3  4  2  0  0  0  0
  1  5  2  0  0  0  0
  1  6  1  0  0  0  0
  5  7  1  0  0  0  0
  4  8  1  0  0  0  0
  8  9  2  0  0  0  0
  9 10  1  0  0  0  0
  8 11  1  0  0  0  0
 12 19  1  0  0  0  0
 13 14  1  0  0  0  0
 11 14  2  0  0  0  0
  6 15  1  0  0  0  0
  6 16  1  0  0  0  0
  5 17  1  0  0  0  0
  7 18  1  0  0  0  0
 16 19  1  0  0  0  0
 15 20  1  0  0  0  0
 10 21  2  0  0  0  0
 13 22  2  0  0  0  0
 17 23  2  0  0  0  0
 23 24  1  0  0  0  0
 21 25  1  0  0  0  0
 22 26  1  0  0  0  0
  2  4  1  0  0  0  0
 12 20  1  0  0  0  0
 18 24  2  0  0  0  0
 10 13  1  0  0  0  0
 25 26  2  0  0  0  0
M  END
> <MOLFORMULA>
C23 H20 N2 O

> <MOLWEIGHT>
3.404240000000000e+002

> <IDNUMBER>
AT-225/JK07151

> <PRICE>
EUR 140/10 mg

> <Similarity score>
0.19

$$$$

  -OEChem-04222410502D

 26 30  0     0  0  0  0  0  0999 V2000
    4.6875   -6.0417    0.0000 C   0  0  0  0  0  0  0  0  0  0  0  0
    4.6875   -7.5417    0.0000 N   0  0  0  0  0  0  0  0  0  0  0  0
    5.3417   -6.4167    0.0000 C   0  0  0  0  0  0  0  0  0  0  0  0
    5.3417   -7.1667    0.0000 C   0  0  0  0  0  0  0  0  0  0  0  0
    4.0375   -6.4250    0.0000 C   0  0  0  0  0  0  0  0  0  0  0  0
    4.6792   -5.3000    0.0000 N   0  0  3  0  0  0  0  0  0  0  0  0
    4.0375   -7.1667    0.0000 C   0  0  0  0  0  0  0  0  0  0  0  0
    6.0000   -7.5417    0.0000 C   0  0  0  0  0  0  0  0  0  0  0  0
    6.6417   -7.1667    0.0000 C   0  0  0  0  0  0  0  0  0  0  0  0
    7.3000   -7.5375    0.0000 C   0  0  0  0  0  0  0  0  0  0  0  0
    5.9917   -8.2917    0.0000 C   0  0  0  0  0  0  0  0  0  0  0  0
    4.6792   -3.8083    0.0000 O   0  0  0  0  0  0  0  0  0  0  0  0
    7.3000   -8.2917    0.0000 C   0  0  0  0  0  0  0  0  0  0  0  0
    6.6500   -8.6625    0.0000 C   0  0  0  0  0  0  0  0  0  0  0  0
    5.3375   -4.9292    0.0000 C   0  0  0  0  0  0  0  0  0  0  0  0
    4.0292   -4.9292    0.0000 C   0  0  0  0  0  0  0  0  0  0  0  0
    3.3792   -6.0500    0.0000 C   0  0  0  0  0  0  0  0  0  0  0  0
    3.3792   -7.5417    0.0000 C   0  0  0  0  0  0  0  0  0  0  0  0
    4.0292   -4.1833    0.0000 C   0  0  0  0  0  0  0  0  0  0  0  0
    5.3375   -4.1792    0.0000 C   0  0  0  0  0  0  0  0  0  0  0  0
    7.9500   -7.1625    0.0000 C   0  0  0  0  0  0  0  0  0  0  0  0
    7.9542   -8.6542    0.0000 C   0  0  0  0  0  0  0  0  0  0  0  0
    2.7292   -6.4250    0.0000 C   0  0  0  0  0  0  0  0  0  0  0  0
    2.7292   -7.1667    0.0000 C   0  0  0  0  0  0  0  0  0  0  0  0
    8.6042   -7.5292    0.0000 C   0  0  0  0  0  0  0  0  0  0  0  0
    8.6167   -8.2792    0.0000 C   0  0  0  0  0  0  0  0  0  0  0  0
  2  7  1  0  0  0  0
  1  3  2  0  0  0  0
  3  4  1  0  0  0  0
  1  5  1  0  0  0  0
  1  6  1  0  0  0  0
  5  7  1  0  0  0  0
  4  8  1  0  0  0  0
  8  9  1  0  0  0  0
  9 10  2  0  0  0  0
  8 11  2  0  0  0  0
 12 19  1  0  0  0  0
 13 14  2  0  0  0  0
 11 14  1  0  0  0  0
  6 15  1  0  0  0  0
  6 16  1  0  0  0  0
  5 17  2  0  0  0  0
  7 18  2  0  0  0  0
 16 19  1  0  0  0  0
 15 20  1  0  0  0  0
 10 21  1  0  0  0  0
 13 22  1  0  0  0  0
 17 23  1  0  0  0  0
 23 24  2  0  0  0  0
 21 25  2  0  0  0  0
 22 26  2  0  0  0  0
  2  4  2  0  0  0  0
 12 20  1  0  0  0  0
 18 24  1  0  0  0  0
 10 13  1  0  0  0  0
 25 26  1  0  0  0  0
M  END
> <MOLFORMULA>
C23 H20 N2 O

> <MOLWEIGHT>
3.404240000000000e+002

> <IDNUMBER>
AT-225/NB46582

> <SALTDATA>
H2O

> <PRICE>
EUR 140/10 mg

> <Similarity score>
0.19

$$$$

  -OEChem-04222410502D

 26 30  0     0  0  0  0  0  0999 V2000
    4.6875   -6.0292    0.0000 C   0  0  0  0  0  0  0  0  0  0  0  0
    4.6875   -7.5250    0.0000 N   0  0  0  0  0  0  0  0  0  0  0  0
    5.3417   -6.4042    0.0000 C   0  0  0  0  0  0  0  0  0  0  0  0
    5.3417   -7.1542    0.0000 C   0  0  0  0  0  0  0  0  0  0  0  0
    4.0375   -6.4042    0.0000 C   0  0  0  0  0  0  0  0  0  0  0  0
    4.6792   -5.2792    0.0000 N   0  0  3  0  0  0  0  0  0  0  0  0
    4.0375   -7.1542    0.0000 C   0  0  0  0  0  0  0  0  0  0  0  0
    6.0000   -7.5250    0.0000 C   0  0  0  0  0  0  0  0  0  0  0  0
    6.6417   -7.1500    0.0000 C   0  0  0  0  0  0  0  0  0  0  0  0
    7.3000   -7.5167    0.0000 C   0  0  0  0  0  0  0  0  0  0  0  0
    5.9917   -8.2667    0.0000 C   0  0  0  0  0  0  0  0  0  0  0  0
    4.6792   -3.7917    0.0000 O   0  0  0  0  0  0  0  0  0  0  0  0
    7.3000   -8.2667    0.0000 C   0  0  0  0  0  0  0  0  0  0  0  0
    6.6500   -8.6417    0.0000 C   0  0  0  0  0  0  0  0  0  0  0  0
    5.3375   -4.9042    0.0000 C   0  0  0  0  0  0  0  0  0  0  0  0
    4.0292   -4.9125    0.0000 C   0  0  0  0  0  0  0  0  0  0  0  0
    3.3792   -6.0292    0.0000 C   0  0  0  0  0  0  0  0  0  0  0  0
    3.3792   -7.5250    0.0000 C   0  0  0  0  0  0  0  0  0  0  0  0
    4.0292   -4.1667    0.0000 C   0  0  0  0  0  0  0  0  0  0  0  0
    5.3375   -4.1625    0.0000 C   0  0  0  0  0  0  0  0  0  0  0  0
    7.9500   -7.1417    0.0000 C   0  0  0  0  0  0  0  0  0  0  0  0
    7.9542   -8.6375    0.0000 C   0  0  0  0  0  0  0  0  0  0  0  0
    2.7292   -6.4042    0.0000 C   0  0  0  0  0  0  0  0  0  0  0  0
    2.7292   -7.1542    0.0000 C   0  0  0  0  0  0  0  0  0  0  0  0
    8.6042   -7.5125    0.0000 C   0  0  0  0  0  0  0  0  0  0  0  0
    8.6167   -8.2625    0.0000 C   0  0  0  0  0  0  0  0  0  0  0  0
  2  7  1  0  0  0  0
  1  3  2  0  0  0  0
  3  4  1  0  0  0  0
  1  5  1  0  0  0  0
  1  6  1  0  0  0  0
  5  7  1  0  0  0  0
  4  8  1  0  0  0  0
  8  9  1  0  0  0  0
  9 10  2  0  0  0  0
  8 11  2  0  0  0  0
 12 19  1  0  0  0  0
 13 14  2  0  0  0  0
 11 14  1  0  0  0  0
  6 15  1  0  0  0  0
  6 16  1  0  0  0  0
  5 17  2  0  0  0  0
  7 18  2  0  0  0  0
 16 19  1  0  0  0  0
 15 20  1  0  0  0  0
 10 21  1  0  0  0  0
 13 22  1  0  0  0  0
 17 23  1  0  0  0  0
 23 24  2  0  0  0  0
 21 25  2  0  0  0  0
 22 26  2  0  0  0  0
  2  4  2  0  0  0  0
 12 20  1  0  0  0  0
 18 24  1  0  0  0  0
 10 13  1  0  0  0  0
 25 26  1  0  0  0  0
M  END
> <MOLFORMULA>
C23 H20 N2 O

> <MOLWEIGHT>
3.404240000000000e+002

> <IDNUMBER>
AT-225/NB48342

> <SALTDATA>
3 H2O

> <PRICE>
EUR 140/10 mg

> <Similarity score>
0.19

$$$$

  -OEChem-04222410502D

 26 28  0     0  0  0  0  0  0999 V2000
    5.5167   -2.8667    0.0000 N   0  0  0  0  0  0  0  0  0  0  0  0
    4.8042   -2.4542    0.0000 C   0  0  0  0  0  0  0  0  0  0  0  0
    6.2375   -2.4542    0.0000 C   0  0  0  0  0  0  0  0  0  0  0  0
    4.8042   -1.6250    0.0000 C   0  0  0  0  0  0  0  0  0  0  0  0
    4.0917   -2.8667    0.0000 N   0  0  3  0  0  0  0  0  0  0  0  0
    6.2375   -1.6250    0.0000 N   0  0  0  0  0  0  0  0  0  0  0  0
    6.9542   -3.6917    0.0000 N   0  0  0  0  0  0  0  0  0  0  0  0
    5.5167   -1.2125    0.0000 C   0  0  0  0  0  0  0  0  0  0  0  0
    6.9542   -2.8667    0.0000 N   0  0  0  0  0  0  0  0  0  0  0  0
    4.0917   -1.2167    0.0000 F   0  0  0  0  0  0  0  0  0  0  0  0
    7.6667   -4.1000    0.0000 C   0  0  0  0  0  0  0  0  0  0  0  0
    8.3792   -3.6792    0.0000 C   0  0  0  0  0  0  0  0  0  0  0  0
    9.8000   -2.8417    0.0000 C   0  0  0  0  0  0  0  0  0  0  0  0
    8.3667   -2.8542    0.0000 C   0  0  0  0  0  0  0  0  0  0  0  0
    9.1000   -4.0875    0.0000 C   0  0  0  0  0  0  0  0  0  0  0  0
    9.0792   -2.4375    0.0000 C   0  0  0  0  0  0  0  0  0  0  0  0
    9.8125   -3.6667    0.0000 C   0  0  0  0  0  0  0  0  0  0  0  0
    4.0125   -3.6875    0.0000 C   0  0  0  0  0  0  0  0  0  0  0  0
    3.3417   -2.5292    0.0000 C   0  0  0  0  0  0  0  0  0  0  0  0
   10.5792   -2.5792    0.0000 O   0  0  0  0  0  0  0  0  0  0  0  0
   12.3250   -3.9417    0.0000 O   0  0  0  0  0  0  0  0  0  0  0  0
   11.0792   -3.2417    0.0000 C   0  0  0  0  0  0  0  0  0  0  0  0
   11.9042   -3.2292    0.0000 C   0  0  0  0  0  0  0  0  0  0  0  0
   13.1500   -3.9292    0.0000 C   0  0  0  0  0  0  0  0  0  0  0  0
    3.2042   -3.8542    0.0000 C   0  0  0  0  0  0  0  0  0  0  0  0
    2.7917   -3.1417    0.0000 C   0  0  0  0  0  0  0  0  0  0  0  0
  1  2  1  0  0  0  0
  1  3  2  0  0  0  0
  2  4  2  0  0  0  0
  2  5  1  0  0  0  0
  3  6  1  0  0  0  0
  7  9  1  0  0  0  0
  6  8  2  0  0  0  0
  3  9  1  0  0  0  0
  4 10  1  0  0  0  0
  7 11  2  0  0  0  0
 11 12  1  0  0  0  0
 13 17  2  0  0  0  0
 12 14  1  0  0  0  0
 12 15  2  0  0  0  0
 14 16  2  0  0  0  0
 15 17  1  0  0  0  0
  5 18  1  0  0  0  0
  5 19  1  0  0  0  0
 13 20  1  0  0  0  0
 21 23  1  0  0  0  0
 20 22  1  0  0  0  0
 22 23  1  0  0  0  0
 21 24  1  0  0  0  0
 18 25  1  0  0  0  0
 19 26  1  0  0  0  0
  4  8  1  0  0  0  0
 25 26  1  0  0  0  0
 13 16  1  0  0  0  0
M  END
> <MOLFORMULA>
C18 H22 F N5 O2

> <MOLWEIGHT>
3.594028000000000e+002

> <IDNUMBER>
AT-138/QI01032

> <CHIRALFLAG>
-

> <PRICE>
EUR 125.00/10 mg

> <Similarity score>
0.19

$$$$

  -OEChem-04222410502D

 24 26  0     0  0  0  0  0  0999 V2000
    1.6417   -1.4917    0.0000 S   0  0  3  0  0  0  0  0  0  0  0  0
    0.9250   -1.9000    0.0000 C   0  0  0  0  0  0  0  0  0  0  0  0
    0.2042   -1.5000    0.0000 C   0  0  0  0  0  0  0  0  0  0  0  0
   -0.5000   -1.9167    0.0000 C   0  0  0  0  0  0  0  0  0  0  0  0
    0.2167   -3.1500    0.0000 N   0  0  0  0  0  0  0  0  0  0  0  0
    2.3500   -1.0750    0.0000 C   0  0  0  0  0  0  0  0  0  0  0  0
   -0.5000   -2.7417    0.0000 C   0  0  0  0  0  0  0  0  0  0  0  0
    0.9250   -2.7292    0.0000 C   0  0  0  0  0  0  0  0  0  0  0  0
    3.7750   -1.0667    0.0000 C   0  0  0  0  0  0  0  0  0  0  0  0
    5.2000   -1.8750    0.0000 N   0  0  0  0  0  0  0  0  0  0  0  0
    4.4917   -1.4667    0.0000 C   0  0  0  0  0  0  0  0  0  0  0  0
    3.0667   -1.4750    0.0000 C   0  0  0  0  0  0  0  0  0  0  0  0
    2.0500   -2.2000    0.0000 O   0  0  0  0  0  0  0  0  0  0  0  0
    1.2250   -0.7750    0.0000 O   0  0  0  0  0  0  0  0  0  0  0  0
    3.7750   -0.2292    0.0000 C   0  0  0  0  0  0  0  0  0  0  0  0
   -1.2125   -3.1500    0.0000 C   0  0  0  0  0  0  0  0  0  0  0  0
    2.3417   -0.2500    0.0000 C   0  0  0  0  0  0  0  0  0  0  0  0
    3.0500    0.1750    0.0000 C   0  0  0  0  0  0  0  0  0  0  0  0
    0.2000   -0.6750    0.0000 Cl  0  0  0  0  0  0  0  0  0  0  0  0
    4.4792    0.1833    0.0000 F   0  0  0  0  0  0  0  0  0  0  0  0
   -1.2125   -3.9750    0.0000 F   0  0  0  0  0  0  0  0  0  0  0  0
   -1.2125   -1.5000    0.0000 C   0  0  0  0  0  0  0  0  0  0  0  0
   -1.9250   -1.9167    0.0000 C   0  0  0  0  0  0  0  0  0  0  0  0
   -1.9250   -2.7417    0.0000 C   0  0  0  0  0  0  0  0  0  0  0  0
  1  2  1  0  0  0  0
  2  3  2  0  0  0  0
  3  4  1  0  0  0  0
  5  8  2  0  0  0  0
  1  6  1  0  0  0  0
  5  7  1  0  0  0  0
  2  8  1  0  0  0  0
  9 12  1  0  0  0  0
 10 11  3  0  0  0  0
  9 11  1  0  0  0  0
  6 12  2  0  0  0  0
  1 13  2  0  0  0  0
  1 14  2  0  0  0  0
 15 18  1  0  0  0  0
  7 16  1  0  0  0  0
  6 17  1  0  0  0  0
 17 18  2  0  0  0  0
  3 19  1  0  0  0  0
 15 20  1  0  0  0  0
 16 21  1  0  0  0  0
  4 22  1  0  0  0  0
 22 23  2  0  0  0  0
 16 24  2  0  0  0  0
  9 15  2  0  0  0  0
  4  7  2  0  0  0  0
 23 24  1  0  0  0  0
M  END
> <MOLFORMULA>
C16 H7 Cl F2 N2 O2 S

> <MOLWEIGHT>
3.647583000000000e+002

> <IDNUMBER>
AT-687/PE27587

> <PRICE>
EUR 80/10 mg

> <Similarity score>
0.19

$$$$

  -OEChem-04222410502D

 25 28  0     0  0  0  0  0  0999 V2000
    0.3583    2.5208    0.0000 N   0  0  0  0  0  0  0  0  0  0  0  0
   -0.6333    2.4000    0.0000 C   0  0  0  0  0  0  0  0  0  0  0  0
   -1.0208    1.4792    0.0000 N   0  0  0  0  0  0  0  0  0  0  0  0
   -0.4208    0.6792    0.0000 C   0  0  0  0  0  0  0  0  0  0  0  0
    0.9625    1.7250    0.0000 C   0  0  0  0  0  0  0  0  0  0  0  0
    0.5750    0.8042    0.0000 C   0  0  0  0  0  0  0  0  0  0  0  0
   -1.2375    3.1958    0.0000 N   0  0  3  0  0  0  0  0  0  0  0  0
    1.1750    0.0042    0.0000 C   0  0  0  0  0  0  0  0  0  0  0  0
    1.9542    1.8500    0.0000 N   0  0  0  0  0  0  0  0  0  0  0  0
   -0.8083   -0.2417    0.0000 O   0  0  0  0  0  0  0  0  0  0  0  0
    0.7875   -0.9167    0.0000 C   0  0  0  0  0  0  0  0  0  0  0  0
   -0.2042   -1.0375    0.0000 C   0  0  0  0  0  0  0  0  0  0  0  0
    1.3875   -1.7125    0.0000 C   0  0  0  0  0  0  0  0  0  0  0  0
    0.0083   -2.7583    0.0000 C   0  0  0  0  0  0  0  0  0  0  0  0
    2.5583    1.0500    0.0000 C   0  0  0  0  0  0  0  0  0  0  0  0
   -0.5958   -1.9583    0.0000 C   0  0  0  0  0  0  0  0  0  0  0  0
    1.0000   -2.6333    0.0000 C   0  0  0  0  0  0  0  0  0  0  0  0
    2.1667    0.1292    0.0000 C   0  0  0  0  0  0  0  0  0  0  0  0
   -2.2333    3.1792    0.0000 C   0  0  0  0  0  0  0  0  0  0  0  0
   -0.9458    4.1500    0.0000 C   0  0  0  0  0  0  0  0  0  0  0  0
   -0.3833   -3.6792    0.0000 O   0  0  0  0  0  0  0  0  0  0  0  0
   -1.3750   -3.8000    0.0000 C   0  0  0  0  0  0  0  0  0  0  0  0
   -2.5625    4.1208    0.0000 C   0  0  0  0  0  0  0  0  0  0  0  0
   -1.7625    4.7208    0.0000 C   0  0  0  0  0  0  0  0  0  0  0  0
   -1.7625   -4.7208    0.0000 C   0  0  0  0  0  0  0  0  0  0  0  0
  1  2  2  0  0  0  0
  2  3  1  0  0  0  0
  4  6  1  0  0  0  0
  1  5  1  0  0  0  0
  5  6  2  0  0  0  0
  2  7  1  0  0  0  0
  6  8  1  0  0  0  0
  5  9  1  0  0  0  0
  4 10  2  0  0  0  0
  8 11  1  0  0  0  0
 11 12  2  0  0  0  0
 11 13  1  0  0  0  0
 14 16  2  0  0  0  0
  9 15  2  0  0  0  0
 12 16  1  0  0  0  0
 13 17  2  0  0  0  0
 15 18  1  0  0  0  0
  7 19  1  0  0  0  0
  7 20  1  0  0  0  0
 14 21  1  0  0  0  0
 21 22  1  0  0  0  0
 19 23  1  0  0  0  0
 20 24  1  0  0  0  0
 22 25  1  0  0  0  0
  3  4  1  0  0  0  0
  8 18  2  0  0  0  0
 23 24  1  0  0  0  0
 14 17  1  0  0  0  0
M  END
> <MOLFORMULA>
C19 H20 N4 O2

> <MOLWEIGHT>
3.363930000000000e+002

> <IDNUMBER>
AN-153/NB20267

> <PRICE>
EUR 130/10 mg

> <Similarity score>
0.19

$$$$

  -OEChem-04222410502D

 33 36  0     0  0  0  0  0  0999 V2000
    4.6167   -6.6417    0.0000 S   0  0  3  0  0  0  0  0  0  0  0  0
    5.7667   -7.3167    0.0000 C   0  0  0  0  0  0  0  0  0  0  0  0
    6.9125   -1.3167    0.0000 S   0  0  3  0  0  0  0  0  0  0  0  0
    6.9125   -6.6417    0.0000 C   0  0  0  0  0  0  0  0  0  0  0  0
    8.0667   -7.3167    0.0000 C   0  0  0  0  0  0  0  0  0  0  0  0
    6.9125   -2.6625    0.0000 N   0  0  3  0  0  0  0  0  0  0  0  0
    3.4625   -5.9875    0.0000 C   0  0  0  0  0  0  0  0  0  0  0  0
    6.9125   -5.3000    0.0000 N   0  0  3  0  0  0  0  0  0  0  0  0
    5.7667   -8.6375    0.0000 C   0  0  0  0  0  0  0  0  0  0  0  0
    6.9125   -9.3125    0.0000 N   0  0  0  0  0  0  0  0  0  0  0  0
    3.4625   -4.6417    0.0000 C   0  0  0  0  0  0  0  0  0  0  0  0
   12.6875   -5.9875    0.0000 N   0  0  0  0  0  0  0  0  0  0  0  0
    8.0667   -8.6375    0.0000 C   0  0  0  0  0  0  0  0  0  0  0  0
    2.3042   -3.9792    0.0000 C   0  0  0  0  0  0  0  0  0  0  0  0
    5.2875   -5.4917    0.0000 O   0  0  0  0  0  0  0  0  0  0  0  0
    3.9542   -7.8000    0.0000 O   0  0  0  0  0  0  0  0  0  0  0  0
    5.7667   -3.3167    0.0000 C   0  0  0  0  0  0  0  0  0  0  0  0
    8.0667   -3.3167    0.0000 C   0  0  0  0  0  0  0  0  0  0  0  0
    8.2417   -1.3167    0.0000 O   0  0  0  0  0  0  0  0  0  0  0  0
    5.5917   -1.3167    0.0000 O   0  0  0  0  0  0  0  0  0  0  0  0
   11.5292   -6.6417    0.0000 C   0  0  0  0  0  0  0  0  0  0  0  0
    9.2167   -6.6417    0.0000 C   0  0  0  0  0  0  0  0  0  0  0  0
    8.0667   -4.6417    0.0000 C   0  0  0  0  0  0  0  0  0  0  0  0
    5.7667   -4.6417    0.0000 C   0  0  0  0  0  0  0  0  0  0  0  0
    1.1542   -4.6542    0.0000 C   0  0  0  0  0  0  0  0  0  0  0  0
    2.3042   -6.6417    0.0000 C   0  0  0  0  0  0  0  0  0  0  0  0
    1.1542   -5.9875    0.0000 C   0  0  0  0  0  0  0  0  0  0  0  0
   10.3750   -7.3167    0.0000 C   0  0  0  0  0  0  0  0  0  0  0  0
    9.2167   -9.3125    0.0000 C   0  0  0  0  0  0  0  0  0  0  0  0
    6.9125   -0.0000    0.0000 C   0  0  0  0  0  0  0  0  0  0  0  0
    2.3042   -2.6625    0.0000 Cl  0  0  0  0  0  0  0  0  0  0  0  0
    0.0000   -3.9792    0.0000 F   0  0  0  0  0  0  0  0  0  0  0  0
   10.3750   -8.6375    0.0000 C   0  0  0  0  0  0  0  0  0  0  0  0
  1  2  1  0  0  0  0
  3  6  1  0  0  0  0
  2  4  2  0  0  0  0
  4  5  1  0  0  0  0
  6 17  1  0  0  0  0
  1  7  1  0  0  0  0
  4  8  1  0  0  0  0
  2  9  1  0  0  0  0
  9 10  2  0  0  0  0
  7 11  1  0  0  0  0
 12 21  3  0  0  0  0
 10 13  1  0  0  0  0
 11 14  2  0  0  0  0
  1 15  2  0  0  0  0
  1 16  2  0  0  0  0
 17 24  1  0  0  0  0
 18 23  1  0  0  0  0
  3 19  2  0  0  0  0
  3 20  2  0  0  0  0
 21 28  1  0  0  0  0
  5 22  2  0  0  0  0
  8 23  1  0  0  0  0
  8 24  1  0  0  0  0
 25 27  2  0  0  0  0
  7 26  2  0  0  0  0
 26 27  1  0  0  0  0
 22 28  1  0  0  0  0
 13 29  2  0  0  0  0
  3 30  1  0  0  0  0
 14 31  1  0  0  0  0
 25 32  1  0  0  0  0
 29 33  1  0  0  0  0
 14 25  1  0  0  0  0
  5 13  1  0  0  0  0
  6 18  1  0  0  0  0
 28 33  2  0  0  0  0
M  END
> <MOLFORMULA>
C21 H18 Cl F N4 O4 S2

> <MOLWEIGHT>
5.089802000000000e+002

> <IDNUMBER>
AT-687/NB06791

> <PRICE>
EUR 80/10 mg

> <Similarity score>
0.19

$$$$

  -OEChem-04222410502D

 59 66  0     0  0  0  0  0  0999 V2000
   -0.1458   -1.1167    0.0000 N   0  0  0  0  0  0  0  0  0  0  0  0
    6.3167   -1.0917    0.0000 N   0  0  0  0  0  0  0  0  0  0  0  0
   -0.7958   -2.2417    0.0000 C   0  0  0  0  0  0  0  0  0  0  0  0
    6.9792   -2.2125    0.0000 C   0  0  0  0  0  0  0  0  0  0  0  0
   -0.1458   -1.8667    0.0000 C   0  0  0  0  0  0  0  0  0  0  0  0
    6.3250   -1.8417    0.0000 C   0  0  0  0  0  0  0  0  0  0  0  0
   -1.4500   -4.1125    0.0000 N   0  3  0  0  0  0  0  0  0  0  0  0
    7.6417   -4.0792    0.0000 N   0  3  0  0  0  0  0  0  0  0  0  0
    7.6042    1.1708    0.0000 N   0  3  0  0  0  0  0  0  0  0  0  0
   -1.4458    1.1458    0.0000 N   0  3  0  0  0  0  0  0  0  0  0  0
    6.9667   -0.7125    0.0000 C   0  0  0  0  0  0  0  0  0  0  0  0
   -0.7958   -0.7417    0.0000 C   0  0  0  0  0  0  0  0  0  0  0  0
   -1.4458   -1.8667    0.0000 C   0  0  0  0  0  0  0  0  0  0  0  0
    7.6250   -1.8292    0.0000 C   0  0  0  0  0  0  0  0  0  0  0  0
    7.6167   -1.0792    0.0000 C   0  0  0  0  0  0  0  0  0  0  0  0
   -1.4458   -1.1167    0.0000 C   0  0  0  0  0  0  0  0  0  0  0  0
    6.9792   -2.9625    0.0000 C   0  0  0  0  0  0  0  0  0  0  0  0
   -0.7958   -2.9917    0.0000 C   0  0  0  0  0  0  0  0  0  0  0  0
    7.6292   -3.3292    0.0000 C   0  0  0  0  0  0  0  0  0  0  0  0
   -1.4458   -3.3625    0.0000 C   0  0  0  0  0  0  0  0  0  0  0  0
    7.6042    0.4208    0.0000 C   0  0  0  0  0  0  0  0  0  0  0  0
   -1.4458    0.3958    0.0000 C   0  0  0  0  0  0  0  0  0  0  0  0
    6.9625    0.0375    0.0000 C   0  0  0  0  0  0  0  0  0  0  0  0
   -0.7958    0.0125    0.0000 C   0  0  0  0  0  0  0  0  0  0  0  0
    0.5042   -2.2417    0.0000 C   0  0  0  0  0  0  0  0  0  0  0  0
    5.6792   -2.2167    0.0000 C   0  0  0  0  0  0  0  0  0  0  0  0
    8.2750   -2.2042    0.0000 C   0  0  0  0  0  0  0  0  0  0  0  0
   -2.0958   -2.2375    0.0000 C   0  0  0  0  0  0  0  0  0  0  0  0
   -2.0958   -0.7417    0.0000 C   0  0  0  0  0  0  0  0  0  0  0  0
    8.2667   -0.7042    0.0000 C   0  0  0  0  0  0  0  0  0  0  0  0
   -0.7958    1.5208    0.0000 O   0  5  0  0  0  0  0  0  0  0  0  0
   -2.1000   -4.4875    0.0000 O   0  5  0  0  0  0  0  0  0  0  0  0
    8.2500    1.5458    0.0000 O   0  5  0  0  0  0  0  0  0  0  0  0
    6.9917   -4.4625    0.0000 O   0  5  0  0  0  0  0  0  0  0  0  0
   -2.0958    1.5208    0.0000 O   0  0  0  0  0  0  0  0  0  0  0  0
    6.9542    1.5375    0.0000 O   0  0  0  0  0  0  0  0  0  0  0  0
   -0.8000   -4.4917    0.0000 O   0  0  0  0  0  0  0  0  0  0  0  0
    8.2917   -4.4542    0.0000 O   0  0  0  0  0  0  0  0  0  0  0  0
   -2.0958   -2.9875    0.0000 C   0  0  0  0  0  0  0  0  0  0  0  0
    8.2792   -2.9542    0.0000 C   0  0  0  0  0  0  0  0  0  0  0  0
    0.5042   -2.9917    0.0000 C   0  0  0  0  0  0  0  0  0  0  0  0
    5.6792   -2.9667    0.0000 C   0  0  0  0  0  0  0  0  0  0  0  0
   -2.0958    0.0125    0.0000 C   0  0  0  0  0  0  0  0  0  0  0  0
    8.2625    0.0458    0.0000 C   0  0  0  0  0  0  0  0  0  0  0  0
    1.1542   -3.3667    0.0000 C   0  0  0  0  0  0  0  0  0  0  0  0
    5.0375   -3.3500    0.0000 C   0  0  0  0  0  0  0  0  0  0  0  0
    1.1542   -1.8667    0.0000 C   0  0  0  0  0  0  0  0  0  0  0  0
    5.0250   -1.8500    0.0000 C   0  0  0  0  0  0  0  0  0  0  0  0
    1.1500   -4.1167    0.0000 O   0  0  0  0  0  0  0  0  0  0  0  0
    5.0417   -4.1000    0.0000 O   0  0  0  0  0  0  0  0  0  0  0  0
    4.3792   -2.2292    0.0000 C   0  0  0  0  0  0  0  0  0  0  0  0
    1.8042   -2.2417    0.0000 C   0  0  0  0  0  0  0  0  0  0  0  0
    3.0917   -4.4875    0.0000 O   0  0  0  0  0  0  0  0  0  0  0  0
    4.3792   -2.9792    0.0000 C   0  0  0  0  0  0  0  0  0  0  0  0
    1.8042   -2.9917    0.0000 C   0  0  0  0  0  0  0  0  0  0  0  0
    1.8000   -4.4917    0.0000 C   0  0  0  0  0  0  0  0  0  0  0  0
    4.3917   -4.4792    0.0000 C   0  0  0  0  0  0  0  0  0  0  0  0
    3.7417   -4.1042    0.0000 C   0  0  0  0  0  0  0  0  0  0  0  0
    2.4417   -4.1167    0.0000 C   0  0  0  0  0  0  0  0  0  0  0  0
  2  6  2  0  0  0  0
  3  5  1  0  0  0  0
  4  6  1  0  0  0  0
  1  5  2  0  0  0  0
  6 26  1  0  0  0  0
  7 20  1  0  0  0  0
  8 19  1  0  0  0  0
  9 21  1  0  0  0  0
 10 22  1  0  0  0  0
  2 11  1  0  0  0  0
  1 12  1  0  0  0  0
 13 16  1  0  0  0  0
  4 14  2  0  0  0  0
 14 15  1  0  0  0  0
 12 16  1  0  0  0  0
  4 17  1  0  0  0  0
  3 18  1  0  0  0  0
 17 19  2  0  0  0  0
 18 20  2  0  0  0  0
 21 23  2  0  0  0  0
 22 24  1  0  0  0  0
 11 23  1  0  0  0  0
 12 24  2  0  0  0  0
  5 25  1  0  0  0  0
 26 42  2  0  0  0  0
 14 27  1  0  0  0  0
 13 28  1  0  0  0  0
 16 29  2  0  0  0  0
 15 30  1  0  0  0  0
 10 31  1  0  0  0  0
  7 32  1  0  0  0  0
  9 33  1  0  0  0  0
  8 34  1  0  0  0  0
 10 35  2  0  0  0  0
  9 36  2  0  0  0  0
  7 37  2  0  0  0  0
  8 38  2  0  0  0  0
 28 39  2  0  0  0  0
 19 40  1  0  0  0  0
 25 41  1  0  0  0  0
 42 46  1  0  0  0  0
 22 43  2  0  0  0  0
 30 44  2  0  0  0  0
 41 45  2  0  0  0  0
 46 50  1  0  0  0  0
 25 47  2  0  0  0  0
 48 51  2  0  0  0  0
 45 49  1  0  0  0  0
 50 57  1  0  0  0  0
 51 54  1  0  0  0  0
 47 52  1  0  0  0  0
 53 59  1  0  0  0  0
 46 54  2  0  0  0  0
 52 55  2  0  0  0  0
 49 56  1  0  0  0  0
 57 58  1  0  0  0  0
 53 58  1  0  0  0  0
 56 59  1  0  0  0  0
  3 13  2  0  0  0  0
 29 43  1  0  0  0  0
 20 39  1  0  0  0  0
 45 55  1  0  0  0  0
 26 48  1  0  0  0  0
 11 15  2  0  0  0  0
 27 40  2  0  0  0  0
 21 44  1  0  0  0  0
M  CHG  8   7   1   8   1   9   1  10   1  31  -1  32  -1  33  -1  34  -1
M  END
> <MOLFORMULA>
C42 H28 N6 O11

> <MOLWEIGHT>
7.927142000000000e+002

> <IDNUMBER>
AT-225/NB31042

> <PRICE>
EUR 140/10 mg

> <Similarity score>
0.19

$$$$

  -OEChem-04222410502D

 30 33  0     0  0  0  0  0  0999 V2000
    5.6042   -5.4125    0.0000 C   0  0  0  0  0  0  0  0  0  0  0  0
    6.3250   -4.9875    0.0000 C   0  0  0  0  0  0  0  0  0  0  0  0
    6.3250   -4.1667    0.0000 N   0  0  3  0  0  0  0  0  0  0  0  0
    6.3292   -1.6875    0.0000 C   0  0  0  0  0  0  0  0  0  0  0  0
    7.0500   -5.4125    0.0000 C   0  0  0  0  0  0  0  0  0  0  0  0
    7.0500   -1.2875    0.0000 N   0  0  0  0  0  0  0  0  0  0  0  0
    7.0375   -0.4625    0.0000 C   0  0  0  0  0  0  0  0  0  0  0  0
    6.3167   -6.6542    0.0000 N   0  0  0  0  0  0  0  0  0  0  0  0
    7.7625   -5.0000    0.0000 C   0  0  0  0  0  0  0  0  0  0  0  0
    8.4750   -4.5875    0.0000 N   0  0  0  0  0  0  0  0  0  0  0  0
    5.6000   -6.2417    0.0000 C   0  0  0  0  0  0  0  0  0  0  0  0
    6.3250   -0.0750    0.0000 C   0  0  0  0  0  0  0  0  0  0  0  0
    4.8875   -5.0000    0.0000 C   0  0  0  0  0  0  0  0  0  0  0  0
    7.0500   -6.2417    0.0000 C   0  0  0  0  0  0  0  0  0  0  0  0
    6.3292   -2.5167    0.0000 C   0  0  3  0  0  0  0  0  0  0  0  0
    5.6125   -3.7542    0.0000 C   0  0  0  0  0  0  0  0  0  0  0  0
    7.0417   -3.7542    0.0000 C   0  0  0  0  0  0  0  0  0  0  0  0
    7.7417   -0.0542    0.0000 C   0  0  0  0  0  0  0  0  0  0  0  0
    5.6167   -1.2750    0.0000 O   0  0  0  0  0  0  0  0  0  0  0  0
    7.0500   -2.9375    0.0000 C   0  0  0  0  0  0  0  0  0  0  0  0
    5.6125   -2.9292    0.0000 C   0  0  0  0  0  0  0  0  0  0  0  0
    4.8875   -6.6500    0.0000 C   0  0  0  0  0  0  0  0  0  0  0  0
    7.7375    0.7625    0.0000 C   0  0  0  0  0  0  0  0  0  0  0  0
    6.3125    0.7458    0.0000 C   0  0  0  0  0  0  0  0  0  0  0  0
    4.1750   -5.4125    0.0000 C   0  0  0  0  0  0  0  0  0  0  0  0
    7.0125    1.1708    0.0000 C   0  0  0  0  0  0  0  0  0  0  0  0
    4.1750   -6.2375    0.0000 C   0  0  0  0  0  0  0  0  0  0  0  0
    5.5917    1.1458    0.0000 Cl  0  0  0  0  0  0  0  0  0  0  0  0
    3.4625   -4.9875    0.0000 F   0  0  0  0  0  0  0  0  0  0  0  0
    8.4625   -0.4625    0.0000 C   0  0  0  0  0  0  0  0  0  0  0  0
  1  2  1  0  0  0  0
  2  3  1  0  0  0  0
  4 15  1  0  0  0  0
  2  5  2  0  0  0  0
  4  6  1  0  0  0  0
  6  7  1  0  0  0  0
  8 11  1  0  0  0  0
  5  9  1  0  0  0  0
  9 10  3  0  0  0  0
  1 11  1  0  0  0  0
  7 12  1  0  0  0  0
  1 13  2  0  0  0  0
  8 14  2  0  0  0  0
 15 20  1  0  0  0  0
  3 16  1  0  0  0  0
  3 17  1  0  0  0  0
  7 18  2  0  0  0  0
  4 19  2  0  0  0  0
 17 20  1  0  0  0  0
 16 21  1  0  0  0  0
 11 22  2  0  0  0  0
 18 23  1  0  0  0  0
 12 24  2  0  0  0  0
 13 25  1  0  0  0  0
 23 26  2  0  0  0  0
 25 27  2  0  0  0  0
 24 28  1  0  0  0  0
 25 29  1  0  0  0  0
 18 30  1  0  0  0  0
 22 27  1  0  0  0  0
  5 14  1  0  0  0  0
 15 21  1  0  0  0  0
 24 26  1  0  0  0  0
M  END
> <MOLFORMULA>
C23 H20 Cl F N4 O

> <MOLWEIGHT>
4.228890000000000e+002

> <IDNUMBER>
AT-687/SK17413

> <PRICE>
EUR 80/10 mg

> <Similarity score>
0.19

$$$$

  -OEChem-04222410502D

 27 30  0     0  0  0  0  0  0999 V2000
   -0.2125   -0.2875    0.0000 C   0  0  0  0  0  0  0  0  0  0  0  0
   -0.3833   -1.2708    0.0000 C   0  0  0  0  0  0  0  0  0  0  0  0
    0.6833    0.1583    0.0000 C   0  0  0  0  0  0  0  0  0  0  0  0
   -1.0958    0.1792    0.0000 C   0  0  0  0  0  0  0  0  0  0  0  0
    0.7500    1.1542    0.0000 C   0  0  0  0  0  0  0  0  0  0  0  0
   -1.3708   -1.4167    0.0000 C   0  0  0  0  0  0  0  0  0  0  0  0
   -1.8125   -0.5167    0.0000 N   0  0  0  0  0  0  0  0  0  0  0  0
    0.2375   -2.0583    0.0000 C   0  0  0  0  0  0  0  0  0  0  0  0
   -0.0792    1.7083    0.0000 C   0  0  0  0  0  0  0  0  0  0  0  0
   -1.7417   -2.3417    0.0000 C   0  0  0  0  0  0  0  0  0  0  0  0
    1.6458    1.5958    0.0000 C   0  0  0  0  0  0  0  0  0  0  0  0
   -0.1333   -2.9875    0.0000 C   0  0  0  0  0  0  0  0  0  0  0  0
   -0.0167    2.7083    0.0000 C   0  0  0  0  0  0  0  0  0  0  0  0
   -1.1208   -3.1292    0.0000 C   0  0  0  0  0  0  0  0  0  0  0  0
    0.8833    3.1500    0.0000 C   0  0  0  0  0  0  0  0  0  0  0  0
    1.5167   -0.4000    0.0000 N   0  0  0  0  0  0  0  0  0  0  0  0
    1.7125    2.5958    0.0000 C   0  0  0  0  0  0  0  0  0  0  0  0
    2.4125    0.0417    0.0000 C   0  0  0  0  0  0  0  0  0  0  0  0
    0.4875   -3.7708    0.0000 O   0  0  0  0  0  0  0  0  0  0  0  0
   -0.8458    3.2625    0.0000 O   0  0  0  0  0  0  0  0  0  0  0  0
   -1.4917   -4.0583    0.0000 O   0  0  0  0  0  0  0  0  0  0  0  0
    0.9458    4.1458    0.0000 O   0  0  0  0  0  0  0  0  0  0  0  0
    2.4792    1.0417    0.0000 C   0  0  0  0  0  0  0  0  0  0  0  0
    0.1167    4.7000    0.0000 C   0  0  0  0  0  0  0  0  0  0  0  0
   -2.4833   -4.2000    0.0000 C   0  0  0  0  0  0  0  0  0  0  0  0
   -1.7458    2.8208    0.0000 C   0  0  0  0  0  0  0  0  0  0  0  0
    0.1167   -4.7000    0.0000 C   0  0  0  0  0  0  0  0  0  0  0  0
  1  2  1  0  0  0  0
  1  3  1  0  0  0  0
  1  4  2  0  0  0  0
  3  5  1  0  0  0  0
  2  6  2  0  0  0  0
  4  7  1  0  0  0  0
  2  8  1  0  0  0  0
  5  9  1  0  0  0  0
  6 10  1  0  0  0  0
  5 11  2  0  0  0  0
  8 12  2  0  0  0  0
  9 13  2  0  0  0  0
 12 14  1  0  0  0  0
 15 17  2  0  0  0  0
  3 16  2  0  0  0  0
 11 17  1  0  0  0  0
 16 18  1  0  0  0  0
 12 19  1  0  0  0  0
 13 20  1  0  0  0  0
 14 21  1  0  0  0  0
 15 22  1  0  0  0  0
 18 23  2  0  0  0  0
 22 24  1  0  0  0  0
 21 25  1  0  0  0  0
 20 26  1  0  0  0  0
 19 27  1  0  0  0  0
  6  7  1  0  0  0  0
 11 23  1  0  0  0  0
 10 14  2  0  0  0  0
 13 15  1  0  0  0  0
M  END
> <MOLFORMULA>
C21 H20 N2 O4

> <MOLWEIGHT>
3.643990000000000e+002

> <IDNUMBER>
AN-153/I289756

> <PRICE>
EUR 130/10 mg

> <Similarity score>
0.19

$$$$

  -OEChem-04222410502D

 25 28  0     0  0  0  0  0  0999 V2000
    6.6667   -6.7000    0.0000 N   0  0  0  0  0  0  0  0  0  0  0  0
    7.3875   -6.2875    0.0000 C   0  0  0  0  0  0  0  0  0  0  0  0
    5.9542   -6.2875    0.0000 C   0  0  0  0  0  0  0  0  0  0  0  0
    5.2417   -6.7000    0.0000 N   0  0  3  0  0  0  0  0  0  0  0  0
    7.3875   -5.4542    0.0000 N   0  0  0  0  0  0  0  0  0  0  0  0
    5.9542   -5.4625    0.0000 C   0  0  0  0  0  0  0  0  0  0  0  0
    8.1042   -6.7000    0.0000 N   0  0  3  0  0  0  0  0  0  0  0  0
    3.8167   -7.5167    0.0000 N   0  0  3  0  0  0  0  0  0  0  0  0
    6.6667   -5.0417    0.0000 C   0  0  0  0  0  0  0  0  0  0  0  0
    4.5292   -6.2792    0.0000 C   0  0  0  0  0  0  0  0  0  0  0  0
    5.2500   -7.5167    0.0000 C   0  0  0  0  0  0  0  0  0  0  0  0
    4.5292   -7.9292    0.0000 C   0  0  0  0  0  0  0  0  0  0  0  0
    3.8167   -6.6917    0.0000 C   0  0  0  0  0  0  0  0  0  0  0  0
    3.1000   -7.9250    0.0000 C   0  0  0  0  0  0  0  0  0  0  0  0
    9.5292   -7.5250    0.0000 O   0  0  0  0  0  0  0  0  0  0  0  0
    5.2417   -5.0500    0.0000 F   0  0  0  0  0  0  0  0  0  0  0  0
    8.1000   -7.5250    0.0000 C   0  0  0  0  0  0  0  0  0  0  0  0
    8.8125   -6.2792    0.0000 C   0  0  0  0  0  0  0  0  0  0  0  0
    9.5292   -6.7000    0.0000 C   0  0  0  0  0  0  0  0  0  0  0  0
    8.8125   -7.9292    0.0000 C   0  0  0  0  0  0  0  0  0  0  0  0
    2.3792   -7.5042    0.0000 C   0  0  0  0  0  0  0  0  0  0  0  0
    3.1000   -8.7417    0.0000 C   0  0  0  0  0  0  0  0  0  0  0  0
    2.3792   -9.1542    0.0000 C   0  0  0  0  0  0  0  0  0  0  0  0
    1.6750   -7.9167    0.0000 C   0  0  0  0  0  0  0  0  0  0  0  0
    1.6667   -8.7417    0.0000 C   0  0  0  0  0  0  0  0  0  0  0  0
  1  2  2  0  0  0  0
  1  3  1  0  0  0  0
  3  4  1  0  0  0  0
  2  5  1  0  0  0  0
  3  6  2  0  0  0  0
  2  7  1  0  0  0  0
  8 12  1  0  0  0  0
  6  9  1  0  0  0  0
  4 10  1  0  0  0  0
  4 11  1  0  0  0  0
 11 12  1  0  0  0  0
 10 13  1  0  0  0  0
  8 14  1  0  0  0  0
 15 19  1  0  0  0  0
  6 16  1  0  0  0  0
  7 17  1  0  0  0  0
  7 18  1  0  0  0  0
 18 19  1  0  0  0  0
 17 20  1  0  0  0  0
 14 21  2  0  0  0  0
 14 22  1  0  0  0  0
 22 23  2  0  0  0  0
 21 24  1  0  0  0  0
 23 25  1  0  0  0  0
  5  9  2  0  0  0  0
  8 13  1  0  0  0  0
 15 20  1  0  0  0  0
 24 25  2  0  0  0  0
M  END
> <MOLFORMULA>
C18 H22 F N5 O

> <MOLWEIGHT>
3.434038000000000e+002

> <IDNUMBER>
AT-138/QI00262

> <CHIRALFLAG>
-

> <PRICE>
EUR 125.00/10 mg

> <Similarity score>
0.19

$$$$

  -OEChem-04222410502D

 25 28  0     0  0  0  0  0  0999 V2000
   -0.5292   -1.7750    0.0000 N   0  0  0  0  0  0  0  0  0  0  0  0
    0.4375   -2.0292    0.0000 C   0  0  0  0  0  0  0  0  0  0  0  0
    1.1417   -1.3167    0.0000 N   0  0  0  0  0  0  0  0  0  0  0  0
    0.8792   -0.3542    0.0000 C   0  0  0  0  0  0  0  0  0  0  0  0
   -0.7917   -0.8083    0.0000 C   0  0  0  0  0  0  0  0  0  0  0  0
   -0.0917   -0.1000    0.0000 C   0  0  0  0  0  0  0  0  0  0  0  0
    0.7000   -2.9917    0.0000 N   0  0  3  0  0  0  0  0  0  0  0  0
   -0.3542    0.8667    0.0000 C   0  0  0  0  0  0  0  0  0  0  0  0
    0.3500    1.5750    0.0000 C   0  0  0  0  0  0  0  0  0  0  0  0
   -1.7625   -0.5583    0.0000 N   0  0  0  0  0  0  0  0  0  0  0  0
    1.5792    0.3583    0.0000 O   0  0  0  0  0  0  0  0  0  0  0  0
    0.0875    2.5417    0.0000 C   0  0  0  0  0  0  0  0  0  0  0  0
    0.7875    3.2500    0.0000 C   0  0  0  0  0  0  0  0  0  0  0  0
   -2.0250    0.4083    0.0000 C   0  0  0  0  0  0  0  0  0  0  0  0
   -1.3208    1.1208    0.0000 C   0  0  0  0  0  0  0  0  0  0  0  0
   -0.0042   -3.7042    0.0000 C   0  0  0  0  0  0  0  0  0  0  0  0
    1.6667   -3.2458    0.0000 C   0  0  0  0  0  0  0  0  0  0  0  0
    1.3167    1.3208    0.0000 C   0  0  0  0  0  0  0  0  0  0  0  0
    0.5250    4.2125    0.0000 O   0  0  0  0  0  0  0  0  0  0  0  0
    2.0208    2.0333    0.0000 C   0  0  0  0  0  0  0  0  0  0  0  0
    1.7583    2.9958    0.0000 C   0  0  0  0  0  0  0  0  0  0  0  0
    1.2292    4.9208    0.0000 C   0  0  0  0  0  0  0  0  0  0  0  0
    1.9333   -4.2125    0.0000 C   0  0  0  0  0  0  0  0  0  0  0  0
    0.2625   -4.6667    0.0000 C   0  0  0  0  0  0  0  0  0  0  0  0
    1.2292   -4.9208    0.0000 C   0  0  0  0  0  0  0  0  0  0  0  0
  1  2  2  0  0  0  0
  2  3  1  0  0  0  0
  4  6  1  0  0  0  0
  1  5  1  0  0  0  0
  5  6  2  0  0  0  0
  2  7  1  0  0  0  0
  6  8  1  0  0  0  0
  8  9  1  0  0  0  0
  5 10  1  0  0  0  0
  4 11  2  0  0  0  0
  9 12  1  0  0  0  0
 12 13  2  0  0  0  0
 10 14  2  0  0  0  0
 14 15  1  0  0  0  0
  7 16  1  0  0  0  0
  7 17  1  0  0  0  0
  9 18  2  0  0  0  0
 13 19  1  0  0  0  0
 18 20  1  0  0  0  0
 20 21  2  0  0  0  0
 19 22  1  0  0  0  0
 17 23  1  0  0  0  0
 16 24  1  0  0  0  0
 23 25  1  0  0  0  0
  3  4  1  0  0  0  0
  8 15  2  0  0  0  0
 24 25  1  0  0  0  0
 13 21  1  0  0  0  0
M  END
> <MOLFORMULA>
C19 H20 N4 O2

> <MOLWEIGHT>
3.363930000000000e+002

> <IDNUMBER>
AN-153/J107082

> <PRICE>
EUR 130/10 mg

> <Similarity score>
0.19

$$$$

  -OEChem-04222410502D

 33 37  0     0  0  0  0  0  0999 V2000
   -0.3792   -0.6542    0.0000 C   0  0  0  0  0  0  0  0  0  0  0  0
    0.1875    0.9833    0.0000 C   0  0  0  0  0  0  0  0  0  0  0  0
   -0.5708    0.3292    0.0000 N   0  0  0  0  0  0  0  0  0  0  0  0
   -0.9458   -2.2875    0.0000 C   0  0  0  0  0  0  0  0  0  0  0  0
    0.5667   -0.9792    0.0000 N   0  0  0  0  0  0  0  0  0  0  0  0
   -0.3792    3.9292    0.0000 C   0  0  0  0  0  0  0  0  0  0  0  0
    1.1333    0.6583    0.0000 C   0  0  0  0  0  0  0  0  0  0  0  0
   -0.0042    1.9667    0.0000 C   0  0  0  0  0  0  0  0  0  0  0  0
    0.5667    3.6042    0.0000 N   0  0  0  0  0  0  0  0  0  0  0  0
   -1.1375   -1.3083    0.0000 N   0  0  0  0  0  0  0  0  0  0  0  0
    1.3208   -0.3250    0.0000 C   0  0  0  0  0  0  0  0  0  0  0  0
   -0.0042   -2.6167    0.0000 N   0  0  0  0  0  0  0  0  0  0  0  0
   -1.7042   -2.9458    0.0000 N   0  0  0  0  0  0  0  0  0  0  0  0
   -0.5708   -4.2542    0.0000 C   0  0  0  0  0  0  0  0  0  0  0  0
   -1.1375    3.2750    0.0000 N   0  0  0  0  0  0  0  0  0  0  0  0
    0.7542    2.6208    0.0000 C   0  0  0  0  0  0  0  0  0  0  0  0
   -0.5708    4.9083    0.0000 N   0  0  3  0  0  0  0  0  0  0  0  0
    0.1875   -3.6000    0.0000 C   0  0  0  0  0  0  0  0  0  0  0  0
   -1.5125   -3.9250    0.0000 C   0  0  0  0  0  0  0  0  0  0  0  0
   -0.9458    2.2917    0.0000 C   0  0  0  0  0  0  0  0  0  0  0  0
   -0.3792   -5.2333    0.0000 C   0  0  0  0  0  0  0  0  0  0  0  0
    2.2667   -0.6542    0.0000 O   0  0  0  0  0  0  0  0  0  0  0  0
   -2.2708   -4.5792    0.0000 C   0  0  0  0  0  0  0  0  0  0  0  0
   -0.9458    6.8708    0.0000 O   0  0  0  0  0  0  0  0  0  0  0  0
   -1.1375   -5.8917    0.0000 C   0  0  0  0  0  0  0  0  0  0  0  0
   -2.0792   -5.5625    0.0000 C   0  0  0  0  0  0  0  0  0  0  0  0
   -1.5125    5.2333    0.0000 C   0  0  0  0  0  0  0  0  0  0  0  0
    0.1875    5.5625    0.0000 C   0  0  0  0  0  0  0  0  0  0  0  0
    1.7000    2.2917    0.0000 C   0  0  0  0  0  0  0  0  0  0  0  0
    1.1333   -3.9250    0.0000 C   0  0  0  0  0  0  0  0  0  0  0  0
   -1.7042    6.2167    0.0000 C   0  0  0  0  0  0  0  0  0  0  0  0
   -0.0042    6.5458    0.0000 C   0  0  0  0  0  0  0  0  0  0  0  0
   -0.9458   -6.8708    0.0000 C   0  0  0  0  0  0  0  0  0  0  0  0
  2  3  1  0  0  0  0
  1  3  2  0  0  0  0
  4 10  1  0  0  0  0
  1  5  1  0  0  0  0
  6 15  2  0  0  0  0
  7 11  1  0  0  0  0
  2  8  1  0  0  0  0
  9 16  2  0  0  0  0
  1 10  1  0  0  0  0
  5 11  1  0  0  0  0
  4 12  1  0  0  0  0
  4 13  2  0  0  0  0
 14 19  2  0  0  0  0
 15 20  1  0  0  0  0
  8 16  1  0  0  0  0
  6 17  1  0  0  0  0
 12 18  2  0  0  0  0
 13 19  1  0  0  0  0
  8 20  2  0  0  0  0
 14 21  1  0  0  0  0
 11 22  2  0  0  0  0
 19 23  1  0  0  0  0
 24 31  1  0  0  0  0
 25 26  1  0  0  0  0
 23 26  2  0  0  0  0
 17 27  1  0  0  0  0
 17 28  1  0  0  0  0
 16 29  1  0  0  0  0
 18 30  1  0  0  0  0
 27 31  1  0  0  0  0
 28 32  1  0  0  0  0
 25 33  1  0  0  0  0
  2  7  2  0  0  0  0
 14 18  1  0  0  0  0
  6  9  1  0  0  0  0
 21 25  2  0  0  0  0
 24 32  1  0  0  0  0
M  END
> <MOLFORMULA>
C23 H24 N8 O2

> <MOLWEIGHT>
4.444966000000000e+002

> <IDNUMBER>
AN-153/NB22715

> <PRICE>
EUR 130/10 mg

> <Similarity score>
0.19

$$$$

  -OEChem-04222410502D

 33 38  0     0  0  0  0  0  0999 V2000
    5.2250   -0.9167    0.0000 C   0  0  0  0  0  0  0  0  0  0  0  0
    5.9375    0.3208    0.0000 C   0  0  0  0  0  0  0  0  0  0  0  0
    5.9375   -0.5042    0.0000 C   0  0  0  0  0  0  0  0  0  0  0  0
    4.5167   -0.5042    0.0000 C   0  0  0  0  0  0  0  0  0  0  0  0
    5.2250   -3.3875    0.0000 C   0  0  0  0  0  0  0  0  0  0  0  0
    5.2250    0.7333    0.0000 O   0  0  0  0  0  0  0  0  0  0  0  0
    5.2292   -4.2125    0.0000 C   0  0  0  0  0  0  0  0  0  0  0  0
    5.2250   -1.7375    0.0000 C   0  0  0  0  0  0  0  0  0  0  0  0
    4.5042   -2.9750    0.0000 N   0  0  0  0  0  0  0  0  0  0  0  0
    4.5167    0.3208    0.0000 C   0  0  0  0  0  0  0  0  0  0  0  0
    5.9417   -2.9667    0.0000 C   0  0  0  0  0  0  0  0  0  0  0  0
    5.9375   -2.1500    0.0000 C   0  0  0  0  0  0  0  0  0  0  0  0
    6.6667   -4.2042    0.0000 O   0  0  0  0  0  0  0  0  0  0  0  0
    5.9417   -4.6250    0.0000 C   0  0  0  0  0  0  0  0  0  0  0  0
    4.5042   -2.1500    0.0000 C   0  0  0  0  0  0  0  0  0  0  0  0
    6.6542   -3.3792    0.0000 C   0  0  0  0  0  0  0  0  0  0  0  0
    3.8042   -0.9167    0.0000 C   0  0  0  0  0  0  0  0  0  0  0  0
    6.6542    0.7333    0.0000 O   0  0  0  0  0  0  0  0  0  0  0  0
    4.5167   -4.6250    0.0000 C   0  0  0  0  0  0  0  0  0  0  0  0
    6.6500   -0.9167    0.0000 C   0  0  0  0  0  0  0  0  0  0  0  0
    3.8042    0.7333    0.0000 C   0  0  0  0  0  0  0  0  0  0  0  0
    5.9500   -5.4500    0.0000 C   0  0  0  0  0  0  0  0  0  0  0  0
    3.0917   -0.5042    0.0000 C   0  0  0  0  0  0  0  0  0  0  0  0
    4.5167   -5.4500    0.0000 C   0  0  0  0  0  0  0  0  0  0  0  0
    3.0917    0.3208    0.0000 C   0  0  0  0  0  0  0  0  0  0  0  0
    5.2375   -5.8625    0.0000 C   0  0  0  0  0  0  0  0  0  0  0  0
    2.3792   -0.9167    0.0000 Cl  0  0  0  0  0  0  0  0  0  0  0  0
    3.8042   -5.8667    0.0000 Cl  0  0  0  0  0  0  0  0  0  0  0  0
    7.3625   -0.5042    0.0000 C   0  0  0  0  0  0  0  0  0  0  0  0
    6.6500   -1.7417    0.0000 C   0  0  0  0  0  0  0  0  0  0  0  0
    7.3625   -2.1542    0.0000 C   0  0  0  0  0  0  0  0  0  0  0  0
    8.0750   -0.9167    0.0000 C   0  0  0  0  0  0  0  0  0  0  0  0
    8.0792   -1.7417    0.0000 C   0  0  0  0  0  0  0  0  0  0  0  0
  2  3  1  0  0  0  0
  1  3  2  0  0  0  0
  1  4  1  0  0  0  0
  5  9  2  0  0  0  0
  6 10  1  0  0  0  0
  5  7  1  0  0  0  0
  1  8  1  0  0  0  0
  9 15  1  0  0  0  0
  4 10  2  0  0  0  0
 11 12  2  0  0  0  0
  8 12  1  0  0  0  0
 13 16  1  0  0  0  0
  7 14  1  0  0  0  0
  8 15  2  0  0  0  0
 11 16  1  0  0  0  0
  4 17  1  0  0  0  0
  2 18  2  0  0  0  0
  7 19  2  0  0  0  0
  3 20  1  0  0  0  0
 10 21  1  0  0  0  0
 14 22  2  0  0  0  0
 17 23  2  0  0  0  0
 19 24  1  0  0  0  0
 23 25  1  0  0  0  0
 24 26  2  0  0  0  0
 23 27  1  0  0  0  0
 24 28  1  0  0  0  0
 20 29  1  0  0  0  0
 20 30  2  0  0  0  0
 30 31  1  0  0  0  0
 29 32  2  0  0  0  0
 31 33  2  0  0  0  0
  5 11  1  0  0  0  0
  2  6  1  0  0  0  0
 21 25  2  0  0  0  0
 32 33  1  0  0  0  0
 13 14  1  0  0  0  0
 22 26  1  0  0  0  0
M  END
> <MOLFORMULA>
C27 H15 Cl2 N O3

> <MOLWEIGHT>
4.723255000000000e+002

> <IDNUMBER>
AQ-358/J254344

> <PRICE>
EUR 29.00/10 mg

> <Similarity score>
0.19

$$$$

  -OEChem-04222410502D

 20 22  0     0  0  0  0  0  0999 V2000
    5.6292   -6.7042    0.0000 N   0  0  0  0  0  0  0  0  0  0  0  0
    4.9167   -6.2917    0.0000 C   0  0  0  0  0  0  0  0  0  0  0  0
    6.3417   -6.2917    0.0000 C   0  0  0  0  0  0  0  0  0  0  0  0
    4.9167   -5.4625    0.0000 C   0  0  0  0  0  0  0  0  0  0  0  0
    4.2000   -6.7042    0.0000 N   0  0  3  0  0  0  0  0  0  0  0  0
    6.3417   -5.4625    0.0000 N   0  0  0  0  0  0  0  0  0  0  0  0
    7.0625   -6.7042    0.0000 N   0  0  0  0  0  0  0  0  0  0  0  0
    5.6292   -5.0500    0.0000 C   0  0  0  0  0  0  0  0  0  0  0  0
    2.7750   -7.5167    0.0000 O   0  0  0  0  0  0  0  0  0  0  0  0
    4.2042   -5.0542    0.0000 F   0  0  0  0  0  0  0  0  0  0  0  0
    7.7750   -6.2875    0.0000 C   0  0  0  0  0  0  0  0  0  0  0  0
    4.2042   -7.5250    0.0000 C   0  0  0  0  0  0  0  0  0  0  0  0
    3.4917   -6.2875    0.0000 C   0  0  0  0  0  0  0  0  0  0  0  0
    2.7792   -6.6917    0.0000 C   0  0  0  0  0  0  0  0  0  0  0  0
    3.4875   -7.9292    0.0000 C   0  0  0  0  0  0  0  0  0  0  0  0
    8.4875   -6.6917    0.0000 C   0  0  0  0  0  0  0  0  0  0  0  0
    7.7667   -5.4667    0.0000 C   0  0  0  0  0  0  0  0  0  0  0  0
    8.4667   -5.0417    0.0000 C   0  0  0  0  0  0  0  0  0  0  0  0
    9.2000   -6.2792    0.0000 C   0  0  0  0  0  0  0  0  0  0  0  0
    9.1917   -5.4542    0.0000 C   0  0  0  0  0  0  0  0  0  0  0  0
  1  2  1  0  0  0  0
  1  3  2  0  0  0  0
  2  4  2  0  0  0  0
  2  5  1  0  0  0  0
  3  6  1  0  0  0  0
  3  7  1  0  0  0  0
  6  8  2  0  0  0  0
  9 14  1  0  0  0  0
  4 10  1  0  0  0  0
  7 11  1  0  0  0  0
  5 12  1  0  0  0  0
  5 13  1  0  0  0  0
 13 14  1  0  0  0  0
 12 15  1  0  0  0  0
 11 16  2  0  0  0  0
 11 17  1  0  0  0  0
 17 18  2  0  0  0  0
 16 19  1  0  0  0  0
 18 20  1  0  0  0  0
  4  8  1  0  0  0  0
  9 15  1  0  0  0  0
 19 20  2  0  0  0  0
M  END
> <MOLFORMULA>
C14 H15 F N4 O

> <MOLWEIGHT>
2.742975000000000e+002

> <IDNUMBER>
AT-138/QI00259

> <CHIRALFLAG>
-

> <PRICE>
EUR 125.00/10 mg

> <Similarity score>
0.19

$$$$

  -OEChem-04222410502D

 27 30  0     0  0  0  0  0  0999 V2000
    5.9792  -12.2792    0.0000 N   0  0  0  0  0  0  0  0  0  0  0  0
    5.2667  -11.8667    0.0000 C   0  0  0  0  0  0  0  0  0  0  0  0
    6.7000  -11.8667    0.0000 C   0  0  0  0  0  0  0  0  0  0  0  0
    5.2667  -11.0417    0.0000 C   0  0  0  0  0  0  0  0  0  0  0  0
    4.5542  -12.2792    0.0000 N   0  0  3  0  0  0  0  0  0  0  0  0
    6.7000  -11.0417    0.0000 N   0  0  0  0  0  0  0  0  0  0  0  0
   12.4125  -12.6042    0.0000 C   0  0  0  0  0  0  0  0  0  0  0  0
    8.8417  -12.2792    0.0000 C   0  0  0  0  0  0  0  0  0  0  0  0
   12.4375  -13.4292    0.0000 C   0  0  0  0  0  0  0  0  0  0  0  0
   13.1917  -12.3292    0.0000 O   0  0  0  0  0  0  0  0  0  0  0  0
    5.9792  -10.6292    0.0000 C   0  0  0  0  0  0  0  0  0  0  0  0
   13.2292  -13.6667    0.0000 O   0  0  0  0  0  0  0  0  0  0  0  0
    7.4167  -12.2792    0.0000 S   0  0  0  0  0  0  0  0  0  0  0  0
   13.6917  -12.9792    0.0000 C   0  0  0  0  0  0  0  0  0  0  0  0
    9.5542  -12.6667    0.0000 N   0  0  0  0  0  0  0  0  0  0  0  0
   11.6917  -12.2042    0.0000 C   0  0  0  0  0  0  0  0  0  0  0  0
    8.8375  -11.4417    0.0000 O   0  0  0  0  0  0  0  0  0  0  0  0
   11.7250  -13.8625    0.0000 C   0  0  0  0  0  0  0  0  0  0  0  0
    4.5542  -10.6292    0.0000 F   0  0  0  0  0  0  0  0  0  0  0  0
    8.1292  -12.6917    0.0000 C   0  0  0  0  0  0  0  0  0  0  0  0
   10.9875  -12.6417    0.0000 C   0  0  0  0  0  0  0  0  0  0  0  0
   10.2667  -12.2417    0.0000 C   0  0  0  0  0  0  0  0  0  0  0  0
   11.0042  -13.4667    0.0000 C   0  0  0  0  0  0  0  0  0  0  0  0
    3.8042  -11.9500    0.0000 C   0  0  0  0  0  0  0  0  0  0  0  0
    4.4667  -13.1042    0.0000 C   0  0  0  0  0  0  0  0  0  0  0  0
    3.6625  -13.2792    0.0000 C   0  0  0  0  0  0  0  0  0  0  0  0
    3.2542  -12.5625    0.0000 C   0  0  0  0  0  0  0  0  0  0  0  0
  1  2  1  0  0  0  0
  1  3  2  0  0  0  0
  2  4  2  0  0  0  0
  2  5  1  0  0  0  0
  3  6  1  0  0  0  0
  7 16  2  0  0  0  0
  8 20  1  0  0  0  0
  9 18  2  0  0  0  0
  7 10  1  0  0  0  0
  6 11  2  0  0  0  0
  9 12  1  0  0  0  0
  3 13  1  0  0  0  0
 10 14  1  0  0  0  0
  8 15  1  0  0  0  0
 16 21  1  0  0  0  0
  8 17  2  0  0  0  0
 18 23  1  0  0  0  0
  4 19  1  0  0  0  0
 13 20  1  0  0  0  0
 21 22  1  0  0  0  0
 15 22  1  0  0  0  0
 21 23  2  0  0  0  0
  5 24  1  0  0  0  0
  5 25  1  0  0  0  0
 25 26  1  0  0  0  0
 24 27  1  0  0  0  0
  4 11  1  0  0  0  0
 26 27  1  0  0  0  0
  7  9  1  0  0  0  0
 12 14  1  0  0  0  0
M  END
> <MOLFORMULA>
C18 H19 F N4 O3 S

> <MOLWEIGHT>
3.904371000000000e+002

> <IDNUMBER>
AT-138/QI00742

> <CHIRALFLAG>
-

> <PRICE>
EUR 125.00/10 mg

> <Similarity score>
0.19

$$$$

  -OEChem-04222410502D

 28 31  0     0  0  0  0  0  0999 V2000
    5.9792   -4.6042    0.0000 S   0  0  3  0  0  0  0  0  0  0  0  0
    4.6375   -4.6042    0.0000 C   0  0  0  0  0  0  0  0  0  0  0  0
    3.9667   -3.4542    0.0000 C   0  0  0  0  0  0  0  0  0  0  0  0
    2.6625   -3.4542    0.0000 C   0  0  0  0  0  0  0  0  0  0  0  0
    7.3042   -4.6042    0.0000 C   0  0  0  0  0  0  0  0  0  0  0  0
    4.6375   -2.3000    0.0000 N   0  0  3  0  0  0  0  0  0  0  0  0
    3.9667   -5.7542    0.0000 C   0  0  0  0  0  0  0  0  0  0  0  0
    2.6625   -5.7542    0.0000 N   0  0  0  0  0  0  0  0  0  0  0  0
    7.9667   -3.4542    0.0000 C   0  0  0  0  0  0  0  0  0  0  0  0
    1.9917   -4.6042    0.0000 C   0  0  0  0  0  0  0  0  0  0  0  0
    9.3000   -3.4542    0.0000 C   0  0  0  0  0  0  0  0  0  0  0  0
    5.9792   -3.2667    0.0000 O   0  0  0  0  0  0  0  0  0  0  0  0
    5.9792   -5.9375    0.0000 O   0  0  0  0  0  0  0  0  0  0  0  0
    1.9917   -2.3000    0.0000 C   0  0  0  0  0  0  0  0  0  0  0  0
    9.9542   -4.6042    0.0000 C   0  0  0  0  0  0  0  0  0  0  0  0
    7.9667   -5.7542    0.0000 C   0  0  0  0  0  0  0  0  0  0  0  0
    5.9792   -0.0000    0.0000 S   0  0  0  0  0  0  0  0  0  0  0  0
    9.3000   -5.7542    0.0000 C   0  0  0  0  0  0  0  0  0  0  0  0
    0.6625   -4.6042    0.0000 C   0  0  0  0  0  0  0  0  0  0  0  0
    0.6625   -2.3000    0.0000 C   0  0  0  0  0  0  0  0  0  0  0  0
    9.9542   -2.3000    0.0000 F   0  0  0  0  0  0  0  0  0  0  0  0
   11.2875   -4.6042    0.0000 F   0  0  0  0  0  0  0  0  0  0  0  0
    0.0000   -3.4542    0.0000 C   0  0  0  0  0  0  0  0  0  0  0  0
    0.0000   -1.1500    0.0000 F   0  0  0  0  0  0  0  0  0  0  0  0
    3.9667   -1.1500    0.0000 C   0  0  0  0  0  0  0  0  0  0  0  0
    5.9792   -2.3000    0.0000 C   0  0  0  0  0  0  0  0  0  0  0  0
    4.6375   -0.0000    0.0000 C   0  0  0  0  0  0  0  0  0  0  0  0
    6.6500   -1.1500    0.0000 C   0  0  0  0  0  0  0  0  0  0  0  0
  1  2  1  0  0  0  0
  2  3  2  0  0  0  0
  3  4  1  0  0  0  0
  1  5  1  0  0  0  0
  3  6  1  0  0  0  0
  2  7  1  0  0  0  0
  7  8  2  0  0  0  0
  5  9  1  0  0  0  0
  8 10  1  0  0  0  0
  9 11  2  0  0  0  0
  1 12  2  0  0  0  0
  1 13  2  0  0  0  0
  4 14  2  0  0  0  0
 15 18  2  0  0  0  0
  5 16  2  0  0  0  0
 17 28  1  0  0  0  0
 16 18  1  0  0  0  0
 10 19  2  0  0  0  0
 14 20  1  0  0  0  0
 11 21  1  0  0  0  0
 15 22  1  0  0  0  0
 19 23  1  0  0  0  0
 20 24  1  0  0  0  0
  6 25  1  0  0  0  0
  6 26  1  0  0  0  0
 25 27  1  0  0  0  0
 26 28  1  0  0  0  0
 11 15  1  0  0  0  0
  4 10  1  0  0  0  0
 17 27  1  0  0  0  0
 20 23  2  0  0  0  0
M  END
> <MOLFORMULA>
C19 H15 F3 N2 O2 S2

> <MOLWEIGHT>
4.244655000000000e+002

> <IDNUMBER>
AT-687/NB06801

> <PRICE>
EUR 80/10 mg

> <Similarity score>
0.19

$$$$

  -OEChem-04222410502D

 24 28  0     0  0  0  0  0  0999 V2000
    5.4292    1.8417    0.0000 C   0  0  0  0  0  0  0  0  0  0  0  0
    6.4667    2.4375    0.0000 C   0  0  0  0  0  0  0  0  0  0  0  0
    6.4667    1.8417    0.0000 N   0  0  0  0  0  0  0  0  0  0  0  0
    5.4292    2.4375    0.0000 C   0  0  0  0  0  0  0  0  0  0  0  0
    5.9500    2.7375    0.0000 C   0  0  0  0  0  0  0  0  0  0  0  0
    6.9875    2.7375    0.0000 C   0  0  0  0  0  0  0  0  0  0  0  0
    4.9083    1.5417    0.0000 C   0  0  0  0  0  0  0  0  0  0  0  0
    7.5083    2.4375    0.0000 C   0  0  0  0  0  0  0  0  0  0  0  0
    5.9500    1.5417    0.0000 C   0  0  0  0  0  0  0  0  0  0  0  0
    6.9875    3.3375    0.0000 C   0  0  0  0  0  0  0  0  0  0  0  0
    8.0250    2.7375    0.0000 C   0  0  0  0  0  0  0  0  0  0  0  0
    8.0250    3.3375    0.0000 C   0  0  0  0  0  0  0  0  0  0  0  0
    7.5083    3.6375    0.0000 C   0  0  0  0  0  0  0  0  0  0  0  0
    5.9500    3.3375    0.0000 C   0  0  0  0  0  0  0  0  0  0  0  0
    4.9083    2.7375    0.0000 C   0  0  0  0  0  0  0  0  0  0  0  0
    8.5958    2.5542    0.0000 O   0  0  0  0  0  0  0  0  0  0  0  0
    8.5958    3.5250    0.0000 O   0  0  0  0  0  0  0  0  0  0  0  0
    4.3917    1.8417    0.0000 C   0  0  0  0  0  0  0  0  0  0  0  0
    8.9500    3.0417    0.0000 C   0  0  0  0  0  0  0  0  0  0  0  0
    6.4667    3.6375    0.0000 C   0  0  0  0  0  0  0  0  0  0  0  0
    4.3917    2.4375    0.0000 C   0  0  0  0  0  0  0  0  0  0  0  0
    4.9083    0.9417    0.0000 O   0  0  0  0  0  0  0  0  0  0  0  0
    3.8708    1.5417    0.0000 O   0  0  0  0  0  0  0  0  0  0  0  0
    4.3917    0.6417    0.0000 C   0  0  0  0  0  0  0  0  0  0  0  0
  2  3  1  0  0  0  0
  3  9  2  0  0  0  0
  1  4  2  0  0  0  0
  4  5  1  0  0  0  0
  2  6  1  0  0  0  0
  1  7  1  0  0  0  0
  6  8  1  0  0  0  0
  1  9  1  0  0  0  0
  6 10  2  0  0  0  0
  8 11  2  0  0  0  0
 11 12  1  0  0  0  0
 10 13  1  0  0  0  0
  5 14  1  0  0  0  0
  4 15  1  0  0  0  0
 11 16  1  0  0  0  0
 12 17  1  0  0  0  0
  7 18  2  0  0  0  0
 16 19  1  0  0  0  0
 14 20  2  0  0  0  0
 15 21  2  0  0  0  0
  7 22  1  0  0  0  0
 18 23  1  0  0  0  0
 22 24  1  0  0  0  0
  2  5  2  0  0  0  0
 18 21  1  0  0  0  0
 10 20  1  0  0  0  0
 12 13  2  0  0  0  0
 17 19  1  0  0  0  0
M  END
> <MOLFORMULA>
C19 H13 N O4

> <MOLWEIGHT>
3.193147000000000e+002

> <IDNUMBER>
AT-358/LC03042

> <Similarity score>
0.19

$$$$

  -OEChem-04222410502D

 32 35  0     0  0  0  0  0  0999 V2000
    4.6042   -6.6292    0.0000 S   0  0  3  0  0  0  0  0  0  0  0  0
    5.7417   -7.3000    0.0000 C   0  0  0  0  0  0  0  0  0  0  0  0
    6.9042   -1.3167    0.0000 S   0  0  3  0  0  0  0  0  0  0  0  0
    6.9042   -6.6292    0.0000 C   0  0  0  0  0  0  0  0  0  0  0  0
    6.9042   -2.6417    0.0000 N   0  0  3  0  0  0  0  0  0  0  0  0
    8.0542   -7.3000    0.0000 C   0  0  0  0  0  0  0  0  0  0  0  0
    3.4542   -5.9750    0.0000 C   0  0  0  0  0  0  0  0  0  0  0  0
    6.9042   -5.3042    0.0000 N   0  0  3  0  0  0  0  0  0  0  0  0
    8.0542   -8.6250    0.0000 C   0  0  0  0  0  0  0  0  0  0  0  0
    6.9042   -9.2917    0.0000 N   0  0  0  0  0  0  0  0  0  0  0  0
    5.7417   -8.6375    0.0000 C   0  0  0  0  0  0  0  0  0  0  0  0
    3.4542   -4.6375    0.0000 C   0  0  0  0  0  0  0  0  0  0  0  0
    2.3000   -3.9792    0.0000 C   0  0  0  0  0  0  0  0  0  0  0  0
    5.2625   -5.4917    0.0000 O   0  0  0  0  0  0  0  0  0  0  0  0
    3.9375   -7.7917    0.0000 O   0  0  0  0  0  0  0  0  0  0  0  0
    8.0542   -3.3167    0.0000 C   0  0  0  0  0  0  0  0  0  0  0  0
    5.7417   -3.3167    0.0000 C   0  0  0  0  0  0  0  0  0  0  0  0
    9.2000   -6.6292    0.0000 C   0  0  0  0  0  0  0  0  0  0  0  0
    5.5667   -1.3167    0.0000 O   0  0  0  0  0  0  0  0  0  0  0  0
    8.2292   -1.3167    0.0000 O   0  0  0  0  0  0  0  0  0  0  0  0
    9.2000   -9.2917    0.0000 C   0  0  0  0  0  0  0  0  0  0  0  0
    5.7417   -4.6375    0.0000 C   0  0  0  0  0  0  0  0  0  0  0  0
    8.0542   -4.6375    0.0000 C   0  0  0  0  0  0  0  0  0  0  0  0
    1.1500   -4.6375    0.0000 C   0  0  0  0  0  0  0  0  0  0  0  0
    2.3000   -6.6292    0.0000 C   0  0  0  0  0  0  0  0  0  0  0  0
    1.1500   -5.9750    0.0000 C   0  0  0  0  0  0  0  0  0  0  0  0
   10.3625   -8.6250    0.0000 C   0  0  0  0  0  0  0  0  0  0  0  0
    6.9042   -0.0000    0.0000 C   0  0  0  0  0  0  0  0  0  0  0  0
    2.3000   -2.6417    0.0000 Cl  0  0  0  0  0  0  0  0  0  0  0  0
   10.3625   -7.3000    0.0000 C   0  0  0  0  0  0  0  0  0  0  0  0
    0.0000   -3.9792    0.0000 F   0  0  0  0  0  0  0  0  0  0  0  0
   11.5167   -9.2917    0.0000 F   0  0  0  0  0  0  0  0  0  0  0  0
  1  2  1  0  0  0  0
  3  5  1  0  0  0  0
  2  4  2  0  0  0  0
  5 16  1  0  0  0  0
  4  6  1  0  0  0  0
  1  7  1  0  0  0  0
  4  8  1  0  0  0  0
  9 10  1  0  0  0  0
 10 11  2  0  0  0  0
  2 11  1  0  0  0  0
  7 12  1  0  0  0  0
 12 13  2  0  0  0  0
  1 14  2  0  0  0  0
  1 15  2  0  0  0  0
 16 23  1  0  0  0  0
 17 22  1  0  0  0  0
  6 18  2  0  0  0  0
  3 19  2  0  0  0  0
  3 20  2  0  0  0  0
  9 21  2  0  0  0  0
  8 22  1  0  0  0  0
  8 23  1  0  0  0  0
 24 26  2  0  0  0  0
  7 25  2  0  0  0  0
 25 26  1  0  0  0  0
 21 27  1  0  0  0  0
  3 28  1  0  0  0  0
 13 29  1  0  0  0  0
 18 30  1  0  0  0  0
 24 31  1  0  0  0  0
 27 32  1  0  0  0  0
 13 24  1  0  0  0  0
  6  9  1  0  0  0  0
  5 17  1  0  0  0  0
 27 30  2  0  0  0  0
M  END
> <MOLFORMULA>
C20 H18 Cl F2 N3 O4 S2

> <MOLWEIGHT>
5.019602000000000e+002

> <IDNUMBER>
AT-687/NB06818

> <PRICE>
EUR 80/10 mg

> <Similarity score>
0.19

$$$$

  -OEChem-04222410502D

 22 25  0     0  0  0  0  0  0999 V2000
    5.5625   -2.7917    0.0000 C   0  0  0  0  0  0  0  0  0  0  0  0
    5.8500   -1.4792    0.0000 N   0  0  0  0  0  0  0  0  0  0  0  0
    4.8417   -2.3667    0.0000 C   0  0  0  0  0  0  0  0  0  0  0  0
    5.0250   -1.5542    0.0000 N   0  0  0  0  0  0  0  0  0  0  0  0
    6.1792   -2.2375    0.0000 C   0  0  0  0  0  0  0  0  0  0  0  0
    4.1292   -2.7917    0.0000 C   0  0  0  0  0  0  0  0  0  0  0  0
    5.5667   -3.6250    0.0000 C   0  0  0  0  0  0  0  0  0  0  0  0
    4.8417   -4.0375    0.0000 N   0  0  0  0  0  0  0  0  0  0  0  0
    4.1250   -3.6250    0.0000 C   0  0  0  0  0  0  0  0  0  0  0  0
    6.9917   -2.4167    0.0000 C   0  0  0  0  0  0  0  0  0  0  0  0
    3.4125   -2.3792    0.0000 C   0  0  0  0  0  0  0  0  0  0  0  0
    7.2375   -3.2042    0.0000 C   0  0  0  0  0  0  0  0  0  0  0  0
    7.5417   -1.8042    0.0000 C   0  0  0  0  0  0  0  0  0  0  0  0
    3.4125   -4.0292    0.0000 C   0  0  0  0  0  0  0  0  0  0  0  0
    2.7000   -2.7917    0.0000 C   0  0  0  0  0  0  0  0  0  0  0  0
    2.7000   -3.6167    0.0000 C   0  0  0  0  0  0  0  0  0  0  0  0
    8.3417   -1.9792    0.0000 C   0  0  0  0  0  0  0  0  0  0  0  0
    8.0417   -3.3792    0.0000 C   0  0  0  0  0  0  0  0  0  0  0  0
    8.6000   -2.7667    0.0000 C   0  0  0  0  0  0  0  0  0  0  0  0
    9.4042   -2.9417    0.0000 C   0  0  0  0  0  0  0  0  0  0  0  0
    1.9875   -2.3792    0.0000 C   0  0  0  0  0  0  0  0  0  0  0  0
    9.9542   -2.3292    0.0000 C   0  0  0  0  0  0  0  0  0  0  0  0
  2  5  2  0  0  0  0
  1  3  2  0  0  0  0
  3  4  1  0  0  0  0
  1  5  1  0  0  0  0
  3  6  1  0  0  0  0
  1  7  1  0  0  0  0
  7  8  2  0  0  0  0
  8  9  1  0  0  0  0
  5 10  1  0  0  0  0
  6 11  2  0  0  0  0
 10 12  2  0  0  0  0
 10 13  1  0  0  0  0
  9 14  2  0  0  0  0
 11 15  1  0  0  0  0
 14 16  1  0  0  0  0
 13 17  2  0  0  0  0
 12 18  1  0  0  0  0
 17 19  1  0  0  0  0
 19 20  1  0  0  0  0
 15 21  1  0  0  0  0
 20 22  1  0  0  0  0
  2  4  1  0  0  0  0
  6  9  1  0  0  0  0
 15 16  2  0  0  0  0
 18 19  2  0  0  0  0
M  END
> <MOLFORMULA>
C19 H17 N3

> <MOLWEIGHT>
2.873643000000000e+002

> <IDNUMBER>
AT-687/SK17428

> <PRICE>
EUR 80/10 mg

> <Similarity score>
0.19

$$$$

  -OEChem-04222410502D

 26 29  0     0  0  0  0  0  0999 V2000
   -0.5000   -2.3917    0.0000 N   0  0  0  0  0  0  0  0  0  0  0  0
    0.4958   -2.4875    0.0000 C   0  0  0  0  0  0  0  0  0  0  0  0
    1.0750   -1.6750    0.0000 N   0  0  0  0  0  0  0  0  0  0  0  0
    0.6625   -0.7625    0.0000 C   0  0  0  0  0  0  0  0  0  0  0  0
   -0.9125   -1.4833    0.0000 C   0  0  0  0  0  0  0  0  0  0  0  0
   -0.3333   -0.6667    0.0000 C   0  0  0  0  0  0  0  0  0  0  0  0
    0.9083   -3.4000    0.0000 N   0  0  3  0  0  0  0  0  0  0  0  0
   -0.7500    0.2417    0.0000 C   0  0  0  0  0  0  0  0  0  0  0  0
   -1.9083   -1.3875    0.0000 N   0  0  0  0  0  0  0  0  0  0  0  0
    1.2417    0.0500    0.0000 O   0  0  0  0  0  0  0  0  0  0  0  0
   -0.1667    1.0542    0.0000 C   0  0  0  0  0  0  0  0  0  0  0  0
    0.8292    0.9583    0.0000 C   0  0  0  0  0  0  0  0  0  0  0  0
   -0.5833    1.9667    0.0000 C   0  0  0  0  0  0  0  0  0  0  0  0
    0.9917    2.6833    0.0000 C   0  0  0  0  0  0  0  0  0  0  0  0
   -2.3250   -0.4750    0.0000 C   0  0  0  0  0  0  0  0  0  0  0  0
    1.4083    1.7750    0.0000 C   0  0  0  0  0  0  0  0  0  0  0  0
    0.0000    2.7792    0.0000 C   0  0  0  0  0  0  0  0  0  0  0  0
   -1.7458    0.3375    0.0000 C   0  0  0  0  0  0  0  0  0  0  0  0
    0.3292   -4.2125    0.0000 C   0  0  0  0  0  0  0  0  0  0  0  0
    1.9042   -3.4917    0.0000 C   0  0  0  0  0  0  0  0  0  0  0  0
    1.5750    3.5000    0.0000 O   0  0  0  0  0  0  0  0  0  0  0  0
    1.1583    4.4042    0.0000 C   0  0  0  0  0  0  0  0  0  0  0  0
    0.7458   -5.1208    0.0000 C   0  0  0  0  0  0  0  0  0  0  0  0
    2.3208   -4.4042    0.0000 C   0  0  0  0  0  0  0  0  0  0  0  0
    1.7417    5.2167    0.0000 C   0  0  0  0  0  0  0  0  0  0  0  0
    1.7417   -5.2167    0.0000 C   0  0  0  0  0  0  0  0  0  0  0  0
  1  2  2  0  0  0  0
  2  3  1  0  0  0  0
  4  6  1  0  0  0  0
  1  5  1  0  0  0  0
  5  6  2  0  0  0  0
  2  7  1  0  0  0  0
  6  8  1  0  0  0  0
  5  9  1  0  0  0  0
  4 10  2  0  0  0  0
  8 11  1  0  0  0  0
 11 12  2  0  0  0  0
 11 13  1  0  0  0  0
 14 16  2  0  0  0  0
  9 15  2  0  0  0  0
 12 16  1  0  0  0  0
 13 17  2  0  0  0  0
 15 18  1  0  0  0  0
  7 19  1  0  0  0  0
  7 20  1  0  0  0  0
 14 21  1  0  0  0  0
 21 22  1  0  0  0  0
 19 23  1  0  0  0  0
 20 24  1  0  0  0  0
 22 25  1  0  0  0  0
 23 26  1  0  0  0  0
  3  4  1  0  0  0  0
  8 18  2  0  0  0  0
 24 26  1  0  0  0  0
 14 17  1  0  0  0  0
M  END
> <MOLFORMULA>
C20 H22 N4 O2

> <MOLWEIGHT>
3.504198000000000e+002

> <IDNUMBER>
AN-153/PE02156

> <PRICE>
EUR 130/10 mg

> <Similarity score>
0.19

$$$$

  -OEChem-04222410502D

 28 31  0     0  0  0  0  0  0999 V2000
    7.3042   -4.6042    0.0000 S   0  0  3  0  0  0  0  0  0  0  0  0
    5.9875   -4.6042    0.0000 C   0  0  0  0  0  0  0  0  0  0  0  0
    5.3167   -3.4542    0.0000 C   0  0  0  0  0  0  0  0  0  0  0  0
    3.9750   -3.4542    0.0000 C   0  0  0  0  0  0  0  0  0  0  0  0
    8.6417   -4.6042    0.0000 C   0  0  0  0  0  0  0  0  0  0  0  0
    3.3292   -4.6042    0.0000 C   0  0  0  0  0  0  0  0  0  0  0  0
    3.9750   -5.7542    0.0000 N   0  0  0  0  0  0  0  0  0  0  0  0
    5.3167   -5.7542    0.0000 C   0  0  0  0  0  0  0  0  0  0  0  0
    5.9875   -2.3042    0.0000 N   0  0  3  0  0  0  0  0  0  0  0  0
   11.9750   -1.1417    0.0000 N   0  0  0  0  0  0  0  0  0  0  0  0
    7.3042   -3.2792    0.0000 O   0  0  0  0  0  0  0  0  0  0  0  0
    7.3042   -5.9375    0.0000 O   0  0  0  0  0  0  0  0  0  0  0  0
    3.3292   -2.3042    0.0000 C   0  0  0  0  0  0  0  0  0  0  0  0
    2.0000   -4.6042    0.0000 C   0  0  0  0  0  0  0  0  0  0  0  0
   11.3042   -2.3042    0.0000 C   0  0  0  0  0  0  0  0  0  0  0  0
    9.3167   -3.4542    0.0000 C   0  0  0  0  0  0  0  0  0  0  0  0
    7.3042   -0.0000    0.0000 S   0  0  0  0  0  0  0  0  0  0  0  0
    1.3292   -3.4542    0.0000 C   0  0  0  0  0  0  0  0  0  0  0  0
   10.6417   -3.4542    0.0000 C   0  0  0  0  0  0  0  0  0  0  0  0
    2.0000   -2.3042    0.0000 C   0  0  0  0  0  0  0  0  0  0  0  0
    0.0000   -3.4542    0.0000 F   0  0  0  0  0  0  0  0  0  0  0  0
    7.3042   -2.3042    0.0000 C   0  0  0  0  0  0  0  0  0  0  0  0
    5.3167   -1.1417    0.0000 C   0  0  0  0  0  0  0  0  0  0  0  0
    9.3167   -5.7542    0.0000 C   0  0  0  0  0  0  0  0  0  0  0  0
   10.6417   -5.7542    0.0000 C   0  0  0  0  0  0  0  0  0  0  0  0
    7.9875   -1.1417    0.0000 C   0  0  0  0  0  0  0  0  0  0  0  0
    5.9875   -0.0000    0.0000 C   0  0  0  0  0  0  0  0  0  0  0  0
   11.3042   -4.6042    0.0000 C   0  0  0  0  0  0  0  0  0  0  0  0
  1  2  1  0  0  0  0
  2  3  2  0  0  0  0
  3  4  1  0  0  0  0
  1  5  1  0  0  0  0
  6  7  1  0  0  0  0
  7  8  2  0  0  0  0
  2  8  1  0  0  0  0
  3  9  1  0  0  0  0
 10 15  3  0  0  0  0
  1 11  2  0  0  0  0
  1 12  2  0  0  0  0
  4 13  2  0  0  0  0
  6 14  2  0  0  0  0
 15 19  1  0  0  0  0
  5 16  1  0  0  0  0
 17 27  1  0  0  0  0
 14 18  1  0  0  0  0
 16 19  2  0  0  0  0
 13 20  1  0  0  0  0
 18 21  1  0  0  0  0
  9 22  1  0  0  0  0
  9 23  1  0  0  0  0
  5 24  2  0  0  0  0
 24 25  1  0  0  0  0
 22 26  1  0  0  0  0
 23 27  1  0  0  0  0
 25 28  2  0  0  0  0
 19 28  1  0  0  0  0
  4  6  1  0  0  0  0
 17 26  1  0  0  0  0
 18 20  2  0  0  0  0
M  END
> <MOLFORMULA>
C20 H16 F N3 O2 S2

> <MOLWEIGHT>
4.134954000000000e+002

> <IDNUMBER>
AT-687/NB06816

> <PRICE>
EUR 80/10 mg

> <Similarity score>
0.18

$$$$

  -OEChem-04222410502D

 25 27  0     0  0  0  0  0  0999 V2000
    4.7417   -1.2292    0.0000 N   0  0  0  0  0  0  0  0  0  0  0  0
    4.0292   -0.8167    0.0000 C   0  0  0  0  0  0  0  0  0  0  0  0
    5.4542   -0.8167    0.0000 C   0  0  0  0  0  0  0  0  0  0  0  0
    4.0292    0.0083    0.0000 C   0  0  0  0  0  0  0  0  0  0  0  0
    3.3125   -1.2292    0.0000 N   0  0  3  0  0  0  0  0  0  0  0  0
    9.0250   -1.2125    0.0000 C   0  0  0  0  0  0  0  0  0  0  0  0
    8.3042   -0.8042    0.0000 C   0  0  0  0  0  0  0  0  0  0  0  0
    9.0292   -2.0417    0.0000 C   0  0  0  0  0  0  0  0  0  0  0  0
    5.4542    0.0083    0.0000 N   0  0  0  0  0  0  0  0  0  0  0  0
    6.1750   -2.0542    0.0000 N   0  0  0  0  0  0  0  0  0  0  0  0
    4.7417    0.4208    0.0000 C   0  0  0  0  0  0  0  0  0  0  0  0
    7.6000   -1.2292    0.0000 C   0  0  0  0  0  0  0  0  0  0  0  0
    8.3167   -2.4625    0.0000 C   0  0  0  0  0  0  0  0  0  0  0  0
    6.1750   -1.2292    0.0000 N   0  0  0  0  0  0  0  0  0  0  0  0
    7.6042   -2.0542    0.0000 C   0  0  0  0  0  0  0  0  0  0  0  0
    6.8917   -2.4667    0.0000 C   0  0  0  0  0  0  0  0  0  0  0  0
    3.3167    0.4208    0.0000 F   0  0  0  0  0  0  0  0  0  0  0  0
    8.3042    0.0208    0.0000 I   0  0  0  0  0  0  0  0  0  0  0  0
    9.7375   -0.7917    0.0000 O   0  0  0  0  0  0  0  0  0  0  0  0
    9.7542   -2.4500    0.0000 O   0  0  0  0  0  0  0  0  0  0  0  0
    2.5625   -0.9000    0.0000 C   0  0  0  0  0  0  0  0  0  0  0  0
    3.2292   -2.0542    0.0000 C   0  0  0  0  0  0  0  0  0  0  0  0
   10.4667   -2.0250    0.0000 C   0  0  0  0  0  0  0  0  0  0  0  0
    2.0042   -1.5125    0.0000 C   0  0  0  0  0  0  0  0  0  0  0  0
    2.4167   -2.2292    0.0000 C   0  0  0  0  0  0  0  0  0  0  0  0
  1  2  1  0  0  0  0
  1  3  2  0  0  0  0
  2  4  2  0  0  0  0
  2  5  1  0  0  0  0
  6  8  1  0  0  0  0
  7 12  1  0  0  0  0
  8 13  2  0  0  0  0
  3  9  1  0  0  0  0
 10 14  1  0  0  0  0
  9 11  2  0  0  0  0
 12 15  2  0  0  0  0
 13 15  1  0  0  0  0
  3 14  1  0  0  0  0
 15 16  1  0  0  0  0
 10 16  2  0  0  0  0
  4 17  1  0  0  0  0
  7 18  1  0  0  0  0
  6 19  1  0  0  0  0
  8 20  1  0  0  0  0
  5 21  1  0  0  0  0
  5 22  1  0  0  0  0
 20 23  1  0  0  0  0
 21 24  1  0  0  0  0
 22 25  1  0  0  0  0
  4 11  1  0  0  0  0
 24 25  1  0  0  0  0
  6  7  2  0  0  0  0
M  END
> <MOLFORMULA>
C16 H17 F I N5 O2

> <MOLWEIGHT>
4.572413000000000e+002

> <IDNUMBER>
AT-138/QI01020

> <CHIRALFLAG>
-

> <PRICE>
EUR 125.00/10 mg

> <Similarity score>
0.18

$$$$

  -OEChem-04222410502D

 25 28  0     0  0  0  0  0  0999 V2000
   -1.2625    0.9125    0.0000 C   0  0  0  0  0  0  0  0  0  0  0  0
   -0.6708    1.2458    0.0000 C   0  0  0  0  0  0  0  0  0  0  0  0
   -2.4208    0.9125    0.0000 N   0  0  0  0  0  0  0  0  0  0  0  0
   -1.8458    1.2458    0.0000 C   0  0  0  0  0  0  0  0  0  0  0  0
   -0.0833    0.9125    0.0000 C   0  0  0  0  0  0  0  0  0  0  0  0
   -0.6708   -0.0917    0.0000 N   0  0  0  0  0  0  0  0  0  0  0  0
   -1.2625    0.2458    0.0000 C   0  0  0  0  0  0  0  0  0  0  0  0
   -3.0000    1.2458    0.0000 C   0  0  0  0  0  0  0  0  0  0  0  0
   -0.0833    0.2458    0.0000 C   0  0  0  0  0  0  0  0  0  0  0  0
   -1.8458    1.9000    0.0000 C   0  0  0  0  0  0  0  0  0  0  0  0
   -3.0000    1.9000    0.0000 C   0  0  0  0  0  0  0  0  0  0  0  0
   -2.4208    2.2333    0.0000 C   0  0  0  0  0  0  0  0  0  0  0  0
   -0.6708    1.9000    0.0000 O   0  0  0  0  0  0  0  0  0  0  0  0
    0.5042    1.2458    0.0000 C   0  0  0  0  0  0  0  0  0  0  0  0
   -3.5833    0.9125    0.0000 C   0  0  0  0  0  0  0  0  0  0  0  0
    0.5042   -0.0917    0.0000 C   0  0  0  0  0  0  0  0  0  0  0  0
   -3.5833    2.2333    0.0000 C   0  0  0  0  0  0  0  0  0  0  0  0
   -0.1000    2.2333    0.0000 C   0  0  0  0  0  0  0  0  0  0  0  0
   -0.1000    2.8958    0.0000 C   0  0  0  0  0  0  0  0  0  0  0  0
    0.4667    3.2208    0.0000 C   0  0  0  0  0  0  0  0  0  0  0  0
    1.1042    0.9125    0.0000 C   0  0  0  0  0  0  0  0  0  0  0  0
    0.4542    3.8833    0.0000 C   0  0  0  0  0  0  0  0  0  0  0  0
   -4.1625    1.2458    0.0000 C   0  0  0  0  0  0  0  0  0  0  0  0
    1.1042    0.2458    0.0000 C   0  0  0  0  0  0  0  0  0  0  0  0
   -4.1625    1.9000    0.0000 C   0  0  0  0  0  0  0  0  0  0  0  0
  1  2  1  0  0  0  0
  3  4  1  0  0  0  0
  1  4  1  0  0  0  0
  2  5  2  0  0  0  0
  6  7  1  0  0  0  0
  1  7  2  0  0  0  0
  3  8  2  0  0  0  0
  6  9  2  0  0  0  0
  4 10  2  0  0  0  0
 11 12  2  0  0  0  0
 10 12  1  0  0  0  0
  2 13  1  0  0  0  0
  5 14  1  0  0  0  0
  8 15  1  0  0  0  0
  9 16  1  0  0  0  0
 11 17  1  0  0  0  0
 13 18  1  0  0  0  0
 18 19  1  0  0  0  0
 19 20  1  0  0  0  0
 14 21  2  0  0  0  0
 20 22  1  0  0  0  0
 15 23  2  0  0  0  0
 16 24  2  0  0  0  0
 17 25  2  0  0  0  0
  5  9  1  0  0  0  0
  8 11  1  0  0  0  0
 21 24  1  0  0  0  0
 23 25  1  0  0  0  0
M  END
> <MOLFORMULA>
C22 H20 N2 O

> <MOLWEIGHT>
3.284130000000000e+002

> <IDNUMBER>
AT-225/NB37546

> <PRICE>
EUR 140/10 mg

> <Similarity score>
0.18

$$$$

  -OEChem-04222410502D

 27 30  0     0  0  0  0  0  0999 V2000
   -1.7542    1.3000    0.0000 N   0  0  0  0  0  0  0  0  0  0  0  0
   -1.2500    0.4333    0.0000 C   0  0  0  0  0  0  0  0  0  0  0  0
   -0.2500    0.4333    0.0000 N   0  0  0  0  0  0  0  0  0  0  0  0
    0.2500    1.3000    0.0000 C   0  0  0  0  0  0  0  0  0  0  0  0
   -1.2500    2.1667    0.0000 C   0  0  0  0  0  0  0  0  0  0  0  0
   -0.2500    2.1667    0.0000 C   0  0  0  0  0  0  0  0  0  0  0  0
   -1.7542   -0.4292    0.0000 N   0  0  3  0  0  0  0  0  0  0  0  0
    0.2500    3.0333    0.0000 C   0  0  0  0  0  0  0  0  0  0  0  0
   -3.2500   -3.0292    0.0000 C   0  0  0  0  0  0  0  0  0  0  0  0
   -1.7542    3.0333    0.0000 N   0  0  0  0  0  0  0  0  0  0  0  0
    1.2500    1.3000    0.0000 O   0  0  0  0  0  0  0  0  0  0  0  0
    1.2500    3.0333    0.0000 C   0  0  0  0  0  0  0  0  0  0  0  0
   -2.7500   -0.4292    0.0000 C   0  0  0  0  0  0  0  0  0  0  0  0
   -1.2500   -1.2958    0.0000 C   0  0  0  0  0  0  0  0  0  0  0  0
   -2.7500   -2.1625    0.0000 C   0  0  3  0  0  0  0  0  0  0  0  0
   -2.7500   -3.8958    0.0000 O   0  0  0  0  0  0  0  0  0  0  0  0
   -1.7542   -2.1625    0.0000 C   0  0  0  0  0  0  0  0  0  0  0  0
   -3.2500   -1.2958    0.0000 C   0  0  0  0  0  0  0  0  0  0  0  0
    1.7500    2.1667    0.0000 C   0  0  0  0  0  0  0  0  0  0  0  0
    1.7500    3.9000    0.0000 C   0  0  0  0  0  0  0  0  0  0  0  0
   -4.2500   -3.0292    0.0000 N   0  0  0  0  0  0  0  0  0  0  0  0
    3.2500    3.0333    0.0000 C   0  0  0  0  0  0  0  0  0  0  0  0
   -1.2500    3.9000    0.0000 C   0  0  0  0  0  0  0  0  0  0  0  0
    2.7500    2.1667    0.0000 C   0  0  0  0  0  0  0  0  0  0  0  0
    2.7500    3.9000    0.0000 C   0  0  0  0  0  0  0  0  0  0  0  0
    4.2458    3.0333    0.0000 F   0  0  0  0  0  0  0  0  0  0  0  0
   -0.2500    3.9000    0.0000 C   0  0  0  0  0  0  0  0  0  0  0  0
  1  2  2  0  0  0  0
  2  3  1  0  0  0  0
  4  6  1  0  0  0  0
  1  5  1  0  0  0  0
  5  6  1  0  0  0  0
  2  7  1  0  0  0  0
  6  8  2  0  0  0  0
  9 15  1  0  0  0  0
  5 10  2  0  0  0  0
  4 11  2  0  0  0  0
  8 12  1  0  0  0  0
  7 13  1  0  0  0  0
  7 14  1  0  0  0  0
 15 18  1  0  0  0  0
  9 16  2  0  0  0  0
 14 17  1  0  0  0  0
 13 18  1  0  0  0  0
 12 19  1  0  0  0  0
 12 20  2  0  0  0  0
  9 21  1  0  0  0  0
 22 24  1  0  0  0  0
 10 23  1  0  0  0  0
 19 24  2  0  0  0  0
 20 25  1  0  0  0  0
 22 26  1  0  0  0  0
 23 27  2  0  0  0  0
  3  4  1  0  0  0  0
  8 27  1  0  0  0  0
 15 17  1  0  0  0  0
 22 25  2  0  0  0  0
M  END
> <MOLFORMULA>
C19 H18 F N5 O2

> <MOLWEIGHT>
3.673822000000000e+002

> <IDNUMBER>
AN-153/NB25801

> <PRICE>
EUR 130/10 mg

> <Similarity score>
0.18

$$$$

  -OEChem-04222410502D

 31 35  0     0  0  0  0  0  0999 V2000
    4.0167  -10.5750    0.0000 C   0  0  0  0  0  0  0  0  0  0  0  0
    5.2000   -9.9750    0.0000 C   0  0  0  0  0  0  0  0  0  0  0  0
    2.7917  -10.0917    0.0000 O   0  0  0  0  0  0  0  0  0  0  0  0
    3.9292  -11.8917    0.0000 C   0  0  0  0  0  0  0  0  0  0  0  0
    2.6667  -12.2417    0.0000 C   0  0  0  0  0  0  0  0  0  0  0  0
    5.2750   -8.6292    0.0000 N   0  0  3  0  0  0  0  0  0  0  0  0
    1.9500  -11.1167    0.0000 C   0  0  0  0  0  0  0  0  0  0  0  0
    6.3167  -10.7167    0.0000 N   0  0  0  0  0  0  0  0  0  0  0  0
    5.4250   -4.6417    0.0000 C   0  0  0  0  0  0  0  0  0  0  0  0
    5.0500  -12.6167    0.0000 N   0  0  0  0  0  0  0  0  0  0  0  0
    7.7792   -0.7000    0.0000 C   0  0  0  0  0  0  0  0  0  0  0  0
    7.7500   -2.0167    0.0000 C   0  0  0  0  0  0  0  0  0  0  0  0
    6.5750   -4.0000    0.0000 N   0  0  0  0  0  0  0  0  0  0  0  0
    8.9417   -0.0292    0.0000 C   0  0  0  0  0  0  0  0  0  0  0  0
    6.2417  -12.0042    0.0000 C   0  0  0  0  0  0  0  0  0  0  0  0
    5.3917   -5.9542    0.0000 C   0  0  3  0  0  0  0  0  0  0  0  0
    6.4500   -8.0417    0.0000 C   0  0  0  0  0  0  0  0  0  0  0  0
    4.1667   -7.9250    0.0000 C   0  0  0  0  0  0  0  0  0  0  0  0
    6.6042   -2.6667    0.0000 C   0  0  0  0  0  0  0  0  0  0  0  0
    4.2917   -3.9500    0.0000 O   0  0  0  0  0  0  0  0  0  0  0  0
    8.9000   -2.6917    0.0000 C   0  0  0  0  0  0  0  0  0  0  0  0
    4.2250   -6.5750    0.0000 C   0  0  0  0  0  0  0  0  0  0  0  0
    6.5250   -6.7000    0.0000 C   0  0  0  0  0  0  0  0  0  0  0  0
   10.0750   -0.7000    0.0000 C   0  0  0  0  0  0  0  0  0  0  0  0
    6.6292   -0.0000    0.0000 F   0  0  0  0  0  0  0  0  0  0  0  0
   10.0667   -2.0292    0.0000 C   0  0  0  0  0  0  0  0  0  0  0  0
   11.2500   -0.0292    0.0000 F   0  0  0  0  0  0  0  0  0  0  0  0
    2.0500  -13.4250    0.0000 C   0  0  0  0  0  0  0  0  0  0  0  0
    0.6167  -11.1792    0.0000 C   0  0  0  0  0  0  0  0  0  0  0  0
    0.7250  -13.4917    0.0000 C   0  0  0  0  0  0  0  0  0  0  0  0
    0.0000  -12.3542    0.0000 C   0  0  0  0  0  0  0  0  0  0  0  0
  1  2  2  0  0  0  0
  1  3  1  0  0  0  0
  1  4  1  0  0  0  0
  4  5  1  0  0  0  0
  2  6  1  0  0  0  0
  3  7  1  0  0  0  0
  2  8  1  0  0  0  0
  9 16  1  0  0  0  0
  4 10  2  0  0  0  0
 11 12  2  0  0  0  0
 12 19  1  0  0  0  0
  9 13  1  0  0  0  0
 11 14  1  0  0  0  0
 10 15  1  0  0  0  0
 16 22  1  0  0  0  0
  6 17  1  0  0  0  0
  6 18  1  0  0  0  0
 13 19  1  0  0  0  0
  9 20  2  0  0  0  0
 12 21  1  0  0  0  0
 18 22  1  0  0  0  0
 17 23  1  0  0  0  0
 24 26  1  0  0  0  0
 11 25  1  0  0  0  0
 21 26  2  0  0  0  0
 24 27  1  0  0  0  0
  5 28  1  0  0  0  0
  7 29  1  0  0  0  0
 28 30  2  0  0  0  0
 29 31  2  0  0  0  0
  5  7  2  0  0  0  0
  8 15  2  0  0  0  0
 30 31  1  0  0  0  0
 16 23  1  0  0  0  0
 14 24  2  0  0  0  0
M  END
> <MOLFORMULA>
C23 H20 F2 N4 O2

> <MOLWEIGHT>
4.224330000000000e+002

> <IDNUMBER>
AT-687/PE16720

> <PRICE>
EUR 80/10 mg

> <Similarity score>
0.18

$$$$

  -OEChem-04222410502D

 30 34  0     0  0  0  0  0  0999 V2000
   -2.2208   -0.8000    0.0000 C   0  0  0  0  0  0  0  0  0  0  0  0
   -2.2333   -1.7917    0.0000 C   0  0  0  0  0  0  0  0  0  0  0  0
   -0.4958   -0.8125    0.0000 C   0  0  0  0  0  0  0  0  0  0  0  0
   -1.3583   -0.3000    0.0000 N   0  0  0  0  0  0  0  0  0  0  0  0
   -0.5000   -1.8125    0.0000 N   0  0  0  0  0  0  0  0  0  0  0  0
   -1.3708   -2.3125    0.0000 C   0  0  0  0  0  0  0  0  0  0  0  0
   -3.1750   -0.4792    0.0000 C   0  0  0  0  0  0  0  0  0  0  0  0
   -3.1833   -2.1000    0.0000 S   0  0  0  0  0  0  0  0  0  0  0  0
   -3.7625   -1.2917    0.0000 C   0  0  0  0  0  0  0  0  0  0  0  0
    0.3792   -0.3250    0.0000 N   0  0  3  0  0  0  0  0  0  0  0  0
    2.1250    0.6625    0.0000 N   0  0  3  0  0  0  0  0  0  0  0  0
    3.0042    1.1458    0.0000 C   0  0  0  0  0  0  0  0  0  0  0  0
   -3.4750    0.4625    0.0000 C   0  0  0  0  0  0  0  0  0  0  0  0
   -1.3875   -3.3125    0.0000 O   0  0  0  0  0  0  0  0  0  0  0  0
    0.3917    0.6833    0.0000 C   0  0  0  0  0  0  0  0  0  0  0  0
    1.2417   -0.8292    0.0000 C   0  0  0  0  0  0  0  0  0  0  0  0
    1.2625    1.1583    0.0000 C   0  0  0  0  0  0  0  0  0  0  0  0
    2.1042   -0.3417    0.0000 C   0  0  0  0  0  0  0  0  0  0  0  0
    3.0125    2.1458    0.0000 C   0  0  0  0  0  0  0  0  0  0  0  0
   -4.4708    0.6833    0.0000 C   0  0  0  0  0  0  0  0  0  0  0  0
   -2.8000    1.1958    0.0000 C   0  0  0  0  0  0  0  0  0  0  0  0
   -4.0833    2.3625    0.0000 C   0  0  0  0  0  0  0  0  0  0  0  0
    2.1500    2.6583    0.0000 F   0  0  0  0  0  0  0  0  0  0  0  0
   -3.1125    2.1500    0.0000 C   0  0  0  0  0  0  0  0  0  0  0  0
   -4.7708    1.6208    0.0000 C   0  0  0  0  0  0  0  0  0  0  0  0
   -4.3833    3.3208    0.0000 Br  0  0  0  0  0  0  0  0  0  0  0  0
    3.8667    0.6458    0.0000 C   0  0  0  0  0  0  0  0  0  0  0  0
    3.8792    2.6333    0.0000 C   0  0  0  0  0  0  0  0  0  0  0  0
    4.7375    1.1208    0.0000 C   0  0  0  0  0  0  0  0  0  0  0  0
    4.7542    2.1250    0.0000 C   0  0  0  0  0  0  0  0  0  0  0  0
  1  2  2  0  0  0  0
  3  4  2  0  0  0  0
  1  4  1  0  0  0  0
  3  5  1  0  0  0  0
  2  6  1  0  0  0  0
  1  7  1  0  0  0  0
  2  8  1  0  0  0  0
  7  9  2  0  0  0  0
  3 10  1  0  0  0  0
 11 18  1  0  0  0  0
 11 12  1  0  0  0  0
  7 13  1  0  0  0  0
  6 14  2  0  0  0  0
 10 15  1  0  0  0  0
 10 16  1  0  0  0  0
 15 17  1  0  0  0  0
 16 18  1  0  0  0  0
 12 19  1  0  0  0  0
 13 20  2  0  0  0  0
 13 21  1  0  0  0  0
 22 24  1  0  0  0  0
 19 23  1  0  0  0  0
 21 24  2  0  0  0  0
 20 25  1  0  0  0  0
 22 26  1  0  0  0  0
 12 27  2  0  0  0  0
 19 28  2  0  0  0  0
 27 29  1  0  0  0  0
 29 30  2  0  0  0  0
  8  9  1  0  0  0  0
  5  6  1  0  0  0  0
 22 25  2  0  0  0  0
 11 17  1  0  0  0  0
 28 30  1  0  0  0  0
M  END
> <MOLFORMULA>
C22 H18 Br F N4 O S

> <MOLWEIGHT>
4.853792000000000e+002

> <IDNUMBER>
AT-687/PE25904

> <PRICE>
EUR 80/10 mg

> <Similarity score>
0.18

$$$$

  -OEChem-04222410502D

 29 33  0     0  0  0  0  0  0999 V2000
   -2.2208   -0.4542    0.0000 C   0  0  0  0  0  0  0  0  0  0  0  0
   -2.2375   -1.4542    0.0000 C   0  0  0  0  0  0  0  0  0  0  0  0
   -0.4958   -0.4667    0.0000 C   0  0  0  0  0  0  0  0  0  0  0  0
   -1.3583    0.0458    0.0000 N   0  0  0  0  0  0  0  0  0  0  0  0
   -3.1750   -0.1417    0.0000 C   0  0  0  0  0  0  0  0  0  0  0  0
   -0.5000   -1.4667    0.0000 N   0  0  0  0  0  0  0  0  0  0  0  0
   -1.3708   -1.9667    0.0000 C   0  0  0  0  0  0  0  0  0  0  0  0
   -3.1833   -1.7542    0.0000 S   0  0  0  0  0  0  0  0  0  0  0  0
   -3.7708   -0.9500    0.0000 C   0  0  0  0  0  0  0  0  0  0  0  0
    0.3792    0.0208    0.0000 N   0  0  3  0  0  0  0  0  0  0  0  0
   -3.4833    0.8083    0.0000 C   0  0  0  0  0  0  0  0  0  0  0  0
    2.1250    1.0000    0.0000 N   0  0  3  0  0  0  0  0  0  0  0  0
   -1.3875   -2.9667    0.0000 O   0  0  0  0  0  0  0  0  0  0  0  0
    1.2417   -0.4875    0.0000 C   0  0  0  0  0  0  0  0  0  0  0  0
    0.3917    1.0208    0.0000 C   0  0  0  0  0  0  0  0  0  0  0  0
    2.1042   -0.0042    0.0000 C   0  0  0  0  0  0  0  0  0  0  0  0
    1.2625    1.5000    0.0000 C   0  0  0  0  0  0  0  0  0  0  0  0
   -2.8000    1.5375    0.0000 C   0  0  0  0  0  0  0  0  0  0  0  0
    3.0042    1.4833    0.0000 C   0  0  0  0  0  0  0  0  0  0  0  0
   -1.8250    1.3250    0.0000 F   0  0  0  0  0  0  0  0  0  0  0  0
   -4.4708    1.0208    0.0000 C   0  0  0  0  0  0  0  0  0  0  0  0
   -3.1125    2.4958    0.0000 C   0  0  0  0  0  0  0  0  0  0  0  0
    3.8667    0.9833    0.0000 C   0  0  0  0  0  0  0  0  0  0  0  0
    3.0125    2.4833    0.0000 C   0  0  0  0  0  0  0  0  0  0  0  0
   -4.7708    1.9625    0.0000 C   0  0  0  0  0  0  0  0  0  0  0  0
    4.7417    1.4625    0.0000 C   0  0  0  0  0  0  0  0  0  0  0  0
    3.8792    2.9833    0.0000 C   0  0  0  0  0  0  0  0  0  0  0  0
   -4.0833    2.7083    0.0000 C   0  0  0  0  0  0  0  0  0  0  0  0
    4.7542    2.4708    0.0000 C   0  0  0  0  0  0  0  0  0  0  0  0
  1  2  2  0  0  0  0
  3  4  2  0  0  0  0
  1  4  1  0  0  0  0
  1  5  1  0  0  0  0
  3  6  1  0  0  0  0
  2  7  1  0  0  0  0
  2  8  1  0  0  0  0
  5  9  2  0  0  0  0
  3 10  1  0  0  0  0
  5 11  1  0  0  0  0
 12 17  1  0  0  0  0
  7 13  2  0  0  0  0
 10 14  1  0  0  0  0
 10 15  1  0  0  0  0
 14 16  1  0  0  0  0
 15 17  1  0  0  0  0
 11 18  1  0  0  0  0
 12 19  1  0  0  0  0
 18 20  1  0  0  0  0
 11 21  2  0  0  0  0
 18 22  2  0  0  0  0
 19 23  2  0  0  0  0
 19 24  1  0  0  0  0
 21 25  1  0  0  0  0
 23 26  1  0  0  0  0
 24 27  2  0  0  0  0
 25 28  2  0  0  0  0
 27 29  1  0  0  0  0
  8  9  1  0  0  0  0
  6  7  1  0  0  0  0
 22 28  1  0  0  0  0
 12 16  1  0  0  0  0
 26 29  2  0  0  0  0
M  END
> <MOLFORMULA>
C22 H19 F N4 O S

> <MOLWEIGHT>
4.064831000000000e+002

> <IDNUMBER>
AT-687/PE25857

> <PRICE>
EUR 80/10 mg

> <Similarity score>
0.18

$$$$

  -OEChem-04222410502D

 32 35  0     0  0  0  0  0  0999 V2000
    4.6042   -6.6292    0.0000 S   0  0  3  0  0  0  0  0  0  0  0  0
    5.7417   -7.3000    0.0000 C   0  0  0  0  0  0  0  0  0  0  0  0
    6.9042   -1.3167    0.0000 S   0  0  3  0  0  0  0  0  0  0  0  0
    6.9042   -6.6292    0.0000 C   0  0  0  0  0  0  0  0  0  0  0  0
    8.0542   -7.3000    0.0000 C   0  0  0  0  0  0  0  0  0  0  0  0
    6.9042   -2.6417    0.0000 N   0  0  3  0  0  0  0  0  0  0  0  0
    3.4542   -5.9750    0.0000 C   0  0  0  0  0  0  0  0  0  0  0  0
    6.9042   -5.3042    0.0000 N   0  0  3  0  0  0  0  0  0  0  0  0
    5.7417   -8.6375    0.0000 C   0  0  0  0  0  0  0  0  0  0  0  0
    6.9042   -9.2917    0.0000 N   0  0  0  0  0  0  0  0  0  0  0  0
    3.4542   -4.6375    0.0000 C   0  0  0  0  0  0  0  0  0  0  0  0
    8.0542   -8.6250    0.0000 C   0  0  0  0  0  0  0  0  0  0  0  0
    2.3000   -3.9792    0.0000 C   0  0  0  0  0  0  0  0  0  0  0  0
    5.2625   -5.4917    0.0000 O   0  0  0  0  0  0  0  0  0  0  0  0
    3.9375   -7.7917    0.0000 O   0  0  0  0  0  0  0  0  0  0  0  0
    8.0542   -3.3167    0.0000 C   0  0  0  0  0  0  0  0  0  0  0  0
    5.7417   -3.3167    0.0000 C   0  0  0  0  0  0  0  0  0  0  0  0
    5.5667   -1.3167    0.0000 O   0  0  0  0  0  0  0  0  0  0  0  0
    8.2292   -1.3167    0.0000 O   0  0  0  0  0  0  0  0  0  0  0  0
    9.2000   -6.6292    0.0000 C   0  0  0  0  0  0  0  0  0  0  0  0
    5.7417   -4.6375    0.0000 C   0  0  0  0  0  0  0  0  0  0  0  0
    8.0542   -4.6375    0.0000 C   0  0  0  0  0  0  0  0  0  0  0  0
    1.1500   -4.6375    0.0000 C   0  0  0  0  0  0  0  0  0  0  0  0
    2.3000   -6.6292    0.0000 C   0  0  0  0  0  0  0  0  0  0  0  0
    1.1500   -5.9750    0.0000 C   0  0  0  0  0  0  0  0  0  0  0  0
    9.2000   -9.2917    0.0000 C   0  0  0  0  0  0  0  0  0  0  0  0
    6.9042   -0.0000    0.0000 C   0  0  0  0  0  0  0  0  0  0  0  0
   10.3625   -7.3000    0.0000 C   0  0  0  0  0  0  0  0  0  0  0  0
    2.3000   -2.6417    0.0000 F   0  0  0  0  0  0  0  0  0  0  0  0
    0.0000   -3.9792    0.0000 F   0  0  0  0  0  0  0  0  0  0  0  0
   10.3625   -8.6250    0.0000 C   0  0  0  0  0  0  0  0  0  0  0  0
   11.5167   -6.6292    0.0000 F   0  0  0  0  0  0  0  0  0  0  0  0
  1  2  1  0  0  0  0
  3  6  1  0  0  0  0
  2  4  2  0  0  0  0
  4  5  1  0  0  0  0
  6 16  1  0  0  0  0
  1  7  1  0  0  0  0
  4  8  1  0  0  0  0
  2  9  1  0  0  0  0
  9 10  2  0  0  0  0
  7 11  1  0  0  0  0
 10 12  1  0  0  0  0
 11 13  2  0  0  0  0
  1 14  2  0  0  0  0
  1 15  2  0  0  0  0
 16 22  1  0  0  0  0
 17 21  1  0  0  0  0
  3 18  2  0  0  0  0
  3 19  2  0  0  0  0
  5 20  2  0  0  0  0
  8 21  1  0  0  0  0
  8 22  1  0  0  0  0
 23 25  2  0  0  0  0
  7 24  2  0  0  0  0
 24 25  1  0  0  0  0
 12 26  2  0  0  0  0
  3 27  1  0  0  0  0
 20 28  1  0  0  0  0
 13 29  1  0  0  0  0
 23 30  1  0  0  0  0
 26 31  1  0  0  0  0
 28 32  1  0  0  0  0
 13 23  1  0  0  0  0
  5 12  1  0  0  0  0
  6 17  1  0  0  0  0
 28 31  2  0  0  0  0
M  END
> <MOLFORMULA>
C20 H18 F3 N3 O4 S2

> <MOLWEIGHT>
4.855052000000000e+002

> <IDNUMBER>
AT-687/NB06806

> <PRICE>
EUR 80/10 mg

> <Similarity score>
0.18

$$$$

  -OEChem-04222410502D

 24 26  0     0  0  0  0  0  0999 V2000
    6.6625   -3.0667    0.0000 N   0  0  0  0  0  0  0  0  0  0  0  0
    5.9500   -2.6542    0.0000 C   0  0  0  0  0  0  0  0  0  0  0  0
    7.3792   -2.6542    0.0000 C   0  0  0  0  0  0  0  0  0  0  0  0
    5.9500   -1.8250    0.0000 C   0  0  0  0  0  0  0  0  0  0  0  0
    9.5250   -3.8792    0.0000 C   0  0  0  0  0  0  0  0  0  0  0  0
    5.2292   -3.0667    0.0000 N   0  0  3  0  0  0  0  0  0  0  0  0
   10.2292   -2.6375    0.0000 C   0  0  0  0  0  0  0  0  0  0  0  0
    9.5125   -3.0625    0.0000 C   0  0  0  0  0  0  0  0  0  0  0  0
    7.3792   -1.8250    0.0000 N   0  0  0  0  0  0  0  0  0  0  0  0
   10.9417   -3.0417    0.0000 C   0  0  0  0  0  0  0  0  0  0  0  0
    8.0917   -3.8917    0.0000 N   0  0  0  0  0  0  0  0  0  0  0  0
    6.6625   -1.4125    0.0000 C   0  0  0  0  0  0  0  0  0  0  0  0
   10.2375   -4.2875    0.0000 C   0  0  0  0  0  0  0  0  0  0  0  0
   10.9500   -3.8667    0.0000 C   0  0  0  0  0  0  0  0  0  0  0  0
    8.0917   -3.0667    0.0000 N   0  0  0  0  0  0  0  0  0  0  0  0
    8.8125   -4.3000    0.0000 C   0  0  0  0  0  0  0  0  0  0  0  0
    5.2375   -1.4167    0.0000 F   0  0  0  0  0  0  0  0  0  0  0  0
   10.2250   -1.8125    0.0000 Br  0  0  0  0  0  0  0  0  0  0  0  0
    8.7917   -2.6542    0.0000 O   0  0  0  0  0  0  0  0  0  0  0  0
   11.6667   -4.2792    0.0000 Cl  0  0  0  0  0  0  0  0  0  0  0  0
    4.4875   -2.7292    0.0000 C   0  0  0  0  0  0  0  0  0  0  0  0
    5.1542   -3.8875    0.0000 C   0  0  0  0  0  0  0  0  0  0  0  0
    4.3417   -4.0542    0.0000 C   0  0  0  0  0  0  0  0  0  0  0  0
    3.9292   -3.3417    0.0000 C   0  0  0  0  0  0  0  0  0  0  0  0
  1  2  1  0  0  0  0
  1  3  2  0  0  0  0
  2  4  2  0  0  0  0
  5 16  1  0  0  0  0
  2  6  1  0  0  0  0
  7  8  1  0  0  0  0
  5  8  2  0  0  0  0
  3  9  1  0  0  0  0
 10 14  1  0  0  0  0
 11 15  1  0  0  0  0
  9 12  2  0  0  0  0
  5 13  1  0  0  0  0
 13 14  2  0  0  0  0
  3 15  1  0  0  0  0
 11 16  2  0  0  0  0
  4 17  1  0  0  0  0
  7 18  1  0  0  0  0
  8 19  1  0  0  0  0
 14 20  1  0  0  0  0
  6 21  1  0  0  0  0
  6 22  1  0  0  0  0
 22 23  1  0  0  0  0
 21 24  1  0  0  0  0
  4 12  1  0  0  0  0
 23 24  1  0  0  0  0
  7 10  2  0  0  0  0
M  END
> <MOLFORMULA>
C15 H14 Br Cl F N5 O

> <MOLWEIGHT>
4.146646000000000e+002

> <IDNUMBER>
AT-138/QI01026

> <CHIRALFLAG>
-

> <PRICE>
EUR 125.00/10 mg

> <Similarity score>
0.18

$$$$

  -OEChem-04222410502D

 26 29  0     0  0  0  0  0  0999 V2000
    6.6625   -3.0667    0.0000 N   0  0  0  0  0  0  0  0  0  0  0  0
    5.9500   -2.6542    0.0000 C   0  0  0  0  0  0  0  0  0  0  0  0
    7.3792   -2.6542    0.0000 C   0  0  0  0  0  0  0  0  0  0  0  0
   10.8792   -3.0792    0.0000 C   0  0  0  0  0  0  0  0  0  0  0  0
    5.9500   -1.8250    0.0000 C   0  0  0  0  0  0  0  0  0  0  0  0
    5.2292   -3.0667    0.0000 N   0  0  3  0  0  0  0  0  0  0  0  0
   10.8917   -3.8667    0.0000 C   0  0  0  0  0  0  0  0  0  0  0  0
   10.1917   -2.6875    0.0000 C   0  0  0  0  0  0  0  0  0  0  0  0
    7.3792   -1.8250    0.0000 N   0  0  0  0  0  0  0  0  0  0  0  0
   11.5625   -2.6792    0.0000 O   0  0  0  0  0  0  0  0  0  0  0  0
    8.0917   -3.8917    0.0000 N   0  0  0  0  0  0  0  0  0  0  0  0
   11.5792   -4.2542    0.0000 O   0  0  0  0  0  0  0  0  0  0  0  0
    6.6625   -1.4125    0.0000 C   0  0  0  0  0  0  0  0  0  0  0  0
   10.2042   -4.2667    0.0000 C   0  0  0  0  0  0  0  0  0  0  0  0
    9.5167   -3.0917    0.0000 C   0  0  0  0  0  0  0  0  0  0  0  0
   12.1375   -3.4542    0.0000 C   0  0  0  0  0  0  0  0  0  0  0  0
    8.0917   -3.0667    0.0000 N   0  0  0  0  0  0  0  0  0  0  0  0
    9.5250   -3.8792    0.0000 C   0  0  0  0  0  0  0  0  0  0  0  0
    8.8125   -4.3000    0.0000 C   0  0  0  0  0  0  0  0  0  0  0  0
    5.2375   -1.4167    0.0000 F   0  0  0  0  0  0  0  0  0  0  0  0
   10.1792   -1.8667    0.0000 O   0  0  0  0  0  0  0  0  0  0  0  0
    5.1542   -3.8875    0.0000 C   0  0  0  0  0  0  0  0  0  0  0  0
    4.4875   -2.7292    0.0000 C   0  0  0  0  0  0  0  0  0  0  0  0
    9.4667   -1.4625    0.0000 C   0  0  0  0  0  0  0  0  0  0  0  0
    4.3417   -4.0542    0.0000 C   0  0  0  0  0  0  0  0  0  0  0  0
    3.9292   -3.3417    0.0000 C   0  0  0  0  0  0  0  0  0  0  0  0
  1  2  1  0  0  0  0
  1  3  2  0  0  0  0
  4  8  1  0  0  0  0
  2  5  2  0  0  0  0
  2  6  1  0  0  0  0
  7 14  1  0  0  0  0
  8 15  2  0  0  0  0
  3  9  1  0  0  0  0
  4 10  1  0  0  0  0
 11 17  1  0  0  0  0
  7 12  1  0  0  0  0
  9 13  2  0  0  0  0
 14 18  2  0  0  0  0
 15 18  1  0  0  0  0
 12 16  1  0  0  0  0
  3 17  1  0  0  0  0
 18 19  1  0  0  0  0
 11 19  2  0  0  0  0
  5 20  1  0  0  0  0
  8 21  1  0  0  0  0
  6 22  1  0  0  0  0
  6 23  1  0  0  0  0
 21 24  1  0  0  0  0
 22 25  1  0  0  0  0
 23 26  1  0  0  0  0
  5 13  1  0  0  0  0
 25 26  1  0  0  0  0
  4  7  2  0  0  0  0
 10 16  1  0  0  0  0
M  END
> <MOLFORMULA>
C17 H18 F N5 O3

> <MOLWEIGHT>
3.593592000000000e+002

> <IDNUMBER>
AT-138/QI01025

> <CHIRALFLAG>
-

> <PRICE>
EUR 125.00/10 mg

> <Similarity score>
0.18

$$$$

  -OEChem-04222410502D

 30 34  0     0  0  0  0  0  0999 V2000
   -2.2208   -0.8000    0.0000 C   0  0  0  0  0  0  0  0  0  0  0  0
   -2.2333   -1.7917    0.0000 C   0  0  0  0  0  0  0  0  0  0  0  0
   -0.4958   -0.8125    0.0000 C   0  0  0  0  0  0  0  0  0  0  0  0
   -1.3583   -0.3000    0.0000 N   0  0  0  0  0  0  0  0  0  0  0  0
   -0.5000   -1.8125    0.0000 N   0  0  0  0  0  0  0  0  0  0  0  0
   -1.3708   -2.3125    0.0000 C   0  0  0  0  0  0  0  0  0  0  0  0
   -3.1750   -0.4792    0.0000 C   0  0  0  0  0  0  0  0  0  0  0  0
   -3.1833   -2.1000    0.0000 S   0  0  0  0  0  0  0  0  0  0  0  0
   -3.7625   -1.2917    0.0000 C   0  0  0  0  0  0  0  0  0  0  0  0
    0.3792   -0.3250    0.0000 N   0  0  3  0  0  0  0  0  0  0  0  0
    2.1250    0.6625    0.0000 N   0  0  3  0  0  0  0  0  0  0  0  0
    3.0042    1.1458    0.0000 C   0  0  0  0  0  0  0  0  0  0  0  0
   -3.4750    0.4625    0.0000 C   0  0  0  0  0  0  0  0  0  0  0  0
   -1.3875   -3.3125    0.0000 O   0  0  0  0  0  0  0  0  0  0  0  0
    0.3917    0.6833    0.0000 C   0  0  0  0  0  0  0  0  0  0  0  0
    1.2417   -0.8292    0.0000 C   0  0  0  0  0  0  0  0  0  0  0  0
    1.2625    1.1583    0.0000 C   0  0  0  0  0  0  0  0  0  0  0  0
    2.1042   -0.3417    0.0000 C   0  0  0  0  0  0  0  0  0  0  0  0
    3.0125    2.1458    0.0000 C   0  0  0  0  0  0  0  0  0  0  0  0
   -4.4708    0.6833    0.0000 C   0  0  0  0  0  0  0  0  0  0  0  0
   -2.8000    1.1958    0.0000 C   0  0  0  0  0  0  0  0  0  0  0  0
    2.1500    2.6583    0.0000 F   0  0  0  0  0  0  0  0  0  0  0  0
   -3.1125    2.1500    0.0000 C   0  0  0  0  0  0  0  0  0  0  0  0
   -4.7708    1.6208    0.0000 C   0  0  0  0  0  0  0  0  0  0  0  0
   -4.0833    2.3625    0.0000 C   0  0  0  0  0  0  0  0  0  0  0  0
    3.8667    0.6458    0.0000 C   0  0  0  0  0  0  0  0  0  0  0  0
    3.8792    2.6333    0.0000 C   0  0  0  0  0  0  0  0  0  0  0  0
   -4.3833    3.3208    0.0000 C   0  0  0  0  0  0  0  0  0  0  0  0
    4.7375    1.1208    0.0000 C   0  0  0  0  0  0  0  0  0  0  0  0
    4.7542    2.1250    0.0000 C   0  0  0  0  0  0  0  0  0  0  0  0
  1  2  2  0  0  0  0
  3  4  2  0  0  0  0
  1  4  1  0  0  0  0
  3  5  1  0  0  0  0
  2  6  1  0  0  0  0
  1  7  1  0  0  0  0
  2  8  1  0  0  0  0
  7  9  2  0  0  0  0
  3 10  1  0  0  0  0
 11 18  1  0  0  0  0
 11 12  1  0  0  0  0
  7 13  1  0  0  0  0
  6 14  2  0  0  0  0
 10 15  1  0  0  0  0
 10 16  1  0  0  0  0
 15 17  1  0  0  0  0
 16 18  1  0  0  0  0
 12 19  1  0  0  0  0
 13 20  2  0  0  0  0
 13 21  1  0  0  0  0
 19 22  1  0  0  0  0
 21 23  2  0  0  0  0
 20 24  1  0  0  0  0
 23 25  1  0  0  0  0
 12 26  2  0  0  0  0
 19 27  2  0  0  0  0
 25 28  1  0  0  0  0
 26 29  1  0  0  0  0
 29 30  2  0  0  0  0
  8  9  1  0  0  0  0
  5  6  1  0  0  0  0
 24 25  2  0  0  0  0
 11 17  1  0  0  0  0
 27 30  1  0  0  0  0
M  END
> <MOLFORMULA>
C23 H21 F N4 O S

> <MOLWEIGHT>
4.205099000000000e+002

> <IDNUMBER>
AT-687/PE25823

> <PRICE>
EUR 80/10 mg

> <Similarity score>
0.18

$$$$

  -OEChem-04222410502D

 30 34  0     0  0  0  0  0  0999 V2000
   -2.2208   -0.8000    0.0000 C   0  0  0  0  0  0  0  0  0  0  0  0
   -2.2333   -1.7917    0.0000 C   0  0  0  0  0  0  0  0  0  0  0  0
   -0.4958   -0.8125    0.0000 C   0  0  0  0  0  0  0  0  0  0  0  0
   -1.3583   -0.3000    0.0000 N   0  0  0  0  0  0  0  0  0  0  0  0
   -0.5000   -1.8125    0.0000 N   0  0  0  0  0  0  0  0  0  0  0  0
   -1.3708   -2.3125    0.0000 C   0  0  0  0  0  0  0  0  0  0  0  0
   -3.1750   -0.4792    0.0000 C   0  0  0  0  0  0  0  0  0  0  0  0
   -3.1833   -2.1000    0.0000 S   0  0  0  0  0  0  0  0  0  0  0  0
   -3.7625   -1.2917    0.0000 C   0  0  0  0  0  0  0  0  0  0  0  0
    0.3792   -0.3250    0.0000 N   0  0  3  0  0  0  0  0  0  0  0  0
    2.1250    0.6625    0.0000 N   0  0  3  0  0  0  0  0  0  0  0  0
    3.0042    1.1458    0.0000 C   0  0  0  0  0  0  0  0  0  0  0  0
   -3.4750    0.4625    0.0000 C   0  0  0  0  0  0  0  0  0  0  0  0
   -1.3875   -3.3125    0.0000 O   0  0  0  0  0  0  0  0  0  0  0  0
    0.3917    0.6833    0.0000 C   0  0  0  0  0  0  0  0  0  0  0  0
    1.2417   -0.8292    0.0000 C   0  0  0  0  0  0  0  0  0  0  0  0
    1.2625    1.1583    0.0000 C   0  0  0  0  0  0  0  0  0  0  0  0
    2.1042   -0.3417    0.0000 C   0  0  0  0  0  0  0  0  0  0  0  0
    3.0125    2.1458    0.0000 C   0  0  0  0  0  0  0  0  0  0  0  0
   -4.4708    0.6833    0.0000 C   0  0  0  0  0  0  0  0  0  0  0  0
   -2.8000    1.1958    0.0000 C   0  0  0  0  0  0  0  0  0  0  0  0
   -4.0833    2.3625    0.0000 C   0  0  0  0  0  0  0  0  0  0  0  0
    2.1500    2.6583    0.0000 F   0  0  0  0  0  0  0  0  0  0  0  0
   -3.1125    2.1500    0.0000 C   0  0  0  0  0  0  0  0  0  0  0  0
   -4.7708    1.6208    0.0000 C   0  0  0  0  0  0  0  0  0  0  0  0
   -4.3833    3.3208    0.0000 Cl  0  0  0  0  0  0  0  0  0  0  0  0
    3.8667    0.6458    0.0000 C   0  0  0  0  0  0  0  0  0  0  0  0
    3.8792    2.6333    0.0000 C   0  0  0  0  0  0  0  0  0  0  0  0
    4.7375    1.1208    0.0000 C   0  0  0  0  0  0  0  0  0  0  0  0
    4.7542    2.1250    0.0000 C   0  0  0  0  0  0  0  0  0  0  0  0
  1  2  2  0  0  0  0
  3  4  2  0  0  0  0
  1  4  1  0  0  0  0
  3  5  1  0  0  0  0
  2  6  1  0  0  0  0
  1  7  1  0  0  0  0
  2  8  1  0  0  0  0
  7  9  2  0  0  0  0
  3 10  1  0  0  0  0
 11 18  1  0  0  0  0
 11 12  1  0  0  0  0
  7 13  1  0  0  0  0
  6 14  2  0  0  0  0
 10 15  1  0  0  0  0
 10 16  1  0  0  0  0
 15 17  1  0  0  0  0
 16 18  1  0  0  0  0
 12 19  1  0  0  0  0
 13 20  2  0  0  0  0
 13 21  1  0  0  0  0
 22 24  1  0  0  0  0
 19 23  1  0  0  0  0
 21 24  2  0  0  0  0
 20 25  1  0  0  0  0
 22 26  1  0  0  0  0
 12 27  2  0  0  0  0
 19 28  2  0  0  0  0
 27 29  1  0  0  0  0
 29 30  2  0  0  0  0
  8  9  1  0  0  0  0
  5  6  1  0  0  0  0
 22 25  2  0  0  0  0
 11 17  1  0  0  0  0
 28 30  1  0  0  0  0
M  END
> <MOLFORMULA>
C22 H18 Cl F N4 O S

> <MOLWEIGHT>
4.409282000000000e+002

> <IDNUMBER>
AT-687/PE25893

> <PRICE>
EUR 80/10 mg

> <Similarity score>
0.18

$$$$

  -OEChem-04222410502D

 32 35  0     0  0  0  0  0  0999 V2000
    3.4625   -2.6417    0.0000 S   0  0  3  0  0  0  0  0  0  0  0  0
    4.6125   -1.9792    0.0000 C   0  0  0  0  0  0  0  0  0  0  0  0
    5.7625   -7.9792    0.0000 S   0  0  3  0  0  0  0  0  0  0  0  0
    5.7625   -2.6417    0.0000 C   0  0  0  0  0  0  0  0  0  0  0  0
    5.7625   -6.6417    0.0000 N   0  0  3  0  0  0  0  0  0  0  0  0
    6.9042   -1.9792    0.0000 C   0  0  0  0  0  0  0  0  0  0  0  0
    5.7625   -3.9792    0.0000 N   0  0  3  0  0  0  0  0  0  0  0  0
    2.3000   -3.3042    0.0000 C   0  0  0  0  0  0  0  0  0  0  0  0
    6.9042   -0.6500    0.0000 C   0  0  0  0  0  0  0  0  0  0  0  0
    5.7625   -0.0000    0.0000 N   0  0  0  0  0  0  0  0  0  0  0  0
    4.6125   -0.6500    0.0000 C   0  0  0  0  0  0  0  0  0  0  0  0
    1.1500   -7.9792    0.0000 N   0  0  0  0  0  0  0  0  0  0  0  0
    4.1250   -3.8042    0.0000 O   0  0  0  0  0  0  0  0  0  0  0  0
    2.8000   -1.5000    0.0000 O   0  0  0  0  0  0  0  0  0  0  0  0
    4.6125   -5.9792    0.0000 C   0  0  0  0  0  0  0  0  0  0  0  0
    6.9042   -5.9792    0.0000 C   0  0  0  0  0  0  0  0  0  0  0  0
    8.0667   -2.6417    0.0000 C   0  0  0  0  0  0  0  0  0  0  0  0
    7.0917   -7.9792    0.0000 O   0  0  0  0  0  0  0  0  0  0  0  0
    4.4250   -7.9792    0.0000 O   0  0  0  0  0  0  0  0  0  0  0  0
    8.0667   -0.0000    0.0000 C   0  0  0  0  0  0  0  0  0  0  0  0
    1.1500   -6.6417    0.0000 C   0  0  0  0  0  0  0  0  0  0  0  0
    4.6125   -4.6417    0.0000 C   0  0  0  0  0  0  0  0  0  0  0  0
    6.9042   -4.6417    0.0000 C   0  0  0  0  0  0  0  0  0  0  0  0
    2.3000   -4.6417    0.0000 C   0  0  0  0  0  0  0  0  0  0  0  0
    9.2167   -0.6500    0.0000 C   0  0  0  0  0  0  0  0  0  0  0  0
    1.1500   -5.3042    0.0000 C   0  0  0  0  0  0  0  0  0  0  0  0
    5.7625   -9.3125    0.0000 C   0  0  0  0  0  0  0  0  0  0  0  0
    9.2167   -1.9792    0.0000 C   0  0  0  0  0  0  0  0  0  0  0  0
   10.3667   -0.0000    0.0000 F   0  0  0  0  0  0  0  0  0  0  0  0
    1.1500   -2.6417    0.0000 C   0  0  0  0  0  0  0  0  0  0  0  0
    0.0000   -3.3042    0.0000 C   0  0  0  0  0  0  0  0  0  0  0  0
    0.0000   -4.6417    0.0000 C   0  0  0  0  0  0  0  0  0  0  0  0
  1  2  1  0  0  0  0
  3  5  1  0  0  0  0
  2  4  2  0  0  0  0
  5 16  1  0  0  0  0
  4  6  1  0  0  0  0
  4  7  1  0  0  0  0
  1  8  1  0  0  0  0
  9 10  1  0  0  0  0
 10 11  2  0  0  0  0
  2 11  1  0  0  0  0
 12 21  3  0  0  0  0
  1 13  2  0  0  0  0
  1 14  2  0  0  0  0
 15 22  1  0  0  0  0
 16 23  1  0  0  0  0
  6 17  2  0  0  0  0
  3 18  2  0  0  0  0
  3 19  2  0  0  0  0
  9 20  2  0  0  0  0
 21 26  1  0  0  0  0
  7 22  1  0  0  0  0
  7 23  1  0  0  0  0
  8 24  1  0  0  0  0
 20 25  1  0  0  0  0
 24 26  2  0  0  0  0
  3 27  1  0  0  0  0
 17 28  1  0  0  0  0
 25 29  1  0  0  0  0
  8 30  2  0  0  0  0
 30 31  1  0  0  0  0
 31 32  2  0  0  0  0
 26 32  1  0  0  0  0
  6  9  1  0  0  0  0
  5 15  1  0  0  0  0
 25 28  2  0  0  0  0
M  END
> <MOLFORMULA>
C21 H19 F N4 O4 S2

> <MOLWEIGHT>
4.745351000000000e+002

> <IDNUMBER>
AT-687/NB06819

> <PRICE>
EUR 80/10 mg

> <Similarity score>
0.18

$$$$

  -OEChem-04222410502D

 28 32  0     0  0  0  0  0  0999 V2000
    6.7792   -7.3167    0.0000 C   0  0  0  0  0  0  0  0  0  0  0  0
    6.0625   -7.7292    0.0000 N   0  0  3  0  0  0  0  0  0  0  0  0
    6.7792   -6.4875    0.0000 N   0  0  0  0  0  0  0  0  0  0  0  0
    7.3917   -7.8667    0.0000 C   0  0  0  0  0  0  0  0  0  0  0  0
    6.2292   -8.5375    0.0000 N   0  0  0  0  0  0  0  0  0  0  0  0
    6.0625   -6.0667    0.0000 C   0  0  0  0  0  0  0  0  0  0  0  0
    5.3500   -6.4875    0.0000 C   0  0  0  0  0  0  0  0  0  0  0  0
    7.0542   -8.6292    0.0000 N   0  0  0  0  0  0  0  0  0  0  0  0
    5.3417   -7.3125    0.0000 C   0  0  0  0  0  0  0  0  0  0  0  0
    6.0625   -5.2417    0.0000 N   0  0  3  0  0  0  0  0  0  0  0  0
    8.1917   -7.7042    0.0000 C   0  0  0  0  0  0  0  0  0  0  0  0
    4.6292   -6.0750    0.0000 C   0  0  0  0  0  0  0  0  0  0  0  0
    4.6292   -7.7292    0.0000 C   0  0  0  0  0  0  0  0  0  0  0  0
    8.7417   -8.3167    0.0000 C   0  0  0  0  0  0  0  0  0  0  0  0
    3.9167   -6.4875    0.0000 C   0  0  0  0  0  0  0  0  0  0  0  0
    3.9167   -7.3167    0.0000 C   0  0  0  0  0  0  0  0  0  0  0  0
    9.5542   -8.1542    0.0000 C   0  0  0  0  0  0  0  0  0  0  0  0
    3.2042   -6.0750    0.0000 Cl  0  0  0  0  0  0  0  0  0  0  0  0
   10.1000   -8.7667    0.0000 F   0  0  0  0  0  0  0  0  0  0  0  0
    6.8042   -4.8792    0.0000 C   0  0  0  0  0  0  0  0  0  0  0  0
    5.3250   -4.8875    0.0000 C   0  0  0  0  0  0  0  0  0  0  0  0
    8.4500   -6.9250    0.0000 C   0  0  0  0  0  0  0  0  0  0  0  0
    9.2542   -6.7542    0.0000 C   0  0  0  0  0  0  0  0  0  0  0  0
    9.8125   -7.3667    0.0000 C   0  0  0  0  0  0  0  0  0  0  0  0
    5.1375   -4.0792    0.0000 C   0  0  0  0  0  0  0  0  0  0  0  0
    6.9917   -4.0792    0.0000 C   0  0  0  0  0  0  0  0  0  0  0  0
    6.4667   -3.4375    0.0000 C   0  0  0  0  0  0  0  0  0  0  0  0
    5.6500   -3.4292    0.0000 C   0  0  0  0  0  0  0  0  0  0  0  0
  1  2  1  0  0  0  0
  1  3  1  0  0  0  0
  1  4  2  0  0  0  0
  2  5  1  0  0  0  0
  3  6  2  0  0  0  0
  6  7  1  0  0  0  0
  4  8  1  0  0  0  0
  2  9  1  0  0  0  0
  6 10  1  0  0  0  0
  4 11  1  0  0  0  0
  7 12  2  0  0  0  0
  9 13  2  0  0  0  0
 11 14  2  0  0  0  0
 12 15  1  0  0  0  0
 13 16  1  0  0  0  0
 14 17  1  0  0  0  0
 15 18  1  0  0  0  0
 17 19  1  0  0  0  0
 10 20  1  0  0  0  0
 10 21  1  0  0  0  0
 11 22  1  0  0  0  0
 22 23  2  0  0  0  0
 23 24  1  0  0  0  0
 21 25  1  0  0  0  0
 20 26  1  0  0  0  0
 26 27  1  0  0  0  0
 25 28  1  0  0  0  0
  5  8  2  0  0  0  0
  7  9  1  0  0  0  0
 15 16  2  0  0  0  0
 17 24  2  0  0  0  0
 27 28  1  0  0  0  0
M  END
> <MOLFORMULA>
C21 H19 Cl F N5

> <MOLWEIGHT>
3.958671000000000e+002

> <IDNUMBER>
AT-687/PE10279

> <PRICE>
EUR 80/10 mg

> <Similarity score>
0.18

$$$$

  -OEChem-04222410502D

 27 31  0     0  0  0  0  0  0999 V2000
    6.7792   -7.2292    0.0000 C   0  0  0  0  0  0  0  0  0  0  0  0
    6.0625   -7.6417    0.0000 N   0  0  3  0  0  0  0  0  0  0  0  0
    6.7792   -6.4042    0.0000 N   0  0  0  0  0  0  0  0  0  0  0  0
    7.3917   -7.7875    0.0000 C   0  0  0  0  0  0  0  0  0  0  0  0
    6.2292   -8.4542    0.0000 N   0  0  0  0  0  0  0  0  0  0  0  0
    6.0625   -5.9875    0.0000 C   0  0  0  0  0  0  0  0  0  0  0  0
    5.3500   -6.4042    0.0000 C   0  0  0  0  0  0  0  0  0  0  0  0
    7.0542   -8.5417    0.0000 N   0  0  0  0  0  0  0  0  0  0  0  0
    5.3417   -7.2292    0.0000 C   0  0  0  0  0  0  0  0  0  0  0  0
    6.0625   -5.1625    0.0000 N   0  0  3  0  0  0  0  0  0  0  0  0
    8.1917   -7.6167    0.0000 C   0  0  0  0  0  0  0  0  0  0  0  0
    4.6292   -5.9917    0.0000 C   0  0  0  0  0  0  0  0  0  0  0  0
    4.6292   -7.6417    0.0000 C   0  0  0  0  0  0  0  0  0  0  0  0
    8.7417   -8.2375    0.0000 C   0  0  0  0  0  0  0  0  0  0  0  0
    3.9167   -6.4042    0.0000 C   0  0  0  0  0  0  0  0  0  0  0  0
    3.9167   -7.2292    0.0000 C   0  0  0  0  0  0  0  0  0  0  0  0
    9.5542   -8.0667    0.0000 C   0  0  0  0  0  0  0  0  0  0  0  0
    3.2042   -5.9917    0.0000 Cl  0  0  0  0  0  0  0  0  0  0  0  0
   10.1000   -8.6875    0.0000 F   0  0  0  0  0  0  0  0  0  0  0  0
    5.3500   -4.7542    0.0000 C   0  0  0  0  0  0  0  0  0  0  0  0
    6.7792   -4.7542    0.0000 C   0  0  0  0  0  0  0  0  0  0  0  0
    8.4500   -6.8417    0.0000 C   0  0  0  0  0  0  0  0  0  0  0  0
    9.2542   -6.6667    0.0000 C   0  0  0  0  0  0  0  0  0  0  0  0
    9.8125   -7.2875    0.0000 C   0  0  0  0  0  0  0  0  0  0  0  0
    5.3500   -3.9292    0.0000 C   0  0  0  0  0  0  0  0  0  0  0  0
    6.7792   -3.9292    0.0000 C   0  0  0  0  0  0  0  0  0  0  0  0
    6.0667   -3.5167    0.0000 C   0  0  0  0  0  0  0  0  0  0  0  0
  1  2  1  0  0  0  0
  1  3  1  0  0  0  0
  1  4  2  0  0  0  0
  2  5  1  0  0  0  0
  3  6  2  0  0  0  0
  6  7  1  0  0  0  0
  4  8  1  0  0  0  0
  2  9  1  0  0  0  0
  6 10  1  0  0  0  0
  4 11  1  0  0  0  0
  7 12  2  0  0  0  0
  9 13  2  0  0  0  0
 11 14  2  0  0  0  0
 12 15  1  0  0  0  0
 13 16  1  0  0  0  0
 14 17  1  0  0  0  0
 15 18  1  0  0  0  0
 17 19  1  0  0  0  0
 10 20  1  0  0  0  0
 10 21  1  0  0  0  0
 11 22  1  0  0  0  0
 22 23  2  0  0  0  0
 23 24  1  0  0  0  0
 20 25  1  0  0  0  0
 21 26  1  0  0  0  0
 26 27  1  0  0  0  0
  5  8  2  0  0  0  0
  7  9  1  0  0  0  0
 15 16  2  0  0  0  0
 17 24  2  0  0  0  0
 25 27  1  0  0  0  0
M  END
> <MOLFORMULA>
C20 H17 Cl F N5

> <MOLWEIGHT>
3.818403000000000e+002

> <IDNUMBER>
AT-687/PE10271

> <PRICE>
EUR 80/10 mg

> <Similarity score>
0.18

$$$$

  -OEChem-04222410502D

 29 33  0     0  0  0  0  0  0999 V2000
    5.6125   -6.6333    0.0000 C   0  0  0  0  0  0  0  0  0  0  0  0
    6.3333   -7.0458    0.0000 C   0  0  0  0  0  0  0  0  0  0  0  0
    4.9000   -5.3875    0.0000 C   0  0  0  0  0  0  0  0  0  0  0  0
    4.9000   -7.0458    0.0000 N   0  0  0  0  0  0  0  0  0  0  0  0
    5.6125   -5.8000    0.0000 C   0  0  0  0  0  0  0  0  0  0  0  0
    6.3250   -7.8708    0.0000 C   0  0  0  0  0  0  0  0  0  0  0  0
    4.1875   -5.8083    0.0000 C   0  0  0  0  0  0  0  0  0  0  0  0
    4.8958   -4.5625    0.0000 N   0  0  3  0  0  0  0  0  0  0  0  0
    5.6125   -8.2750    0.0000 N   0  0  3  0  0  0  0  0  0  0  0  0
    4.1875   -6.6333    0.0000 C   0  0  0  0  0  0  0  0  0  0  0  0
    7.0458   -8.2750    0.0000 C   0  0  0  0  0  0  0  0  0  0  0  0
    7.0375   -6.6250    0.0000 C   0  0  0  0  0  0  0  0  0  0  0  0
    4.8958   -2.9125    0.0000 O   0  0  0  0  0  0  0  0  0  0  0  0
    4.1833   -9.1000    0.0000 O   0  0  0  0  0  0  0  0  0  0  0  0
    7.7500   -7.0375    0.0000 C   0  0  0  0  0  0  0  0  0  0  0  0
    7.7583   -7.8625    0.0000 C   0  0  0  0  0  0  0  0  0  0  0  0
    8.4625   -6.6208    0.0000 Cl  0  0  0  0  0  0  0  0  0  0  0  0
    4.1750   -4.1583    0.0000 C   0  0  0  0  0  0  0  0  0  0  0  0
    5.6125   -4.1500    0.0000 C   0  0  0  0  0  0  0  0  0  0  0  0
    5.6125   -9.1125    0.0000 C   0  0  0  0  0  0  0  0  0  0  0  0
    4.9000   -7.8708    0.0000 C   0  0  0  0  0  0  0  0  0  0  0  0
    3.4750   -5.3958    0.0000 C   0  0  0  0  0  0  0  0  0  0  0  0
    3.4750   -7.0458    0.0000 C   0  0  0  0  0  0  0  0  0  0  0  0
    4.1750   -3.3333    0.0000 C   0  0  0  0  0  0  0  0  0  0  0  0
    4.8958   -9.5208    0.0000 C   0  0  0  0  0  0  0  0  0  0  0  0
    5.6083   -3.3250    0.0000 C   0  0  0  0  0  0  0  0  0  0  0  0
    4.1875   -8.2750    0.0000 C   0  0  0  0  0  0  0  0  0  0  0  0
    2.7625   -5.8083    0.0000 C   0  0  0  0  0  0  0  0  0  0  0  0
    2.7625   -6.6333    0.0000 C   0  0  0  0  0  0  0  0  0  0  0  0
  1  2  1  0  0  0  0
  3  5  2  0  0  0  0
  1  4  2  0  0  0  0
  1  5  1  0  0  0  0
  2  6  2  0  0  0  0
  3  7  1  0  0  0  0
  3  8  1  0  0  0  0
  6  9  1  0  0  0  0
  4 10  1  0  0  0  0
  6 11  1  0  0  0  0
  2 12  1  0  0  0  0
 13 26  1  0  0  0  0
 14 27  1  0  0  0  0
 12 15  2  0  0  0  0
 15 16  1  0  0  0  0
 15 17  1  0  0  0  0
  8 18  1  0  0  0  0
  8 19  1  0  0  0  0
  9 20  1  0  0  0  0
  9 21  1  0  0  0  0
  7 22  2  0  0  0  0
 10 23  2  0  0  0  0
 18 24  1  0  0  0  0
 20 25  1  0  0  0  0
 19 26  1  0  0  0  0
 21 27  1  0  0  0  0
 22 28  1  0  0  0  0
 23 29  1  0  0  0  0
  7 10  1  0  0  0  0
 11 16  2  0  0  0  0
 28 29  2  0  0  0  0
 14 25  1  0  0  0  0
 13 24  1  0  0  0  0
M  END
> <MOLFORMULA>
C23 H24 Cl N3 O2

> <MOLWEIGHT>
4.099146000000000e+002

> <IDNUMBER>
AT-225/NB48410

> <SALTDATA>
2 HBr

> <PRICE>
EUR 140/10 mg

> <Similarity score>
0.18

$$$$
