4-({1-[(2,6-difluorophenyl)methyl]-3-methylpiperidin-3-yl}methoxy)pyridine
  -OEChem-04222410502D

 24 26  0     0  0  0  0  0  0999 V2000
    2.2314   -1.7521    0.0000 C   0  0  0  0  0  0  0  0  0  0  0  0
    0.7312   -0.8813    0.0000 N   0  0  0  0  0  0  0  0  0  0  0  0
    1.2314   -1.7521    0.0000 C   0  0  0  0  0  0  0  0  0  0  0  0
   -0.7688   -0.0186    0.0000 C   0  0  3  0  0  0  0  0  0  0  0  0
    2.7313   -0.8813    0.0000 C   0  0  0  0  0  0  0  0  0  0  0  0
    2.7313   -2.6146    0.0000 C   0  0  0  0  0  0  0  0  0  0  0  0
   -0.2688   -0.8813    0.0000 C   0  0  0  0  0  0  0  0  0  0  0  0
   -4.2314    2.9813    0.0000 N   0  0  0  0  0  0  0  0  0  0  0  0
   -1.6355    0.4812    0.0000 C   0  0  0  0  0  0  0  0  0  0  0  0
   -1.6355    1.4813    0.0000 O   0  0  0  0  0  0  0  0  0  0  0  0
   -2.4981    1.9814    0.0000 C   0  0  0  0  0  0  0  0  0  0  0  0
    2.2314   -3.4814    0.0000 F   0  0  0  0  0  0  0  0  0  0  0  0
    2.2314   -0.0186    0.0000 F   0  0  0  0  0  0  0  0  0  0  0  0
    1.2314   -0.0186    0.0000 C   0  0  0  0  0  0  0  0  0  0  0  0
   -3.3689    1.4813    0.0000 C   0  0  0  0  0  0  0  0  0  0  0  0
   -2.4981    2.9813    0.0000 C   0  0  0  0  0  0  0  0  0  0  0  0
   -0.2688    0.8479    0.0000 C   0  0  0  0  0  0  0  0  0  0  0  0
   -3.3689    3.4814    0.0000 C   0  0  0  0  0  0  0  0  0  0  0  0
   -4.2314    1.9814    0.0000 C   0  0  0  0  0  0  0  0  0  0  0  0
    0.7312    0.8479    0.0000 C   0  0  0  0  0  0  0  0  0  0  0  0
   -1.6355   -0.5187    0.0000 C   0  0  0  0  0  0  0  0  0  0  0  0
    4.2314   -1.7521    0.0000 C   0  0  0  0  0  0  0  0  0  0  0  0
    3.7313   -0.8813    0.0000 C   0  0  0  0  0  0  0  0  0  0  0  0
    3.7313   -2.6146    0.0000 C   0  0  0  0  0  0  0  0  0  0  0  0
  2  3  1  0  0  0  0
  1  3  1  0  0  0  0
  4  7  1  0  0  0  0
  1  5  1  0  0  0  0
  1  6  2  0  0  0  0
  2  7  1  0  0  0  0
  8 18  1  0  0  0  0
  8 19  2  0  0  0  0
  4  9  1  0  0  0  0
  9 10  1  0  0  0  0
 10 11  1  0  0  0  0
  6 12  1  0  0  0  0
  5 13  1  0  0  0  0
  2 14  1  0  0  0  0
 11 15  2  0  0  0  0
 11 16  1  0  0  0  0
 17 20  1  0  0  0  0
  4 17  1  0  0  0  0
 16 18  2  0  0  0  0
 15 19  1  0  0  0  0
 14 20  1  0  0  0  0
  4 21  1  0  0  0  0
 22 24  2  0  0  0  0
 22 23  1  0  0  0  0
  5 23  2  0  0  0  0
  6 24  1  0  0  0  0
M  END
> <IDNUMBER>
CM2933-4392

> <available>
1

> <H_acceptor>
3

> <H_donor>
0

> <B_rotN>
5

> <N_O>
3

> <logP>
2.9136

> <logD>
2.3662

> <logSw>
-2.913

> <PSA>
20.5602

> <pKa_ma>
27.1681

> <pKa_mb>
7.8027

> <N_Chirals>
1

> <Name>
4-({1-[(2,6-difluorophenyl)methyl]-3-methylpiperidin-3-yl}methoxy)pyridine

> <Smile>
CC1(COc2ccncc2)CN(Cc(c(F)ccc2)c2F)CCC1

> <Color>
ORANGE

> <Collection>
IC

> <InChI>
InChI=1S/C19H22F2N2O/c1-19(14-24-15-6-9-22-10-7-15)8-3-11-23(13-19)12-16-17(20)4-2-5-18(16)21/h2,4-7,9-10H,3,8,11-14H2,1H3/t19-/m0/s1

> <InChI Key>
WSESRWUBFQCIHJ-IBGZPJMESA-N

> <PERCENTSP3>
42.1

> <Link>
https://www.chemdiv.com/catalog/screening-compounds/compound-CM2933-4392/

> <MFCDNUMBER>
MFCD30467073

> <CLNUMBER>
CM2933

> <STEREO>
RACEMIC MIXTURE

> <State>
Solid

> <Similarity score>
0.24

$$$$
N-butyl-N-ethyl-2-(2-fluorophenyl)quinazolin-4-amine
  -OEChem-04222410502D

 24 26  0     0  0  0  0  0  0999 V2000
    0.8508   -0.2482    0.0000 N   0  0  0  0  0  0  0  0  0  0  0  0
    1.7165    0.2531    0.0000 C   0  0  0  0  0  0  0  0  0  0  0  0
    0.8508   -1.2456    0.0000 C   0  0  0  0  0  0  0  0  0  0  0  0
    2.5926   -0.2482    0.0000 N   0  0  0  0  0  0  0  0  0  0  0  0
    1.7165   -1.7470    0.0000 C   0  0  0  0  0  0  0  0  0  0  0  0
    1.7267    1.2405    0.0000 C   0  0  0  0  0  0  0  0  0  0  0  0
    2.5827   -1.2456    0.0000 C   0  0  0  0  0  0  0  0  0  0  0  0
   -0.0150   -1.7419    0.0000 N   0  0  0  0  0  0  0  0  0  0  0  0
    2.5926    1.7519    0.0000 C   0  0  0  0  0  0  0  0  0  0  0  0
    3.4737    1.2405    0.0000 F   0  0  0  0  0  0  0  0  0  0  0  0
    1.7165   -2.7345    0.0000 C   0  0  0  0  0  0  0  0  0  0  0  0
    0.8610    1.7419    0.0000 C   0  0  0  0  0  0  0  0  0  0  0  0
    3.4485   -1.7317    0.0000 C   0  0  0  0  0  0  0  0  0  0  0  0
   -0.0150   -2.7345    0.0000 C   0  0  0  0  0  0  0  0  0  0  0  0
   -0.8809   -1.2406    0.0000 C   0  0  0  0  0  0  0  0  0  0  0  0
    2.5979    2.7445    0.0000 C   0  0  0  0  0  0  0  0  0  0  0  0
   -1.7368   -1.7470    0.0000 C   0  0  0  0  0  0  0  0  0  0  0  0
   -2.6025   -1.2456    0.0000 C   0  0  0  0  0  0  0  0  0  0  0  0
    2.5827   -3.2358    0.0000 C   0  0  0  0  0  0  0  0  0  0  0  0
    0.8610    2.7445    0.0000 C   0  0  0  0  0  0  0  0  0  0  0  0
    0.8508   -3.2458    0.0000 C   0  0  0  0  0  0  0  0  0  0  0  0
    3.4485   -2.7345    0.0000 C   0  0  0  0  0  0  0  0  0  0  0  0
   -3.4737   -1.7470    0.0000 C   0  0  0  0  0  0  0  0  0  0  0  0
    1.7267    3.2458    0.0000 C   0  0  0  0  0  0  0  0  0  0  0  0
  1  2  1  0  0  0  0
  1  3  2  0  0  0  0
  2  4  2  0  0  0  0
  3  5  1  0  0  0  0
  2  6  1  0  0  0  0
  5  7  1  0  0  0  0
  4  7  1  0  0  0  0
  3  8  1  0  0  0  0
  6  9  2  0  0  0  0
  9 10  1  0  0  0  0
  5 11  2  0  0  0  0
  6 12  1  0  0  0  0
  7 13  2  0  0  0  0
  8 14  1  0  0  0  0
  8 15  1  0  0  0  0
  9 16  1  0  0  0  0
 16 24  2  0  0  0  0
 15 17  1  0  0  0  0
 17 18  1  0  0  0  0
 11 19  1  0  0  0  0
 12 20  2  0  0  0  0
 14 21  1  0  0  0  0
 19 22  2  0  0  0  0
 13 22  1  0  0  0  0
 18 23  1  0  0  0  0
 20 24  1  0  0  0  0
M  END
> <IDNUMBER>
K841-0196

> <available>
15

> <H_acceptor>
2

> <H_donor>
0

> <B_rotN>
6

> <N_O>
3

> <logP>
5.4403

> <logD>
5.1709

> <logSw>
-5.7522

> <PSA>
21.1759

> <pKa_ma>
22.6496

> <pKa_mb>
7.3342

> <N_Chirals>
0

> <Name>
N-butyl-N-ethyl-2-(2-fluorophenyl)quinazolin-4-amine

> <Smile>
CCCCN(CC)c1nc(-c(cccc2)c2F)nc2ccccc12

> <Color>
YELLOW

> <Collection>
NC

> <InChI>
InChI=1S/C20H22FN3/c1-3-5-14-24(4-2)20-16-11-7-9-13-18(16)22-19(23-20)15-10-6-8-12-17(15)21/h6-13H,3-5,14H2,1-2H3

> <InChI Key>
GUFJSCQFOOTDAE-UHFFFAOYSA-N

> <PERCENTSP3>
30

> <Link>
https://www.chemdiv.com/catalog/screening-compounds/compound-K841-0196/

> <MFCDNUMBER>
MFCD15110565

> <CLNUMBER>
CL2243

> <STEREO>
ACHIRAL

> <State>
Solid

> <Similarity score>
0.23

$$$$
2-(2-fluorophenyl)-4-(3-methylpiperidin-1-yl)quinazoline
  -OEChem-04222410502D

 24 27  0     0  0  0  0  0  0999 V2000
    0.0935    0.0961    0.0000 N   0  0  0  0  0  0  0  0  0  0  0  0
   -0.1792   -0.8585    0.0000 C   0  0  0  0  0  0  0  0  0  0  0  0
    1.0631    0.3534    0.0000 C   0  0  0  0  0  0  0  0  0  0  0  0
   -1.1389   -1.0960    0.0000 N   0  0  0  0  0  0  0  0  0  0  0  0
    1.7601   -0.3585    0.0000 N   0  0  0  0  0  0  0  0  0  0  0  0
    0.5328   -1.5504    0.0000 C   0  0  0  0  0  0  0  0  0  0  0  0
    1.3358    1.3080    0.0000 C   0  0  0  0  0  0  0  0  0  0  0  0
    1.4973   -1.3080    0.0000 C   0  0  0  0  0  0  0  0  0  0  0  0
   -1.6188   -1.9746    0.0000 C   0  0  0  0  0  0  0  0  0  0  0  0
    2.3055    1.5504    0.0000 C   0  0  0  0  0  0  0  0  0  0  0  0
   -1.6792   -0.2677    0.0000 C   0  0  0  0  0  0  0  0  0  0  0  0
    3.1389    0.8333    0.0000 F   0  0  0  0  0  0  0  0  0  0  0  0
    0.2700   -2.5203    0.0000 C   0  0  0  0  0  0  0  0  0  0  0  0
    0.6389    2.0203    0.0000 C   0  0  0  0  0  0  0  0  0  0  0  0
   -2.6034   -2.0203    0.0000 C   0  0  3  0  0  0  0  0  0  0  0  0
    2.1993   -2.0050    0.0000 C   0  0  0  0  0  0  0  0  0  0  0  0
   -2.6792   -0.2978    0.0000 C   0  0  0  0  0  0  0  0  0  0  0  0
    2.5731    2.5203    0.0000 C   0  0  0  0  0  0  0  0  0  0  0  0
   -3.1389   -1.1718    0.0000 C   0  0  0  0  0  0  0  0  0  0  0  0
   -3.0579   -2.8988    0.0000 C   0  0  0  0  0  0  0  0  0  0  0  0
    0.9720   -3.2323    0.0000 C   0  0  0  0  0  0  0  0  0  0  0  0
    0.8963    2.9746    0.0000 C   0  0  0  0  0  0  0  0  0  0  0  0
    1.9420   -2.9746    0.0000 C   0  0  0  0  0  0  0  0  0  0  0  0
    1.8662    3.2323    0.0000 C   0  0  0  0  0  0  0  0  0  0  0  0
  1  2  2  0  0  0  0
  1  3  1  0  0  0  0
  2  4  1  0  0  0  0
  3  5  2  0  0  0  0
  2  6  1  0  0  0  0
  6  8  1  0  0  0  0
  3  7  1  0  0  0  0
  5  8  1  0  0  0  0
  4  9  1  0  0  0  0
  7 10  2  0  0  0  0
  4 11  1  0  0  0  0
 10 12  1  0  0  0  0
  6 13  2  0  0  0  0
  7 14  1  0  0  0  0
  9 15  1  0  0  0  0
  8 16  2  0  0  0  0
 11 17  1  0  0  0  0
 10 18  1  0  0  0  0
 18 24  2  0  0  0  0
 17 19  1  0  0  0  0
 15 19  1  0  0  0  0
 15 20  1  0  0  0  0
 13 21  1  0  0  0  0
 21 23  2  0  0  0  0
 14 22  2  0  0  0  0
 16 23  1  0  0  0  0
 22 24  1  0  0  0  0
M  END
> <IDNUMBER>
K669-0188

> <available>
1

> <H_acceptor>
2

> <H_donor>
0

> <B_rotN>
2

> <N_O>
3

> <logP>
4.8539

> <logD>
4.5845

> <logSw>
-4.7947

> <PSA>
21.5719

> <pKa_ma>
22.2789

> <pKa_mb>
7.3342

> <N_Chirals>
1

> <Name>
2-(2-fluorophenyl)-4-(3-methylpiperidin-1-yl)quinazoline

> <Smile>
CC(CCC1)CN1c1nc(-c(cccc2)c2F)nc2ccccc12

> <Color>
YELLOW

> <Collection>
NC

> <InChI>
InChI=1S/C20H20FN3/c1-14-7-6-12-24(13-14)20-16-9-3-5-11-18(16)22-19(23-20)15-8-2-4-10-17(15)21/h2-5,8-11,14H,6-7,12-13H2,1H3/t14-/m0/s1

> <InChI Key>
KTDUKSHBYNRJOX-AWEZNQCLSA-N

> <PERCENTSP3>
30

> <Link>
https://www.chemdiv.com/catalog/screening-compounds/compound-K669-0188/

> <MFCDNUMBER>
MFCD03683352

> <CLNUMBER>
CL2243

> <STEREO>
RACEMIC MIXTURE

> <State>
Solid

> <Similarity score>
0.23

$$$$
4-({1-[(2,4-difluorophenyl)methyl]-3-methylpiperidin-3-yl}methoxy)pyridine
  -OEChem-04222410502D

 24 26  0     0  0  0  0  0  0999 V2000
    0.2314   -1.3211    0.0000 N   0  0  0  0  0  0  0  0  0  0  0  0
    1.7315   -2.1838    0.0000 C   0  0  0  0  0  0  0  0  0  0  0  0
    2.2316   -1.3211    0.0000 C   0  0  0  0  0  0  0  0  0  0  0  0
    0.7314   -2.1838    0.0000 C   0  0  0  0  0  0  0  0  0  0  0  0
   -1.2689   -0.4541    0.0000 C   0  0  3  0  0  0  0  0  0  0  0  0
    3.2317   -1.3211    0.0000 C   0  0  0  0  0  0  0  0  0  0  0  0
   -0.7689   -1.3211    0.0000 C   0  0  0  0  0  0  0  0  0  0  0  0
   -4.7320    2.5464    0.0000 N   0  0  0  0  0  0  0  0  0  0  0  0
    2.2316   -3.0464    0.0000 C   0  0  0  0  0  0  0  0  0  0  0  0
    3.7319   -2.1838    0.0000 C   0  0  0  0  0  0  0  0  0  0  0  0
   -2.1358    0.0458    0.0000 C   0  0  0  0  0  0  0  0  0  0  0  0
   -2.1358    1.0461    0.0000 O   0  0  0  0  0  0  0  0  0  0  0  0
    1.7315   -0.4541    0.0000 F   0  0  0  0  0  0  0  0  0  0  0  0
   -2.9985    1.5460    0.0000 C   0  0  0  0  0  0  0  0  0  0  0  0
    3.2317   -3.0464    0.0000 C   0  0  0  0  0  0  0  0  0  0  0  0
    4.7320   -2.1838    0.0000 F   0  0  0  0  0  0  0  0  0  0  0  0
    0.7314   -0.4541    0.0000 C   0  0  0  0  0  0  0  0  0  0  0  0
   -2.9985    2.5464    0.0000 C   0  0  0  0  0  0  0  0  0  0  0  0
   -3.8693    1.0461    0.0000 C   0  0  0  0  0  0  0  0  0  0  0  0
   -0.7689    0.4169    0.0000 C   0  0  0  0  0  0  0  0  0  0  0  0
   -4.7320    1.5460    0.0000 C   0  0  0  0  0  0  0  0  0  0  0  0
   -3.8693    3.0464    0.0000 C   0  0  0  0  0  0  0  0  0  0  0  0
    0.2314    0.4169    0.0000 C   0  0  0  0  0  0  0  0  0  0  0  0
   -2.1358   -0.9544    0.0000 C   0  0  0  0  0  0  0  0  0  0  0  0
  2  4  1  0  0  0  0
  2  3  2  0  0  0  0
  1  4  1  0  0  0  0
  5  7  1  0  0  0  0
  3  6  1  0  0  0  0
  6 10  2  0  0  0  0
  1  7  1  0  0  0  0
  8 21  2  0  0  0  0
  8 22  1  0  0  0  0
  2  9  1  0  0  0  0
 10 15  1  0  0  0  0
  5 11  1  0  0  0  0
 11 12  1  0  0  0  0
  3 13  1  0  0  0  0
 12 14  1  0  0  0  0
  9 15  2  0  0  0  0
 10 16  1  0  0  0  0
  1 17  1  0  0  0  0
 14 18  1  0  0  0  0
 14 19  2  0  0  0  0
 20 23  1  0  0  0  0
  5 20  1  0  0  0  0
 19 21  1  0  0  0  0
 18 22  2  0  0  0  0
 17 23  1  0  0  0  0
  5 24  1  0  0  0  0
M  END
> <IDNUMBER>
CM2933-4435

> <available>
1

> <H_acceptor>
3

> <H_donor>
0

> <B_rotN>
5

> <N_O>
3

> <logP>
3.1032

> <logD>
2.5558

> <logSw>
-2.8407

> <PSA>
20.5602

> <pKa_ma>
27.1681

> <pKa_mb>
7.8027

> <N_Chirals>
1

> <Name>
4-({1-[(2,4-difluorophenyl)methyl]-3-methylpiperidin-3-yl}methoxy)pyridine

> <Smile>
CC1(COc2ccncc2)CN(Cc(ccc(F)c2)c2F)CCC1

> <Color>
YELLOW

> <Collection>
IC

> <InChI>
InChI=1S/C19H22F2N2O/c1-19(14-24-17-5-8-22-9-6-17)7-2-10-23(13-19)12-15-3-4-16(20)11-18(15)21/h3-6,8-9,11H,2,7,10,12-14H2,1H3/t19-/m0/s1

> <InChI Key>
JAQLUZHPNIKWFT-IBGZPJMESA-N

> <PERCENTSP3>
42.1

> <Link>
https://www.chemdiv.com/catalog/screening-compounds/compound-CM2933-4435/

> <MFCDNUMBER>
MFCD30467078

> <CLNUMBER>
CM2933

> <STEREO>
RACEMIC MIXTURE

> <State>
Liquid

> <Similarity score>
0.23

$$$$
1-(furan-2-yl)-3-methoxy-13,14-dihydronaphtho[1,2-i][1,9]phenanthroline-2-carbon
  -OEChem-04222410502D

 31 36  0     0  0  0  0  0  0999 V2000
    0.4706    0.2293    0.0000 C   0  0  0  0  0  0  0  0  0  0  0  0
    0.4706   -0.7684    0.0000 C   0  0  0  0  0  0  0  0  0  0  0  0
    1.3079    0.7471    0.0000 N   0  0  0  0  0  0  0  0  0  0  0  0
   -0.3975    0.7330    0.0000 C   0  0  0  0  0  0  0  0  0  0  0  0
    0.4566    2.2189    0.0000 C   0  0  0  0  0  0  0  0  0  0  0  0
   -0.3806   -1.2509    0.0000 C   0  0  0  0  0  0  0  0  0  0  0  0
   -0.3975    1.7195    0.0000 C   0  0  0  0  0  0  0  0  0  0  0  0
    1.2938    1.7336    0.0000 C   0  0  0  0  0  0  0  0  0  0  0  0
   -0.3806   -2.2232    0.0000 C   0  0  0  0  0  0  0  0  0  0  0  0
   -1.2502    2.2050    0.0000 C   0  0  0  0  0  0  0  0  0  0  0  0
    1.3220   -2.2232    0.0000 N   0  0  0  0  0  0  0  0  0  0  0  0
    1.3220   -1.2509    0.0000 C   0  0  0  0  0  0  0  0  0  0  0  0
    0.4566    3.1912    0.0000 C   0  0  0  0  0  0  0  0  0  0  0  0
   -1.2502    0.2293    0.0000 C   0  0  0  0  0  0  0  0  0  0  0  0
   -1.2502   -0.7684    0.0000 C   0  0  0  0  0  0  0  0  0  0  0  0
   -1.2332   -2.7073    0.0000 C   0  0  0  0  0  0  0  0  0  0  0  0
    0.4566    4.1650    0.0000 N   0  0  0  0  0  0  0  0  0  0  0  0
    0.4706   -2.7073    0.0000 C   0  0  0  0  0  0  0  0  0  0  0  0
   -2.0889    1.7195    0.0000 O   0  0  0  0  0  0  0  0  0  0  0  0
   -1.2332    3.1618    0.0000 C   0  0  0  0  0  0  0  0  0  0  0  0
   -2.9430    2.2050    0.0000 C   0  0  0  0  0  0  0  0  0  0  0  0
   -2.9556    3.1744    0.0000 C   0  0  0  0  0  0  0  0  0  0  0  0
   -1.2332   -3.6797    0.0000 C   0  0  0  0  0  0  0  0  0  0  0  0
    0.4706   -3.6797    0.0000 C   0  0  0  0  0  0  0  0  0  0  0  0
   -0.3806   -4.1650    0.0000 C   0  0  0  0  0  0  0  0  0  0  0  0
    2.1184    2.2330    0.0000 O   0  0  0  0  0  0  0  0  0  0  0  0
   -2.0889   -2.2232    0.0000 C   0  0  0  0  0  0  0  0  0  0  0  0
   -2.0889   -4.1650    0.0000 C   0  0  0  0  0  0  0  0  0  0  0  0
    2.9556    1.7631    0.0000 C   0  0  0  0  0  0  0  0  0  0  0  0
   -2.9430   -2.7073    0.0000 C   0  0  0  0  0  0  0  0  0  0  0  0
   -2.9430   -3.6797    0.0000 C   0  0  0  0  0  0  0  0  0  0  0  0
  1  2  1  0  0  0  0
  1  3  2  0  0  0  0
  1  4  1  0  0  0  0
  5  7  1  0  0  0  0
  5  8  2  0  0  0  0
  2  6  2  0  0  0  0
  4  7  2  0  0  0  0
  3  8  1  0  0  0  0
  6  9  1  0  0  0  0
  7 10  1  0  0  0  0
 11 12  2  0  0  0  0
  2 12  1  0  0  0  0
  5 13  1  0  0  0  0
  4 14  1  0  0  0  0
 14 15  1  0  0  0  0
  6 15  1  0  0  0  0
  9 16  1  0  0  0  0
 13 17  3  0  0  0  0
 11 18  1  0  0  0  0
  9 18  2  0  0  0  0
 10 19  1  0  0  0  0
 10 20  2  0  0  0  0
 19 21  1  0  0  0  0
 21 22  2  0  0  0  0
 20 22  1  0  0  0  0
 16 23  2  0  0  0  0
 23 25  1  0  0  0  0
 18 24  1  0  0  0  0
 24 25  2  0  0  0  0
  8 26  1  0  0  0  0
 16 27  1  0  0  0  0
 23 28  1  0  0  0  0
 26 29  1  0  0  0  0
 27 30  2  0  0  0  0
 30 31  1  0  0  0  0
 28 31  2  0  0  0  0
M  END
> <IDNUMBER>
8014-2314

> <available>
25

> <H_acceptor>
5

> <H_donor>
0

> <B_rotN>
3

> <N_O>
5

> <logP>
5.8241

> <logD>
5.8239

> <logSw>
-6.8337

> <PSA>
51.61

> <pKa_ma>
20.0087

> <pKa_mb>
3.9944

> <N_Chirals>
0

> <Name>
1-(furan-2-yl)-3-methoxy-13,14-dihydronaphtho[1,2-i][1,9]phenanthroline-2-carbonitrile

> <Smile>
COc1nc(-c2c(CC3)c4c(cccc5)c5ccc4nc2)c3c(-c2ccco2)c1C#N

> <Color>
YELLOW

> <Collection>
DC

> <InChI>
InChI=1S/C26H17N3O2/c1-30-26-19(13-27)24(22-7-4-12-31-22)18-10-9-17-20(25(18)29-26)14-28-21-11-8-15-5-2-3-6-16(15)23(17)21/h2-8,11-12,14H,9-10H2,1H3

> <InChI Key>
MQQTZAXBKOITDA-UHFFFAOYSA-N

> <PERCENTSP3>
11.5

> <Link>
https://www.chemdiv.com/catalog/screening-compounds/compound-8014-2314/

> <MFCDNUMBER>
MFCD03768261

> <STEREO>
ACHIRAL

> <State>
Solid

> <Similarity score>
0.22

$$$$
N-butyl-N-ethyl-9-(methylsulfanyl)-4-phenyl-2,3-dihydro-1H-cyclopenta[4',5']pyri
  -OEChem-04222410502D

 31 35  0     0  0  0  0  0  0999 V2000
    1.4149    0.3854    0.0000 C   0  0  0  0  0  0  0  0  0  0  0  0
   -0.0979    0.9606    0.0000 C   0  0  0  0  0  0  0  0  0  0  0  0
   -0.0979   -0.0395    0.0000 C   0  0  0  0  0  0  0  0  0  0  0  0
    0.8690    1.2148    0.0000 C   0  0  0  0  0  0  0  0  0  0  0  0
    0.8523   -0.3397    0.0000 S   0  0  0  0  0  0  0  0  0  0  0  0
    2.4108    0.4438    0.0000 C   0  0  0  0  0  0  0  0  0  0  0  0
    2.8651    1.3233    0.0000 N   0  0  0  0  0  0  0  0  0  0  0  0
   -0.9606   -0.5355    0.0000 N   0  0  0  0  0  0  0  0  0  0  0  0
   -0.9606    1.4649    0.0000 C   0  0  0  0  0  0  0  0  0  0  0  0
   -1.8233   -0.0395    0.0000 C   0  0  0  0  0  0  0  0  0  0  0  0
    2.3317    2.1691    0.0000 C   0  0  0  0  0  0  0  0  0  0  0  0
    1.3233    2.1067    0.0000 N   0  0  0  0  0  0  0  0  0  0  0  0
   -1.8233    0.9606    0.0000 C   0  0  0  0  0  0  0  0  0  0  0  0
    2.9651   -0.3939    0.0000 N   0  0  0  0  0  0  0  0  0  0  0  0
   -2.6984   -0.5480    0.0000 C   0  0  0  0  0  0  0  0  0  0  0  0
    2.7818    3.0610    0.0000 S   0  0  0  0  0  0  0  0  0  0  0  0
   -1.1731    2.4401    0.0000 C   0  0  0  0  0  0  0  0  0  0  0  0
   -2.5776    1.6400    0.0000 C   0  0  0  0  0  0  0  0  0  0  0  0
   -2.1526    2.5484    0.0000 C   0  0  0  0  0  0  0  0  0  0  0  0
    3.9820   -0.3397    0.0000 C   0  0  0  0  0  0  0  0  0  0  0  0
    2.5108   -1.3023    0.0000 C   0  0  0  0  0  0  0  0  0  0  0  0
   -2.6984   -1.5441    0.0000 C   0  0  0  0  0  0  0  0  0  0  0  0
   -3.5611   -0.0395    0.0000 C   0  0  0  0  0  0  0  0  0  0  0  0
    2.2400    3.8945    0.0000 C   0  0  0  0  0  0  0  0  0  0  0  0
    3.0609   -2.1524    0.0000 C   0  0  0  0  0  0  0  0  0  0  0  0
    2.6067   -3.0444    0.0000 C   0  0  0  0  0  0  0  0  0  0  0  0
    4.4363    0.5648    0.0000 C   0  0  0  0  0  0  0  0  0  0  0  0
    3.1651   -3.8945    0.0000 C   0  0  0  0  0  0  0  0  0  0  0  0
   -3.5611   -2.0442    0.0000 C   0  0  0  0  0  0  0  0  0  0  0  0
   -4.4363   -0.5355    0.0000 C   0  0  0  0  0  0  0  0  0  0  0  0
   -4.4363   -1.5441    0.0000 C   0  0  0  0  0  0  0  0  0  0  0  0
  2  4  1  0  0  0  0
  3  5  1  0  0  0  0
  2  3  2  0  0  0  0
  1  4  2  0  0  0  0
  1  5  1  0  0  0  0
  1  6  1  0  0  0  0
  6  7  2  0  0  0  0
  3  8  1  0  0  0  0
  2  9  1  0  0  0  0
  8 10  2  0  0  0  0
 10 13  1  0  0  0  0
  7 11  1  0  0  0  0
 11 12  2  0  0  0  0
  4 12  1  0  0  0  0
  9 13  2  0  0  0  0
  6 14  1  0  0  0  0
 10 15  1  0  0  0  0
 11 16  1  0  0  0  0
  9 17  1  0  0  0  0
 13 18  1  0  0  0  0
 18 19  1  0  0  0  0
 17 19  1  0  0  0  0
 14 20  1  0  0  0  0
 14 21  1  0  0  0  0
 15 22  1  0  0  0  0
 15 23  2  0  0  0  0
 16 24  1  0  0  0  0
 21 25  1  0  0  0  0
 25 26  1  0  0  0  0
 20 27  1  0  0  0  0
 26 28  1  0  0  0  0
 22 29  2  0  0  0  0
 23 30  1  0  0  0  0
 30 31  2  0  0  0  0
 29 31  1  0  0  0  0
M  END
> <IDNUMBER>
IB05-6144

> <available>
50

> <H_acceptor>
4

> <H_donor>
0

> <B_rotN>
7

> <N_O>
4

> <logP>
7.69

> <logD>
7.69

> <logSw>
-7.29

> <PSA>
63.06

> <pKa_ma>
14

> <pKa_mb>
2.82

> <N_Chirals>
0

> <Name>
N-butyl-N-ethyl-9-(methylsulfanyl)-4-phenyl-2,3-dihydro-1H-cyclopenta[4',5']pyrido[3',2':4,5]thieno[3,2-d]pyrimidin-7-amine

> <Smile>
CCCCN(CC)c1c2sc3nc(-c4ccccc4)c(CCC4)c4c3c2nc(SC)n1

> <Color>
NOT COLORED

> <Collection>
DC

> <InChI>
InChI=1S/C25H28N4S2/c1-4-6-15-29(5-2)23-22-21(27-25(28-23)30-3)19-17-13-10-14-18(17)20(26-24(19)31-22)16-11-8-7-9-12-16/h7-9,11-12H,4-6,10,13-15H2,1-3H3

> <InChI Key>
JEBKFTFONSZVJG-UHFFFAOYSA-N

> <PERCENTSP3>
40

> <Link>
https://www.chemdiv.com/catalog/screening-compounds/compound-IB05-6144/

> <STEREO>
ACHIRAL

> <State>
Solid

> <Similarity score>
0.22

$$$$
4-(2,3-dihydro-1H-benzo[f]cyclopenta[c]quinolin-4-yl)benzene-1,3-diol
  -OEChem-04222410502D

 25 29  0     0  0  0  0  0  0999 V2000
    0.4730    0.4679    0.0000 C   0  0  0  0  0  0  0  0  0  0  0  0
    0.4730   -0.5598    0.0000 N   0  0  0  0  0  0  0  0  0  0  0  0
   -1.2856    0.4430    0.0000 C   0  0  0  0  0  0  0  0  0  0  0  0
    1.3246    1.0170    0.0000 C   0  0  0  0  0  0  0  0  0  0  0  0
   -0.4046    0.9533    0.0000 C   0  0  0  0  0  0  0  0  0  0  0  0
   -1.2467   -0.5598    0.0000 C   0  0  0  0  0  0  0  0  0  0  0  0
   -0.3798   -1.0700    0.0000 C   0  0  0  0  0  0  0  0  0  0  0  0
    2.2317    0.5387    0.0000 C   0  0  0  0  0  0  0  0  0  0  0  0
   -2.1254   -1.0700    0.0000 C   0  0  0  0  0  0  0  0  0  0  0  0
    1.2856    2.0115    0.0000 C   0  0  0  0  0  0  0  0  0  0  0  0
    3.0468    1.0737    0.0000 C   0  0  0  0  0  0  0  0  0  0  0  0
   -0.3798   -2.0752    0.0000 C   0  0  0  0  0  0  0  0  0  0  0  0
   -2.0972   -2.1048    0.0000 C   0  0  0  0  0  0  0  0  0  0  0  0
   -1.2467   -2.5607    0.0000 C   0  0  0  0  0  0  0  0  0  0  0  0
    3.0208    2.0752    0.0000 C   0  0  0  0  0  0  0  0  0  0  0  0
    2.3085   -0.4464    0.0000 O   0  0  0  0  0  0  0  0  0  0  0  0
    2.1385    2.5607    0.0000 C   0  0  0  0  0  0  0  0  0  0  0  0
   -2.0049    1.1446    0.0000 C   0  0  0  0  0  0  0  0  0  0  0  0
   -0.6137    1.9230    0.0000 C   0  0  0  0  0  0  0  0  0  0  0  0
    3.8606    2.5855    0.0000 O   0  0  0  0  0  0  0  0  0  0  0  0
   -1.5868    2.0115    0.0000 C   0  0  0  0  0  0  0  0  0  0  0  0
   -3.0077   -0.5918    0.0000 C   0  0  0  0  0  0  0  0  0  0  0  0
   -2.9758   -2.5855    0.0000 C   0  0  0  0  0  0  0  0  0  0  0  0
   -3.8606   -1.1020    0.0000 C   0  0  0  0  0  0  0  0  0  0  0  0
   -3.8606   -2.0752    0.0000 C   0  0  0  0  0  0  0  0  0  0  0  0
  1  2  2  0  0  0  0
  3  5  2  0  0  0  0
  1  4  1  0  0  0  0
  1  5  1  0  0  0  0
  3  6  1  0  0  0  0
  2  7  1  0  0  0  0
  6  7  2  0  0  0  0
  4  8  1  0  0  0  0
  6  9  1  0  0  0  0
  4 10  2  0  0  0  0
  8 11  2  0  0  0  0
 11 15  1  0  0  0  0
  7 12  1  0  0  0  0
  9 13  2  0  0  0  0
 12 14  2  0  0  0  0
 13 14  1  0  0  0  0
 15 17  2  0  0  0  0
  8 16  1  0  0  0  0
 10 17  1  0  0  0  0
  3 18  1  0  0  0  0
  5 19  1  0  0  0  0
 15 20  1  0  0  0  0
 19 21  1  0  0  0  0
 18 21  1  0  0  0  0
  9 22  1  0  0  0  0
 13 23  1  0  0  0  0
 22 24  2  0  0  0  0
 24 25  1  0  0  0  0
 23 25  2  0  0  0  0
M  END
> <IDNUMBER>
8006-2755

> <available>
3

> <H_acceptor>
3

> <H_donor>
2

> <B_rotN>
1

> <N_O>
3

> <logP>
5.5787

> <logD>
5.5692

> <logSw>
-6.9082

> <PSA>
43.248

> <pKa_ma>
9.0688

> <pKa_mb>
4.2266

> <N_Chirals>
0

> <Name>
4-(2,3-dihydro-1H-benzo[f]cyclopenta[c]quinolin-4-yl)benzene-1,3-diol

> <Smile>
Oc(cc1)cc(O)c1-c1nc2ccc(cccc3)c3c2c2c1CCC2

> <Color>
BROWN

> <Collection>
DC

> <InChI>
InChI=1S/C22H17NO2/c24-14-9-10-18(20(25)12-14)22-17-7-3-6-16(17)21-15-5-2-1-4-13(15)8-11-19(21)23-22/h1-2,4-5,8-12,24-25H,3,6-7H2

> <InChI Key>
NBKDZHMKLVUYCC-UHFFFAOYSA-N

> <PERCENTSP3>
13.64

> <Link>
https://www.chemdiv.com/catalog/screening-compounds/compound-8006-2755/

> <MFCDNUMBER>
MFCD00373604

> <STEREO>
ACHIRAL

> <State>
Solid

> <Similarity score>
0.22

$$$$
2-(2,3-dihydro-1H-benzo[f]cyclopenta[c]quinolin-4-yl)-4-nitrophenol
  -OEChem-04222410502D

 27 31  0     0  0  0  0  0  0999 V2000
    0.8781   -0.2288    0.0000 C   0  0  0  0  0  0  0  0  0  0  0  0
    0.8781   -1.2497    0.0000 N   0  0  0  0  0  0  0  0  0  0  0  0
    1.7504    0.2679    0.0000 C   0  0  0  0  0  0  0  0  0  0  0  0
    2.6148    2.7438    0.0000 N   0  3  0  0  0  0  0  0  0  0  0  0
   -0.8898   -0.2288    0.0000 C   0  0  0  0  0  0  0  0  0  0  0  0
   -0.0137    0.2679    0.0000 C   0  0  0  0  0  0  0  0  0  0  0  0
   -0.8898   -1.2497    0.0000 C   0  0  0  0  0  0  0  0  0  0  0  0
   -0.0137   -1.7502    0.0000 C   0  0  0  0  0  0  0  0  0  0  0  0
    1.7504    1.2614    0.0000 C   0  0  0  0  0  0  0  0  0  0  0  0
    2.6148    1.7544    0.0000 C   0  0  0  0  0  0  0  0  0  0  0  0
   -1.7503   -1.7502    0.0000 C   0  0  0  0  0  0  0  0  0  0  0  0
    2.6148   -0.2288    0.0000 C   0  0  0  0  0  0  0  0  0  0  0  0
    3.4869    3.2326    0.0000 O   0  5  0  0  0  0  0  0  0  0  0  0
    1.7504    3.2132    0.0000 O   0  0  0  0  0  0  0  0  0  0  0  0
   -0.0137   -2.7477    0.0000 C   0  0  0  0  0  0  0  0  0  0  0  0
    3.4869    1.2614    0.0000 C   0  0  0  0  0  0  0  0  0  0  0  0
   -1.7503   -2.7477    0.0000 C   0  0  0  0  0  0  0  0  0  0  0  0
    3.4869    0.2992    0.0000 C   0  0  0  0  0  0  0  0  0  0  0  0
   -0.8898   -3.2326    0.0000 C   0  0  0  0  0  0  0  0  0  0  0  0
   -1.6292    0.4557    0.0000 C   0  0  0  0  0  0  0  0  0  0  0  0
   -0.2328    1.2614    0.0000 C   0  0  0  0  0  0  0  0  0  0  0  0
    2.6148   -1.2262    0.0000 O   0  0  0  0  0  0  0  0  0  0  0  0
   -1.1989    1.3475    0.0000 C   0  0  0  0  0  0  0  0  0  0  0  0
   -2.6264   -1.2497    0.0000 C   0  0  0  0  0  0  0  0  0  0  0  0
   -2.6264   -3.2326    0.0000 C   0  0  0  0  0  0  0  0  0  0  0  0
   -3.4869   -1.7502    0.0000 C   0  0  0  0  0  0  0  0  0  0  0  0
   -3.4869   -2.7477    0.0000 C   0  0  0  0  0  0  0  0  0  0  0  0
  1  2  2  0  0  0  0
  1  3  1  0  0  0  0
  4 10  1  0  0  0  0
  5  6  2  0  0  0  0
  1  6  1  0  0  0  0
  5  7  1  0  0  0  0
  2  8  1  0  0  0  0
  7  8  2  0  0  0  0
  3  9  1  0  0  0  0
  9 10  2  0  0  0  0
  7 11  1  0  0  0  0
  3 12  2  0  0  0  0
  4 13  1  0  0  0  0
  4 14  2  0  0  0  0
  8 15  1  0  0  0  0
 16 18  2  0  0  0  0
 10 16  1  0  0  0  0
 11 17  2  0  0  0  0
 12 18  1  0  0  0  0
 15 19  2  0  0  0  0
 17 19  1  0  0  0  0
  5 20  1  0  0  0  0
 20 23  1  0  0  0  0
  6 21  1  0  0  0  0
 12 22  1  0  0  0  0
 21 23  1  0  0  0  0
 11 24  1  0  0  0  0
 17 25  1  0  0  0  0
 25 27  2  0  0  0  0
 24 26  2  0  0  0  0
 26 27  1  0  0  0  0
M  CHG  2   4   1  13  -1
M  END
> <IDNUMBER>
2268-1391

> <available>
1

> <H_acceptor>
6

> <H_donor>
1

> <B_rotN>
2

> <N_O>
5

> <logP>
6.1957

> <logD>
5.4682

> <logSw>
-6.9126

> <PSA>
59.013

> <pKa_ma>
6.7625

> <pKa_mb>
3.3679

> <N_Chirals>
0

> <Name>
2-(2,3-dihydro-1H-benzo[f]cyclopenta[c]quinolin-4-yl)-4-nitrophenol

> <Smile>
[O-][N+](c(cc1)cc(-c2nc3ccc(cccc4)c4c3c3c2CCC3)c1O)=O

> <Color>
YELLOW

> <Collection>
DC

> <InChI>
InChI=1S/C22H16N2O3/c25-20-11-9-14(24(26)27)12-18(20)22-17-7-3-6-16(17)21-15-5-2-1-4-13(15)8-10-19(21)23-22/h1-2,4-5,8-12,25H,3,6-7H2

> <InChI Key>
AEYYPDZVPRHNLC-UHFFFAOYSA-N

> <PERCENTSP3>
13.6

> <Link>
https://www.chemdiv.com/catalog/screening-compounds/compound-2268-1391/

> <MFCDNUMBER>
MFCD01815799

> <STEREO>
ACHIRAL

> <State>
Solid

> <Similarity score>
0.22

$$$$
3-(2,3-dihydro-1H-benzo[f]cyclopenta[c]quinolin-4-yl)phenol
  -OEChem-04222410502D

 24 28  0     0  0  0  0  0  0999 V2000
    0.4264   -0.5176    0.0000 N   0  0  0  0  0  0  0  0  0  0  0  0
    0.4264    0.4982    0.0000 C   0  0  0  0  0  0  0  0  0  0  0  0
   -1.2950    0.4982    0.0000 C   0  0  0  0  0  0  0  0  0  0  0  0
   -1.2950   -0.5176    0.0000 C   0  0  0  0  0  0  0  0  0  0  0  0
   -0.4304    1.0099    0.0000 C   0  0  0  0  0  0  0  0  0  0  0  0
   -0.4304   -1.0021    0.0000 C   0  0  0  0  0  0  0  0  0  0  0  0
    1.2911    1.0099    0.0000 C   0  0  0  0  0  0  0  0  0  0  0  0
   -2.1633   -1.0021    0.0000 C   0  0  0  0  0  0  0  0  0  0  0  0
   -0.4304   -2.0258    0.0000 C   0  0  0  0  0  0  0  0  0  0  0  0
    2.1750    0.4982    0.0000 C   0  0  0  0  0  0  0  0  0  0  0  0
   -2.1633   -2.0258    0.0000 C   0  0  0  0  0  0  0  0  0  0  0  0
   -1.2950   -2.5064    0.0000 C   0  0  0  0  0  0  0  0  0  0  0  0
    3.0317    1.0099    0.0000 C   0  0  0  0  0  0  0  0  0  0  0  0
   -2.0354    1.1844    0.0000 C   0  0  0  0  0  0  0  0  0  0  0  0
   -0.6553    2.0063    0.0000 C   0  0  0  0  0  0  0  0  0  0  0  0
    3.8847    0.5292    0.0000 O   0  0  0  0  0  0  0  0  0  0  0  0
    1.2911    2.0063    0.0000 C   0  0  0  0  0  0  0  0  0  0  0  0
   -1.6323    2.0799    0.0000 C   0  0  0  0  0  0  0  0  0  0  0  0
   -3.0164   -0.5176    0.0000 C   0  0  0  0  0  0  0  0  0  0  0  0
    2.1750    2.5064    0.0000 C   0  0  0  0  0  0  0  0  0  0  0  0
    3.0317    2.0063    0.0000 C   0  0  0  0  0  0  0  0  0  0  0  0
   -3.0164   -2.5064    0.0000 C   0  0  0  0  0  0  0  0  0  0  0  0
   -3.8847   -1.0021    0.0000 C   0  0  0  0  0  0  0  0  0  0  0  0
   -3.8847   -2.0258    0.0000 C   0  0  0  0  0  0  0  0  0  0  0  0
  1  2  2  0  0  0  0
  3  4  1  0  0  0  0
  4  6  2  0  0  0  0
  2  5  1  0  0  0  0
  3  5  2  0  0  0  0
  1  6  1  0  0  0  0
  2  7  1  0  0  0  0
  4  8  1  0  0  0  0
  6  9  1  0  0  0  0
  7 10  2  0  0  0  0
 11 12  1  0  0  0  0
  8 11  2  0  0  0  0
  9 12  2  0  0  0  0
 10 13  1  0  0  0  0
  3 14  1  0  0  0  0
 14 18  1  0  0  0  0
  5 15  1  0  0  0  0
 13 16  1  0  0  0  0
  7 17  1  0  0  0  0
 15 18  1  0  0  0  0
  8 19  1  0  0  0  0
 17 20  2  0  0  0  0
 20 21  1  0  0  0  0
 13 21  2  0  0  0  0
 11 22  1  0  0  0  0
 19 23  2  0  0  0  0
 22 24  2  0  0  0  0
 23 24  1  0  0  0  0
M  END
> <IDNUMBER>
1661-1363

> <available>
7

> <H_acceptor>
2

> <H_donor>
1

> <B_rotN>
1

> <N_O>
2

> <logP>
5.6888

> <logD>
5.6628

> <logSw>
-6.9719

> <PSA>
26.7001

> <pKa_ma>
8.7181

> <pKa_mb>
5.5099

> <N_Chirals>
0

> <Name>
3-(2,3-dihydro-1H-benzo[f]cyclopenta[c]quinolin-4-yl)phenol

> <Smile>
Oc1cc(-c2nc3ccc(cccc4)c4c3c3c2CCC3)ccc1

> <Color>
NOT COLORED

> <Collection>
DC

> <InChI>
InChI=1S/C22H17NO/c24-16-7-3-6-15(13-16)22-19-10-4-9-18(19)21-17-8-2-1-5-14(17)11-12-20(21)23-22/h1-3,5-8,11-13,24H,4,9-10H2

> <InChI Key>
XVUVVFWKJOVPBV-UHFFFAOYSA-N

> <PERCENTSP3>
13.6

> <Link>
https://www.chemdiv.com/catalog/screening-compounds/compound-1661-1363/

> <MFCDNUMBER>
MFCD01030344

> <STEREO>
ACHIRAL

> <State>
Solid

> <Similarity score>
0.22

$$$$
3-(4-chlorophenyl)-4-{3-[(2-fluorophenyl)methyl]-1,3-diazinan-1-yl}[1,2]oxazolo[
  -OEChem-04222410502D

 30 34  0     0  0  0  0  0  0999 V2000
   -0.7241   -2.4997    0.0000 C   0  0  0  0  0  0  0  0  0  0  0  0
    0.1416   -2.0005    0.0000 C   0  0  0  0  0  0  0  0  0  0  0  0
    0.1416   -1.0016    0.0000 N   0  0  0  0  0  0  0  0  0  0  0  0
   -2.2556   -3.0104    0.0000 N   0  0  0  0  0  0  0  0  0  0  0  0
   -1.6730   -2.1945    0.0000 C   0  0  0  0  0  0  0  0  0  0  0  0
   -0.7241   -3.4987    0.0000 C   0  0  0  0  0  0  0  0  0  0  0  0
   -1.6730   -3.7983    0.0000 O   0  0  0  0  0  0  0  0  0  0  0  0
    1.0072   -0.5022    0.0000 C   0  0  0  0  0  0  0  0  0  0  0  0
    1.0072    0.4966    0.0000 N   0  0  0  0  0  0  0  0  0  0  0  0
    1.0072   -2.4997    0.0000 N   0  0  0  0  0  0  0  0  0  0  0  0
    0.1416   -3.9980    0.0000 N   0  0  0  0  0  0  0  0  0  0  0  0
    1.8729    2.0005    0.0000 C   0  0  0  0  0  0  0  0  0  0  0  0
    1.8729    1.0016    0.0000 C   0  0  0  0  0  0  0  0  0  0  0  0
   -2.1281   -1.3122    0.0000 C   0  0  0  0  0  0  0  0  0  0  0  0
    1.0072   -3.4987    0.0000 C   0  0  0  0  0  0  0  0  0  0  0  0
    2.7383    2.4997    0.0000 C   0  0  0  0  0  0  0  0  0  0  0  0
   -0.7241   -0.5022    0.0000 C   0  0  0  0  0  0  0  0  0  0  0  0
   -3.1379   -1.2680    0.0000 C   0  0  0  0  0  0  0  0  0  0  0  0
   -1.5900   -0.4690    0.0000 C   0  0  0  0  0  0  0  0  0  0  0  0
   -0.7241    0.4966    0.0000 C   0  0  0  0  0  0  0  0  0  0  0  0
   -3.0546    0.4800    0.0000 C   0  0  0  0  0  0  0  0  0  0  0  0
    3.6039    1.9893    0.0000 F   0  0  0  0  0  0  0  0  0  0  0  0
    0.1416    0.9960    0.0000 C   0  0  0  0  0  0  0  0  0  0  0  0
   -3.6039   -0.3857    0.0000 C   0  0  0  0  0  0  0  0  0  0  0  0
   -2.0558    0.4189    0.0000 C   0  0  0  0  0  0  0  0  0  0  0  0
   -3.5041    1.3789    0.0000 Cl  0  0  0  0  0  0  0  0  0  0  0  0
    1.0072    2.4997    0.0000 C   0  0  0  0  0  0  0  0  0  0  0  0
    2.7383    3.4987    0.0000 C   0  0  0  0  0  0  0  0  0  0  0  0
    1.0072    3.4987    0.0000 C   0  0  0  0  0  0  0  0  0  0  0  0
    1.8729    3.9980    0.0000 C   0  0  0  0  0  0  0  0  0  0  0  0
  1  2  1  0  0  0  0
  2  3  1  0  0  0  0
  4  5  2  0  0  0  0
  1  5  1  0  0  0  0
  1  6  2  0  0  0  0
  6  7  1  0  0  0  0
  4  7  1  0  0  0  0
  3  8  1  0  0  0  0
  8  9  1  0  0  0  0
  9 23  1  0  0  0  0
  2 10  2  0  0  0  0
 10 15  1  0  0  0  0
  6 11  1  0  0  0  0
 12 13  1  0  0  0  0
  9 13  1  0  0  0  0
  5 14  1  0  0  0  0
 11 15  2  0  0  0  0
 12 16  2  0  0  0  0
  3 17  1  0  0  0  0
 14 18  1  0  0  0  0
 14 19  2  0  0  0  0
 17 20  1  0  0  0  0
 21 25  2  0  0  0  0
 16 22  1  0  0  0  0
 20 23  1  0  0  0  0
 18 24  2  0  0  0  0
 21 24  1  0  0  0  0
 19 25  1  0  0  0  0
 21 26  1  0  0  0  0
 12 27  1  0  0  0  0
 16 28  1  0  0  0  0
 28 30  2  0  0  0  0
 27 29  2  0  0  0  0
 29 30  1  0  0  0  0
M  END
> <IDNUMBER>
E939-0286

> <available>
26

> <H_acceptor>
5

> <H_donor>
0

> <B_rotN>
4

> <N_O>
6

> <logP>
5.1001

> <logD>
5.1

> <logSw>
-5.7668

> <PSA>
49.815

> <pKa_ma>
21.573

> <pKa_mb>
3.7444

> <N_Chirals>
0

> <Name>
3-(4-chlorophenyl)-4-{3-[(2-fluorophenyl)methyl]-1,3-diazinan-1-yl}[1,2]oxazolo[5,4-d]pyrimidine

> <Smile>
Fc1c(CN(CCC2)CN2c2c(c(-c(cc3)ccc3Cl)no3)c3ncn2)cccc1

> <Color>
NOT COLORED

> <Collection>
DC

> <InChI>
InChI=1S/C22H19ClFN5O/c23-17-8-6-15(7-9-17)20-19-21(25-13-26-22(19)30-27-20)29-11-3-10-28(14-29)12-16-4-1-2-5-18(16)24/h1-2,4-9,13H,3,10-12,14H2

> <InChI Key>
BCXGEOFHIFFFFC-UHFFFAOYSA-N

> <PERCENTSP3>
22.7

> <Link>
https://www.chemdiv.com/catalog/screening-compounds/compound-E939-0286/

> <MFCDNUMBER>
MFCD14928776

> <CLNUMBER>
CL5509

> <STEREO>
ACHIRAL

> <State>
Solid

> <Similarity score>
0.22

$$$$
1-(2-chloro-9H-purin-6-yl)-N-[2-(6-methoxy-1H-indol-3-yl)ethyl]piperidine-3-carb
  -OEChem-04222410502D

 32 36  0     0  0  0  0  0  0999 V2000
   -3.6371    1.0143    0.0000 C   0  0  0  0  0  0  0  0  0  0  0  0
   -4.5160    1.5101    0.0000 C   0  0  0  0  0  0  0  0  0  0  0  0
   -2.7746    1.5184    0.0000 N   0  0  0  0  0  0  0  0  0  0  0  0
   -4.5160    2.5099    0.0000 C   0  0  0  0  0  0  0  0  0  0  0  0
   -3.6537    3.0098    0.0000 N   0  0  0  0  0  0  0  0  0  0  0  0
   -3.6371    0.0145    0.0000 N   0  0  0  0  0  0  0  0  0  0  0  0
   -2.7746    2.5143    0.0000 C   0  0  0  0  0  0  0  0  0  0  0  0
   -5.4534    2.8101    0.0000 N   0  0  0  0  0  0  0  0  0  0  0  0
    2.7871   -3.0393    0.0000 N   0  0  0  0  0  0  0  0  0  0  0  0
    3.1913   -2.1436    0.0000 C   0  0  0  0  0  0  0  0  0  0  0  0
   -2.7622   -1.4812    0.0000 C   0  0  3  0  0  0  0  0  0  0  0  0
    2.4415   -1.4646    0.0000 C   0  0  0  0  0  0  0  0  0  0  0  0
   -5.4534    1.1975    0.0000 N   0  0  0  0  0  0  0  0  0  0  0  0
   -2.7622   -0.4773    0.0000 C   0  0  0  0  0  0  0  0  0  0  0  0
   -1.8831   -1.9812    0.0000 C   0  0  0  0  0  0  0  0  0  0  0  0
    1.7872   -2.9474    0.0000 C   0  0  0  0  0  0  0  0  0  0  0  0
   -6.0367    2.0100    0.0000 C   0  0  0  0  0  0  0  0  0  0  0  0
    1.5790   -1.9646    0.0000 C   0  0  0  0  0  0  0  0  0  0  0  0
    4.1287   -1.8310    0.0000 C   0  0  0  0  0  0  0  0  0  0  0  0
    2.6371   -0.4978    0.0000 C   0  0  0  0  0  0  0  0  0  0  0  0
   -1.8872   -2.9891    0.0000 O   0  0  0  0  0  0  0  0  0  0  0  0
   -1.0291   -1.4812    0.0000 N   0  0  0  0  0  0  0  0  0  0  0  0
   -1.9123    3.0393    0.0000 Cl  0  0  0  0  0  0  0  0  0  0  0  0
    4.3453   -0.8563    0.0000 C   0  0  0  0  0  0  0  0  0  0  0  0
   -4.4994   -0.4856    0.0000 C   0  0  0  0  0  0  0  0  0  0  0  0
    3.5869   -0.1815    0.0000 C   0  0  0  0  0  0  0  0  0  0  0  0
   -3.6245   -1.9812    0.0000 C   0  0  0  0  0  0  0  0  0  0  0  0
   -0.1500   -1.9812    0.0000 C   0  0  0  0  0  0  0  0  0  0  0  0
    0.6999   -1.4769    0.0000 C   0  0  0  0  0  0  0  0  0  0  0  0
    5.3117   -0.5605    0.0000 O   0  0  0  0  0  0  0  0  0  0  0  0
   -4.4869   -1.4935    0.0000 C   0  0  0  0  0  0  0  0  0  0  0  0
    6.0367   -1.2564    0.0000 C   0  0  0  0  0  0  0  0  0  0  0  0
  1  2  2  0  0  0  0
  1  3  1  0  0  0  0
  2  4  1  0  0  0  0
  5  7  1  0  0  0  0
  4  5  2  0  0  0  0
  1  6  1  0  0  0  0
  3  7  2  0  0  0  0
  4  8  1  0  0  0  0
  9 16  1  0  0  0  0
  9 10  1  0  0  0  0
 10 12  1  0  0  0  0
 11 14  1  0  0  0  0
 12 18  1  0  0  0  0
  2 13  1  0  0  0  0
  6 14  1  0  0  0  0
 11 15  1  0  0  0  0
 16 18  2  0  0  0  0
 13 17  1  0  0  0  0
  8 17  2  0  0  0  0
 18 29  1  0  0  0  0
 10 19  2  0  0  0  0
 19 24  1  0  0  0  0
 12 20  2  0  0  0  0
 15 21  2  0  0  0  0
 15 22  1  0  0  0  0
  7 23  1  0  0  0  0
 24 26  2  0  0  0  0
  6 25  1  0  0  0  0
 20 26  1  0  0  0  0
 27 31  1  0  0  0  0
 11 27  1  0  0  0  0
 22 28  1  0  0  0  0
 28 29  1  0  0  0  0
 24 30  1  0  0  0  0
 25 31  1  0  0  0  0
 30 32  1  0  0  0  0
M  END
> <IDNUMBER>
IB03-5578

> <available>
50

> <H_acceptor>
6

> <H_donor>
3

> <B_rotN>
7

> <N_O>
9

> <logP>
2.91

> <logD>
2.85

> <logSw>
-3.71

> <PSA>
129.71

> <pKa_ma>
8.29

> <pKa_mb>
4.6

> <N_Chirals>
1

> <Name>
1-(2-chloro-9H-purin-6-yl)-N-[2-(6-methoxy-1H-indol-3-yl)ethyl]piperidine-3-carboxamide

> <Smile>
COc(cc1)cc2c1c(CCNC(C(CCC1)CN1c1c3[nH]cnc3nc(Cl)n1)=O)c[nH]2

> <Color>
NOT COLORED

> <Collection>
DC

> <InChI>
InChI=1S/C22H24ClN7O2/c1-32-15-4-5-16-13(10-25-17(16)9-15)6-7-24-21(31)14-3-2-8-30(11-14)20-18-19(27-12-26-18)28-22(23)29-20/h4-5,9-10,12,14,25H,2-3,6-8,11H2,1H3,(H,24,31)(H,26,27,28,29)/t14-/m0/s1

> <InChI Key>
LUJYONXRXAPVOH-AWEZNQCLSA-N

> <PERCENTSP3>
36.4

> <Link>
https://www.chemdiv.com/catalog/screening-compounds/compound-IB03-5578/

> <STEREO>
RACEMIC MIXTURE

> <State>
Solid

> <Similarity score>
0.22

$$$$
2-(4-methoxyphenyl)-4-(3-methylpiperidin-1-yl)quinazoline
  -OEChem-04222410502D

 25 28  0     0  0  0  0  0  0999 V2000
   -0.8603    0.7452    0.0000 C   0  0  0  0  0  0  0  0  0  0  0  0
    0.0099    0.2553    0.0000 N   0  0  0  0  0  0  0  0  0  0  0  0
    0.0099   -0.7552    0.0000 C   0  0  0  0  0  0  0  0  0  0  0  0
   -0.8603    1.7555    0.0000 N   0  0  0  0  0  0  0  0  0  0  0  0
   -1.7205    0.2553    0.0000 C   0  0  0  0  0  0  0  0  0  0  0  0
   -0.8603   -1.2452    0.0000 N   0  0  0  0  0  0  0  0  0  0  0  0
   -1.7205   -0.7552    0.0000 C   0  0  0  0  0  0  0  0  0  0  0  0
    0.8603   -1.2452    0.0000 C   0  0  0  0  0  0  0  0  0  0  0  0
   -1.7305    2.2655    0.0000 C   0  0  0  0  0  0  0  0  0  0  0  0
    0.8603   -2.2555    0.0000 C   0  0  0  0  0  0  0  0  0  0  0  0
    1.7305   -0.7552    0.0000 C   0  0  0  0  0  0  0  0  0  0  0  0
   -0.0099    2.2655    0.0000 C   0  0  0  0  0  0  0  0  0  0  0  0
    2.5905   -2.2555    0.0000 C   0  0  0  0  0  0  0  0  0  0  0  0
    1.7202   -2.7455    0.0000 C   0  0  0  0  0  0  0  0  0  0  0  0
    2.6005   -1.2452    0.0000 C   0  0  0  0  0  0  0  0  0  0  0  0
   -2.5905    0.7452    0.0000 C   0  0  0  0  0  0  0  0  0  0  0  0
   -1.7305    3.2558    0.0000 C   0  0  3  0  0  0  0  0  0  0  0  0
    3.4608   -2.7655    0.0000 O   0  0  0  0  0  0  0  0  0  0  0  0
   -2.5905   -1.2452    0.0000 C   0  0  0  0  0  0  0  0  0  0  0  0
   -0.0099    3.2558    0.0000 C   0  0  0  0  0  0  0  0  0  0  0  0
   -0.8803    3.7658    0.0000 C   0  0  0  0  0  0  0  0  0  0  0  0
    3.4408   -3.7658    0.0000 C   0  0  0  0  0  0  0  0  0  0  0  0
   -2.6005    3.7658    0.0000 C   0  0  0  0  0  0  0  0  0  0  0  0
   -3.4608    0.2553    0.0000 C   0  0  0  0  0  0  0  0  0  0  0  0
   -3.4608   -0.7552    0.0000 C   0  0  0  0  0  0  0  0  0  0  0  0
  1  2  2  0  0  0  0
  2  3  1  0  0  0  0
  1  4  1  0  0  0  0
  1  5  1  0  0  0  0
  6  7  1  0  0  0  0
  3  6  2  0  0  0  0
  5  7  1  0  0  0  0
  3  8  1  0  0  0  0
  4  9  1  0  0  0  0
  8 10  2  0  0  0  0
  8 11  1  0  0  0  0
  4 12  1  0  0  0  0
 13 15  1  0  0  0  0
 13 14  2  0  0  0  0
 10 14  1  0  0  0  0
 11 15  2  0  0  0  0
  5 16  2  0  0  0  0
  9 17  1  0  0  0  0
 17 21  1  0  0  0  0
 13 18  1  0  0  0  0
  7 19  2  0  0  0  0
 12 20  1  0  0  0  0
 20 21  1  0  0  0  0
 18 22  1  0  0  0  0
 17 23  1  0  0  0  0
 16 24  1  0  0  0  0
 24 25  2  0  0  0  0
 19 25  1  0  0  0  0
M  END
> <IDNUMBER>
G516-0043

> <available>
26

> <H_acceptor>
3

> <H_donor>
0

> <B_rotN>
3

> <N_O>
4

> <logP>
5.7048

> <logD>
5.2636

> <logSw>
-5.873

> <PSA>
29.1157

> <pKa_ma>
22.2789

> <pKa_mb>
7.6461

> <N_Chirals>
1

> <Name>
2-(4-methoxyphenyl)-4-(3-methylpiperidin-1-yl)quinazoline

> <Smile>
CC(CCC1)CN1c1nc(-c(cc2)ccc2OC)nc2ccccc12

> <Color>
NOT COLORED

> <Collection>
NC

> <InChI>
InChI=1S/C21H23N3O/c1-15-6-5-13-24(14-15)21-18-7-3-4-8-19(18)22-20(23-21)16-9-11-17(25-2)12-10-16/h3-4,7-12,15H,5-6,13-14H2,1-2H3/t15-/m0/s1

> <InChI Key>
WQJICBFJIWOZSB-HNNXBMFYSA-N

> <PERCENTSP3>
33.3

> <Link>
https://www.chemdiv.com/catalog/screening-compounds/compound-G516-0043/

> <MFCDNUMBER>
MFCD15014999

> <CLNUMBER>
CL2243

> <STEREO>
RACEMIC MIXTURE

> <State>
Solid

> <Similarity score>
0.22

$$$$
N-butyl-N-ethyl-2-(4-methoxyphenyl)quinazolin-4-amine
  -OEChem-04222410502D

 25 27  0     0  0  0  0  0  0999 V2000
    0.0101   -0.2355    0.0000 N   0  0  0  0  0  0  0  0  0  0  0  0
   -0.8614    0.2553    0.0000 C   0  0  0  0  0  0  0  0  0  0  0  0
    0.0101   -1.2468    0.0000 C   0  0  0  0  0  0  0  0  0  0  0  0
   -1.7225   -0.2355    0.0000 C   0  0  0  0  0  0  0  0  0  0  0  0
   -0.8614   -1.7378    0.0000 N   0  0  0  0  0  0  0  0  0  0  0  0
   -1.7225   -1.2468    0.0000 C   0  0  0  0  0  0  0  0  0  0  0  0
   -0.8614    1.2669    0.0000 N   0  0  0  0  0  0  0  0  0  0  0  0
    0.8614   -1.7378    0.0000 C   0  0  0  0  0  0  0  0  0  0  0  0
    1.7326   -1.2468    0.0000 C   0  0  0  0  0  0  0  0  0  0  0  0
    0.8614   -2.7493    0.0000 C   0  0  0  0  0  0  0  0  0  0  0  0
    2.5940   -2.7493    0.0000 C   0  0  0  0  0  0  0  0  0  0  0  0
    1.7225   -3.2402    0.0000 C   0  0  0  0  0  0  0  0  0  0  0  0
    2.6041   -1.7378    0.0000 C   0  0  0  0  0  0  0  0  0  0  0  0
   -2.5940    0.2553    0.0000 C   0  0  0  0  0  0  0  0  0  0  0  0
    3.4652   -3.2600    0.0000 O   0  0  0  0  0  0  0  0  0  0  0  0
   -2.5940   -1.7378    0.0000 C   0  0  0  0  0  0  0  0  0  0  0  0
   -1.7326    1.7775    0.0000 C   0  0  0  0  0  0  0  0  0  0  0  0
   -0.0101    1.7775    0.0000 C   0  0  0  0  0  0  0  0  0  0  0  0
    3.4454   -4.2616    0.0000 C   0  0  0  0  0  0  0  0  0  0  0  0
   -0.0101    2.7693    0.0000 C   0  0  0  0  0  0  0  0  0  0  0  0
    0.8315    3.2798    0.0000 C   0  0  0  0  0  0  0  0  0  0  0  0
   -3.4652   -0.2355    0.0000 C   0  0  0  0  0  0  0  0  0  0  0  0
   -2.5940    1.2669    0.0000 C   0  0  0  0  0  0  0  0  0  0  0  0
   -3.4652   -1.2468    0.0000 C   0  0  0  0  0  0  0  0  0  0  0  0
    0.8315    4.2616    0.0000 C   0  0  0  0  0  0  0  0  0  0  0  0
  1  2  2  0  0  0  0
  1  3  1  0  0  0  0
  2  4  1  0  0  0  0
  3  5  2  0  0  0  0
  5  6  1  0  0  0  0
  4  6  1  0  0  0  0
  2  7  1  0  0  0  0
  3  8  1  0  0  0  0
  8  9  1  0  0  0  0
  8 10  2  0  0  0  0
 11 12  2  0  0  0  0
 10 12  1  0  0  0  0
  9 13  2  0  0  0  0
 11 13  1  0  0  0  0
  4 14  2  0  0  0  0
 11 15  1  0  0  0  0
  6 16  2  0  0  0  0
  7 17  1  0  0  0  0
  7 18  1  0  0  0  0
 15 19  1  0  0  0  0
 18 20  1  0  0  0  0
 20 21  1  0  0  0  0
 14 22  1  0  0  0  0
 17 23  1  0  0  0  0
 16 24  1  0  0  0  0
 22 24  2  0  0  0  0
 21 25  1  0  0  0  0
M  END
> <IDNUMBER>
G516-0066

> <available>
91

> <H_acceptor>
3

> <H_donor>
0

> <B_rotN>
7

> <N_O>
4

> <logP>
6.2912

> <logD>
5.85

> <logSw>
-5.8986

> <PSA>
28.7197

> <pKa_ma>
22.6496

> <pKa_mb>
7.6461

> <N_Chirals>
0

> <Name>
N-butyl-N-ethyl-2-(4-methoxyphenyl)quinazolin-4-amine

> <Smile>
CCCCN(CC)c1nc(-c(cc2)ccc2OC)nc2ccccc12

> <Color>
ORANGE

> <Collection>
NC

> <InChI>
InChI=1S/C21H25N3O/c1-4-6-15-24(5-2)21-18-9-7-8-10-19(18)22-20(23-21)16-11-13-17(25-3)14-12-16/h7-14H,4-6,15H2,1-3H3

> <InChI Key>
JBTVHQCJLQUMQD-UHFFFAOYSA-N

> <PERCENTSP3>
33.3

> <Link>
https://www.chemdiv.com/catalog/screening-compounds/compound-G516-0066/

> <MFCDNUMBER>
MFCD15015011

> <CLNUMBER>
CL2243

> <STEREO>
ACHIRAL

> <State>
Liquid

> <Similarity score>
0.22

$$$$
4-bromo-2-(2,3-dihydro-1H-benzo[f]cyclopenta[c]quinolin-4-yl)phenol
  -OEChem-04222410502D

 25 29  0     0  0  0  0  0  0999 V2000
    0.8799   -0.0118    0.0000 C   0  0  0  0  0  0  0  0  0  0  0  0
    0.8799   -1.0393    0.0000 N   0  0  0  0  0  0  0  0  0  0  0  0
   -0.8787   -0.0366    0.0000 C   0  0  0  0  0  0  0  0  0  0  0  0
    1.7314    0.5375    0.0000 C   0  0  0  0  0  0  0  0  0  0  0  0
    0.0023    0.4737    0.0000 C   0  0  0  0  0  0  0  0  0  0  0  0
   -0.8397   -1.0393    0.0000 C   0  0  0  0  0  0  0  0  0  0  0  0
    0.0271   -1.5496    0.0000 C   0  0  0  0  0  0  0  0  0  0  0  0
   -1.7185   -1.5496    0.0000 C   0  0  0  0  0  0  0  0  0  0  0  0
    2.6385    0.0591    0.0000 C   0  0  0  0  0  0  0  0  0  0  0  0
    1.6926    1.5319    0.0000 C   0  0  0  0  0  0  0  0  0  0  0  0
    0.0271   -2.5547    0.0000 C   0  0  0  0  0  0  0  0  0  0  0  0
   -1.6901   -2.5842    0.0000 C   0  0  0  0  0  0  0  0  0  0  0  0
   -0.8397   -3.0401    0.0000 C   0  0  0  0  0  0  0  0  0  0  0  0
    3.4535    0.5941    0.0000 C   0  0  0  0  0  0  0  0  0  0  0  0
    2.5454    2.0810    0.0000 C   0  0  0  0  0  0  0  0  0  0  0  0
   -1.5979    0.6650    0.0000 C   0  0  0  0  0  0  0  0  0  0  0  0
   -0.2067    1.4433    0.0000 C   0  0  0  0  0  0  0  0  0  0  0  0
    3.4275    1.5956    0.0000 C   0  0  0  0  0  0  0  0  0  0  0  0
    2.7153   -0.9259    0.0000 O   0  0  0  0  0  0  0  0  0  0  0  0
    2.5251    3.0649    0.0000 Br  0  0  0  0  0  0  0  0  0  0  0  0
   -1.1798    1.5319    0.0000 C   0  0  0  0  0  0  0  0  0  0  0  0
   -2.6007   -1.0712    0.0000 C   0  0  0  0  0  0  0  0  0  0  0  0
   -2.5688   -3.0649    0.0000 C   0  0  0  0  0  0  0  0  0  0  0  0
   -3.4535   -1.5814    0.0000 C   0  0  0  0  0  0  0  0  0  0  0  0
   -3.4535   -2.5547    0.0000 C   0  0  0  0  0  0  0  0  0  0  0  0
  1  2  2  0  0  0  0
  3  5  2  0  0  0  0
  1  4  1  0  0  0  0
  1  5  1  0  0  0  0
  3  6  1  0  0  0  0
  2  7  1  0  0  0  0
  6  7  2  0  0  0  0
  6  8  1  0  0  0  0
  4  9  1  0  0  0  0
  4 10  2  0  0  0  0
  7 11  1  0  0  0  0
  8 12  2  0  0  0  0
 11 13  2  0  0  0  0
 12 13  1  0  0  0  0
  9 14  2  0  0  0  0
 14 18  1  0  0  0  0
 10 15  1  0  0  0  0
  3 16  1  0  0  0  0
  5 17  1  0  0  0  0
 15 18  2  0  0  0  0
  9 19  1  0  0  0  0
 15 20  1  0  0  0  0
 17 21  1  0  0  0  0
 16 21  1  0  0  0  0
  8 22  1  0  0  0  0
 12 23  1  0  0  0  0
 22 24  2  0  0  0  0
 24 25  1  0  0  0  0
 23 25  2  0  0  0  0
M  END
> <IDNUMBER>
8002-4828

> <available>
34

> <H_acceptor>
2

> <H_donor>
1

> <B_rotN>
1

> <N_O>
2

> <logP>
7.1535

> <logD>
7.1488

> <logSw>
-7.1947

> <PSA>
25.6312

> <pKa_ma>
9.4175

> <pKa_mb>
4.4339

> <N_Chirals>
0

> <Name>
4-bromo-2-(2,3-dihydro-1H-benzo[f]cyclopenta[c]quinolin-4-yl)phenol

> <Smile>
Oc(ccc(Br)c1)c1-c1nc2ccc(cccc3)c3c2c2c1CCC2

> <Color>
ORANGE

> <Collection>
DC

> <InChI>
InChI=1S/C22H16BrNO/c23-14-9-11-20(25)18(12-14)22-17-7-3-6-16(17)21-15-5-2-1-4-13(15)8-10-19(21)24-22/h1-2,4-5,8-12,25H,3,6-7H2

> <InChI Key>
AYBVWQFBEMASNE-UHFFFAOYSA-N

> <PERCENTSP3>
13.64

> <Link>
https://www.chemdiv.com/catalog/screening-compounds/compound-8002-4828/

> <MFCDNUMBER>
MFCD00373602

> <STEREO>
ACHIRAL

> <State>
Solid

> <Similarity score>
0.22

$$$$
N-[(2,4-difluorophenyl)methyl]-1-[2-(4-fluorophenyl)-2H-pyrazolo[3,4-d]pyrimidin
  -OEChem-04222410502D

 34 38  0     0  0  0  0  0  0999 V2000
    3.1537   -1.2715    0.0000 C   0  0  0  0  0  0  0  0  0  0  0  0
    2.2909   -1.7718    0.0000 C   0  0  0  0  0  0  0  0  0  0  0  0
    4.0249   -1.7718    0.0000 C   0  0  0  0  0  0  0  0  0  0  0  0
    4.7669   -1.1090    0.0000 N   0  0  0  0  0  0  0  0  0  0  0  0
    4.3626   -0.1917    0.0000 N   0  0  0  0  0  0  0  0  0  0  0  0
    3.3663   -0.2959    0.0000 C   0  0  0  0  0  0  0  0  0  0  0  0
    1.4278   -1.2715    0.0000 N   0  0  0  0  0  0  0  0  0  0  0  0
    2.2909   -2.7723    0.0000 N   0  0  0  0  0  0  0  0  0  0  0  0
    4.0249   -2.7723    0.0000 N   0  0  0  0  0  0  0  0  0  0  0  0
   -0.3106   -1.2715    0.0000 C   0  0  3  0  0  0  0  0  0  0  0  0
   -1.1737   -1.7718    0.0000 C   0  0  0  0  0  0  0  0  0  0  0  0
    3.1537   -3.2726    0.0000 C   0  0  0  0  0  0  0  0  0  0  0  0
    0.5608   -1.7718    0.0000 C   0  0  0  0  0  0  0  0  0  0  0  0
   -3.7747   -0.2708    0.0000 C   0  0  0  0  0  0  0  0  0  0  0  0
   -3.7747   -1.2715    0.0000 C   0  0  0  0  0  0  0  0  0  0  0  0
   -2.0407   -1.2715    0.0000 N   0  0  0  0  0  0  0  0  0  0  0  0
    4.8629    0.6795    0.0000 C   0  0  0  0  0  0  0  0  0  0  0  0
   -4.6376    0.2293    0.0000 C   0  0  0  0  0  0  0  0  0  0  0  0
   -2.9117   -1.7718    0.0000 C   0  0  0  0  0  0  0  0  0  0  0  0
   -1.1737   -2.7723    0.0000 O   0  0  0  0  0  0  0  0  0  0  0  0
   -4.6376   -1.7718    0.0000 C   0  0  0  0  0  0  0  0  0  0  0  0
    4.3626    1.5426    0.0000 C   0  0  0  0  0  0  0  0  0  0  0  0
    5.8632    0.6795    0.0000 C   0  0  0  0  0  0  0  0  0  0  0  0
   -5.5048   -0.2708    0.0000 C   0  0  0  0  0  0  0  0  0  0  0  0
   -2.9117    0.2293    0.0000 F   0  0  0  0  0  0  0  0  0  0  0  0
    1.4278   -0.2708    0.0000 C   0  0  0  0  0  0  0  0  0  0  0  0
    5.8632    2.4052    0.0000 C   0  0  0  0  0  0  0  0  0  0  0  0
   -5.5048   -1.2715    0.0000 C   0  0  0  0  0  0  0  0  0  0  0  0
    4.8629    2.4052    0.0000 C   0  0  0  0  0  0  0  0  0  0  0  0
    6.3635    1.5426    0.0000 C   0  0  0  0  0  0  0  0  0  0  0  0
   -6.3635    0.2293    0.0000 F   0  0  0  0  0  0  0  0  0  0  0  0
    6.3635    3.2726    0.0000 F   0  0  0  0  0  0  0  0  0  0  0  0
   -0.3106   -0.2708    0.0000 C   0  0  0  0  0  0  0  0  0  0  0  0
    0.5608    0.2293    0.0000 C   0  0  0  0  0  0  0  0  0  0  0  0
  1  2  1  0  0  0  0
  1  3  1  0  0  0  0
  3  4  2  0  0  0  0
  5  6  1  0  0  0  0
  4  5  1  0  0  0  0
  1  6  2  0  0  0  0
  2  7  1  0  0  0  0
  2  8  2  0  0  0  0
  8 12  1  0  0  0  0
  3  9  1  0  0  0  0
 10 13  1  0  0  0  0
 10 33  1  0  0  0  0
 10 11  1  0  0  0  0
  9 12  2  0  0  0  0
  7 13  1  0  0  0  0
 14 15  2  0  0  0  0
 15 19  1  0  0  0  0
 11 16  1  0  0  0  0
  5 17  1  0  0  0  0
 14 18  1  0  0  0  0
 16 19  1  0  0  0  0
 11 20  2  0  0  0  0
 15 21  1  0  0  0  0
 17 22  2  0  0  0  0
 17 23  1  0  0  0  0
 24 28  1  0  0  0  0
 18 24  2  0  0  0  0
 14 25  1  0  0  0  0
  7 26  1  0  0  0  0
 27 30  1  0  0  0  0
 27 29  2  0  0  0  0
 21 28  2  0  0  0  0
 22 29  1  0  0  0  0
 23 30  2  0  0  0  0
 24 31  1  0  0  0  0
 27 32  1  0  0  0  0
 33 34  1  0  0  0  0
 26 34  1  0  0  0  0
M  END
> <IDNUMBER>
L094-3489

> <available>
29

> <H_acceptor>
5

> <H_donor>
1

> <B_rotN>
6

> <N_O>
7

> <logP>
3.7477

> <logD>
3.7403

> <logSw>
-3.8449

> <PSA>
62.955

> <pKa_ma>
11.9359

> <pKa_mb>
5.6357

> <N_Chirals>
1

> <Name>
N-[(2,4-difluorophenyl)methyl]-1-[2-(4-fluorophenyl)-2H-pyrazolo[3,4-d]pyrimidin-4-yl]piperidine-3-carboxamide

> <Smile>
O=C(C(CCC1)CN1c(c1c2)ncnc1nn2-c(cc1)ccc1F)NCc(ccc(F)c1)c1F

> <Color>
NOT COLORED

> <Collection>
NC

> <InChI>
InChI=1S/C24H21F3N6O/c25-17-5-7-19(8-6-17)33-13-20-22(31-33)29-14-30-23(20)32-9-1-2-16(12-32)24(34)28-11-15-3-4-18(26)10-21(15)27/h3-8,10,13-14,16H,1-2,9,11-12H2,(H,28,34)/t16-/m0/s1

> <InChI Key>
MIALPBIMYHFVJL-INIZCTEOSA-N

> <PERCENTSP3>
25

> <Link>
https://www.chemdiv.com/catalog/screening-compounds/compound-L094-3489/

> <MFCDNUMBER>
MFCD27232011

> <CLNUMBER>
CL8543

> <STEREO>
RACEMIC MIXTURE

> <State>
Solid

> <Similarity score>
0.22

$$$$
N-[(2,4-difluorophenyl)methyl]-1-[2-(4-methylphenyl)-2H-pyrazolo[3,4-d]pyrimidin
  -OEChem-04222410502D

 34 38  0     0  0  0  0  0  0999 V2000
    3.1537   -1.2715    0.0000 C   0  0  0  0  0  0  0  0  0  0  0  0
    2.2909   -1.7718    0.0000 C   0  0  0  0  0  0  0  0  0  0  0  0
    4.0249   -1.7718    0.0000 C   0  0  0  0  0  0  0  0  0  0  0  0
    4.7669   -1.1090    0.0000 N   0  0  0  0  0  0  0  0  0  0  0  0
    4.3626   -0.1917    0.0000 N   0  0  0  0  0  0  0  0  0  0  0  0
    3.3663   -0.2959    0.0000 C   0  0  0  0  0  0  0  0  0  0  0  0
    1.4278   -1.2715    0.0000 N   0  0  0  0  0  0  0  0  0  0  0  0
    2.2909   -2.7723    0.0000 N   0  0  0  0  0  0  0  0  0  0  0  0
    4.0249   -2.7723    0.0000 N   0  0  0  0  0  0  0  0  0  0  0  0
   -0.3106   -1.2715    0.0000 C   0  0  3  0  0  0  0  0  0  0  0  0
   -1.1737   -1.7718    0.0000 C   0  0  0  0  0  0  0  0  0  0  0  0
    3.1537   -3.2726    0.0000 C   0  0  0  0  0  0  0  0  0  0  0  0
    0.5608   -1.7718    0.0000 C   0  0  0  0  0  0  0  0  0  0  0  0
   -3.7747   -0.2708    0.0000 C   0  0  0  0  0  0  0  0  0  0  0  0
   -3.7747   -1.2715    0.0000 C   0  0  0  0  0  0  0  0  0  0  0  0
   -2.0407   -1.2715    0.0000 N   0  0  0  0  0  0  0  0  0  0  0  0
    4.8629    0.6795    0.0000 C   0  0  0  0  0  0  0  0  0  0  0  0
   -4.6376    0.2293    0.0000 C   0  0  0  0  0  0  0  0  0  0  0  0
   -2.9117   -1.7718    0.0000 C   0  0  0  0  0  0  0  0  0  0  0  0
   -1.1737   -2.7723    0.0000 O   0  0  0  0  0  0  0  0  0  0  0  0
   -4.6376   -1.7718    0.0000 C   0  0  0  0  0  0  0  0  0  0  0  0
    4.3626    1.5426    0.0000 C   0  0  0  0  0  0  0  0  0  0  0  0
    5.8632    0.6795    0.0000 C   0  0  0  0  0  0  0  0  0  0  0  0
   -5.5048   -0.2708    0.0000 C   0  0  0  0  0  0  0  0  0  0  0  0
   -2.9117    0.2293    0.0000 F   0  0  0  0  0  0  0  0  0  0  0  0
    1.4278   -0.2708    0.0000 C   0  0  0  0  0  0  0  0  0  0  0  0
   -5.5048   -1.2715    0.0000 C   0  0  0  0  0  0  0  0  0  0  0  0
    4.8629    2.4052    0.0000 C   0  0  0  0  0  0  0  0  0  0  0  0
    6.3635    1.5426    0.0000 C   0  0  0  0  0  0  0  0  0  0  0  0
   -6.3635    0.2293    0.0000 F   0  0  0  0  0  0  0  0  0  0  0  0
    5.8632    2.4052    0.0000 C   0  0  0  0  0  0  0  0  0  0  0  0
   -0.3106   -0.2708    0.0000 C   0  0  0  0  0  0  0  0  0  0  0  0
    0.5608    0.2293    0.0000 C   0  0  0  0  0  0  0  0  0  0  0  0
    6.3635    3.2726    0.0000 C   0  0  0  0  0  0  0  0  0  0  0  0
  1  2  1  0  0  0  0
  1  3  1  0  0  0  0
  3  4  2  0  0  0  0
  5  6  1  0  0  0  0
  4  5  1  0  0  0  0
  1  6  2  0  0  0  0
  2  7  1  0  0  0  0
  2  8  2  0  0  0  0
  8 12  1  0  0  0  0
  3  9  1  0  0  0  0
 10 13  1  0  0  0  0
 10 32  1  0  0  0  0
 10 11  1  0  0  0  0
  9 12  2  0  0  0  0
  7 13  1  0  0  0  0
 14 15  2  0  0  0  0
 15 19  1  0  0  0  0
 11 16  1  0  0  0  0
  5 17  1  0  0  0  0
 14 18  1  0  0  0  0
 16 19  1  0  0  0  0
 11 20  2  0  0  0  0
 15 21  1  0  0  0  0
 17 22  2  0  0  0  0
 17 23  1  0  0  0  0
 24 27  1  0  0  0  0
 18 24  2  0  0  0  0
 14 25  1  0  0  0  0
  7 26  1  0  0  0  0
 21 27  2  0  0  0  0
 22 28  1  0  0  0  0
 23 29  2  0  0  0  0
 24 30  1  0  0  0  0
 29 31  1  0  0  0  0
 28 31  2  0  0  0  0
 32 33  1  0  0  0  0
 26 33  1  0  0  0  0
 31 34  1  0  0  0  0
M  END
> <IDNUMBER>
L094-3692

> <available>
7

> <H_acceptor>
5

> <H_donor>
1

> <B_rotN>
6

> <N_O>
7

> <logP>
4.142

> <logD>
4.1346

> <logSw>
-4.0957

> <PSA>
62.955

> <pKa_ma>
11.9359

> <pKa_mb>
5.6357

> <N_Chirals>
1

> <Name>
N-[(2,4-difluorophenyl)methyl]-1-[2-(4-methylphenyl)-2H-pyrazolo[3,4-d]pyrimidin-4-yl]piperidine-3-carboxamide

> <Smile>
Cc(cc1)ccc1-n(cc12)nc2ncnc1N(CCC1)CC1C(NCc(ccc(F)c1)c1F)=O

> <Color>
NOT COLORED

> <Collection>
NC

> <InChI>
InChI=1S/C25H24F2N6O/c1-16-4-8-20(9-5-16)33-14-21-23(31-33)29-15-30-24(21)32-10-2-3-18(13-32)25(34)28-12-17-6-7-19(26)11-22(17)27/h4-9,11,14-15,18H,2-3,10,12-13H2,1H3,(H,28,34)/t18-/m0/s1

> <InChI Key>
JYCUTZNIOGCBCR-SFHVURJKSA-N

> <PERCENTSP3>
28

> <Link>
https://www.chemdiv.com/catalog/screening-compounds/compound-L094-3692/

> <MFCDNUMBER>
MFCD27232025

> <CLNUMBER>
CL8543

> <STEREO>
RACEMIC MIXTURE

> <State>
Solid

> <Similarity score>
0.22

$$$$
1-([1]benzofuro[3,2-d]pyrimidin-4-yl)-N-[(2,4-difluorophenyl)methyl]piperidine-3
  -OEChem-04222410502D

 31 35  0     0  0  0  0  0  0999 V2000
   -2.1176   -1.1981    0.0000 C   0  0  0  0  0  0  0  0  0  0  0  0
   -1.1449   -0.9906    0.0000 C   0  0  0  0  0  0  0  0  0  0  0  0
   -2.9283   -0.6106    0.0000 O   0  0  0  0  0  0  0  0  0  0  0  0
   -2.4369   -2.1454    0.0000 C   0  0  0  0  0  0  0  0  0  0  0  0
   -0.8256   -0.0429    0.0000 N   0  0  0  0  0  0  0  0  0  0  0  0
   -3.4298   -2.1555    0.0000 C   0  0  0  0  0  0  0  0  0  0  0  0
   -3.7438   -1.2031    0.0000 C   0  0  0  0  0  0  0  0  0  0  0  0
    0.4662    1.1121    0.0000 C   0  0  3  0  0  0  0  0  0  0  0  0
    1.4490    1.3197    0.0000 C   0  0  0  0  0  0  0  0  0  0  0  0
   -0.4763   -1.7351    0.0000 N   0  0  0  0  0  0  0  0  0  0  0  0
    0.1570    0.1648    0.0000 C   0  0  0  0  0  0  0  0  0  0  0  0
   -1.7681   -2.8902    0.0000 N   0  0  0  0  0  0  0  0  0  0  0  0
    4.3721    1.9429    0.0000 C   0  0  0  0  0  0  0  0  0  0  0  0
    3.3945    1.7454    0.0000 C   0  0  0  0  0  0  0  0  0  0  0  0
    1.7580    2.2773    0.0000 N   0  0  0  0  0  0  0  0  0  0  0  0
    5.0257    1.2033    0.0000 C   0  0  0  0  0  0  0  0  0  0  0  0
   -0.7853   -2.6927    0.0000 C   0  0  0  0  0  0  0  0  0  0  0  0
    2.7307    2.4800    0.0000 C   0  0  0  0  0  0  0  0  0  0  0  0
    2.1178    0.5751    0.0000 O   0  0  0  0  0  0  0  0  0  0  0  0
    3.0803    0.8031    0.0000 C   0  0  0  0  0  0  0  0  0  0  0  0
    4.7218    0.2560    0.0000 C   0  0  0  0  0  0  0  0  0  0  0  0
    4.6762    2.8902    0.0000 F   0  0  0  0  0  0  0  0  0  0  0  0
   -1.4995    0.7018    0.0000 C   0  0  0  0  0  0  0  0  0  0  0  0
    3.7440    0.0431    0.0000 C   0  0  0  0  0  0  0  0  0  0  0  0
    5.3853   -0.4988    0.0000 F   0  0  0  0  0  0  0  0  0  0  0  0
   -0.2026    1.8670    0.0000 C   0  0  0  0  0  0  0  0  0  0  0  0
   -4.0986   -2.8902    0.0000 C   0  0  0  0  0  0  0  0  0  0  0  0
   -4.7167   -0.9906    0.0000 C   0  0  0  0  0  0  0  0  0  0  0  0
   -1.1806    1.6592    0.0000 C   0  0  0  0  0  0  0  0  0  0  0  0
   -5.0764   -2.6876    0.0000 C   0  0  0  0  0  0  0  0  0  0  0  0
   -5.3853   -1.7351    0.0000 C   0  0  0  0  0  0  0  0  0  0  0  0
  1  2  1  0  0  0  0
  1  3  1  0  0  0  0
  1  4  2  0  0  0  0
  2  5  1  0  0  0  0
  4  6  1  0  0  0  0
  6  7  2  0  0  0  0
  3  7  1  0  0  0  0
  8 11  1  0  0  0  0
  8 26  1  0  0  0  0
  8  9  1  0  0  0  0
  2 10  2  0  0  0  0
 10 17  1  0  0  0  0
  5 11  1  0  0  0  0
  4 12  1  0  0  0  0
 13 14  2  0  0  0  0
 14 18  1  0  0  0  0
  9 15  1  0  0  0  0
 13 16  1  0  0  0  0
 12 17  2  0  0  0  0
 15 18  1  0  0  0  0
  9 19  2  0  0  0  0
 14 20  1  0  0  0  0
 21 24  1  0  0  0  0
 16 21  2  0  0  0  0
 13 22  1  0  0  0  0
  5 23  1  0  0  0  0
 20 24  2  0  0  0  0
 21 25  1  0  0  0  0
 26 29  1  0  0  0  0
  6 27  1  0  0  0  0
  7 28  1  0  0  0  0
 23 29  1  0  0  0  0
 27 30  2  0  0  0  0
 28 31  2  0  0  0  0
 30 31  1  0  0  0  0
M  END
> <IDNUMBER>
L928-0406

> <available>
34

> <H_acceptor>
5

> <H_donor>
1

> <B_rotN>
5

> <N_O>
6

> <logP>
4.0923

> <logD>
4.0818

> <logSw>
-4.2624

> <PSA>
56.685

> <pKa_ma>
11.9359

> <pKa_mb>
5.7848

> <N_Chirals>
1

> <Name>
1-([1]benzofuro[3,2-d]pyrimidin-4-yl)-N-[(2,4-difluorophenyl)methyl]piperidine-3-carboxamide

> <Smile>
O=C(C(CCC1)CN1c1ncnc2c1oc1c2cccc1)NCc(ccc(F)c1)c1F

> <Color>
NOT COLORED

> <Collection>
NC

> <InChI>
InChI=1S/C23H20F2N4O2/c24-16-8-7-14(18(25)10-16)11-26-23(30)15-4-3-9-29(12-15)22-21-20(27-13-28-22)17-5-1-2-6-19(17)31-21/h1-2,5-8,10,13,15H,3-4,9,11-12H2,(H,26,30)/t15-/m0/s1

> <InChI Key>
JFAFIZULRMNDPG-HNNXBMFYSA-N

> <PERCENTSP3>
26.1

> <Link>
https://www.chemdiv.com/catalog/screening-compounds/compound-L928-0406/

> <MFCDNUMBER>
MFCD20750400

> <CLNUMBER>
CL1503

> <STEREO>
RACEMIC MIXTURE

> <State>
Solid

> <Similarity score>
0.22

$$$$
3-(3-methyl-1,2,3,4-tetrahydrobenzo[a]phenanthridin-5-yl)phenol
  -OEChem-04222410502D

 26 30  0     0  0  0  0  0  0999 V2000
   -1.3085    0.0050    0.0000 C   0  0  0  0  0  0  0  0  0  0  0  0
   -0.4312    0.5095    0.0000 C   0  0  0  0  0  0  0  0  0  0  0  0
    0.4412   -0.9934    0.0000 N   0  0  0  0  0  0  0  0  0  0  0  0
    0.4412    0.0050    0.0000 C   0  0  0  0  0  0  0  0  0  0  0  0
   -1.3085   -1.0187    0.0000 C   0  0  0  0  0  0  0  0  0  0  0  0
   -0.4312   -1.5027    0.0000 C   0  0  0  0  0  0  0  0  0  0  0  0
    1.3085    0.5095    0.0000 C   0  0  0  0  0  0  0  0  0  0  0  0
   -2.1558   -1.5027    0.0000 C   0  0  0  0  0  0  0  0  0  0  0  0
   -2.1760    0.5095    0.0000 C   0  0  0  0  0  0  0  0  0  0  0  0
   -0.4312    1.5027    0.0000 C   0  0  0  0  0  0  0  0  0  0  0  0
   -0.4312   -2.5163    0.0000 C   0  0  0  0  0  0  0  0  0  0  0  0
    2.1558    0.0050    0.0000 C   0  0  0  0  0  0  0  0  0  0  0  0
   -2.1558   -2.5163    0.0000 C   0  0  0  0  0  0  0  0  0  0  0  0
   -1.3085   -3.0004    0.0000 C   0  0  0  0  0  0  0  0  0  0  0  0
    3.0280    0.5095    0.0000 C   0  0  0  0  0  0  0  0  0  0  0  0
   -2.1760    1.5027    0.0000 C   0  0  0  0  0  0  0  0  0  0  0  0
   -1.3085    2.0070    0.0000 C   0  0  3  0  0  0  0  0  0  0  0  0
    3.8955    0.0252    0.0000 O   0  0  0  0  0  0  0  0  0  0  0  0
    1.3085    1.5027    0.0000 C   0  0  0  0  0  0  0  0  0  0  0  0
   -3.0232   -1.0187    0.0000 C   0  0  0  0  0  0  0  0  0  0  0  0
    2.1558    2.0070    0.0000 C   0  0  0  0  0  0  0  0  0  0  0  0
    3.0280    1.5027    0.0000 C   0  0  0  0  0  0  0  0  0  0  0  0
   -3.0232   -3.0004    0.0000 C   0  0  0  0  0  0  0  0  0  0  0  0
   -1.2783    3.0004    0.0000 C   0  0  0  0  0  0  0  0  0  0  0  0
   -3.8955   -1.5027    0.0000 C   0  0  0  0  0  0  0  0  0  0  0  0
   -3.8955   -2.5163    0.0000 C   0  0  0  0  0  0  0  0  0  0  0  0
  1  2  2  0  0  0  0
  3  6  1  0  0  0  0
  2  4  1  0  0  0  0
  3  4  2  0  0  0  0
  1  5  1  0  0  0  0
  5  6  2  0  0  0  0
  4  7  1  0  0  0  0
  5  8  1  0  0  0  0
  1  9  1  0  0  0  0
  2 10  1  0  0  0  0
 10 17  1  0  0  0  0
  6 11  1  0  0  0  0
  7 12  2  0  0  0  0
  8 13  2  0  0  0  0
 13 14  1  0  0  0  0
 11 14  2  0  0  0  0
 12 15  1  0  0  0  0
  9 16  1  0  0  0  0
 16 17  1  0  0  0  0
 15 18  1  0  0  0  0
  7 19  1  0  0  0  0
  8 20  1  0  0  0  0
 19 21  2  0  0  0  0
 21 22  1  0  0  0  0
 15 22  2  0  0  0  0
 13 23  1  0  0  0  0
 23 26  2  0  0  0  0
 17 24  1  0  0  0  0
 20 25  2  0  0  0  0
 25 26  1  0  0  0  0
M  END
> <IDNUMBER>
4558-1727

> <available>
128

> <H_acceptor>
2

> <H_donor>
1

> <B_rotN>
1

> <N_O>
2

> <logP>
6.533

> <logD>
6.511

> <logSw>
-6.9211

> <PSA>
26.3341

> <pKa_ma>
8.7181

> <pKa_mb>
4.9706

> <N_Chirals>
1

> <Name>
3-(3-methyl-1,2,3,4-tetrahydrobenzo[a]phenanthridin-5-yl)phenol

> <Smile>
CC(CC1)Cc2c1c1c(cccc3)c3ccc1nc2-c1cccc(O)c1

> <Color>
NOT COLORED

> <Collection>
DC

> <InChI>
InChI=1S/C24H21NO/c1-15-9-11-20-21(13-15)24(17-6-4-7-18(26)14-17)25-22-12-10-16-5-2-3-8-19(16)23(20)22/h2-8,10,12,14-15,26H,9,11,13H2,1H3/t15-/m1/s1

> <InChI Key>
BMYRPKVFXFHLPH-OAHLLOKOSA-N

> <PERCENTSP3>
20.8

> <Link>
https://www.chemdiv.com/catalog/screening-compounds/compound-4558-1727/

> <MFCDNUMBER>
MFCD03447822

> <Saltdata>
HCl

> <Saltdata_MW>
36.461

> <STEREO>
RACEMIC MIXTURE

> <State>
Solid

> <Similarity score>
0.22

$$$$
3-(2-methyl-1,2,3,4-tetrahydrobenzo[a]phenanthridin-5-yl)phenol
  -OEChem-04222410502D

 26 30  0     0  0  0  0  0  0999 V2000
    0.4412   -0.4966    0.0000 N   0  0  0  0  0  0  0  0  0  0  0  0
   -1.3084    0.5017    0.0000 C   0  0  0  0  0  0  0  0  0  0  0  0
    0.4412    0.5017    0.0000 C   0  0  0  0  0  0  0  0  0  0  0  0
   -0.4311    1.0060    0.0000 C   0  0  0  0  0  0  0  0  0  0  0  0
   -1.3084   -0.5219    0.0000 C   0  0  0  0  0  0  0  0  0  0  0  0
   -0.4311   -1.0058    0.0000 C   0  0  0  0  0  0  0  0  0  0  0  0
    1.3084    1.0060    0.0000 C   0  0  0  0  0  0  0  0  0  0  0  0
   -2.1555   -1.0058    0.0000 C   0  0  0  0  0  0  0  0  0  0  0  0
   -0.4311    1.9991    0.0000 C   0  0  0  0  0  0  0  0  0  0  0  0
   -2.1757    1.0060    0.0000 C   0  0  0  0  0  0  0  0  0  0  0  0
   -0.4311   -2.0193    0.0000 C   0  0  0  0  0  0  0  0  0  0  0  0
    2.1555    0.5017    0.0000 C   0  0  0  0  0  0  0  0  0  0  0  0
   -2.1555   -2.0193    0.0000 C   0  0  0  0  0  0  0  0  0  0  0  0
   -1.3084   -2.5034    0.0000 C   0  0  0  0  0  0  0  0  0  0  0  0
    3.0277    1.0060    0.0000 C   0  0  0  0  0  0  0  0  0  0  0  0
   -1.3084    2.5034    0.0000 C   0  0  0  0  0  0  0  0  0  0  0  0
   -2.1757    1.9991    0.0000 C   0  0  3  0  0  0  0  0  0  0  0  0
    3.8950    0.5219    0.0000 O   0  0  0  0  0  0  0  0  0  0  0  0
    1.3084    1.9991    0.0000 C   0  0  0  0  0  0  0  0  0  0  0  0
   -3.0226   -0.5219    0.0000 C   0  0  0  0  0  0  0  0  0  0  0  0
    2.1555    2.5034    0.0000 C   0  0  0  0  0  0  0  0  0  0  0  0
    3.0277    1.9991    0.0000 C   0  0  0  0  0  0  0  0  0  0  0  0
   -3.0226   -2.5034    0.0000 C   0  0  0  0  0  0  0  0  0  0  0  0
   -3.0480    2.4832    0.0000 C   0  0  0  0  0  0  0  0  0  0  0  0
   -3.8950   -1.0058    0.0000 C   0  0  0  0  0  0  0  0  0  0  0  0
   -3.8950   -2.0193    0.0000 C   0  0  0  0  0  0  0  0  0  0  0  0
  2  5  1  0  0  0  0
  2  4  2  0  0  0  0
  1  3  2  0  0  0  0
  3  4  1  0  0  0  0
  5  6  2  0  0  0  0
  1  6  1  0  0  0  0
  3  7  1  0  0  0  0
  5  8  1  0  0  0  0
  8 13  2  0  0  0  0
  4  9  1  0  0  0  0
  2 10  1  0  0  0  0
  6 11  1  0  0  0  0
  7 12  2  0  0  0  0
 13 14  1  0  0  0  0
 11 14  2  0  0  0  0
 12 15  1  0  0  0  0
  9 16  1  0  0  0  0
 10 17  1  0  0  0  0
 16 17  1  0  0  0  0
 15 18  1  0  0  0  0
  7 19  1  0  0  0  0
  8 20  1  0  0  0  0
 19 21  2  0  0  0  0
 21 22  1  0  0  0  0
 15 22  2  0  0  0  0
 13 23  1  0  0  0  0
 17 24  1  0  0  0  0
 20 25  2  0  0  0  0
 25 26  1  0  0  0  0
 23 26  2  0  0  0  0
M  END
> <IDNUMBER>
4558-1729

> <available>
170

> <H_acceptor>
2

> <H_donor>
1

> <B_rotN>
1

> <N_O>
2

> <logP>
6.533

> <logD>
6.4887

> <logSw>
-6.9211

> <PSA>
26.3341

> <pKa_ma>
8.7181

> <pKa_mb>
6.1523

> <N_Chirals>
1

> <Name>
3-(2-methyl-1,2,3,4-tetrahydrobenzo[a]phenanthridin-5-yl)phenol

> <Smile>
CC(CC1)Cc2c1c(-c1cccc(O)c1)nc1ccc(cccc3)c3c12

> <Color>
NOT COLORED

> <Collection>
DC

> <InChI>
InChI=1S/C24H21NO/c1-15-9-11-20-21(13-15)23-19-8-3-2-5-16(19)10-12-22(23)25-24(20)17-6-4-7-18(26)14-17/h2-8,10,12,14-15,26H,9,11,13H2,1H3/t15-/m1/s1

> <InChI Key>
HYTLAZBGJUJKDY-OAHLLOKOSA-N

> <PERCENTSP3>
20.8

> <Link>
https://www.chemdiv.com/catalog/screening-compounds/compound-4558-1729/

> <MFCDNUMBER>
MFCD03447824

> <Saltdata>
HCl

> <Saltdata_MW>
36.461

> <STEREO>
RACEMIC MIXTURE

> <State>
Solid

> <Similarity score>
0.22

$$$$
6,8-difluoro-1-(4-fluorophenyl)-3-(3-methoxyphenyl)-1H-pyrazolo[4,3-c]quinoline
  -OEChem-04222410502D

 30 34  0     0  0  0  0  0  0999 V2000
   -0.4486    0.4624    0.0000 N   0  0  0  0  0  0  0  0  0  0  0  0
    0.2257   -1.0142    0.0000 C   0  0  0  0  0  0  0  0  0  0  0  0
   -0.6493   -0.5127    0.0000 C   0  0  0  0  0  0  0  0  0  0  0  0
    0.5544    0.5572    0.0000 N   0  0  0  0  0  0  0  0  0  0  0  0
    0.9835   -0.3344    0.0000 C   0  0  0  0  0  0  0  0  0  0  0  0
   -1.5352   -1.0142    0.0000 C   0  0  0  0  0  0  0  0  0  0  0  0
   -1.5352   -2.0060    0.0000 C   0  0  0  0  0  0  0  0  0  0  0  0
   -0.6493   -2.4908    0.0000 N   0  0  0  0  0  0  0  0  0  0  0  0
    0.2257   -2.0060    0.0000 C   0  0  0  0  0  0  0  0  0  0  0  0
    1.9810   -0.4346    0.0000 C   0  0  0  0  0  0  0  0  0  0  0  0
   -2.3989   -2.4908    0.0000 C   0  0  0  0  0  0  0  0  0  0  0  0
   -1.0727    1.2315    0.0000 C   0  0  0  0  0  0  0  0  0  0  0  0
   -3.2849   -2.0060    0.0000 C   0  0  0  0  0  0  0  0  0  0  0  0
   -2.3989   -0.5127    0.0000 C   0  0  0  0  0  0  0  0  0  0  0  0
   -3.2738   -1.0142    0.0000 C   0  0  0  0  0  0  0  0  0  0  0  0
    2.5605    0.3845    0.0000 C   0  0  0  0  0  0  0  0  0  0  0  0
   -2.0644    1.0532    0.0000 C   0  0  0  0  0  0  0  0  0  0  0  0
   -0.7327    2.1509    0.0000 C   0  0  0  0  0  0  0  0  0  0  0  0
   -2.3934   -3.4883    0.0000 F   0  0  0  0  0  0  0  0  0  0  0  0
   -2.3711    2.7249    0.0000 C   0  0  0  0  0  0  0  0  0  0  0  0
    3.5745    0.2953    0.0000 C   0  0  0  0  0  0  0  0  0  0  0  0
   -4.1486   -0.5182    0.0000 F   0  0  0  0  0  0  0  0  0  0  0  0
   -1.3847    2.9032    0.0000 C   0  0  0  0  0  0  0  0  0  0  0  0
   -2.7108    1.8054    0.0000 C   0  0  0  0  0  0  0  0  0  0  0  0
   -3.0175    3.4883    0.0000 F   0  0  0  0  0  0  0  0  0  0  0  0
    2.4044   -1.3428    0.0000 C   0  0  0  0  0  0  0  0  0  0  0  0
    4.1486    1.0977    0.0000 O   0  0  0  0  0  0  0  0  0  0  0  0
    3.4076   -1.4320    0.0000 C   0  0  0  0  0  0  0  0  0  0  0  0
    3.9981   -0.6074    0.0000 C   0  0  0  0  0  0  0  0  0  0  0  0
    3.7139    1.9837    0.0000 C   0  0  0  0  0  0  0  0  0  0  0  0
  2  3  2  0  0  0  0
  2  5  1  0  0  0  0
  1  3  1  0  0  0  0
  1  4  1  0  0  0  0
  4  5  2  0  0  0  0
  3  6  1  0  0  0  0
  6  7  1  0  0  0  0
  7  8  1  0  0  0  0
  8  9  2  0  0  0  0
  2  9  1  0  0  0  0
  5 10  1  0  0  0  0
  7 11  2  0  0  0  0
  1 12  1  0  0  0  0
 13 15  2  0  0  0  0
 11 13  1  0  0  0  0
  6 14  2  0  0  0  0
 14 15  1  0  0  0  0
 10 16  1  0  0  0  0
 12 17  2  0  0  0  0
 12 18  1  0  0  0  0
 11 19  1  0  0  0  0
 20 23  1  0  0  0  0
 20 24  2  0  0  0  0
 16 21  2  0  0  0  0
 21 29  1  0  0  0  0
 15 22  1  0  0  0  0
 18 23  2  0  0  0  0
 17 24  1  0  0  0  0
 20 25  1  0  0  0  0
 10 26  2  0  0  0  0
 21 27  1  0  0  0  0
 26 28  1  0  0  0  0
 28 29  2  0  0  0  0
 27 30  1  0  0  0  0
M  END
> <IDNUMBER>
C350-0671

> <available>
81

> <H_acceptor>
3

> <H_donor>
0

> <B_rotN>
3

> <N_O>
4

> <logP>
5.6044

> <logD>
5.6044

> <logSw>
-5.7434

> <PSA>
31.0241

> <pKa_ma>
32.859

> <pKa_mb>
2.7705

> <N_Chirals>
0

> <Name>
6,8-difluoro-1-(4-fluorophenyl)-3-(3-methoxyphenyl)-1H-pyrazolo[4,3-c]quinoline

> <Smile>
COc1cccc(-c(c2cnc3c(F)cc(F)cc3c22)nn2-c(cc2)ccc2F)c1

> <Color>
NOT COLORED

> <Collection>
DC

> <InChI>
InChI=1S/C23H14F3N3O/c1-30-17-4-2-3-13(9-17)21-19-12-27-22-18(10-15(25)11-20(22)26)23(19)29(28-21)16-7-5-14(24)6-8-16/h2-12H,1H3

> <InChI Key>
FJPLPDZRGWLLHS-UHFFFAOYSA-N

> <PERCENTSP3>
4.3

> <Link>
https://www.chemdiv.com/catalog/screening-compounds/compound-C350-0671/

> <MFCDNUMBER>
MFCD14750568

> <CLNUMBER>
CL4130

> <STEREO>
ACHIRAL

> <State>
Solid

> <Similarity score>
0.22

$$$$
5-(2,5-dimethoxyphenyl)-1,2,3,4-tetrahydrobenzo[a]phenanthridine
  -OEChem-04222410502D

 28 32  0     0  0  0  0  0  0999 V2000
    0.8384   -0.2343    0.0000 C   0  0  0  0  0  0  0  0  0  0  0  0
    0.8384   -1.2489    0.0000 N   0  0  0  0  0  0  0  0  0  0  0  0
   -0.8810   -0.2343    0.0000 C   0  0  0  0  0  0  0  0  0  0  0  0
    1.7021    0.2769    0.0000 C   0  0  0  0  0  0  0  0  0  0  0  0
   -0.0174    0.2769    0.0000 C   0  0  0  0  0  0  0  0  0  0  0  0
   -0.8810   -1.2489    0.0000 C   0  0  0  0  0  0  0  0  0  0  0  0
   -0.0174   -1.7329    0.0000 C   0  0  0  0  0  0  0  0  0  0  0  0
   -1.7485   -1.7329    0.0000 C   0  0  0  0  0  0  0  0  0  0  0  0
    2.5850   -0.2343    0.0000 C   0  0  0  0  0  0  0  0  0  0  0  0
    1.7021    1.2722    0.0000 C   0  0  0  0  0  0  0  0  0  0  0  0
   -0.0174   -2.7554    0.0000 C   0  0  0  0  0  0  0  0  0  0  0  0
   -1.7485   -2.7554    0.0000 C   0  0  0  0  0  0  0  0  0  0  0  0
   -0.8810   -3.2356    0.0000 C   0  0  0  0  0  0  0  0  0  0  0  0
    3.4408    0.2769    0.0000 C   0  0  0  0  0  0  0  0  0  0  0  0
    2.5850    1.7717    0.0000 C   0  0  0  0  0  0  0  0  0  0  0  0
   -1.7601    0.2653    0.0000 C   0  0  0  0  0  0  0  0  0  0  0  0
    3.4408    1.2722    0.0000 C   0  0  0  0  0  0  0  0  0  0  0  0
    2.6043   -1.2257    0.0000 O   0  0  0  0  0  0  0  0  0  0  0  0
   -0.0174    1.2838    0.0000 C   0  0  0  0  0  0  0  0  0  0  0  0
    2.6043    2.7709    0.0000 O   0  0  0  0  0  0  0  0  0  0  0  0
   -2.6005   -1.2489    0.0000 C   0  0  0  0  0  0  0  0  0  0  0  0
   -2.6005   -3.2356    0.0000 C   0  0  0  0  0  0  0  0  0  0  0  0
    1.7678   -1.7485    0.0000 C   0  0  0  0  0  0  0  0  0  0  0  0
    3.4679    3.2356    0.0000 C   0  0  0  0  0  0  0  0  0  0  0  0
   -1.7601    1.2722    0.0000 C   0  0  0  0  0  0  0  0  0  0  0  0
   -0.8927    1.7833    0.0000 C   0  0  0  0  0  0  0  0  0  0  0  0
   -3.4679   -1.7329    0.0000 C   0  0  0  0  0  0  0  0  0  0  0  0
   -3.4679   -2.7554    0.0000 C   0  0  0  0  0  0  0  0  0  0  0  0
  1  2  2  0  0  0  0
  3  5  2  0  0  0  0
  1  4  1  0  0  0  0
  1  5  1  0  0  0  0
  3  6  1  0  0  0  0
  6  7  2  0  0  0  0
  2  7  1  0  0  0  0
  6  8  1  0  0  0  0
  4  9  2  0  0  0  0
  4 10  1  0  0  0  0
  7 11  1  0  0  0  0
  8 12  2  0  0  0  0
 12 13  1  0  0  0  0
 11 13  2  0  0  0  0
  9 14  1  0  0  0  0
 10 15  2  0  0  0  0
  3 16  1  0  0  0  0
 16 25  1  0  0  0  0
 15 17  1  0  0  0  0
 14 17  2  0  0  0  0
  9 18  1  0  0  0  0
  5 19  1  0  0  0  0
 15 20  1  0  0  0  0
  8 21  1  0  0  0  0
 12 22  1  0  0  0  0
 22 28  2  0  0  0  0
 18 23  1  0  0  0  0
 20 24  1  0  0  0  0
 25 26  1  0  0  0  0
 19 26  1  0  0  0  0
 21 27  2  0  0  0  0
 27 28  1  0  0  0  0
M  END
> <IDNUMBER>
1661-1344

> <available>
5

> <H_acceptor>
3

> <H_donor>
0

> <B_rotN>
3

> <N_O>
3

> <logP>
6.4761

> <logD>
6.4221

> <logSw>
-7.0714

> <PSA>
23.8913

> <pKa_ma>
20.4288

> <pKa_mb>
6.5215

> <N_Chirals>
0

> <Name>
5-(2,5-dimethoxyphenyl)-1,2,3,4-tetrahydrobenzo[a]phenanthridine

> <Smile>
COc(cc1)cc(-c2nc3ccc(cccc4)c4c3c3c2CCCC3)c1OC

> <Color>
NOT COLORED

> <Collection>
DC

> <InChI>
InChI=1S/C25H23NO2/c1-27-17-12-14-23(28-2)21(15-17)25-20-10-6-5-9-19(20)24-18-8-4-3-7-16(18)11-13-22(24)26-25/h3-4,7-8,11-15H,5-6,9-10H2,1-2H3

> <InChI Key>
QAGPQWXZLLRCLC-UHFFFAOYSA-N

> <PERCENTSP3>
24

> <Link>
https://www.chemdiv.com/catalog/screening-compounds/compound-1661-1344/

> <MFCDNUMBER>
MFCD01030328

> <STEREO>
ACHIRAL

> <State>
Solid

> <Similarity score>
0.22

$$$$
2-(3-methylphenyl)-4-(1,3,3-trimethyl-6-azabicyclo[3.2.1]octan-6-yl)quinazoline
  -OEChem-04222410502D

 28 32  0     0  0  0  0  0  0999 V2000
   -0.8736   -0.2752    0.0000 C   0  0  0  0  0  0  0  0  0  0  0  0
   -0.8736    0.7303    0.0000 N   0  0  0  0  0  0  0  0  0  0  0  0
   -0.0183   -0.7712    0.0000 N   0  0  0  0  0  0  0  0  0  0  0  0
   -0.0136   -1.7814    0.0000 C   0  0  0  0  0  0  0  0  0  0  0  0
   -1.7336   -0.7985    0.0000 C   0  0  0  0  0  0  0  0  0  0  0  0
   -0.8736   -2.2955    0.0000 N   0  0  0  0  0  0  0  0  0  0  0  0
   -0.0410    1.1444    0.0000 C   0  0  3  0  0  0  0  0  0  0  0  0
   -1.9657    2.0727    0.0000 C   0  0  3  0  0  0  0  0  0  0  0  0
   -1.7336   -1.7814    0.0000 C   0  0  0  0  0  0  0  0  0  0  0  0
   -1.7609    1.1444    0.0000 C   0  0  0  0  0  0  0  0  0  0  0  0
    0.8737   -2.2819    0.0000 C   0  0  0  0  0  0  0  0  0  0  0  0
   -0.7780    1.7677    0.0000 C   0  0  0  0  0  0  0  0  0  0  0  0
   -0.4141    2.8189    0.0000 C   0  0  0  0  0  0  0  0  0  0  0  0
    0.1638    2.0727    0.0000 C   0  0  0  0  0  0  0  0  0  0  0  0
   -1.3651    2.8189    0.0000 C   0  0  0  0  0  0  0  0  0  0  0  0
    1.7064   -1.7541    0.0000 C   0  0  0  0  0  0  0  0  0  0  0  0
    2.6027   -2.2729    0.0000 C   0  0  0  0  0  0  0  0  0  0  0  0
   -2.6209   -0.2798    0.0000 C   0  0  0  0  0  0  0  0  0  0  0  0
   -2.8939    2.3094    0.0000 C   0  0  0  0  0  0  0  0  0  0  0  0
    0.8737   -3.2967    0.0000 C   0  0  0  0  0  0  0  0  0  0  0  0
   -2.6209   -2.2955    0.0000 C   0  0  0  0  0  0  0  0  0  0  0  0
    0.5872    3.2330    0.0000 C   0  0  0  0  0  0  0  0  0  0  0  0
   -0.5050    3.7881    0.0000 C   0  0  0  0  0  0  0  0  0  0  0  0
    1.7336   -3.7881    0.0000 C   0  0  0  0  0  0  0  0  0  0  0  0
    2.6027   -3.2830    0.0000 C   0  0  0  0  0  0  0  0  0  0  0  0
    3.4810   -1.7359    0.0000 C   0  0  0  0  0  0  0  0  0  0  0  0
   -3.4810   -0.7985    0.0000 C   0  0  0  0  0  0  0  0  0  0  0  0
   -3.4810   -1.7814    0.0000 C   0  0  0  0  0  0  0  0  0  0  0  0
  1  2  1  0  0  0  0
  1  3  2  0  0  0  0
  3  4  1  0  0  0  0
  1  5  1  0  0  0  0
  6  9  1  0  0  0  0
  4  6  2  0  0  0  0
  2  7  1  0  0  0  0
  8 10  1  0  0  0  0
  5  9  1  0  0  0  0
  2 10  1  0  0  0  0
  4 11  1  0  0  0  0
  7 12  1  0  0  0  0
  8 12  1  0  0  0  0
 13 14  1  0  0  0  0
  7 14  1  0  0  0  0
  8 15  1  0  0  0  0
 13 15  1  0  0  0  0
 11 16  1  0  0  0  0
 16 17  2  0  0  0  0
  5 18  2  0  0  0  0
  8 19  1  0  0  0  0
 11 20  2  0  0  0  0
  9 21  2  0  0  0  0
 13 22  1  0  0  0  0
 13 23  1  0  0  0  0
 20 24  1  0  0  0  0
 24 25  2  0  0  0  0
 17 25  1  0  0  0  0
 17 26  1  0  0  0  0
 18 27  1  0  0  0  0
 27 28  2  0  0  0  0
 21 28  1  0  0  0  0
M  END
> <IDNUMBER>
4593-2959

> <available>
9

> <H_acceptor>
2

> <H_donor>
0

> <B_rotN>
2

> <N_O>
3

> <logP>
6.9304

> <logD>
6.1622

> <logSw>
-6.2009

> <PSA>
21.3242

> <pKa_ma>
18.1908

> <pKa_mb>
8.0871

> <N_Chirals>
2

> <Name>
2-(3-methylphenyl)-4-(1,3,3-trimethyl-6-azabicyclo[3.2.1]octan-6-yl)quinazoline

> <Smile>
CC(C1)(C2)CC(C)(C)CC1N2c1nc(-c2cc(C)ccc2)nc2ccccc12

> <Color>
BROWN

> <Collection>
NC

> <InChI>
InChI=1S/C25H29N3/c1-17-8-7-9-18(12-17)22-26-21-11-6-5-10-20(21)23(27-22)28-16-25(4)14-19(28)13-24(2,3)15-25/h5-12,19H,13-16H2,1-4H3

> <InChI Key>
NQADYZGRIYSBSE-UHFFFAOYSA-N

> <PERCENTSP3>
44

> <Link>
https://www.chemdiv.com/catalog/screening-compounds/compound-4593-2959/

> <MFCDNUMBER>
MFCD08337606

> <CLNUMBER>
CL2243

> <STEREO>
MIXTURE OF STEREOISOMERS

> <State>
Solid

> <Similarity score>
0.22

$$$$
3-(1,2,3,4-tetrahydrobenzo[a]phenanthridin-5-yl)phenol
  -OEChem-04222410502D

 25 29  0     0  0  0  0  0  0999 V2000
    0.4263   -0.5175    0.0000 N   0  0  0  0  0  0  0  0  0  0  0  0
    0.4263    0.4981    0.0000 C   0  0  0  0  0  0  0  0  0  0  0  0
   -1.2945    0.4981    0.0000 C   0  0  0  0  0  0  0  0  0  0  0  0
   -1.2945   -0.5175    0.0000 C   0  0  0  0  0  0  0  0  0  0  0  0
   -0.4302    1.0096    0.0000 C   0  0  0  0  0  0  0  0  0  0  0  0
   -0.4302   -1.0018    0.0000 C   0  0  0  0  0  0  0  0  0  0  0  0
    1.2907    1.0096    0.0000 C   0  0  0  0  0  0  0  0  0  0  0  0
   -2.1627   -1.0018    0.0000 C   0  0  0  0  0  0  0  0  0  0  0  0
   -0.4302   -2.0251    0.0000 C   0  0  0  0  0  0  0  0  0  0  0  0
    2.1741    0.4981    0.0000 C   0  0  0  0  0  0  0  0  0  0  0  0
   -2.1627   -2.0251    0.0000 C   0  0  0  0  0  0  0  0  0  0  0  0
   -1.2945   -2.5057    0.0000 C   0  0  0  0  0  0  0  0  0  0  0  0
    3.0307    1.0096    0.0000 C   0  0  0  0  0  0  0  0  0  0  0  0
   -2.1627    1.0096    0.0000 C   0  0  0  0  0  0  0  0  0  0  0  0
   -0.4302    2.0056    0.0000 C   0  0  0  0  0  0  0  0  0  0  0  0
    3.8835    0.5290    0.0000 O   0  0  0  0  0  0  0  0  0  0  0  0
    1.2907    2.0056    0.0000 C   0  0  0  0  0  0  0  0  0  0  0  0
   -3.0154   -0.5175    0.0000 C   0  0  0  0  0  0  0  0  0  0  0  0
    2.1741    2.5057    0.0000 C   0  0  0  0  0  0  0  0  0  0  0  0
    3.0307    2.0056    0.0000 C   0  0  0  0  0  0  0  0  0  0  0  0
   -3.0154   -2.5057    0.0000 C   0  0  0  0  0  0  0  0  0  0  0  0
   -2.1627    2.0056    0.0000 C   0  0  0  0  0  0  0  0  0  0  0  0
   -1.2945    2.5057    0.0000 C   0  0  0  0  0  0  0  0  0  0  0  0
   -3.8835   -1.0018    0.0000 C   0  0  0  0  0  0  0  0  0  0  0  0
   -3.8835   -2.0251    0.0000 C   0  0  0  0  0  0  0  0  0  0  0  0
  1  2  2  0  0  0  0
  3  4  1  0  0  0  0
  3  5  2  0  0  0  0
  4  6  2  0  0  0  0
  2  5  1  0  0  0  0
  1  6  1  0  0  0  0
  2  7  1  0  0  0  0
  4  8  1  0  0  0  0
  6  9  1  0  0  0  0
  7 10  2  0  0  0  0
 11 12  1  0  0  0  0
  8 11  2  0  0  0  0
  9 12  2  0  0  0  0
 10 13  1  0  0  0  0
  3 14  1  0  0  0  0
  5 15  1  0  0  0  0
 13 16  1  0  0  0  0
  7 17  1  0  0  0  0
  8 18  1  0  0  0  0
 17 19  2  0  0  0  0
 19 20  1  0  0  0  0
 13 20  2  0  0  0  0
 11 21  1  0  0  0  0
 14 22  1  0  0  0  0
 22 23  1  0  0  0  0
 15 23  1  0  0  0  0
 18 24  2  0  0  0  0
 21 25  2  0  0  0  0
 24 25  1  0  0  0  0
M  END
> <IDNUMBER>
1661-1364

> <available>
36

> <H_acceptor>
2

> <H_donor>
1

> <B_rotN>
1

> <N_O>
2

> <logP>
6.1799

> <logD>
6.1475

> <logSw>
-7.0376

> <PSA>
26.3341

> <pKa_ma>
8.7181

> <pKa_mb>
5.8466

> <N_Chirals>
0

> <Name>
3-(1,2,3,4-tetrahydrobenzo[a]phenanthridin-5-yl)phenol

> <Smile>
Oc1cc(-c2nc3ccc(cccc4)c4c3c3c2CCCC3)ccc1

> <Color>
NOT COLORED

> <Collection>
DC

> <InChI>
InChI=1S/C23H19NO/c25-17-8-5-7-16(14-17)23-20-11-4-3-10-19(20)22-18-9-2-1-6-15(18)12-13-21(22)24-23/h1-2,5-9,12-14,25H,3-4,10-11H2

> <InChI Key>
RIVDNMVHQJCAMC-UHFFFAOYSA-N

> <PERCENTSP3>
17.4

> <Link>
https://www.chemdiv.com/catalog/screening-compounds/compound-1661-1364/

> <MFCDNUMBER>
MFCD01030345

> <STEREO>
ACHIRAL

> <State>
Solid

> <Similarity score>
0.22

$$$$
3-(4-ethoxyphenyl)-6,8-difluoro-1-(4-fluorophenyl)-1H-pyrazolo[4,3-c]quinoline
  -OEChem-04222410502D

 31 35  0     0  0  0  0  0  0999 V2000
   -1.5756    0.4393    0.0000 N   0  0  0  0  0  0  0  0  0  0  0  0
   -0.9125   -1.0244    0.0000 C   0  0  0  0  0  0  0  0  0  0  0  0
   -1.7885   -0.5255    0.0000 C   0  0  0  0  0  0  0  0  0  0  0  0
   -0.5687    0.5457    0.0000 N   0  0  0  0  0  0  0  0  0  0  0  0
   -0.1474   -0.3458    0.0000 C   0  0  0  0  0  0  0  0  0  0  0  0
   -2.6687   -1.0244    0.0000 C   0  0  0  0  0  0  0  0  0  0  0  0
   -2.6687   -2.0201    0.0000 C   0  0  0  0  0  0  0  0  0  0  0  0
   -1.7885   -2.5191    0.0000 N   0  0  0  0  0  0  0  0  0  0  0  0
   -0.9125   -2.0201    0.0000 C   0  0  0  0  0  0  0  0  0  0  0  0
   -3.5291   -2.5191    0.0000 C   0  0  0  0  0  0  0  0  0  0  0  0
   -2.2009    1.2108    0.0000 C   0  0  0  0  0  0  0  0  0  0  0  0
   -4.4050   -2.0201    0.0000 C   0  0  0  0  0  0  0  0  0  0  0  0
    0.8550   -0.4501    0.0000 C   0  0  0  0  0  0  0  0  0  0  0  0
   -3.5291   -0.5255    0.0000 C   0  0  0  0  0  0  0  0  0  0  0  0
   -4.4050   -1.0244    0.0000 C   0  0  0  0  0  0  0  0  0  0  0  0
   -3.1655    1.0600    0.0000 C   0  0  0  0  0  0  0  0  0  0  0  0
   -1.8372    2.1311    0.0000 C   0  0  0  0  0  0  0  0  0  0  0  0
    1.4380    0.3636    0.0000 C   0  0  0  0  0  0  0  0  0  0  0  0
    1.2716   -1.3570    0.0000 C   0  0  0  0  0  0  0  0  0  0  0  0
   -3.5291   -3.5169    0.0000 F   0  0  0  0  0  0  0  0  0  0  0  0
   -3.4385    2.7477    0.0000 C   0  0  0  0  0  0  0  0  0  0  0  0
   -5.2745   -0.5255    0.0000 F   0  0  0  0  0  0  0  0  0  0  0  0
    2.8774   -0.6320    0.0000 C   0  0  0  0  0  0  0  0  0  0  0  0
   -3.7952    1.8139    0.0000 C   0  0  0  0  0  0  0  0  0  0  0  0
   -2.4713    2.8983    0.0000 C   0  0  0  0  0  0  0  0  0  0  0  0
    2.2741   -1.4480    0.0000 C   0  0  0  0  0  0  0  0  0  0  0  0
    2.4492    0.2730    0.0000 C   0  0  0  0  0  0  0  0  0  0  0  0
   -4.0726    3.5169    0.0000 F   0  0  0  0  0  0  0  0  0  0  0  0
    3.8687   -0.7229    0.0000 O   0  0  0  0  0  0  0  0  0  0  0  0
    4.2811   -1.6432    0.0000 C   0  0  0  0  0  0  0  0  0  0  0  0
    5.2745   -1.7342    0.0000 C   0  0  0  0  0  0  0  0  0  0  0  0
  2  3  2  0  0  0  0
  1  3  1  0  0  0  0
  1  4  1  0  0  0  0
  4  5  2  0  0  0  0
  2  5  1  0  0  0  0
  3  6  1  0  0  0  0
  6  7  1  0  0  0  0
  7  8  1  0  0  0  0
  8  9  2  0  0  0  0
  2  9  1  0  0  0  0
  7 10  2  0  0  0  0
 10 12  1  0  0  0  0
  1 11  1  0  0  0  0
 12 15  2  0  0  0  0
  5 13  1  0  0  0  0
  6 14  2  0  0  0  0
 14 15  1  0  0  0  0
 11 16  1  0  0  0  0
 11 17  2  0  0  0  0
 13 18  1  0  0  0  0
 13 19  2  0  0  0  0
 10 20  1  0  0  0  0
 21 25  2  0  0  0  0
 21 24  1  0  0  0  0
 15 22  1  0  0  0  0
 23 26  2  0  0  0  0
 23 27  1  0  0  0  0
 16 24  2  0  0  0  0
 17 25  1  0  0  0  0
 19 26  1  0  0  0  0
 18 27  2  0  0  0  0
 21 28  1  0  0  0  0
 23 29  1  0  0  0  0
 29 30  1  0  0  0  0
 30 31  1  0  0  0  0
M  END
> <IDNUMBER>
C350-0829

> <available>
136

> <H_acceptor>
3

> <H_donor>
0

> <B_rotN>
4

> <N_O>
4

> <logP>
5.8247

> <logD>
5.8247

> <logSw>
-5.6284

> <PSA>
30.6039

> <pKa_ma>
29.8521

> <pKa_mb>
2.2647

> <N_Chirals>
0

> <Name>
3-(4-ethoxyphenyl)-6,8-difluoro-1-(4-fluorophenyl)-1H-pyrazolo[4,3-c]quinoline

> <Smile>
CCOc(cc1)ccc1-c(c1cnc2c(F)cc(F)cc2c11)nn1-c(cc1)ccc1F

> <Color>
NOT COLORED

> <Collection>
DC

> <InChI>
InChI=1S/C24H16F3N3O/c1-2-31-18-9-3-14(4-10-18)22-20-13-28-23-19(11-16(26)12-21(23)27)24(20)30(29-22)17-7-5-15(25)6-8-17/h3-13H,2H2,1H3

> <InChI Key>
HRNCXJIVPOGOGJ-UHFFFAOYSA-N

> <PERCENTSP3>
8.3

> <Link>
https://www.chemdiv.com/catalog/screening-compounds/compound-C350-0829/

> <MFCDNUMBER>
MFCD14750695

> <CLNUMBER>
CL4130

> <STEREO>
ACHIRAL

> <State>
Solid

> <Similarity score>
0.22

$$$$
4-bromo-2-(3-methyl-1,2,3,4-tetrahydrobenzo[a]phenanthridin-5-yl)phenol
  -OEChem-04222410502D

 27 31  0     0  0  0  0  0  0999 V2000
    0.8691   -0.0296    0.0000 C   0  0  0  0  0  0  0  0  0  0  0  0
    0.0296    0.4674    0.0000 C   0  0  0  0  0  0  0  0  0  0  0  0
    0.8691   -1.0053    0.0000 N   0  0  0  0  0  0  0  0  0  0  0  0
   -0.8784   -0.0296    0.0000 C   0  0  0  0  0  0  0  0  0  0  0  0
    1.7422    0.4674    0.0000 C   0  0  0  0  0  0  0  0  0  0  0  0
   -0.8784   -1.0053    0.0000 C   0  0  0  0  0  0  0  0  0  0  0  0
   -0.0042   -1.5023    0.0000 C   0  0  0  0  0  0  0  0  0  0  0  0
   -1.7422   -1.5023    0.0000 C   0  0  0  0  0  0  0  0  0  0  0  0
   -1.7422    0.4674    0.0000 C   0  0  0  0  0  0  0  0  0  0  0  0
    2.5985   -0.0211    0.0000 C   0  0  0  0  0  0  0  0  0  0  0  0
    0.0296    1.4853    0.0000 C   0  0  0  0  0  0  0  0  0  0  0  0
    1.7422    1.4853    0.0000 C   0  0  0  0  0  0  0  0  0  0  0  0
   -0.0042   -2.4959    0.0000 C   0  0  0  0  0  0  0  0  0  0  0  0
   -1.7422   -2.4959    0.0000 C   0  0  0  0  0  0  0  0  0  0  0  0
   -0.8784   -2.9929    0.0000 C   0  0  0  0  0  0  0  0  0  0  0  0
    3.4812    0.4588    0.0000 C   0  0  0  0  0  0  0  0  0  0  0  0
    2.6503    1.9740    0.0000 C   0  0  0  0  0  0  0  0  0  0  0  0
   -1.7422    1.4938    0.0000 C   0  0  0  0  0  0  0  0  0  0  0  0
    3.4812    1.4346    0.0000 C   0  0  0  0  0  0  0  0  0  0  0  0
   -0.8616    1.9991    0.0000 C   0  0  3  0  0  0  0  0  0  0  0  0
    2.5985   -1.0053    0.0000 O   0  0  0  0  0  0  0  0  0  0  0  0
    2.6588    2.9421    0.0000 Br  0  0  0  0  0  0  0  0  0  0  0  0
   -2.6154   -1.0053    0.0000 C   0  0  0  0  0  0  0  0  0  0  0  0
   -2.6154   -2.9929    0.0000 C   0  0  0  0  0  0  0  0  0  0  0  0
   -0.8616    2.9929    0.0000 C   0  0  0  0  0  0  0  0  0  0  0  0
   -3.4812   -1.5023    0.0000 C   0  0  0  0  0  0  0  0  0  0  0  0
   -3.4812   -2.4959    0.0000 C   0  0  0  0  0  0  0  0  0  0  0  0
  1  2  1  0  0  0  0
  1  3  2  0  0  0  0
  2  4  2  0  0  0  0
  4  6  1  0  0  0  0
  1  5  1  0  0  0  0
  6  7  2  0  0  0  0
  3  7  1  0  0  0  0
  6  8  1  0  0  0  0
  8 14  2  0  0  0  0
  4  9  1  0  0  0  0
  9 18  1  0  0  0  0
  5 10  1  0  0  0  0
  2 11  1  0  0  0  0
  5 12  2  0  0  0  0
  7 13  1  0  0  0  0
 14 15  1  0  0  0  0
 13 15  2  0  0  0  0
 10 16  2  0  0  0  0
 12 17  1  0  0  0  0
 18 20  1  0  0  0  0
 17 19  2  0  0  0  0
 16 19  1  0  0  0  0
 11 20  1  0  0  0  0
 20 25  1  0  0  0  0
 10 21  1  0  0  0  0
 17 22  1  0  0  0  0
  8 23  1  0  0  0  0
 14 24  1  0  0  0  0
 23 26  2  0  0  0  0
 26 27  1  0  0  0  0
 24 27  2  0  0  0  0
M  END
> <IDNUMBER>
8013-9905

> <available>
3

> <H_acceptor>
2

> <H_donor>
1

> <B_rotN>
1

> <N_O>
2

> <logP>
7.9977

> <logD>
7.9934

> <logSw>
-6.9891

> <PSA>
25.2652

> <pKa_ma>
9.4175

> <pKa_mb>
3.8946

> <N_Chirals>
1

> <Name>
4-bromo-2-(3-methyl-1,2,3,4-tetrahydrobenzo[a]phenanthridin-5-yl)phenol

> <Smile>
CC(CC1)Cc2c1c1c(cccc3)c3ccc1nc2-c(cc(cc1)Br)c1O

> <Color>
ORANGE

> <Collection>
DC

> <InChI>
InChI=1S/C24H20BrNO/c1-14-6-9-18-19(12-14)24(20-13-16(25)8-11-22(20)27)26-21-10-7-15-4-2-3-5-17(15)23(18)21/h2-5,7-8,10-11,13-14,27H,6,9,12H2,1H3/t14-/m1/s1

> <InChI Key>
ITNNZGDNIQSBEQ-CQSZACIVSA-N

> <PERCENTSP3>
20.83

> <Link>
https://www.chemdiv.com/catalog/screening-compounds/compound-8013-9905/

> <MFCDNUMBER>
MFCD03764925

> <STEREO>
RACEMIC MIXTURE

> <State>
Solid

> <Similarity score>
0.22

$$$$
4-bromo-2-(2-methyl-1,2,3,4-tetrahydrobenzo[a]phenanthridin-5-yl)phenol
  -OEChem-04222410502D

 27 31  0     0  0  0  0  0  0999 V2000
    0.8653   -0.0036    0.0000 C   0  0  0  0  0  0  0  0  0  0  0  0
    0.8653   -0.9810    0.0000 N   0  0  0  0  0  0  0  0  0  0  0  0
   -0.8744   -0.0036    0.0000 C   0  0  0  0  0  0  0  0  0  0  0  0
    0.0001    0.4937    0.0000 C   0  0  0  0  0  0  0  0  0  0  0  0
    1.7395    0.4937    0.0000 C   0  0  0  0  0  0  0  0  0  0  0  0
   -0.8744   -0.9810    0.0000 C   0  0  0  0  0  0  0  0  0  0  0  0
    0.0001   -1.4783    0.0000 C   0  0  0  0  0  0  0  0  0  0  0  0
   -1.7395   -1.4783    0.0000 C   0  0  0  0  0  0  0  0  0  0  0  0
    0.0083    1.5130    0.0000 C   0  0  0  0  0  0  0  0  0  0  0  0
    2.5969    0.0046    0.0000 C   0  0  0  0  0  0  0  0  0  0  0  0
    1.7395    1.5130    0.0000 C   0  0  0  0  0  0  0  0  0  0  0  0
   -1.7395    0.4937    0.0000 C   0  0  0  0  0  0  0  0  0  0  0  0
    0.0001   -2.4730    0.0000 C   0  0  0  0  0  0  0  0  0  0  0  0
   -1.7395   -2.4730    0.0000 C   0  0  0  0  0  0  0  0  0  0  0  0
   -0.8744   -2.9704    0.0000 C   0  0  0  0  0  0  0  0  0  0  0  0
    3.4804    0.4845    0.0000 C   0  0  0  0  0  0  0  0  0  0  0  0
    2.6488    2.0012    0.0000 C   0  0  0  0  0  0  0  0  0  0  0  0
   -0.8744    2.0275    0.0000 C   0  0  0  0  0  0  0  0  0  0  0  0
    3.4804    1.4611    0.0000 C   0  0  0  0  0  0  0  0  0  0  0  0
   -1.7395    1.5211    0.0000 C   0  0  3  0  0  0  0  0  0  0  0  0
    2.5969   -0.9810    0.0000 O   0  0  0  0  0  0  0  0  0  0  0  0
    2.6488    2.9704    0.0000 Br  0  0  0  0  0  0  0  0  0  0  0  0
   -2.6142   -0.9810    0.0000 C   0  0  0  0  0  0  0  0  0  0  0  0
   -2.6142   -2.9704    0.0000 C   0  0  0  0  0  0  0  0  0  0  0  0
   -2.5969    2.0358    0.0000 C   0  0  0  0  0  0  0  0  0  0  0  0
   -3.4804   -1.4783    0.0000 C   0  0  0  0  0  0  0  0  0  0  0  0
   -3.4804   -2.4730    0.0000 C   0  0  0  0  0  0  0  0  0  0  0  0
  1  2  2  0  0  0  0
  3  4  2  0  0  0  0
  1  4  1  0  0  0  0
  1  5  1  0  0  0  0
  3  6  1  0  0  0  0
  6  7  2  0  0  0  0
  2  7  1  0  0  0  0
  6  8  1  0  0  0  0
  4  9  1  0  0  0  0
  5 10  1  0  0  0  0
  5 11  2  0  0  0  0
  3 12  1  0  0  0  0
 12 20  1  0  0  0  0
  7 13  1  0  0  0  0
  8 14  2  0  0  0  0
 14 15  1  0  0  0  0
 13 15  2  0  0  0  0
 10 16  2  0  0  0  0
 16 19  1  0  0  0  0
 11 17  1  0  0  0  0
  9 18  1  0  0  0  0
 17 19  2  0  0  0  0
 18 20  1  0  0  0  0
 20 25  1  0  0  0  0
 10 21  1  0  0  0  0
 17 22  1  0  0  0  0
  8 23  1  0  0  0  0
 14 24  1  0  0  0  0
 24 27  2  0  0  0  0
 23 26  2  0  0  0  0
 26 27  1  0  0  0  0
M  END
> <IDNUMBER>
8013-9899

> <available>
5

> <H_acceptor>
2

> <H_donor>
1

> <B_rotN>
1

> <N_O>
2

> <logP>
7.9977

> <logD>
7.9921

> <logSw>
-6.9891

> <PSA>
25.2652

> <pKa_ma>
9.4175

> <pKa_mb>
4.9116

> <N_Chirals>
1

> <Name>
4-bromo-2-(2-methyl-1,2,3,4-tetrahydrobenzo[a]phenanthridin-5-yl)phenol

> <Smile>
CC(CC1)Cc2c1c(-c(cc(cc1)Br)c1O)nc1ccc(cccc3)c3c12

> <Color>
NOT COLORED

> <Collection>
DC

> <InChI>
InChI=1S/C24H20BrNO/c1-14-6-9-18-19(12-14)23-17-5-3-2-4-15(17)7-10-21(23)26-24(18)20-13-16(25)8-11-22(20)27/h2-5,7-8,10-11,13-14,27H,6,9,12H2,1H3/t14-/m1/s1

> <InChI Key>
RENXPLYJQBTTFQ-CQSZACIVSA-N

> <PERCENTSP3>
20.83

> <Link>
https://www.chemdiv.com/catalog/screening-compounds/compound-8013-9899/

> <MFCDNUMBER>
MFCD03764921

> <STEREO>
RACEMIC MIXTURE

> <State>
Solid

> <Similarity score>
0.22

$$$$
4-({1-[(4-chloro-2-fluorophenyl)methyl]-3-methylpiperidin-3-yl}methoxy)pyridine
  -OEChem-04222410502D

 24 26  0     0  0  0  0  0  0999 V2000
    0.2314   -1.3211    0.0000 N   0  0  0  0  0  0  0  0  0  0  0  0
    1.7315   -2.1838    0.0000 C   0  0  0  0  0  0  0  0  0  0  0  0
    2.2316   -1.3211    0.0000 C   0  0  0  0  0  0  0  0  0  0  0  0
    0.7314   -2.1838    0.0000 C   0  0  0  0  0  0  0  0  0  0  0  0
   -1.2689   -0.4541    0.0000 C   0  0  3  0  0  0  0  0  0  0  0  0
    3.2317   -1.3211    0.0000 C   0  0  0  0  0  0  0  0  0  0  0  0
   -0.7689   -1.3211    0.0000 C   0  0  0  0  0  0  0  0  0  0  0  0
   -4.7320    2.5464    0.0000 N   0  0  0  0  0  0  0  0  0  0  0  0
    2.2316   -3.0464    0.0000 C   0  0  0  0  0  0  0  0  0  0  0  0
    3.7319   -2.1838    0.0000 C   0  0  0  0  0  0  0  0  0  0  0  0
   -2.1358    0.0458    0.0000 C   0  0  0  0  0  0  0  0  0  0  0  0
   -2.1358    1.0461    0.0000 O   0  0  0  0  0  0  0  0  0  0  0  0
    1.7315   -0.4541    0.0000 F   0  0  0  0  0  0  0  0  0  0  0  0
   -2.9985    1.5460    0.0000 C   0  0  0  0  0  0  0  0  0  0  0  0
    3.2317   -3.0464    0.0000 C   0  0  0  0  0  0  0  0  0  0  0  0
    4.7320   -2.1838    0.0000 Cl  0  0  0  0  0  0  0  0  0  0  0  0
    0.7314   -0.4541    0.0000 C   0  0  0  0  0  0  0  0  0  0  0  0
   -2.9985    2.5464    0.0000 C   0  0  0  0  0  0  0  0  0  0  0  0
   -3.8693    1.0461    0.0000 C   0  0  0  0  0  0  0  0  0  0  0  0
   -0.7689    0.4169    0.0000 C   0  0  0  0  0  0  0  0  0  0  0  0
   -4.7320    1.5460    0.0000 C   0  0  0  0  0  0  0  0  0  0  0  0
   -3.8693    3.0464    0.0000 C   0  0  0  0  0  0  0  0  0  0  0  0
    0.2314    0.4169    0.0000 C   0  0  0  0  0  0  0  0  0  0  0  0
   -2.1358   -0.9544    0.0000 C   0  0  0  0  0  0  0  0  0  0  0  0
  2  4  1  0  0  0  0
  2  3  2  0  0  0  0
  1  4  1  0  0  0  0
  5  7  1  0  0  0  0
  3  6  1  0  0  0  0
  6 10  2  0  0  0  0
  1  7  1  0  0  0  0
  8 21  2  0  0  0  0
  8 22  1  0  0  0  0
  2  9  1  0  0  0  0
 10 15  1  0  0  0  0
  5 11  1  0  0  0  0
 11 12  1  0  0  0  0
  3 13  1  0  0  0  0
 12 14  1  0  0  0  0
  9 15  2  0  0  0  0
 10 16  1  0  0  0  0
  1 17  1  0  0  0  0
 14 18  1  0  0  0  0
 14 19  2  0  0  0  0
 20 23  1  0  0  0  0
  5 20  1  0  0  0  0
 19 21  1  0  0  0  0
 18 22  2  0  0  0  0
 17 23  1  0  0  0  0
  5 24  1  0  0  0  0
M  END
> <IDNUMBER>
CM2933-4408

> <available>
1

> <H_acceptor>
3

> <H_donor>
0

> <B_rotN>
5

> <N_O>
3

> <logP>
3.8092

> <logD>
3.3676

> <logSw>
-4.244

> <PSA>
20.5602

> <pKa_ma>
27.1681

> <pKa_mb>
7.6466

> <N_Chirals>
1

> <Name>
4-({1-[(4-chloro-2-fluorophenyl)methyl]-3-methylpiperidin-3-yl}methoxy)pyridine

> <Smile>
CC1(COc2ccncc2)CN(Cc(ccc(Cl)c2)c2F)CCC1

> <Color>
YELLOW

> <Collection>
IC

> <InChI>
InChI=1S/C19H22ClFN2O/c1-19(14-24-17-5-8-22-9-6-17)7-2-10-23(13-19)12-15-3-4-16(20)11-18(15)21/h3-6,8-9,11H,2,7,10,12-14H2,1H3/t19-/m0/s1

> <InChI Key>
YXHNAFWIKGJCRX-IBGZPJMESA-N

> <PERCENTSP3>
42.1

> <Link>
https://www.chemdiv.com/catalog/screening-compounds/compound-CM2933-4408/

> <MFCDNUMBER>
MFCD30467076

> <CLNUMBER>
CM2933

> <STEREO>
RACEMIC MIXTURE

> <State>
Liquid

> <Similarity score>
0.22

$$$$
ethyl 4-(1,3,3-trimethyl-6-azabicyclo[3.2.1]octan-6-yl)benzo[h]quinoline-3-carbo
  -OEChem-04222410502D

 30 34  0     0  0  0  0  0  0999 V2000
   -0.4277    0.7189    0.0000 N   0  0  0  0  0  0  0  0  0  0  0  0
   -0.4277   -0.2732    0.0000 C   0  0  0  0  0  0  0  0  0  0  0  0
   -1.2933   -0.7745    0.0000 C   0  0  0  0  0  0  0  0  0  0  0  0
    0.4279   -0.7745    0.0000 C   0  0  0  0  0  0  0  0  0  0  0  0
   -1.2933   -1.7866    0.0000 C   0  0  0  0  0  0  0  0  0  0  0  0
    0.4226    1.1290    0.0000 C   0  0  3  0  0  0  0  0  0  0  0  0
   -0.4226   -2.2780    0.0000 N   0  0  0  0  0  0  0  0  0  0  0  0
   -1.5212    2.0654    0.0000 C   0  0  3  0  0  0  0  0  0  0  0  0
    1.2933   -0.2682    0.0000 C   0  0  0  0  0  0  0  0  0  0  0  0
    0.4279   -1.7866    0.0000 C   0  0  0  0  0  0  0  0  0  0  0  0
   -1.3033    1.1290    0.0000 C   0  0  0  0  0  0  0  0  0  0  0  0
   -2.1688   -2.2929    0.0000 C   0  0  0  0  0  0  0  0  0  0  0  0
   -2.1688   -0.2732    0.0000 C   0  0  0  0  0  0  0  0  0  0  0  0
   -0.3063    1.7615    0.0000 C   0  0  0  0  0  0  0  0  0  0  0  0
    0.0432    2.8245    0.0000 C   0  0  0  0  0  0  0  0  0  0  0  0
    0.6251    2.0803    0.0000 C   0  0  0  0  0  0  0  0  0  0  0  0
   -0.9390    2.8245    0.0000 C   0  0  0  0  0  0  0  0  0  0  0  0
    1.2780    0.7442    0.0000 O   0  0  0  0  0  0  0  0  0  0  0  0
   -3.0346   -0.7896    0.0000 C   0  0  0  0  0  0  0  0  0  0  0  0
   -3.0346   -1.7920    0.0000 C   0  0  0  0  0  0  0  0  0  0  0  0
    2.1691   -0.7592    0.0000 O   0  0  0  0  0  0  0  0  0  0  0  0
   -2.4726    2.2982    0.0000 C   0  0  0  0  0  0  0  0  0  0  0  0
   -2.1539   -3.2899    0.0000 C   0  0  0  0  0  0  0  0  0  0  0  0
    1.0302    3.2550    0.0000 C   0  0  0  0  0  0  0  0  0  0  0  0
   -0.0428    3.7962    0.0000 C   0  0  0  0  0  0  0  0  0  0  0  0
   -3.8900   -2.2929    0.0000 C   0  0  0  0  0  0  0  0  0  0  0  0
    3.0245   -0.2682    0.0000 C   0  0  0  0  0  0  0  0  0  0  0  0
   -3.0193   -3.7962    0.0000 C   0  0  0  0  0  0  0  0  0  0  0  0
    3.8900   -0.7542    0.0000 C   0  0  0  0  0  0  0  0  0  0  0  0
   -3.8900   -3.3052    0.0000 C   0  0  0  0  0  0  0  0  0  0  0  0
  1  2  1  0  0  0  0
  2  3  1  0  0  0  0
  2  4  2  0  0  0  0
  3  5  1  0  0  0  0
  1  6  1  0  0  0  0
  7 10  2  0  0  0  0
  5  7  1  0  0  0  0
  8 11  1  0  0  0  0
  8 14  1  0  0  0  0
  4  9  1  0  0  0  0
  4 10  1  0  0  0  0
  1 11  1  0  0  0  0
  5 12  2  0  0  0  0
  3 13  2  0  0  0  0
  6 14  1  0  0  0  0
 15 16  1  0  0  0  0
 15 17  1  0  0  0  0
  6 16  1  0  0  0  0
  8 17  1  0  0  0  0
  9 18  2  0  0  0  0
 13 19  1  0  0  0  0
 19 20  2  0  0  0  0
 12 20  1  0  0  0  0
  9 21  1  0  0  0  0
  8 22  1  0  0  0  0
 12 23  1  0  0  0  0
 15 24  1  0  0  0  0
 15 25  1  0  0  0  0
 20 26  1  0  0  0  0
 21 27  1  0  0  0  0
 23 28  2  0  0  0  0
 28 30  1  0  0  0  0
 27 29  1  0  0  0  0
 26 30  2  0  0  0  0
M  END
> <IDNUMBER>
4789-4706

> <available>
28

> <H_acceptor>
4

> <H_donor>
0

> <B_rotN>
4

> <N_O>
4

> <logP>
6.1641

> <logD>
6.1636

> <logSw>
-6.5727

> <PSA>
32.88

> <pKa_ma>
21.8868

> <pKa_mb>
4.463

> <N_Chirals>
2

> <Name>
ethyl 4-(1,3,3-trimethyl-6-azabicyclo[3.2.1]octan-6-yl)benzo[h]quinoline-3-carboxylate

> <Smile>
CCOC(c(cnc1c(cccc2)c2ccc11)c1N1C(C2)CC(C)(C)CC2(C)C1)=O

> <Color>
NOT COLORED

> <Collection>
DC

> <InChI>
InChI=1S/C26H30N2O2/c1-5-30-24(29)21-14-27-22-19-9-7-6-8-17(19)10-11-20(22)23(21)28-16-26(4)13-18(28)12-25(2,3)15-26/h6-11,14,18H,5,12-13,15-16H2,1-4H3

> <InChI Key>
UFYAETATUWMPOE-UHFFFAOYSA-N

> <PERCENTSP3>
46.2

> <Link>
https://www.chemdiv.com/catalog/screening-compounds/compound-4789-4706/

> <MFCDNUMBER>
MFCD02968898

> <CLNUMBER>
CL1568

> <STEREO>
MIXTURE OF STEREOISOMERS

> <State>
Solid

> <Similarity score>
0.22

$$$$
N-[2-(3,4-dimethoxyphenyl)ethyl]-1-(9-fluoro[1]benzothieno[3,2-d]pyrimidin-4-yl)
  -OEChem-04222410502D

 35 39  0     0  0  0  0  0  0999 V2000
   -3.8025    0.7665    0.0000 C   0  0  0  0  0  0  0  0  0  0  0  0
   -4.4026    1.5783    0.0000 C   0  0  0  0  0  0  0  0  0  0  0  0
   -4.3876   -0.0504    0.0000 S   0  0  0  0  0  0  0  0  0  0  0  0
   -2.8141    0.8723    0.0000 C   0  0  0  0  0  0  0  0  0  0  0  0
   -5.3559    1.2555    0.0000 C   0  0  0  0  0  0  0  0  0  0  0  0
   -2.2240    0.0604    0.0000 N   0  0  0  0  0  0  0  0  0  0  0  0
   -5.3457    0.2520    0.0000 C   0  0  0  0  0  0  0  0  0  0  0  0
   -0.6505   -0.6406    0.0000 C   0  0  3  0  0  0  0  0  0  0  0  0
   -2.4054    1.7850    0.0000 N   0  0  0  0  0  0  0  0  0  0  0  0
   -1.2404    0.1764    0.0000 C   0  0  0  0  0  0  0  0  0  0  0  0
    0.3432   -0.5346    0.0000 C   0  0  0  0  0  0  0  0  0  0  0  0
   -3.9944    2.4911    0.0000 N   0  0  0  0  0  0  0  0  0  0  0  0
    4.9122   -0.9280    0.0000 C   0  0  0  0  0  0  0  0  0  0  0  0
   -6.2182    1.7600    0.0000 C   0  0  0  0  0  0  0  0  0  0  0  0
   -2.9956    2.5973    0.0000 C   0  0  0  0  0  0  0  0  0  0  0  0
    5.5021   -1.7449    0.0000 C   0  0  0  0  0  0  0  0  0  0  0  0
    0.7514    0.3731    0.0000 O   0  0  0  0  0  0  0  0  0  0  0  0
    3.9034   -1.0340    0.0000 C   0  0  0  0  0  0  0  0  0  0  0  0
    0.9229   -1.3467    0.0000 N   0  0  0  0  0  0  0  0  0  0  0  0
    5.0835   -2.6477    0.0000 C   0  0  0  0  0  0  0  0  0  0  0  0
   -2.6325   -0.8472    0.0000 C   0  0  0  0  0  0  0  0  0  0  0  0
    3.4950   -1.9567    0.0000 C   0  0  0  0  0  0  0  0  0  0  0  0
   -6.2232    2.7535    0.0000 F   0  0  0  0  0  0  0  0  0  0  0  0
   -6.2182   -0.2472    0.0000 C   0  0  0  0  0  0  0  0  0  0  0  0
    4.0999   -2.7535    0.0000 C   0  0  0  0  0  0  0  0  0  0  0  0
    5.3256   -0.0204    0.0000 O   0  0  0  0  0  0  0  0  0  0  0  0
   -1.0590   -1.5485    0.0000 C   0  0  0  0  0  0  0  0  0  0  0  0
    6.4905   -1.6392    0.0000 O   0  0  0  0  0  0  0  0  0  0  0  0
    1.9215   -1.2460    0.0000 C   0  0  0  0  0  0  0  0  0  0  0  0
   -2.0576   -1.6542    0.0000 C   0  0  0  0  0  0  0  0  0  0  0  0
   -7.0807    0.2520    0.0000 C   0  0  0  0  0  0  0  0  0  0  0  0
   -7.0807    1.2555    0.0000 C   0  0  0  0  0  0  0  0  0  0  0  0
    2.5066   -2.0479    0.0000 C   0  0  0  0  0  0  0  0  0  0  0  0
    6.3193    0.0905    0.0000 C   0  0  0  0  0  0  0  0  0  0  0  0
    7.0807   -2.4411    0.0000 C   0  0  0  0  0  0  0  0  0  0  0  0
  1  2  2  0  0  0  0
  1  3  1  0  0  0  0
  1  4  1  0  0  0  0
  2  5  1  0  0  0  0
  5  7  1  0  0  0  0
  4  6  1  0  0  0  0
  3  7  1  0  0  0  0
  8 10  1  0  0  0  0
  4  9  2  0  0  0  0
  6 10  1  0  0  0  0
  8 11  1  0  0  0  0
  2 12  1  0  0  0  0
 12 15  2  0  0  0  0
 13 18  1  0  0  0  0
  5 14  2  0  0  0  0
  9 15  1  0  0  0  0
 16 20  1  0  0  0  0
 13 16  2  0  0  0  0
 11 17  2  0  0  0  0
 18 22  2  0  0  0  0
 11 19  1  0  0  0  0
 20 25  2  0  0  0  0
  6 21  1  0  0  0  0
 22 33  1  0  0  0  0
 14 23  1  0  0  0  0
  7 24  2  0  0  0  0
 22 25  1  0  0  0  0
 13 26  1  0  0  0  0
 27 30  1  0  0  0  0
  8 27  1  0  0  0  0
 16 28  1  0  0  0  0
 19 29  1  0  0  0  0
 21 30  1  0  0  0  0
 24 31  1  0  0  0  0
 14 32  1  0  0  0  0
 31 32  2  0  0  0  0
 29 33  1  0  0  0  0
 26 34  1  0  0  0  0
 28 35  1  0  0  0  0
M  END
> <IDNUMBER>
C860-0997

> <available>
6

> <H_acceptor>
6

> <H_donor>
1

> <B_rotN>
8

> <N_O>
7

> <logP>
4.0851

> <logD>
4.0481

> <logSw>
-4.4591

> <PSA>
64.115

> <pKa_ma>
13.7295

> <pKa_mb>
6.3482

> <N_Chirals>
1

> <Name>
N-[2-(3,4-dimethoxyphenyl)ethyl]-1-(9-fluoro[1]benzothieno[3,2-d]pyrimidin-4-yl)piperidine-3-carboxamide

> <Smile>
COc(ccc(CCNC(C(CCC1)CN1c(ncnc12)c1sc1c2c(F)ccc1)=O)c1)c1OC

> <Color>
NOT COLORED

> <Collection>
DC

> <InChI>
InChI=1S/C26H27FN4O3S/c1-33-19-9-8-16(13-20(19)34-2)10-11-28-26(32)17-5-4-12-31(14-17)25-24-23(29-15-30-25)22-18(27)6-3-7-21(22)35-24/h3,6-9,13,15,17H,4-5,10-12,14H2,1-2H3,(H,28,32)/t17-/m0/s1

> <InChI Key>
KJYODNDVAAANNY-KRWDZBQOSA-N

> <PERCENTSP3>
34.6

> <Link>
https://www.chemdiv.com/catalog/screening-compounds/compound-C860-0997/

> <MFCDNUMBER>
MFCD14801703

> <CLNUMBER>
CL4052B

> <STEREO>
RACEMIC MIXTURE

> <State>
Solid

> <Similarity score>
0.22

$$$$
1-(2-chloro-9H-purin-6-yl)-N-[2-(5-methoxy-1H-indol-3-yl)ethyl]piperidine-3-carb
  -OEChem-04222410502D

 32 36  0     0  0  0  0  0  0999 V2000
    2.1603   -2.1833    0.0000 C   0  0  0  0  0  0  0  0  0  0  0  0
    3.0313   -2.6708    0.0000 C   0  0  0  0  0  0  0  0  0  0  0  0
    2.1563   -1.1875    0.0000 N   0  0  0  0  0  0  0  0  0  0  0  0
    3.8980   -2.1667    0.0000 C   0  0  0  0  0  0  0  0  0  0  0  0
    3.8812   -1.1624    0.0000 N   0  0  0  0  0  0  0  0  0  0  0  0
    1.2979   -2.6958    0.0000 N   0  0  0  0  0  0  0  0  0  0  0  0
    3.0061   -0.6792    0.0000 C   0  0  0  0  0  0  0  0  0  0  0  0
    4.6521   -2.8375    0.0000 N   0  0  0  0  0  0  0  0  0  0  0  0
   -0.4271   -2.7000    0.0000 C   0  0  3  0  0  0  0  0  0  0  0  0
   -4.6521    1.0874    0.0000 N   0  0  0  0  0  0  0  0  0  0  0  0
   -3.1854    1.7541    0.0000 C   0  0  0  0  0  0  0  0  0  0  0  0
    3.2481   -3.6627    0.0000 N   0  0  0  0  0  0  0  0  0  0  0  0
    0.4313   -2.1875    0.0000 C   0  0  0  0  0  0  0  0  0  0  0  0
   -1.2979   -2.2167    0.0000 C   0  0  0  0  0  0  0  0  0  0  0  0
   -3.9771    0.3541    0.0000 C   0  0  0  0  0  0  0  0  0  0  0  0
   -3.0646    0.7709    0.0000 C   0  0  0  0  0  0  0  0  0  0  0  0
    4.2522   -3.7583    0.0000 C   0  0  0  0  0  0  0  0  0  0  0  0
   -4.1561    1.9500    0.0000 C   0  0  0  0  0  0  0  0  0  0  0  0
   -2.5273    2.5084    0.0000 C   0  0  0  0  0  0  0  0  0  0  0  0
   -2.1645   -2.7167    0.0000 O   0  0  0  0  0  0  0  0  0  0  0  0
   -1.3147   -1.2042    0.0000 N   0  0  0  0  0  0  0  0  0  0  0  0
    2.9897    0.3251    0.0000 Cl  0  0  0  0  0  0  0  0  0  0  0  0
   -4.4854    2.9000    0.0000 C   0  0  0  0  0  0  0  0  0  0  0  0
   -2.8561    3.4584    0.0000 C   0  0  0  0  0  0  0  0  0  0  0  0
    1.3104   -3.6835    0.0000 C   0  0  0  0  0  0  0  0  0  0  0  0
   -3.8187    3.6583    0.0000 C   0  0  0  0  0  0  0  0  0  0  0  0
   -0.4229   -3.7124    0.0000 C   0  0  0  0  0  0  0  0  0  0  0  0
   -2.1811   -0.7167    0.0000 C   0  0  0  0  0  0  0  0  0  0  0  0
   -2.1895    0.2751    0.0000 C   0  0  0  0  0  0  0  0  0  0  0  0
   -2.1895    4.1958    0.0000 O   0  0  0  0  0  0  0  0  0  0  0  0
    0.4521   -4.1958    0.0000 C   0  0  0  0  0  0  0  0  0  0  0  0
   -1.2231    4.0042    0.0000 C   0  0  0  0  0  0  0  0  0  0  0  0
  1  2  2  0  0  0  0
  1  3  1  0  0  0  0
  2  4  1  0  0  0  0
  5  7  1  0  0  0  0
  4  5  2  0  0  0  0
  1  6  1  0  0  0  0
  3  7  2  0  0  0  0
  4  8  1  0  0  0  0
  9 13  1  0  0  0  0
 10 15  1  0  0  0  0
 10 18  1  0  0  0  0
 11 16  1  0  0  0  0
  2 12  1  0  0  0  0
  6 13  1  0  0  0  0
  9 14  1  0  0  0  0
 15 16  2  0  0  0  0
 16 29  1  0  0  0  0
 12 17  1  0  0  0  0
  8 17  2  0  0  0  0
 11 18  1  0  0  0  0
 11 19  2  0  0  0  0
 14 20  2  0  0  0  0
 14 21  1  0  0  0  0
  7 22  1  0  0  0  0
 18 23  2  0  0  0  0
 19 24  1  0  0  0  0
  6 25  1  0  0  0  0
 24 26  2  0  0  0  0
 23 26  1  0  0  0  0
 27 31  1  0  0  0  0
  9 27  1  0  0  0  0
 21 28  1  0  0  0  0
 28 29  1  0  0  0  0
 24 30  1  0  0  0  0
 25 31  1  0  0  0  0
 30 32  1  0  0  0  0
M  END
> <IDNUMBER>
IB03-7469

> <available>
50

> <H_acceptor>
6

> <H_donor>
3

> <B_rotN>
7

> <N_O>
9

> <logP>
2.72

> <logD>
2.67

> <logSw>
-3.5

> <PSA>
128.03

> <pKa_ma>
8.29

> <pKa_mb>
4.6

> <N_Chirals>
1

> <Name>
1-(2-chloro-9H-purin-6-yl)-N-[2-(5-methoxy-1H-indol-3-yl)ethyl]piperidine-3-carboxamide

> <Smile>
COc(cc1)cc2c1[nH]cc2CCNC(C(CCC1)CN1c1c2[nH]cnc2nc(Cl)n1)=O

> <Color>
NOT COLORED

> <Collection>
DC

> <InChI>
InChI=1S/C22H24ClN7O2/c1-32-15-4-5-17-16(9-15)13(10-25-17)6-7-24-21(31)14-3-2-8-30(11-14)20-18-19(27-12-26-18)28-22(23)29-20/h4-5,9-10,12,14,25H,2-3,6-8,11H2,1H3,(H,24,31)(H,26,27,28,29)/t14-/m0/s1

> <InChI Key>
ZDMMGPGNXLEIBH-AWEZNQCLSA-N

> <PERCENTSP3>
36.4

> <Link>
https://www.chemdiv.com/catalog/screening-compounds/compound-IB03-7469/

> <STEREO>
RACEMIC MIXTURE

> <State>
Solid

> <Similarity score>
0.22

$$$$
4-bromo-2-(1,2,3,4-tetrahydrobenzo[a]phenanthridin-5-yl)phenol
  -OEChem-04222410502D

 26 30  0     0  0  0  0  0  0999 V2000
    0.8398    0.0255    0.0000 C   0  0  0  0  0  0  0  0  0  0  0  0
    0.8652   -0.9825    0.0000 N   0  0  0  0  0  0  0  0  0  0  0  0
   -0.8652   -0.0128    0.0000 C   0  0  0  0  0  0  0  0  0  0  0  0
    1.7208    0.5071    0.0000 C   0  0  0  0  0  0  0  0  0  0  0  0
    0.0222    0.5071    0.0000 C   0  0  0  0  0  0  0  0  0  0  0  0
   -0.8652   -0.9825    0.0000 C   0  0  0  0  0  0  0  0  0  0  0  0
    0.0222   -1.4959    0.0000 C   0  0  0  0  0  0  0  0  0  0  0  0
   -1.7208   -1.4959    0.0000 C   0  0  0  0  0  0  0  0  0  0  0  0
    2.5765    0.0255    0.0000 C   0  0  0  0  0  0  0  0  0  0  0  0
    1.7208    1.5085    0.0000 C   0  0  0  0  0  0  0  0  0  0  0  0
    0.0222   -2.5036    0.0000 C   0  0  0  0  0  0  0  0  0  0  0  0
   -1.7208   -2.5036    0.0000 C   0  0  0  0  0  0  0  0  0  0  0  0
   -0.8652   -2.9916    0.0000 C   0  0  0  0  0  0  0  0  0  0  0  0
    3.4257    0.5071    0.0000 C   0  0  0  0  0  0  0  0  0  0  0  0
    2.6081    2.0283    0.0000 C   0  0  0  0  0  0  0  0  0  0  0  0
   -1.7273    0.5071    0.0000 C   0  0  0  0  0  0  0  0  0  0  0  0
    3.4512    1.5085    0.0000 C   0  0  0  0  0  0  0  0  0  0  0  0
    2.5765   -0.9635    0.0000 O   0  0  0  0  0  0  0  0  0  0  0  0
    2.6145    3.0170    0.0000 Br  0  0  0  0  0  0  0  0  0  0  0  0
    0.0030    1.5275    0.0000 C   0  0  0  0  0  0  0  0  0  0  0  0
   -2.5955   -0.9825    0.0000 C   0  0  0  0  0  0  0  0  0  0  0  0
   -2.5638   -3.0170    0.0000 C   0  0  0  0  0  0  0  0  0  0  0  0
   -1.7463    1.5085    0.0000 C   0  0  0  0  0  0  0  0  0  0  0  0
   -0.8841    2.0283    0.0000 C   0  0  0  0  0  0  0  0  0  0  0  0
   -3.4512   -1.4959    0.0000 C   0  0  0  0  0  0  0  0  0  0  0  0
   -3.4196   -2.5036    0.0000 C   0  0  0  0  0  0  0  0  0  0  0  0
  1  2  2  0  0  0  0
  3  5  2  0  0  0  0
  1  4  1  0  0  0  0
  1  5  1  0  0  0  0
  3  6  1  0  0  0  0
  2  7  1  0  0  0  0
  6  7  2  0  0  0  0
  6  8  1  0  0  0  0
  4  9  1  0  0  0  0
  4 10  2  0  0  0  0
  7 11  1  0  0  0  0
  8 12  2  0  0  0  0
 11 13  2  0  0  0  0
 12 13  1  0  0  0  0
  9 14  2  0  0  0  0
 14 17  1  0  0  0  0
 10 15  1  0  0  0  0
  3 16  1  0  0  0  0
 15 17  2  0  0  0  0
  9 18  1  0  0  0  0
 15 19  1  0  0  0  0
  5 20  1  0  0  0  0
  8 21  1  0  0  0  0
 12 22  1  0  0  0  0
 23 24  1  0  0  0  0
 16 23  1  0  0  0  0
 20 24  1  0  0  0  0
 21 25  2  0  0  0  0
 25 26  1  0  0  0  0
 22 26  2  0  0  0  0
M  END
> <IDNUMBER>
0820-0874

> <available>
90

> <H_acceptor>
2

> <H_donor>
1

> <B_rotN>
1

> <N_O>
2

> <logP>
7.6446

> <logD>
7.6397

> <logSw>
-7.2274

> <PSA>
25.2652

> <pKa_ma>
9.4175

> <pKa_mb>
4.6059

> <N_Chirals>
0

> <Name>
4-bromo-2-(1,2,3,4-tetrahydrobenzo[a]phenanthridin-5-yl)phenol

> <Smile>
Oc(ccc(Br)c1)c1-c1nc2ccc(cccc3)c3c2c2c1CCCC2

> <Color>
NOT COLORED

> <Collection>
DC

> <InChI>
InChI=1S/C23H18BrNO/c24-15-10-12-21(26)19(13-15)23-18-8-4-3-7-17(18)22-16-6-2-1-5-14(16)9-11-20(22)25-23/h1-2,5-6,9-13,26H,3-4,7-8H2

> <InChI Key>
VYCBOSNMZXCYER-UHFFFAOYSA-N

> <PERCENTSP3>
17.4

> <Link>
https://www.chemdiv.com/catalog/screening-compounds/compound-0820-0874/

> <MFCDNUMBER>
MFCD00363361

> <STEREO>
ACHIRAL

> <State>
Solid

> <Similarity score>
0.22

$$$$
ethyl 1-[2-(4-methoxyphenyl)quinazolin-4-yl]piperidine-3-carboxylate
  -OEChem-04222410502D

 29 32  0     0  0  0  0  0  0999 V2000
    0.0099    0.2551    0.0000 C   0  0  0  0  0  0  0  0  0  0  0  0
    0.8801   -0.2352    0.0000 N   0  0  0  0  0  0  0  0  0  0  0  0
    0.0099    1.2652    0.0000 N   0  0  0  0  0  0  0  0  0  0  0  0
    0.8801   -1.2453    0.0000 C   0  0  0  0  0  0  0  0  0  0  0  0
   -0.8502   -0.2352    0.0000 C   0  0  0  0  0  0  0  0  0  0  0  0
    0.0099   -1.7356    0.0000 N   0  0  0  0  0  0  0  0  0  0  0  0
   -0.8602    2.7656    0.0000 C   0  0  3  0  0  0  0  0  0  0  0  0
   -0.8502   -1.2453    0.0000 C   0  0  0  0  0  0  0  0  0  0  0  0
   -0.8602    1.7754    0.0000 C   0  0  0  0  0  0  0  0  0  0  0  0
   -1.7308    3.2758    0.0000 C   0  0  0  0  0  0  0  0  0  0  0  0
    1.7304   -1.7356    0.0000 C   0  0  0  0  0  0  0  0  0  0  0  0
   -1.7206    4.2563    0.0000 O   0  0  0  0  0  0  0  0  0  0  0  0
    2.6008   -1.2453    0.0000 C   0  0  0  0  0  0  0  0  0  0  0  0
    1.7304   -2.7458    0.0000 C   0  0  0  0  0  0  0  0  0  0  0  0
    0.8602    1.7754    0.0000 C   0  0  0  0  0  0  0  0  0  0  0  0
   -2.5907    2.7656    0.0000 O   0  0  0  0  0  0  0  0  0  0  0  0
    3.4609   -2.7458    0.0000 C   0  0  0  0  0  0  0  0  0  0  0  0
    2.5907   -3.2362    0.0000 C   0  0  0  0  0  0  0  0  0  0  0  0
    3.4709   -1.7356    0.0000 C   0  0  0  0  0  0  0  0  0  0  0  0
   -1.7206    0.2551    0.0000 C   0  0  0  0  0  0  0  0  0  0  0  0
   -0.0099    3.2758    0.0000 C   0  0  0  0  0  0  0  0  0  0  0  0
    4.3313   -3.2561    0.0000 O   0  0  0  0  0  0  0  0  0  0  0  0
    0.8602    2.7656    0.0000 C   0  0  0  0  0  0  0  0  0  0  0  0
   -1.7206   -1.7356    0.0000 C   0  0  0  0  0  0  0  0  0  0  0  0
   -3.4613    3.2758    0.0000 C   0  0  0  0  0  0  0  0  0  0  0  0
    4.3112   -4.2563    0.0000 C   0  0  0  0  0  0  0  0  0  0  0  0
   -2.5907   -0.2352    0.0000 C   0  0  0  0  0  0  0  0  0  0  0  0
   -4.3313    2.7656    0.0000 C   0  0  0  0  0  0  0  0  0  0  0  0
   -2.5907   -1.2453    0.0000 C   0  0  0  0  0  0  0  0  0  0  0  0
  1  2  2  0  0  0  0
  1  3  1  0  0  0  0
  2  4  1  0  0  0  0
  1  5  1  0  0  0  0
  6  8  1  0  0  0  0
  4  6  2  0  0  0  0
  7  9  1  0  0  0  0
  7 21  1  0  0  0  0
  5  8  1  0  0  0  0
  3  9  1  0  0  0  0
  7 10  1  0  0  0  0
  4 11  1  0  0  0  0
 10 12  2  0  0  0  0
 11 13  1  0  0  0  0
 11 14  2  0  0  0  0
  3 15  1  0  0  0  0
 10 16  1  0  0  0  0
 17 18  2  0  0  0  0
 14 18  1  0  0  0  0
 13 19  2  0  0  0  0
 17 19  1  0  0  0  0
  5 20  2  0  0  0  0
 21 23  1  0  0  0  0
 17 22  1  0  0  0  0
 15 23  1  0  0  0  0
  8 24  2  0  0  0  0
 24 29  1  0  0  0  0
 16 25  1  0  0  0  0
 22 26  1  0  0  0  0
 20 27  1  0  0  0  0
 25 28  1  0  0  0  0
 27 29  2  0  0  0  0
M  END
> <IDNUMBER>
G516-0074

> <available>
104

> <H_acceptor>
6

> <H_donor>
0

> <B_rotN>
6

> <N_O>
6

> <logP>
5.3182

> <logD>
4.8769

> <logSw>
-5.4967

> <PSA>
49.869

> <pKa_ma>
21.7963

> <pKa_mb>
7.6461

> <N_Chirals>
1

> <Name>
ethyl 1-[2-(4-methoxyphenyl)quinazolin-4-yl]piperidine-3-carboxylate

> <Smile>
CCOC(C(CCC1)CN1c1nc(-c(cc2)ccc2OC)nc2ccccc12)=O

> <Color>
YELLOW

> <Collection>
NC

> <InChI>
InChI=1S/C23H25N3O3/c1-3-29-23(27)17-7-6-14-26(15-17)22-19-8-4-5-9-20(19)24-21(25-22)16-10-12-18(28-2)13-11-16/h4-5,8-13,17H,3,6-7,14-15H2,1-2H3/t17-/m0/s1

> <InChI Key>
AWUZWUKXPBFSLP-KRWDZBQOSA-N

> <PERCENTSP3>
34.8

> <Link>
https://www.chemdiv.com/catalog/screening-compounds/compound-G516-0074/

> <MFCDNUMBER>
MFCD15015017

> <CLNUMBER>
CL2243

> <STEREO>
RACEMIC MIXTURE

> <State>
Liquid

> <Similarity score>
0.22

$$$$
2-{benzyl[9-(methylsulfanyl)-4-phenyl-2,3-dihydro-1H-cyclopenta[4',5']pyrido[3',
  -OEChem-04222410502D

 35 40  0     0  0  0  0  0  0999 V2000
    0.7019   -0.0520    0.0000 C   0  0  0  0  0  0  0  0  0  0  0  0
   -0.8104    0.5228    0.0000 C   0  0  0  0  0  0  0  0  0  0  0  0
   -0.8104   -0.4852    0.0000 C   0  0  0  0  0  0  0  0  0  0  0  0
    0.1603    0.7810    0.0000 C   0  0  0  0  0  0  0  0  0  0  0  0
    1.7017   -0.0021    0.0000 C   0  0  0  0  0  0  0  0  0  0  0  0
    0.1395   -0.7936    0.0000 S   0  0  0  0  0  0  0  0  0  0  0  0
    2.1557    0.8853    0.0000 N   0  0  0  0  0  0  0  0  0  0  0  0
   -1.6727   -0.9851    0.0000 N   0  0  0  0  0  0  0  0  0  0  0  0
   -1.6727    1.0228    0.0000 C   0  0  0  0  0  0  0  0  0  0  0  0
   -2.5351   -0.4852    0.0000 C   0  0  0  0  0  0  0  0  0  0  0  0
    1.6143    1.7351    0.0000 C   0  0  0  0  0  0  0  0  0  0  0  0
    0.6144    1.6726    0.0000 N   0  0  0  0  0  0  0  0  0  0  0  0
   -2.5351    0.5228    0.0000 C   0  0  0  0  0  0  0  0  0  0  0  0
    2.2474   -0.8395    0.0000 N   0  0  0  0  0  0  0  0  0  0  0  0
    3.2472   -0.7812    0.0000 C   0  0  0  0  0  0  0  0  0  0  0  0
   -3.4141   -0.9893    0.0000 C   0  0  0  0  0  0  0  0  0  0  0  0
    2.0682    2.6265    0.0000 S   0  0  0  0  0  0  0  0  0  0  0  0
   -1.8851    1.9975    0.0000 C   0  0  0  0  0  0  0  0  0  0  0  0
    3.7096    0.1145    0.0000 C   0  0  0  0  0  0  0  0  0  0  0  0
   -3.2933    1.1935    0.0000 C   0  0  0  0  0  0  0  0  0  0  0  0
    1.7892   -1.7351    0.0000 C   0  0  0  0  0  0  0  0  0  0  0  0
   -2.8725    2.0976    0.0000 C   0  0  0  0  0  0  0  0  0  0  0  0
    1.8849   -3.4597    0.0000 O   0  0  0  0  0  0  0  0  0  0  0  0
   -3.4141   -1.9893    0.0000 C   0  0  0  0  0  0  0  0  0  0  0  0
   -4.2929   -0.4852    0.0000 C   0  0  0  0  0  0  0  0  0  0  0  0
    1.5224    3.4597    0.0000 C   0  0  0  0  0  0  0  0  0  0  0  0
    2.3391   -2.5641    0.0000 C   0  0  0  0  0  0  0  0  0  0  0  0
    4.7012    0.1729    0.0000 C   0  0  0  0  0  0  0  0  0  0  0  0
    3.1555    0.9518    0.0000 C   0  0  0  0  0  0  0  0  0  0  0  0
   -4.2763   -2.5016    0.0000 C   0  0  0  0  0  0  0  0  0  0  0  0
   -5.1553   -0.9893    0.0000 C   0  0  0  0  0  0  0  0  0  0  0  0
    3.6095    1.8433    0.0000 C   0  0  0  0  0  0  0  0  0  0  0  0
    5.1553    1.0684    0.0000 C   0  0  0  0  0  0  0  0  0  0  0  0
    4.6093    1.9018    0.0000 C   0  0  0  0  0  0  0  0  0  0  0  0
   -5.1553   -2.0017    0.0000 C   0  0  0  0  0  0  0  0  0  0  0  0
  2  4  1  0  0  0  0
  3  6  1  0  0  0  0
  2  3  2  0  0  0  0
  1  4  2  0  0  0  0
  1  5  1  0  0  0  0
  1  6  1  0  0  0  0
  5  7  2  0  0  0  0
  3  8  1  0  0  0  0
  2  9  1  0  0  0  0
  8 10  2  0  0  0  0
 10 13  1  0  0  0  0
  7 11  1  0  0  0  0
  4 12  1  0  0  0  0
 11 12  2  0  0  0  0
  9 13  2  0  0  0  0
  5 14  1  0  0  0  0
 14 15  1  0  0  0  0
 10 16  1  0  0  0  0
 11 17  1  0  0  0  0
  9 18  1  0  0  0  0
 15 19  1  0  0  0  0
 13 20  1  0  0  0  0
 20 22  1  0  0  0  0
 14 21  1  0  0  0  0
 18 22  1  0  0  0  0
 23 27  1  0  0  0  0
 16 24  1  0  0  0  0
 16 25  2  0  0  0  0
 17 26  1  0  0  0  0
 21 27  1  0  0  0  0
 19 28  1  0  0  0  0
 19 29  2  0  0  0  0
 24 30  2  0  0  0  0
 25 31  1  0  0  0  0
 29 32  1  0  0  0  0
 28 33  2  0  0  0  0
 32 34  2  0  0  0  0
 33 34  1  0  0  0  0
 31 35  2  0  0  0  0
 30 35  1  0  0  0  0
M  END
> <IDNUMBER>
IB08-5510

> <available>
50

> <H_acceptor>
5

> <H_donor>
1

> <B_rotN>
7

> <N_O>
5

> <logP>
6.83

> <logD>
6.83

> <logSw>
-6.5

> <PSA>
100.67

> <pKa_ma>
14

> <pKa_mb>
2.82

> <N_Chirals>
0

> <Name>
2-{benzyl[9-(methylsulfanyl)-4-phenyl-2,3-dihydro-1H-cyclopenta[4',5']pyrido[3',2':4,5]thieno[3,2-d]pyrimidin-7-yl]amino}ethan-1-ol

> <Smile>
CSc1nc(N(CCO)Cc2ccccc2)c2sc3nc(-c4ccccc4)c(CCC4)c4c3c2n1

> <Color>
NOT COLORED

> <Collection>
DC

> <InChI>
InChI=1S/C28H26N4OS2/c1-34-28-30-24-22-20-13-8-14-21(20)23(19-11-6-3-7-12-19)29-27(22)35-25(24)26(31-28)32(15-16-33)17-18-9-4-2-5-10-18/h2-7,9-12,33H,8,13-17H2,1H3

> <InChI Key>
IDOTUVDTJFFWRS-UHFFFAOYSA-N

> <PERCENTSP3>
25

> <Link>
https://www.chemdiv.com/catalog/screening-compounds/compound-IB08-5510/

> <STEREO>
ACHIRAL

> <State>
Solid

> <Similarity score>
0.22

$$$$
4-(2,3-dihydro-1H-benzo[f]cyclopenta[c]quinolin-4-yl)benzene-1,2-diol
  -OEChem-04222410502D

 25 29  0     0  0  0  0  0  0999 V2000
    0.4544   -0.5618    0.0000 N   0  0  0  0  0  0  0  0  0  0  0  0
    0.4544    0.4669    0.0000 C   0  0  0  0  0  0  0  0  0  0  0  0
   -1.3062    0.4417    0.0000 C   0  0  0  0  0  0  0  0  0  0  0  0
   -1.2684   -0.5618    0.0000 C   0  0  0  0  0  0  0  0  0  0  0  0
   -0.4229    0.9528    0.0000 C   0  0  0  0  0  0  0  0  0  0  0  0
   -0.3976   -1.0729    0.0000 C   0  0  0  0  0  0  0  0  0  0  0  0
    1.3064    1.0159    0.0000 C   0  0  0  0  0  0  0  0  0  0  0  0
   -2.1456   -1.0729    0.0000 C   0  0  0  0  0  0  0  0  0  0  0  0
    2.2151    0.5364    0.0000 C   0  0  0  0  0  0  0  0  0  0  0  0
    3.0291    1.0729    0.0000 C   0  0  0  0  0  0  0  0  0  0  0  0
    3.0039    2.0762    0.0000 C   0  0  0  0  0  0  0  0  0  0  0  0
   -0.3976   -2.0762    0.0000 C   0  0  0  0  0  0  0  0  0  0  0  0
    1.2685    2.0130    0.0000 C   0  0  0  0  0  0  0  0  0  0  0  0
   -2.1204   -2.1077    0.0000 C   0  0  0  0  0  0  0  0  0  0  0  0
    2.1204    2.5619    0.0000 C   0  0  0  0  0  0  0  0  0  0  0  0
   -1.2684   -2.5621    0.0000 C   0  0  0  0  0  0  0  0  0  0  0  0
   -2.0256    1.1421    0.0000 C   0  0  0  0  0  0  0  0  0  0  0  0
    3.8810    0.6183    0.0000 O   0  0  0  0  0  0  0  0  0  0  0  0
   -0.6310    1.9247    0.0000 C   0  0  0  0  0  0  0  0  0  0  0  0
    3.8432    2.5874    0.0000 O   0  0  0  0  0  0  0  0  0  0  0  0
   -1.6092    2.0130    0.0000 C   0  0  0  0  0  0  0  0  0  0  0  0
   -3.0291   -0.5932    0.0000 C   0  0  0  0  0  0  0  0  0  0  0  0
   -2.9975   -2.5874    0.0000 C   0  0  0  0  0  0  0  0  0  0  0  0
   -3.8810   -1.1044    0.0000 C   0  0  0  0  0  0  0  0  0  0  0  0
   -3.8810   -2.0762    0.0000 C   0  0  0  0  0  0  0  0  0  0  0  0
  1  2  2  0  0  0  0
  3  4  1  0  0  0  0
  3  5  2  0  0  0  0
  4  6  2  0  0  0  0
  2  5  1  0  0  0  0
  1  6  1  0  0  0  0
  2  7  1  0  0  0  0
  4  8  1  0  0  0  0
  8 14  2  0  0  0  0
  7  9  1  0  0  0  0
  9 10  2  0  0  0  0
 11 15  2  0  0  0  0
 10 11  1  0  0  0  0
  6 12  1  0  0  0  0
  7 13  2  0  0  0  0
 14 16  1  0  0  0  0
 13 15  1  0  0  0  0
 12 16  2  0  0  0  0
  3 17  1  0  0  0  0
 17 21  1  0  0  0  0
 10 18  1  0  0  0  0
  5 19  1  0  0  0  0
 11 20  1  0  0  0  0
 19 21  1  0  0  0  0
  8 22  1  0  0  0  0
 14 23  1  0  0  0  0
 22 24  2  0  0  0  0
 24 25  1  0  0  0  0
 23 25  2  0  0  0  0
M  END
> <IDNUMBER>
0820-0892

> <available>
2

> <H_acceptor>
3

> <H_donor>
2

> <B_rotN>
1

> <N_O>
3

> <logP>
5.177

> <logD>
5.13

> <logSw>
-6.118

> <PSA>
42.18

> <pKa_ma>
8.376

> <pKa_mb>
5.303

> <N_Chirals>
0

> <Name>
4-(2,3-dihydro-1H-benzo[f]cyclopenta[c]quinolin-4-yl)benzene-1,2-diol

> <Smile>
Oc(ccc(-c1nc2ccc(cccc3)c3c2c2c1CCC2)c1)c1O

> <Color>
NOT COLORED

> <Collection>
DC

> <InChI>
InChI=1S/C22H17NO2/c24-19-11-9-14(12-20(19)25)22-17-7-3-6-16(17)21-15-5-2-1-4-13(15)8-10-18(21)23-22/h1-2,4-5,8-12,24-25H,3,6-7H2

> <InChI Key>
OGERJCPZFKTIGD-UHFFFAOYSA-N

> <PERCENTSP3>
13.6

> <Link>
https://www.chemdiv.com/catalog/screening-compounds/compound-0820-0892/

> <MFCDNUMBER>
MFCD00373616

> <STEREO>
ACHIRAL

> <State>
Solid

> <Similarity score>
0.22

$$$$
2-(4-methylphenyl)-4-(3-methylpiperidin-1-yl)quinazoline
  -OEChem-04222410502D

 24 27  0     0  0  0  0  0  0999 V2000
   -0.8648   -0.2272    0.0000 C   0  0  0  0  0  0  0  0  0  0  0  0
    0.0063    0.2729    0.0000 N   0  0  0  0  0  0  0  0  0  0  0  0
    0.0063    1.2733    0.0000 C   0  0  0  0  0  0  0  0  0  0  0  0
   -0.8648   -1.2276    0.0000 N   0  0  0  0  0  0  0  0  0  0  0  0
   -1.7317    0.2729    0.0000 C   0  0  0  0  0  0  0  0  0  0  0  0
   -0.8648    1.7775    0.0000 N   0  0  0  0  0  0  0  0  0  0  0  0
   -1.7317    1.2733    0.0000 C   0  0  0  0  0  0  0  0  0  0  0  0
    0.8731    1.7775    0.0000 C   0  0  0  0  0  0  0  0  0  0  0  0
   -1.7358   -1.7276    0.0000 C   0  0  0  0  0  0  0  0  0  0  0  0
    1.7192    1.2690    0.0000 C   0  0  0  0  0  0  0  0  0  0  0  0
    0.8816    2.7569    0.0000 C   0  0  0  0  0  0  0  0  0  0  0  0
    0.0063   -1.7276    0.0000 C   0  0  0  0  0  0  0  0  0  0  0  0
    1.7401    3.2405    0.0000 C   0  0  0  0  0  0  0  0  0  0  0  0
    2.5863    1.7566    0.0000 C   0  0  0  0  0  0  0  0  0  0  0  0
   -2.5986   -0.2272    0.0000 C   0  0  0  0  0  0  0  0  0  0  0  0
    2.5986    2.7361    0.0000 C   0  0  0  0  0  0  0  0  0  0  0  0
   -1.7442   -2.7237    0.0000 C   0  0  3  0  0  0  0  0  0  0  0  0
   -2.5986    1.7775    0.0000 C   0  0  0  0  0  0  0  0  0  0  0  0
   -0.0062   -2.7487    0.0000 C   0  0  0  0  0  0  0  0  0  0  0  0
   -0.8774   -3.2405    0.0000 C   0  0  0  0  0  0  0  0  0  0  0  0
    3.4655    3.2363    0.0000 C   0  0  0  0  0  0  0  0  0  0  0  0
   -2.6278   -3.2238    0.0000 C   0  0  0  0  0  0  0  0  0  0  0  0
   -3.4655    0.2729    0.0000 C   0  0  0  0  0  0  0  0  0  0  0  0
   -3.4655    1.2733    0.0000 C   0  0  0  0  0  0  0  0  0  0  0  0
  1  2  2  0  0  0  0
  2  3  1  0  0  0  0
  1  4  1  0  0  0  0
  1  5  1  0  0  0  0
  3  6  2  0  0  0  0
  6  7  1  0  0  0  0
  5  7  2  0  0  0  0
  3  8  1  0  0  0  0
  4  9  1  0  0  0  0
  8 10  2  0  0  0  0
  8 11  1  0  0  0  0
  4 12  1  0  0  0  0
 11 13  2  0  0  0  0
 10 14  1  0  0  0  0
  5 15  1  0  0  0  0
 14 16  2  0  0  0  0
 13 16  1  0  0  0  0
  9 17  1  0  0  0  0
  7 18  1  0  0  0  0
 12 19  1  0  0  0  0
 19 20  1  0  0  0  0
 17 20  1  0  0  0  0
 16 21  1  0  0  0  0
 17 22  1  0  0  0  0
 15 23  2  0  0  0  0
 23 24  1  0  0  0  0
 18 24  2  0  0  0  0
M  END
> <IDNUMBER>
V008-4958

> <available>
4

> <H_acceptor>
2

> <H_donor>
0

> <B_rotN>
2

> <N_O>
3

> <logP>
6.1459

> <logD>
4.9168

> <logSw>
-5.9258

> <PSA>
21.5719

> <pKa_ma>
22.2789

> <pKa_mb>
8.6026

> <N_Chirals>
1

> <Name>
2-(4-methylphenyl)-4-(3-methylpiperidin-1-yl)quinazoline

> <Smile>
CC(CCC1)CN1c1nc(-c2ccc(C)cc2)nc2ccccc12

> <Color>
NOT COLORED

> <Collection>
DC

> <InChI>
InChI=1S/C21H23N3/c1-15-9-11-17(12-10-15)20-22-19-8-4-3-7-18(19)21(23-20)24-13-5-6-16(2)14-24/h3-4,7-12,16H,5-6,13-14H2,1-2H3/t16-/m0/s1

> <InChI Key>
LJZSJQRATDDPHQ-INIZCTEOSA-N

> <PERCENTSP3>
33.33

> <Link>
https://www.chemdiv.com/catalog/screening-compounds/compound-V008-4958/

> <MFCDNUMBER>
MFCD08052376

> <STEREO>
RACEMIC MIXTURE

> <State>
Solid

> <Similarity score>
0.22

$$$$
2-(2-amino-5-phenylpyrimidin-4-yl)-5-[(2-chloro-6-fluorophenyl)methoxy]phenol
  -OEChem-04222410502D

 30 33  0     0  0  0  0  0  0999 V2000
    2.5890   -0.5020    0.0000 C   0  0  0  0  0  0  0  0  0  0  0  0
    1.7268    0.0022    0.0000 C   0  0  0  0  0  0  0  0  0  0  0  0
    3.4512    0.0022    0.0000 C   0  0  0  0  0  0  0  0  0  0  0  0
    2.5890   -1.5017    0.0000 N   0  0  0  0  0  0  0  0  0  0  0  0
   -2.5972    1.5018    0.0000 C   0  0  0  0  0  0  0  0  0  0  0  0
    3.4638   -2.0016    0.0000 C   0  0  0  0  0  0  0  0  0  0  0  0
    0.8601   -0.5020    0.0000 C   0  0  0  0  0  0  0  0  0  0  0  0
    4.3260   -1.5017    0.0000 N   0  0  0  0  0  0  0  0  0  0  0  0
    4.3136   -0.4936    0.0000 C   0  0  0  0  0  0  0  0  0  0  0  0
   -1.7350    1.0019    0.0000 C   0  0  0  0  0  0  0  0  0  0  0  0
    1.7268    1.0019    0.0000 C   0  0  0  0  0  0  0  0  0  0  0  0
   -0.0022    0.0022    0.0000 C   0  0  0  0  0  0  0  0  0  0  0  0
   -2.5931    2.5015    0.0000 C   0  0  0  0  0  0  0  0  0  0  0  0
   -3.4554    1.0019    0.0000 C   0  0  0  0  0  0  0  0  0  0  0  0
    3.4470    1.0019    0.0000 C   0  0  0  0  0  0  0  0  0  0  0  0
   -0.8643    1.5018    0.0000 O   0  0  0  0  0  0  0  0  0  0  0  0
   -0.0022    1.0019    0.0000 C   0  0  0  0  0  0  0  0  0  0  0  0
    3.4638   -3.0013    0.0000 N   0  0  0  0  0  0  0  0  0  0  0  0
    0.8601    1.5018    0.0000 C   0  0  0  0  0  0  0  0  0  0  0  0
    0.8601   -1.5017    0.0000 O   0  0  0  0  0  0  0  0  0  0  0  0
   -3.4554    0.0022    0.0000 Cl  0  0  0  0  0  0  0  0  0  0  0  0
   -1.7308    3.0013    0.0000 F   0  0  0  0  0  0  0  0  0  0  0  0
   -4.3260    2.5015    0.0000 C   0  0  0  0  0  0  0  0  0  0  0  0
   -4.3260    1.4892    0.0000 C   0  0  0  0  0  0  0  0  0  0  0  0
   -3.4638    3.0013    0.0000 C   0  0  0  0  0  0  0  0  0  0  0  0
    4.3136    1.5018    0.0000 C   0  0  0  0  0  0  0  0  0  0  0  0
    2.5848    1.4850    0.0000 C   0  0  0  0  0  0  0  0  0  0  0  0
    2.5722    2.4848    0.0000 C   0  0  0  0  0  0  0  0  0  0  0  0
    4.3094    2.5015    0.0000 C   0  0  0  0  0  0  0  0  0  0  0  0
    3.4346    3.0013    0.0000 C   0  0  0  0  0  0  0  0  0  0  0  0
  1  2  1  0  0  0  0
  1  3  1  0  0  0  0
  1  4  2  0  0  0  0
  5 10  1  0  0  0  0
  4  6  1  0  0  0  0
  2  7  2  0  0  0  0
  6  8  2  0  0  0  0
  3  9  2  0  0  0  0
  8  9  1  0  0  0  0
 10 16  1  0  0  0  0
  2 11  1  0  0  0  0
  7 12  1  0  0  0  0
 12 17  2  0  0  0  0
  5 13  2  0  0  0  0
  5 14  1  0  0  0  0
  3 15  1  0  0  0  0
 16 17  1  0  0  0  0
 17 19  1  0  0  0  0
  6 18  1  0  0  0  0
 11 19  2  0  0  0  0
  7 20  1  0  0  0  0
 14 21  1  0  0  0  0
 13 22  1  0  0  0  0
 23 24  1  0  0  0  0
 23 25  2  0  0  0  0
 14 24  2  0  0  0  0
 13 25  1  0  0  0  0
 15 26  2  0  0  0  0
 15 27  1  0  0  0  0
 27 28  2  0  0  0  0
 26 29  1  0  0  0  0
 28 30  1  0  0  0  0
 29 30  2  0  0  0  0
M  END
> <IDNUMBER>
Y041-2664

> <available>
49

> <H_acceptor>
4

> <H_donor>
3

> <B_rotN>
5

> <N_O>
5

> <logP>
5.6598

> <logD>
5.6583

> <logSw>
-5.645

> <PSA>
63.8

> <pKa_ma>
9.88

> <pKa_mb>
3.0878

> <N_Chirals>
0

> <Name>
2-(2-amino-5-phenylpyrimidin-4-yl)-5-[(2-chloro-6-fluorophenyl)methoxy]phenol

> <Smile>
Nc1ncc(-c2ccccc2)c(-c(ccc(OCc(c(F)ccc2)c2Cl)c2)c2O)n1

> <Color>
BROWN

> <Collection>
DC

> <InChI>
InChI=1S/C23H17ClFN3O2/c24-19-7-4-8-20(25)18(19)13-30-15-9-10-16(21(29)11-15)22-17(12-27-23(26)28-22)14-5-2-1-3-6-14/h1-12,29H,13H2,(H2,26,27,28)

> <InChI Key>
RPCBRFDUSCLSAE-UHFFFAOYSA-N

> <PERCENTSP3>
4.3

> <Link>
https://www.chemdiv.com/catalog/screening-compounds/compound-Y041-2664/

> <MFCDNUMBER>
MFCD06606355

> <STEREO>
ACHIRAL

> <State>
Solid

> <Similarity score>
0.21

$$$$
N-butyl-N-ethyl-2-(4-methylphenyl)quinazolin-4-amine
  -OEChem-04222410502D

 24 26  0     0  0  0  0  0  0999 V2000
   -0.0173    0.4926    0.0000 N   0  0  0  0  0  0  0  0  0  0  0  0
   -0.8902    0.9896    0.0000 C   0  0  0  0  0  0  0  0  0  0  0  0
   -0.0173   -0.5012    0.0000 C   0  0  0  0  0  0  0  0  0  0  0  0
   -1.7413    0.4926    0.0000 C   0  0  0  0  0  0  0  0  0  0  0  0
   -0.8902   -0.9982    0.0000 N   0  0  0  0  0  0  0  0  0  0  0  0
   -1.7413   -0.5012    0.0000 C   0  0  0  0  0  0  0  0  0  0  0  0
   -0.8902    1.9878    0.0000 N   0  0  0  0  0  0  0  0  0  0  0  0
    0.8513   -0.9982    0.0000 C   0  0  0  0  0  0  0  0  0  0  0  0
    0.8513   -1.9963    0.0000 C   0  0  0  0  0  0  0  0  0  0  0  0
    1.7199   -0.5012    0.0000 C   0  0  0  0  0  0  0  0  0  0  0  0
    2.5970   -0.9982    0.0000 C   0  0  0  0  0  0  0  0  0  0  0  0
    1.7026   -2.4890    0.0000 C   0  0  0  0  0  0  0  0  0  0  0  0
   -2.6099    0.9896    0.0000 C   0  0  0  0  0  0  0  0  0  0  0  0
    2.5970   -1.9963    0.0000 C   0  0  0  0  0  0  0  0  0  0  0  0
   -2.6099   -0.9982    0.0000 C   0  0  0  0  0  0  0  0  0  0  0  0
   -1.7413    2.4890    0.0000 C   0  0  0  0  0  0  0  0  0  0  0  0
   -0.0173    2.4890    0.0000 C   0  0  0  0  0  0  0  0  0  0  0  0
    3.4829   -2.4890    0.0000 C   0  0  0  0  0  0  0  0  0  0  0  0
    0.8513    1.9878    0.0000 C   0  0  0  0  0  0  0  0  0  0  0  0
    1.7199    2.4890    0.0000 C   0  0  0  0  0  0  0  0  0  0  0  0
   -3.4829    0.4926    0.0000 C   0  0  0  0  0  0  0  0  0  0  0  0
   -2.6014    1.9878    0.0000 C   0  0  0  0  0  0  0  0  0  0  0  0
   -3.4829   -0.5012    0.0000 C   0  0  0  0  0  0  0  0  0  0  0  0
    2.5970    1.9878    0.0000 C   0  0  0  0  0  0  0  0  0  0  0  0
  1  2  2  0  0  0  0
  1  3  1  0  0  0  0
  2  4  1  0  0  0  0
  4  6  2  0  0  0  0
  3  5  2  0  0  0  0
  5  6  1  0  0  0  0
  2  7  1  0  0  0  0
  3  8  1  0  0  0  0
  8  9  2  0  0  0  0
  8 10  1  0  0  0  0
 10 11  2  0  0  0  0
  9 12  1  0  0  0  0
  4 13  1  0  0  0  0
 11 14  1  0  0  0  0
 12 14  2  0  0  0  0
  6 15  1  0  0  0  0
  7 16  1  0  0  0  0
  7 17  1  0  0  0  0
 14 18  1  0  0  0  0
 17 19  1  0  0  0  0
 19 20  1  0  0  0  0
 13 21  2  0  0  0  0
 21 23  1  0  0  0  0
 16 22  1  0  0  0  0
 15 23  2  0  0  0  0
 20 24  1  0  0  0  0
M  END
> <IDNUMBER>
3909-8322

> <available>
3

> <H_acceptor>
2

> <H_donor>
0

> <B_rotN>
6

> <N_O>
3

> <logP>
6.7322

> <logD>
5.5032

> <logSw>
-6.1014

> <PSA>
21.1759

> <pKa_ma>
22.6496

> <pKa_mb>
8.6026

> <N_Chirals>
0

> <Name>
N-butyl-N-ethyl-2-(4-methylphenyl)quinazolin-4-amine

> <Smile>
CCCCN(CC)c1nc(-c2ccc(C)cc2)nc2ccccc12

> <Color>
NOT COLORED

> <Collection>
NC

> <InChI>
InChI=1S/C21H25N3/c1-4-6-15-24(5-2)21-18-9-7-8-10-19(18)22-20(23-21)17-13-11-16(3)12-14-17/h7-14H,4-6,15H2,1-3H3

> <InChI Key>
OSUTWCIGCBAWBI-UHFFFAOYSA-N

> <PERCENTSP3>
33.3

> <Link>
https://www.chemdiv.com/catalog/screening-compounds/compound-3909-8322/

> <MFCDNUMBER>
MFCD14708947

> <CLNUMBER>
CL2243

> <STEREO>
ACHIRAL

> <State>
Solid

> <Similarity score>
0.21

$$$$
2-(4-chlorophenyl)-4-(3-methylpiperidin-1-yl)quinazoline
  -OEChem-04222410502D

 24 27  0     0  0  0  0  0  0999 V2000
   -0.8603    0.2450    0.0000 C   0  0  0  0  0  0  0  0  0  0  0  0
    0.0100   -0.2450    0.0000 N   0  0  0  0  0  0  0  0  0  0  0  0
    0.0100   -1.2553    0.0000 C   0  0  0  0  0  0  0  0  0  0  0  0
   -0.8603    1.2553    0.0000 N   0  0  0  0  0  0  0  0  0  0  0  0
   -1.7205   -0.2450    0.0000 C   0  0  0  0  0  0  0  0  0  0  0  0
   -0.8603   -1.7454    0.0000 N   0  0  0  0  0  0  0  0  0  0  0  0
   -1.7205   -1.2553    0.0000 C   0  0  0  0  0  0  0  0  0  0  0  0
    0.8603   -1.7454    0.0000 C   0  0  0  0  0  0  0  0  0  0  0  0
   -1.7305    1.7654    0.0000 C   0  0  0  0  0  0  0  0  0  0  0  0
    0.8603   -2.7558    0.0000 C   0  0  0  0  0  0  0  0  0  0  0  0
    1.7305   -1.2553    0.0000 C   0  0  0  0  0  0  0  0  0  0  0  0
   -0.0100    1.7654    0.0000 C   0  0  0  0  0  0  0  0  0  0  0  0
    2.5906   -2.7558    0.0000 C   0  0  0  0  0  0  0  0  0  0  0  0
    1.7202   -3.2457    0.0000 C   0  0  0  0  0  0  0  0  0  0  0  0
    2.6007   -1.7454    0.0000 C   0  0  0  0  0  0  0  0  0  0  0  0
   -2.5906    0.2450    0.0000 C   0  0  0  0  0  0  0  0  0  0  0  0
    3.4609   -3.2657    0.0000 Cl  0  0  0  0  0  0  0  0  0  0  0  0
   -1.7305    2.7558    0.0000 C   0  0  3  0  0  0  0  0  0  0  0  0
   -2.5906   -1.7454    0.0000 C   0  0  0  0  0  0  0  0  0  0  0  0
   -0.0100    2.7558    0.0000 C   0  0  0  0  0  0  0  0  0  0  0  0
   -0.8802    3.2657    0.0000 C   0  0  0  0  0  0  0  0  0  0  0  0
   -2.6007    3.2657    0.0000 C   0  0  0  0  0  0  0  0  0  0  0  0
   -3.4609   -0.2450    0.0000 C   0  0  0  0  0  0  0  0  0  0  0  0
   -3.4609   -1.2553    0.0000 C   0  0  0  0  0  0  0  0  0  0  0  0
  1  2  2  0  0  0  0
  2  3  1  0  0  0  0
  1  4  1  0  0  0  0
  1  5  1  0  0  0  0
  6  7  1  0  0  0  0
  3  6  2  0  0  0  0
  5  7  1  0  0  0  0
  3  8  1  0  0  0  0
  4  9  1  0  0  0  0
  8 10  2  0  0  0  0
  8 11  1  0  0  0  0
  4 12  1  0  0  0  0
 13 15  1  0  0  0  0
 13 14  2  0  0  0  0
 10 14  1  0  0  0  0
 11 15  2  0  0  0  0
  5 16  2  0  0  0  0
 13 17  1  0  0  0  0
  9 18  1  0  0  0  0
 18 21  1  0  0  0  0
  7 19  2  0  0  0  0
 12 20  1  0  0  0  0
 20 21  1  0  0  0  0
 18 22  1  0  0  0  0
 16 23  1  0  0  0  0
 23 24  2  0  0  0  0
 19 24  1  0  0  0  0
M  END
> <IDNUMBER>
G516-1252

> <available>
105

> <H_acceptor>
2

> <H_donor>
0

> <B_rotN>
2

> <N_O>
3

> <logP>
6.3172

> <logD>
5.7328

> <logSw>
-6.5903

> <PSA>
21.5719

> <pKa_ma>
22.2789

> <pKa_mb>
7.8534

> <N_Chirals>
1

> <Name>
2-(4-chlorophenyl)-4-(3-methylpiperidin-1-yl)quinazoline

> <Smile>
CC(CCC1)CN1c1nc(-c(cc2)ccc2Cl)nc2ccccc12

> <Color>
NOT COLORED

> <Collection>
NC

> <InChI>
InChI=1S/C20H20ClN3/c1-14-5-4-12-24(13-14)20-17-6-2-3-7-18(17)22-19(23-20)15-8-10-16(21)11-9-15/h2-3,6-11,14H,4-5,12-13H2,1H3/t14-/m0/s1

> <InChI Key>
BMXNJNXHOXAUJB-AWEZNQCLSA-N

> <PERCENTSP3>
30

> <Link>
https://www.chemdiv.com/catalog/screening-compounds/compound-G516-1252/

> <MFCDNUMBER>
MFCD15015115

> <CLNUMBER>
CL2243

> <STEREO>
RACEMIC MIXTURE

> <State>
Solid

> <Similarity score>
0.21

$$$$
1-(2-ethylphenyl)-6,8-difluoro-3-phenyl-1H-pyrazolo[4,3-c]quinoline
  -OEChem-04222410502D

 29 33  0     0  0  0  0  0  0999 V2000
   -0.3324    0.5831    0.0000 N   0  0  0  0  0  0  0  0  0  0  0  0
    0.3180   -0.8993    0.0000 C   0  0  0  0  0  0  0  0  0  0  0  0
   -0.5447   -0.3996    0.0000 C   0  0  0  0  0  0  0  0  0  0  0  0
    0.6506    0.6894    0.0000 N   0  0  0  0  0  0  0  0  0  0  0  0
    1.0605   -0.2283    0.0000 C   0  0  0  0  0  0  0  0  0  0  0  0
   -1.4072   -0.9096    0.0000 C   0  0  0  0  0  0  0  0  0  0  0  0
   -1.4072   -1.9149    0.0000 C   0  0  0  0  0  0  0  0  0  0  0  0
   -0.5343   -2.4145    0.0000 N   0  0  0  0  0  0  0  0  0  0  0  0
   -0.9993    1.3256    0.0000 C   0  0  0  0  0  0  0  0  0  0  0  0
    0.3344   -1.9087    0.0000 C   0  0  0  0  0  0  0  0  0  0  0  0
   -2.2760   -2.4145    0.0000 C   0  0  0  0  0  0  0  0  0  0  0  0
   -3.1487   -1.9149    0.0000 C   0  0  0  0  0  0  0  0  0  0  0  0
   -2.2760   -0.3996    0.0000 C   0  0  0  0  0  0  0  0  0  0  0  0
   -3.1487   -0.9096    0.0000 C   0  0  0  0  0  0  0  0  0  0  0  0
    2.0433   -0.4302    0.0000 C   0  0  0  0  0  0  0  0  0  0  0  0
   -0.6955    2.2636    0.0000 C   0  0  0  0  0  0  0  0  0  0  0  0
   -2.2859   -3.4137    0.0000 F   0  0  0  0  0  0  0  0  0  0  0  0
   -4.0113   -0.3996    0.0000 F   0  0  0  0  0  0  0  0  0  0  0  0
   -1.9679    1.1135    0.0000 C   0  0  0  0  0  0  0  0  0  0  0  0
    0.2874    2.4654    0.0000 C   0  0  0  0  0  0  0  0  0  0  0  0
    2.3614   -1.3846    0.0000 C   0  0  0  0  0  0  0  0  0  0  0  0
    2.7101    0.3262    0.0000 C   0  0  0  0  0  0  0  0  0  0  0  0
   -1.3522    2.9958    0.0000 C   0  0  0  0  0  0  0  0  0  0  0  0
    0.6016    3.4137    0.0000 C   0  0  0  0  0  0  0  0  0  0  0  0
   -2.5880    1.8251    0.0000 C   0  0  0  0  0  0  0  0  0  0  0  0
    3.6890    0.1285    0.0000 C   0  0  0  0  0  0  0  0  0  0  0  0
    3.3464   -1.5804    0.0000 C   0  0  0  0  0  0  0  0  0  0  0  0
   -2.3311    2.7939    0.0000 C   0  0  0  0  0  0  0  0  0  0  0  0
    4.0113   -0.8340    0.0000 C   0  0  0  0  0  0  0  0  0  0  0  0
  2  3  2  0  0  0  0
  2  5  1  0  0  0  0
  1  3  1  0  0  0  0
  1  4  1  0  0  0  0
  4  5  2  0  0  0  0
  3  6  1  0  0  0  0
  6  7  1  0  0  0  0
  7  8  1  0  0  0  0
  1  9  1  0  0  0  0
  2 10  1  0  0  0  0
  8 10  2  0  0  0  0
  7 11  2  0  0  0  0
 12 14  2  0  0  0  0
 11 12  1  0  0  0  0
  6 13  2  0  0  0  0
 13 14  1  0  0  0  0
  5 15  1  0  0  0  0
  9 16  2  0  0  0  0
 11 17  1  0  0  0  0
 14 18  1  0  0  0  0
  9 19  1  0  0  0  0
 16 20  1  0  0  0  0
 15 21  2  0  0  0  0
 15 22  1  0  0  0  0
 16 23  1  0  0  0  0
 23 28  2  0  0  0  0
 20 24  1  0  0  0  0
 19 25  2  0  0  0  0
 22 26  2  0  0  0  0
 21 27  1  0  0  0  0
 27 29  2  0  0  0  0
 25 28  1  0  0  0  0
 26 29  1  0  0  0  0
M  END
> <IDNUMBER>
C350-0435

> <available>
51

> <H_acceptor>
2

> <H_donor>
0

> <B_rotN>
3

> <N_O>
3

> <logP>
6.0774

> <logD>
6.0774

> <logSw>
-5.7486

> <PSA>
23.1794

> <pKa_ma>
25.3659

> <pKa_mb>
2.2647

> <N_Chirals>
0

> <Name>
1-(2-ethylphenyl)-6,8-difluoro-3-phenyl-1H-pyrazolo[4,3-c]quinoline

> <Smile>
CCc(cccc1)c1-n(c1c(cc(cc2F)F)c2ncc11)nc1-c1ccccc1

> <Color>
NOT COLORED

> <Collection>
DC

> <InChI>
InChI=1S/C24H17F2N3/c1-2-15-8-6-7-11-21(15)29-24-18-12-17(25)13-20(26)23(18)27-14-19(24)22(28-29)16-9-4-3-5-10-16/h3-14H,2H2,1H3

> <InChI Key>
RRHZGUQZWQGPAY-UHFFFAOYSA-N

> <PERCENTSP3>
8.3

> <Link>
https://www.chemdiv.com/catalog/screening-compounds/compound-C350-0435/

> <MFCDNUMBER>
MFCD14750407

> <CLNUMBER>
CL4130

> <STEREO>
ACHIRAL

> <State>
Solid

> <Similarity score>
0.21

$$$$
4-{3-[(2,5-dimethylphenyl)methyl]-1,3-diazinan-1-yl}-3-(4-fluorophenyl)[1,2]oxaz
  -OEChem-04222410502D

 31 35  0     0  0  0  0  0  0999 V2000
   -1.9318   -1.3756    0.0000 C   0  0  0  0  0  0  0  0  0  0  0  0
   -1.0647   -0.8745    0.0000 C   0  0  0  0  0  0  0  0  0  0  0  0
   -0.4735    0.1630    0.0000 N   0  0  0  0  0  0  0  0  0  0  0  0
   -3.4655   -1.8716    0.0000 N   0  0  0  0  0  0  0  0  0  0  0  0
   -2.8792   -1.0598    0.0000 C   0  0  0  0  0  0  0  0  0  0  0  0
   -1.9318   -2.3679    0.0000 C   0  0  0  0  0  0  0  0  0  0  0  0
   -2.8792   -2.6787    0.0000 O   0  0  0  0  0  0  0  0  0  0  0  0
    0.3085    0.7793    0.0000 C   0  0  0  0  0  0  0  0  0  0  0  0
    0.1680    1.7564    0.0000 N   0  0  0  0  0  0  0  0  0  0  0  0
   -0.2030   -1.3756    0.0000 N   0  0  0  0  0  0  0  0  0  0  0  0
   -1.0647   -2.8640    0.0000 N   0  0  0  0  0  0  0  0  0  0  0  0
    1.8716    2.0072    0.0000 C   0  0  0  0  0  0  0  0  0  0  0  0
    0.9549    2.3732    0.0000 C   0  0  0  0  0  0  0  0  0  0  0  0
   -3.1344   -0.0976    0.0000 C   0  0  0  0  0  0  0  0  0  0  0  0
   -0.2030   -2.3679    0.0000 C   0  0  0  0  0  0  0  0  0  0  0  0
    2.0223    1.0297    0.0000 C   0  0  0  0  0  0  0  0  0  0  0  0
    2.6536    2.6235    0.0000 C   0  0  0  0  0  0  0  0  0  0  0  0
   -1.3908    0.5237    0.0000 C   0  0  0  0  0  0  0  0  0  0  0  0
   -2.4733    0.5090    0.0000 C   0  0  0  0  0  0  0  0  0  0  0  0
   -4.0966    0.1478    0.0000 C   0  0  0  0  0  0  0  0  0  0  0  0
    2.9343    0.6592    0.0000 C   0  0  0  0  0  0  0  0  0  0  0  0
   -1.5259    1.5110    0.0000 C   0  0  0  0  0  0  0  0  0  0  0  0
    3.5858    2.2475    0.0000 C   0  0  0  0  0  0  0  0  0  0  0  0
   -3.6660    1.8170    0.0000 C   0  0  0  0  0  0  0  0  0  0  0  0
   -0.7493    2.1274    0.0000 C   0  0  0  0  0  0  0  0  0  0  0  0
   -2.6985    1.5559    0.0000 C   0  0  0  0  0  0  0  0  0  0  0  0
   -4.3676    1.1100    0.0000 C   0  0  0  0  0  0  0  0  0  0  0  0
    3.7163    1.2706    0.0000 C   0  0  0  0  0  0  0  0  0  0  0  0
   -3.9464    2.7891    0.0000 F   0  0  0  0  0  0  0  0  0  0  0  0
    1.2504    0.4134    0.0000 C   0  0  0  0  0  0  0  0  0  0  0  0
    4.3676    2.8640    0.0000 C   0  0  0  0  0  0  0  0  0  0  0  0
  1  2  1  0  0  0  0
  2  3  1  0  0  0  0
  4  5  2  0  0  0  0
  1  5  1  0  0  0  0
  1  6  2  0  0  0  0
  6  7  1  0  0  0  0
  4  7  1  0  0  0  0
  3  8  1  0  0  0  0
  8  9  1  0  0  0  0
  9 25  1  0  0  0  0
  2 10  2  0  0  0  0
  6 11  1  0  0  0  0
 12 13  1  0  0  0  0
  9 13  1  0  0  0  0
  5 14  1  0  0  0  0
 11 15  2  0  0  0  0
 10 15  1  0  0  0  0
 12 16  2  0  0  0  0
 12 17  1  0  0  0  0
  3 18  1  0  0  0  0
 14 19  2  0  0  0  0
 14 20  1  0  0  0  0
 16 21  1  0  0  0  0
 21 28  2  0  0  0  0
 18 22  1  0  0  0  0
 17 23  2  0  0  0  0
 24 27  1  0  0  0  0
 24 26  2  0  0  0  0
 22 25  1  0  0  0  0
 19 26  1  0  0  0  0
 20 27  2  0  0  0  0
 23 28  1  0  0  0  0
 24 29  1  0  0  0  0
 16 30  1  0  0  0  0
 23 31  1  0  0  0  0
M  END
> <IDNUMBER>
E899-0293

> <available>
45

> <H_acceptor>
5

> <H_donor>
0

> <B_rotN>
4

> <N_O>
6

> <logP>
5.4401

> <logD>
5.4398

> <logSw>
-5.5943

> <PSA>
49.815

> <pKa_ma>
21.573

> <pKa_mb>
4.2371

> <N_Chirals>
0

> <Name>
4-{3-[(2,5-dimethylphenyl)methyl]-1,3-diazinan-1-yl}-3-(4-fluorophenyl)[1,2]oxazolo[5,4-d]pyrimidine

> <Smile>
Cc1cc(CN(CCC2)CN2c2c(c(-c(cc3)ccc3F)no3)c3ncn2)c(C)cc1

> <Color>
NOT COLORED

> <Collection>
DC

> <InChI>
InChI=1S/C24H24FN5O/c1-16-4-5-17(2)19(12-16)13-29-10-3-11-30(15-29)23-21-22(18-6-8-20(25)9-7-18)28-31-24(21)27-14-26-23/h4-9,12,14H,3,10-11,13,15H2,1-2H3

> <InChI Key>
UJVFZMGEFNADLZ-UHFFFAOYSA-N

> <PERCENTSP3>
29.2

> <Link>
https://www.chemdiv.com/catalog/screening-compounds/compound-E899-0293/

> <MFCDNUMBER>
MFCD14926751

> <CLNUMBER>
CL5509

> <STEREO>
ACHIRAL

> <State>
Solid

> <Similarity score>
0.21

$$$$
3-(4-ethoxyphenyl)-6,8-difluoro-1-phenyl-1H-pyrazolo[4,3-c]quinoline
  -OEChem-04222410502D

 30 34  0     0  0  0  0  0  0999 V2000
   -1.1698    0.7487    0.0000 N   0  0  0  0  0  0  0  0  0  0  0  0
   -0.5056   -0.7314    0.0000 C   0  0  0  0  0  0  0  0  0  0  0  0
   -1.3809   -0.2283    0.0000 C   0  0  0  0  0  0  0  0  0  0  0  0
   -0.1681    0.8393    0.0000 N   0  0  0  0  0  0  0  0  0  0  0  0
    0.2555   -0.0517    0.0000 C   0  0  0  0  0  0  0  0  0  0  0  0
   -2.2672   -0.7314    0.0000 C   0  0  0  0  0  0  0  0  0  0  0  0
   -2.2672   -1.7239    0.0000 C   0  0  0  0  0  0  0  0  0  0  0  0
   -1.3809   -2.2115    0.0000 N   0  0  0  0  0  0  0  0  0  0  0  0
   -0.5056   -1.7239    0.0000 C   0  0  0  0  0  0  0  0  0  0  0  0
   -3.1280   -2.2115    0.0000 C   0  0  0  0  0  0  0  0  0  0  0  0
   -4.0034   -1.7239    0.0000 C   0  0  0  0  0  0  0  0  0  0  0  0
    1.2621   -0.1532    0.0000 C   0  0  0  0  0  0  0  0  0  0  0  0
   -1.7997    1.5190    0.0000 C   0  0  0  0  0  0  0  0  0  0  0  0
   -3.1280   -0.2283    0.0000 C   0  0  0  0  0  0  0  0  0  0  0  0
   -4.0034   -0.7314    0.0000 C   0  0  0  0  0  0  0  0  0  0  0  0
    1.6747   -1.0489    0.0000 C   0  0  0  0  0  0  0  0  0  0  0  0
    1.8420    0.6626    0.0000 C   0  0  0  0  0  0  0  0  0  0  0  0
   -3.1280   -3.2086    0.0000 F   0  0  0  0  0  0  0  0  0  0  0  0
   -4.8629   -0.2330    0.0000 F   0  0  0  0  0  0  0  0  0  0  0  0
    3.2859   -0.3343    0.0000 C   0  0  0  0  0  0  0  0  0  0  0  0
    2.8530    0.5814    0.0000 C   0  0  0  0  0  0  0  0  0  0  0  0
    2.6826   -1.1549    0.0000 C   0  0  0  0  0  0  0  0  0  0  0  0
    4.2877   -0.4299    0.0000 O   0  0  0  0  0  0  0  0  0  0  0  0
   -1.4371    2.4381    0.0000 C   0  0  0  0  0  0  0  0  0  0  0  0
   -2.7656    1.3517    0.0000 C   0  0  0  0  0  0  0  0  0  0  0  0
    4.8629    0.3860    0.0000 C   0  0  0  0  0  0  0  0  0  0  0  0
    4.4550    1.2926    0.0000 C   0  0  0  0  0  0  0  0  0  0  0  0
   -3.3891    2.1208    0.0000 C   0  0  0  0  0  0  0  0  0  0  0  0
   -2.0702    3.2086    0.0000 C   0  0  0  0  0  0  0  0  0  0  0  0
   -3.0375    3.0477    0.0000 C   0  0  0  0  0  0  0  0  0  0  0  0
  2  3  2  0  0  0  0
  2  5  1  0  0  0  0
  1  3  1  0  0  0  0
  1  4  1  0  0  0  0
  4  5  2  0  0  0  0
  3  6  1  0  0  0  0
  6  7  1  0  0  0  0
  7  8  1  0  0  0  0
  8  9  2  0  0  0  0
  2  9  1  0  0  0  0
  7 10  2  0  0  0  0
 11 15  2  0  0  0  0
 10 11  1  0  0  0  0
  5 12  1  0  0  0  0
  1 13  1  0  0  0  0
  6 14  2  0  0  0  0
 14 15  1  0  0  0  0
 12 16  2  0  0  0  0
 12 17  1  0  0  0  0
 10 18  1  0  0  0  0
 15 19  1  0  0  0  0
 20 21  1  0  0  0  0
 17 21  2  0  0  0  0
 16 22  1  0  0  0  0
 20 22  2  0  0  0  0
 20 23  1  0  0  0  0
 13 24  2  0  0  0  0
 13 25  1  0  0  0  0
 23 26  1  0  0  0  0
 26 27  1  0  0  0  0
 25 28  2  0  0  0  0
 24 29  1  0  0  0  0
 29 30  2  0  0  0  0
 28 30  1  0  0  0  0
M  END
> <IDNUMBER>
C350-0808

> <available>
138

> <H_acceptor>
3

> <H_donor>
0

> <B_rotN>
4

> <N_O>
4

> <logP>
5.6741

> <logD>
5.6741

> <logSw>
-5.6084

> <PSA>
30.6039

> <pKa_ma>
29.8521

> <pKa_mb>
2.2647

> <N_Chirals>
0

> <Name>
3-(4-ethoxyphenyl)-6,8-difluoro-1-phenyl-1H-pyrazolo[4,3-c]quinoline

> <Smile>
CCOc(cc1)ccc1-c(c1cnc2c(F)cc(F)cc2c11)nn1-c1ccccc1

> <Color>
NOT COLORED

> <Collection>
DC

> <InChI>
InChI=1S/C24H17F2N3O/c1-2-30-18-10-8-15(9-11-18)22-20-14-27-23-19(12-16(25)13-21(23)26)24(20)29(28-22)17-6-4-3-5-7-17/h3-14H,2H2,1H3

> <InChI Key>
GGTGWRSYPRCJAS-UHFFFAOYSA-N

> <PERCENTSP3>
8.3

> <Link>
https://www.chemdiv.com/catalog/screening-compounds/compound-C350-0808/

> <MFCDNUMBER>
MFCD14750682

> <CLNUMBER>
CL4130

> <STEREO>
ACHIRAL

> <State>
Solid

> <Similarity score>
0.21

$$$$
4-(3,4-dihydroisoquinolin-2(1H)-yl)-2-(4-methoxyphenyl)quinazoline
  -OEChem-04222410502D

 28 32  0     0  0  0  0  0  0999 V2000
   -0.8623    0.0151    0.0000 C   0  0  0  0  0  0  0  0  0  0  0  0
    0.0100   -0.4761    0.0000 N   0  0  0  0  0  0  0  0  0  0  0  0
   -0.8623    1.0273    0.0000 N   0  0  0  0  0  0  0  0  0  0  0  0
    0.0100   -1.4887    0.0000 C   0  0  0  0  0  0  0  0  0  0  0  0
   -1.7240   -0.4761    0.0000 C   0  0  0  0  0  0  0  0  0  0  0  0
   -0.8623   -1.9797    0.0000 N   0  0  0  0  0  0  0  0  0  0  0  0
   -1.7240   -1.4887    0.0000 C   0  0  0  0  0  0  0  0  0  0  0  0
   -1.7343    1.5387    0.0000 C   0  0  0  0  0  0  0  0  0  0  0  0
   -1.7343    2.5308    0.0000 C   0  0  0  0  0  0  0  0  0  0  0  0
    0.8620   -1.9797    0.0000 C   0  0  0  0  0  0  0  0  0  0  0  0
   -0.0100    1.5387    0.0000 C   0  0  0  0  0  0  0  0  0  0  0  0
   -0.8821    3.0420    0.0000 C   0  0  0  0  0  0  0  0  0  0  0  0
   -0.0100    2.5308    0.0000 C   0  0  0  0  0  0  0  0  0  0  0  0
    0.8620   -2.9920    0.0000 C   0  0  0  0  0  0  0  0  0  0  0  0
    1.7340   -1.4887    0.0000 C   0  0  0  0  0  0  0  0  0  0  0  0
    2.5960   -2.9920    0.0000 C   0  0  0  0  0  0  0  0  0  0  0  0
    2.6060   -1.9797    0.0000 C   0  0  0  0  0  0  0  0  0  0  0  0
    1.7240   -3.4833    0.0000 C   0  0  0  0  0  0  0  0  0  0  0  0
   -2.5960    0.0151    0.0000 C   0  0  0  0  0  0  0  0  0  0  0  0
    3.4682   -3.5034    0.0000 O   0  0  0  0  0  0  0  0  0  0  0  0
   -2.5960   -1.9797    0.0000 C   0  0  0  0  0  0  0  0  0  0  0  0
   -2.6065    3.0420    0.0000 C   0  0  0  0  0  0  0  0  0  0  0  0
   -0.8821    4.0247    0.0000 C   0  0  0  0  0  0  0  0  0  0  0  0
    3.4481   -4.5058    0.0000 C   0  0  0  0  0  0  0  0  0  0  0  0
   -3.4682   -0.4761    0.0000 C   0  0  0  0  0  0  0  0  0  0  0  0
   -3.4682   -1.4887    0.0000 C   0  0  0  0  0  0  0  0  0  0  0  0
   -2.6065    4.0247    0.0000 C   0  0  0  0  0  0  0  0  0  0  0  0
   -1.7542    4.5058    0.0000 C   0  0  0  0  0  0  0  0  0  0  0  0
  1  2  2  0  0  0  0
  1  3  1  0  0  0  0
  2  4  1  0  0  0  0
  1  5  1  0  0  0  0
  6  7  1  0  0  0  0
  4  6  2  0  0  0  0
  5  7  1  0  0  0  0
  3  8  1  0  0  0  0
  8  9  1  0  0  0  0
  9 12  1  0  0  0  0
  4 10  1  0  0  0  0
  3 11  1  0  0  0  0
 12 13  1  0  0  0  0
 11 13  1  0  0  0  0
 10 14  2  0  0  0  0
 10 15  1  0  0  0  0
 16 17  1  0  0  0  0
 16 18  2  0  0  0  0
 15 17  2  0  0  0  0
 14 18  1  0  0  0  0
  5 19  2  0  0  0  0
 16 20  1  0  0  0  0
  7 21  2  0  0  0  0
 21 26  1  0  0  0  0
  9 22  2  0  0  0  0
 12 23  2  0  0  0  0
 20 24  1  0  0  0  0
 19 25  1  0  0  0  0
 25 26  2  0  0  0  0
 22 27  1  0  0  0  0
 27 28  2  0  0  0  0
 23 28  1  0  0  0  0
M  END
> <IDNUMBER>
G516-0226

> <available>
163

> <H_acceptor>
3

> <H_donor>
0

> <B_rotN>
3

> <N_O>
4

> <logP>
6.2703

> <logD>
5.8127

> <logSw>
-5.9873

> <PSA>
28.8441

> <pKa_ma>
18.8389

> <pKa_mb>
7.6714

> <N_Chirals>
0

> <Name>
4-(3,4-dihydroisoquinolin-2(1H)-yl)-2-(4-methoxyphenyl)quinazoline

> <Smile>
COc(cc1)ccc1-c1nc2ccccc2c(N(CC2)Cc3c2cccc3)n1

> <Color>
YELLOW

> <Collection>
NC

> <InChI>
InChI=1S/C24H21N3O/c1-28-20-12-10-18(11-13-20)23-25-22-9-5-4-8-21(22)24(26-23)27-15-14-17-6-2-3-7-19(17)16-27/h2-13H,14-16H2,1H3

> <InChI Key>
ZELTZOXBTJQBOA-UHFFFAOYSA-N

> <PERCENTSP3>
16.7

> <Link>
https://www.chemdiv.com/catalog/screening-compounds/compound-G516-0226/

> <MFCDNUMBER>
MFCD15015062

> <CLNUMBER>
CL2243

> <STEREO>
ACHIRAL

> <State>
Solid

> <Similarity score>
0.21

$$$$
2-[2-amino-5-(4-chlorophenyl)pyrimidin-4-yl]-5-[(2-chloro-6-fluorophenyl)methoxy
  -OEChem-04222410502D

 31 34  0     0  0  0  0  0  0999 V2000
    2.5934   -0.9978    0.0000 C   0  0  0  0  0  0  0  0  0  0  0  0
    1.7311   -0.5019    0.0000 C   0  0  0  0  0  0  0  0  0  0  0  0
    3.4559   -0.4977    0.0000 C   0  0  0  0  0  0  0  0  0  0  0  0
    2.5934   -2.0019    0.0000 N   0  0  0  0  0  0  0  0  0  0  0  0
   -2.5976    0.9978    0.0000 C   0  0  0  0  0  0  0  0  0  0  0  0
    3.4599   -2.4975    0.0000 C   0  0  0  0  0  0  0  0  0  0  0  0
    0.8562   -1.0020    0.0000 C   0  0  0  0  0  0  0  0  0  0  0  0
    4.3224   -1.9977    0.0000 N   0  0  0  0  0  0  0  0  0  0  0  0
    4.3183   -0.9852    0.0000 C   0  0  0  0  0  0  0  0  0  0  0  0
   -1.7350    0.4977    0.0000 C   0  0  0  0  0  0  0  0  0  0  0  0
    1.7311    0.5019    0.0000 C   0  0  0  0  0  0  0  0  0  0  0  0
   -0.0061   -0.5019    0.0000 C   0  0  0  0  0  0  0  0  0  0  0  0
    3.4475    0.4977    0.0000 C   0  0  0  0  0  0  0  0  0  0  0  0
   -2.5976    2.0019    0.0000 C   0  0  0  0  0  0  0  0  0  0  0  0
   -3.4599    0.4977    0.0000 C   0  0  0  0  0  0  0  0  0  0  0  0
   -0.8728    0.9978    0.0000 O   0  0  0  0  0  0  0  0  0  0  0  0
   -0.0061    0.5019    0.0000 C   0  0  0  0  0  0  0  0  0  0  0  0
    2.5810    0.9852    0.0000 C   0  0  0  0  0  0  0  0  0  0  0  0
    4.3098    0.9978    0.0000 C   0  0  0  0  0  0  0  0  0  0  0  0
    3.4599   -3.4975    0.0000 N   0  0  0  0  0  0  0  0  0  0  0  0
    0.8562    1.0020    0.0000 C   0  0  0  0  0  0  0  0  0  0  0  0
    0.8562   -2.0019    0.0000 O   0  0  0  0  0  0  0  0  0  0  0  0
    3.4391    2.4975    0.0000 C   0  0  0  0  0  0  0  0  0  0  0  0
   -3.4599   -0.5019    0.0000 Cl  0  0  0  0  0  0  0  0  0  0  0  0
   -1.7227    2.5018    0.0000 F   0  0  0  0  0  0  0  0  0  0  0  0
    2.5684    1.9850    0.0000 C   0  0  0  0  0  0  0  0  0  0  0  0
    4.3098    1.9977    0.0000 C   0  0  0  0  0  0  0  0  0  0  0  0
    3.4309    3.4975    0.0000 Cl  0  0  0  0  0  0  0  0  0  0  0  0
   -4.3224    1.9977    0.0000 C   0  0  0  0  0  0  0  0  0  0  0  0
   -3.4599    2.4975    0.0000 C   0  0  0  0  0  0  0  0  0  0  0  0
   -4.3224    0.9978    0.0000 C   0  0  0  0  0  0  0  0  0  0  0  0
  1  2  1  0  0  0  0
  1  3  1  0  0  0  0
  1  4  2  0  0  0  0
  5 10  1  0  0  0  0
  4  6  1  0  0  0  0
  2  7  2  0  0  0  0
  6  8  2  0  0  0  0
  3  9  2  0  0  0  0
  8  9  1  0  0  0  0
 10 16  1  0  0  0  0
  2 11  1  0  0  0  0
  7 12  1  0  0  0  0
  3 13  1  0  0  0  0
  5 14  2  0  0  0  0
  5 15  1  0  0  0  0
 16 17  1  0  0  0  0
 17 21  1  0  0  0  0
 12 17  2  0  0  0  0
 13 18  1  0  0  0  0
 13 19  2  0  0  0  0
  6 20  1  0  0  0  0
 11 21  2  0  0  0  0
  7 22  1  0  0  0  0
 23 27  2  0  0  0  0
 15 24  1  0  0  0  0
 14 25  1  0  0  0  0
 18 26  2  0  0  0  0
 23 26  1  0  0  0  0
 19 27  1  0  0  0  0
 23 28  1  0  0  0  0
 29 31  1  0  0  0  0
 14 30  1  0  0  0  0
 29 30  2  0  0  0  0
 15 31  2  0  0  0  0
M  END
> <IDNUMBER>
Y041-2571

> <available>
29

> <H_acceptor>
4

> <H_donor>
3

> <B_rotN>
5

> <N_O>
5

> <logP>
6.3596

> <logD>
6.3581

> <logSw>
-6.0181

> <PSA>
63.8

> <pKa_ma>
9.88

> <pKa_mb>
3.0878

> <N_Chirals>
0

> <Name>
2-[2-amino-5-(4-chlorophenyl)pyrimidin-4-yl]-5-[(2-chloro-6-fluorophenyl)methoxy]phenol

> <Smile>
Nc1ncc(-c(cc2)ccc2Cl)c(-c(ccc(OCc(c(F)ccc2)c2Cl)c2)c2O)n1

> <Color>
YELLOW

> <Collection>
DC

> <InChI>
InChI=1S/C23H16Cl2FN3O2/c24-14-6-4-13(5-7-14)17-11-28-23(27)29-22(17)16-9-8-15(10-21(16)30)31-12-18-19(25)2-1-3-20(18)26/h1-11,30H,12H2,(H2,27,28,29)

> <InChI Key>
BNJGCPRQADMLBC-UHFFFAOYSA-N

> <PERCENTSP3>
4.3

> <Link>
https://www.chemdiv.com/catalog/screening-compounds/compound-Y041-2571/

> <MFCDNUMBER>
MFCD06609866

> <STEREO>
ACHIRAL

> <State>
Solid

> <Similarity score>
0.21

$$$$
3-(4-ethoxyphenyl)-8-fluoro-1H-pyrazolo[4,3-c]quinoline
  -OEChem-04222410502D

 23 26  0     0  0  0  0  0  0999 V2000
   -0.4887   -0.0405    0.0000 C   0  0  0  0  0  0  0  0  0  0  0  0
   -0.1412    1.5464    0.0000 N   0  0  0  0  0  0  0  0  0  0  0  0
   -1.3551    0.4735    0.0000 C   0  0  0  0  0  0  0  0  0  0  0  0
   -1.1384    1.4558    0.0000 N   0  0  0  0  0  0  0  0  0  0  0  0
    0.2619    0.6298    0.0000 C   0  0  0  0  0  0  0  0  0  0  0  0
   -2.2265   -0.0405    0.0000 C   0  0  0  0  0  0  0  0  0  0  0  0
   -0.4887   -1.0479    0.0000 C   0  0  0  0  0  0  0  0  0  0  0  0
   -1.3652   -1.5464    0.0000 N   0  0  0  0  0  0  0  0  0  0  0  0
   -2.2265   -1.0479    0.0000 C   0  0  0  0  0  0  0  0  0  0  0  0
    1.2344    0.4181    0.0000 C   0  0  0  0  0  0  0  0  0  0  0  0
   -3.0880    0.4583    0.0000 C   0  0  0  0  0  0  0  0  0  0  0  0
    1.5315   -0.5341    0.0000 C   0  0  0  0  0  0  0  0  0  0  0  0
    1.8993    1.1536    0.0000 C   0  0  0  0  0  0  0  0  0  0  0  0
   -3.0880   -1.5364    0.0000 C   0  0  0  0  0  0  0  0  0  0  0  0
   -3.9645   -0.0254    0.0000 C   0  0  0  0  0  0  0  0  0  0  0  0
    3.1786   -0.0051    0.0000 C   0  0  0  0  0  0  0  0  0  0  0  0
   -3.9645   -1.0329    0.0000 C   0  0  0  0  0  0  0  0  0  0  0  0
    2.8665    0.9471    0.0000 C   0  0  0  0  0  0  0  0  0  0  0  0
    2.5037   -0.7454    0.0000 C   0  0  0  0  0  0  0  0  0  0  0  0
   -4.8159    0.4735    0.0000 F   0  0  0  0  0  0  0  0  0  0  0  0
    4.1460   -0.2164    0.0000 O   0  0  0  0  0  0  0  0  0  0  0  0
    4.8159    0.5188    0.0000 C   0  0  0  0  0  0  0  0  0  0  0  0
    4.5137    1.4710    0.0000 C   0  0  0  0  0  0  0  0  0  0  0  0
  2  5  2  0  0  0  0
  1  3  2  0  0  0  0
  3  4  1  0  0  0  0
  2  4  1  0  0  0  0
  1  5  1  0  0  0  0
  3  6  1  0  0  0  0
  1  7  1  0  0  0  0
  7  8  2  0  0  0  0
  8  9  1  0  0  0  0
  6  9  1  0  0  0  0
  5 10  1  0  0  0  0
  6 11  2  0  0  0  0
 10 12  2  0  0  0  0
 10 13  1  0  0  0  0
  9 14  2  0  0  0  0
 11 15  1  0  0  0  0
 15 17  2  0  0  0  0
 16 18  1  0  0  0  0
 16 19  2  0  0  0  0
 14 17  1  0  0  0  0
 13 18  2  0  0  0  0
 12 19  1  0  0  0  0
 15 20  1  0  0  0  0
 16 21  1  0  0  0  0
 21 22  1  0  0  0  0
 22 23  1  0  0  0  0
M  END
> <IDNUMBER>
C200-5249

> <available>
1

> <H_acceptor>
3

> <H_donor>
1

> <B_rotN>
3

> <N_O>
4

> <logP>
4.2532

> <logD>
4.2522

> <logSw>
-4.077

> <PSA>
39.96

> <pKa_ma>
14.1885

> <pKa_mb>
4.7765

> <N_Chirals>
0

> <Name>
3-(4-ethoxyphenyl)-8-fluoro-1H-pyrazolo[4,3-c]quinoline

> <Smile>
CCOc(cc1)ccc1-c1n[nH]c2c(cc(cc3)F)c3ncc12

> <Color>
YELLOW

> <Collection>
NC

> <InChI>
InChI=1S/C18H14FN3O/c1-2-23-13-6-3-11(4-7-13)17-15-10-20-16-8-5-12(19)9-14(16)18(15)22-21-17/h3-10H,2H2,1H3,(H,21,22)

> <InChI Key>
FLVKOJOMRKNKBG-UHFFFAOYSA-N

> <PERCENTSP3>
11.1

> <Link>
https://www.chemdiv.com/catalog/screening-compounds/compound-C200-5249/

> <MFCDNUMBER>
MFCD14727818

> <CLNUMBER>
CL4130

> <STEREO>
ACHIRAL

> <State>
Solid

> <Similarity score>
0.21

$$$$
2-(2-amino-6-methyl-5-phenylpyrimidin-4-yl)-5-[(2-chloro-6-fluorophenyl)methoxy]
  -OEChem-04222410502D

 31 34  0     0  0  0  0  0  0999 V2000
    2.1641   -0.5103    0.0000 C   0  0  0  0  0  0  0  0  0  0  0  0
    3.0264    0.0019    0.0000 C   0  0  0  0  0  0  0  0  0  0  0  0
    1.3018   -0.0105    0.0000 C   0  0  0  0  0  0  0  0  0  0  0  0
    2.1641   -1.5101    0.0000 N   0  0  0  0  0  0  0  0  0  0  0  0
    3.8885   -0.4978    0.0000 C   0  0  0  0  0  0  0  0  0  0  0  0
    3.8885   -1.4976    0.0000 N   0  0  0  0  0  0  0  0  0  0  0  0
    3.0264   -1.9975    0.0000 C   0  0  0  0  0  0  0  0  0  0  0  0
   -3.0264    1.4891    0.0000 C   0  0  0  0  0  0  0  0  0  0  0  0
    0.4352   -0.5103    0.0000 C   0  0  0  0  0  0  0  0  0  0  0  0
   -2.1641    0.9892    0.0000 C   0  0  0  0  0  0  0  0  0  0  0  0
    1.3018    0.9976    0.0000 C   0  0  0  0  0  0  0  0  0  0  0  0
   -0.4270   -0.0105    0.0000 C   0  0  0  0  0  0  0  0  0  0  0  0
   -3.0181    2.4972    0.0000 C   0  0  0  0  0  0  0  0  0  0  0  0
   -3.8804    0.9892    0.0000 C   0  0  0  0  0  0  0  0  0  0  0  0
    3.0098    0.9892    0.0000 C   0  0  0  0  0  0  0  0  0  0  0  0
   -1.2935    1.4891    0.0000 O   0  0  0  0  0  0  0  0  0  0  0  0
    3.0264   -2.9973    0.0000 N   0  0  0  0  0  0  0  0  0  0  0  0
   -0.4270    0.9892    0.0000 C   0  0  0  0  0  0  0  0  0  0  0  0
    0.4352    1.4975    0.0000 C   0  0  0  0  0  0  0  0  0  0  0  0
    0.4352   -1.5101    0.0000 O   0  0  0  0  0  0  0  0  0  0  0  0
   -3.8804   -0.0105    0.0000 Cl  0  0  0  0  0  0  0  0  0  0  0  0
   -2.1473    2.9973    0.0000 F   0  0  0  0  0  0  0  0  0  0  0  0
    4.7510    0.0062    0.0000 C   0  0  0  0  0  0  0  0  0  0  0  0
   -4.7510    2.4889    0.0000 C   0  0  0  0  0  0  0  0  0  0  0  0
   -4.7510    1.4808    0.0000 C   0  0  0  0  0  0  0  0  0  0  0  0
   -3.8887    2.9973    0.0000 C   0  0  0  0  0  0  0  0  0  0  0  0
    2.1473    1.4808    0.0000 C   0  0  0  0  0  0  0  0  0  0  0  0
    3.8844    1.4891    0.0000 C   0  0  0  0  0  0  0  0  0  0  0  0
    3.8721    2.4889    0.0000 C   0  0  0  0  0  0  0  0  0  0  0  0
    2.1433    2.4806    0.0000 C   0  0  0  0  0  0  0  0  0  0  0  0
    3.0098    2.9973    0.0000 C   0  0  0  0  0  0  0  0  0  0  0  0
  1  2  1  0  0  0  0
  1  3  1  0  0  0  0
  1  4  2  0  0  0  0
  2  5  2  0  0  0  0
  6  7  2  0  0  0  0
  5  6  1  0  0  0  0
  4  7  1  0  0  0  0
  8 10  1  0  0  0  0
  3  9  2  0  0  0  0
 10 16  1  0  0  0  0
  3 11  1  0  0  0  0
  9 12  1  0  0  0  0
 12 18  2  0  0  0  0
  8 13  2  0  0  0  0
  8 14  1  0  0  0  0
  2 15  1  0  0  0  0
 16 18  1  0  0  0  0
  7 17  1  0  0  0  0
 18 19  1  0  0  0  0
 11 19  2  0  0  0  0
  9 20  1  0  0  0  0
 14 21  1  0  0  0  0
 13 22  1  0  0  0  0
  5 23  1  0  0  0  0
 24 25  1  0  0  0  0
 14 25  2  0  0  0  0
 13 26  1  0  0  0  0
 24 26  2  0  0  0  0
 15 27  1  0  0  0  0
 15 28  2  0  0  0  0
 28 29  1  0  0  0  0
 27 30  2  0  0  0  0
 30 31  1  0  0  0  0
 29 31  2  0  0  0  0
M  END
> <IDNUMBER>
Y041-2620

> <available>
26

> <H_acceptor>
4

> <H_donor>
3

> <B_rotN>
5

> <N_O>
5

> <logP>
5.9409

> <logD>
5.9398

> <logSw>
-5.7278

> <PSA>
63.856

> <pKa_ma>
10.081

> <pKa_mb>
4.0103

> <N_Chirals>
0

> <Name>
2-(2-amino-6-methyl-5-phenylpyrimidin-4-yl)-5-[(2-chloro-6-fluorophenyl)methoxy]phenol

> <Smile>
Cc1c(-c2ccccc2)c(-c(ccc(OCc(c(F)ccc2)c2Cl)c2)c2O)nc(N)n1

> <Color>
BROWN

> <Collection>
DC

> <InChI>
InChI=1S/C24H19ClFN3O2/c1-14-22(15-6-3-2-4-7-15)23(29-24(27)28-14)17-11-10-16(12-21(17)30)31-13-18-19(25)8-5-9-20(18)26/h2-12,30H,13H2,1H3,(H2,27,28,29)

> <InChI Key>
YTQQFAQJHXYOKS-UHFFFAOYSA-N

> <PERCENTSP3>
8.3

> <Link>
https://www.chemdiv.com/catalog/screening-compounds/compound-Y041-2620/

> <MFCDNUMBER>
MFCD06597187

> <STEREO>
ACHIRAL

> <State>
Solid

> <Similarity score>
0.21

$$$$
2-(3,4-dihydroisoquinolin-2(1H)-yl)-5-(3,4-dimethoxyphenyl)pyrido[2,3-d]pyrimidi
  -OEChem-04222410502D

 31 35  0     0  0  0  0  0  0999 V2000
   -0.4271    2.0020    0.0000 C   0  0  0  0  0  0  0  0  0  0  0  0
   -1.2812    2.5187    0.0000 N   0  0  0  0  0  0  0  0  0  0  0  0
   -0.4396    0.9978    0.0000 N   0  0  0  0  0  0  0  0  0  0  0  0
   -1.3104    0.5145    0.0000 C   0  0  0  0  0  0  0  0  0  0  0  0
   -2.1520    2.0312    0.0000 C   0  0  0  0  0  0  0  0  0  0  0  0
   -2.1645    1.0271    0.0000 C   0  0  0  0  0  0  0  0  0  0  0  0
    0.4479    2.4854    0.0000 N   0  0  0  0  0  0  0  0  0  0  0  0
   -3.0310    0.5396    0.0000 C   0  0  0  0  0  0  0  0  0  0  0  0
   -3.0479   -0.4604    0.0000 C   0  0  0  0  0  0  0  0  0  0  0  0
    1.3063    1.9646    0.0000 C   0  0  0  0  0  0  0  0  0  0  0  0
   -3.0144    2.5394    0.0000 N   0  0  0  0  0  0  0  0  0  0  0  0
   -2.1854   -0.9604    0.0000 C   0  0  0  0  0  0  0  0  0  0  0  0
   -2.1937   -1.9646    0.0000 C   0  0  0  0  0  0  0  0  0  0  0  0
    2.1771    2.4437    0.0000 C   0  0  0  0  0  0  0  0  0  0  0  0
   -1.3229   -0.4896    0.0000 O   0  0  0  0  0  0  0  0  0  0  0  0
    0.4646    3.4810    0.0000 C   0  0  0  0  0  0  0  0  0  0  0  0
   -3.0687   -2.4645    0.0000 C   0  0  0  0  0  0  0  0  0  0  0  0
    2.2021    3.4478    0.0000 C   0  0  0  0  0  0  0  0  0  0  0  0
   -3.9187   -0.9521    0.0000 C   0  0  0  0  0  0  0  0  0  0  0  0
    1.3437    3.9646    0.0000 C   0  0  0  0  0  0  0  0  0  0  0  0
   -3.9311   -1.9563    0.0000 C   0  0  0  0  0  0  0  0  0  0  0  0
   -3.8811    2.0437    0.0000 C   0  0  0  0  0  0  0  0  0  0  0  0
   -1.3312   -2.4687    0.0000 O   0  0  0  0  0  0  0  0  0  0  0  0
   -3.8896    1.0437    0.0000 C   0  0  0  0  0  0  0  0  0  0  0  0
   -3.0729   -3.4603    0.0000 O   0  0  0  0  0  0  0  0  0  0  0  0
    3.0271    1.9186    0.0000 C   0  0  0  0  0  0  0  0  0  0  0  0
    3.0771    3.9187    0.0000 C   0  0  0  0  0  0  0  0  0  0  0  0
   -1.3354   -3.4646    0.0000 C   0  0  0  0  0  0  0  0  0  0  0  0
   -2.2104   -3.9646    0.0000 C   0  0  0  0  0  0  0  0  0  0  0  0
    3.9104    2.3978    0.0000 C   0  0  0  0  0  0  0  0  0  0  0  0
    3.9311    3.4061    0.0000 C   0  0  0  0  0  0  0  0  0  0  0  0
  1  2  2  0  0  0  0
  1  3  1  0  0  0  0
  3  4  1  0  0  0  0
  2  5  1  0  0  0  0
  5  6  2  0  0  0  0
  4  6  1  0  0  0  0
  1  7  1  0  0  0  0
  6  8  1  0  0  0  0
  8  9  1  0  0  0  0
  7 10  1  0  0  0  0
  5 11  1  0  0  0  0
  9 12  1  0  0  0  0
 12 13  2  0  0  0  0
 13 17  1  0  0  0  0
 10 14  1  0  0  0  0
  4 15  2  0  0  0  0
  7 16  1  0  0  0  0
 17 21  2  0  0  0  0
 18 20  1  0  0  0  0
 14 18  2  0  0  0  0
  9 19  2  0  0  0  0
 16 20  1  0  0  0  0
 19 21  1  0  0  0  0
 11 22  2  0  0  0  0
 13 23  1  0  0  0  0
  8 24  2  0  0  0  0
 22 24  1  0  0  0  0
 17 25  1  0  0  0  0
 14 26  1  0  0  0  0
 18 27  1  0  0  0  0
 23 28  1  0  0  0  0
 25 29  1  0  0  0  0
 26 30  2  0  0  0  0
 30 31  1  0  0  0  0
 27 31  2  0  0  0  0
M  END
> <IDNUMBER>
8020-1631

> <available>
18

> <H_acceptor>
6

> <H_donor>
1

> <B_rotN>
4

> <N_O>
7

> <logP>
3.7119

> <logD>
3.7032

> <logSw>
-4.1642

> <PSA>
62.232

> <pKa_ma>
9.205

> <pKa_mb>
5.0629

> <N_Chirals>
0

> <Name>
2-(3,4-dihydroisoquinolin-2(1H)-yl)-5-(3,4-dimethoxyphenyl)pyrido[2,3-d]pyrimidin-4(3H)-one

> <Smile>
COc(ccc(-c1ccnc(N=C(N2)N(CC3)Cc4c3cccc4)c1C2=O)c1)c1OC

> <Color>
YELLOW

> <Collection>
DC

> <InChI>
InChI=1S/C24H22N4O3/c1-30-19-8-7-16(13-20(19)31-2)18-9-11-25-22-21(18)23(29)27-24(26-22)28-12-10-15-5-3-4-6-17(15)14-28/h3-9,11,13H,10,12,14H2,1-2H3,(H,25,26,27,29)

> <InChI Key>
PUASUVPDVMYJGI-UHFFFAOYSA-N

> <PERCENTSP3>
20.8

> <Link>
https://www.chemdiv.com/catalog/screening-compounds/compound-8020-1631/

> <MFCDNUMBER>
MFCD12035337

> <STEREO>
ACHIRAL

> <State>
Solid

> <Similarity score>
0.21

$$$$
ethyl 1-[2-(4-chlorophenyl)quinazolin-4-yl]piperidine-3-carboxylate
  -OEChem-04222410502D

 28 31  0     0  0  0  0  0  0999 V2000
    0.0099   -0.2450    0.0000 C   0  0  0  0  0  0  0  0  0  0  0  0
    0.8801   -0.7354    0.0000 N   0  0  0  0  0  0  0  0  0  0  0  0
    0.0099    0.7650    0.0000 N   0  0  0  0  0  0  0  0  0  0  0  0
    0.8801   -1.7456    0.0000 C   0  0  0  0  0  0  0  0  0  0  0  0
   -0.8500   -0.7354    0.0000 C   0  0  0  0  0  0  0  0  0  0  0  0
    0.0099   -2.2359    0.0000 N   0  0  0  0  0  0  0  0  0  0  0  0
   -0.8602    2.2655    0.0000 C   0  0  3  0  0  0  0  0  0  0  0  0
   -0.8500   -1.7456    0.0000 C   0  0  0  0  0  0  0  0  0  0  0  0
   -0.8602    1.2753    0.0000 C   0  0  0  0  0  0  0  0  0  0  0  0
   -1.7307    2.7758    0.0000 C   0  0  0  0  0  0  0  0  0  0  0  0
    1.7304   -2.2359    0.0000 C   0  0  0  0  0  0  0  0  0  0  0  0
   -1.7206    3.7561    0.0000 O   0  0  0  0  0  0  0  0  0  0  0  0
    2.6007   -1.7456    0.0000 C   0  0  0  0  0  0  0  0  0  0  0  0
    1.7304   -3.2460    0.0000 C   0  0  0  0  0  0  0  0  0  0  0  0
    0.8602    1.2753    0.0000 C   0  0  0  0  0  0  0  0  0  0  0  0
    3.4609   -3.2460    0.0000 C   0  0  0  0  0  0  0  0  0  0  0  0
   -2.5907    2.2655    0.0000 O   0  0  0  0  0  0  0  0  0  0  0  0
    2.5907   -3.7364    0.0000 C   0  0  0  0  0  0  0  0  0  0  0  0
    3.4709   -2.2359    0.0000 C   0  0  0  0  0  0  0  0  0  0  0  0
   -1.7206   -0.2450    0.0000 C   0  0  0  0  0  0  0  0  0  0  0  0
    4.3314   -3.7561    0.0000 Cl  0  0  0  0  0  0  0  0  0  0  0  0
   -0.0099    2.7758    0.0000 C   0  0  0  0  0  0  0  0  0  0  0  0
    0.8602    2.2655    0.0000 C   0  0  0  0  0  0  0  0  0  0  0  0
   -1.7206   -2.2359    0.0000 C   0  0  0  0  0  0  0  0  0  0  0  0
   -3.4612    2.7758    0.0000 C   0  0  0  0  0  0  0  0  0  0  0  0
   -2.5907   -0.7354    0.0000 C   0  0  0  0  0  0  0  0  0  0  0  0
   -4.3314    2.2655    0.0000 C   0  0  0  0  0  0  0  0  0  0  0  0
   -2.5907   -1.7456    0.0000 C   0  0  0  0  0  0  0  0  0  0  0  0
  1  2  2  0  0  0  0
  1  3  1  0  0  0  0
  2  4  1  0  0  0  0
  1  5  1  0  0  0  0
  6  8  1  0  0  0  0
  4  6  2  0  0  0  0
  7  9  1  0  0  0  0
  7 22  1  0  0  0  0
  5  8  1  0  0  0  0
  3  9  1  0  0  0  0
  7 10  1  0  0  0  0
  4 11  1  0  0  0  0
 10 12  2  0  0  0  0
 11 13  1  0  0  0  0
 11 14  2  0  0  0  0
  3 15  1  0  0  0  0
 16 18  2  0  0  0  0
 10 17  1  0  0  0  0
 14 18  1  0  0  0  0
 13 19  2  0  0  0  0
 16 19  1  0  0  0  0
  5 20  2  0  0  0  0
 16 21  1  0  0  0  0
 22 23  1  0  0  0  0
 15 23  1  0  0  0  0
  8 24  2  0  0  0  0
 24 28  1  0  0  0  0
 17 25  1  0  0  0  0
 20 26  1  0  0  0  0
 25 27  1  0  0  0  0
 26 28  2  0  0  0  0
M  END
> <IDNUMBER>
G516-1283

> <available>
18

> <H_acceptor>
5

> <H_donor>
0

> <B_rotN>
5

> <N_O>
5

> <logP>
5.9305

> <logD>
5.3461

> <logSw>
-6.1377

> <PSA>
42.326

> <pKa_ma>
21.7963

> <pKa_mb>
7.8534

> <N_Chirals>
1

> <Name>
ethyl 1-[2-(4-chlorophenyl)quinazolin-4-yl]piperidine-3-carboxylate

> <Smile>
CCOC(C(CCC1)CN1c1nc(-c(cc2)ccc2Cl)nc2ccccc12)=O

> <Color>
NOT COLORED

> <Collection>
NC

> <InChI>
InChI=1S/C22H22ClN3O2/c1-2-28-22(27)16-6-5-13-26(14-16)21-18-7-3-4-8-19(18)24-20(25-21)15-9-11-17(23)12-10-15/h3-4,7-12,16H,2,5-6,13-14H2,1H3/t16-/m0/s1

> <InChI Key>
WJPBPWWHCIVCDL-INIZCTEOSA-N

> <PERCENTSP3>
31.8

> <Link>
https://www.chemdiv.com/catalog/screening-compounds/compound-G516-1283/

> <MFCDNUMBER>
MFCD15015123

> <CLNUMBER>
CL2243

> <STEREO>
RACEMIC MIXTURE

> <State>
Solid

> <Similarity score>
0.21

$$$$
8-ethoxy-3-(4-fluorophenyl)-1H-pyrazolo[4,3-c]quinoline
  -OEChem-04222410502D

 23 26  0     0  0  0  0  0  0999 V2000
    0.2717   -0.2541    0.0000 C   0  0  0  0  0  0  0  0  0  0  0  0
    0.6191    1.3312    0.0000 N   0  0  0  0  0  0  0  0  0  0  0  0
   -0.5988    0.2592    0.0000 C   0  0  0  0  0  0  0  0  0  0  0  0
   -0.3775    1.2404    0.0000 N   0  0  0  0  0  0  0  0  0  0  0  0
    1.0169    0.4151    0.0000 C   0  0  0  0  0  0  0  0  0  0  0  0
   -1.4593   -0.2541    0.0000 C   0  0  0  0  0  0  0  0  0  0  0  0
    0.2768   -1.2607    0.0000 C   0  0  0  0  0  0  0  0  0  0  0  0
   -0.5988   -1.7591    0.0000 N   0  0  0  0  0  0  0  0  0  0  0  0
   -1.4646   -1.2607    0.0000 C   0  0  0  0  0  0  0  0  0  0  0  0
    1.9932    0.2040    0.0000 C   0  0  0  0  0  0  0  0  0  0  0  0
   -2.3252    0.2438    0.0000 C   0  0  0  0  0  0  0  0  0  0  0  0
    2.2849   -0.7474    0.0000 C   0  0  0  0  0  0  0  0  0  0  0  0
    2.6575    0.9383    0.0000 C   0  0  0  0  0  0  0  0  0  0  0  0
   -2.3252   -1.7491    0.0000 C   0  0  0  0  0  0  0  0  0  0  0  0
   -3.1958   -0.2392    0.0000 C   0  0  0  0  0  0  0  0  0  0  0  0
    3.9308   -0.2188    0.0000 C   0  0  0  0  0  0  0  0  0  0  0  0
   -3.2007   -1.2456    0.0000 C   0  0  0  0  0  0  0  0  0  0  0  0
    3.6288    0.7321    0.0000 C   0  0  0  0  0  0  0  0  0  0  0  0
    3.2665   -0.9587    0.0000 C   0  0  0  0  0  0  0  0  0  0  0  0
    4.9071   -0.4304    0.0000 F   0  0  0  0  0  0  0  0  0  0  0  0
   -4.0562    0.2592    0.0000 O   0  0  0  0  0  0  0  0  0  0  0  0
   -4.0464    1.2558    0.0000 C   0  0  0  0  0  0  0  0  0  0  0  0
   -4.9071    1.7591    0.0000 C   0  0  0  0  0  0  0  0  0  0  0  0
  2  5  2  0  0  0  0
  1  3  2  0  0  0  0
  3  4  1  0  0  0  0
  2  4  1  0  0  0  0
  1  5  1  0  0  0  0
  3  6  1  0  0  0  0
  1  7  1  0  0  0  0
  7  8  2  0  0  0  0
  8  9  1  0  0  0  0
  6  9  1  0  0  0  0
  5 10  1  0  0  0  0
  6 11  2  0  0  0  0
 10 12  2  0  0  0  0
 10 13  1  0  0  0  0
  9 14  2  0  0  0  0
 11 15  1  0  0  0  0
 15 17  2  0  0  0  0
 16 18  1  0  0  0  0
 16 19  2  0  0  0  0
 14 17  1  0  0  0  0
 13 18  2  0  0  0  0
 12 19  1  0  0  0  0
 16 20  1  0  0  0  0
 15 21  1  0  0  0  0
 21 22  1  0  0  0  0
 22 23  1  0  0  0  0
M  END
> <IDNUMBER>
C200-5255

> <available>
2

> <H_acceptor>
3

> <H_donor>
1

> <B_rotN>
3

> <N_O>
4

> <logP>
4.2604

> <logD>
4.1716

> <logSw>
-4.1213

> <PSA>
39.96

> <pKa_ma>
14.2047

> <pKa_mb>
6.756

> <N_Chirals>
0

> <Name>
8-ethoxy-3-(4-fluorophenyl)-1H-pyrazolo[4,3-c]quinoline

> <Smile>
CCOc(cc12)ccc1ncc1c2[nH]nc1-c(cc1)ccc1F

> <Color>
NOT COLORED

> <Collection>
NC

> <InChI>
InChI=1S/C18H14FN3O/c1-2-23-13-7-8-16-14(9-13)18-15(10-20-16)17(21-22-18)11-3-5-12(19)6-4-11/h3-10H,2H2,1H3,(H,21,22)

> <InChI Key>
NQONYHUHQYVECA-UHFFFAOYSA-N

> <PERCENTSP3>
11.1

> <Link>
https://www.chemdiv.com/catalog/screening-compounds/compound-C200-5255/

> <MFCDNUMBER>
MFCD14727822

> <CLNUMBER>
CL4130

> <STEREO>
ACHIRAL

> <State>
Solid

> <Similarity score>
0.21

$$$$
1-[(2-chloro-6-fluorophenyl)methyl]-4-[3-(3-ethyl-1,2,4-oxadiazol-5-yl)pyridin-2
  -OEChem-04222410502D

 29 32  0     0  0  0  0  0  0999 V2000
   -1.3269    0.3979    0.0000 C   0  0  0  0  0  0  0  0  0  0  0  0
   -1.2269    1.3935    0.0000 N   0  0  0  0  0  0  0  0  0  0  0  0
   -2.1894   -0.1104    0.0000 C   0  0  0  0  0  0  0  0  0  0  0  0
   -2.1894   -1.1102    0.0000 C   0  0  0  0  0  0  0  0  0  0  0  0
    2.3098   -1.7476    0.0000 C   0  0  0  0  0  0  0  0  0  0  0  0
    0.2519    0.7394    0.0000 N   0  0  0  0  0  0  0  0  0  0  0  0
   -0.4187   -0.0021    0.0000 O   0  0  0  0  0  0  0  0  0  0  0  0
   -1.3269   -1.6101    0.0000 N   0  0  0  0  0  0  0  0  0  0  0  0
   -0.2522    1.6059    0.0000 C   0  0  0  0  0  0  0  0  0  0  0  0
    0.7144   -2.3975    0.0000 N   0  0  0  0  0  0  0  0  0  0  0  0
    1.7058   -2.5350    0.0000 C   0  0  0  0  0  0  0  0  0  0  0  0
   -3.0558   -1.6101    0.0000 N   0  0  0  0  0  0  0  0  0  0  0  0
    1.9308   -0.8227    0.0000 C   0  0  0  0  0  0  0  0  0  0  0  0
    3.2972   -1.8809    0.0000 C   0  0  0  0  0  0  0  0  0  0  0  0
   -0.5979   -1.0644    0.0000 C   0  0  0  0  0  0  0  0  0  0  0  0
    0.3727   -1.3685    0.0000 C   0  0  0  0  0  0  0  0  0  0  0  0
   -0.9021   -3.3223    0.0000 C   0  0  0  0  0  0  0  0  0  0  0  0
    3.6764   -2.8183    0.0000 F   0  0  0  0  0  0  0  0  0  0  0  0
    0.9436   -0.6853    0.0000 Cl  0  0  0  0  0  0  0  0  0  0  0  0
   -1.4477   -2.6391    0.0000 C   0  0  0  0  0  0  0  0  0  0  0  0
   -3.0558    0.3936    0.0000 C   0  0  0  0  0  0  0  0  0  0  0  0
    0.1145   -3.2765    0.0000 C   0  0  0  0  0  0  0  0  0  0  0  0
    0.1603    2.5184    0.0000 C   0  0  0  0  0  0  0  0  0  0  0  0
    3.5389   -0.1688    0.0000 C   0  0  0  0  0  0  0  0  0  0  0  0
   -3.9181   -1.1102    0.0000 C   0  0  0  0  0  0  0  0  0  0  0  0
    3.9181   -1.1061    0.0000 C   0  0  0  0  0  0  0  0  0  0  0  0
    2.5474   -0.0312    0.0000 C   0  0  0  0  0  0  0  0  0  0  0  0
   -3.9181   -0.1104    0.0000 C   0  0  0  0  0  0  0  0  0  0  0  0
   -0.4354    3.3223    0.0000 C   0  0  0  0  0  0  0  0  0  0  0  0
  1  2  2  0  0  0  0
  1  3  1  0  0  0  0
  3  4  1  0  0  0  0
  5 11  1  0  0  0  0
  6  7  1  0  0  0  0
  6  9  2  0  0  0  0
  1  7  1  0  0  0  0
  4  8  1  0  0  0  0
  2  9  1  0  0  0  0
 10 16  1  0  0  0  0
 10 11  1  0  0  0  0
  4 12  2  0  0  0  0
 12 25  1  0  0  0  0
  5 13  2  0  0  0  0
  5 14  1  0  0  0  0
  8 15  1  0  0  0  0
 15 16  1  0  0  0  0
 17 20  1  0  0  0  0
 14 18  1  0  0  0  0
 13 19  1  0  0  0  0
  8 20  1  0  0  0  0
  3 21  2  0  0  0  0
 17 22  1  0  0  0  0
 10 22  1  0  0  0  0
  9 23  1  0  0  0  0
 24 26  1  0  0  0  0
 25 28  2  0  0  0  0
 14 26  2  0  0  0  0
 13 27  1  0  0  0  0
 24 27  2  0  0  0  0
 21 28  1  0  0  0  0
 23 29  1  0  0  0  0
M  END
> <IDNUMBER>
P891-0124

> <available>
24

> <H_acceptor>
5

> <H_donor>
0

> <B_rotN>
5

> <N_O>
6

> <logP>
4.2564

> <logD>
4.0619

> <logSw>
-4.5041

> <PSA>
49.211

> <pKa_ma>
23.4478

> <pKa_mb>
7.152

> <N_Chirals>
0

> <Name>
1-[(2-chloro-6-fluorophenyl)methyl]-4-[3-(3-ethyl-1,2,4-oxadiazol-5-yl)pyridin-2-yl]-1,4-diazepane

> <Smile>
CCc1noc(-c2cccnc2N2CCN(Cc(c(F)ccc3)c3Cl)CCC2)n1

> <Color>
YELLOW

> <Collection>
NC

> <InChI>
InChI=1S/C21H23ClFN5O/c1-2-19-25-21(29-26-19)15-6-4-9-24-20(15)28-11-5-10-27(12-13-28)14-16-17(22)7-3-8-18(16)23/h3-4,6-9H,2,5,10-14H2,1H3

> <InChI Key>
GXCXNYWHANFKCG-UHFFFAOYSA-N

> <PERCENTSP3>
38.1

> <Link>
https://www.chemdiv.com/catalog/screening-compounds/compound-P891-0124/

> <MFCDNUMBER>
MFCD29026880

> <CLNUMBER>
CM1467

> <Saltdata>
HCl

> <Saltdata_MW>
36.461

> <STEREO>
ACHIRAL

> <State>
Solid

> <Similarity score>
0.21

$$$$
2-{benzyl[4-(furan-2-yl)-9-(methylsulfanyl)-2,3-dihydro-1H-cyclopenta[4',5']pyri
  -OEChem-04222410502D

 34 39  0     0  0  0  0  0  0999 V2000
    0.6268   -0.0522    0.0000 C   0  0  0  0  0  0  0  0  0  0  0  0
   -0.8853    0.5228    0.0000 C   0  0  0  0  0  0  0  0  0  0  0  0
   -0.8853   -0.4854    0.0000 C   0  0  0  0  0  0  0  0  0  0  0  0
    0.0813    0.7812    0.0000 C   0  0  0  0  0  0  0  0  0  0  0  0
    1.6270   -0.0021    0.0000 C   0  0  0  0  0  0  0  0  0  0  0  0
    0.0645   -0.7939    0.0000 S   0  0  0  0  0  0  0  0  0  0  0  0
    2.0811    0.8853    0.0000 N   0  0  0  0  0  0  0  0  0  0  0  0
   -1.7476   -0.9854    0.0000 N   0  0  0  0  0  0  0  0  0  0  0  0
   -1.7476    1.0228    0.0000 C   0  0  0  0  0  0  0  0  0  0  0  0
   -2.6103   -0.4854    0.0000 C   0  0  0  0  0  0  0  0  0  0  0  0
    1.5352    1.7353    0.0000 C   0  0  0  0  0  0  0  0  0  0  0  0
    0.5352    1.6727    0.0000 N   0  0  0  0  0  0  0  0  0  0  0  0
   -2.6103    0.5228    0.0000 C   0  0  0  0  0  0  0  0  0  0  0  0
    2.1727   -0.8394    0.0000 N   0  0  0  0  0  0  0  0  0  0  0  0
   -3.4894   -0.9938    0.0000 C   0  0  0  0  0  0  0  0  0  0  0  0
   -3.5851   -1.9895    0.0000 O   0  0  0  0  0  0  0  0  0  0  0  0
    3.1726   -0.7813    0.0000 C   0  0  0  0  0  0  0  0  0  0  0  0
   -4.4143   -0.5813    0.0000 C   0  0  0  0  0  0  0  0  0  0  0  0
   -4.5684   -2.2019    0.0000 C   0  0  0  0  0  0  0  0  0  0  0  0
   -5.0808   -1.3353    0.0000 C   0  0  0  0  0  0  0  0  0  0  0  0
    1.9895    2.6268    0.0000 S   0  0  0  0  0  0  0  0  0  0  0  0
   -1.9602    1.9976    0.0000 C   0  0  0  0  0  0  0  0  0  0  0  0
    3.6350    0.1146    0.0000 C   0  0  0  0  0  0  0  0  0  0  0  0
   -3.3686    1.1937    0.0000 C   0  0  0  0  0  0  0  0  0  0  0  0
    1.7145   -1.7353    0.0000 C   0  0  0  0  0  0  0  0  0  0  0  0
   -2.9519    2.0977    0.0000 C   0  0  0  0  0  0  0  0  0  0  0  0
    1.8100   -3.4600    0.0000 O   0  0  0  0  0  0  0  0  0  0  0  0
    1.4477    3.4600    0.0000 C   0  0  0  0  0  0  0  0  0  0  0  0
    2.2645   -2.5644    0.0000 C   0  0  0  0  0  0  0  0  0  0  0  0
    4.6267    0.1729    0.0000 C   0  0  0  0  0  0  0  0  0  0  0  0
    3.0810    0.9520    0.0000 C   0  0  0  0  0  0  0  0  0  0  0  0
    3.5351    1.8435    0.0000 C   0  0  0  0  0  0  0  0  0  0  0  0
    5.0808    1.0686    0.0000 C   0  0  0  0  0  0  0  0  0  0  0  0
    4.5349    1.9020    0.0000 C   0  0  0  0  0  0  0  0  0  0  0  0
  2  4  1  0  0  0  0
  2  3  2  0  0  0  0
  3  6  1  0  0  0  0
  1  4  2  0  0  0  0
  1  5  1  0  0  0  0
  1  6  1  0  0  0  0
  5  7  2  0  0  0  0
  3  8  1  0  0  0  0
  2  9  1  0  0  0  0
  8 10  2  0  0  0  0
  7 11  1  0  0  0  0
  4 12  1  0  0  0  0
 11 12  2  0  0  0  0
  9 13  2  0  0  0  0
 10 13  1  0  0  0  0
  5 14  1  0  0  0  0
 10 15  1  0  0  0  0
 15 16  1  0  0  0  0
 14 17  1  0  0  0  0
 15 18  2  0  0  0  0
 16 19  1  0  0  0  0
 18 20  1  0  0  0  0
 19 20  2  0  0  0  0
 11 21  1  0  0  0  0
  9 22  1  0  0  0  0
 17 23  1  0  0  0  0
 13 24  1  0  0  0  0
 14 25  1  0  0  0  0
 22 26  1  0  0  0  0
 24 26  1  0  0  0  0
 27 29  1  0  0  0  0
 21 28  1  0  0  0  0
 25 29  1  0  0  0  0
 23 30  1  0  0  0  0
 23 31  2  0  0  0  0
 31 32  1  0  0  0  0
 30 33  2  0  0  0  0
 33 34  1  0  0  0  0
 32 34  2  0  0  0  0
M  END
> <IDNUMBER>
IB03-2372

> <available>
50

> <H_acceptor>
6

> <H_donor>
1

> <B_rotN>
7

> <N_O>
6

> <logP>
6.15

> <logD>
6.15

> <logSw>
-6.26

> <PSA>
112.23

> <pKa_ma>
14

> <pKa_mb>
3.1

> <N_Chirals>
0

> <Name>
2-{benzyl[4-(furan-2-yl)-9-(methylsulfanyl)-2,3-dihydro-1H-cyclopenta[4',5']pyrido[3',2':4,5]thieno[3,2-d]pyrimidin-7-yl]amino}ethan-1-ol

> <Smile>
CSc1nc(N(CCO)Cc2ccccc2)c2sc3nc(-c4ccco4)c(CCC4)c4c3c2n1

> <Color>
NOT COLORED

> <Collection>
DC

> <InChI>
InChI=1S/C26H24N4O2S2/c1-33-26-28-22-20-17-9-5-10-18(17)21(19-11-6-14-32-19)27-25(20)34-23(22)24(29-26)30(12-13-31)15-16-7-3-2-4-8-16/h2-4,6-8,11,14,31H,5,9-10,12-13,15H2,1H3

> <InChI Key>
UOTCRDHXRAOVMB-UHFFFAOYSA-N

> <PERCENTSP3>
26.9

> <Link>
https://www.chemdiv.com/catalog/screening-compounds/compound-IB03-2372/

> <STEREO>
ACHIRAL

> <State>
Solid

> <Similarity score>
0.21

$$$$
N-butyl-N-[(furan-2-yl)methyl]-2-(4-methoxyphenyl)quinazolin-4-amine
  -OEChem-04222410502D

 29 32  0     0  0  0  0  0  0999 V2000
    0.4459   -0.2655    0.0000 N   0  0  0  0  0  0  0  0  0  0  0  0
   -0.4256    0.2252    0.0000 C   0  0  0  0  0  0  0  0  0  0  0  0
    0.4459   -1.2773    0.0000 C   0  0  0  0  0  0  0  0  0  0  0  0
   -1.2870   -0.2655    0.0000 C   0  0  0  0  0  0  0  0  0  0  0  0
   -0.4256   -1.7683    0.0000 N   0  0  0  0  0  0  0  0  0  0  0  0
   -0.4256    1.2371    0.0000 N   0  0  0  0  0  0  0  0  0  0  0  0
   -1.2870   -1.2773    0.0000 C   0  0  0  0  0  0  0  0  0  0  0  0
    0.4259    2.7396    0.0000 C   0  0  0  0  0  0  0  0  0  0  0  0
    1.2974   -1.7683    0.0000 C   0  0  0  0  0  0  0  0  0  0  0  0
    0.4259    1.7480    0.0000 C   0  0  0  0  0  0  0  0  0  0  0  0
    1.1672    3.4008    0.0000 O   0  0  0  0  0  0  0  0  0  0  0  0
   -0.4456    3.2506    0.0000 C   0  0  0  0  0  0  0  0  0  0  0  0
    0.7563    4.2925    0.0000 C   0  0  0  0  0  0  0  0  0  0  0  0
   -0.2153    4.2022    0.0000 C   0  0  0  0  0  0  0  0  0  0  0  0
    2.1689   -1.2773    0.0000 C   0  0  0  0  0  0  0  0  0  0  0  0
    1.2974   -2.7798    0.0000 C   0  0  0  0  0  0  0  0  0  0  0  0
    3.0303   -2.7798    0.0000 C   0  0  0  0  0  0  0  0  0  0  0  0
    2.1589   -3.2709    0.0000 C   0  0  0  0  0  0  0  0  0  0  0  0
    3.0404   -1.7683    0.0000 C   0  0  0  0  0  0  0  0  0  0  0  0
   -2.1589    0.2252    0.0000 C   0  0  0  0  0  0  0  0  0  0  0  0
   -1.2971    1.7480    0.0000 C   0  0  0  0  0  0  0  0  0  0  0  0
    3.9018   -3.2908    0.0000 O   0  0  0  0  0  0  0  0  0  0  0  0
   -2.1589   -1.7683    0.0000 C   0  0  0  0  0  0  0  0  0  0  0  0
    3.8818   -4.2925    0.0000 C   0  0  0  0  0  0  0  0  0  0  0  0
   -2.1589    1.2371    0.0000 C   0  0  0  0  0  0  0  0  0  0  0  0
   -3.0303    1.7480    0.0000 C   0  0  0  0  0  0  0  0  0  0  0  0
   -3.0303   -0.2655    0.0000 C   0  0  0  0  0  0  0  0  0  0  0  0
   -3.0303   -1.2773    0.0000 C   0  0  0  0  0  0  0  0  0  0  0  0
   -3.9018    1.2371    0.0000 C   0  0  0  0  0  0  0  0  0  0  0  0
  1  2  2  0  0  0  0
  1  3  1  0  0  0  0
  2  4  1  0  0  0  0
  3  5  2  0  0  0  0
  2  6  1  0  0  0  0
  5  7  1  0  0  0  0
  4  7  1  0  0  0  0
  8 10  1  0  0  0  0
  3  9  1  0  0  0  0
  6 10  1  0  0  0  0
  8 11  1  0  0  0  0
  8 12  2  0  0  0  0
 11 13  1  0  0  0  0
 13 14  2  0  0  0  0
 12 14  1  0  0  0  0
  9 15  1  0  0  0  0
  9 16  2  0  0  0  0
 17 18  2  0  0  0  0
 16 18  1  0  0  0  0
 15 19  2  0  0  0  0
 17 19  1  0  0  0  0
  4 20  2  0  0  0  0
  6 21  1  0  0  0  0
 17 22  1  0  0  0  0
  7 23  2  0  0  0  0
 22 24  1  0  0  0  0
 21 25  1  0  0  0  0
 25 26  1  0  0  0  0
 20 27  1  0  0  0  0
 23 28  1  0  0  0  0
 27 28  2  0  0  0  0
 26 29  1  0  0  0  0
M  END
> <IDNUMBER>
G516-0272

> <available>
78

> <H_acceptor>
4

> <H_donor>
0

> <B_rotN>
8

> <N_O>
5

> <logP>
6.8559

> <logD>
6.3558

> <logSw>
-6.1247

> <PSA>
36.472

> <pKa_ma>
22.3611

> <pKa_mb>
7.735

> <N_Chirals>
0

> <Name>
N-butyl-N-[(furan-2-yl)methyl]-2-(4-methoxyphenyl)quinazolin-4-amine

> <Smile>
CCCCN(Cc1ccco1)c1nc(-c(cc2)ccc2OC)nc2ccccc12

> <Color>
NOT COLORED

> <Collection>
NC

> <InChI>
InChI=1S/C24H25N3O2/c1-3-4-15-27(17-20-8-7-16-29-20)24-21-9-5-6-10-22(21)25-23(26-24)18-11-13-19(28-2)14-12-18/h5-14,16H,3-4,15,17H2,1-2H3

> <InChI Key>
YZJQDODULVCHJV-UHFFFAOYSA-N

> <PERCENTSP3>
25

> <Link>
https://www.chemdiv.com/catalog/screening-compounds/compound-G516-0272/

> <MFCDNUMBER>
MFCD15015079

> <CLNUMBER>
CL2243

> <STEREO>
ACHIRAL

> <State>
Solid

> <Similarity score>
0.21

$$$$
1-[2-(4-fluorophenyl)-2H-pyrazolo[3,4-d]pyrimidin-4-yl]-N-[(2-methoxyphenyl)meth
  -OEChem-04222410502D

 34 38  0     0  0  0  0  0  0999 V2000
    2.7279   -1.2714    0.0000 C   0  0  0  0  0  0  0  0  0  0  0  0
    1.8652   -1.7714    0.0000 C   0  0  0  0  0  0  0  0  0  0  0  0
    3.5949   -1.7714    0.0000 C   0  0  0  0  0  0  0  0  0  0  0  0
    4.3408   -1.1088    0.0000 N   0  0  0  0  0  0  0  0  0  0  0  0
    3.9324   -0.1917    0.0000 N   0  0  0  0  0  0  0  0  0  0  0  0
    2.9321   -0.2959    0.0000 C   0  0  0  0  0  0  0  0  0  0  0  0
    0.9942   -1.2714    0.0000 N   0  0  0  0  0  0  0  0  0  0  0  0
    1.8652   -2.7719    0.0000 N   0  0  0  0  0  0  0  0  0  0  0  0
    3.5949   -2.7719    0.0000 N   0  0  0  0  0  0  0  0  0  0  0  0
   -0.7357   -1.2714    0.0000 C   0  0  3  0  0  0  0  0  0  0  0  0
   -1.6068   -1.7714    0.0000 C   0  0  0  0  0  0  0  0  0  0  0  0
    2.7279   -3.2719    0.0000 C   0  0  0  0  0  0  0  0  0  0  0  0
    0.1313   -1.7714    0.0000 C   0  0  0  0  0  0  0  0  0  0  0  0
   -2.4695   -1.2714    0.0000 N   0  0  0  0  0  0  0  0  0  0  0  0
    4.4326    0.6793    0.0000 C   0  0  0  0  0  0  0  0  0  0  0  0
   -4.2034   -1.2714    0.0000 C   0  0  0  0  0  0  0  0  0  0  0  0
   -3.3322   -1.7714    0.0000 C   0  0  0  0  0  0  0  0  0  0  0  0
   -1.6068   -2.7719    0.0000 O   0  0  0  0  0  0  0  0  0  0  0  0
   -5.0704   -1.7714    0.0000 C   0  0  0  0  0  0  0  0  0  0  0  0
    3.9324    1.5421    0.0000 C   0  0  0  0  0  0  0  0  0  0  0  0
    5.4329    0.6793    0.0000 C   0  0  0  0  0  0  0  0  0  0  0  0
    0.9942   -0.2709    0.0000 C   0  0  0  0  0  0  0  0  0  0  0  0
    5.4329    2.4050    0.0000 C   0  0  0  0  0  0  0  0  0  0  0  0
    5.9331    1.5421    0.0000 C   0  0  0  0  0  0  0  0  0  0  0  0
    4.4326    2.4050    0.0000 C   0  0  0  0  0  0  0  0  0  0  0  0
    5.9331    3.2719    0.0000 F   0  0  0  0  0  0  0  0  0  0  0  0
   -0.7357   -0.2709    0.0000 C   0  0  0  0  0  0  0  0  0  0  0  0
   -5.0704   -2.7719    0.0000 O   0  0  0  0  0  0  0  0  0  0  0  0
    0.1313    0.2292    0.0000 C   0  0  0  0  0  0  0  0  0  0  0  0
   -4.2034   -0.2709    0.0000 C   0  0  0  0  0  0  0  0  0  0  0  0
   -5.9331   -1.2714    0.0000 C   0  0  0  0  0  0  0  0  0  0  0  0
   -4.2034   -3.2719    0.0000 C   0  0  0  0  0  0  0  0  0  0  0  0
   -5.0704    0.2292    0.0000 C   0  0  0  0  0  0  0  0  0  0  0  0
   -5.9331   -0.2709    0.0000 C   0  0  0  0  0  0  0  0  0  0  0  0
  1  2  1  0  0  0  0
  1  3  1  0  0  0  0
  3  4  2  0  0  0  0
  5  6  1  0  0  0  0
  4  5  1  0  0  0  0
  1  6  2  0  0  0  0
  2  7  1  0  0  0  0
  2  8  2  0  0  0  0
  8 12  1  0  0  0  0
  3  9  1  0  0  0  0
 10 13  1  0  0  0  0
 10 27  1  0  0  0  0
 10 11  1  0  0  0  0
  9 12  2  0  0  0  0
  7 13  1  0  0  0  0
 11 14  1  0  0  0  0
  5 15  1  0  0  0  0
 16 17  1  0  0  0  0
 14 17  1  0  0  0  0
 11 18  2  0  0  0  0
 16 19  2  0  0  0  0
 15 20  2  0  0  0  0
 15 21  1  0  0  0  0
  7 22  1  0  0  0  0
 23 24  1  0  0  0  0
 23 25  2  0  0  0  0
 21 24  2  0  0  0  0
 20 25  1  0  0  0  0
 23 26  1  0  0  0  0
 27 29  1  0  0  0  0
 19 28  1  0  0  0  0
 22 29  1  0  0  0  0
 16 30  1  0  0  0  0
 19 31  1  0  0  0  0
 28 32  1  0  0  0  0
 30 33  2  0  0  0  0
 33 34  1  0  0  0  0
 31 34  2  0  0  0  0
M  END
> <IDNUMBER>
L094-3415

> <available>
10

> <H_acceptor>
6

> <H_donor>
1

> <B_rotN>
7

> <N_O>
8

> <logP>
3.5552

> <logD>
3.5477

> <logSw>
-3.5336

> <PSA>
70.586

> <pKa_ma>
12.356

> <pKa_mb>
5.6357

> <N_Chirals>
1

> <Name>
1-[2-(4-fluorophenyl)-2H-pyrazolo[3,4-d]pyrimidin-4-yl]-N-[(2-methoxyphenyl)methyl]piperidine-3-carboxamide

> <Smile>
COc1c(CNC(C(CCC2)CN2c(c2c3)ncnc2nn3-c(cc2)ccc2F)=O)cccc1

> <Color>
YELLOW

> <Collection>
NC

> <InChI>
InChI=1S/C25H25FN6O2/c1-34-22-7-3-2-5-17(22)13-27-25(33)18-6-4-12-31(14-18)24-21-15-32(30-23(21)28-16-29-24)20-10-8-19(26)9-11-20/h2-3,5,7-11,15-16,18H,4,6,12-14H2,1H3,(H,27,33)/t18-/m0/s1

> <InChI Key>
KVZNVVNGLXYXQE-SFHVURJKSA-N

> <PERCENTSP3>
28

> <Link>
https://www.chemdiv.com/catalog/screening-compounds/compound-L094-3415/

> <MFCDNUMBER>
MFCD27232009

> <CLNUMBER>
CL8543

> <STEREO>
RACEMIC MIXTURE

> <State>
Solid

> <Similarity score>
0.21

$$$$
N-butyl-N-methyl-9-(methylsulfanyl)-4-phenyl-2,3-dihydro-1H-cyclopenta[4',5']pyr
  -OEChem-04222410502D

 30 34  0     0  0  0  0  0  0999 V2000
    1.6394    0.3855    0.0000 C   0  0  0  0  0  0  0  0  0  0  0  0
    0.1397    0.9604    0.0000 C   0  0  0  0  0  0  0  0  0  0  0  0
    0.1397   -0.0396    0.0000 C   0  0  0  0  0  0  0  0  0  0  0  0
    1.1062    1.2187    0.0000 C   0  0  0  0  0  0  0  0  0  0  0  0
    1.0812   -0.3394    0.0000 S   0  0  0  0  0  0  0  0  0  0  0  0
    2.6353    0.4436    0.0000 C   0  0  0  0  0  0  0  0  0  0  0  0
    3.1019    1.3228    0.0000 N   0  0  0  0  0  0  0  0  0  0  0  0
   -0.7228   -0.5353    0.0000 N   0  0  0  0  0  0  0  0  0  0  0  0
   -0.7228    1.4646    0.0000 C   0  0  0  0  0  0  0  0  0  0  0  0
   -1.5935   -0.0396    0.0000 C   0  0  0  0  0  0  0  0  0  0  0  0
    2.5560    2.1686    0.0000 C   0  0  0  0  0  0  0  0  0  0  0  0
    1.5479    2.1062    0.0000 N   0  0  0  0  0  0  0  0  0  0  0  0
   -1.5935    0.9604    0.0000 C   0  0  0  0  0  0  0  0  0  0  0  0
    3.1977   -0.3938    0.0000 N   0  0  0  0  0  0  0  0  0  0  0  0
   -2.4726   -0.5478    0.0000 C   0  0  0  0  0  0  0  0  0  0  0  0
    3.0101    3.0602    0.0000 S   0  0  0  0  0  0  0  0  0  0  0  0
   -0.9354    2.4395    0.0000 C   0  0  0  0  0  0  0  0  0  0  0  0
   -2.3478    1.6394    0.0000 C   0  0  0  0  0  0  0  0  0  0  0  0
   -1.9269    2.5478    0.0000 C   0  0  0  0  0  0  0  0  0  0  0  0
    2.7435   -1.3018    0.0000 C   0  0  0  0  0  0  0  0  0  0  0  0
    4.2101   -0.3394    0.0000 C   0  0  0  0  0  0  0  0  0  0  0  0
   -2.4726   -1.5437    0.0000 C   0  0  0  0  0  0  0  0  0  0  0  0
   -3.3308   -0.0396    0.0000 C   0  0  0  0  0  0  0  0  0  0  0  0
    2.4643    3.8935    0.0000 C   0  0  0  0  0  0  0  0  0  0  0  0
    3.2975   -2.1517    0.0000 C   0  0  0  0  0  0  0  0  0  0  0  0
    2.8436   -3.0435    0.0000 C   0  0  0  0  0  0  0  0  0  0  0  0
    3.3936   -3.8935    0.0000 C   0  0  0  0  0  0  0  0  0  0  0  0
   -3.3308   -2.0436    0.0000 C   0  0  0  0  0  0  0  0  0  0  0  0
   -4.2101   -0.5353    0.0000 C   0  0  0  0  0  0  0  0  0  0  0  0
   -4.2101   -1.5437    0.0000 C   0  0  0  0  0  0  0  0  0  0  0  0
  2  4  1  0  0  0  0
  3  5  1  0  0  0  0
  2  3  2  0  0  0  0
  1  4  2  0  0  0  0
  1  5  1  0  0  0  0
  1  6  1  0  0  0  0
  6  7  2  0  0  0  0
  3  8  1  0  0  0  0
  2  9  1  0  0  0  0
  8 10  2  0  0  0  0
 10 13  1  0  0  0  0
  7 11  1  0  0  0  0
 11 12  2  0  0  0  0
  4 12  1  0  0  0  0
  9 13  2  0  0  0  0
  6 14  1  0  0  0  0
 10 15  1  0  0  0  0
 11 16  1  0  0  0  0
  9 17  1  0  0  0  0
 13 18  1  0  0  0  0
 18 19  1  0  0  0  0
 17 19  1  0  0  0  0
 14 20  1  0  0  0  0
 14 21  1  0  0  0  0
 15 22  1  0  0  0  0
 15 23  2  0  0  0  0
 16 24  1  0  0  0  0
 20 25  1  0  0  0  0
 25 26  1  0  0  0  0
 26 27  1  0  0  0  0
 22 28  2  0  0  0  0
 23 29  1  0  0  0  0
 29 30  2  0  0  0  0
 28 30  1  0  0  0  0
M  END
> <IDNUMBER>
IB08-6082

> <available>
50

> <H_acceptor>
4

> <H_donor>
0

> <B_rotN>
6

> <N_O>
4

> <logP>
6.95

> <logD>
6.95

> <logSw>
-6.91

> <PSA>
67.52

> <pKa_ma>
14

> <pKa_mb>
2.82

> <N_Chirals>
0

> <Name>
N-butyl-N-methyl-9-(methylsulfanyl)-4-phenyl-2,3-dihydro-1H-cyclopenta[4',5']pyrido[3',2':4,5]thieno[3,2-d]pyrimidin-7-amine

> <Smile>
CCCCN(C)c1c2sc3nc(-c4ccccc4)c(CCC4)c4c3c2nc(SC)n1

> <Color>
NOT COLORED

> <Collection>
DC

> <InChI>
InChI=1S/C24H26N4S2/c1-4-5-14-28(2)22-21-20(26-24(27-22)29-3)18-16-12-9-13-17(16)19(25-23(18)30-21)15-10-7-6-8-11-15/h6-8,10-11H,4-5,9,12-14H2,1-3H3

> <InChI Key>
WRHXPIACEIRTIO-UHFFFAOYSA-N

> <PERCENTSP3>
37.5

> <Link>
https://www.chemdiv.com/catalog/screening-compounds/compound-IB08-6082/

> <STEREO>
ACHIRAL

> <State>
Solid

> <Similarity score>
0.21

$$$$
3-(1H-benzimidazol-2-yl)-7-hydroxy-8-[(3-methylpiperidin-1-yl)methyl]-2H-1-benzo
  -OEChem-04222410502D

 29 33  0     0  0  0  0  0  0999 V2000
    0.1693   -1.4954    0.0000 C   0  0  0  0  0  0  0  0  0  0  0  0
    1.0432   -1.9857    0.0000 C   0  0  0  0  0  0  0  0  0  0  0  0
    0.1693   -0.4851    0.0000 C   0  0  0  0  0  0  0  0  0  0  0  0
    1.9428   -1.5561    0.0000 N   0  0  0  0  0  0  0  0  0  0  0  0
   -0.6945   -0.0000    0.0000 O   0  0  0  0  0  0  0  0  0  0  0  0
   -2.4227   -0.0000    0.0000 C   0  0  0  0  0  0  0  0  0  0  0  0
   -1.5487   -0.4851    0.0000 C   0  0  0  0  0  0  0  0  0  0  0  0
   -0.6945   -1.9857    0.0000 C   0  0  0  0  0  0  0  0  0  0  0  0
    1.1848   -2.9862    0.0000 N   0  0  0  0  0  0  0  0  0  0  0  0
   -1.5487   -1.4954    0.0000 C   0  0  0  0  0  0  0  0  0  0  0  0
   -1.5487    1.5005    0.0000 N   0  0  0  0  0  0  0  0  0  0  0  0
    2.6350   -2.2836    0.0000 C   0  0  0  0  0  0  0  0  0  0  0  0
    2.1702   -3.1530    0.0000 C   0  0  0  0  0  0  0  0  0  0  0  0
   -2.4227    0.9905    0.0000 C   0  0  0  0  0  0  0  0  0  0  0  0
   -3.3020   -0.4851    0.0000 C   0  0  0  0  0  0  0  0  0  0  0  0
    1.0586   -0.0000    0.0000 O   0  0  0  0  0  0  0  0  0  0  0  0
   -2.4227   -1.9857    0.0000 C   0  0  0  0  0  0  0  0  0  0  0  0
   -3.3020   -1.4954    0.0000 C   0  0  0  0  0  0  0  0  0  0  0  0
   -1.5487    2.5162    0.0000 C   0  0  0  0  0  0  0  0  0  0  0  0
   -4.1558   -0.0000    0.0000 O   0  0  0  0  0  0  0  0  0  0  0  0
   -0.6945    0.9905    0.0000 C   0  0  0  0  0  0  0  0  0  0  0  0
   -0.6945    3.0065    0.0000 C   0  0  3  0  0  0  0  0  0  0  0  0
    0.1693    1.5005    0.0000 C   0  0  0  0  0  0  0  0  0  0  0  0
    3.6404   -2.2282    0.0000 C   0  0  0  0  0  0  0  0  0  0  0  0
    2.7008   -4.0016    0.0000 C   0  0  0  0  0  0  0  0  0  0  0  0
    0.1693    2.5162    0.0000 C   0  0  0  0  0  0  0  0  0  0  0  0
   -0.6945    4.0016    0.0000 C   0  0  0  0  0  0  0  0  0  0  0  0
    3.7111   -3.9663    0.0000 C   0  0  0  0  0  0  0  0  0  0  0  0
    4.1558   -3.0771    0.0000 C   0  0  0  0  0  0  0  0  0  0  0  0
  1  2  1  0  0  0  0
  1  3  1  0  0  0  0
  2  4  2  0  0  0  0
  3  5  1  0  0  0  0
  6  7  2  0  0  0  0
  6 15  1  0  0  0  0
  7 10  1  0  0  0  0
  5  7  1  0  0  0  0
  1  8  2  0  0  0  0
  2  9  1  0  0  0  0
  8 10  1  0  0  0  0
 11 14  1  0  0  0  0
  4 12  1  0  0  0  0
  9 13  1  0  0  0  0
 12 13  2  0  0  0  0
  6 14  1  0  0  0  0
 15 18  2  0  0  0  0
  3 16  2  0  0  0  0
 10 17  2  0  0  0  0
 17 18  1  0  0  0  0
 11 19  1  0  0  0  0
 15 20  1  0  0  0  0
 11 21  1  0  0  0  0
 19 22  1  0  0  0  0
 21 23  1  0  0  0  0
 12 24  1  0  0  0  0
 13 25  1  0  0  0  0
 23 26  1  0  0  0  0
 22 26  1  0  0  0  0
 22 27  1  0  0  0  0
 25 28  2  0  0  0  0
 24 29  2  0  0  0  0
 28 29  1  0  0  0  0
M  END
> <IDNUMBER>
3570-0022

> <available>
16

> <H_acceptor>
6

> <H_donor>
2

> <B_rotN>
3

> <N_O>
6

> <logP>
3.9038

> <logD>
3.5281

> <logSw>
-3.8347

> <PSA>
60.078

> <pKa_ma>
8.9618

> <pKa_mb>
7.5384

> <N_Chirals>
1

> <Name>
3-(1H-benzimidazol-2-yl)-7-hydroxy-8-[(3-methylpiperidin-1-yl)methyl]-2H-1-benzopyran-2-one

> <Smile>
CC1CN(Cc(c(O2)c(cc3)C=C(c4nc(cccc5)c5[nH]4)C2=O)c3O)CCC1

> <Color>
YELLOW

> <Collection>
DC

> <InChI>
InChI=1S/C23H23N3O3/c1-14-5-4-10-26(12-14)13-17-20(27)9-8-15-11-16(23(28)29-21(15)17)22-24-18-6-2-3-7-19(18)25-22/h2-3,6-9,11,14,27H,4-5,10,12-13H2,1H3,(H,24,25)/t14-/m0/s1

> <InChI Key>
LEVIEHQOTYXYMA-AWEZNQCLSA-N

> <PERCENTSP3>
30.4

> <Link>
https://www.chemdiv.com/catalog/screening-compounds/compound-3570-0022/

> <MFCDNUMBER>
MFCD01948328

> <CLNUMBER>
CL3319

> <STEREO>
RACEMIC MIXTURE

> <State>
Solid

> <Similarity score>
0.21

$$$$
3-(1H-benzimidazol-2-yl)-8-[(2-ethylpiperidin-1-yl)methyl]-7-hydroxy-2H-1-benzop
  -OEChem-04222410502D

 30 34  0     0  0  0  0  0  0999 V2000
    0.1855   -1.4436    0.0000 C   0  0  0  0  0  0  0  0  0  0  0  0
    1.0636   -1.9564    0.0000 C   0  0  0  0  0  0  0  0  0  0  0  0
    0.1855   -0.4479    0.0000 C   0  0  0  0  0  0  0  0  0  0  0  0
   -2.4132    0.0472    0.0000 C   0  0  0  0  0  0  0  0  0  0  0  0
    1.9711   -1.5615    0.0000 N   0  0  0  0  0  0  0  0  0  0  0  0
   -0.6806    0.0648    0.0000 O   0  0  0  0  0  0  0  0  0  0  0  0
   -1.5352   -0.4479    0.0000 C   0  0  0  0  0  0  0  0  0  0  0  0
   -0.6806   -1.9564    0.0000 C   0  0  0  0  0  0  0  0  0  0  0  0
    1.1579   -2.9463    0.0000 N   0  0  0  0  0  0  0  0  0  0  0  0
   -2.4013    1.0548    0.0000 C   0  0  0  0  0  0  0  0  0  0  0  0
   -1.5352    1.5323    0.0000 N   0  0  0  0  0  0  0  0  0  0  0  0
   -1.5528   -1.4436    0.0000 C   0  0  0  0  0  0  0  0  0  0  0  0
    2.6428   -2.2922    0.0000 C   0  0  0  0  0  0  0  0  0  0  0  0
    2.1420   -3.1587    0.0000 C   0  0  0  0  0  0  0  0  0  0  0  0
   -3.2794   -0.4479    0.0000 C   0  0  0  0  0  0  0  0  0  0  0  0
    1.0636    0.0472    0.0000 O   0  0  0  0  0  0  0  0  0  0  0  0
   -2.4307   -1.9387    0.0000 C   0  0  0  0  0  0  0  0  0  0  0  0
   -1.5352    2.5516    0.0000 C   0  0  3  0  0  0  0  0  0  0  0  0
   -3.2794   -1.4380    0.0000 C   0  0  0  0  0  0  0  0  0  0  0  0
   -4.1280    0.0648    0.0000 O   0  0  0  0  0  0  0  0  0  0  0  0
   -0.6806    1.0372    0.0000 C   0  0  0  0  0  0  0  0  0  0  0  0
    3.6329   -2.2922    0.0000 C   0  0  0  0  0  0  0  0  0  0  0  0
    2.6371   -4.0366    0.0000 C   0  0  0  0  0  0  0  0  0  0  0  0
   -2.4013    3.0467    0.0000 C   0  0  0  0  0  0  0  0  0  0  0  0
   -0.6631    3.0467    0.0000 C   0  0  0  0  0  0  0  0  0  0  0  0
    0.1855    1.5264    0.0000 C   0  0  0  0  0  0  0  0  0  0  0  0
   -2.4132    4.0366    0.0000 C   0  0  0  0  0  0  0  0  0  0  0  0
    3.6329   -4.0366    0.0000 C   0  0  0  0  0  0  0  0  0  0  0  0
    4.1280   -3.1587    0.0000 C   0  0  0  0  0  0  0  0  0  0  0  0
    0.2034    2.5223    0.0000 C   0  0  0  0  0  0  0  0  0  0  0  0
  1  2  1  0  0  0  0
  1  3  1  0  0  0  0
  4  7  2  0  0  0  0
  2  5  2  0  0  0  0
  3  6  1  0  0  0  0
  6  7  1  0  0  0  0
  7 12  1  0  0  0  0
  1  8  2  0  0  0  0
  2  9  1  0  0  0  0
  4 10  1  0  0  0  0
 10 11  1  0  0  0  0
  8 12  1  0  0  0  0
  5 13  1  0  0  0  0
 13 14  2  0  0  0  0
  9 14  1  0  0  0  0
 15 19  2  0  0  0  0
  4 15  1  0  0  0  0
  3 16  2  0  0  0  0
 12 17  2  0  0  0  0
 11 18  1  0  0  0  0
 17 19  1  0  0  0  0
 15 20  1  0  0  0  0
 11 21  1  0  0  0  0
 13 22  1  0  0  0  0
 14 23  1  0  0  0  0
 18 24  1  0  0  0  0
 18 25  1  0  0  0  0
 25 30  1  0  0  0  0
 21 26  1  0  0  0  0
 24 27  1  0  0  0  0
 23 28  2  0  0  0  0
 28 29  1  0  0  0  0
 22 29  2  0  0  0  0
 26 30  1  0  0  0  0
M  END
> <IDNUMBER>
3570-0329

> <available>
32

> <H_acceptor>
6

> <H_donor>
2

> <B_rotN>
4

> <N_O>
6

> <logP>
4.3164

> <logD>
3.746

> <logSw>
-3.979

> <PSA>
59.957

> <pKa_ma>
8.9618

> <pKa_mb>
7.8344

> <N_Chirals>
1

> <Name>
3-(1H-benzimidazol-2-yl)-8-[(2-ethylpiperidin-1-yl)methyl]-7-hydroxy-2H-1-benzopyran-2-one

> <Smile>
CCC1N(Cc(c(O2)c(cc3)C=C(c4nc(cccc5)c5[nH]4)C2=O)c3O)CCCC1

> <Color>
YELLOW

> <Collection>
DC

> <InChI>
InChI=1S/C24H25N3O3/c1-2-16-7-5-6-12-27(16)14-18-21(28)11-10-15-13-17(24(29)30-22(15)18)23-25-19-8-3-4-9-20(19)26-23/h3-4,8-11,13,16,28H,2,5-7,12,14H2,1H3,(H,25,26)/t16-/m0/s1

> <InChI Key>
RTWFMEFZEAPDJB-INIZCTEOSA-N

> <PERCENTSP3>
33.3

> <Link>
https://www.chemdiv.com/catalog/screening-compounds/compound-3570-0329/

> <MFCDNUMBER>
MFCD01911084

> <CLNUMBER>
CL3319

> <STEREO>
RACEMIC MIXTURE

> <State>
Solid

> <Similarity score>
0.21

$$$$
N-[(2,4-difluorophenyl)methyl]-1-(4-oxo-7-phenyl-3,4-dihydrothieno[3,2-d]pyrimid
  -OEChem-04222410502D

 34 38  0     0  0  0  0  0  0999 V2000
   -3.0507    0.4316    0.0000 C   0  0  0  0  0  0  0  0  0  0  0  0
   -3.0407   -0.5729    0.0000 C   0  0  0  0  0  0  0  0  0  0  0  0
   -1.3096    0.4316    0.0000 C   0  0  0  0  0  0  0  0  0  0  0  0
   -2.1879    0.9412    0.0000 N   0  0  0  0  0  0  0  0  0  0  0  0
   -1.3096   -0.5729    0.0000 N   0  0  0  0  0  0  0  0  0  0  0  0
   -2.1777   -1.0726    0.0000 C   0  0  0  0  0  0  0  0  0  0  0  0
   -3.9945    0.7292    0.0000 C   0  0  0  0  0  0  0  0  0  0  0  0
   -3.9896   -0.8858    0.0000 S   0  0  0  0  0  0  0  0  0  0  0  0
   -0.4467    0.9312    0.0000 N   0  0  0  0  0  0  0  0  0  0  0  0
   -4.5800   -0.0733    0.0000 C   0  0  0  0  0  0  0  0  0  0  0  0
    1.2793    0.9259    0.0000 C   0  0  3  0  0  0  0  0  0  0  0  0
    2.1525    0.4163    0.0000 C   0  0  0  0  0  0  0  0  0  0  0  0
    0.4165    0.4263    0.0000 C   0  0  0  0  0  0  0  0  0  0  0  0
    4.7316   -1.0875    0.0000 C   0  0  0  0  0  0  0  0  0  0  0  0
    3.8785   -0.5729    0.0000 C   0  0  0  0  0  0  0  0  0  0  0  0
    3.0206    0.9159    0.0000 N   0  0  0  0  0  0  0  0  0  0  0  0
    4.7316   -2.0718    0.0000 C   0  0  0  0  0  0  0  0  0  0  0  0
   -4.3125    1.6830    0.0000 C   0  0  0  0  0  0  0  0  0  0  0  0
   -2.1777   -2.0718    0.0000 O   0  0  0  0  0  0  0  0  0  0  0  0
    3.8835    0.4112    0.0000 C   0  0  0  0  0  0  0  0  0  0  0  0
    2.1423   -0.5829    0.0000 O   0  0  0  0  0  0  0  0  0  0  0  0
    3.0055   -1.0574    0.0000 C   0  0  0  0  0  0  0  0  0  0  0  0
    3.8534   -2.5714    0.0000 C   0  0  0  0  0  0  0  0  0  0  0  0
    5.6095   -0.5881    0.0000 F   0  0  0  0  0  0  0  0  0  0  0  0
   -0.4467    1.9253    0.0000 C   0  0  0  0  0  0  0  0  0  0  0  0
    2.9902   -2.0718    0.0000 C   0  0  0  0  0  0  0  0  0  0  0  0
    3.8483   -3.5706    0.0000 F   0  0  0  0  0  0  0  0  0  0  0  0
    1.2895    1.9253    0.0000 C   0  0  0  0  0  0  0  0  0  0  0  0
    0.4165    2.4251    0.0000 C   0  0  0  0  0  0  0  0  0  0  0  0
   -3.6413    2.4300    0.0000 C   0  0  0  0  0  0  0  0  0  0  0  0
   -5.2917    1.8950    0.0000 C   0  0  0  0  0  0  0  0  0  0  0  0
   -3.9591    3.3740    0.0000 C   0  0  0  0  0  0  0  0  0  0  0  0
   -5.6095    2.8288    0.0000 C   0  0  0  0  0  0  0  0  0  0  0  0
   -4.9334    3.5706    0.0000 C   0  0  0  0  0  0  0  0  0  0  0  0
  1  2  2  0  0  0  0
  3  4  2  0  0  0  0
  1  4  1  0  0  0  0
  3  5  1  0  0  0  0
  5  6  1  0  0  0  0
  2  6  1  0  0  0  0
  1  7  1  0  0  0  0
  2  8  1  0  0  0  0
  8 10  1  0  0  0  0
  3  9  1  0  0  0  0
  7 10  2  0  0  0  0
 11 13  1  0  0  0  0
 11 12  1  0  0  0  0
  9 13  1  0  0  0  0
 14 15  2  0  0  0  0
 15 20  1  0  0  0  0
 12 16  1  0  0  0  0
 14 17  1  0  0  0  0
 17 23  2  0  0  0  0
  7 18  1  0  0  0  0
  6 19  2  0  0  0  0
 16 20  1  0  0  0  0
 12 21  2  0  0  0  0
 15 22  1  0  0  0  0
 23 26  1  0  0  0  0
 14 24  1  0  0  0  0
  9 25  1  0  0  0  0
 22 26  2  0  0  0  0
 23 27  1  0  0  0  0
 28 29  1  0  0  0  0
 11 28  1  0  0  0  0
 25 29  1  0  0  0  0
 18 30  1  0  0  0  0
 18 31  2  0  0  0  0
 30 32  2  0  0  0  0
 31 33  1  0  0  0  0
 33 34  2  0  0  0  0
 32 34  1  0  0  0  0
M  END
> <IDNUMBER>
Z250-1301

> <available>
61

> <H_acceptor>
5

> <H_donor>
2

> <B_rotN>
6

> <N_O>
6

> <logP>
3.994

> <logD>
3.9939

> <logSw>
-4.1367

> <PSA>
60.798

> <pKa_ma>
11.0862

> <pKa_mb>
-1.8563

> <N_Chirals>
1

> <Name>
N-[(2,4-difluorophenyl)methyl]-1-(4-oxo-7-phenyl-3,4-dihydrothieno[3,2-d]pyrimidin-2-yl)piperidine-3-carboxamide

> <Smile>
O=C(C(CCC1)CN1C(NC1=O)=Nc2c1scc2-c1ccccc1)NCc(ccc(F)c1)c1F

> <Color>
NOT COLORED

> <Collection>
NC

> <InChI>
InChI=1S/C25H22F2N4O2S/c26-18-9-8-16(20(27)11-18)12-28-23(32)17-7-4-10-31(13-17)25-29-21-19(15-5-2-1-3-6-15)14-34-22(21)24(33)30-25/h1-3,5-6,8-9,11,14,17H,4,7,10,12-13H2,(H,28,32)(H,29,30,33)/t17-/m0/
s1

> <InChI Key>
JBVREQLXAXOOHE-KRWDZBQOSA-N

> <PERCENTSP3>
24

> <Link>
https://www.chemdiv.com/catalog/screening-compounds/compound-Z250-1301/

> <MFCDNUMBER>
MFCD18789155

> <CLNUMBER>
CL8892

> <STEREO>
RACEMIC MIXTURE

> <State>
Solid

> <Similarity score>
0.21

$$$$
4-(1,2,3,4-tetrahydrobenzo[a]phenanthridin-5-yl)benzene-1,2-diol
  -OEChem-04222410502D

 26 30  0     0  0  0  0  0  0999 V2000
    0.4277   -0.4880    0.0000 N   0  0  0  0  0  0  0  0  0  0  0  0
    0.4023    0.5196    0.0000 C   0  0  0  0  0  0  0  0  0  0  0  0
   -1.3021    0.4815    0.0000 C   0  0  0  0  0  0  0  0  0  0  0  0
   -1.3021   -0.4880    0.0000 C   0  0  0  0  0  0  0  0  0  0  0  0
   -0.4150    1.0012    0.0000 C   0  0  0  0  0  0  0  0  0  0  0  0
   -0.4150   -1.0012    0.0000 C   0  0  0  0  0  0  0  0  0  0  0  0
    1.2831    1.0012    0.0000 C   0  0  0  0  0  0  0  0  0  0  0  0
   -2.1575   -1.0012    0.0000 C   0  0  0  0  0  0  0  0  0  0  0  0
    2.1384    0.5196    0.0000 C   0  0  0  0  0  0  0  0  0  0  0  0
    2.9875    1.0012    0.0000 C   0  0  0  0  0  0  0  0  0  0  0  0
    3.0129    2.0022    0.0000 C   0  0  0  0  0  0  0  0  0  0  0  0
   -0.4150   -2.0086    0.0000 C   0  0  0  0  0  0  0  0  0  0  0  0
    1.2831    2.0022    0.0000 C   0  0  0  0  0  0  0  0  0  0  0  0
   -2.1575   -2.0086    0.0000 C   0  0  0  0  0  0  0  0  0  0  0  0
    2.1700    2.5218    0.0000 C   0  0  0  0  0  0  0  0  0  0  0  0
   -1.3021   -2.4965    0.0000 C   0  0  0  0  0  0  0  0  0  0  0  0
    3.8238    0.4688    0.0000 O   0  0  0  0  0  0  0  0  0  0  0  0
   -2.1639    1.0012    0.0000 C   0  0  0  0  0  0  0  0  0  0  0  0
    3.8873    2.4776    0.0000 O   0  0  0  0  0  0  0  0  0  0  0  0
   -0.4342    2.0212    0.0000 C   0  0  0  0  0  0  0  0  0  0  0  0
   -3.0319   -0.4880    0.0000 C   0  0  0  0  0  0  0  0  0  0  0  0
   -3.0002   -2.5218    0.0000 C   0  0  0  0  0  0  0  0  0  0  0  0
   -2.1828    2.0022    0.0000 C   0  0  0  0  0  0  0  0  0  0  0  0
   -1.3211    2.5218    0.0000 C   0  0  0  0  0  0  0  0  0  0  0  0
   -3.8873   -1.0012    0.0000 C   0  0  0  0  0  0  0  0  0  0  0  0
   -3.8557   -2.0086    0.0000 C   0  0  0  0  0  0  0  0  0  0  0  0
  1  2  2  0  0  0  0
  3  4  1  0  0  0  0
  3  5  2  0  0  0  0
  4  6  2  0  0  0  0
  2  5  1  0  0  0  0
  1  6  1  0  0  0  0
  2  7  1  0  0  0  0
  4  8  1  0  0  0  0
  8 14  2  0  0  0  0
  7  9  1  0  0  0  0
  9 10  2  0  0  0  0
 11 15  2  0  0  0  0
 10 11  1  0  0  0  0
  6 12  1  0  0  0  0
  7 13  2  0  0  0  0
 14 16  1  0  0  0  0
 13 15  1  0  0  0  0
 12 16  2  0  0  0  0
 10 17  1  0  0  0  0
  3 18  1  0  0  0  0
 11 19  1  0  0  0  0
  5 20  1  0  0  0  0
  8 21  1  0  0  0  0
 14 22  1  0  0  0  0
 18 23  1  0  0  0  0
 20 24  1  0  0  0  0
 23 24  1  0  0  0  0
 21 25  2  0  0  0  0
 25 26  1  0  0  0  0
 22 26  2  0  0  0  0
M  END
> <IDNUMBER>
0820-0895

> <available>
60

> <H_acceptor>
3

> <H_donor>
2

> <B_rotN>
1

> <N_O>
3

> <logP>
5.6686

> <logD>
5.6175

> <logSw>
-6.8911

> <PSA>
41.813

> <pKa_ma>
8.3765

> <pKa_mb>
5.6394

> <N_Chirals>
0

> <Name>
4-(1,2,3,4-tetrahydrobenzo[a]phenanthridin-5-yl)benzene-1,2-diol

> <Smile>
Oc(ccc(-c1nc2ccc(cccc3)c3c2c2c1CCCC2)c1)c1O

> <Color>
BROWN

> <Collection>
DC

> <InChI>
InChI=1S/C23H19NO2/c25-20-12-10-15(13-21(20)26)23-18-8-4-3-7-17(18)22-16-6-2-1-5-14(16)9-11-19(22)24-23/h1-2,5-6,9-13,25-26H,3-4,7-8H2

> <InChI Key>
IMWNOAJRQNURFJ-UHFFFAOYSA-N

> <PERCENTSP3>
17.4

> <Link>
https://www.chemdiv.com/catalog/screening-compounds/compound-0820-0895/

> <MFCDNUMBER>
MFCD00363369

> <STEREO>
ACHIRAL

> <State>
Solid

> <Similarity score>
0.21

$$$$
5-{4-[(2-fluorophenyl)methoxy]phenyl}-3-methyl-1,2,3,4-tetrahydrobenzo[a]phenant
  -OEChem-04222410502D

 34 39  0     0  0  0  0  0  0999 V2000
   -1.7956   -0.0346    0.0000 C   0  0  0  0  0  0  0  0  0  0  0  0
   -0.8150   -0.0346    0.0000 C   0  0  0  0  0  0  0  0  0  0  0  0
   -0.7806   -1.7320    0.0000 N   0  0  0  0  0  0  0  0  0  0  0  0
   -0.2973   -0.8723    0.0000 C   0  0  0  0  0  0  0  0  0  0  0  0
   -2.2789   -0.8723    0.0000 C   0  0  0  0  0  0  0  0  0  0  0  0
   -1.7862   -1.7320    0.0000 C   0  0  0  0  0  0  0  0  0  0  0  0
   -3.2532   -0.8723    0.0000 C   0  0  0  0  0  0  0  0  0  0  0  0
   -2.3039    0.8268    0.0000 C   0  0  0  0  0  0  0  0  0  0  0  0
    0.7147   -0.8723    0.0000 C   0  0  0  0  0  0  0  0  0  0  0  0
    3.7380    0.8504    0.0000 C   0  0  0  0  0  0  0  0  0  0  0  0
   -0.3193    0.8268    0.0000 C   0  0  0  0  0  0  0  0  0  0  0  0
   -2.2789   -2.6043    0.0000 C   0  0  0  0  0  0  0  0  0  0  0  0
    4.2448    1.6912    0.0000 C   0  0  0  0  0  0  0  0  0  0  0  0
    4.2697    0.0031    0.0000 C   0  0  0  0  0  0  0  0  0  0  0  0
   -3.7582   -1.7320    0.0000 C   0  0  0  0  0  0  0  0  0  0  0  0
   -3.2532   -2.6043    0.0000 C   0  0  0  0  0  0  0  0  0  0  0  0
    1.2198   -1.7416    0.0000 C   0  0  0  0  0  0  0  0  0  0  0  0
    1.2198    0.0127    0.0000 C   0  0  0  0  0  0  0  0  0  0  0  0
    3.7661   -0.8723    0.0000 O   0  0  0  0  0  0  0  0  0  0  0  0
    2.7543   -0.8723    0.0000 C   0  0  0  0  0  0  0  0  0  0  0  0
   -1.8614    1.6912    0.0000 C   0  0  0  0  0  0  0  0  0  0  0  0
    5.2675    1.6912    0.0000 F   0  0  0  0  0  0  0  0  0  0  0  0
    2.1847   -1.7416    0.0000 C   0  0  0  0  0  0  0  0  0  0  0  0
    2.1847    0.0127    0.0000 C   0  0  0  0  0  0  0  0  0  0  0  0
   -0.8277    1.6912    0.0000 C   0  0  3  0  0  0  0  0  0  0  0  0
   -3.7849   -0.0346    0.0000 C   0  0  0  0  0  0  0  0  0  0  0  0
    2.7166    0.8504    0.0000 C   0  0  0  0  0  0  0  0  0  0  0  0
    3.7128    2.6043    0.0000 C   0  0  0  0  0  0  0  0  0  0  0  0
   -4.7701   -1.7320    0.0000 C   0  0  0  0  0  0  0  0  0  0  0  0
   -0.3193    2.5385    0.0000 C   0  0  0  0  0  0  0  0  0  0  0  0
   -4.7701   -0.0346    0.0000 C   0  0  0  0  0  0  0  0  0  0  0  0
    2.2114    1.7194    0.0000 C   0  0  0  0  0  0  0  0  0  0  0  0
    2.7166    2.6043    0.0000 C   0  0  0  0  0  0  0  0  0  0  0  0
   -5.2675   -0.8723    0.0000 C   0  0  0  0  0  0  0  0  0  0  0  0
  1  2  2  0  0  0  0
  3  6  1  0  0  0  0
  2  4  1  0  0  0  0
  3  4  2  0  0  0  0
  1  5  1  0  0  0  0
  5  6  2  0  0  0  0
  5  7  1  0  0  0  0
  1  8  1  0  0  0  0
  4  9  1  0  0  0  0
 10 14  1  0  0  0  0
  2 11  1  0  0  0  0
 11 25  1  0  0  0  0
  6 12  1  0  0  0  0
 10 13  1  0  0  0  0
 14 19  1  0  0  0  0
  7 15  2  0  0  0  0
 15 16  1  0  0  0  0
 12 16  2  0  0  0  0
  9 17  1  0  0  0  0
  9 18  2  0  0  0  0
 19 20  1  0  0  0  0
 20 24  2  0  0  0  0
  8 21  1  0  0  0  0
 13 22  1  0  0  0  0
 17 23  2  0  0  0  0
 20 23  1  0  0  0  0
 18 24  1  0  0  0  0
 21 25  1  0  0  0  0
 25 30  1  0  0  0  0
  7 26  1  0  0  0  0
 10 27  2  0  0  0  0
 13 28  2  0  0  0  0
 28 33  1  0  0  0  0
 15 29  1  0  0  0  0
 29 34  2  0  0  0  0
 26 31  2  0  0  0  0
 27 32  1  0  0  0  0
 32 33  2  0  0  0  0
 31 34  1  0  0  0  0
M  END
> <IDNUMBER>
8012-9716

> <available>
54

> <H_acceptor>
2

> <H_donor>
0

> <B_rotN>
4

> <N_O>
2

> <logP>
8.3289

> <logD>
8.3287

> <logSw>
-7.1718

> <PSA>
15.9446

> <pKa_ma>
20.7849

> <pKa_mb>
3.9832

> <N_Chirals>
1

> <Name>
5-{4-[(2-fluorophenyl)methoxy]phenyl}-3-methyl-1,2,3,4-tetrahydrobenzo[a]phenanthridine

> <Smile>
CC(CC1)Cc2c1c1c(cccc3)c3ccc1nc2-c(cc1)ccc1OCc(cccc1)c1F

> <Color>
NOT COLORED

> <Collection>
DC

> <InChI>
InChI=1S/C31H26FNO/c1-20-10-16-26-27(18-20)31(33-29-17-13-21-6-2-4-8-25(21)30(26)29)22-11-14-24(15-12-22)34-19-23-7-3-5-9-28(23)32/h2-9,11-15,17,20H,10,16,18-19H2,1H3/t20-/m1/s1

> <InChI Key>
GQKITBQIWIUBLA-HXUWFJFHSA-N

> <PERCENTSP3>
19.4

> <Link>
https://www.chemdiv.com/catalog/screening-compounds/compound-8012-9716/

> <MFCDNUMBER>
MFCD03308386

> <STEREO>
RACEMIC MIXTURE

> <State>
Solid

> <Similarity score>
0.21

$$$$
ethyl 1-(3-benzoyl-6-fluoroquinolin-4-yl)piperidine-3-carboxylate
  -OEChem-04222410502D

 30 33  0     0  0  0  0  0  0999 V2000
    0.8690   -1.5151    0.0000 C   0  0  0  0  0  0  0  0  0  0  0  0
   -0.0076   -1.0152    0.0000 C   0  0  0  0  0  0  0  0  0  0  0  0
   -0.0076   -0.0121    0.0000 N   0  0  0  0  0  0  0  0  0  0  0  0
   -0.8751   -1.5151    0.0000 C   0  0  0  0  0  0  0  0  0  0  0  0
    1.7274   -1.0152    0.0000 C   0  0  0  0  0  0  0  0  0  0  0  0
   -0.8751    1.4970    0.0000 C   0  0  3  0  0  0  0  0  0  0  0  0
    0.8690   -2.5153    0.0000 C   0  0  0  0  0  0  0  0  0  0  0  0
   -0.8751    0.4911    0.0000 C   0  0  0  0  0  0  0  0  0  0  0  0
   -0.0076   -3.0122    0.0000 N   0  0  0  0  0  0  0  0  0  0  0  0
   -1.7516    2.0001    0.0000 C   0  0  0  0  0  0  0  0  0  0  0  0
   -0.8751   -2.5153    0.0000 C   0  0  0  0  0  0  0  0  0  0  0  0
   -1.7336   -1.0152    0.0000 C   0  0  0  0  0  0  0  0  0  0  0  0
    1.7455   -0.0150    0.0000 O   0  0  0  0  0  0  0  0  0  0  0  0
    2.5950   -1.5151    0.0000 C   0  0  0  0  0  0  0  0  0  0  0  0
   -1.7336    3.0122    0.0000 O   0  0  0  0  0  0  0  0  0  0  0  0
   -1.7336   -3.0122    0.0000 C   0  0  0  0  0  0  0  0  0  0  0  0
    0.8510    0.4911    0.0000 C   0  0  0  0  0  0  0  0  0  0  0  0
   -2.5950   -1.5151    0.0000 C   0  0  0  0  0  0  0  0  0  0  0  0
   -2.6130    1.5031    0.0000 O   0  0  0  0  0  0  0  0  0  0  0  0
   -2.5950   -2.5153    0.0000 C   0  0  0  0  0  0  0  0  0  0  0  0
   -3.4596   -1.0089    0.0000 F   0  0  0  0  0  0  0  0  0  0  0  0
   -0.0076    1.9941    0.0000 C   0  0  0  0  0  0  0  0  0  0  0  0
    0.8510    1.4970    0.0000 C   0  0  0  0  0  0  0  0  0  0  0  0
    3.4534   -1.0152    0.0000 C   0  0  0  0  0  0  0  0  0  0  0  0
    2.5950   -2.5153    0.0000 C   0  0  0  0  0  0  0  0  0  0  0  0
   -3.4777    2.0001    0.0000 C   0  0  0  0  0  0  0  0  0  0  0  0
   -4.3361    1.5031    0.0000 C   0  0  0  0  0  0  0  0  0  0  0  0
    3.4534   -3.0122    0.0000 C   0  0  0  0  0  0  0  0  0  0  0  0
    4.3361   -1.5151    0.0000 C   0  0  0  0  0  0  0  0  0  0  0  0
    4.3181   -2.5153    0.0000 C   0  0  0  0  0  0  0  0  0  0  0  0
  1  2  2  0  0  0  0
  2  3  1  0  0  0  0
  2  4  1  0  0  0  0
  4 11  1  0  0  0  0
  1  5  1  0  0  0  0
  6  8  1  0  0  0  0
  6 22  1  0  0  0  0
  1  7  1  0  0  0  0
  3  8  1  0  0  0  0
  7  9  2  0  0  0  0
  6 10  1  0  0  0  0
  9 11  1  0  0  0  0
  4 12  2  0  0  0  0
  5 13  2  0  0  0  0
  5 14  1  0  0  0  0
 10 15  2  0  0  0  0
 11 16  2  0  0  0  0
  3 17  1  0  0  0  0
 12 18  1  0  0  0  0
 10 19  1  0  0  0  0
 16 20  1  0  0  0  0
 18 20  2  0  0  0  0
 18 21  1  0  0  0  0
 22 23  1  0  0  0  0
 17 23  1  0  0  0  0
 14 24  1  0  0  0  0
 14 25  2  0  0  0  0
 19 26  1  0  0  0  0
 26 27  1  0  0  0  0
 25 28  1  0  0  0  0
 24 29  2  0  0  0  0
 28 30  2  0  0  0  0
 29 30  1  0  0  0  0
M  END
> <IDNUMBER>
C768-0079

> <available>
27

> <H_acceptor>
6

> <H_donor>
0

> <B_rotN>
6

> <N_O>
5

> <logP>
4.5625

> <logD>
4.5625

> <logSw>
-4.2155

> <PSA>
46.096

> <pKa_ma>
22.0477

> <pKa_mb>
3.0268

> <N_Chirals>
1

> <Name>
ethyl 1-(3-benzoyl-6-fluoroquinolin-4-yl)piperidine-3-carboxylate

> <Smile>
CCOC(C(CCC1)CN1c1c(cc(cc2)F)c2ncc1C(c1ccccc1)=O)=O

> <Color>
YELLOW

> <Collection>
DC

> <InChI>
InChI=1S/C24H23FN2O3/c1-2-30-24(29)17-9-6-12-27(15-17)22-19-13-18(25)10-11-21(19)26-14-20(22)23(28)16-7-4-3-5-8-16/h3-5,7-8,10-11,13-14,17H,2,6,9,12,15H2,1H3/t17-/m0/s1

> <InChI Key>
PULUNYJZAPXCAY-KRWDZBQOSA-N

> <PERCENTSP3>
29.2

> <Link>
https://www.chemdiv.com/catalog/screening-compounds/compound-C768-0079/

> <MFCDNUMBER>
MFCD14792661

> <CLNUMBER>
CL3581

> <STEREO>
RACEMIC MIXTURE

> <CAS>
902942-92-1

> <State>
Solid

> <Similarity score>
0.21

$$$$
1-(9-fluoro[1]benzothieno[3,2-d]pyrimidin-4-yl)-N-[(3-methoxyphenyl)methyl]piper
  -OEChem-04222410502D

 32 36  0     0  0  0  0  0  0999 V2000
   -2.8369    0.2168    0.0000 C   0  0  0  0  0  0  0  0  0  0  0  0
   -3.4362    1.0280    0.0000 C   0  0  0  0  0  0  0  0  0  0  0  0
   -3.4212   -0.5995    0.0000 S   0  0  0  0  0  0  0  0  0  0  0  0
   -1.8492    0.3224    0.0000 C   0  0  0  0  0  0  0  0  0  0  0  0
   -4.3886    0.7055    0.0000 C   0  0  0  0  0  0  0  0  0  0  0  0
   -1.2596   -0.4888    0.0000 N   0  0  0  0  0  0  0  0  0  0  0  0
   -4.3786   -0.2974    0.0000 C   0  0  0  0  0  0  0  0  0  0  0  0
    0.3125   -1.1892    0.0000 C   0  0  3  0  0  0  0  0  0  0  0  0
    1.3049   -1.0833    0.0000 C   0  0  0  0  0  0  0  0  0  0  0  0
   -1.4411    1.2346    0.0000 N   0  0  0  0  0  0  0  0  0  0  0  0
   -0.2771   -0.3728    0.0000 C   0  0  0  0  0  0  0  0  0  0  0  0
   -3.0283    1.9400    0.0000 N   0  0  0  0  0  0  0  0  0  0  0  0
    1.8846   -1.8947    0.0000 N   0  0  0  0  0  0  0  0  0  0  0  0
   -5.2503    1.2094    0.0000 C   0  0  0  0  0  0  0  0  0  0  0  0
   -2.0305    2.0458    0.0000 C   0  0  0  0  0  0  0  0  0  0  0  0
    1.7131   -0.1765    0.0000 O   0  0  0  0  0  0  0  0  0  0  0  0
    2.8822   -1.7937    0.0000 C   0  0  0  0  0  0  0  0  0  0  0  0
   -1.6678   -1.3958    0.0000 C   0  0  0  0  0  0  0  0  0  0  0  0
   -5.2553    2.2018    0.0000 F   0  0  0  0  0  0  0  0  0  0  0  0
    4.2879   -0.7961    0.0000 C   0  0  0  0  0  0  0  0  0  0  0  0
    3.2854   -0.8870    0.0000 C   0  0  0  0  0  0  0  0  0  0  0  0
   -5.2503   -0.7961    0.0000 C   0  0  0  0  0  0  0  0  0  0  0  0
    4.7062    0.1110    0.0000 C   0  0  0  0  0  0  0  0  0  0  0  0
   -0.0957   -2.0962    0.0000 C   0  0  0  0  0  0  0  0  0  0  0  0
    5.6936    0.2065    0.0000 O   0  0  0  0  0  0  0  0  0  0  0  0
   -1.0935   -2.2018    0.0000 C   0  0  0  0  0  0  0  0  0  0  0  0
   -6.1119   -0.2974    0.0000 C   0  0  0  0  0  0  0  0  0  0  0  0
    3.1240    0.8515    0.0000 C   0  0  0  0  0  0  0  0  0  0  0  0
   -6.1119    0.7055    0.0000 C   0  0  0  0  0  0  0  0  0  0  0  0
    2.7007   -0.0707    0.0000 C   0  0  0  0  0  0  0  0  0  0  0  0
    4.1217    0.9323    0.0000 C   0  0  0  0  0  0  0  0  0  0  0  0
    6.1119    1.1086    0.0000 C   0  0  0  0  0  0  0  0  0  0  0  0
  1  2  2  0  0  0  0
  1  3  1  0  0  0  0
  1  4  1  0  0  0  0
  2  5  1  0  0  0  0
  5  7  1  0  0  0  0
  4  6  1  0  0  0  0
  3  7  1  0  0  0  0
  8 11  1  0  0  0  0
  8  9  1  0  0  0  0
  4 10  2  0  0  0  0
  6 11  1  0  0  0  0
  2 12  1  0  0  0  0
  9 13  1  0  0  0  0
  5 14  2  0  0  0  0
 10 15  1  0  0  0  0
 12 15  2  0  0  0  0
  9 16  2  0  0  0  0
 13 17  1  0  0  0  0
  6 18  1  0  0  0  0
 14 19  1  0  0  0  0
 20 21  2  0  0  0  0
 17 21  1  0  0  0  0
  7 22  2  0  0  0  0
 20 23  1  0  0  0  0
 24 26  1  0  0  0  0
  8 24  1  0  0  0  0
 23 25  1  0  0  0  0
 18 26  1  0  0  0  0
 22 27  1  0  0  0  0
 28 30  2  0  0  0  0
 14 29  1  0  0  0  0
 27 29  2  0  0  0  0
 21 30  1  0  0  0  0
 28 31  1  0  0  0  0
 23 31  2  0  0  0  0
 25 32  1  0  0  0  0
M  END
> <IDNUMBER>
C860-1045

> <available>
2

> <H_acceptor>
5

> <H_donor>
1

> <B_rotN>
6

> <N_O>
6

> <logP>
4.4917

> <logD>
4.4548

> <logSw>
-4.5511

> <PSA>
56.557

> <pKa_ma>
12.8587

> <pKa_mb>
6.3482

> <N_Chirals>
1

> <Name>
1-(9-fluoro[1]benzothieno[3,2-d]pyrimidin-4-yl)-N-[(3-methoxyphenyl)methyl]piperidine-3-carboxamide

> <Smile>
COc1cccc(CNC(C(CCC2)CN2c(ncnc23)c2sc2c3c(F)ccc2)=O)c1

> <Color>
NOT COLORED

> <Collection>
DC

> <InChI>
InChI=1S/C24H23FN4O2S/c1-31-17-7-2-5-15(11-17)12-26-24(30)16-6-4-10-29(13-16)23-22-21(27-14-28-23)20-18(25)8-3-9-19(20)32-22/h2-3,5,7-9,11,14,16H,4,6,10,12-13H2,1H3,(H,26,30)/t16-/m0/s1

> <InChI Key>
FFOVXNSJYCLJLT-INIZCTEOSA-N

> <PERCENTSP3>
29.2

> <Link>
https://www.chemdiv.com/catalog/screening-compounds/compound-C860-1045/

> <MFCDNUMBER>
MFCD14801711

> <CLNUMBER>
CL4052B

> <STEREO>
RACEMIC MIXTURE

> <State>
Solid

> <Similarity score>
0.21

$$$$
3-(4-ethoxyphenyl)-6,8-difluoro-1-(4-methylphenyl)-1H-pyrazolo[4,3-c]quinoline
  -OEChem-04222410502D

 31 35  0     0  0  0  0  0  0999 V2000
   -1.5767    0.4401    0.0000 N   0  0  0  0  0  0  0  0  0  0  0  0
   -0.9116   -1.0289    0.0000 C   0  0  0  0  0  0  0  0  0  0  0  0
   -1.7895   -0.5317    0.0000 C   0  0  0  0  0  0  0  0  0  0  0  0
   -0.5755    0.5409    0.0000 N   0  0  0  0  0  0  0  0  0  0  0  0
   -0.1522   -0.3503    0.0000 C   0  0  0  0  0  0  0  0  0  0  0  0
   -2.6743   -1.0289    0.0000 C   0  0  0  0  0  0  0  0  0  0  0  0
   -2.6743   -2.0258    0.0000 C   0  0  0  0  0  0  0  0  0  0  0  0
   -1.7895   -2.5205    0.0000 N   0  0  0  0  0  0  0  0  0  0  0  0
   -0.9116   -2.0258    0.0000 C   0  0  0  0  0  0  0  0  0  0  0  0
   -3.5364   -2.5205    0.0000 C   0  0  0  0  0  0  0  0  0  0  0  0
   -2.2060    1.2106    0.0000 C   0  0  0  0  0  0  0  0  0  0  0  0
   -4.4121   -2.0258    0.0000 C   0  0  0  0  0  0  0  0  0  0  0  0
    0.8556   -0.4557    0.0000 C   0  0  0  0  0  0  0  0  0  0  0  0
   -3.5364   -0.5317    0.0000 C   0  0  0  0  0  0  0  0  0  0  0  0
   -4.4121   -1.0289    0.0000 C   0  0  0  0  0  0  0  0  0  0  0  0
   -1.8432    2.1332    0.0000 C   0  0  0  0  0  0  0  0  0  0  0  0
   -3.1736    1.0561    0.0000 C   0  0  0  0  0  0  0  0  0  0  0  0
    1.2676   -1.3559    0.0000 C   0  0  0  0  0  0  0  0  0  0  0  0
    1.4333    0.3595    0.0000 C   0  0  0  0  0  0  0  0  0  0  0  0
   -3.5364   -3.5175    0.0000 F   0  0  0  0  0  0  0  0  0  0  0  0
   -5.2721   -0.5317    0.0000 F   0  0  0  0  0  0  0  0  0  0  0  0
    2.8802   -0.6371    0.0000 C   0  0  0  0  0  0  0  0  0  0  0  0
    2.4456    0.2745    0.0000 C   0  0  0  0  0  0  0  0  0  0  0  0
    2.2754   -1.4521    0.0000 C   0  0  0  0  0  0  0  0  0  0  0  0
   -3.7985    1.8152    0.0000 C   0  0  0  0  0  0  0  0  0  0  0  0
   -2.4794    2.9038    0.0000 C   0  0  0  0  0  0  0  0  0  0  0  0
   -3.4446    2.7471    0.0000 C   0  0  0  0  0  0  0  0  0  0  0  0
    3.8657   -0.7266    0.0000 O   0  0  0  0  0  0  0  0  0  0  0  0
    4.2844   -1.6427    0.0000 C   0  0  0  0  0  0  0  0  0  0  0  0
   -4.0786    3.5175    0.0000 C   0  0  0  0  0  0  0  0  0  0  0  0
    5.2721   -1.7390    0.0000 C   0  0  0  0  0  0  0  0  0  0  0  0
  2  3  2  0  0  0  0
  2  5  1  0  0  0  0
  1  3  1  0  0  0  0
  1  4  1  0  0  0  0
  4  5  2  0  0  0  0
  3  6  1  0  0  0  0
  6  7  1  0  0  0  0
  7  8  1  0  0  0  0
  8  9  2  0  0  0  0
  2  9  1  0  0  0  0
  7 10  2  0  0  0  0
  1 11  1  0  0  0  0
 12 15  2  0  0  0  0
 10 12  1  0  0  0  0
  5 13  1  0  0  0  0
  6 14  2  0  0  0  0
 14 15  1  0  0  0  0
 11 16  2  0  0  0  0
 11 17  1  0  0  0  0
 13 18  2  0  0  0  0
 13 19  1  0  0  0  0
 10 20  1  0  0  0  0
 15 21  1  0  0  0  0
 22 23  1  0  0  0  0
 19 23  2  0  0  0  0
 18 24  1  0  0  0  0
 22 24  2  0  0  0  0
 17 25  2  0  0  0  0
 16 26  1  0  0  0  0
 26 27  2  0  0  0  0
 25 27  1  0  0  0  0
 22 28  1  0  0  0  0
 28 29  1  0  0  0  0
 27 30  1  0  0  0  0
 29 31  1  0  0  0  0
M  END
> <IDNUMBER>
C350-0828

> <available>
170

> <H_acceptor>
3

> <H_donor>
0

> <B_rotN>
4

> <N_O>
4

> <logP>
6.219

> <logD>
6.219

> <logSw>
-5.5614

> <PSA>
30.6039

> <pKa_ma>
28.3737

> <pKa_mb>
2.3022

> <N_Chirals>
0

> <Name>
3-(4-ethoxyphenyl)-6,8-difluoro-1-(4-methylphenyl)-1H-pyrazolo[4,3-c]quinoline

> <Smile>
CCOc(cc1)ccc1-c(c1cnc2c(F)cc(F)cc2c11)nn1-c1ccc(C)cc1

> <Color>
NOT COLORED

> <Collection>
DC

> <InChI>
InChI=1S/C25H19F2N3O/c1-3-31-19-10-6-16(7-11-19)23-21-14-28-24-20(12-17(26)13-22(24)27)25(21)30(29-23)18-8-4-15(2)5-9-18/h4-14H,3H2,1-2H3

> <InChI Key>
PZUQLGDLBXFWIG-UHFFFAOYSA-N

> <PERCENTSP3>
12

> <Link>
https://www.chemdiv.com/catalog/screening-compounds/compound-C350-0828/

> <MFCDNUMBER>
MFCD14750694

> <CLNUMBER>
CL4130

> <STEREO>
ACHIRAL

> <State>
Solid

> <Similarity score>
0.21

$$$$
N-[(2,4-difluorophenyl)methyl]-1-[7-(4-methylphenyl)-4-oxo-3,4-dihydrothieno[3,2
  -OEChem-04222410502D

 35 39  0     0  0  0  0  0  0999 V2000
   -3.0506   -0.0454    0.0000 C   0  0  0  0  0  0  0  0  0  0  0  0
   -3.0406   -1.0498    0.0000 C   0  0  0  0  0  0  0  0  0  0  0  0
   -1.3095   -0.0454    0.0000 C   0  0  0  0  0  0  0  0  0  0  0  0
   -2.1877    0.4643    0.0000 N   0  0  0  0  0  0  0  0  0  0  0  0
   -1.3095   -1.0498    0.0000 N   0  0  0  0  0  0  0  0  0  0  0  0
   -2.1775   -1.5493    0.0000 C   0  0  0  0  0  0  0  0  0  0  0  0
   -3.9943    0.2522    0.0000 C   0  0  0  0  0  0  0  0  0  0  0  0
   -3.9893   -1.3627    0.0000 S   0  0  0  0  0  0  0  0  0  0  0  0
   -0.4466    0.4542    0.0000 N   0  0  0  0  0  0  0  0  0  0  0  0
   -4.5796   -0.5502    0.0000 C   0  0  0  0  0  0  0  0  0  0  0  0
    1.2792    0.4491    0.0000 C   0  0  3  0  0  0  0  0  0  0  0  0
    2.1523   -0.0606    0.0000 C   0  0  0  0  0  0  0  0  0  0  0  0
    0.4161   -0.0505    0.0000 C   0  0  0  0  0  0  0  0  0  0  0  0
    4.7309   -1.5644    0.0000 C   0  0  0  0  0  0  0  0  0  0  0  0
   -4.3123    1.2061    0.0000 C   0  0  0  0  0  0  0  0  0  0  0  0
    3.8781   -1.0498    0.0000 C   0  0  0  0  0  0  0  0  0  0  0  0
    3.0203    0.4391    0.0000 N   0  0  0  0  0  0  0  0  0  0  0  0
    4.7309   -2.5486    0.0000 C   0  0  0  0  0  0  0  0  0  0  0  0
   -2.1775   -2.5486    0.0000 O   0  0  0  0  0  0  0  0  0  0  0  0
    3.8830   -0.0656    0.0000 C   0  0  0  0  0  0  0  0  0  0  0  0
    2.1421   -1.0599    0.0000 O   0  0  0  0  0  0  0  0  0  0  0  0
    3.0052   -1.5341    0.0000 C   0  0  0  0  0  0  0  0  0  0  0  0
   -3.6410    1.9530    0.0000 C   0  0  0  0  0  0  0  0  0  0  0  0
   -5.2911    1.4180    0.0000 C   0  0  0  0  0  0  0  0  0  0  0  0
    3.8529   -3.0480    0.0000 C   0  0  0  0  0  0  0  0  0  0  0  0
    5.6091   -1.0648    0.0000 F   0  0  0  0  0  0  0  0  0  0  0  0
   -0.4466    1.4482    0.0000 C   0  0  0  0  0  0  0  0  0  0  0  0
    2.9900   -2.5486    0.0000 C   0  0  0  0  0  0  0  0  0  0  0  0
   -5.6091    2.3516    0.0000 C   0  0  0  0  0  0  0  0  0  0  0  0
   -3.9589    2.8967    0.0000 C   0  0  0  0  0  0  0  0  0  0  0  0
    3.8478   -4.0471    0.0000 F   0  0  0  0  0  0  0  0  0  0  0  0
   -4.9330    3.0934    0.0000 C   0  0  0  0  0  0  0  0  0  0  0  0
    1.2892    1.4482    0.0000 C   0  0  0  0  0  0  0  0  0  0  0  0
    0.4161    1.9479    0.0000 C   0  0  0  0  0  0  0  0  0  0  0  0
   -5.2459    4.0471    0.0000 C   0  0  0  0  0  0  0  0  0  0  0  0
  1  2  2  0  0  0  0
  3  4  2  0  0  0  0
  1  4  1  0  0  0  0
  3  5  1  0  0  0  0
  5  6  1  0  0  0  0
  2  6  1  0  0  0  0
  1  7  1  0  0  0  0
  2  8  1  0  0  0  0
  8 10  1  0  0  0  0
  3  9  1  0  0  0  0
  7 10  2  0  0  0  0
 11 13  1  0  0  0  0
 11 12  1  0  0  0  0
  9 13  1  0  0  0  0
 14 16  2  0  0  0  0
  7 15  1  0  0  0  0
 16 20  1  0  0  0  0
 12 17  1  0  0  0  0
 14 18  1  0  0  0  0
 18 25  2  0  0  0  0
  6 19  2  0  0  0  0
 17 20  1  0  0  0  0
 12 21  2  0  0  0  0
 16 22  1  0  0  0  0
 15 23  1  0  0  0  0
 15 24  2  0  0  0  0
 25 28  1  0  0  0  0
 14 26  1  0  0  0  0
  9 27  1  0  0  0  0
 22 28  2  0  0  0  0
 24 29  1  0  0  0  0
 23 30  2  0  0  0  0
 25 31  1  0  0  0  0
 29 32  2  0  0  0  0
 30 32  1  0  0  0  0
 33 34  1  0  0  0  0
 11 33  1  0  0  0  0
 27 34  1  0  0  0  0
 32 35  1  0  0  0  0
M  END
> <IDNUMBER>
Z250-1377

> <available>
58

> <H_acceptor>
5

> <H_donor>
2

> <B_rotN>
6

> <N_O>
6

> <logP>
4.5225

> <logD>
4.5224

> <logSw>
-4.2896

> <PSA>
60.798

> <pKa_ma>
11.0862

> <pKa_mb>
-1.8563

> <N_Chirals>
1

> <Name>
N-[(2,4-difluorophenyl)methyl]-1-[7-(4-methylphenyl)-4-oxo-3,4-dihydrothieno[3,2-d]pyrimidin-2-yl]piperidine-3-carboxamide

> <Smile>
Cc(cc1)ccc1-c1csc(C(N2)=O)c1N=C2N(CCC1)CC1C(NCc(ccc(F)c1)c1F)=O

> <Color>
NOT COLORED

> <Collection>
NC

> <InChI>
InChI=1S/C26H24F2N4O2S/c1-15-4-6-16(7-5-15)20-14-35-23-22(20)30-26(31-25(23)34)32-10-2-3-18(13-32)24(33)29-12-17-8-9-19(27)11-21(17)28/h4-9,11,14,18H,2-3,10,12-13H2,1H3,(H,29,33)(H,30,31,34)/t18-/m0/s
1

> <InChI Key>
CQFJOZQNCOZXEM-SFHVURJKSA-N

> <PERCENTSP3>
26.9

> <Link>
https://www.chemdiv.com/catalog/screening-compounds/compound-Z250-1377/

> <MFCDNUMBER>
MFCD18789204

> <CLNUMBER>
CL8892

> <STEREO>
RACEMIC MIXTURE

> <State>
Solid

> <Similarity score>
0.21

$$$$
N-[(2,5-dimethoxyphenyl)methyl]-1-[3-(4-fluorophenyl)[1,2]oxazolo[5,4-d]pyrimidi
  -OEChem-04222410502D

 36 40  0     0  0  0  0  0  0999 V2000
   -1.4184   -1.7167    0.0000 C   0  0  0  0  0  0  0  0  0  0  0  0
   -0.6600   -1.0796    0.0000 C   0  0  0  0  0  0  0  0  0  0  0  0
   -2.8447   -2.4753    0.0000 N   0  0  0  0  0  0  0  0  0  0  0  0
   -2.4046   -1.5699    0.0000 C   0  0  0  0  0  0  0  0  0  0  0  0
   -0.8268   -0.0936    0.0000 N   0  0  0  0  0  0  0  0  0  0  0  0
   -1.2516   -2.7029    0.0000 C   0  0  0  0  0  0  0  0  0  0  0  0
   -2.1314   -3.1629    0.0000 O   0  0  0  0  0  0  0  0  0  0  0  0
   -0.2252    1.5298    0.0000 C   0  0  3  0  0  0  0  0  0  0  0  0
    0.5537    2.1669    0.0000 C   0  0  0  0  0  0  0  0  0  0  0  0
    0.2805   -1.4183    0.0000 N   0  0  0  0  0  0  0  0  0  0  0  0
   -0.0584    0.5537    0.0000 C   0  0  0  0  0  0  0  0  0  0  0  0
   -0.3111   -3.0416    0.0000 N   0  0  0  0  0  0  0  0  0  0  0  0
    2.5966    0.4676    0.0000 C   0  0  0  0  0  0  0  0  0  0  0  0
    1.4941    1.8127    0.0000 N   0  0  0  0  0  0  0  0  0  0  0  0
   -3.0717   -0.8266    0.0000 C   0  0  0  0  0  0  0  0  0  0  0  0
    0.4573   -2.4045    0.0000 C   0  0  0  0  0  0  0  0  0  0  0  0
    1.6611    0.8266    0.0000 C   0  0  0  0  0  0  0  0  0  0  0  0
    2.7635   -0.5235    0.0000 C   0  0  0  0  0  0  0  0  0  0  0  0
    3.3703    1.1049    0.0000 C   0  0  0  0  0  0  0  0  0  0  0  0
    0.3868    3.1629    0.0000 O   0  0  0  0  0  0  0  0  0  0  0  0
   -2.7685    0.1189    0.0000 C   0  0  0  0  0  0  0  0  0  0  0  0
   -4.0481   -1.0391    0.0000 C   0  0  0  0  0  0  0  0  0  0  0  0
    3.6938   -0.8723    0.0000 C   0  0  0  0  0  0  0  0  0  0  0  0
    4.3007    0.7561    0.0000 C   0  0  0  0  0  0  0  0  0  0  0  0
   -1.7673    0.2502    0.0000 C   0  0  0  0  0  0  0  0  0  0  0  0
   -4.4071    0.6598    0.0000 C   0  0  0  0  0  0  0  0  0  0  0  0
    4.4675   -0.2350    0.0000 C   0  0  0  0  0  0  0  0  0  0  0  0
   -4.7153   -0.2908    0.0000 C   0  0  0  0  0  0  0  0  0  0  0  0
   -3.4261    0.8622    0.0000 C   0  0  0  0  0  0  0  0  0  0  0  0
   -5.0744    1.4085    0.0000 F   0  0  0  0  0  0  0  0  0  0  0  0
   -1.1757    1.8735    0.0000 C   0  0  0  0  0  0  0  0  0  0  0  0
    1.9899   -1.1603    0.0000 O   0  0  0  0  0  0  0  0  0  0  0  0
    5.0744    1.4031    0.0000 O   0  0  0  0  0  0  0  0  0  0  0  0
   -1.9341    1.2362    0.0000 C   0  0  0  0  0  0  0  0  0  0  0  0
    1.0545   -0.8114    0.0000 C   0  0  0  0  0  0  0  0  0  0  0  0
    4.9025    2.3892    0.0000 C   0  0  0  0  0  0  0  0  0  0  0  0
  1  2  1  0  0  0  0
  3  4  2  0  0  0  0
  3  7  1  0  0  0  0
  1  4  1  0  0  0  0
  2  5  1  0  0  0  0
  1  6  2  0  0  0  0
  6  7  1  0  0  0  0
  8 11  1  0  0  0  0
  8 31  1  0  0  0  0
  8  9  1  0  0  0  0
  2 10  2  0  0  0  0
  5 11  1  0  0  0  0
  6 12  1  0  0  0  0
 13 17  1  0  0  0  0
  9 14  1  0  0  0  0
  4 15  1  0  0  0  0
 12 16  2  0  0  0  0
 10 16  1  0  0  0  0
 14 17  1  0  0  0  0
 13 18  2  0  0  0  0
 13 19  1  0  0  0  0
  9 20  2  0  0  0  0
 15 21  2  0  0  0  0
 15 22  1  0  0  0  0
 18 23  1  0  0  0  0
 19 24  2  0  0  0  0
  5 25  1  0  0  0  0
 26 28  1  0  0  0  0
 24 27  1  0  0  0  0
 23 27  2  0  0  0  0
 22 28  2  0  0  0  0
 21 29  1  0  0  0  0
 26 29  2  0  0  0  0
 26 30  1  0  0  0  0
 31 34  1  0  0  0  0
 18 32  1  0  0  0  0
 24 33  1  0  0  0  0
 25 34  1  0  0  0  0
 32 35  1  0  0  0  0
 33 36  1  0  0  0  0
M  END
> <IDNUMBER>
E945-0147

> <available>
92

> <H_acceptor>
8

> <H_donor>
1

> <B_rotN>
8

> <N_O>
9

> <logP>
3.6858

> <logD>
3.6858

> <logSw>
-4.1049

> <PSA>
85.056

> <pKa_ma>
12.8587

> <pKa_mb>
2.7118

> <N_Chirals>
1

> <Name>
N-[(2,5-dimethoxyphenyl)methyl]-1-[3-(4-fluorophenyl)[1,2]oxazolo[5,4-d]pyrimidin-4-yl]piperidine-3-carboxamide

> <Smile>
COc(cc1)cc(CNC(C(CCC2)CN2c2c(c(-c(cc3)ccc3F)no3)c3ncn2)=O)c1OC

> <Color>
NOT COLORED

> <Collection>
DC

> <InChI>
InChI=1S/C26H26FN5O4/c1-34-20-9-10-21(35-2)18(12-20)13-28-25(33)17-4-3-11-32(14-17)24-22-23(16-5-7-19(27)8-6-16)31-36-26(22)30-15-29-24/h5-10,12,15,17H,3-4,11,13-14H2,1-2H3,(H,28,33)/t17-/m0/s1

> <InChI Key>
HOONHCYLJKRTBO-KRWDZBQOSA-N

> <PERCENTSP3>
30.8

> <Link>
https://www.chemdiv.com/catalog/screening-compounds/compound-E945-0147/

> <MFCDNUMBER>
MFCD14929318

> <CLNUMBER>
CL5510B

> <STEREO>
RACEMIC MIXTURE

> <State>
Solid

> <Similarity score>
0.21

$$$$
1-[(2-chloro-6-fluorophenyl)methyl]-4-{3-[3-(propan-2-yl)-1,2,4-oxadiazol-5-yl]p
  -OEChem-04222410502D

 30 33  0     0  0  0  0  0  0999 V2000
   -1.2269    1.3891    0.0000 N   0  0  0  0  0  0  0  0  0  0  0  0
   -1.3268    0.3935    0.0000 C   0  0  0  0  0  0  0  0  0  0  0  0
   -2.1891   -0.1104    0.0000 C   0  0  0  0  0  0  0  0  0  0  0  0
   -0.2521    1.6016    0.0000 C   0  0  0  0  0  0  0  0  0  0  0  0
   -2.1891   -1.1102    0.0000 C   0  0  0  0  0  0  0  0  0  0  0  0
    0.2520    0.7393    0.0000 N   0  0  0  0  0  0  0  0  0  0  0  0
    2.3096   -1.7475    0.0000 C   0  0  0  0  0  0  0  0  0  0  0  0
   -0.4186   -0.0062    0.0000 O   0  0  0  0  0  0  0  0  0  0  0  0
   -1.3268   -1.6101    0.0000 N   0  0  0  0  0  0  0  0  0  0  0  0
    0.7142   -2.4016    0.0000 N   0  0  0  0  0  0  0  0  0  0  0  0
    1.7058   -2.5348    0.0000 C   0  0  0  0  0  0  0  0  0  0  0  0
   -3.0556   -1.6101    0.0000 N   0  0  0  0  0  0  0  0  0  0  0  0
    1.9306   -0.8227    0.0000 C   0  0  0  0  0  0  0  0  0  0  0  0
    3.2969   -1.8850    0.0000 C   0  0  0  0  0  0  0  0  0  0  0  0
   -0.5978   -1.0644    0.0000 C   0  0  0  0  0  0  0  0  0  0  0  0
    0.1603    2.5138    0.0000 C   0  0  0  0  0  0  0  0  0  0  0  0
    0.3727   -1.3684    0.0000 C   0  0  0  0  0  0  0  0  0  0  0  0
   -0.9021   -3.3263    0.0000 C   0  0  0  0  0  0  0  0  0  0  0  0
    3.6760   -2.8181    0.0000 F   0  0  0  0  0  0  0  0  0  0  0  0
    0.9436   -0.6854    0.0000 Cl  0  0  0  0  0  0  0  0  0  0  0  0
   -1.4475   -2.6431    0.0000 C   0  0  0  0  0  0  0  0  0  0  0  0
   -3.0556    0.3894    0.0000 C   0  0  0  0  0  0  0  0  0  0  0  0
    0.1145   -3.2805    0.0000 C   0  0  0  0  0  0  0  0  0  0  0  0
    3.5385   -0.1729    0.0000 C   0  0  0  0  0  0  0  0  0  0  0  0
   -3.9177   -1.1102    0.0000 C   0  0  0  0  0  0  0  0  0  0  0  0
    3.9177   -1.1060    0.0000 C   0  0  0  0  0  0  0  0  0  0  0  0
    2.5471   -0.0355    0.0000 C   0  0  0  0  0  0  0  0  0  0  0  0
   -0.4354    3.3263    0.0000 C   0  0  0  0  0  0  0  0  0  0  0  0
    1.1558    2.6304    0.0000 C   0  0  0  0  0  0  0  0  0  0  0  0
   -3.9177   -0.1104    0.0000 C   0  0  0  0  0  0  0  0  0  0  0  0
  1  2  2  0  0  0  0
  2  3  1  0  0  0  0
  1  4  1  0  0  0  0
  3  5  1  0  0  0  0
  4  6  2  0  0  0  0
  7 11  1  0  0  0  0
  2  8  1  0  0  0  0
  6  8  1  0  0  0  0
  5  9  1  0  0  0  0
 10 17  1  0  0  0  0
 10 11  1  0  0  0  0
  5 12  2  0  0  0  0
 12 25  1  0  0  0  0
  7 13  2  0  0  0  0
  7 14  1  0  0  0  0
  9 15  1  0  0  0  0
  4 16  1  0  0  0  0
 15 17  1  0  0  0  0
 18 21  1  0  0  0  0
 14 19  1  0  0  0  0
 13 20  1  0  0  0  0
  9 21  1  0  0  0  0
  3 22  2  0  0  0  0
 18 23  1  0  0  0  0
 10 23  1  0  0  0  0
 24 26  1  0  0  0  0
 25 30  2  0  0  0  0
 14 26  2  0  0  0  0
 13 27  1  0  0  0  0
 24 27  2  0  0  0  0
 16 28  1  0  0  0  0
 16 29  1  0  0  0  0
 22 30  1  0  0  0  0
M  END
> <IDNUMBER>
P891-0192

> <available>
33

> <H_acceptor>
5

> <H_donor>
0

> <B_rotN>
5

> <N_O>
6

> <logP>
4.8074

> <logD>
4.6129

> <logSw>
-4.9127

> <PSA>
48.221

> <pKa_ma>
23.4478

> <pKa_mb>
7.152

> <N_Chirals>
0

> <Name>
1-[(2-chloro-6-fluorophenyl)methyl]-4-{3-[3-(propan-2-yl)-1,2,4-oxadiazol-5-yl]pyridin-2-yl}-1,4-diazepane

> <Smile>
CC(C)c1noc(-c2cccnc2N2CCN(Cc(c(F)ccc3)c3Cl)CCC2)n1

> <Color>
YELLOW

> <Collection>
NC

> <InChI>
InChI=1S/C22H25ClFN5O/c1-15(2)20-26-22(30-27-20)16-6-4-9-25-21(16)29-11-5-10-28(12-13-29)14-17-18(23)7-3-8-19(17)24/h3-4,6-9,15H,5,10-14H2,1-2H3

> <InChI Key>
YZXWAPUDCZALPN-UHFFFAOYSA-N

> <PERCENTSP3>
40.9

> <Link>
https://www.chemdiv.com/catalog/screening-compounds/compound-P891-0192/

> <MFCDNUMBER>
MFCD29026892

> <CLNUMBER>
CM1467

> <STEREO>
ACHIRAL

> <State>
Solid

> <Similarity score>
0.21

$$$$
N-[2-(5-chloro-1H-indol-3-yl)ethyl]-1-(2-chloro-9H-purin-6-yl)piperidine-3-carbo
  -OEChem-04222410502D

 31 35  0     0  0  0  0  0  0999 V2000
    2.1359   -2.2298    0.0000 C   0  0  0  0  0  0  0  0  0  0  0  0
    2.9987   -2.7339    0.0000 C   0  0  0  0  0  0  0  0  0  0  0  0
    2.1443   -1.2336    0.0000 N   0  0  0  0  0  0  0  0  0  0  0  0
    3.8697   -2.2339    0.0000 C   0  0  0  0  0  0  0  0  0  0  0  0
    3.8697   -1.2336    0.0000 N   0  0  0  0  0  0  0  0  0  0  0  0
    1.2648   -2.7175    0.0000 N   0  0  0  0  0  0  0  0  0  0  0  0
    3.0071   -0.7335    0.0000 C   0  0  0  0  0  0  0  0  0  0  0  0
    4.6241   -2.9132    0.0000 N   0  0  0  0  0  0  0  0  0  0  0  0
   -0.4647   -2.7175    0.0000 C   0  0  3  0  0  0  0  0  0  0  0  0
   -4.6241    1.1419    0.0000 N   0  0  0  0  0  0  0  0  0  0  0  0
   -3.1570    1.7921    0.0000 C   0  0  0  0  0  0  0  0  0  0  0  0
    3.2031   -3.7260    0.0000 N   0  0  0  0  0  0  0  0  0  0  0  0
    0.4105   -2.2173    0.0000 C   0  0  0  0  0  0  0  0  0  0  0  0
   -1.3316   -2.2131    0.0000 C   0  0  0  0  0  0  0  0  0  0  0  0
   -3.9656    0.4001    0.0000 C   0  0  0  0  0  0  0  0  0  0  0  0
   -3.0404    0.7961    0.0000 C   0  0  0  0  0  0  0  0  0  0  0  0
    4.2032   -3.8218    0.0000 C   0  0  0  0  0  0  0  0  0  0  0  0
   -4.1240    2.0047    0.0000 C   0  0  0  0  0  0  0  0  0  0  0  0
   -2.4904    2.5340    0.0000 C   0  0  0  0  0  0  0  0  0  0  0  0
   -2.2027   -2.7134    0.0000 O   0  0  0  0  0  0  0  0  0  0  0  0
   -1.3316   -1.2044    0.0000 N   0  0  0  0  0  0  0  0  0  0  0  0
    3.0071    0.2626    0.0000 Cl  0  0  0  0  0  0  0  0  0  0  0  0
   -4.4282    2.9590    0.0000 C   0  0  0  0  0  0  0  0  0  0  0  0
   -2.7818    3.4801    0.0000 C   0  0  0  0  0  0  0  0  0  0  0  0
    1.2648   -3.7260    0.0000 C   0  0  0  0  0  0  0  0  0  0  0  0
   -3.7613    3.7010    0.0000 C   0  0  0  0  0  0  0  0  0  0  0  0
   -2.1109    4.2178    0.0000 Cl  0  0  0  0  0  0  0  0  0  0  0  0
   -0.4605   -3.7177    0.0000 C   0  0  0  0  0  0  0  0  0  0  0  0
   -2.1861   -0.7043    0.0000 C   0  0  0  0  0  0  0  0  0  0  0  0
   -2.1777    0.2959    0.0000 C   0  0  0  0  0  0  0  0  0  0  0  0
    0.4023   -4.2178    0.0000 C   0  0  0  0  0  0  0  0  0  0  0  0
  1  2  2  0  0  0  0
  1  3  1  0  0  0  0
  2  4  1  0  0  0  0
  4  5  2  0  0  0  0
  5  7  1  0  0  0  0
  1  6  1  0  0  0  0
  3  7  2  0  0  0  0
  4  8  1  0  0  0  0
  8 17  2  0  0  0  0
  9 13  1  0  0  0  0
  9 28  1  0  0  0  0
 10 15  1  0  0  0  0
 11 16  1  0  0  0  0
  2 12  1  0  0  0  0
  6 13  1  0  0  0  0
  9 14  1  0  0  0  0
 15 16  2  0  0  0  0
 16 30  1  0  0  0  0
 12 17  1  0  0  0  0
 11 18  1  0  0  0  0
 10 18  1  0  0  0  0
 11 19  2  0  0  0  0
 14 20  2  0  0  0  0
 14 21  1  0  0  0  0
  7 22  1  0  0  0  0
 18 23  2  0  0  0  0
 23 26  1  0  0  0  0
 19 24  1  0  0  0  0
  6 25  1  0  0  0  0
 24 26  2  0  0  0  0
 24 27  1  0  0  0  0
 28 31  1  0  0  0  0
 21 29  1  0  0  0  0
 29 30  1  0  0  0  0
 25 31  1  0  0  0  0
M  END
> <IDNUMBER>
IB03-5324

> <available>
50

> <H_acceptor>
5

> <H_donor>
3

> <B_rotN>
6

> <N_O>
8

> <logP>
3.37

> <logD>
3.32

> <logSw>
-4.03

> <PSA>
112.28

> <pKa_ma>
8.29

> <pKa_mb>
4.6

> <N_Chirals>
1

> <Name>
N-[2-(5-chloro-1H-indol-3-yl)ethyl]-1-(2-chloro-9H-purin-6-yl)piperidine-3-carboxamide

> <Smile>
O=C(C(CCC1)CN1c1c2[nH]cnc2nc(Cl)n1)NCCc1c[nH]c(cc2)c1cc2Cl

> <Color>
NOT COLORED

> <Collection>
DC

> <InChI>
InChI=1S/C21H21Cl2N7O/c22-14-3-4-16-15(8-14)12(9-25-16)5-6-24-20(31)13-2-1-7-30(10-13)19-17-18(27-11-26-17)28-21(23)29-19/h3-4,8-9,11,13,25H,1-2,5-7,10H2,(H,24,31)(H,26,27,28,29)/t13-/m0/s1

> <InChI Key>
QAFXDDBDHYYXRG-ZDUSSCGKSA-N

> <PERCENTSP3>
33.3

> <Link>
https://www.chemdiv.com/catalog/screening-compounds/compound-IB03-5324/

> <STEREO>
RACEMIC MIXTURE

> <State>
Solid

> <Similarity score>
0.21

$$$$
7'-hydroxy-8-methoxy-8'-[(3-methylpiperidin-1-yl)methyl]-2H,2'H-[3,4'-bi-1-benzo
  -OEChem-04222410502D

 33 37  0     0  0  0  0  0  0999 V2000
    1.7106    0.2583    0.0000 C   0  0  0  0  0  0  0  0  0  0  0  0
    1.7106   -0.7376    0.0000 C   0  0  0  0  0  0  0  0  0  0  0  0
    0.8478    1.7752    0.0000 C   0  0  0  0  0  0  0  0  0  0  0  0
    0.8478   -1.2376    0.0000 C   0  0  0  0  0  0  0  0  0  0  0  0
   -0.0188    2.2752    0.0000 C   0  0  0  0  0  0  0  0  0  0  0  0
    0.8478    0.7584    0.0000 C   0  0  0  0  0  0  0  0  0  0  0  0
    0.8395   -2.2253    0.0000 O   0  0  0  0  0  0  0  0  0  0  0  0
    2.5855   -1.2376    0.0000 C   0  0  0  0  0  0  0  0  0  0  0  0
    1.7190    2.2795    0.0000 O   0  0  0  0  0  0  0  0  0  0  0  0
    1.7063   -2.7379    0.0000 C   0  0  0  0  0  0  0  0  0  0  0  0
    2.5898    0.7584    0.0000 C   0  0  0  0  0  0  0  0  0  0  0  0
    2.5898    1.7752    0.0000 C   0  0  0  0  0  0  0  0  0  0  0  0
    2.5733   -2.2419    0.0000 C   0  0  0  0  0  0  0  0  0  0  0  0
   -0.8981    3.7505    0.0000 N   0  0  0  0  0  0  0  0  0  0  0  0
   -0.0188    3.2671    0.0000 C   0  0  0  0  0  0  0  0  0  0  0  0
   -0.0188    0.2667    0.0000 C   0  0  0  0  0  0  0  0  0  0  0  0
   -0.8813    1.7669    0.0000 C   0  0  0  0  0  0  0  0  0  0  0  0
   -0.0188   -0.7250    0.0000 O   0  0  0  0  0  0  0  0  0  0  0  0
    1.6941   -3.7253    0.0000 C   0  0  0  0  0  0  0  0  0  0  0  0
    3.4650    2.2669    0.0000 O   0  0  0  0  0  0  0  0  0  0  0  0
   -0.8813    0.7669    0.0000 C   0  0  0  0  0  0  0  0  0  0  0  0
   -1.7440    3.2336    0.0000 C   0  0  0  0  0  0  0  0  0  0  0  0
   -1.7440    2.2669    0.0000 O   0  0  0  0  0  0  0  0  0  0  0  0
   -0.9274    4.7463    0.0000 C   0  0  0  0  0  0  0  0  0  0  0  0
    0.8314   -4.2255    0.0000 O   0  0  0  0  0  0  0  0  0  0  0  0
    3.4401   -2.7419    0.0000 C   0  0  0  0  0  0  0  0  0  0  0  0
   -2.6149    3.7172    0.0000 C   0  0  3  0  0  0  0  0  0  0  0  0
    3.4401   -3.7253    0.0000 C   0  0  0  0  0  0  0  0  0  0  0  0
   -1.7898    5.2256    0.0000 C   0  0  0  0  0  0  0  0  0  0  0  0
    2.5605   -4.2379    0.0000 C   0  0  0  0  0  0  0  0  0  0  0  0
   -2.6401    4.7130    0.0000 C   0  0  0  0  0  0  0  0  0  0  0  0
    0.8314   -5.2256    0.0000 C   0  0  0  0  0  0  0  0  0  0  0  0
   -3.4650    3.2003    0.0000 C   0  0  0  0  0  0  0  0  0  0  0  0
  1  2  1  0  0  0  0
  3  6  1  0  0  0  0
  2  4  1  0  0  0  0
  3  5  2  0  0  0  0
  1  6  1  0  0  0  0
  4  7  1  0  0  0  0
  2  8  2  0  0  0  0
  9 12  1  0  0  0  0
  3  9  1  0  0  0  0
 10 13  2  0  0  0  0
  7 10  1  0  0  0  0
  1 11  2  0  0  0  0
 11 12  1  0  0  0  0
  8 13  1  0  0  0  0
 14 15  1  0  0  0  0
  5 15  1  0  0  0  0
  6 16  2  0  0  0  0
 17 21  2  0  0  0  0
  5 17  1  0  0  0  0
  4 18  2  0  0  0  0
 10 19  1  0  0  0  0
 12 20  2  0  0  0  0
 16 21  1  0  0  0  0
 14 22  1  0  0  0  0
 17 23  1  0  0  0  0
 14 24  1  0  0  0  0
 19 25  1  0  0  0  0
 13 26  1  0  0  0  0
 22 27  1  0  0  0  0
 27 31  1  0  0  0  0
 26 28  2  0  0  0  0
 24 29  1  0  0  0  0
 28 30  1  0  0  0  0
 19 30  2  0  0  0  0
 29 31  1  0  0  0  0
 25 32  1  0  0  0  0
 27 33  1  0  0  0  0
M  END
> <IDNUMBER>
G786-1887

> <available>
74

> <H_acceptor>
9

> <H_donor>
1

> <B_rotN>
4

> <N_O>
7

> <logP>
3.6604

> <logD>
3.3726

> <logSw>
-3.7286

> <PSA>
68.509

> <pKa_ma>
8.745

> <pKa_mb>
7.3324

> <N_Chirals>
1

> <Name>
7'-hydroxy-8-methoxy-8'-[(3-methylpiperidin-1-yl)methyl]-2H,2'H-[3,4'-bi-1-benzopyran]-2,2'-dione

> <Smile>
CC1CN(Cc(c(O2)c(cc3)C(C4=Cc5cccc(OC)c5OC4=O)=CC2=O)c3O)CCC1

> <Color>
YELLOW

> <Collection>
DC

> <InChI>
InChI=1S/C26H25NO6/c1-15-5-4-10-27(13-15)14-20-21(28)9-8-17-18(12-23(29)32-25(17)20)19-11-16-6-3-7-22(31-2)24(16)33-26(19)30/h3,6-9,11-12,15,28H,4-5,10,13-14H2,1-2H3/t15-/m0/s1

> <InChI Key>
LBQDUJOOKLHPHV-HNNXBMFYSA-N

> <PERCENTSP3>
30.8

> <Link>
https://www.chemdiv.com/catalog/screening-compounds/compound-G786-1887/

> <MFCDNUMBER>
MFCD05673301

> <CLNUMBER>
CL3319

> <STEREO>
RACEMIC MIXTURE

> <State>
Solid

> <Similarity score>
0.21

$$$$
1-(4-chlorophenyl)-3-(4-ethoxyphenyl)-6,8-difluoro-1H-pyrazolo[4,3-c]quinoline
  -OEChem-04222410502D

 31 35  0     0  0  0  0  0  0999 V2000
   -1.5750    0.4378    0.0000 N   0  0  0  0  0  0  0  0  0  0  0  0
   -0.9116   -1.0342    0.0000 C   0  0  0  0  0  0  0  0  0  0  0  0
   -1.7870   -0.5260    0.0000 C   0  0  0  0  0  0  0  0  0  0  0  0
   -0.5799    0.5453    0.0000 N   0  0  0  0  0  0  0  0  0  0  0  0
   -0.1480   -0.3568    0.0000 C   0  0  0  0  0  0  0  0  0  0  0  0
   -2.6675   -1.0342    0.0000 C   0  0  0  0  0  0  0  0  0  0  0  0
   -2.6675   -2.0220    0.0000 C   0  0  0  0  0  0  0  0  0  0  0  0
   -1.7870   -2.5208    0.0000 N   0  0  0  0  0  0  0  0  0  0  0  0
   -0.9116   -2.0220    0.0000 C   0  0  0  0  0  0  0  0  0  0  0  0
   -3.5385   -2.5208    0.0000 C   0  0  0  0  0  0  0  0  0  0  0  0
   -2.1998    1.2087    0.0000 C   0  0  0  0  0  0  0  0  0  0  0  0
   -4.4141   -2.0220    0.0000 C   0  0  0  0  0  0  0  0  0  0  0  0
    0.8542   -0.4616    0.0000 C   0  0  0  0  0  0  0  0  0  0  0  0
   -3.5385   -0.5260    0.0000 C   0  0  0  0  0  0  0  0  0  0  0  0
   -4.4046   -1.0342    0.0000 C   0  0  0  0  0  0  0  0  0  0  0  0
   -1.8469    2.1296    0.0000 C   0  0  0  0  0  0  0  0  0  0  0  0
   -3.1663    1.0488    0.0000 C   0  0  0  0  0  0  0  0  0  0  0  0
    1.2622   -1.3563    0.0000 C   0  0  0  0  0  0  0  0  0  0  0  0
    1.4291    0.3638    0.0000 C   0  0  0  0  0  0  0  0  0  0  0  0
   -3.5291   -3.5158    0.0000 F   0  0  0  0  0  0  0  0  0  0  0  0
   -3.4477    2.7476    0.0000 C   0  0  0  0  0  0  0  0  0  0  0  0
   -5.2730   -0.5380    0.0000 F   0  0  0  0  0  0  0  0  0  0  0  0
    2.8774   -0.6333    0.0000 C   0  0  0  0  0  0  0  0  0  0  0  0
   -3.7939    1.8121    0.0000 C   0  0  0  0  0  0  0  0  0  0  0  0
   -2.4720    2.8978    0.0000 C   0  0  0  0  0  0  0  0  0  0  0  0
    2.2738   -1.4591    0.0000 C   0  0  0  0  0  0  0  0  0  0  0  0
    2.4384    0.2732    0.0000 C   0  0  0  0  0  0  0  0  0  0  0  0
   -4.0704    3.5158    0.0000 Cl  0  0  0  0  0  0  0  0  0  0  0  0
    3.8677   -0.7336    0.0000 O   0  0  0  0  0  0  0  0  0  0  0  0
    4.2803   -1.6452    0.0000 C   0  0  0  0  0  0  0  0  0  0  0  0
    5.2730   -1.7356    0.0000 C   0  0  0  0  0  0  0  0  0  0  0  0
  2  3  2  0  0  0  0
  2  5  1  0  0  0  0
  1  3  1  0  0  0  0
  1  4  1  0  0  0  0
  4  5  2  0  0  0  0
  3  6  1  0  0  0  0
  6  7  1  0  0  0  0
  7  8  1  0  0  0  0
  8  9  2  0  0  0  0
  2  9  1  0  0  0  0
  7 10  2  0  0  0  0
  1 11  1  0  0  0  0
 12 15  2  0  0  0  0
 10 12  1  0  0  0  0
  5 13  1  0  0  0  0
  6 14  2  0  0  0  0
 14 15  1  0  0  0  0
 11 16  2  0  0  0  0
 11 17  1  0  0  0  0
 13 18  2  0  0  0  0
 13 19  1  0  0  0  0
 10 20  1  0  0  0  0
 21 24  1  0  0  0  0
 15 22  1  0  0  0  0
 23 27  1  0  0  0  0
 17 24  2  0  0  0  0
 16 25  1  0  0  0  0
 21 25  2  0  0  0  0
 18 26  1  0  0  0  0
 23 26  2  0  0  0  0
 19 27  2  0  0  0  0
 21 28  1  0  0  0  0
 23 29  1  0  0  0  0
 29 30  1  0  0  0  0
 30 31  1  0  0  0  0
M  END
> <IDNUMBER>
C350-0826

> <available>
83

> <H_acceptor>
3

> <H_donor>
0

> <B_rotN>
4

> <N_O>
4

> <logP>
6.3904

> <logD>
6.3904

> <logSw>
-6.5386

> <PSA>
30.6039

> <pKa_ma>
29.8521

> <pKa_mb>
2.2647

> <N_Chirals>
0

> <Name>
1-(4-chlorophenyl)-3-(4-ethoxyphenyl)-6,8-difluoro-1H-pyrazolo[4,3-c]quinoline

> <Smile>
CCOc(cc1)ccc1-c(c1c2c3cc(F)cc(F)c3nc1)nn2-c(cc1)ccc1Cl

> <Color>
NOT COLORED

> <Collection>
DC

> <InChI>
InChI=1S/C24H16ClF2N3O/c1-2-31-18-9-3-14(4-10-18)22-20-13-28-23-19(11-16(26)12-21(23)27)24(20)30(29-22)17-7-5-15(25)6-8-17/h3-13H,2H2,1H3

> <InChI Key>
LUOLVFPYOSABGR-UHFFFAOYSA-N

> <PERCENTSP3>
8.3

> <Link>
https://www.chemdiv.com/catalog/screening-compounds/compound-C350-0826/

> <MFCDNUMBER>
MFCD14750692

> <CLNUMBER>
CL4130

> <STEREO>
ACHIRAL

> <State>
Solid

> <Similarity score>
0.21

$$$$
2-(4-methylphenyl)-4-(1,3,3-trimethyl-6-azabicyclo[3.2.1]octan-6-yl)quinazoline
  -OEChem-04222410502D

 28 32  0     0  0  0  0  0  0999 V2000
   -0.8785   -0.2856    0.0000 C   0  0  0  0  0  0  0  0  0  0  0  0
   -0.8785    0.7176    0.0000 N   0  0  0  0  0  0  0  0  0  0  0  0
   -0.0289   -0.7896    0.0000 N   0  0  0  0  0  0  0  0  0  0  0  0
   -0.0145   -1.7689    0.0000 C   0  0  0  0  0  0  0  0  0  0  0  0
   -1.7282   -0.8040    0.0000 C   0  0  0  0  0  0  0  0  0  0  0  0
   -0.8785   -2.3017    0.0000 N   0  0  0  0  0  0  0  0  0  0  0  0
   -0.0289    1.1351    0.0000 C   0  0  3  0  0  0  0  0  0  0  0  0
   -1.9585    2.0713    0.0000 C   0  0  3  0  0  0  0  0  0  0  0  0
   -1.7282   -1.7689    0.0000 C   0  0  0  0  0  0  0  0  0  0  0  0
   -1.7425    1.1351    0.0000 C   0  0  0  0  0  0  0  0  0  0  0  0
   -0.7631    1.7689    0.0000 C   0  0  0  0  0  0  0  0  0  0  0  0
   -0.4033    2.8057    0.0000 C   0  0  0  0  0  0  0  0  0  0  0  0
    0.8640   -2.2873    0.0000 C   0  0  0  0  0  0  0  0  0  0  0  0
    0.1823    2.0713    0.0000 C   0  0  0  0  0  0  0  0  0  0  0  0
   -1.3730    2.8057    0.0000 C   0  0  0  0  0  0  0  0  0  0  0  0
    1.6993   -1.7594    0.0000 C   0  0  0  0  0  0  0  0  0  0  0  0
    0.8640   -3.3146    0.0000 C   0  0  0  0  0  0  0  0  0  0  0  0
   -2.6210   -0.2904    0.0000 C   0  0  0  0  0  0  0  0  0  0  0  0
    1.7520   -3.7850    0.0000 C   0  0  0  0  0  0  0  0  0  0  0  0
    2.6016   -2.2634    0.0000 C   0  0  0  0  0  0  0  0  0  0  0  0
    2.6160   -3.2809    0.0000 C   0  0  0  0  0  0  0  0  0  0  0  0
   -2.8946    2.3017    0.0000 C   0  0  0  0  0  0  0  0  0  0  0  0
   -2.6210   -2.3017    0.0000 C   0  0  0  0  0  0  0  0  0  0  0  0
   -0.4752    3.7850    0.0000 C   0  0  0  0  0  0  0  0  0  0  0  0
    0.5855    3.2425    0.0000 C   0  0  0  0  0  0  0  0  0  0  0  0
    3.4850   -3.7755    0.0000 C   0  0  0  0  0  0  0  0  0  0  0  0
   -3.4850   -0.8040    0.0000 C   0  0  0  0  0  0  0  0  0  0  0  0
   -3.4850   -1.7689    0.0000 C   0  0  0  0  0  0  0  0  0  0  0  0
  1  2  1  0  0  0  0
  1  3  2  0  0  0  0
  3  4  1  0  0  0  0
  4  6  2  0  0  0  0
  1  5  1  0  0  0  0
  6  9  1  0  0  0  0
  2  7  1  0  0  0  0
  8 10  1  0  0  0  0
  8 11  1  0  0  0  0
  5  9  1  0  0  0  0
  2 10  1  0  0  0  0
  7 11  1  0  0  0  0
 12 14  1  0  0  0  0
 12 15  1  0  0  0  0
  4 13  1  0  0  0  0
  7 14  1  0  0  0  0
  8 15  1  0  0  0  0
 13 16  1  0  0  0  0
 13 17  2  0  0  0  0
  5 18  2  0  0  0  0
 17 19  1  0  0  0  0
 16 20  2  0  0  0  0
 20 21  1  0  0  0  0
 19 21  2  0  0  0  0
  8 22  1  0  0  0  0
  9 23  2  0  0  0  0
 23 28  1  0  0  0  0
 12 24  1  0  0  0  0
 12 25  1  0  0  0  0
 21 26  1  0  0  0  0
 18 27  1  0  0  0  0
 27 28  2  0  0  0  0
M  END
> <IDNUMBER>
4593-2689

> <available>
66

> <H_acceptor>
2

> <H_donor>
0

> <B_rotN>
2

> <N_O>
3

> <logP>
6.9845

> <logD>
5.8973

> <logSw>
-6.2073

> <PSA>
21.3242

> <pKa_ma>
18.1908

> <pKa_mb>
8.4502

> <N_Chirals>
2

> <Name>
2-(4-methylphenyl)-4-(1,3,3-trimethyl-6-azabicyclo[3.2.1]octan-6-yl)quinazoline

> <Smile>
CC(C1)(C2)CC(C)(C)CC1N2c1nc(-c2ccc(C)cc2)nc2ccccc12

> <Color>
NOT COLORED

> <Collection>
NC

> <InChI>
InChI=1S/C25H29N3/c1-17-9-11-18(12-10-17)22-26-21-8-6-5-7-20(21)23(27-22)28-16-25(4)14-19(28)13-24(2,3)15-25/h5-12,19H,13-16H2,1-4H3

> <InChI Key>
GNIXFRMKQXXUEV-UHFFFAOYSA-N

> <PERCENTSP3>
44

> <Link>
https://www.chemdiv.com/catalog/screening-compounds/compound-4593-2689/

> <MFCDNUMBER>
MFCD03695868

> <CLNUMBER>
CL2243

> <Saltdata>
HCl

> <Saltdata_MW>
36.461

> <STEREO>
MIXTURE OF STEREOISOMERS

> <State>
Solid

> <Similarity score>
0.21

$$$$
N-[(furan-2-yl)methyl]-2-(4-methoxyphenyl)-N-[3-(morpholin-4-yl)propyl]quinazoli
  -OEChem-04222410502D

 34 38  0     0  0  0  0  0  0999 V2000
   -0.0882   -0.4716    0.0000 N   0  0  0  0  0  0  0  0  0  0  0  0
   -0.9607    0.0278    0.0000 C   0  0  0  0  0  0  0  0  0  0  0  0
   -0.0882   -1.4601    0.0000 C   0  0  0  0  0  0  0  0  0  0  0  0
   -1.8229   -0.4716    0.0000 C   0  0  0  0  0  0  0  0  0  0  0  0
   -0.9607   -1.9694    0.0000 N   0  0  0  0  0  0  0  0  0  0  0  0
   -0.9607    1.0262    0.0000 N   0  0  0  0  0  0  0  0  0  0  0  0
   -1.8229   -1.4601    0.0000 C   0  0  0  0  0  0  0  0  0  0  0  0
   -1.8229    2.5245    0.0000 C   0  0  0  0  0  0  0  0  0  0  0  0
    0.7793   -1.9694    0.0000 C   0  0  0  0  0  0  0  0  0  0  0  0
    2.0451    2.7513    0.0000 N   0  0  0  0  0  0  0  0  0  0  0  0
   -0.9607    2.0251    0.0000 C   0  0  0  0  0  0  0  0  0  0  0  0
   -2.0350    3.5027    0.0000 O   0  0  0  0  0  0  0  0  0  0  0  0
   -2.6857    2.0251    0.0000 C   0  0  0  0  0  0  0  0  0  0  0  0
   -3.0185    3.6086    0.0000 C   0  0  0  0  0  0  0  0  0  0  0  0
   -3.4321    2.7007    0.0000 C   0  0  0  0  0  0  0  0  0  0  0  0
    3.0488    4.4862    0.0000 O   0  0  0  0  0  0  0  0  0  0  0  0
    1.6417   -1.4601    0.0000 C   0  0  0  0  0  0  0  0  0  0  0  0
    0.7793   -2.9731    0.0000 C   0  0  0  0  0  0  0  0  0  0  0  0
    0.5372    1.8888    0.0000 C   0  0  0  0  0  0  0  0  0  0  0  0
    0.0379    1.0262    0.0000 C   0  0  0  0  0  0  0  0  0  0  0  0
    2.5040   -2.9731    0.0000 C   0  0  0  0  0  0  0  0  0  0  0  0
    1.6417   -3.4724    0.0000 C   0  0  0  0  0  0  0  0  0  0  0  0
    2.5040   -1.9694    0.0000 C   0  0  0  0  0  0  0  0  0  0  0  0
   -2.6857    0.0278    0.0000 C   0  0  0  0  0  0  0  0  0  0  0  0
    1.5459    1.8888    0.0000 C   0  0  0  0  0  0  0  0  0  0  0  0
    3.3816   -3.4825    0.0000 O   0  0  0  0  0  0  0  0  0  0  0  0
    1.5459    3.6136    0.0000 C   0  0  0  0  0  0  0  0  0  0  0  0
    3.0488    2.7513    0.0000 C   0  0  0  0  0  0  0  0  0  0  0  0
   -2.6857   -1.9694    0.0000 C   0  0  0  0  0  0  0  0  0  0  0  0
    3.5482    3.6136    0.0000 C   0  0  0  0  0  0  0  0  0  0  0  0
    2.0451    4.4862    0.0000 C   0  0  0  0  0  0  0  0  0  0  0  0
    3.3766   -4.4862    0.0000 C   0  0  0  0  0  0  0  0  0  0  0  0
   -3.5482   -0.4716    0.0000 C   0  0  0  0  0  0  0  0  0  0  0  0
   -3.5482   -1.4601    0.0000 C   0  0  0  0  0  0  0  0  0  0  0  0
  1  2  2  0  0  0  0
  1  3  1  0  0  0  0
  2  4  1  0  0  0  0
  3  5  2  0  0  0  0
  2  6  1  0  0  0  0
  5  7  1  0  0  0  0
  4  7  1  0  0  0  0
  8 11  1  0  0  0  0
  3  9  1  0  0  0  0
 10 25  1  0  0  0  0
  6 11  1  0  0  0  0
  8 12  1  0  0  0  0
  8 13  2  0  0  0  0
 12 14  1  0  0  0  0
 14 15  2  0  0  0  0
 13 15  1  0  0  0  0
 16 30  1  0  0  0  0
 16 31  1  0  0  0  0
  9 17  1  0  0  0  0
  9 18  2  0  0  0  0
 19 20  1  0  0  0  0
  6 20  1  0  0  0  0
 21 22  2  0  0  0  0
 21 23  1  0  0  0  0
 18 22  1  0  0  0  0
 17 23  2  0  0  0  0
  4 24  2  0  0  0  0
 19 25  1  0  0  0  0
 21 26  1  0  0  0  0
 10 27  1  0  0  0  0
 10 28  1  0  0  0  0
  7 29  2  0  0  0  0
 28 30  1  0  0  0  0
 27 31  1  0  0  0  0
 26 32  1  0  0  0  0
 24 33  1  0  0  0  0
 29 34  1  0  0  0  0
 33 34  2  0  0  0  0
M  END
> <IDNUMBER>
G516-0269

> <available>
437

> <H_acceptor>
6

> <H_donor>
0

> <B_rotN>
9

> <N_O>
7

> <logP>
5.3715

> <logD>
4.8715

> <logSw>
-5.7207

> <PSA>
48.092

> <pKa_ma>
23.2576

> <pKa_mb>
7.735

> <N_Chirals>
0

> <Name>
N-[(furan-2-yl)methyl]-2-(4-methoxyphenyl)-N-[3-(morpholin-4-yl)propyl]quinazolin-4-amine

> <Smile>
COc(cc1)ccc1-c1nc2ccccc2c(N(CCCN2CCOCC2)Cc2ccco2)n1

> <Color>
ORANGE

> <Collection>
NC

> <InChI>
InChI=1S/C27H30N4O3/c1-32-22-11-9-21(10-12-22)26-28-25-8-3-2-7-24(25)27(29-26)31(20-23-6-4-17-34-23)14-5-13-30-15-18-33-19-16-30/h2-4,6-12,17H,5,13-16,18-20H2,1H3

> <InChI Key>
XXSAHPYHGLCWJH-UHFFFAOYSA-N

> <PERCENTSP3>
33.3

> <Link>
https://www.chemdiv.com/catalog/screening-compounds/compound-G516-0269/

> <MFCDNUMBER>
MFCD15015078

> <CLNUMBER>
CL2243

> <STEREO>
ACHIRAL

> <State>
Solid

> <Similarity score>
0.21

$$$$
2-[2-amino-5-(2-methoxyphenyl)pyrimidin-4-yl]-5-[(2-chloro-6-fluorophenyl)methox
  -OEChem-04222410502D

 32 35  0     0  0  0  0  0  0999 V2000
    1.7355   -0.4979    0.0000 C   0  0  0  0  0  0  0  0  0  0  0  0
    2.6064   -0.0021    0.0000 C   0  0  0  0  0  0  0  0  0  0  0  0
    0.8772   -0.0021    0.0000 C   0  0  0  0  0  0  0  0  0  0  0  0
    1.7355   -1.5064    0.0000 N   0  0  0  0  0  0  0  0  0  0  0  0
   -3.4482    1.4939    0.0000 C   0  0  0  0  0  0  0  0  0  0  0  0
    2.6106   -2.0022    0.0000 C   0  0  0  0  0  0  0  0  0  0  0  0
    2.5939    0.9937    0.0000 C   0  0  0  0  0  0  0  0  0  0  0  0
    0.0019   -0.4979    0.0000 C   0  0  0  0  0  0  0  0  0  0  0  0
    3.4689   -1.4939    0.0000 N   0  0  0  0  0  0  0  0  0  0  0  0
    3.4647   -0.4939    0.0000 C   0  0  0  0  0  0  0  0  0  0  0  0
   -2.5898    0.9937    0.0000 C   0  0  0  0  0  0  0  0  0  0  0  0
    0.8772    0.9980    0.0000 C   0  0  0  0  0  0  0  0  0  0  0  0
   -0.8564   -0.0021    0.0000 C   0  0  0  0  0  0  0  0  0  0  0  0
   -3.4482    2.4980    0.0000 C   0  0  0  0  0  0  0  0  0  0  0  0
   -4.3066    0.9937    0.0000 C   0  0  0  0  0  0  0  0  0  0  0  0
    3.4565    1.4939    0.0000 C   0  0  0  0  0  0  0  0  0  0  0  0
   -1.7190    1.4939    0.0000 O   0  0  0  0  0  0  0  0  0  0  0  0
   -0.8564    0.9980    0.0000 C   0  0  0  0  0  0  0  0  0  0  0  0
    2.6106   -2.9981    0.0000 N   0  0  0  0  0  0  0  0  0  0  0  0
    0.0019    1.5064    0.0000 C   0  0  0  0  0  0  0  0  0  0  0  0
    0.0019   -1.5064    0.0000 O   0  0  0  0  0  0  0  0  0  0  0  0
   -4.3066   -0.0021    0.0000 Cl  0  0  0  0  0  0  0  0  0  0  0  0
   -2.5814    2.9981    0.0000 F   0  0  0  0  0  0  0  0  0  0  0  0
    4.3231    0.9980    0.0000 O   0  0  0  0  0  0  0  0  0  0  0  0
    1.7313    1.4897    0.0000 C   0  0  0  0  0  0  0  0  0  0  0  0
   -5.1816    2.4980    0.0000 C   0  0  0  0  0  0  0  0  0  0  0  0
   -5.1816    1.4897    0.0000 C   0  0  0  0  0  0  0  0  0  0  0  0
   -4.3150    2.9981    0.0000 C   0  0  0  0  0  0  0  0  0  0  0  0
    3.4565    2.4980    0.0000 C   0  0  0  0  0  0  0  0  0  0  0  0
    5.1816    1.5064    0.0000 C   0  0  0  0  0  0  0  0  0  0  0  0
    1.7231    2.4856    0.0000 C   0  0  0  0  0  0  0  0  0  0  0  0
    2.5897    2.9981    0.0000 C   0  0  0  0  0  0  0  0  0  0  0  0
  1  2  1  0  0  0  0
  1  3  1  0  0  0  0
  1  4  2  0  0  0  0
  5 11  1  0  0  0  0
  4  6  1  0  0  0  0
  2  7  1  0  0  0  0
  3  8  2  0  0  0  0
  6  9  2  0  0  0  0
  2 10  2  0  0  0  0
  9 10  1  0  0  0  0
 11 17  1  0  0  0  0
  3 12  1  0  0  0  0
  8 13  1  0  0  0  0
  5 14  2  0  0  0  0
  5 15  1  0  0  0  0
  7 16  2  0  0  0  0
 17 18  1  0  0  0  0
 18 20  1  0  0  0  0
 13 18  2  0  0  0  0
  6 19  1  0  0  0  0
 12 20  2  0  0  0  0
  8 21  1  0  0  0  0
 15 22  1  0  0  0  0
 14 23  1  0  0  0  0
 16 24  1  0  0  0  0
  7 25  1  0  0  0  0
 26 27  1  0  0  0  0
 26 28  2  0  0  0  0
 15 27  2  0  0  0  0
 14 28  1  0  0  0  0
 16 29  1  0  0  0  0
 24 30  1  0  0  0  0
 25 31  2  0  0  0  0
 31 32  1  0  0  0  0
 29 32  2  0  0  0  0
M  END
> <IDNUMBER>
Y041-2647

> <available>
14

> <H_acceptor>
5

> <H_donor>
3

> <B_rotN>
6

> <N_O>
6

> <logP>
5.3834

> <logD>
5.3813

> <logSw>
-5.6292

> <PSA>
71.431

> <pKa_ma>
9.88

> <pKa_mb>
4.6172

> <N_Chirals>
0

> <Name>
2-[2-amino-5-(2-methoxyphenyl)pyrimidin-4-yl]-5-[(2-chloro-6-fluorophenyl)methoxy]phenol

> <Smile>
COc(cccc1)c1-c1cnc(N)nc1-c(ccc(OCc(c(F)ccc1)c1Cl)c1)c1O

> <Color>
YELLOW

> <Collection>
DC

> <InChI>
InChI=1S/C24H19ClFN3O3/c1-31-22-8-3-2-5-15(22)17-12-28-24(27)29-23(17)16-10-9-14(11-21(16)30)32-13-18-19(25)6-4-7-20(18)26/h2-12,30H,13H2,1H3,(H2,27,28,29)

> <InChI Key>
KOXWSZUJODGUJH-UHFFFAOYSA-N

> <PERCENTSP3>
8.3

> <Link>
https://www.chemdiv.com/catalog/screening-compounds/compound-Y041-2647/

> <MFCDNUMBER>
MFCD06603797

> <STEREO>
ACHIRAL

> <State>
Solid

> <Similarity score>
0.21

$$$$
4-(2,3-dihydro-1H-benzo[f]cyclopenta[c]quinolin-4-yl)-2-ethoxyphenol
  -OEChem-04222410502D

 27 31  0     0  0  0  0  0  0999 V2000
    0.4205   -0.5174    0.0000 N   0  0  0  0  0  0  0  0  0  0  0  0
    0.4205    0.4981    0.0000 C   0  0  0  0  0  0  0  0  0  0  0  0
   -1.3003    0.4981    0.0000 C   0  0  0  0  0  0  0  0  0  0  0  0
   -1.3003   -0.5174    0.0000 C   0  0  0  0  0  0  0  0  0  0  0  0
   -0.4360    1.0097    0.0000 C   0  0  0  0  0  0  0  0  0  0  0  0
   -0.4360   -1.0020    0.0000 C   0  0  0  0  0  0  0  0  0  0  0  0
    1.2847    1.0097    0.0000 C   0  0  0  0  0  0  0  0  0  0  0  0
   -2.1684   -1.0020    0.0000 C   0  0  0  0  0  0  0  0  0  0  0  0
    2.1684    0.4981    0.0000 C   0  0  0  0  0  0  0  0  0  0  0  0
    3.0249    1.0097    0.0000 C   0  0  0  0  0  0  0  0  0  0  0  0
    3.0249    2.0057    0.0000 C   0  0  0  0  0  0  0  0  0  0  0  0
   -0.4360   -2.0251    0.0000 C   0  0  0  0  0  0  0  0  0  0  0  0
    1.2847    2.0057    0.0000 C   0  0  0  0  0  0  0  0  0  0  0  0
   -2.1684   -2.0251    0.0000 C   0  0  0  0  0  0  0  0  0  0  0  0
    2.1684    2.5056    0.0000 C   0  0  0  0  0  0  0  0  0  0  0  0
   -1.3003   -2.5056    0.0000 C   0  0  0  0  0  0  0  0  0  0  0  0
   -2.0405    1.1841    0.0000 C   0  0  0  0  0  0  0  0  0  0  0  0
   -0.6608    2.0057    0.0000 C   0  0  0  0  0  0  0  0  0  0  0  0
    3.8892    0.5291    0.0000 O   0  0  0  0  0  0  0  0  0  0  0  0
    3.8777    2.4978    0.0000 O   0  0  0  0  0  0  0  0  0  0  0  0
   -1.6375    2.0793    0.0000 C   0  0  0  0  0  0  0  0  0  0  0  0
   -3.0211   -0.5174    0.0000 C   0  0  0  0  0  0  0  0  0  0  0  0
   -3.0211   -2.5056    0.0000 C   0  0  0  0  0  0  0  0  0  0  0  0
    3.8892   -0.4940    0.0000 C   0  0  0  0  0  0  0  0  0  0  0  0
   -3.8892   -1.0020    0.0000 C   0  0  0  0  0  0  0  0  0  0  0  0
    3.0598   -1.0367    0.0000 C   0  0  0  0  0  0  0  0  0  0  0  0
   -3.8892   -2.0251    0.0000 C   0  0  0  0  0  0  0  0  0  0  0  0
  1  2  2  0  0  0  0
  3  4  1  0  0  0  0
  4  6  2  0  0  0  0
  2  5  1  0  0  0  0
  3  5  2  0  0  0  0
  1  6  1  0  0  0  0
  2  7  1  0  0  0  0
  4  8  1  0  0  0  0
  7  9  2  0  0  0  0
  9 10  1  0  0  0  0
 11 15  1  0  0  0  0
 10 11  2  0  0  0  0
  6 12  1  0  0  0  0
  7 13  1  0  0  0  0
 14 16  1  0  0  0  0
  8 14  2  0  0  0  0
 13 15  2  0  0  0  0
 12 16  2  0  0  0  0
  3 17  1  0  0  0  0
 17 21  1  0  0  0  0
  5 18  1  0  0  0  0
 10 19  1  0  0  0  0
 11 20  1  0  0  0  0
 18 21  1  0  0  0  0
  8 22  1  0  0  0  0
 14 23  1  0  0  0  0
 19 24  1  0  0  0  0
 22 25  2  0  0  0  0
 24 26  1  0  0  0  0
 23 27  2  0  0  0  0
 25 27  1  0  0  0  0
M  END
> <IDNUMBER>
1661-1313

> <available>
47

> <H_acceptor>
3

> <H_donor>
1

> <B_rotN>
3

> <N_O>
3

> <logP>
5.8079

> <logD>
5.783

> <logSw>
-6.6479

> <PSA>
32.841

> <pKa_ma>
9.2691

> <pKa_mb>
6.0519

> <N_Chirals>
0

> <Name>
4-(2,3-dihydro-1H-benzo[f]cyclopenta[c]quinolin-4-yl)-2-ethoxyphenol

> <Smile>
CCOc(cc(cc1)-c2nc3ccc(cccc4)c4c3c3c2CCC3)c1O

> <Color>
YELLOW

> <Collection>
DC

> <InChI>
InChI=1S/C24H21NO2/c1-2-27-22-14-16(11-13-21(22)26)24-19-9-5-8-18(19)23-17-7-4-3-6-15(17)10-12-20(23)25-24/h3-4,6-7,10-14,26H,2,5,8-9H2,1H3

> <InChI Key>
GBXKDBCFZUHUMY-UHFFFAOYSA-N

> <PERCENTSP3>
20.8

> <Link>
https://www.chemdiv.com/catalog/screening-compounds/compound-1661-1313/

> <MFCDNUMBER>
MFCD01030303

> <STEREO>
ACHIRAL

> <State>
Solid

> <Similarity score>
0.21

$$$$
6-bromo-1-butyl-2,3-dihydro-1H-pyrrolo[2,3-b]quinolin-4-amine
  -OEChem-04222410502D

 19 21  0     0  0  0  0  0  0999 V2000
    0.8071    0.5129    0.0000 C   0  0  0  0  0  0  0  0  0  0  0  0
    0.8071    1.4784    0.0000 C   0  0  0  0  0  0  0  0  0  0  0  0
   -0.0224    0.0303    0.0000 N   0  0  0  0  0  0  0  0  0  0  0  0
   -0.0224    1.9511    0.0000 C   0  0  0  0  0  0  0  0  0  0  0  0
   -0.8675    1.4784    0.0000 C   0  0  0  0  0  0  0  0  0  0  0  0
    1.6367    0.0303    0.0000 N   0  0  0  0  0  0  0  0  0  0  0  0
   -0.8675    0.5129    0.0000 C   0  0  0  0  0  0  0  0  0  0  0  0
    2.4814    1.4784    0.0000 C   0  0  0  0  0  0  0  0  0  0  0  0
   -1.6819    1.9613    0.0000 C   0  0  0  0  0  0  0  0  0  0  0  0
    2.4814    0.5129    0.0000 C   0  0  0  0  0  0  0  0  0  0  0  0
   -1.6819    0.0303    0.0000 C   0  0  0  0  0  0  0  0  0  0  0  0
   -0.0224    2.9114    0.0000 N   0  0  0  0  0  0  0  0  0  0  0  0
   -2.5118    1.4784    0.0000 C   0  0  0  0  0  0  0  0  0  0  0  0
   -2.5118    0.5129    0.0000 C   0  0  0  0  0  0  0  0  0  0  0  0
   -3.3565    1.9511    0.0000 Br  0  0  0  0  0  0  0  0  0  0  0  0
    1.6367   -0.9203    0.0000 C   0  0  0  0  0  0  0  0  0  0  0  0
    2.4966   -1.4180    0.0000 C   0  0  0  0  0  0  0  0  0  0  0  0
    2.4966   -2.4135    0.0000 C   0  0  0  0  0  0  0  0  0  0  0  0
    3.3565   -2.9114    0.0000 C   0  0  0  0  0  0  0  0  0  0  0  0
  1  2  1  0  0  0  0
  1  3  2  0  0  0  0
  2  4  2  0  0  0  0
  4  5  1  0  0  0  0
  5  7  1  0  0  0  0
  1  6  1  0  0  0  0
  3  7  1  0  0  0  0
  2  8  1  0  0  0  0
  5  9  2  0  0  0  0
  6 10  1  0  0  0  0
  8 10  1  0  0  0  0
  7 11  2  0  0  0  0
  4 12  1  0  0  0  0
  9 13  1  0  0  0  0
 13 14  2  0  0  0  0
 11 14  1  0  0  0  0
 13 15  1  0  0  0  0
  6 16  1  0  0  0  0
 16 17  1  0  0  0  0
 17 18  1  0  0  0  0
 18 19  1  0  0  0  0
M  END
> <IDNUMBER>
4817-2931

> <available>
8

> <H_acceptor>
1

> <H_donor>
2

> <B_rotN>
3

> <N_O>
3

> <logP>
4.6261

> <logD>
2.2136

> <logSw>
-4.4202

> <PSA>
32.417

> <pKa_ma>
20.2865

> <pKa_mb>
9.8108

> <N_Chirals>
0

> <Name>
6-bromo-1-butyl-2,3-dihydro-1H-pyrrolo[2,3-b]quinolin-4-amine

> <Smile>
CCCCN(CC1)c2c1c(N)c(cc(cc1)Br)c1n2

> <Color>
ORANGE

> <Collection>
DC

> <InChI>
InChI=1S/C15H18BrN3/c1-2-3-7-19-8-6-11-14(17)12-9-10(16)4-5-13(12)18-15(11)19/h4-5,9H,2-3,6-8H2,1H3,(H2,17,18)

> <InChI Key>
XHNLICSHYXRRRU-UHFFFAOYSA-N

> <PERCENTSP3>
40

> <Link>
https://www.chemdiv.com/catalog/screening-compounds/compound-4817-2931/

> <MFCDNUMBER>
MFCD00636902

> <CLNUMBER>
CL3115

> <Saltdata>
HCl

> <Saltdata_MW>
36.461

> <STEREO>
ACHIRAL

> <State>
Solid

> <Similarity score>
0.21

$$$$
4-(3,4-dihydroisoquinolin-2(1H)-yl)-6-ethoxyquinoline-3-carbonitrile
  -OEChem-04222410502D

 25 28  0     0  0  0  0  0  0999 V2000
   -0.8477   -0.2044    0.0000 N   0  0  0  0  0  0  0  0  0  0  0  0
   -0.8325   -1.2185    0.0000 C   0  0  0  0  0  0  0  0  0  0  0  0
    0.0454   -1.7181    0.0000 C   0  0  0  0  0  0  0  0  0  0  0  0
   -1.7105   -1.7333    0.0000 C   0  0  0  0  0  0  0  0  0  0  0  0
   -1.7105    0.2801    0.0000 C   0  0  0  0  0  0  0  0  0  0  0  0
   -0.8325   -3.2472    0.0000 N   0  0  0  0  0  0  0  0  0  0  0  0
   -2.5887   -1.2338    0.0000 C   0  0  0  0  0  0  0  0  0  0  0  0
   -3.4666   -0.7342    0.0000 N   0  0  0  0  0  0  0  0  0  0  0  0
    0.0454   -2.7324    0.0000 C   0  0  0  0  0  0  0  0  0  0  0  0
   -1.7105    1.2792    0.0000 C   0  0  0  0  0  0  0  0  0  0  0  0
    0.0152    0.2951    0.0000 C   0  0  0  0  0  0  0  0  0  0  0  0
    0.8932   -1.2185    0.0000 C   0  0  0  0  0  0  0  0  0  0  0  0
   -1.7105   -2.7476    0.0000 C   0  0  0  0  0  0  0  0  0  0  0  0
   -0.8627    1.7788    0.0000 C   0  0  0  0  0  0  0  0  0  0  0  0
    0.0000    1.2942    0.0000 C   0  0  0  0  0  0  0  0  0  0  0  0
    0.9082   -3.2168    0.0000 C   0  0  0  0  0  0  0  0  0  0  0  0
    1.7712   -1.7031    0.0000 C   0  0  0  0  0  0  0  0  0  0  0  0
    1.7864   -2.7172    0.0000 C   0  0  0  0  0  0  0  0  0  0  0  0
    2.6290   -1.1985    0.0000 O   0  0  0  0  0  0  0  0  0  0  0  0
   -2.5734    1.7635    0.0000 C   0  0  0  0  0  0  0  0  0  0  0  0
   -0.8627    2.7627    0.0000 C   0  0  0  0  0  0  0  0  0  0  0  0
    2.6138   -0.1994    0.0000 C   0  0  0  0  0  0  0  0  0  0  0  0
    3.4666    0.3154    0.0000 C   0  0  0  0  0  0  0  0  0  0  0  0
   -2.5734    2.7476    0.0000 C   0  0  0  0  0  0  0  0  0  0  0  0
   -1.7105    3.2472    0.0000 C   0  0  0  0  0  0  0  0  0  0  0  0
  1  2  1  0  0  0  0
  2  3  1  0  0  0  0
  2  4  2  0  0  0  0
  1  5  1  0  0  0  0
  6 13  2  0  0  0  0
  6  9  1  0  0  0  0
  4  7  1  0  0  0  0
  7  8  3  0  0  0  0
  3  9  1  0  0  0  0
  5 10  1  0  0  0  0
 10 14  2  0  0  0  0
  1 11  1  0  0  0  0
  3 12  2  0  0  0  0
  4 13  1  0  0  0  0
 14 15  1  0  0  0  0
 11 15  1  0  0  0  0
  9 16  2  0  0  0  0
 16 18  1  0  0  0  0
 12 17  1  0  0  0  0
 17 18  2  0  0  0  0
 17 19  1  0  0  0  0
 10 20  1  0  0  0  0
 14 21  1  0  0  0  0
 19 22  1  0  0  0  0
 22 23  1  0  0  0  0
 20 24  2  0  0  0  0
 24 25  1  0  0  0  0
 21 25  2  0  0  0  0
M  END
> <IDNUMBER>
F360-0972

> <available>
37

> <H_acceptor>
3

> <H_donor>
0

> <B_rotN>
4

> <N_O>
4

> <logP>
4.4052

> <logD>
4.3703

> <logSw>
-4.1771

> <PSA>
35.783

> <pKa_ma>
22.5349

> <pKa_mb>
6.3225

> <N_Chirals>
0

> <Name>
4-(3,4-dihydroisoquinolin-2(1H)-yl)-6-ethoxyquinoline-3-carbonitrile

> <Smile>
CCOc(ccc1ncc2C#N)cc1c2N(CC1)Cc2c1cccc2

> <Color>
NOT COLORED

> <Collection>
NC

> <InChI>
InChI=1S/C21H19N3O/c1-2-25-18-7-8-20-19(11-18)21(17(12-22)13-23-20)24-10-9-15-5-3-4-6-16(15)14-24/h3-8,11,13H,2,9-10,14H2,1H3

> <InChI Key>
CESQEERCTUEPQF-UHFFFAOYSA-N

> <PERCENTSP3>
23.8

> <Link>
https://www.chemdiv.com/catalog/screening-compounds/compound-F360-0972/

> <MFCDNUMBER>
MFCD27119036

> <CLNUMBER>
CL6761

> <STEREO>
ACHIRAL

> <State>
Solid

> <Similarity score>
0.21

$$$$
4-(2,3-dihydro-1H-benzo[f]cyclopenta[c]quinolin-4-yl)-2-methoxyphenol
  -OEChem-04222410502D

 26 30  0     0  0  0  0  0  0999 V2000
    0.4355   -0.5134    0.0000 N   0  0  0  0  0  0  0  0  0  0  0  0
    0.4355    0.4970    0.0000 C   0  0  0  0  0  0  0  0  0  0  0  0
   -1.3034    0.4970    0.0000 C   0  0  0  0  0  0  0  0  0  0  0  0
   -1.3034   -0.5134    0.0000 C   0  0  0  0  0  0  0  0  0  0  0  0
   -0.4421    1.0021    0.0000 C   0  0  0  0  0  0  0  0  0  0  0  0
   -0.4421   -1.0055    0.0000 C   0  0  0  0  0  0  0  0  0  0  0  0
    1.3002    1.0021    0.0000 C   0  0  0  0  0  0  0  0  0  0  0  0
   -2.1777   -1.0055    0.0000 C   0  0  0  0  0  0  0  0  0  0  0  0
    2.1616    0.4970    0.0000 C   0  0  0  0  0  0  0  0  0  0  0  0
    3.0295    1.0021    0.0000 C   0  0  0  0  0  0  0  0  0  0  0  0
    3.0295    1.9996    0.0000 C   0  0  0  0  0  0  0  0  0  0  0  0
   -0.4421   -2.0158    0.0000 C   0  0  0  0  0  0  0  0  0  0  0  0
    1.3002    1.9996    0.0000 C   0  0  0  0  0  0  0  0  0  0  0  0
   -2.1777   -2.0158    0.0000 C   0  0  0  0  0  0  0  0  0  0  0  0
    2.1616    2.5048    0.0000 C   0  0  0  0  0  0  0  0  0  0  0  0
   -1.3034   -2.5048    0.0000 C   0  0  0  0  0  0  0  0  0  0  0  0
   -2.0417    1.1707    0.0000 C   0  0  0  0  0  0  0  0  0  0  0  0
    3.8941    0.5101    0.0000 O   0  0  0  0  0  0  0  0  0  0  0  0
   -0.6428    1.9833    0.0000 C   0  0  0  0  0  0  0  0  0  0  0  0
    3.8941    2.4886    0.0000 O   0  0  0  0  0  0  0  0  0  0  0  0
   -1.6240    2.0806    0.0000 C   0  0  0  0  0  0  0  0  0  0  0  0
   -3.0423   -0.5134    0.0000 C   0  0  0  0  0  0  0  0  0  0  0  0
   -3.0423   -2.5048    0.0000 C   0  0  0  0  0  0  0  0  0  0  0  0
    3.9038   -0.4842    0.0000 C   0  0  0  0  0  0  0  0  0  0  0  0
   -3.9038   -1.0055    0.0000 C   0  0  0  0  0  0  0  0  0  0  0  0
   -3.9038   -2.0158    0.0000 C   0  0  0  0  0  0  0  0  0  0  0  0
  1  2  2  0  0  0  0
  3  4  1  0  0  0  0
  4  6  2  0  0  0  0
  2  5  1  0  0  0  0
  3  5  2  0  0  0  0
  1  6  1  0  0  0  0
  2  7  1  0  0  0  0
  4  8  1  0  0  0  0
  7  9  2  0  0  0  0
  9 10  1  0  0  0  0
 11 15  1  0  0  0  0
 10 11  2  0  0  0  0
  6 12  1  0  0  0  0
  7 13  1  0  0  0  0
 14 16  1  0  0  0  0
  8 14  2  0  0  0  0
 13 15  2  0  0  0  0
 12 16  2  0  0  0  0
  3 17  1  0  0  0  0
 10 18  1  0  0  0  0
  5 19  1  0  0  0  0
 11 20  1  0  0  0  0
 19 21  1  0  0  0  0
 17 21  1  0  0  0  0
  8 22  1  0  0  0  0
 14 23  1  0  0  0  0
 18 24  1  0  0  0  0
 22 25  2  0  0  0  0
 23 26  2  0  0  0  0
 25 26  1  0  0  0  0
M  END
> <IDNUMBER>
2268-1394

> <available>
60

> <H_acceptor>
3

> <H_donor>
1

> <B_rotN>
2

> <N_O>
3

> <logP>
5.2891

> <logD>
5.259

> <logSw>
-6.2938

> <PSA>
33.262

> <pKa_ma>
8.988

> <pKa_mb>
6.0519

> <N_Chirals>
0

> <Name>
4-(2,3-dihydro-1H-benzo[f]cyclopenta[c]quinolin-4-yl)-2-methoxyphenol

> <Smile>
COc(cc(cc1)-c2nc3ccc(cccc4)c4c3c3c2CCC3)c1O

> <Color>
NOT COLORED

> <Collection>
DC

> <InChI>
InChI=1S/C23H19NO2/c1-26-21-13-15(10-12-20(21)25)23-18-8-4-7-17(18)22-16-6-3-2-5-14(16)9-11-19(22)24-23/h2-3,5-6,9-13,25H,4,7-8H2,1H3

> <InChI Key>
XXLIIZLXPLCTCD-UHFFFAOYSA-N

> <PERCENTSP3>
17.4

> <Link>
https://www.chemdiv.com/catalog/screening-compounds/compound-2268-1394/

> <MFCDNUMBER>
MFCD01540847

> <STEREO>
ACHIRAL

> <State>
Solid

> <Similarity score>
0.21

$$$$
5-{4-[(2-fluorophenyl)methoxy]phenyl}-1,2,3,4-tetrahydrobenzo[a]phenanthridine
  -OEChem-04222410502D

 33 38  0     0  0  0  0  0  0999 V2000
   -0.7803   -1.7315    0.0000 N   0  0  0  0  0  0  0  0  0  0  0  0
   -1.7948   -0.0344    0.0000 C   0  0  0  0  0  0  0  0  0  0  0  0
   -0.2972   -0.8720    0.0000 C   0  0  0  0  0  0  0  0  0  0  0  0
   -2.2781   -0.8720    0.0000 C   0  0  0  0  0  0  0  0  0  0  0  0
   -0.8147   -0.0344    0.0000 C   0  0  0  0  0  0  0  0  0  0  0  0
   -1.7855   -1.7315    0.0000 C   0  0  0  0  0  0  0  0  0  0  0  0
   -3.2520   -0.8720    0.0000 C   0  0  0  0  0  0  0  0  0  0  0  0
    0.7143   -0.8720    0.0000 C   0  0  0  0  0  0  0  0  0  0  0  0
    3.7366    0.8501    0.0000 C   0  0  0  0  0  0  0  0  0  0  0  0
   -2.2781   -2.6035    0.0000 C   0  0  0  0  0  0  0  0  0  0  0  0
    4.2433    1.6907    0.0000 C   0  0  0  0  0  0  0  0  0  0  0  0
    4.2683    0.0031    0.0000 C   0  0  0  0  0  0  0  0  0  0  0  0
   -3.7570   -1.7315    0.0000 C   0  0  0  0  0  0  0  0  0  0  0  0
   -3.2520   -2.6035    0.0000 C   0  0  0  0  0  0  0  0  0  0  0  0
    1.2194   -1.7409    0.0000 C   0  0  0  0  0  0  0  0  0  0  0  0
    1.2194    0.0127    0.0000 C   0  0  0  0  0  0  0  0  0  0  0  0
    3.7649   -0.8720    0.0000 O   0  0  0  0  0  0  0  0  0  0  0  0
    2.7532   -0.8720    0.0000 C   0  0  0  0  0  0  0  0  0  0  0  0
    5.2659    1.6907    0.0000 F   0  0  0  0  0  0  0  0  0  0  0  0
   -2.3032    0.8266    0.0000 C   0  0  0  0  0  0  0  0  0  0  0  0
    2.1840   -1.7409    0.0000 C   0  0  0  0  0  0  0  0  0  0  0  0
    2.1840    0.0127    0.0000 C   0  0  0  0  0  0  0  0  0  0  0  0
   -0.3192    0.8266    0.0000 C   0  0  0  0  0  0  0  0  0  0  0  0
   -3.7837   -0.0344    0.0000 C   0  0  0  0  0  0  0  0  0  0  0  0
    2.7155    0.8501    0.0000 C   0  0  0  0  0  0  0  0  0  0  0  0
    3.7116    2.6035    0.0000 C   0  0  0  0  0  0  0  0  0  0  0  0
   -4.7686   -1.7315    0.0000 C   0  0  0  0  0  0  0  0  0  0  0  0
   -1.8608    1.6907    0.0000 C   0  0  0  0  0  0  0  0  0  0  0  0
   -0.8274    1.6907    0.0000 C   0  0  0  0  0  0  0  0  0  0  0  0
   -4.7686   -0.0344    0.0000 C   0  0  0  0  0  0  0  0  0  0  0  0
    2.2107    1.7188    0.0000 C   0  0  0  0  0  0  0  0  0  0  0  0
    2.7155    2.6035    0.0000 C   0  0  0  0  0  0  0  0  0  0  0  0
   -5.2659   -0.8720    0.0000 C   0  0  0  0  0  0  0  0  0  0  0  0
  2  4  1  0  0  0  0
  2  5  2  0  0  0  0
  1  3  2  0  0  0  0
  4  6  2  0  0  0  0
  3  5  1  0  0  0  0
  1  6  1  0  0  0  0
  4  7  1  0  0  0  0
  7 13  2  0  0  0  0
  3  8  1  0  0  0  0
  9 12  1  0  0  0  0
  6 10  1  0  0  0  0
  9 11  1  0  0  0  0
 12 17  1  0  0  0  0
 13 14  1  0  0  0  0
 10 14  2  0  0  0  0
  8 15  1  0  0  0  0
  8 16  2  0  0  0  0
 17 18  1  0  0  0  0
 18 22  2  0  0  0  0
 18 21  1  0  0  0  0
 11 19  1  0  0  0  0
  2 20  1  0  0  0  0
 15 21  2  0  0  0  0
 16 22  1  0  0  0  0
  5 23  1  0  0  0  0
  7 24  1  0  0  0  0
  9 25  2  0  0  0  0
 11 26  2  0  0  0  0
 13 27  1  0  0  0  0
 20 28  1  0  0  0  0
 28 29  1  0  0  0  0
 23 29  1  0  0  0  0
 24 30  2  0  0  0  0
 30 33  1  0  0  0  0
 25 31  1  0  0  0  0
 31 32  2  0  0  0  0
 26 32  1  0  0  0  0
 27 33  2  0  0  0  0
M  END
> <IDNUMBER>
8012-9715

> <available>
40

> <H_acceptor>
2

> <H_donor>
0

> <B_rotN>
4

> <N_O>
2

> <logP>
7.9758

> <logD>
7.9745

> <logSw>
-7.3996

> <PSA>
15.9446

> <pKa_ma>
20.8421

> <pKa_mb>
4.8592

> <N_Chirals>
0

> <Name>
5-{4-[(2-fluorophenyl)methoxy]phenyl}-1,2,3,4-tetrahydrobenzo[a]phenanthridine

> <Smile>
Fc1c(COc(cc2)ccc2-c2nc3ccc(cccc4)c4c3c3c2CCCC3)cccc1

> <Color>
ORANGE

> <Collection>
DC

> <InChI>
InChI=1S/C30H24FNO/c31-27-12-6-2-8-22(27)19-33-23-16-13-21(14-17-23)30-26-11-5-4-10-25(26)29-24-9-3-1-7-20(24)15-18-28(29)32-30/h1-3,6-9,12-18H,4-5,10-11,19H2

> <InChI Key>
PWQBSYVECMZYJN-UHFFFAOYSA-N

> <PERCENTSP3>
16.7

> <Link>
https://www.chemdiv.com/catalog/screening-compounds/compound-8012-9715/

> <MFCDNUMBER>
MFCD03308391

> <STEREO>
ACHIRAL

> <State>
Solid

> <Similarity score>
0.21

$$$$
6,8-difluoro-3-(4-fluorophenyl)-1-(4-methoxyphenyl)-1H-pyrazolo[4,3-c]quinoline
  -OEChem-04222410502D

 30 34  0     0  0  0  0  0  0999 V2000
   -0.8589    0.4406    0.0000 N   0  0  0  0  0  0  0  0  0  0  0  0
   -0.2050   -1.0377    0.0000 C   0  0  0  0  0  0  0  0  0  0  0  0
   -1.0708   -0.5388    0.0000 C   0  0  0  0  0  0  0  0  0  0  0  0
    0.1277    0.5455    0.0000 N   0  0  0  0  0  0  0  0  0  0  0  0
    0.5378   -0.3611    0.0000 C   0  0  0  0  0  0  0  0  0  0  0  0
   -1.9340   -1.0377    0.0000 C   0  0  0  0  0  0  0  0  0  0  0  0
   -1.9340   -2.0354    0.0000 C   0  0  0  0  0  0  0  0  0  0  0  0
   -1.0708   -2.5343    0.0000 N   0  0  0  0  0  0  0  0  0  0  0  0
   -0.2050   -2.0354    0.0000 C   0  0  0  0  0  0  0  0  0  0  0  0
   -2.7951   -2.5343    0.0000 C   0  0  0  0  0  0  0  0  0  0  0  0
   -1.4898    1.2107    0.0000 C   0  0  0  0  0  0  0  0  0  0  0  0
   -3.6678   -2.0400    0.0000 C   0  0  0  0  0  0  0  0  0  0  0  0
    1.5355   -0.4614    0.0000 C   0  0  0  0  0  0  0  0  0  0  0  0
   -2.7951   -0.5388    0.0000 C   0  0  0  0  0  0  0  0  0  0  0  0
   -3.6678   -1.0377    0.0000 C   0  0  0  0  0  0  0  0  0  0  0  0
   -1.1323    2.1492    0.0000 C   0  0  0  0  0  0  0  0  0  0  0  0
   -2.4785    1.0513    0.0000 C   0  0  0  0  0  0  0  0  0  0  0  0
    1.9545   -1.3588    0.0000 C   0  0  0  0  0  0  0  0  0  0  0  0
    2.1096    0.3633    0.0000 C   0  0  0  0  0  0  0  0  0  0  0  0
   -2.7951   -3.5389    0.0000 F   0  0  0  0  0  0  0  0  0  0  0  0
    3.5310   -0.6345    0.0000 C   0  0  0  0  0  0  0  0  0  0  0  0
   -4.5309   -0.5388    0.0000 F   0  0  0  0  0  0  0  0  0  0  0  0
   -2.7609    2.7597    0.0000 C   0  0  0  0  0  0  0  0  0  0  0  0
    2.9408   -1.4614    0.0000 C   0  0  0  0  0  0  0  0  0  0  0  0
    3.1073    0.2745    0.0000 C   0  0  0  0  0  0  0  0  0  0  0  0
   -3.1095    1.8211    0.0000 C   0  0  0  0  0  0  0  0  0  0  0  0
   -1.7678    2.9214    0.0000 C   0  0  0  0  0  0  0  0  0  0  0  0
    4.5309   -0.7349    0.0000 F   0  0  0  0  0  0  0  0  0  0  0  0
   -3.3850    3.5389    0.0000 O   0  0  0  0  0  0  0  0  0  0  0  0
   -4.3690    3.3724    0.0000 C   0  0  0  0  0  0  0  0  0  0  0  0
  2  3  2  0  0  0  0
  2  5  1  0  0  0  0
  1  3  1  0  0  0  0
  1  4  1  0  0  0  0
  4  5  2  0  0  0  0
  3  6  1  0  0  0  0
  6  7  1  0  0  0  0
  7  8  1  0  0  0  0
  8  9  2  0  0  0  0
  2  9  1  0  0  0  0
  7 10  2  0  0  0  0
  1 11  1  0  0  0  0
 12 15  2  0  0  0  0
 10 12  1  0  0  0  0
  5 13  1  0  0  0  0
  6 14  2  0  0  0  0
 14 15  1  0  0  0  0
 11 16  2  0  0  0  0
 11 17  1  0  0  0  0
 13 18  2  0  0  0  0
 13 19  1  0  0  0  0
 10 20  1  0  0  0  0
 21 25  1  0  0  0  0
 15 22  1  0  0  0  0
 23 26  1  0  0  0  0
 18 24  1  0  0  0  0
 21 24  2  0  0  0  0
 19 25  2  0  0  0  0
 17 26  2  0  0  0  0
 16 27  1  0  0  0  0
 23 27  2  0  0  0  0
 21 28  1  0  0  0  0
 23 29  1  0  0  0  0
 29 30  1  0  0  0  0
M  END
> <IDNUMBER>
C350-0499

> <available>
111

> <H_acceptor>
3

> <H_donor>
0

> <B_rotN>
3

> <N_O>
4

> <logP>
5.4381

> <logD>
5.4381

> <logSw>
-5.653

> <PSA>
31.0241

> <pKa_ma>
33.286

> <pKa_mb>
2.2647

> <N_Chirals>
0

> <Name>
6,8-difluoro-3-(4-fluorophenyl)-1-(4-methoxyphenyl)-1H-pyrazolo[4,3-c]quinoline

> <Smile>
COc(cc1)ccc1-n(c1c(cc(cc2F)F)c2ncc11)nc1-c(cc1)ccc1F

> <Color>
NOT COLORED

> <Collection>
DC

> <InChI>
InChI=1S/C23H14F3N3O/c1-30-17-8-6-16(7-9-17)29-23-18-10-15(25)11-20(26)22(18)27-12-19(23)21(28-29)13-2-4-14(24)5-3-13/h2-12H,1H3

> <InChI Key>
UOQHYNPURJVFSW-UHFFFAOYSA-N

> <PERCENTSP3>
4.3

> <Link>
https://www.chemdiv.com/catalog/screening-compounds/compound-C350-0499/

> <MFCDNUMBER>
MFCD14750453

> <CLNUMBER>
CL4130

> <STEREO>
ACHIRAL

> <State>
Solid

> <Similarity score>
0.21

$$$$
1-[(5-methoxy-1H-indol-3-yl)methyl]-3-methylpiperidine-3-carboxamide
  -OEChem-04222410502D

 22 24  0     0  0  0  0  0  0999 V2000
    1.6456   -0.3604    0.0000 C   0  0  0  0  0  0  0  0  0  0  0  0
   -0.9561    1.1410    0.0000 C   0  0  3  0  0  0  0  0  0  0  0  0
    0.8368   -0.9467    0.0000 C   0  0  0  0  0  0  0  0  0  0  0  0
    2.1472   -1.8963    0.0000 N   0  0  0  0  0  0  0  0  0  0  0  0
    2.4544   -0.9467    0.0000 C   0  0  0  0  0  0  0  0  0  0  0  0
   -1.9527    1.1410    0.0000 C   0  0  0  0  0  0  0  0  0  0  0  0
    0.7743    1.1410    0.0000 N   0  0  0  0  0  0  0  0  0  0  0  0
    1.6456    0.6425    0.0000 C   0  0  0  0  0  0  0  0  0  0  0  0
   -0.0909    0.6425    0.0000 C   0  0  0  0  0  0  0  0  0  0  0  0
    1.1410   -1.8963    0.0000 C   0  0  0  0  0  0  0  0  0  0  0  0
   -0.1410   -0.7398    0.0000 C   0  0  0  0  0  0  0  0  0  0  0  0
   -2.4544    2.0060    0.0000 O   0  0  0  0  0  0  0  0  0  0  0  0
    0.4733   -2.6393    0.0000 C   0  0  0  0  0  0  0  0  0  0  0  0
   -2.4544    0.2758    0.0000 N   0  0  0  0  0  0  0  0  0  0  0  0
   -0.8150   -1.4826    0.0000 C   0  0  0  0  0  0  0  0  0  0  0  0
   -0.9561    2.1377    0.0000 C   0  0  0  0  0  0  0  0  0  0  0  0
   -1.4576    0.2758    0.0000 C   0  0  0  0  0  0  0  0  0  0  0  0
   -0.5046   -2.4387    0.0000 C   0  0  0  0  0  0  0  0  0  0  0  0
    0.7743    2.1377    0.0000 C   0  0  0  0  0  0  0  0  0  0  0  0
   -1.7929   -1.2758    0.0000 O   0  0  0  0  0  0  0  0  0  0  0  0
   -0.0909    2.6393    0.0000 C   0  0  0  0  0  0  0  0  0  0  0  0
   -2.1034   -0.3228    0.0000 C   0  0  0  0  0  0  0  0  0  0  0  0
  2  9  1  0  0  0  0
  2 16  1  0  0  0  0
  1  3  1  0  0  0  0
  4  5  1  0  0  0  0
  4 10  1  0  0  0  0
  1  5  2  0  0  0  0
  2  6  1  0  0  0  0
  7  8  1  0  0  0  0
  1  8  1  0  0  0  0
  7  9  1  0  0  0  0
  3 10  2  0  0  0  0
  3 11  1  0  0  0  0
  6 12  2  0  0  0  0
 10 13  1  0  0  0  0
 13 18  2  0  0  0  0
  6 14  1  0  0  0  0
 11 15  2  0  0  0  0
 16 21  1  0  0  0  0
  2 17  1  0  0  0  0
 15 18  1  0  0  0  0
  7 19  1  0  0  0  0
 15 20  1  0  0  0  0
 19 21  1  0  0  0  0
 20 22  1  0  0  0  0
M  END
> <IDNUMBER>
SA93-0042

> <available>
8

> <H_acceptor>
4

> <H_donor>
3

> <B_rotN>
4

> <N_O>
5

> <logP>
1.5736

> <logD>
-0.546

> <logSw>
-2.2752

> <PSA>
55.378

> <pKa_ma>
14.043

> <pKa_mb>
9.5163

> <N_Chirals>
1

> <Name>
1-[(5-methoxy-1H-indol-3-yl)methyl]-3-methylpiperidine-3-carboxamide

> <Smile>
CC1(CN(Cc2c[nH]c(cc3)c2cc3OC)CCC1)C(N)=O

> <Color>
ORANGE

> <Collection>
IC

> <InChI>
InChI=1S/C17H23N3O2/c1-17(16(18)21)6-3-7-20(11-17)10-12-9-19-15-5-4-13(22-2)8-14(12)15/h4-5,8-9,19H,3,6-7,10-11H2,1-2H3,(H2,18,21)/t17-/m0/s1

> <InChI Key>
XYUBWXZJLZLAHK-KRWDZBQOSA-N

> <PERCENTSP3>
47.1

> <Link>
https://www.chemdiv.com/catalog/screening-compounds/compound-SA93-0042/

> <MFCDNUMBER>
MFCD32241973

> <CLNUMBER>
CM5470

> <STEREO>
RACEMIC MIXTURE

> <State>
Oil

> <Similarity score>
0.21

$$$$
N-butyl-N-ethyl-2-(4-nitrophenyl)quinazolin-4-amine
  -OEChem-04222410502D

 26 28  0     0  0  0  0  0  0999 V2000
   -0.4562    0.5145    0.0000 N   0  0  0  0  0  0  0  0  0  0  0  0
   -1.3168    1.0161    0.0000 C   0  0  0  0  0  0  0  0  0  0  0  0
   -0.4476   -0.4757    0.0000 C   0  0  0  0  0  0  0  0  0  0  0  0
    3.0466   -2.4735    0.0000 N   0  3  0  0  0  0  0  0  0  0  0  0
   -2.1816    0.5103    0.0000 C   0  0  0  0  0  0  0  0  0  0  0  0
   -1.3168   -0.9903    0.0000 N   0  0  0  0  0  0  0  0  0  0  0  0
   -2.1816   -0.4757    0.0000 C   0  0  0  0  0  0  0  0  0  0  0  0
    2.1643   -1.9762    0.0000 C   0  0  0  0  0  0  0  0  0  0  0  0
   -1.3168    2.0021    0.0000 N   0  0  0  0  0  0  0  0  0  0  0  0
    0.4259   -0.9773    0.0000 C   0  0  0  0  0  0  0  0  0  0  0  0
    3.0466   -3.4855    0.0000 O   0  5  0  0  0  0  0  0  0  0  0  0
    3.9244   -1.9762    0.0000 O   0  0  0  0  0  0  0  0  0  0  0  0
    2.1600   -0.9687    0.0000 C   0  0  0  0  0  0  0  0  0  0  0  0
    1.3080   -2.4735    0.0000 C   0  0  0  0  0  0  0  0  0  0  0  0
    1.2649   -0.4713    0.0000 C   0  0  0  0  0  0  0  0  0  0  0  0
    0.4259   -1.9935    0.0000 C   0  0  0  0  0  0  0  0  0  0  0  0
   -3.0508    1.0032    0.0000 C   0  0  0  0  0  0  0  0  0  0  0  0
   -3.0508   -0.9903    0.0000 C   0  0  0  0  0  0  0  0  0  0  0  0
   -2.1816    2.4995    0.0000 C   0  0  0  0  0  0  0  0  0  0  0  0
   -0.4691    2.4995    0.0000 C   0  0  0  0  0  0  0  0  0  0  0  0
    0.3828    2.0021    0.0000 C   0  0  0  0  0  0  0  0  0  0  0  0
    1.2433    2.4995    0.0000 C   0  0  0  0  0  0  0  0  0  0  0  0
   -3.9244    0.5103    0.0000 C   0  0  0  0  0  0  0  0  0  0  0  0
   -2.1816    3.4855    0.0000 C   0  0  0  0  0  0  0  0  0  0  0  0
   -3.9244   -0.4757    0.0000 C   0  0  0  0  0  0  0  0  0  0  0  0
    2.1124    2.0021    0.0000 C   0  0  0  0  0  0  0  0  0  0  0  0
  1  2  2  0  0  0  0
  1  3  1  0  0  0  0
  4  8  1  0  0  0  0
  2  5  1  0  0  0  0
  3  6  2  0  0  0  0
  6  7  1  0  0  0  0
  5  7  1  0  0  0  0
  8 14  2  0  0  0  0
  8 13  1  0  0  0  0
  2  9  1  0  0  0  0
  3 10  1  0  0  0  0
  4 11  1  0  0  0  0
  4 12  2  0  0  0  0
 13 15  2  0  0  0  0
 14 16  1  0  0  0  0
 10 15  1  0  0  0  0
 10 16  2  0  0  0  0
  5 17  2  0  0  0  0
  7 18  2  0  0  0  0
  9 19  1  0  0  0  0
  9 20  1  0  0  0  0
 20 21  1  0  0  0  0
 21 22  1  0  0  0  0
 17 23  1  0  0  0  0
 19 24  1  0  0  0  0
 18 25  1  0  0  0  0
 23 25  2  0  0  0  0
 22 26  1  0  0  0  0
M  CHG  2   4   1  11  -1
M  END
> <IDNUMBER>
4358-4635

> <available>
32

> <H_acceptor>
6

> <H_donor>
0

> <B_rotN>
7

> <N_O>
6

> <logP>
6.2345

> <logD>
5.6502

> <logSw>
-5.8912

> <PSA>
54.557

> <pKa_ma>
22.6496

> <pKa_mb>
7.8534

> <N_Chirals>
0

> <Name>
N-butyl-N-ethyl-2-(4-nitrophenyl)quinazolin-4-amine

> <Smile>
CCCCN(CC)c1nc(-c(cc2)ccc2[N+]([O-])=O)nc2ccccc12

> <Color>
YELLOW

> <Collection>
NC

> <InChI>
InChI=1S/C20H22N4O2/c1-3-5-14-23(4-2)20-17-8-6-7-9-18(17)21-19(22-20)15-10-12-16(13-11-15)24(25)26/h6-13H,3-5,14H2,1-2H3

> <InChI Key>
HNFWRNVSYUVRHZ-UHFFFAOYSA-N

> <PERCENTSP3>
30

> <Link>
https://www.chemdiv.com/catalog/screening-compounds/compound-4358-4635/

> <MFCDNUMBER>
MFCD03285581

> <CLNUMBER>
CL2243

> <STEREO>
ACHIRAL

> <State>
Solid

> <Similarity score>
0.21

$$$$
3-(4-ethoxyphenyl)-6,8-difluoro-1-(3-nitrophenyl)-1H-pyrazolo[4,3-c]quinoline
  -OEChem-04222410502D

 33 37  0     0  0  0  0  0  0999 V2000
   -1.5745   -0.1051    0.0000 N   0  0  0  0  0  0  0  0  0  0  0  0
   -0.9112   -1.5768    0.0000 C   0  0  0  0  0  0  0  0  0  0  0  0
   -1.7867   -1.0686    0.0000 C   0  0  0  0  0  0  0  0  0  0  0  0
   -0.5798    0.0023    0.0000 N   0  0  0  0  0  0  0  0  0  0  0  0
   -0.1479   -0.8995    0.0000 C   0  0  0  0  0  0  0  0  0  0  0  0
   -2.6670   -1.5768    0.0000 C   0  0  0  0  0  0  0  0  0  0  0  0
   -2.1185    3.2898    0.0000 N   0  3  0  0  0  0  0  0  0  0  0  0
   -2.6670   -2.5644    0.0000 C   0  0  0  0  0  0  0  0  0  0  0  0
   -1.7867   -3.0631    0.0000 N   0  0  0  0  0  0  0  0  0  0  0  0
   -2.1996    0.6656    0.0000 C   0  0  0  0  0  0  0  0  0  0  0  0
   -0.9112   -2.5644    0.0000 C   0  0  0  0  0  0  0  0  0  0  0  0
   -3.5379   -3.0631    0.0000 C   0  0  0  0  0  0  0  0  0  0  0  0
   -1.8465    1.5866    0.0000 C   0  0  0  0  0  0  0  0  0  0  0  0
   -2.4714    2.3546    0.0000 C   0  0  0  0  0  0  0  0  0  0  0  0
   -4.4132   -2.5644    0.0000 C   0  0  0  0  0  0  0  0  0  0  0  0
    0.8541   -1.0042    0.0000 C   0  0  0  0  0  0  0  0  0  0  0  0
   -3.5379   -1.0686    0.0000 C   0  0  0  0  0  0  0  0  0  0  0  0
   -1.1238    3.4544    0.0000 O   0  5  0  0  0  0  0  0  0  0  0  0
   -2.7385    4.0578    0.0000 O   0  0  0  0  0  0  0  0  0  0  0  0
   -4.4038   -1.5768    0.0000 C   0  0  0  0  0  0  0  0  0  0  0  0
    1.4289   -0.1789    0.0000 C   0  0  0  0  0  0  0  0  0  0  0  0
    1.2620   -1.8988    0.0000 C   0  0  0  0  0  0  0  0  0  0  0  0
   -3.5283   -4.0578    0.0000 F   0  0  0  0  0  0  0  0  0  0  0  0
   -5.2721   -1.0808    0.0000 F   0  0  0  0  0  0  0  0  0  0  0  0
    2.8769   -1.1760    0.0000 C   0  0  0  0  0  0  0  0  0  0  0  0
    2.2734   -2.0016    0.0000 C   0  0  0  0  0  0  0  0  0  0  0  0
    2.4380   -0.2697    0.0000 C   0  0  0  0  0  0  0  0  0  0  0  0
   -3.1657    0.5058    0.0000 C   0  0  0  0  0  0  0  0  0  0  0  0
    3.8671   -1.2762    0.0000 O   0  0  0  0  0  0  0  0  0  0  0  0
   -3.4471    2.2042    0.0000 C   0  0  0  0  0  0  0  0  0  0  0  0
   -3.7933    1.2689    0.0000 C   0  0  0  0  0  0  0  0  0  0  0  0
    4.2796   -2.1877    0.0000 C   0  0  0  0  0  0  0  0  0  0  0  0
    5.2721   -2.2780    0.0000 C   0  0  0  0  0  0  0  0  0  0  0  0
  2  3  2  0  0  0  0
  2  5  1  0  0  0  0
  1  3  1  0  0  0  0
  1  4  1  0  0  0  0
  4  5  2  0  0  0  0
  3  6  1  0  0  0  0
  7 14  1  0  0  0  0
  6  8  1  0  0  0  0
  8  9  1  0  0  0  0
  9 11  2  0  0  0  0
  1 10  1  0  0  0  0
  2 11  1  0  0  0  0
  8 12  2  0  0  0  0
 10 13  2  0  0  0  0
 13 14  1  0  0  0  0
 14 30  2  0  0  0  0
 15 20  2  0  0  0  0
 12 15  1  0  0  0  0
  5 16  1  0  0  0  0
  6 17  2  0  0  0  0
  7 18  1  0  0  0  0
  7 19  2  0  0  0  0
 17 20  1  0  0  0  0
 16 21  1  0  0  0  0
 16 22  2  0  0  0  0
 12 23  1  0  0  0  0
 20 24  1  0  0  0  0
 25 26  2  0  0  0  0
 22 26  1  0  0  0  0
 21 27  2  0  0  0  0
 25 27  1  0  0  0  0
 10 28  1  0  0  0  0
 25 29  1  0  0  0  0
 30 31  1  0  0  0  0
 28 31  2  0  0  0  0
 29 32  1  0  0  0  0
 32 33  1  0  0  0  0
M  CHG  2   7   1  18  -1
M  END
> <IDNUMBER>
C350-0827

> <available>
103

> <H_acceptor>
7

> <H_donor>
0

> <B_rotN>
5

> <N_O>
7

> <logP>
5.6659

> <logD>
5.6659

> <logSw>
-5.6365

> <PSA>
63.986

> <pKa_ma>
29.8521

> <pKa_mb>
2.2647

> <N_Chirals>
0

> <Name>
3-(4-ethoxyphenyl)-6,8-difluoro-1-(3-nitrophenyl)-1H-pyrazolo[4,3-c]quinoline

> <Smile>
CCOc(cc1)ccc1-c(c1cnc2c(F)cc(F)cc2c11)nn1-c1cc([N+]([O-])=O)ccc1

> <Color>
NOT COLORED

> <Collection>
DC

> <InChI>
InChI=1S/C24H16F2N4O3/c1-2-33-18-8-6-14(7-9-18)22-20-13-27-23-19(10-15(25)11-21(23)26)24(20)29(28-22)16-4-3-5-17(12-16)30(31)32/h3-13H,2H2,1H3

> <InChI Key>
CAJMJTWODBKEDP-UHFFFAOYSA-N

> <PERCENTSP3>
8.3

> <Link>
https://www.chemdiv.com/catalog/screening-compounds/compound-C350-0827/

> <MFCDNUMBER>
MFCD14750693

> <CLNUMBER>
CL4130

> <STEREO>
ACHIRAL

> <State>
Solid

> <Similarity score>
0.21

$$$$
2-(4-methoxyphenyl)-4-(3-phenylpyrrolidin-1-yl)quinazoline
  -OEChem-04222410502D

 29 33  0     0  0  0  0  0  0999 V2000
   -0.8619   -0.2805    0.0000 C   0  0  0  0  0  0  0  0  0  0  0  0
    0.0102   -0.7719    0.0000 N   0  0  0  0  0  0  0  0  0  0  0  0
   -0.8619    0.7317    0.0000 N   0  0  0  0  0  0  0  0  0  0  0  0
    0.0102   -1.7841    0.0000 C   0  0  0  0  0  0  0  0  0  0  0  0
   -1.7238   -0.7719    0.0000 C   0  0  0  0  0  0  0  0  0  0  0  0
   -0.8619   -2.2750    0.0000 N   0  0  0  0  0  0  0  0  0  0  0  0
   -1.7238   -1.7841    0.0000 C   0  0  0  0  0  0  0  0  0  0  0  0
   -0.0401    1.2729    0.0000 C   0  0  0  0  0  0  0  0  0  0  0  0
    0.8619   -2.2750    0.0000 C   0  0  0  0  0  0  0  0  0  0  0  0
   -0.3207    2.2347    0.0000 C   0  0  3  0  0  0  0  0  0  0  0  0
   -1.6437    1.3429    0.0000 C   0  0  0  0  0  0  0  0  0  0  0  0
   -1.3027    2.2951    0.0000 C   0  0  0  0  0  0  0  0  0  0  0  0
    0.2004    3.0671    0.0000 C   0  0  0  0  0  0  0  0  0  0  0  0
    0.8619   -3.2872    0.0000 C   0  0  0  0  0  0  0  0  0  0  0  0
    1.7341   -1.7841    0.0000 C   0  0  0  0  0  0  0  0  0  0  0  0
    2.5959   -3.2872    0.0000 C   0  0  0  0  0  0  0  0  0  0  0  0
    2.6059   -2.2750    0.0000 C   0  0  0  0  0  0  0  0  0  0  0  0
    1.7238   -3.7782    0.0000 C   0  0  0  0  0  0  0  0  0  0  0  0
   -2.5956   -0.2805    0.0000 C   0  0  0  0  0  0  0  0  0  0  0  0
    3.4678   -3.7983    0.0000 O   0  0  0  0  0  0  0  0  0  0  0  0
   -2.5956   -2.2750    0.0000 C   0  0  0  0  0  0  0  0  0  0  0  0
    1.2126    3.0371    0.0000 C   0  0  0  0  0  0  0  0  0  0  0  0
   -0.2604    3.9390    0.0000 C   0  0  0  0  0  0  0  0  0  0  0  0
    3.4480   -4.8007    0.0000 C   0  0  0  0  0  0  0  0  0  0  0  0
   -3.4678   -0.7719    0.0000 C   0  0  0  0  0  0  0  0  0  0  0  0
   -3.4678   -1.7841    0.0000 C   0  0  0  0  0  0  0  0  0  0  0  0
    0.2808    4.8007    0.0000 C   0  0  0  0  0  0  0  0  0  0  0  0
    1.7341    3.8787    0.0000 C   0  0  0  0  0  0  0  0  0  0  0  0
    1.2830    4.7508    0.0000 C   0  0  0  0  0  0  0  0  0  0  0  0
  1  2  2  0  0  0  0
  1  3  1  0  0  0  0
  2  4  1  0  0  0  0
  1  5  1  0  0  0  0
  6  7  1  0  0  0  0
  4  6  2  0  0  0  0
  5  7  1  0  0  0  0
  3  8  1  0  0  0  0
  4  9  1  0  0  0  0
  8 10  1  0  0  0  0
  3 11  1  0  0  0  0
 11 12  1  0  0  0  0
 10 12  1  0  0  0  0
 10 13  1  0  0  0  0
  9 14  2  0  0  0  0
  9 15  1  0  0  0  0
 16 17  1  0  0  0  0
 16 18  2  0  0  0  0
 15 17  2  0  0  0  0
 14 18  1  0  0  0  0
  5 19  2  0  0  0  0
 16 20  1  0  0  0  0
  7 21  2  0  0  0  0
 21 26  1  0  0  0  0
 13 22  1  0  0  0  0
 13 23  2  0  0  0  0
 20 24  1  0  0  0  0
 19 25  1  0  0  0  0
 25 26  2  0  0  0  0
 23 27  1  0  0  0  0
 22 28  2  0  0  0  0
 27 29  2  0  0  0  0
 28 29  1  0  0  0  0
M  END
> <IDNUMBER>
G516-0250

> <available>
401

> <H_acceptor>
3

> <H_donor>
0

> <B_rotN>
4

> <N_O>
4

> <logP>
6.7312

> <logD>
6.2899

> <logSw>
-6.2366

> <PSA>
29.2101

> <pKa_ma>
18.4111

> <pKa_mb>
7.6461

> <N_Chirals>
1

> <Name>
2-(4-methoxyphenyl)-4-(3-phenylpyrrolidin-1-yl)quinazoline

> <Smile>
COc(cc1)ccc1-c1nc2ccccc2c(N(CC2)CC2c2ccccc2)n1

> <Color>
BROWN

> <Collection>
NC

> <InChI>
InChI=1S/C25H23N3O/c1-29-21-13-11-19(12-14-21)24-26-23-10-6-5-9-22(23)25(27-24)28-16-15-20(17-28)18-7-3-2-4-8-18/h2-14,20H,15-17H2,1H3/t20-/m1/s1

> <InChI Key>
BLKGMXRXEGCWKG-HXUWFJFHSA-N

> <PERCENTSP3>
20

> <Link>
https://www.chemdiv.com/catalog/screening-compounds/compound-G516-0250/

> <MFCDNUMBER>
MFCD15015068

> <CLNUMBER>
CL2243

> <STEREO>
RACEMIC MIXTURE

> <State>
Solid

> <Similarity score>
0.21

$$$$
2-(4-methoxyphenyl)-4-(3-methylpiperidin-1-yl)-5,6,8,9-tetrahydrooxepino[4,5-d]p
  -OEChem-04222410502D

 26 29  0     0  0  0  0  0  0999 V2000
    0.0675    1.5682    0.0000 C   0  0  0  0  0  0  0  0  0  0  0  0
    0.0015    0.5657    0.0000 N   0  0  0  0  0  0  0  0  0  0  0  0
   -0.7504    2.1229    0.0000 C   0  0  0  0  0  0  0  0  0  0  0  0
   -0.9010    0.1301    0.0000 C   0  0  0  0  0  0  0  0  0  0  0  0
    0.9700    2.0008    0.0000 N   0  0  0  0  0  0  0  0  0  0  0  0
   -1.7280    0.6972    0.0000 N   0  0  0  0  0  0  0  0  0  0  0  0
   -1.6529    1.6906    0.0000 C   0  0  0  0  0  0  0  0  0  0  0  0
   -0.9761   -0.8666    0.0000 C   0  0  0  0  0  0  0  0  0  0  0  0
    1.0546    2.9878    0.0000 C   0  0  0  0  0  0  0  0  0  0  0  0
   -2.1512    3.8809    0.0000 O   0  0  0  0  0  0  0  0  0  0  0  0
   -1.8786   -1.2989    0.0000 C   0  0  0  0  0  0  0  0  0  0  0  0
   -0.1488   -1.4304    0.0000 C   0  0  0  0  0  0  0  0  0  0  0  0
   -2.5554    2.1229    0.0000 C   0  0  0  0  0  0  0  0  0  0  0  0
    1.8065    1.4304    0.0000 C   0  0  0  0  0  0  0  0  0  0  0  0
   -0.5280    3.1039    0.0000 C   0  0  0  0  0  0  0  0  0  0  0  0
   -1.1264   -2.8594    0.0000 C   0  0  0  0  0  0  0  0  0  0  0  0
   -1.9537   -2.3017    0.0000 C   0  0  0  0  0  0  0  0  0  0  0  0
   -0.2239   -2.4237    0.0000 C   0  0  0  0  0  0  0  0  0  0  0  0
    1.9570    3.4295    0.0000 C   0  0  3  0  0  0  0  0  0  0  0  0
   -1.2015   -3.8558    0.0000 O   0  0  0  0  0  0  0  0  0  0  0  0
   -2.7747    3.1039    0.0000 C   0  0  0  0  0  0  0  0  0  0  0  0
    2.7090    1.8691    0.0000 C   0  0  0  0  0  0  0  0  0  0  0  0
   -1.1485    3.8809    0.0000 C   0  0  0  0  0  0  0  0  0  0  0  0
    2.7747    2.8657    0.0000 C   0  0  0  0  0  0  0  0  0  0  0  0
   -0.3744   -4.4199    0.0000 C   0  0  0  0  0  0  0  0  0  0  0  0
    2.0228    4.4199    0.0000 C   0  0  0  0  0  0  0  0  0  0  0  0
  1  2  2  0  0  0  0
  1  3  1  0  0  0  0
  2  4  1  0  0  0  0
  1  5  1  0  0  0  0
  6  7  1  0  0  0  0
  4  6  2  0  0  0  0
  3  7  2  0  0  0  0
  4  8  1  0  0  0  0
  5  9  1  0  0  0  0
 10 23  1  0  0  0  0
  8 11  2  0  0  0  0
  8 12  1  0  0  0  0
  7 13  1  0  0  0  0
  5 14  1  0  0  0  0
  3 15  1  0  0  0  0
 16 18  1  0  0  0  0
 11 17  1  0  0  0  0
 16 17  2  0  0  0  0
 12 18  2  0  0  0  0
  9 19  1  0  0  0  0
 16 20  1  0  0  0  0
 13 21  1  0  0  0  0
 10 21  1  0  0  0  0
 14 22  1  0  0  0  0
 15 23  1  0  0  0  0
 22 24  1  0  0  0  0
 19 24  1  0  0  0  0
 20 25  1  0  0  0  0
 19 26  1  0  0  0  0
M  END
> <IDNUMBER>
S896-0154

> <available>
126

> <H_acceptor>
4

> <H_donor>
0

> <B_rotN>
3

> <N_O>
5

> <logP>
4.842

> <logD>
4.8363

> <logSw>
-4.6017

> <PSA>
39.062

> <pKa_ma>
19.7965

> <pKa_mb>
5.5159

> <N_Chirals>
1

> <Name>
2-(4-methoxyphenyl)-4-(3-methylpiperidin-1-yl)-5,6,8,9-tetrahydrooxepino[4,5-d]pyrimidine

> <Smile>
CC(CCC1)CN1c1nc(-c(cc2)ccc2OC)nc2c1CCOCC2

> <Color>
ORANGE

> <Collection>
IC

> <InChI>
InChI=1S/C21H27N3O2/c1-15-4-3-11-24(14-15)21-18-9-12-26-13-10-19(18)22-20(23-21)16-5-7-17(25-2)8-6-16/h5-8,15H,3-4,9-14H2,1-2H3/t15-/m0/s1

> <InChI Key>
HWAFCXVMLQTCAU-HNNXBMFYSA-N

> <PERCENTSP3>
52.38

> <Link>
https://www.chemdiv.com/catalog/screening-compounds/compound-S896-0154/

> <MFCDNUMBER>
MFCD31956799

> <CLNUMBER>
CM3993

> <STEREO>
RACEMIC MIXTURE

> <State>
Solid

> <Similarity score>
0.21

$$$$
ethyl 4-(3,4-dihydroisoquinolin-2(1H)-yl)-2-(trifluoromethyl)quinazoline-6-carbo
  -OEChem-04222410502D

 29 32  0     0  0  0  0  0  0999 V2000
    0.8078   -0.7180    0.0000 C   0  0  0  0  0  0  0  0  0  0  0  0
    1.6737   -1.2305    0.0000 N   0  0  0  0  0  0  0  0  0  0  0  0
   -0.0622   -1.2305    0.0000 C   0  0  0  0  0  0  0  0  0  0  0  0
    1.6737   -2.2170    0.0000 C   0  0  0  0  0  0  0  0  0  0  0  0
    0.8078    0.2686    0.0000 N   0  0  0  0  0  0  0  0  0  0  0  0
    0.8078   -2.7250    0.0000 N   0  0  0  0  0  0  0  0  0  0  0  0
    2.5359   -2.7166    0.0000 C   0  0  0  0  0  0  0  0  0  0  0  0
   -0.0622   -2.2170    0.0000 C   0  0  0  0  0  0  0  0  0  0  0  0
   -0.9244   -0.7180    0.0000 C   0  0  0  0  0  0  0  0  0  0  0  0
    1.6737    0.7683    0.0000 C   0  0  0  0  0  0  0  0  0  0  0  0
   -1.7862   -1.2305    0.0000 C   0  0  0  0  0  0  0  0  0  0  0  0
   -2.6520   -0.7180    0.0000 C   0  0  0  0  0  0  0  0  0  0  0  0
    1.6737    1.7548    0.0000 C   0  0  0  0  0  0  0  0  0  0  0  0
   -0.0622    0.7559    0.0000 C   0  0  0  0  0  0  0  0  0  0  0  0
    0.8202    2.2714    0.0000 C   0  0  0  0  0  0  0  0  0  0  0  0
   -0.9244   -2.7250    0.0000 C   0  0  0  0  0  0  0  0  0  0  0  0
   -3.5225   -1.2305    0.0000 O   0  0  0  0  0  0  0  0  0  0  0  0
   -1.7862   -2.2170    0.0000 C   0  0  0  0  0  0  0  0  0  0  0  0
   -0.0622    1.7676    0.0000 C   0  0  0  0  0  0  0  0  0  0  0  0
    3.5225   -2.3419    0.0000 F   0  0  0  0  0  0  0  0  0  0  0  0
    3.3308   -3.1789    0.0000 F   0  0  0  0  0  0  0  0  0  0  0  0
    2.7063   -3.7536    0.0000 F   0  0  0  0  0  0  0  0  0  0  0  0
   -2.6520    0.2809    0.0000 O   0  0  0  0  0  0  0  0  0  0  0  0
    2.5359    2.2422    0.0000 C   0  0  0  0  0  0  0  0  0  0  0  0
    0.8243    3.2662    0.0000 C   0  0  0  0  0  0  0  0  0  0  0  0
   -1.7862    0.7806    0.0000 C   0  0  0  0  0  0  0  0  0  0  0  0
   -1.7862    1.7676    0.0000 C   0  0  0  0  0  0  0  0  0  0  0  0
    2.5565    3.2456    0.0000 C   0  0  0  0  0  0  0  0  0  0  0  0
    1.6947    3.7536    0.0000 C   0  0  0  0  0  0  0  0  0  0  0  0
  1  2  1  0  0  0  0
  1  3  2  0  0  0  0
  2  4  2  0  0  0  0
  4  6  1  0  0  0  0
  1  5  1  0  0  0  0
  6  8  2  0  0  0  0
  4  7  1  0  0  0  0
  3  8  1  0  0  0  0
  3  9  1  0  0  0  0
  5 10  1  0  0  0  0
  9 11  2  0  0  0  0
 11 12  1  0  0  0  0
 10 13  1  0  0  0  0
 13 15  2  0  0  0  0
  5 14  1  0  0  0  0
 15 19  1  0  0  0  0
  8 16  1  0  0  0  0
 12 17  2  0  0  0  0
 11 18  1  0  0  0  0
 16 18  2  0  0  0  0
 14 19  1  0  0  0  0
  7 20  1  0  0  0  0
  7 21  1  0  0  0  0
  7 22  1  0  0  0  0
 12 23  1  0  0  0  0
 13 24  1  0  0  0  0
 15 25  1  0  0  0  0
 23 26  1  0  0  0  0
 26 27  1  0  0  0  0
 24 28  2  0  0  0  0
 25 29  2  0  0  0  0
 28 29  1  0  0  0  0
M  END
> <IDNUMBER>
7706-1025

> <available>
13

> <H_acceptor>
5

> <H_donor>
0

> <B_rotN>
5

> <N_O>
5

> <logP>
5.6487

> <logD>
5.6487

> <logSw>
-5.688

> <PSA>
42.326

> <pKa_ma>
18.8389

> <pKa_mb>
2.5962

> <N_Chirals>
0

> <Name>
ethyl 4-(3,4-dihydroisoquinolin-2(1H)-yl)-2-(trifluoromethyl)quinazoline-6-carboxylate

> <Smile>
CCOC(c(cc12)ccc2nc(C(F)(F)F)nc1N(CC1)Cc2c1cccc2)=O

> <Color>
PINK

> <Collection>
NC

> <InChI>
InChI=1S/C21H18F3N3O2/c1-2-29-19(28)14-7-8-17-16(11-14)18(26-20(25-17)21(22,23)24)27-10-9-13-5-3-4-6-15(13)12-27/h3-8,11H,2,9-10,12H2,1H3

> <InChI Key>
AHUKUJHEXYJWPR-UHFFFAOYSA-N

> <PERCENTSP3>
28.6

> <Link>
https://www.chemdiv.com/catalog/screening-compounds/compound-7706-1025/

> <MFCDNUMBER>
MFCD06641774

> <CLNUMBER>
CL2243

> <STEREO>
ACHIRAL

> <State>
Solid

> <Similarity score>
0.21

$$$$
1-(3,4-dimethylphenyl)-3-(4-ethoxyphenyl)-6,8-difluoro-1H-pyrazolo[4,3-c]quinoli
  -OEChem-04222410502D

 32 36  0     0  0  0  0  0  0999 V2000
   -1.1679    0.4407    0.0000 N   0  0  0  0  0  0  0  0  0  0  0  0
   -0.5036   -1.0292    0.0000 C   0  0  0  0  0  0  0  0  0  0  0  0
   -1.3792   -0.5305    0.0000 C   0  0  0  0  0  0  0  0  0  0  0  0
   -0.1665    0.5406    0.0000 N   0  0  0  0  0  0  0  0  0  0  0  0
    0.2561   -0.3491    0.0000 C   0  0  0  0  0  0  0  0  0  0  0  0
   -2.2648   -1.0292    0.0000 C   0  0  0  0  0  0  0  0  0  0  0  0
   -2.2648   -2.0244    0.0000 C   0  0  0  0  0  0  0  0  0  0  0  0
   -1.3792   -2.5189    0.0000 N   0  0  0  0  0  0  0  0  0  0  0  0
   -1.7962    1.2107    0.0000 C   0  0  0  0  0  0  0  0  0  0  0  0
   -0.5036   -2.0244    0.0000 C   0  0  0  0  0  0  0  0  0  0  0  0
   -3.1245   -2.5189    0.0000 C   0  0  0  0  0  0  0  0  0  0  0  0
   -2.7634    1.0551    0.0000 C   0  0  0  0  0  0  0  0  0  0  0  0
   -4.0001   -2.0244    0.0000 C   0  0  0  0  0  0  0  0  0  0  0  0
    1.2636   -0.4546    0.0000 C   0  0  0  0  0  0  0  0  0  0  0  0
   -3.1245   -0.5305    0.0000 C   0  0  0  0  0  0  0  0  0  0  0  0
   -3.3878    1.8151    0.0000 C   0  0  0  0  0  0  0  0  0  0  0  0
   -4.0001   -1.0292    0.0000 C   0  0  0  0  0  0  0  0  0  0  0  0
   -1.4349    2.1321    0.0000 C   0  0  0  0  0  0  0  0  0  0  0  0
   -3.0347    2.7426    0.0000 C   0  0  0  0  0  0  0  0  0  0  0  0
   -2.0692    2.9000    0.0000 C   0  0  0  0  0  0  0  0  0  0  0  0
    1.8418    0.3611    0.0000 C   0  0  0  0  0  0  0  0  0  0  0  0
    1.6744   -1.3563    0.0000 C   0  0  0  0  0  0  0  0  0  0  0  0
   -3.1245   -3.5145    0.0000 F   0  0  0  0  0  0  0  0  0  0  0  0
   -4.8617   -0.5305    0.0000 F   0  0  0  0  0  0  0  0  0  0  0  0
    3.2860   -0.6363    0.0000 C   0  0  0  0  0  0  0  0  0  0  0  0
    2.6818   -1.4520    0.0000 C   0  0  0  0  0  0  0  0  0  0  0  0
    2.8530    0.2754    0.0000 C   0  0  0  0  0  0  0  0  0  0  0  0
    4.2872   -0.7359    0.0000 O   0  0  0  0  0  0  0  0  0  0  0  0
   -4.3790    1.6595    0.0000 C   0  0  0  0  0  0  0  0  0  0  0  0
   -3.6690    3.5145    0.0000 C   0  0  0  0  0  0  0  0  0  0  0  0
    4.8617    0.0779    0.0000 C   0  0  0  0  0  0  0  0  0  0  0  0
    4.4528    0.9934    0.0000 C   0  0  0  0  0  0  0  0  0  0  0  0
  2  3  2  0  0  0  0
  2  5  1  0  0  0  0
  1  3  1  0  0  0  0
  1  4  1  0  0  0  0
  4  5  2  0  0  0  0
  3  6  1  0  0  0  0
  6  7  1  0  0  0  0
  7  8  1  0  0  0  0
  8 10  2  0  0  0  0
  1  9  1  0  0  0  0
  2 10  1  0  0  0  0
  7 11  2  0  0  0  0
  9 12  1  0  0  0  0
 13 17  2  0  0  0  0
 11 13  1  0  0  0  0
  5 14  1  0  0  0  0
  6 15  2  0  0  0  0
 12 16  2  0  0  0  0
 16 19  1  0  0  0  0
 15 17  1  0  0  0  0
  9 18  2  0  0  0  0
 19 20  2  0  0  0  0
 18 20  1  0  0  0  0
 14 21  1  0  0  0  0
 14 22  2  0  0  0  0
 11 23  1  0  0  0  0
 17 24  1  0  0  0  0
 25 26  2  0  0  0  0
 25 27  1  0  0  0  0
 22 26  1  0  0  0  0
 21 27  2  0  0  0  0
 25 28  1  0  0  0  0
 16 29  1  0  0  0  0
 19 30  1  0  0  0  0
 28 31  1  0  0  0  0
 31 32  1  0  0  0  0
M  END
> <IDNUMBER>
C350-0810

> <available>
112

> <H_acceptor>
3

> <H_donor>
0

> <B_rotN>
4

> <N_O>
4

> <logP>
6.9232

> <logD>
6.9231

> <logSw>
-5.7701

> <PSA>
30.6039

> <pKa_ma>
28.0078

> <pKa_mb>
2.6884

> <N_Chirals>
0

> <Name>
1-(3,4-dimethylphenyl)-3-(4-ethoxyphenyl)-6,8-difluoro-1H-pyrazolo[4,3-c]quinoline

> <Smile>
CCOc(cc1)ccc1-c(c1cnc2c(F)cc(F)cc2c11)nn1-c1cc(C)c(C)cc1

> <Color>
NOT COLORED

> <Collection>
DC

> <InChI>
InChI=1S/C26H21F2N3O/c1-4-32-20-9-6-17(7-10-20)24-22-14-29-25-21(12-18(27)13-23(25)28)26(22)31(30-24)19-8-5-15(2)16(3)11-19/h5-14H,4H2,1-3H3

> <InChI Key>
HEAGGNOYTKHCIP-UHFFFAOYSA-N

> <PERCENTSP3>
15.4

> <Link>
https://www.chemdiv.com/catalog/screening-compounds/compound-C350-0810/

> <MFCDNUMBER>
MFCD14750683

> <CLNUMBER>
CL4130

> <STEREO>
ACHIRAL

> <State>
Solid

> <Similarity score>
0.21

$$$$
4-(3-chlorophenyl)-2-(3-methylpiperidin-1-yl)-5H-[1]benzopyrano[4,3-d]pyrimidine
  -OEChem-04222410502D

 28 32  0     0  0  0  0  0  0999 V2000
   -0.7515    0.8684    0.0000 C   0  0  0  0  0  0  0  0  0  0  0  0
    0.7489    0.0015    0.0000 C   0  0  0  0  0  0  0  0  0  0  0  0
    0.2487   -0.8654    0.0000 C   0  0  0  0  0  0  0  0  0  0  0  0
    0.2487    0.8684    0.0000 N   0  0  0  0  0  0  0  0  0  0  0  0
   -1.2517    0.0015    0.0000 N   0  0  0  0  0  0  0  0  0  0  0  0
   -0.7515   -0.8654    0.0000 C   0  0  0  0  0  0  0  0  0  0  0  0
   -1.2517    1.7297    0.0000 N   0  0  0  0  0  0  0  0  0  0  0  0
    1.7492    0.0015    0.0000 C   0  0  0  0  0  0  0  0  0  0  0  0
    0.7489   -1.7322    0.0000 C   0  0  0  0  0  0  0  0  0  0  0  0
    1.7492   -1.7322    0.0000 O   0  0  0  0  0  0  0  0  0  0  0  0
   -1.2517   -1.7322    0.0000 C   0  0  0  0  0  0  0  0  0  0  0  0
    2.2493   -0.8654    0.0000 C   0  0  0  0  0  0  0  0  0  0  0  0
   -2.2493    1.7297    0.0000 C   0  0  0  0  0  0  0  0  0  0  0  0
   -2.2493   -1.7322    0.0000 C   0  0  0  0  0  0  0  0  0  0  0  0
   -2.7493   -2.5992    0.0000 C   0  0  0  0  0  0  0  0  0  0  0  0
   -0.7515    2.5965    0.0000 C   0  0  0  0  0  0  0  0  0  0  0  0
   -3.7497   -2.5992    0.0000 Cl  0  0  0  0  0  0  0  0  0  0  0  0
    2.2493    0.8684    0.0000 C   0  0  0  0  0  0  0  0  0  0  0  0
   -2.7493    2.5965    0.0000 C   0  0  3  0  0  0  0  0  0  0  0  0
   -0.7515   -2.5992    0.0000 C   0  0  0  0  0  0  0  0  0  0  0  0
   -1.2517    3.4635    0.0000 C   0  0  0  0  0  0  0  0  0  0  0  0
   -1.2517   -3.4635    0.0000 C   0  0  0  0  0  0  0  0  0  0  0  0
    3.2496   -0.8654    0.0000 C   0  0  0  0  0  0  0  0  0  0  0  0
   -2.2493   -3.4635    0.0000 C   0  0  0  0  0  0  0  0  0  0  0  0
   -2.2493    3.4635    0.0000 C   0  0  0  0  0  0  0  0  0  0  0  0
   -3.7497    2.5965    0.0000 C   0  0  0  0  0  0  0  0  0  0  0  0
    3.2496    0.8684    0.0000 C   0  0  0  0  0  0  0  0  0  0  0  0
    3.7497    0.0015    0.0000 C   0  0  0  0  0  0  0  0  0  0  0  0
  2  4  1  0  0  0  0
  2  3  2  0  0  0  0
  3  6  1  0  0  0  0
  1  4  2  0  0  0  0
  1  5  1  0  0  0  0
  5  6  2  0  0  0  0
  1  7  1  0  0  0  0
  2  8  1  0  0  0  0
  3  9  1  0  0  0  0
  9 10  1  0  0  0  0
  6 11  1  0  0  0  0
  8 12  1  0  0  0  0
 10 12  1  0  0  0  0
  7 13  1  0  0  0  0
 11 14  2  0  0  0  0
 14 15  1  0  0  0  0
 15 24  2  0  0  0  0
  7 16  1  0  0  0  0
 15 17  1  0  0  0  0
  8 18  2  0  0  0  0
 13 19  1  0  0  0  0
 19 25  1  0  0  0  0
 11 20  1  0  0  0  0
 16 21  1  0  0  0  0
 20 22  2  0  0  0  0
 12 23  2  0  0  0  0
 22 24  1  0  0  0  0
 21 25  1  0  0  0  0
 19 26  1  0  0  0  0
 18 27  1  0  0  0  0
 27 28  2  0  0  0  0
 23 28  1  0  0  0  0
M  END
> <IDNUMBER>
E130-0651

> <available>
110

> <H_acceptor>
3

> <H_donor>
0

> <B_rotN>
2

> <N_O>
4

> <logP>
6.3003

> <logD>
6.2997

> <logSw>
-6.3448

> <PSA>
30.5809

> <pKa_ma>
16.6846

> <pKa_mb>
7.1486

> <N_Chirals>
1

> <Name>
4-(3-chlorophenyl)-2-(3-methylpiperidin-1-yl)-5H-[1]benzopyrano[4,3-d]pyrimidine

> <Smile>
CC(CCC1)CN1c1nc(-c(cccc2)c2OC2)c2c(-c2cccc(Cl)c2)n1

> <Color>
NOT COLORED

> <Collection>
DC

> <InChI>
InChI=1S/C23H22ClN3O/c1-15-6-5-11-27(13-15)23-25-21(16-7-4-8-17(24)12-16)19-14-28-20-10-3-2-9-18(20)22(19)26-23/h2-4,7-10,12,15H,5-6,11,13-14H2,1H3/t15-/m0/s1

> <InChI Key>
ZIZXAOGNCJHKBO-HNNXBMFYSA-N

> <PERCENTSP3>
30.4

> <Link>
https://www.chemdiv.com/catalog/screening-compounds/compound-E130-0651/

> <MFCDNUMBER>
MFCD14840797

> <STEREO>
RACEMIC MIXTURE

> <State>
Solid

> <Similarity score>
0.21

$$$$
N-[(2-ethoxyphenyl)methyl]-1-[3-(4-fluorophenyl)[1,2]oxazolo[5,4-d]pyrimidin-4-y
  -OEChem-04222410502D

 35 39  0     0  0  0  0  0  0999 V2000
   -1.8294   -1.7259    0.0000 C   0  0  0  0  0  0  0  0  0  0  0  0
   -1.0595   -1.0820    0.0000 C   0  0  0  0  0  0  0  0  0  0  0  0
   -3.2637   -2.4861    0.0000 N   0  0  0  0  0  0  0  0  0  0  0  0
   -2.8207   -1.5801    0.0000 C   0  0  0  0  0  0  0  0  0  0  0  0
   -1.2355   -0.0955    0.0000 N   0  0  0  0  0  0  0  0  0  0  0  0
   -1.6581   -2.7126    0.0000 C   0  0  0  0  0  0  0  0  0  0  0  0
   -2.5387   -3.1654    0.0000 O   0  0  0  0  0  0  0  0  0  0  0  0
   -0.6365    1.5450    0.0000 C   0  0  3  0  0  0  0  0  0  0  0  0
    0.1232    2.1841    0.0000 C   0  0  0  0  0  0  0  0  0  0  0  0
   -0.1183   -1.4292    0.0000 N   0  0  0  0  0  0  0  0  0  0  0  0
   -0.4654    0.5486    0.0000 C   0  0  0  0  0  0  0  0  0  0  0  0
   -0.7221   -3.0548    0.0000 N   0  0  0  0  0  0  0  0  0  0  0  0
    1.0595    1.8519    0.0000 N   0  0  0  0  0  0  0  0  0  0  0  0
   -3.5002   -0.8254    0.0000 C   0  0  0  0  0  0  0  0  0  0  0  0
    0.0327   -2.4107    0.0000 C   0  0  0  0  0  0  0  0  0  0  0  0
    2.5792    1.0166    0.0000 C   0  0  0  0  0  0  0  0  0  0  0  0
    2.0559    1.8772    0.0000 C   0  0  0  0  0  0  0  0  0  0  0  0
   -0.0578    3.1654    0.0000 O   0  0  0  0  0  0  0  0  0  0  0  0
    3.5756    1.0619    0.0000 C   0  0  0  0  0  0  0  0  0  0  0  0
   -4.4814   -1.0367    0.0000 C   0  0  0  0  0  0  0  0  0  0  0  0
   -3.1832    0.1158    0.0000 C   0  0  0  0  0  0  0  0  0  0  0  0
   -2.1716    0.2467    0.0000 C   0  0  0  0  0  0  0  0  0  0  0  0
   -4.8439    0.6694    0.0000 C   0  0  0  0  0  0  0  0  0  0  0  0
   -5.1458   -0.2918    0.0000 C   0  0  0  0  0  0  0  0  0  0  0  0
   -3.8474    0.8505    0.0000 C   0  0  0  0  0  0  0  0  0  0  0  0
   -5.5081    1.4140    0.0000 F   0  0  0  0  0  0  0  0  0  0  0  0
   -1.5727    1.8772    0.0000 C   0  0  0  0  0  0  0  0  0  0  0  0
    4.0437    1.9377    0.0000 O   0  0  0  0  0  0  0  0  0  0  0  0
   -2.3527    1.2429    0.0000 C   0  0  0  0  0  0  0  0  0  0  0  0
    2.1112    0.1410    0.0000 C   0  0  0  0  0  0  0  0  0  0  0  0
    4.1041    0.2012    0.0000 C   0  0  0  0  0  0  0  0  0  0  0  0
    5.0403    1.9678    0.0000 C   0  0  0  0  0  0  0  0  0  0  0  0
    5.5081    2.8585    0.0000 C   0  0  0  0  0  0  0  0  0  0  0  0
    2.6396   -0.7045    0.0000 C   0  0  0  0  0  0  0  0  0  0  0  0
    3.6360   -0.6744    0.0000 C   0  0  0  0  0  0  0  0  0  0  0  0
  1  2  1  0  0  0  0
  3  4  2  0  0  0  0
  3  7  1  0  0  0  0
  1  4  1  0  0  0  0
  2  5  1  0  0  0  0
  1  6  2  0  0  0  0
  6  7  1  0  0  0  0
  8 11  1  0  0  0  0
  8 27  1  0  0  0  0
  8  9  1  0  0  0  0
  2 10  2  0  0  0  0
  5 11  1  0  0  0  0
  6 12  1  0  0  0  0
  9 13  1  0  0  0  0
  4 14  1  0  0  0  0
 12 15  2  0  0  0  0
 10 15  1  0  0  0  0
 16 17  1  0  0  0  0
 13 17  1  0  0  0  0
  9 18  2  0  0  0  0
 16 19  1  0  0  0  0
 14 20  1  0  0  0  0
 14 21  2  0  0  0  0
  5 22  1  0  0  0  0
 23 25  2  0  0  0  0
 20 24  2  0  0  0  0
 23 24  1  0  0  0  0
 21 25  1  0  0  0  0
 23 26  1  0  0  0  0
 27 29  1  0  0  0  0
 19 28  1  0  0  0  0
 22 29  1  0  0  0  0
 16 30  2  0  0  0  0
 19 31  2  0  0  0  0
 28 32  1  0  0  0  0
 32 33  1  0  0  0  0
 30 34  1  0  0  0  0
 34 35  2  0  0  0  0
 31 35  1  0  0  0  0
M  END
> <IDNUMBER>
E945-0130

> <available>
34

> <H_acceptor>
7

> <H_donor>
1

> <B_rotN>
8

> <N_O>
8

> <logP>
4.0951

> <logD>
4.0951

> <logSw>
-4.3003

> <PSA>
77.092

> <pKa_ma>
12.356

> <pKa_mb>
2.7118

> <N_Chirals>
1

> <Name>
N-[(2-ethoxyphenyl)methyl]-1-[3-(4-fluorophenyl)[1,2]oxazolo[5,4-d]pyrimidin-4-yl]piperidine-3-carboxamide

> <Smile>
CCOc1c(CNC(C(CCC2)CN2c2c(c(-c(cc3)ccc3F)no3)c3ncn2)=O)cccc1

> <Color>
NOT COLORED

> <Collection>
DC

> <InChI>
InChI=1S/C26H26FN5O3/c1-2-34-21-8-4-3-6-18(21)14-28-25(33)19-7-5-13-32(15-19)24-22-23(17-9-11-20(27)12-10-17)31-35-26(22)30-16-29-24/h3-4,6,8-12,16,19H,2,5,7,13-15H2,1H3,(H,28,33)/t19-/m0/s1

> <InChI Key>
WBFZIHJBRRPLBK-IBGZPJMESA-N

> <PERCENTSP3>
30.8

> <Link>
https://www.chemdiv.com/catalog/screening-compounds/compound-E945-0130/

> <MFCDNUMBER>
MFCD14929306

> <CLNUMBER>
CL5510B

> <STEREO>
RACEMIC MIXTURE

> <CAS>
894595-74-5

> <State>
Solid

> <Similarity score>
0.21

$$$$
N-butyl-2-(2,4-dichlorophenyl)-N-methylquinazolin-4-amine
  -OEChem-04222410502D

 24 26  0     0  0  0  0  0  0999 V2000
   -0.0319    0.5053    0.0000 N   0  0  0  0  0  0  0  0  0  0  0  0
    0.0032   -0.4894    0.0000 C   0  0  0  0  0  0  0  0  0  0  0  0
   -0.8766    1.0090    0.0000 C   0  0  0  0  0  0  0  0  0  0  0  0
    0.8735   -0.9961    0.0000 C   0  0  0  0  0  0  0  0  0  0  0  0
   -0.8766   -1.0090    0.0000 N   0  0  0  0  0  0  0  0  0  0  0  0
   -1.7342    0.4925    0.0000 C   0  0  0  0  0  0  0  0  0  0  0  0
   -1.7342   -0.4894    0.0000 C   0  0  0  0  0  0  0  0  0  0  0  0
    0.8735   -1.9940    0.0000 C   0  0  0  0  0  0  0  0  0  0  0  0
    1.7246   -0.4830    0.0000 C   0  0  0  0  0  0  0  0  0  0  0  0
   -0.8766    1.9973    0.0000 N   0  0  0  0  0  0  0  0  0  0  0  0
    1.7374   -2.4786    0.0000 C   0  0  0  0  0  0  0  0  0  0  0  0
    2.6268   -1.9812    0.0000 C   0  0  0  0  0  0  0  0  0  0  0  0
    0.0032   -2.5104    0.0000 Cl  0  0  0  0  0  0  0  0  0  0  0  0
    2.6077   -0.9802    0.0000 C   0  0  0  0  0  0  0  0  0  0  0  0
   -2.6139    0.9802    0.0000 C   0  0  0  0  0  0  0  0  0  0  0  0
    3.4876   -2.4786    0.0000 Cl  0  0  0  0  0  0  0  0  0  0  0  0
   -2.6139   -1.0090    0.0000 C   0  0  0  0  0  0  0  0  0  0  0  0
   -0.0319    2.5104    0.0000 C   0  0  0  0  0  0  0  0  0  0  0  0
   -1.7342    2.5104    0.0000 C   0  0  0  0  0  0  0  0  0  0  0  0
    0.8288    2.0132    0.0000 C   0  0  0  0  0  0  0  0  0  0  0  0
    1.6895    2.5104    0.0000 C   0  0  0  0  0  0  0  0  0  0  0  0
   -3.4876    0.4925    0.0000 C   0  0  0  0  0  0  0  0  0  0  0  0
   -3.4876   -0.4894    0.0000 C   0  0  0  0  0  0  0  0  0  0  0  0
    2.5503    2.0132    0.0000 C   0  0  0  0  0  0  0  0  0  0  0  0
  1  2  1  0  0  0  0
  1  3  2  0  0  0  0
  2  4  1  0  0  0  0
  2  5  2  0  0  0  0
  5  7  1  0  0  0  0
  3  6  1  0  0  0  0
  6  7  1  0  0  0  0
  4  8  2  0  0  0  0
  4  9  1  0  0  0  0
  3 10  1  0  0  0  0
  8 11  1  0  0  0  0
 11 12  2  0  0  0  0
 12 14  1  0  0  0  0
  8 13  1  0  0  0  0
  9 14  2  0  0  0  0
  6 15  2  0  0  0  0
 12 16  1  0  0  0  0
  7 17  2  0  0  0  0
 10 18  1  0  0  0  0
 10 19  1  0  0  0  0
 18 20  1  0  0  0  0
 20 21  1  0  0  0  0
 15 22  1  0  0  0  0
 22 23  2  0  0  0  0
 17 23  1  0  0  0  0
 21 24  1  0  0  0  0
M  END
> <IDNUMBER>
4358-1634

> <available>
26

> <H_acceptor>
2

> <H_donor>
0

> <B_rotN>
5

> <N_O>
3

> <logP>
5.8756

> <logD>
5.1736

> <logSw>
-6.2559

> <PSA>
21.3906

> <pKa_ma>
22.7068

> <pKa_mb>
8.0058

> <N_Chirals>
0

> <Name>
N-butyl-2-(2,4-dichlorophenyl)-N-methylquinazolin-4-amine

> <Smile>
CCCCN(C)c1nc(-c(ccc(Cl)c2)c2Cl)nc2ccccc12

> <Color>
NOT COLORED

> <Collection>
NC

> <InChI>
InChI=1S/C19H19Cl2N3/c1-3-4-11-24(2)19-15-7-5-6-8-17(15)22-18(23-19)14-10-9-13(20)12-16(14)21/h5-10,12H,3-4,11H2,1-2H3

> <InChI Key>
HQEZCWOICAAMRI-UHFFFAOYSA-N

> <PERCENTSP3>
26.3

> <Link>
https://www.chemdiv.com/catalog/screening-compounds/compound-4358-1634/

> <MFCDNUMBER>
MFCD09982011

> <CLNUMBER>
CL2243

> <Saltdata>
HCl

> <Saltdata_MW>
36.461

> <STEREO>
ACHIRAL

> <State>
Solid

> <Similarity score>
0.21

$$$$
N-(3,4-dimethoxyphenyl)-1-[3-(4-fluorophenyl)[1,2]oxazolo[5,4-d]pyrimidin-4-yl]p
  -OEChem-04222410502D

 35 39  0     0  0  0  0  0  0999 V2000
   -1.4015   -1.7258    0.0000 C   0  0  0  0  0  0  0  0  0  0  0  0
   -0.6316   -1.0818    0.0000 C   0  0  0  0  0  0  0  0  0  0  0  0
   -2.8355   -2.4856    0.0000 N   0  0  0  0  0  0  0  0  0  0  0  0
   -2.3924   -1.5799    0.0000 C   0  0  0  0  0  0  0  0  0  0  0  0
   -0.8076   -0.0956    0.0000 N   0  0  0  0  0  0  0  0  0  0  0  0
   -1.2302   -2.7121    0.0000 C   0  0  0  0  0  0  0  0  0  0  0  0
    0.5510    2.1839    0.0000 C   0  0  0  0  0  0  0  0  0  0  0  0
   -2.1108   -3.1650    0.0000 O   0  0  0  0  0  0  0  0  0  0  0  0
   -0.2089    1.5448    0.0000 C   0  0  3  0  0  0  0  0  0  0  0  0
    0.3095   -1.4289    0.0000 N   0  0  0  0  0  0  0  0  0  0  0  0
   -0.0378    0.5484    0.0000 C   0  0  0  0  0  0  0  0  0  0  0  0
   -0.2943   -3.0544    0.0000 N   0  0  0  0  0  0  0  0  0  0  0  0
    1.4869    1.8516    0.0000 N   0  0  0  0  0  0  0  0  0  0  0  0
    3.2077    1.9221    0.0000 C   0  0  0  0  0  0  0  0  0  0  0  0
    4.0983    1.4692    0.0000 C   0  0  0  0  0  0  0  0  0  0  0  0
   -3.0718   -0.8251    0.0000 C   0  0  0  0  0  0  0  0  0  0  0  0
    0.4603   -2.4102    0.0000 C   0  0  0  0  0  0  0  0  0  0  0  0
    2.3775    1.3938    0.0000 C   0  0  0  0  0  0  0  0  0  0  0  0
    0.3698    3.1650    0.0000 O   0  0  0  0  0  0  0  0  0  0  0  0
    4.1536    0.4730    0.0000 C   0  0  0  0  0  0  0  0  0  0  0  0
   -2.7548    0.1159    0.0000 C   0  0  0  0  0  0  0  0  0  0  0  0
   -4.0529   -1.0365    0.0000 C   0  0  0  0  0  0  0  0  0  0  0  0
    3.3083   -0.0705    0.0000 C   0  0  0  0  0  0  0  0  0  0  0  0
   -1.7435    0.2467    0.0000 C   0  0  0  0  0  0  0  0  0  0  0  0
    2.4178    0.3976    0.0000 C   0  0  0  0  0  0  0  0  0  0  0  0
   -4.4153    0.6692    0.0000 C   0  0  0  0  0  0  0  0  0  0  0  0
    4.9588    1.9977    0.0000 O   0  0  0  0  0  0  0  0  0  0  0  0
   -4.7172   -0.2918    0.0000 C   0  0  0  0  0  0  0  0  0  0  0  0
   -3.4191    0.8503    0.0000 C   0  0  0  0  0  0  0  0  0  0  0  0
   -5.0795    1.4138    0.0000 F   0  0  0  0  0  0  0  0  0  0  0  0
   -1.1448    1.8769    0.0000 C   0  0  0  0  0  0  0  0  0  0  0  0
    5.0342    0.0051    0.0000 O   0  0  0  0  0  0  0  0  0  0  0  0
   -1.9246    1.2427    0.0000 C   0  0  0  0  0  0  0  0  0  0  0  0
    4.9134    2.9939    0.0000 C   0  0  0  0  0  0  0  0  0  0  0  0
    5.0795   -0.9911    0.0000 C   0  0  0  0  0  0  0  0  0  0  0  0
  1  2  1  0  0  0  0
  3  4  2  0  0  0  0
  3  8  1  0  0  0  0
  1  4  1  0  0  0  0
  2  5  1  0  0  0  0
  1  6  2  0  0  0  0
  7  9  1  0  0  0  0
  6  8  1  0  0  0  0
  9 11  1  0  0  0  0
  9 31  1  0  0  0  0
  2 10  2  0  0  0  0
  5 11  1  0  0  0  0
  6 12  1  0  0  0  0
  7 13  1  0  0  0  0
 14 18  1  0  0  0  0
 14 15  2  0  0  0  0
  4 16  1  0  0  0  0
 12 17  2  0  0  0  0
 10 17  1  0  0  0  0
 13 18  1  0  0  0  0
  7 19  2  0  0  0  0
 20 23  2  0  0  0  0
 15 20  1  0  0  0  0
 16 21  2  0  0  0  0
 16 22  1  0  0  0  0
 23 25  1  0  0  0  0
  5 24  1  0  0  0  0
 18 25  2  0  0  0  0
 26 28  1  0  0  0  0
 15 27  1  0  0  0  0
 22 28  2  0  0  0  0
 21 29  1  0  0  0  0
 26 29  2  0  0  0  0
 26 30  1  0  0  0  0
 31 33  1  0  0  0  0
 20 32  1  0  0  0  0
 24 33  1  0  0  0  0
 27 34  1  0  0  0  0
 32 35  1  0  0  0  0
M  END
> <IDNUMBER>
E945-0015

> <available>
134

> <H_acceptor>
8

> <H_donor>
1

> <B_rotN>
7

> <N_O>
9

> <logP>
3.3318

> <logD>
3.3315

> <logSw>
-3.7777

> <PSA>
83.82

> <pKa_ma>
10.5658

> <pKa_mb>
2.7118

> <N_Chirals>
1

> <Name>
N-(3,4-dimethoxyphenyl)-1-[3-(4-fluorophenyl)[1,2]oxazolo[5,4-d]pyrimidin-4-yl]piperidine-3-carboxamide

> <Smile>
COc(ccc(NC(C(CCC1)CN1c1c(c(-c(cc2)ccc2F)no2)c2ncn1)=O)c1)c1OC

> <Color>
NOT COLORED

> <Collection>
DC

> <InChI>
InChI=1S/C25H24FN5O4/c1-33-19-10-9-18(12-20(19)34-2)29-24(32)16-4-3-11-31(13-16)23-21-22(15-5-7-17(26)8-6-15)30-35-25(21)28-14-27-23/h5-10,12,14,16H,3-4,11,13H2,1-2H3,(H,29,32)/t16-/m0/s1

> <InChI Key>
HKWRDAZQQICVOQ-INIZCTEOSA-N

> <PERCENTSP3>
28

> <Link>
https://www.chemdiv.com/catalog/screening-compounds/compound-E945-0015/

> <MFCDNUMBER>
MFCD14929268

> <CLNUMBER>
CL5510B

> <STEREO>
RACEMIC MIXTURE

> <State>
Solid

> <Similarity score>
0.21

$$$$
N-butyl-N-ethyl-2,2-dimethyl-5-phenyl-1,4-dihydro-2H-pyrano[4'',3'':4',5']pyrido
  -OEChem-04222410502D

 32 36  0     0  0  0  0  0  0999 V2000
    0.2530    1.6563    0.0000 C   0  0  0  0  0  0  0  0  0  0  0  0
   -1.0271    0.6944    0.0000 C   0  0  0  0  0  0  0  0  0  0  0  0
   -0.1809    0.1737    0.0000 C   0  0  0  0  0  0  0  0  0  0  0  0
    0.6292    0.6944    0.0000 S   0  0  0  0  0  0  0  0  0  0  0  0
   -0.7594    1.6489    0.0000 C   0  0  0  0  0  0  0  0  0  0  0  0
   -1.8948    0.1808    0.0000 C   0  0  0  0  0  0  0  0  0  0  0  0
   -0.1809   -0.7808    0.0000 N   0  0  0  0  0  0  0  0  0  0  0  0
   -1.8948   -0.8243    0.0000 C   0  0  0  0  0  0  0  0  0  0  0  0
    0.6870    2.6034    0.0000 C   0  0  0  0  0  0  0  0  0  0  0  0
   -1.0271   -1.3017    0.0000 C   0  0  0  0  0  0  0  0  0  0  0  0
    0.1661    3.3845    0.0000 N   0  0  0  0  0  0  0  0  0  0  0  0
   -2.7625   -1.3017    0.0000 C   0  0  0  0  0  0  0  0  0  0  0  0
   -1.3091    2.4950    0.0000 N   0  0  0  0  0  0  0  0  0  0  0  0
   -3.6306   -0.7808    0.0000 O   0  0  0  0  0  0  0  0  0  0  0  0
   -2.7625    0.6944    0.0000 C   0  0  0  0  0  0  0  0  0  0  0  0
    1.6922    2.6034    0.0000 N   0  0  0  0  0  0  0  0  0  0  0  0
   -3.6306    0.1808    0.0000 C   0  0  0  0  0  0  0  0  0  0  0  0
   -0.8460    3.3845    0.0000 C   0  0  0  0  0  0  0  0  0  0  0  0
   -1.0271   -2.2998    0.0000 C   0  0  0  0  0  0  0  0  0  0  0  0
    2.1911    3.4279    0.0000 C   0  0  0  0  0  0  0  0  0  0  0  0
    2.1911    1.7646    0.0000 C   0  0  0  0  0  0  0  0  0  0  0  0
   -4.0571    1.1571    0.0000 C   0  0  0  0  0  0  0  0  0  0  0  0
   -4.7296    0.1808    0.0000 C   0  0  0  0  0  0  0  0  0  0  0  0
   -1.8948   -2.7988    0.0000 C   0  0  0  0  0  0  0  0  0  0  0  0
   -0.1809   -2.7988    0.0000 C   0  0  0  0  0  0  0  0  0  0  0  0
    3.2110    1.7646    0.0000 C   0  0  0  0  0  0  0  0  0  0  0  0
    3.7462    0.8969    0.0000 C   0  0  0  0  0  0  0  0  0  0  0  0
    1.7284    4.2957    0.0000 C   0  0  0  0  0  0  0  0  0  0  0  0
    4.7296    0.8969    0.0000 C   0  0  0  0  0  0  0  0  0  0  0  0
   -0.1809   -3.7895    0.0000 C   0  0  0  0  0  0  0  0  0  0  0  0
   -1.8948   -3.7895    0.0000 C   0  0  0  0  0  0  0  0  0  0  0  0
   -1.0271   -4.2957    0.0000 C   0  0  0  0  0  0  0  0  0  0  0  0
  2  5  1  0  0  0  0
  3  4  1  0  0  0  0
  2  3  2  0  0  0  0
  1  4  1  0  0  0  0
  1  5  2  0  0  0  0
  2  6  1  0  0  0  0
  3  7  1  0  0  0  0
  6  8  2  0  0  0  0
  1  9  1  0  0  0  0
  7 10  2  0  0  0  0
  8 10  1  0  0  0  0
  9 11  2  0  0  0  0
  8 12  1  0  0  0  0
 12 14  1  0  0  0  0
  5 13  1  0  0  0  0
 14 17  1  0  0  0  0
  6 15  1  0  0  0  0
  9 16  1  0  0  0  0
 15 17  1  0  0  0  0
 11 18  1  0  0  0  0
 13 18  2  0  0  0  0
 10 19  1  0  0  0  0
 16 20  1  0  0  0  0
 16 21  1  0  0  0  0
 17 22  1  0  0  0  0
 17 23  1  0  0  0  0
 19 24  2  0  0  0  0
 19 25  1  0  0  0  0
 21 26  1  0  0  0  0
 26 27  1  0  0  0  0
 20 28  1  0  0  0  0
 27 29  1  0  0  0  0
 25 30  2  0  0  0  0
 24 31  1  0  0  0  0
 31 32  2  0  0  0  0
 30 32  1  0  0  0  0
M  END
> <IDNUMBER>
8640-0590

> <available>
103

> <H_acceptor>
4

> <H_donor>
0

> <B_rotN>
6

> <N_O>
5

> <logP>
7.0232

> <logD>
7.0207

> <logSw>
-6.0991

> <PSA>
41.294

> <pKa_ma>
20.2862

> <pKa_mb>
5.1653

> <N_Chirals>
0

> <Name>
N-butyl-N-ethyl-2,2-dimethyl-5-phenyl-1,4-dihydro-2H-pyrano[4'',3'':4',5']pyrido[3',2':4,5]thieno[3,2-d]pyrimidin-8-amine

> <Smile>
CCCCN(CC)c1c2sc3nc(-c4ccccc4)c(COC(C)(C)C4)c4c3c2ncn1

> <Color>
NOT COLORED

> <Collection>
DC

> <InChI>
InChI=1S/C26H30N4OS/c1-5-7-13-30(6-2)24-23-22(27-16-28-24)20-18-14-26(3,4)31-15-19(18)21(29-25(20)32-23)17-11-9-8-10-12-17/h8-12,16H,5-7,13-15H2,1-4H3

> <InChI Key>
QWHXOLGXBSLBRV-UHFFFAOYSA-N

> <PERCENTSP3>
42.3

> <Link>
https://www.chemdiv.com/catalog/screening-compounds/compound-8640-0590/

> <MFCDNUMBER>
MFCD01879936

> <CLNUMBER>
CL1547

> <STEREO>
ACHIRAL

> <State>
Solid

> <Similarity score>
0.21

$$$$
N~1~-ethyl-N~1~-[2-(4-methoxyphenyl)quinazolin-4-yl]-N~2~,N~2~-dimethylethane-1,
  -OEChem-04222410502D

 26 28  0     0  0  0  0  0  0999 V2000
    0.4450    0.5099    0.0000 N   0  0  0  0  0  0  0  0  0  0  0  0
   -0.4251    1.0001    0.0000 C   0  0  0  0  0  0  0  0  0  0  0  0
    0.4450   -0.5000    0.0000 C   0  0  0  0  0  0  0  0  0  0  0  0
   -1.2848    0.5099    0.0000 C   0  0  0  0  0  0  0  0  0  0  0  0
   -0.4251   -0.9901    0.0000 N   0  0  0  0  0  0  0  0  0  0  0  0
   -1.2848   -0.5000    0.0000 C   0  0  0  0  0  0  0  0  0  0  0  0
   -0.4251    2.0096    0.0000 N   0  0  0  0  0  0  0  0  0  0  0  0
    1.2949   -0.9901    0.0000 C   0  0  0  0  0  0  0  0  0  0  0  0
   -1.2949    2.5194    0.0000 C   0  0  0  0  0  0  0  0  0  0  0  0
    1.2949   -1.9997    0.0000 C   0  0  0  0  0  0  0  0  0  0  0  0
    2.1649   -0.5000    0.0000 C   0  0  0  0  0  0  0  0  0  0  0  0
   -3.0246    2.5194    0.0000 N   0  0  0  0  0  0  0  0  0  0  0  0
   -2.1547    2.0096    0.0000 C   0  0  0  0  0  0  0  0  0  0  0  0
    3.0246   -1.9997    0.0000 C   0  0  0  0  0  0  0  0  0  0  0  0
    3.0347   -0.9901    0.0000 C   0  0  0  0  0  0  0  0  0  0  0  0
    2.1547   -2.4899    0.0000 C   0  0  0  0  0  0  0  0  0  0  0  0
   -2.1547    1.0001    0.0000 C   0  0  0  0  0  0  0  0  0  0  0  0
    3.8946   -2.5096    0.0000 O   0  0  0  0  0  0  0  0  0  0  0  0
   -2.1547   -0.9901    0.0000 C   0  0  0  0  0  0  0  0  0  0  0  0
    0.4251    2.5194    0.0000 C   0  0  0  0  0  0  0  0  0  0  0  0
   -3.0246    3.5096    0.0000 C   0  0  0  0  0  0  0  0  0  0  0  0
   -3.8946    2.0096    0.0000 C   0  0  0  0  0  0  0  0  0  0  0  0
    3.8747   -3.5096    0.0000 C   0  0  0  0  0  0  0  0  0  0  0  0
   -3.0246    0.5099    0.0000 C   0  0  0  0  0  0  0  0  0  0  0  0
    0.4251    3.5096    0.0000 C   0  0  0  0  0  0  0  0  0  0  0  0
   -3.0246   -0.5000    0.0000 C   0  0  0  0  0  0  0  0  0  0  0  0
  1  2  2  0  0  0  0
  1  3  1  0  0  0  0
  2  4  1  0  0  0  0
  3  5  2  0  0  0  0
  5  6  1  0  0  0  0
  4  6  1  0  0  0  0
  2  7  1  0  0  0  0
  3  8  1  0  0  0  0
  7  9  1  0  0  0  0
  8 10  2  0  0  0  0
  8 11  1  0  0  0  0
 12 13  1  0  0  0  0
  9 13  1  0  0  0  0
 14 15  1  0  0  0  0
 14 16  2  0  0  0  0
 11 15  2  0  0  0  0
 10 16  1  0  0  0  0
  4 17  2  0  0  0  0
 14 18  1  0  0  0  0
  6 19  2  0  0  0  0
  7 20  1  0  0  0  0
 12 21  1  0  0  0  0
 12 22  1  0  0  0  0
 18 23  1  0  0  0  0
 17 24  1  0  0  0  0
 20 25  1  0  0  0  0
 19 26  1  0  0  0  0
 24 26  2  0  0  0  0
M  END
> <IDNUMBER>
G516-0229

> <available>
4

> <H_acceptor>
4

> <H_donor>
0

> <B_rotN>
7

> <N_O>
5

> <logP>
4.8694

> <logD>
3.4101

> <logSw>
-4.7617

> <PSA>
32.585

> <pKa_ma>
22.1068

> <pKa_mb>
8.844

> <N_Chirals>
0

> <Name>
N~1~-ethyl-N~1~-[2-(4-methoxyphenyl)quinazolin-4-yl]-N~2~,N~2~-dimethylethane-1,2-diamine

> <Smile>
CCN(CCN(C)C)c1nc(-c(cc2)ccc2OC)nc2ccccc12

> <Color>
ORANGE

> <Collection>
NC

> <InChI>
InChI=1S/C21H26N4O/c1-5-25(15-14-24(2)3)21-18-8-6-7-9-19(18)22-20(23-21)16-10-12-17(26-4)13-11-16/h6-13H,5,14-15H2,1-4H3

> <InChI Key>
BLAVOJAVSGXGGK-UHFFFAOYSA-N

> <PERCENTSP3>
33.3

> <Link>
https://www.chemdiv.com/catalog/screening-compounds/compound-G516-0229/

> <MFCDNUMBER>
MFCD15015063

> <CLNUMBER>
CL2243

> <STEREO>
ACHIRAL

> <State>
Solid

> <Similarity score>
0.21

$$$$
2-(3,4-dihydroisoquinolin-2(1H)-yl)-5-(4-hydroxy-6-methyl-2-oxo-2H-pyran-3-yl)py
  -OEChem-04222410502D

 30 34  0     0  0  0  0  0  0999 V2000
    0.0146    1.7650    0.0000 C   0  0  0  0  0  0  0  0  0  0  0  0
   -0.8607    2.2652    0.0000 N   0  0  0  0  0  0  0  0  0  0  0  0
   -2.5860   -0.7356    0.0000 C   0  0  0  0  0  0  0  0  0  0  0  0
    0.0146    0.7649    0.0000 N   0  0  0  0  0  0  0  0  0  0  0  0
   -1.7109    0.7649    0.0000 C   0  0  0  0  0  0  0  0  0  0  0  0
   -0.8607    0.2688    0.0000 C   0  0  0  0  0  0  0  0  0  0  0  0
   -1.7109    1.7650    0.0000 C   0  0  0  0  0  0  0  0  0  0  0  0
   -1.7025   -1.2441    0.0000 C   0  0  0  0  0  0  0  0  0  0  0  0
   -3.4612   -1.2481    0.0000 C   0  0  0  0  0  0  0  0  0  0  0  0
   -2.5860    0.2688    0.0000 C   0  0  0  0  0  0  0  0  0  0  0  0
    0.8772    2.2652    0.0000 N   0  0  0  0  0  0  0  0  0  0  0  0
   -3.4612   -2.2527    0.0000 C   0  0  0  0  0  0  0  0  0  0  0  0
   -1.7067   -2.2568    0.0000 O   0  0  0  0  0  0  0  0  0  0  0  0
   -2.5902   -2.7571    0.0000 C   0  0  0  0  0  0  0  0  0  0  0  0
    1.7441    1.7650    0.0000 C   0  0  0  0  0  0  0  0  0  0  0  0
   -2.5860    2.2652    0.0000 N   0  0  0  0  0  0  0  0  0  0  0  0
    2.5985    2.2652    0.0000 C   0  0  0  0  0  0  0  0  0  0  0  0
   -0.8607   -0.7356    0.0000 O   0  0  0  0  0  0  0  0  0  0  0  0
   -0.7065   -1.2357    0.0000 O   0  0  0  0  0  0  0  0  0  0  0  0
    0.8689    3.2653    0.0000 C   0  0  0  0  0  0  0  0  0  0  0  0
    2.6028    3.2653    0.0000 C   0  0  0  0  0  0  0  0  0  0  0  0
   -4.3197   -0.7439    0.0000 O   0  0  0  0  0  0  0  0  0  0  0  0
    1.7441    3.7530    0.0000 C   0  0  0  0  0  0  0  0  0  0  0  0
   -3.4488    0.7649    0.0000 C   0  0  0  0  0  0  0  0  0  0  0  0
   -3.4488    1.7650    0.0000 C   0  0  0  0  0  0  0  0  0  0  0  0
   -2.5986   -3.7530    0.0000 C   0  0  0  0  0  0  0  0  0  0  0  0
    3.4612    1.7692    0.0000 C   0  0  0  0  0  0  0  0  0  0  0  0
    3.4612    3.7530    0.0000 C   0  0  0  0  0  0  0  0  0  0  0  0
    4.3197    2.2652    0.0000 C   0  0  0  0  0  0  0  0  0  0  0  0
    4.3197    3.2653    0.0000 C   0  0  0  0  0  0  0  0  0  0  0  0
  1  2  2  0  0  0  0
  3 10  1  0  0  0  0
  1  4  1  0  0  0  0
  5  6  1  0  0  0  0
  4  6  1  0  0  0  0
  2  7  1  0  0  0  0
  5  7  2  0  0  0  0
  3  8  1  0  0  0  0
  3  9  2  0  0  0  0
  5 10  1  0  0  0  0
  1 11  1  0  0  0  0
  9 12  1  0  0  0  0
  8 13  1  0  0  0  0
 13 14  1  0  0  0  0
 12 14  2  0  0  0  0
 11 15  1  0  0  0  0
  7 16  1  0  0  0  0
 15 17  1  0  0  0  0
 17 21  2  0  0  0  0
  6 18  2  0  0  0  0
  8 19  2  0  0  0  0
 11 20  1  0  0  0  0
 21 23  1  0  0  0  0
  9 22  1  0  0  0  0
 20 23  1  0  0  0  0
 10 24  2  0  0  0  0
 16 25  2  0  0  0  0
 24 25  1  0  0  0  0
 14 26  1  0  0  0  0
 17 27  1  0  0  0  0
 21 28  1  0  0  0  0
 27 29  2  0  0  0  0
 29 30  1  0  0  0  0
 28 30  2  0  0  0  0
M  END
> <IDNUMBER>
8019-9781

> <available>
30

> <H_acceptor>
8

> <H_donor>
2

> <B_rotN>
2

> <N_O>
8

> <logP>
2.377

> <logD>
-2.1034

> <logSw>
-3.0286

> <PSA>
84.875

> <pKa_ma>
2.9196

> <pKa_mb>
0.78

> <N_Chirals>
0

> <Name>
2-(3,4-dihydroisoquinolin-2(1H)-yl)-5-(4-hydroxy-6-methyl-2-oxo-2H-pyran-3-yl)pyrido[2,3-d]pyrimidin-4(3H)-one

> <Smile>
CC(O1)=CC(O)=C(c2c(C(NC(N(CC3)Cc4c3cccc4)=N3)=O)c3ncc2)C1=O

> <Color>
YELLOW

> <Collection>
DC

> <InChI>
InChI=1S/C22H18N4O4/c1-12-10-16(27)17(21(29)30-12)15-6-8-23-19-18(15)20(28)25-22(24-19)26-9-7-13-4-2-3-5-14(13)11-26/h2-6,8,10,27H,7,9,11H2,1H3,(H,23,24,25,28)

> <InChI Key>
JLNMYQLZZCOOIU-UHFFFAOYSA-N

> <PERCENTSP3>
18.2

> <Link>
https://www.chemdiv.com/catalog/screening-compounds/compound-8019-9781/

> <MFCDNUMBER>
MFCD11081577

> <STEREO>
ACHIRAL

> <State>
Solid

> <Similarity score>
0.21

$$$$
2-[2-amino-5-(4-methoxyphenoxy)pyrimidin-4-yl]-5-[(2-fluorophenyl)methoxy]phenol
  -OEChem-04222410502D

 32 35  0     0  0  0  0  0  0999 V2000
    1.3021   -1.0062    0.0000 C   0  0  0  0  0  0  0  0  0  0  0  0
    0.4396   -0.5060    0.0000 C   0  0  0  0  0  0  0  0  0  0  0  0
    1.3021   -2.0061    0.0000 N   0  0  0  0  0  0  0  0  0  0  0  0
    2.1687   -0.4935    0.0000 C   0  0  0  0  0  0  0  0  0  0  0  0
    2.1687   -2.5060    0.0000 C   0  0  0  0  0  0  0  0  0  0  0  0
   -0.4147   -0.9938    0.0000 C   0  0  0  0  0  0  0  0  0  0  0  0
    3.0393   -2.0061    0.0000 N   0  0  0  0  0  0  0  0  0  0  0  0
    0.4396    0.5064    0.0000 C   0  0  0  0  0  0  0  0  0  0  0  0
    2.1687    0.5064    0.0000 O   0  0  0  0  0  0  0  0  0  0  0  0
   -1.2895   -0.5060    0.0000 C   0  0  0  0  0  0  0  0  0  0  0  0
    3.0393   -0.9938    0.0000 C   0  0  0  0  0  0  0  0  0  0  0  0
   -3.8851    0.9895    0.0000 C   0  0  0  0  0  0  0  0  0  0  0  0
   -4.7474    0.4897    0.0000 C   0  0  0  0  0  0  0  0  0  0  0  0
   -3.0145    0.4937    0.0000 C   0  0  0  0  0  0  0  0  0  0  0  0
   -1.2895    0.5064    0.0000 C   0  0  0  0  0  0  0  0  0  0  0  0
   -2.1520    0.9938    0.0000 O   0  0  0  0  0  0  0  0  0  0  0  0
    2.1687   -3.5059    0.0000 N   0  0  0  0  0  0  0  0  0  0  0  0
    3.0312    1.0062    0.0000 C   0  0  0  0  0  0  0  0  0  0  0  0
   -0.4229    1.0062    0.0000 C   0  0  0  0  0  0  0  0  0  0  0  0
   -0.4147   -1.9937    0.0000 O   0  0  0  0  0  0  0  0  0  0  0  0
   -4.7432   -0.5102    0.0000 F   0  0  0  0  0  0  0  0  0  0  0  0
    4.7558    2.0061    0.0000 C   0  0  0  0  0  0  0  0  0  0  0  0
    3.8933    0.5064    0.0000 C   0  0  0  0  0  0  0  0  0  0  0  0
    3.0270    1.9937    0.0000 C   0  0  0  0  0  0  0  0  0  0  0  0
    3.8766    2.5060    0.0000 C   0  0  0  0  0  0  0  0  0  0  0  0
    4.7558    1.0062    0.0000 C   0  0  0  0  0  0  0  0  0  0  0  0
    5.6224    2.5060    0.0000 O   0  0  0  0  0  0  0  0  0  0  0  0
   -3.8933    1.9937    0.0000 C   0  0  0  0  0  0  0  0  0  0  0  0
   -5.6099    0.9813    0.0000 C   0  0  0  0  0  0  0  0  0  0  0  0
    5.6224    3.5059    0.0000 C   0  0  0  0  0  0  0  0  0  0  0  0
   -4.7557    2.4895    0.0000 C   0  0  0  0  0  0  0  0  0  0  0  0
   -5.6224    1.9896    0.0000 C   0  0  0  0  0  0  0  0  0  0  0  0
  1  2  1  0  0  0  0
  1  3  2  0  0  0  0
  1  4  1  0  0  0  0
  3  5  1  0  0  0  0
  2  6  1  0  0  0  0
  7 11  1  0  0  0  0
  5  7  2  0  0  0  0
  2  8  2  0  0  0  0
  4  9  1  0  0  0  0
  6 10  2  0  0  0  0
  4 11  2  0  0  0  0
 12 14  1  0  0  0  0
 12 13  1  0  0  0  0
 14 16  1  0  0  0  0
 15 19  2  0  0  0  0
 10 15  1  0  0  0  0
 15 16  1  0  0  0  0
  5 17  1  0  0  0  0
  9 18  1  0  0  0  0
  8 19  1  0  0  0  0
  6 20  1  0  0  0  0
 13 21  1  0  0  0  0
 22 25  1  0  0  0  0
 22 26  2  0  0  0  0
 18 23  2  0  0  0  0
 18 24  1  0  0  0  0
 24 25  2  0  0  0  0
 23 26  1  0  0  0  0
 22 27  1  0  0  0  0
 12 28  2  0  0  0  0
 13 29  2  0  0  0  0
 29 32  1  0  0  0  0
 27 30  1  0  0  0  0
 28 31  1  0  0  0  0
 31 32  2  0  0  0  0
M  END
> <IDNUMBER>
Y041-2587

> <available>
11

> <H_acceptor>
6

> <H_donor>
3

> <B_rotN>
7

> <N_O>
7

> <logP>
5.1784

> <logD>
5.1782

> <logSw>
-4.9401

> <PSA>
78.45

> <pKa_ma>
10.8368

> <pKa_mb>
6.9011

> <N_Chirals>
0

> <Name>
2-[2-amino-5-(4-methoxyphenoxy)pyrimidin-4-yl]-5-[(2-fluorophenyl)methoxy]phenol

> <Smile>
COc(cc1)ccc1Oc1cnc(N)nc1-c(ccc(OCc(cccc1)c1F)c1)c1O

> <Color>
YELLOW

> <Collection>
DC

> <InChI>
InChI=1S/C24H20FN3O4/c1-30-16-6-8-17(9-7-16)32-22-13-27-24(26)28-23(22)19-11-10-18(12-21(19)29)31-14-15-4-2-3-5-20(15)25/h2-13,29H,14H2,1H3,(H2,26,27,28)

> <InChI Key>
CUPXDNFHZWONLZ-UHFFFAOYSA-N

> <PERCENTSP3>
8.3

> <Link>
https://www.chemdiv.com/catalog/screening-compounds/compound-Y041-2587/

> <MFCDNUMBER>
MFCD05705931

> <STEREO>
ACHIRAL

> <State>
Solid

> <Similarity score>
0.21

$$$$
4-bromo-2-(1-ethyl-7,8-dimethoxy-3-phenyl-3H-pyrazolo[3,4-c]isoquinolin-5-yl)phe
  -OEChem-04222410502D

 33 37  0     0  0  0  0  0  0999 V2000
    0.7506    0.7077    0.0000 C   0  0  0  0  0  0  0  0  0  0  0  0
    1.5010    1.3725    0.0000 N   0  0  0  0  0  0  0  0  0  0  0  0
   -0.1258    1.2113    0.0000 C   0  0  0  0  0  0  0  0  0  0  0  0
    1.0982    2.2842    0.0000 N   0  0  0  0  0  0  0  0  0  0  0  0
   -0.1258   -0.7983    0.0000 C   0  0  0  0  0  0  0  0  0  0  0  0
    0.7506   -0.2997    0.0000 N   0  0  0  0  0  0  0  0  0  0  0  0
   -0.9772    0.7077    0.0000 C   0  0  0  0  0  0  0  0  0  0  0  0
    0.0957    2.1885    0.0000 C   0  0  0  0  0  0  0  0  0  0  0  0
   -0.9772   -0.2997    0.0000 C   0  0  0  0  0  0  0  0  0  0  0  0
   -0.1258   -1.7858    0.0000 C   0  0  0  0  0  0  0  0  0  0  0  0
   -1.8385    1.1963    0.0000 C   0  0  0  0  0  0  0  0  0  0  0  0
   -1.8385   -0.7983    0.0000 C   0  0  0  0  0  0  0  0  0  0  0  0
   -2.6947   -0.2997    0.0000 C   0  0  0  0  0  0  0  0  0  0  0  0
   -2.6947    0.7077    0.0000 C   0  0  0  0  0  0  0  0  0  0  0  0
    0.7506   -2.2942    0.0000 C   0  0  0  0  0  0  0  0  0  0  0  0
    2.4731    1.1509    0.0000 C   0  0  0  0  0  0  0  0  0  0  0  0
   -0.9922   -2.2942    0.0000 C   0  0  0  0  0  0  0  0  0  0  0  0
    0.7355   -3.2968    0.0000 C   0  0  0  0  0  0  0  0  0  0  0  0
   -0.9922   -3.2817    0.0000 C   0  0  0  0  0  0  0  0  0  0  0  0
   -0.5691    2.9439    0.0000 C   0  0  0  0  0  0  0  0  0  0  0  0
   -3.5711    1.1963    0.0000 O   0  0  0  0  0  0  0  0  0  0  0  0
   -3.5711   -0.8035    0.0000 O   0  0  0  0  0  0  0  0  0  0  0  0
   -0.1258   -3.7954    0.0000 C   0  0  0  0  0  0  0  0  0  0  0  0
    1.6069   -1.8008    0.0000 O   0  0  0  0  0  0  0  0  0  0  0  0
   -1.8636   -3.7804    0.0000 Br  0  0  0  0  0  0  0  0  0  0  0  0
    2.7754    0.1939    0.0000 C   0  0  0  0  0  0  0  0  0  0  0  0
    3.1532    1.9015    0.0000 C   0  0  0  0  0  0  0  0  0  0  0  0
   -4.4376   -0.2997    0.0000 C   0  0  0  0  0  0  0  0  0  0  0  0
   -4.4376    0.7077    0.0000 C   0  0  0  0  0  0  0  0  0  0  0  0
   -0.0704    3.7954    0.0000 C   0  0  0  0  0  0  0  0  0  0  0  0
    4.1204    1.6746    0.0000 C   0  0  0  0  0  0  0  0  0  0  0  0
    3.7578   -0.0126    0.0000 C   0  0  0  0  0  0  0  0  0  0  0  0
    4.4376    0.7126    0.0000 C   0  0  0  0  0  0  0  0  0  0  0  0
  1  2  1  0  0  0  0
  1  3  2  0  0  0  0
  2  4  1  0  0  0  0
  4  8  2  0  0  0  0
  5  6  2  0  0  0  0
  1  6  1  0  0  0  0
  3  7  1  0  0  0  0
  3  8  1  0  0  0  0
  5  9  1  0  0  0  0
  7  9  1  0  0  0  0
  5 10  1  0  0  0  0
  7 11  2  0  0  0  0
  9 12  2  0  0  0  0
 12 13  1  0  0  0  0
 13 14  2  0  0  0  0
 11 14  1  0  0  0  0
 10 15  1  0  0  0  0
  2 16  1  0  0  0  0
 10 17  2  0  0  0  0
 15 18  2  0  0  0  0
 17 19  1  0  0  0  0
  8 20  1  0  0  0  0
 14 21  1  0  0  0  0
 13 22  1  0  0  0  0
 19 23  2  0  0  0  0
 18 23  1  0  0  0  0
 15 24  1  0  0  0  0
 19 25  1  0  0  0  0
 16 26  2  0  0  0  0
 16 27  1  0  0  0  0
 22 28  1  0  0  0  0
 21 29  1  0  0  0  0
 20 30  1  0  0  0  0
 27 31  2  0  0  0  0
 26 32  1  0  0  0  0
 32 33  2  0  0  0  0
 31 33  1  0  0  0  0
M  END
> <IDNUMBER>
4116-0077

> <available>
29

> <H_acceptor>
5

> <H_donor>
1

> <B_rotN>
5

> <N_O>
6

> <logP>
6.7506

> <logD>
6.7433

> <logSw>
-6.0776

> <PSA>
56.359

> <pKa_ma>
9.2065

> <pKa_mb>
4.5628

> <N_Chirals>
0

> <Name>
4-bromo-2-(1-ethyl-7,8-dimethoxy-3-phenyl-3H-pyrazolo[3,4-c]isoquinolin-5-yl)phenol

> <Smile>
CCc(c(c(c1c2)cc(OC)c2OC)c2nc1-c(cc(cc1)Br)c1O)nn2-c1ccccc1

> <Color>
YELLOW

> <Collection>
DC

> <InChI>
InChI=1S/C26H22BrN3O3/c1-4-20-24-17-13-22(32-2)23(33-3)14-18(17)25(19-12-15(27)10-11-21(19)31)28-26(24)30(29-20)16-8-6-5-7-9-16/h5-14,31H,4H2,1-3H3

> <InChI Key>
PZUFEVKZQKVTLH-UHFFFAOYSA-N

> <PERCENTSP3>
15.4

> <Link>
https://www.chemdiv.com/catalog/screening-compounds/compound-4116-0077/

> <MFCDNUMBER>
MFCD01850555

> <CLNUMBER>
CL1506

> <STEREO>
ACHIRAL

> <State>
Solid

> <Similarity score>
0.21

$$$$
1-[3-(4-fluorophenyl)[1,2]oxazolo[5,4-d]pyrimidin-4-yl]-N-[(2-methoxyphenyl)meth
  -OEChem-04222410502D

 34 38  0     0  0  0  0  0  0999 V2000
   -1.5833   -1.7263    0.0000 C   0  0  0  0  0  0  0  0  0  0  0  0
   -0.8131   -1.0821    0.0000 C   0  0  0  0  0  0  0  0  0  0  0  0
   -3.0178   -2.4865    0.0000 N   0  0  0  0  0  0  0  0  0  0  0  0
   -2.5748   -1.5805    0.0000 C   0  0  0  0  0  0  0  0  0  0  0  0
   -0.9892   -0.0956    0.0000 N   0  0  0  0  0  0  0  0  0  0  0  0
   -1.4119   -2.7133    0.0000 C   0  0  0  0  0  0  0  0  0  0  0  0
   -2.2927   -3.1662    0.0000 O   0  0  0  0  0  0  0  0  0  0  0  0
   -0.3903    1.5454    0.0000 C   0  0  3  0  0  0  0  0  0  0  0  0
    0.3699    2.1847    0.0000 C   0  0  0  0  0  0  0  0  0  0  0  0
    0.1284   -1.4295    0.0000 N   0  0  0  0  0  0  0  0  0  0  0  0
   -0.2191    0.5486    0.0000 C   0  0  0  0  0  0  0  0  0  0  0  0
   -0.4758   -3.0555    0.0000 N   0  0  0  0  0  0  0  0  0  0  0  0
    1.3061    1.8525    0.0000 N   0  0  0  0  0  0  0  0  0  0  0  0
   -3.2543   -0.8254    0.0000 C   0  0  0  0  0  0  0  0  0  0  0  0
    0.2793   -2.4111    0.0000 C   0  0  0  0  0  0  0  0  0  0  0  0
    2.9019    1.1979    0.0000 C   0  0  0  0  0  0  0  0  0  0  0  0
    2.2978    1.9832    0.0000 C   0  0  0  0  0  0  0  0  0  0  0  0
    0.1888    3.1662    0.0000 O   0  0  0  0  0  0  0  0  0  0  0  0
    3.8885    1.3239    0.0000 C   0  0  0  0  0  0  0  0  0  0  0  0
   -4.2358   -1.0369    0.0000 C   0  0  0  0  0  0  0  0  0  0  0  0
   -2.9373    0.1158    0.0000 C   0  0  0  0  0  0  0  0  0  0  0  0
   -1.9255    0.2467    0.0000 C   0  0  0  0  0  0  0  0  0  0  0  0
   -4.5983    0.6695    0.0000 C   0  0  0  0  0  0  0  0  0  0  0  0
   -4.9003   -0.2918    0.0000 C   0  0  0  0  0  0  0  0  0  0  0  0
   -3.6017    0.8508    0.0000 C   0  0  0  0  0  0  0  0  0  0  0  0
   -5.2627    1.4144    0.0000 F   0  0  0  0  0  0  0  0  0  0  0  0
   -1.3264    1.8776    0.0000 C   0  0  0  0  0  0  0  0  0  0  0  0
    4.2659    2.2551    0.0000 O   0  0  0  0  0  0  0  0  0  0  0  0
   -2.1066    1.2433    0.0000 C   0  0  0  0  0  0  0  0  0  0  0  0
    2.5294    0.2770    0.0000 C   0  0  0  0  0  0  0  0  0  0  0  0
    4.5026    0.5335    0.0000 C   0  0  0  0  0  0  0  0  0  0  0  0
    5.2627    2.3911    0.0000 C   0  0  0  0  0  0  0  0  0  0  0  0
    3.1335   -0.5185    0.0000 C   0  0  0  0  0  0  0  0  0  0  0  0
    4.1250   -0.3825    0.0000 C   0  0  0  0  0  0  0  0  0  0  0  0
  1  2  1  0  0  0  0
  3  4  2  0  0  0  0
  3  7  1  0  0  0  0
  1  4  1  0  0  0  0
  2  5  1  0  0  0  0
  1  6  2  0  0  0  0
  6  7  1  0  0  0  0
  8 11  1  0  0  0  0
  8 27  1  0  0  0  0
  8  9  1  0  0  0  0
  2 10  2  0  0  0  0
  5 11  1  0  0  0  0
  6 12  1  0  0  0  0
  9 13  1  0  0  0  0
  4 14  1  0  0  0  0
 12 15  2  0  0  0  0
 10 15  1  0  0  0  0
 16 17  1  0  0  0  0
 13 17  1  0  0  0  0
  9 18  2  0  0  0  0
 16 19  2  0  0  0  0
 14 20  1  0  0  0  0
 14 21  2  0  0  0  0
  5 22  1  0  0  0  0
 23 25  2  0  0  0  0
 20 24  2  0  0  0  0
 23 24  1  0  0  0  0
 21 25  1  0  0  0  0
 23 26  1  0  0  0  0
 27 29  1  0  0  0  0
 19 28  1  0  0  0  0
 22 29  1  0  0  0  0
 16 30  1  0  0  0  0
 19 31  1  0  0  0  0
 31 34  2  0  0  0  0
 28 32  1  0  0  0  0
 30 33  2  0  0  0  0
 33 34  1  0  0  0  0
M  END
> <IDNUMBER>
E945-0031

> <available>
92

> <H_acceptor>
7

> <H_donor>
1

> <B_rotN>
7

> <N_O>
8

> <logP>
3.707

> <logD>
3.707

> <logSw>
-4.117

> <PSA>
77.512

> <pKa_ma>
12.356

> <pKa_mb>
2.7118

> <N_Chirals>
1

> <Name>
1-[3-(4-fluorophenyl)[1,2]oxazolo[5,4-d]pyrimidin-4-yl]-N-[(2-methoxyphenyl)methyl]piperidine-3-carboxamide

> <Smile>
COc1c(CNC(C(CCC2)CN2c2c(c(-c(cc3)ccc3F)no3)c3ncn2)=O)cccc1

> <Color>
NOT COLORED

> <Collection>
DC

> <InChI>
InChI=1S/C25H24FN5O3/c1-33-20-7-3-2-5-17(20)13-27-24(32)18-6-4-12-31(14-18)23-21-22(16-8-10-19(26)11-9-16)30-34-25(21)29-15-28-23/h2-3,5,7-11,15,18H,4,6,12-14H2,1H3,(H,27,32)/t18-/m0/s1

> <InChI Key>
SHSIPZBIJIMRLZ-SFHVURJKSA-N

> <PERCENTSP3>
28

> <Link>
https://www.chemdiv.com/catalog/screening-compounds/compound-E945-0031/

> <MFCDNUMBER>
MFCD14929275

> <CLNUMBER>
CL5510B

> <STEREO>
RACEMIC MIXTURE

> <State>
Solid

> <Similarity score>
0.21

$$$$
2-phenyl-4-(1,3,3-trimethyl-6-azabicyclo[3.2.1]octan-6-yl)quinazoline
  -OEChem-04222410502D

 27 31  0     0  0  0  0  0  0999 V2000
   -0.4497   -0.2755    0.0000 C   0  0  0  0  0  0  0  0  0  0  0  0
   -0.4497    0.7152    0.0000 N   0  0  0  0  0  0  0  0  0  0  0  0
    0.4246   -0.7759    0.0000 N   0  0  0  0  0  0  0  0  0  0  0  0
    0.4246   -1.7867    0.0000 C   0  0  0  0  0  0  0  0  0  0  0  0
   -1.3141   -0.7910    0.0000 C   0  0  0  0  0  0  0  0  0  0  0  0
   -0.4449   -2.2923    0.0000 N   0  0  0  0  0  0  0  0  0  0  0  0
    0.4094    1.1247    0.0000 C   0  0  3  0  0  0  0  0  0  0  0  0
   -1.5568    2.0496    0.0000 C   0  0  3  0  0  0  0  0  0  0  0  0
   -1.3141   -1.7919    0.0000 C   0  0  0  0  0  0  0  0  0  0  0  0
   -1.3344    1.1247    0.0000 C   0  0  0  0  0  0  0  0  0  0  0  0
   -0.3285    1.7564    0.0000 C   0  0  0  0  0  0  0  0  0  0  0  0
    0.0202    2.8179    0.0000 C   0  0  0  0  0  0  0  0  0  0  0  0
    0.6268    2.0597    0.0000 C   0  0  0  0  0  0  0  0  0  0  0  0
    1.2939   -2.2771    0.0000 C   0  0  0  0  0  0  0  0  0  0  0  0
   -0.9502    2.8028    0.0000 C   0  0  0  0  0  0  0  0  0  0  0  0
   -2.1836   -0.2908    0.0000 C   0  0  0  0  0  0  0  0  0  0  0  0
   -2.4868    2.2771    0.0000 C   0  0  0  0  0  0  0  0  0  0  0  0
   -2.1836   -2.2923    0.0000 C   0  0  0  0  0  0  0  0  0  0  0  0
   -0.0707    3.7883    0.0000 C   0  0  0  0  0  0  0  0  0  0  0  0
    1.0160    3.2477    0.0000 C   0  0  0  0  0  0  0  0  0  0  0  0
    1.2939   -3.2879    0.0000 C   0  0  0  0  0  0  0  0  0  0  0  0
    2.1432   -1.7867    0.0000 C   0  0  0  0  0  0  0  0  0  0  0  0
   -3.0327   -0.7910    0.0000 C   0  0  0  0  0  0  0  0  0  0  0  0
   -3.0327   -1.7919    0.0000 C   0  0  0  0  0  0  0  0  0  0  0  0
    3.0176   -2.2720    0.0000 C   0  0  0  0  0  0  0  0  0  0  0  0
    2.1685   -3.7883    0.0000 C   0  0  0  0  0  0  0  0  0  0  0  0
    3.0327   -3.2627    0.0000 C   0  0  0  0  0  0  0  0  0  0  0  0
  1  2  1  0  0  0  0
  1  3  2  0  0  0  0
  3  4  1  0  0  0  0
  4  6  2  0  0  0  0
  1  5  1  0  0  0  0
  6  9  1  0  0  0  0
  2  7  1  0  0  0  0
  8 10  1  0  0  0  0
  8 11  1  0  0  0  0
  5  9  1  0  0  0  0
  2 10  1  0  0  0  0
  7 11  1  0  0  0  0
 12 13  1  0  0  0  0
 12 15  1  0  0  0  0
  7 13  1  0  0  0  0
  4 14  1  0  0  0  0
  8 15  1  0  0  0  0
  5 16  2  0  0  0  0
  8 17  1  0  0  0  0
  9 18  2  0  0  0  0
 18 24  1  0  0  0  0
 12 19  1  0  0  0  0
 12 20  1  0  0  0  0
 14 21  2  0  0  0  0
 14 22  1  0  0  0  0
 16 23  1  0  0  0  0
 23 24  2  0  0  0  0
 22 25  2  0  0  0  0
 21 26  1  0  0  0  0
 25 27  1  0  0  0  0
 26 27  2  0  0  0  0
M  END
> <IDNUMBER>
5695-0637

> <available>
5

> <H_acceptor>
2

> <H_donor>
0

> <B_rotN>
2

> <N_O>
3

> <logP>
6.4561

> <logD>
5.979

> <logSw>
-6.2733

> <PSA>
21.3242

> <pKa_ma>
18.1908

> <pKa_mb>
7.7009

> <N_Chirals>
2

> <Name>
2-phenyl-4-(1,3,3-trimethyl-6-azabicyclo[3.2.1]octan-6-yl)quinazoline

> <Smile>
CC(C1)(C2)CC(C)(C)CC1N2c1nc(-c2ccccc2)nc2ccccc12

> <Color>
BROWN

> <Collection>
NC

> <InChI>
InChI=1S/C24H27N3/c1-23(2)13-18-14-24(3,15-23)16-27(18)22-19-11-7-8-12-20(19)25-21(26-22)17-9-5-4-6-10-17/h4-12,18H,13-16H2,1-3H3

> <InChI Key>
HHYLTYRWMUMJHY-UHFFFAOYSA-N

> <PERCENTSP3>
41.7

> <Link>
https://www.chemdiv.com/catalog/screening-compounds/compound-5695-0637/

> <MFCDNUMBER>
MFCD08337607

> <CLNUMBER>
CL2243

> <STEREO>
MIXTURE OF STEREOISOMERS

> <State>
Solid

> <Similarity score>
0.21

$$$$
7-chloro-3-(3-fluorophenyl)-5-(3-methylpiperidin-1-yl)[1,2,3]triazolo[1,5-a]quin
  -OEChem-04222410502D

 28 32  0     0  0  0  0  0  0999 V2000
    0.1541   -1.3651    0.0000 C   0  0  0  0  0  0  0  0  0  0  0  0
   -0.7141   -1.8646    0.0000 N   0  0  0  0  0  0  0  0  0  0  0  0
    0.1541   -0.3661    0.0000 N   0  0  0  0  0  0  0  0  0  0  0  0
    0.8956   -2.0412    0.0000 C   0  0  0  0  0  0  0  0  0  0  0  0
   -0.7141    0.1390    0.0000 C   0  0  0  0  0  0  0  0  0  0  0  0
   -0.5124   -2.8490    0.0000 N   0  0  0  0  0  0  0  0  0  0  0  0
   -1.5773   -0.3661    0.0000 C   0  0  0  0  0  0  0  0  0  0  0  0
    0.4870   -2.9548    0.0000 N   0  0  0  0  0  0  0  0  0  0  0  0
   -1.5873   -1.3651    0.0000 C   0  0  0  0  0  0  0  0  0  0  0  0
   -0.7141    1.1382    0.0000 N   0  0  0  0  0  0  0  0  0  0  0  0
    1.8647   -1.8343    0.0000 C   0  0  0  0  0  0  0  0  0  0  0  0
   -2.4500    0.1336    0.0000 C   0  0  0  0  0  0  0  0  0  0  0  0
   -2.4500   -1.8646    0.0000 C   0  0  0  0  0  0  0  0  0  0  0  0
    0.1541    1.6326    0.0000 C   0  0  0  0  0  0  0  0  0  0  0  0
    2.5308   -2.5864    0.0000 C   0  0  0  0  0  0  0  0  0  0  0  0
   -3.3133   -0.3661    0.0000 C   0  0  0  0  0  0  0  0  0  0  0  0
   -1.5773    1.6326    0.0000 C   0  0  0  0  0  0  0  0  0  0  0  0
   -3.3133   -1.3651    0.0000 C   0  0  0  0  0  0  0  0  0  0  0  0
    3.5152   -2.3796    0.0000 C   0  0  0  0  0  0  0  0  0  0  0  0
   -4.1761    0.1336    0.0000 Cl  0  0  0  0  0  0  0  0  0  0  0  0
    4.1761   -3.1315    0.0000 F   0  0  0  0  0  0  0  0  0  0  0  0
    0.1541    2.6318    0.0000 C   0  0  3  0  0  0  0  0  0  0  0  0
    2.1774   -0.8959    0.0000 C   0  0  0  0  0  0  0  0  0  0  0  0
   -1.5773    2.6318    0.0000 C   0  0  0  0  0  0  0  0  0  0  0  0
    3.1516   -0.6837    0.0000 C   0  0  0  0  0  0  0  0  0  0  0  0
    3.8279   -1.4357    0.0000 C   0  0  0  0  0  0  0  0  0  0  0  0
   -0.7091    3.1315    0.0000 C   0  0  0  0  0  0  0  0  0  0  0  0
    1.0169    3.1315    0.0000 C   0  0  0  0  0  0  0  0  0  0  0  0
  1  2  1  0  0  0  0
  1  3  1  0  0  0  0
  1  4  2  0  0  0  0
  3  5  2  0  0  0  0
  2  6  1  0  0  0  0
  5  7  1  0  0  0  0
  7  9  1  0  0  0  0
  4  8  1  0  0  0  0
  6  8  2  0  0  0  0
  2  9  1  0  0  0  0
  5 10  1  0  0  0  0
  4 11  1  0  0  0  0
  7 12  2  0  0  0  0
  9 13  2  0  0  0  0
 10 14  1  0  0  0  0
 11 15  2  0  0  0  0
 12 16  1  0  0  0  0
 10 17  1  0  0  0  0
 13 18  1  0  0  0  0
 16 18  2  0  0  0  0
 15 19  1  0  0  0  0
 16 20  1  0  0  0  0
 19 21  1  0  0  0  0
 14 22  1  0  0  0  0
 11 23  1  0  0  0  0
 17 24  1  0  0  0  0
 23 25  2  0  0  0  0
 25 26  1  0  0  0  0
 19 26  2  0  0  0  0
 24 27  1  0  0  0  0
 22 27  1  0  0  0  0
 22 28  1  0  0  0  0
M  END
> <IDNUMBER>
C680-0859

> <available>
67

> <H_acceptor>
3

> <H_donor>
0

> <B_rotN>
2

> <N_O>
5

> <logP>
5.6487

> <logD>
5.6486

> <logSw>
-6.1634

> <PSA>
35.514

> <pKa_ma>
21.5787

> <pKa_mb>
9.4307

> <N_Chirals>
1

> <Name>
7-chloro-3-(3-fluorophenyl)-5-(3-methylpiperidin-1-yl)[1,2,3]triazolo[1,5-a]quinazoline

> <Smile>
CC(CCC1)CN1c1nc2c(-c3cc(F)ccc3)nnn2c(cc2)c1cc2Cl

> <Color>
YELLOW

> <Collection>
DC

> <InChI>
InChI=1S/C21H19ClFN5/c1-13-4-3-9-27(12-13)20-17-11-15(22)7-8-18(17)28-21(24-20)19(25-26-28)14-5-2-6-16(23)10-14/h2,5-8,10-11,13H,3-4,9,12H2,1H3/t13-/m0/s1

> <InChI Key>
IBCKMLRSTWPWJG-ZDUSSCGKSA-N

> <PERCENTSP3>
28.6

> <Link>
https://www.chemdiv.com/catalog/screening-compounds/compound-C680-0859/

> <MFCDNUMBER>
MFCD08540149

> <CLNUMBER>
CL3431

> <STEREO>
RACEMIC MIXTURE

> <State>
Solid

> <Similarity score>
0.21

$$$$
3-(3-bromophenyl)-6-fluoro-1-(4-fluorophenyl)-1H-pyrazolo[4,3-c]quinoline
  -OEChem-04222410502D

 28 32  0     0  0  0  0  0  0999 V2000
   -0.8724    0.4389    0.0000 N   0  0  0  0  0  0  0  0  0  0  0  0
   -0.2097   -1.0286    0.0000 C   0  0  0  0  0  0  0  0  0  0  0  0
    0.1207    0.5385    0.0000 N   0  0  0  0  0  0  0  0  0  0  0  0
   -1.0839   -0.5329    0.0000 C   0  0  0  0  0  0  0  0  0  0  0  0
    0.5455   -0.3517    0.0000 C   0  0  0  0  0  0  0  0  0  0  0  0
   -1.9651   -1.0286    0.0000 C   0  0  0  0  0  0  0  0  0  0  0  0
   -1.0839   -2.5194    0.0000 N   0  0  0  0  0  0  0  0  0  0  0  0
   -1.9651   -2.0254    0.0000 C   0  0  0  0  0  0  0  0  0  0  0  0
   -0.2097   -2.0254    0.0000 C   0  0  0  0  0  0  0  0  0  0  0  0
    1.5583   -0.4567    0.0000 C   0  0  0  0  0  0  0  0  0  0  0  0
   -1.4960    1.2101    0.0000 C   0  0  0  0  0  0  0  0  0  0  0  0
   -2.8375   -2.5194    0.0000 C   0  0  0  0  0  0  0  0  0  0  0  0
    2.1303    0.3589    0.0000 C   0  0  0  0  0  0  0  0  0  0  0  0
   -1.1442    2.1249    0.0000 C   0  0  0  0  0  0  0  0  0  0  0  0
   -2.4751    1.0519    0.0000 C   0  0  0  0  0  0  0  0  0  0  0  0
   -2.8375   -0.5329    0.0000 C   0  0  0  0  0  0  0  0  0  0  0  0
    3.1430    0.2720    0.0000 C   0  0  0  0  0  0  0  0  0  0  0  0
   -2.7469    2.7415    0.0000 C   0  0  0  0  0  0  0  0  0  0  0  0
   -2.8375   -3.5162    0.0000 F   0  0  0  0  0  0  0  0  0  0  0  0
   -1.7678    2.8979    0.0000 C   0  0  0  0  0  0  0  0  0  0  0  0
   -3.0933    1.8105    0.0000 C   0  0  0  0  0  0  0  0  0  0  0  0
    3.7117    1.0981    0.0000 Br  0  0  0  0  0  0  0  0  0  0  0  0
   -3.3812    3.5162    0.0000 F   0  0  0  0  0  0  0  0  0  0  0  0
    1.9651   -1.3574    0.0000 C   0  0  0  0  0  0  0  0  0  0  0  0
   -3.7010   -1.0286    0.0000 C   0  0  0  0  0  0  0  0  0  0  0  0
    2.9761   -1.4534    0.0000 C   0  0  0  0  0  0  0  0  0  0  0  0
   -3.7117   -2.0254    0.0000 C   0  0  0  0  0  0  0  0  0  0  0  0
    3.5800   -0.6378    0.0000 C   0  0  0  0  0  0  0  0  0  0  0  0
  2  4  2  0  0  0  0
  2  5  1  0  0  0  0
  1  3  1  0  0  0  0
  1  4  1  0  0  0  0
  3  5  2  0  0  0  0
  4  6  1  0  0  0  0
  7  8  1  0  0  0  0
  7  9  2  0  0  0  0
  6  8  1  0  0  0  0
  2  9  1  0  0  0  0
  5 10  1  0  0  0  0
  1 11  1  0  0  0  0
  8 12  2  0  0  0  0
 10 13  1  0  0  0  0
 11 14  2  0  0  0  0
 11 15  1  0  0  0  0
  6 16  2  0  0  0  0
 13 17  2  0  0  0  0
 18 21  1  0  0  0  0
 18 20  2  0  0  0  0
 12 19  1  0  0  0  0
 14 20  1  0  0  0  0
 15 21  2  0  0  0  0
 17 22  1  0  0  0  0
 18 23  1  0  0  0  0
 10 24  2  0  0  0  0
 16 25  1  0  0  0  0
 24 26  1  0  0  0  0
 25 27  2  0  0  0  0
 12 27  1  0  0  0  0
 26 28  2  0  0  0  0
 17 28  1  0  0  0  0
M  END
> <IDNUMBER>
C350-0859

> <available>
109

> <H_acceptor>
2

> <H_donor>
0

> <B_rotN>
2

> <N_O>
3

> <logP>
6.1773

> <logD>
6.1773

> <logSw>
-6.6124

> <PSA>
23.4803

> <pKa_ma>
14

> <pKa_mb>
2.6131

> <N_Chirals>
0

> <Name>
3-(3-bromophenyl)-6-fluoro-1-(4-fluorophenyl)-1H-pyrazolo[4,3-c]quinoline

> <Smile>
Fc(cc1)ccc1-n(c(c1ccc2)c3cnc1c2F)nc3-c1cccc(Br)c1

> <Color>
NOT COLORED

> <Collection>
DC

> <InChI>
InChI=1S/C22H12BrF2N3/c23-14-4-1-3-13(11-14)20-18-12-26-21-17(5-2-6-19(21)25)22(18)28(27-20)16-9-7-15(24)8-10-16/h1-12H

> <InChI Key>
PLWYDPINYRKPOI-UHFFFAOYSA-N

> <PERCENTSP3>
0

> <Link>
https://www.chemdiv.com/catalog/screening-compounds/compound-C350-0859/

> <MFCDNUMBER>
MFCD14750713

> <CLNUMBER>
CL4130

> <STEREO>
ACHIRAL

> <State>
Solid

> <Similarity score>
0.21

$$$$
4-{3-[(2-chlorophenyl)methyl]-1,3-diazinan-1-yl}-3-(4-fluorophenyl)[1,2]oxazolo[
  -OEChem-04222410502D

 30 34  0     0  0  0  0  0  0999 V2000
    0.1216   -2.6389    0.0000 C   0  0  0  0  0  0  0  0  0  0  0  0
    0.9875   -2.1373    0.0000 C   0  0  0  0  0  0  0  0  0  0  0  0
    0.9875   -1.1397    0.0000 N   0  0  0  0  0  0  0  0  0  0  0  0
   -1.4131   -3.1401    0.0000 N   0  0  0  0  0  0  0  0  0  0  0  0
   -0.8256   -2.3249    0.0000 C   0  0  0  0  0  0  0  0  0  0  0  0
    0.1216   -3.6415    0.0000 C   0  0  0  0  0  0  0  0  0  0  0  0
   -0.8256   -3.9506    0.0000 O   0  0  0  0  0  0  0  0  0  0  0  0
    1.6509   -0.3801    0.0000 C   0  0  0  0  0  0  0  0  0  0  0  0
    1.3220    0.5620    0.0000 N   0  0  0  0  0  0  0  0  0  0  0  0
    1.8638   -2.6389    0.0000 N   0  0  0  0  0  0  0  0  0  0  0  0
    0.9875   -4.1428    0.0000 N   0  0  0  0  0  0  0  0  0  0  0  0
    1.6712    2.2538    0.0000 C   0  0  0  0  0  0  0  0  0  0  0  0
    1.9852    1.3217    0.0000 C   0  0  0  0  0  0  0  0  0  0  0  0
   -1.0940   -1.3625    0.0000 C   0  0  0  0  0  0  0  0  0  0  0  0
    1.8638   -3.6415    0.0000 C   0  0  0  0  0  0  0  0  0  0  0  0
    0.6836    2.4412    0.0000 C   0  0  0  0  0  0  0  0  0  0  0  0
    0.0102   -0.9420    0.0000 C   0  0  0  0  0  0  0  0  0  0  0  0
   -2.0563   -1.1094    0.0000 C   0  0  0  0  0  0  0  0  0  0  0  0
   -0.3850   -0.6484    0.0000 C   0  0  0  0  0  0  0  0  0  0  0  0
   -0.3039   -0.0000    0.0000 C   0  0  0  0  0  0  0  0  0  0  0  0
   -1.6257    0.5672    0.0000 C   0  0  0  0  0  0  0  0  0  0  0  0
    0.0252    1.7015    0.0000 Cl  0  0  0  0  0  0  0  0  0  0  0  0
    0.3494    0.7495    0.0000 C   0  0  0  0  0  0  0  0  0  0  0  0
   -2.3246   -0.1368    0.0000 C   0  0  0  0  0  0  0  0  0  0  0  0
   -0.6534    0.3090    0.0000 C   0  0  0  0  0  0  0  0  0  0  0  0
   -1.8992    1.5397    0.0000 F   0  0  0  0  0  0  0  0  0  0  0  0
    2.3246    3.0033    0.0000 C   0  0  0  0  0  0  0  0  0  0  0  0
    0.3595    3.3934    0.0000 C   0  0  0  0  0  0  0  0  0  0  0  0
    2.0005    3.9453    0.0000 C   0  0  0  0  0  0  0  0  0  0  0  0
    1.0180    4.1428    0.0000 C   0  0  0  0  0  0  0  0  0  0  0  0
  1  2  1  0  0  0  0
  2  3  1  0  0  0  0
  4  5  2  0  0  0  0
  1  5  1  0  0  0  0
  1  6  2  0  0  0  0
  6  7  1  0  0  0  0
  4  7  1  0  0  0  0
  3  8  1  0  0  0  0
  8  9  1  0  0  0  0
  9 23  1  0  0  0  0
  2 10  2  0  0  0  0
  6 11  1  0  0  0  0
 12 13  1  0  0  0  0
  9 13  1  0  0  0  0
  5 14  1  0  0  0  0
 11 15  2  0  0  0  0
 10 15  1  0  0  0  0
 12 16  1  0  0  0  0
  3 17  1  0  0  0  0
 14 18  1  0  0  0  0
 14 19  2  0  0  0  0
 17 20  1  0  0  0  0
 21 25  2  0  0  0  0
 21 24  1  0  0  0  0
 16 22  1  0  0  0  0
 20 23  1  0  0  0  0
 18 24  2  0  0  0  0
 19 25  1  0  0  0  0
 21 26  1  0  0  0  0
 12 27  2  0  0  0  0
 16 28  2  0  0  0  0
 27 29  1  0  0  0  0
 29 30  2  0  0  0  0
 28 30  1  0  0  0  0
M  END
> <IDNUMBER>
E899-0277

> <available>
78

> <H_acceptor>
5

> <H_donor>
0

> <B_rotN>
4

> <N_O>
6

> <logP>
4.8779

> <logD>
4.8778

> <logSw>
-5.1773

> <PSA>
49.815

> <pKa_ma>
21.573

> <pKa_mb>
3.5883

> <N_Chirals>
0

> <Name>
4-{3-[(2-chlorophenyl)methyl]-1,3-diazinan-1-yl}-3-(4-fluorophenyl)[1,2]oxazolo[5,4-d]pyrimidine

> <Smile>
Fc(cc1)ccc1-c1noc2c1c(N1CN(Cc(cccc3)c3Cl)CCC1)ncn2

> <Color>
NOT COLORED

> <Collection>
DC

> <InChI>
InChI=1S/C22H19ClFN5O/c23-18-5-2-1-4-16(18)12-28-10-3-11-29(14-28)21-19-20(15-6-8-17(24)9-7-15)27-30-22(19)26-13-25-21/h1-2,4-9,13H,3,10-12,14H2

> <InChI Key>
QYUSHAWEFPIGCP-UHFFFAOYSA-N

> <PERCENTSP3>
22.7

> <Link>
https://www.chemdiv.com/catalog/screening-compounds/compound-E899-0277/

> <MFCDNUMBER>
MFCD14926746

> <CLNUMBER>
CL5509

> <STEREO>
ACHIRAL

> <State>
Solid

> <Similarity score>
0.21

$$$$
5-[(2-chloro-6-fluorophenyl)methoxy]-2-[5-(4-methoxyphenoxy)pyrimidin-4-yl]pheno
  -OEChem-04222410502D

 32 35  0     0  0  0  0  0  0999 V2000
   -0.4355   -1.2650    0.0000 C   0  0  0  0  0  0  0  0  0  0  0  0
    0.4273   -1.7607    0.0000 C   0  0  0  0  0  0  0  0  0  0  0  0
   -3.8945    1.7523    0.0000 C   0  0  0  0  0  0  0  0  0  0  0  0
    1.2855   -1.2650    0.0000 C   0  0  0  0  0  0  0  0  0  0  0  0
   -1.2982   -1.7607    0.0000 C   0  0  0  0  0  0  0  0  0  0  0  0
   -3.0318    1.2523    0.0000 C   0  0  0  0  0  0  0  0  0  0  0  0
    0.4273   -2.7651    0.0000 N   0  0  0  0  0  0  0  0  0  0  0  0
   -0.4355   -0.2562    0.0000 C   0  0  0  0  0  0  0  0  0  0  0  0
   -2.1608   -1.2650    0.0000 C   0  0  0  0  0  0  0  0  0  0  0  0
    1.2855   -0.2689    0.0000 O   0  0  0  0  0  0  0  0  0  0  0  0
   -3.8945    2.7484    0.0000 C   0  0  0  0  0  0  0  0  0  0  0  0
   -4.7529    1.2523    0.0000 C   0  0  0  0  0  0  0  0  0  0  0  0
    2.1566   -2.7651    0.0000 N   0  0  0  0  0  0  0  0  0  0  0  0
    1.2855   -3.2610    0.0000 C   0  0  0  0  0  0  0  0  0  0  0  0
   -3.0318    0.2480    0.0000 O   0  0  0  0  0  0  0  0  0  0  0  0
   -2.1608   -0.2562    0.0000 C   0  0  0  0  0  0  0  0  0  0  0  0
    2.1481    0.2311    0.0000 C   0  0  0  0  0  0  0  0  0  0  0  0
    2.1566   -1.7607    0.0000 C   0  0  0  0  0  0  0  0  0  0  0  0
   -1.2982    0.2438    0.0000 C   0  0  0  0  0  0  0  0  0  0  0  0
   -1.2982   -2.7609    0.0000 O   0  0  0  0  0  0  0  0  0  0  0  0
   -3.0194    3.2610    0.0000 Cl  0  0  0  0  0  0  0  0  0  0  0  0
   -4.7529    0.2562    0.0000 F   0  0  0  0  0  0  0  0  0  0  0  0
    3.8778    1.2399    0.0000 C   0  0  0  0  0  0  0  0  0  0  0  0
    3.0067   -0.2689    0.0000 C   0  0  0  0  0  0  0  0  0  0  0  0
    2.1481    1.2399    0.0000 C   0  0  0  0  0  0  0  0  0  0  0  0
    3.0067    1.7356    0.0000 C   0  0  0  0  0  0  0  0  0  0  0  0
    3.8778    0.2311    0.0000 C   0  0  0  0  0  0  0  0  0  0  0  0
    4.7445    1.7400    0.0000 O   0  0  0  0  0  0  0  0  0  0  0  0
   -5.6197    2.7484    0.0000 C   0  0  0  0  0  0  0  0  0  0  0  0
   -5.6197    1.7523    0.0000 C   0  0  0  0  0  0  0  0  0  0  0  0
   -4.7529    3.2486    0.0000 C   0  0  0  0  0  0  0  0  0  0  0  0
    5.6197    1.2441    0.0000 C   0  0  0  0  0  0  0  0  0  0  0  0
  1  2  1  0  0  0  0
  3  6  1  0  0  0  0
  2  4  1  0  0  0  0
  1  5  1  0  0  0  0
  6 15  1  0  0  0  0
  2  7  2  0  0  0  0
  1  8  2  0  0  0  0
  5  9  2  0  0  0  0
  9 16  1  0  0  0  0
  4 10  1  0  0  0  0
  3 11  2  0  0  0  0
  3 12  1  0  0  0  0
 13 14  2  0  0  0  0
 13 18  1  0  0  0  0
  7 14  1  0  0  0  0
 15 16  1  0  0  0  0
 16 19  2  0  0  0  0
 10 17  1  0  0  0  0
  4 18  2  0  0  0  0
  8 19  1  0  0  0  0
  5 20  1  0  0  0  0
 11 21  1  0  0  0  0
 12 22  1  0  0  0  0
 23 26  1  0  0  0  0
 17 24  2  0  0  0  0
 17 25  1  0  0  0  0
 25 26  2  0  0  0  0
 24 27  1  0  0  0  0
 23 27  2  0  0  0  0
 23 28  1  0  0  0  0
 29 30  1  0  0  0  0
 29 31  2  0  0  0  0
 12 30  2  0  0  0  0
 11 31  1  0  0  0  0
 28 32  1  0  0  0  0
M  END
> <IDNUMBER>
IB04-2263

> <available>
50

> <H_acceptor>
6

> <H_donor>
1

> <B_rotN>
7

> <N_O>
6

> <logP>
5.55

> <logD>
5.55

> <logSw>
-6.8

> <PSA>
91.07

> <pKa_ma>
10.33

> <pKa_mb>
0.88

> <N_Chirals>
0

> <Name>
5-[(2-chloro-6-fluorophenyl)methoxy]-2-[5-(4-methoxyphenoxy)pyrimidin-4-yl]phenol

> <Smile>
COc(cc1)ccc1Oc1cncnc1-c(ccc(OCc(c(F)ccc1)c1Cl)c1)c1O

> <Color>
NOT COLORED

> <Collection>
DC

> <InChI>
InChI=1S/C24H18ClFN2O4/c1-30-15-5-7-16(8-6-15)32-23-12-27-14-28-24(23)18-10-9-17(11-22(18)29)31-13-19-20(25)3-2-4-21(19)26/h2-12,14,29H,13H2,1H3

> <InChI Key>
BULPPGLYWMLGAV-UHFFFAOYSA-N

> <PERCENTSP3>
8.3

> <Link>
https://www.chemdiv.com/catalog/screening-compounds/compound-IB04-2263/

> <STEREO>
ACHIRAL

> <State>
Solid

> <Similarity score>
0.21

$$$$
N-[(2-fluorophenyl)methyl]-1-[7-(4-methylphenyl)-4-oxo-3,4-dihydrothieno[3,2-d]p
  -OEChem-04222410502D

 34 38  0     0  0  0  0  0  0999 V2000
   -3.0493   -0.5396    0.0000 C   0  0  0  0  0  0  0  0  0  0  0  0
   -3.0394   -1.5436    0.0000 C   0  0  0  0  0  0  0  0  0  0  0  0
   -1.3090   -0.5396    0.0000 C   0  0  0  0  0  0  0  0  0  0  0  0
   -2.1868   -0.0301    0.0000 N   0  0  0  0  0  0  0  0  0  0  0  0
   -1.3090   -1.5436    0.0000 N   0  0  0  0  0  0  0  0  0  0  0  0
   -2.1766   -2.0429    0.0000 C   0  0  0  0  0  0  0  0  0  0  0  0
   -3.9927   -0.2421    0.0000 C   0  0  0  0  0  0  0  0  0  0  0  0
   -3.9876   -1.8563    0.0000 S   0  0  0  0  0  0  0  0  0  0  0  0
   -0.4464   -0.0403    0.0000 N   0  0  0  0  0  0  0  0  0  0  0  0
   -4.5777   -1.0442    0.0000 C   0  0  0  0  0  0  0  0  0  0  0  0
    1.2787   -0.0454    0.0000 C   0  0  3  0  0  0  0  0  0  0  0  0
    2.1514   -0.5547    0.0000 C   0  0  0  0  0  0  0  0  0  0  0  0
    0.4159   -0.5447    0.0000 C   0  0  0  0  0  0  0  0  0  0  0  0
   -4.3105    0.7113    0.0000 C   0  0  0  0  0  0  0  0  0  0  0  0
    3.0190   -0.0555    0.0000 N   0  0  0  0  0  0  0  0  0  0  0  0
    3.8763   -1.5436    0.0000 C   0  0  0  0  0  0  0  0  0  0  0  0
   -2.1766   -3.0418    0.0000 O   0  0  0  0  0  0  0  0  0  0  0  0
    3.8814   -0.5600    0.0000 C   0  0  0  0  0  0  0  0  0  0  0  0
    2.1412   -1.5538    0.0000 O   0  0  0  0  0  0  0  0  0  0  0  0
    4.7289   -2.0582    0.0000 C   0  0  0  0  0  0  0  0  0  0  0  0
   -3.6394    1.4579    0.0000 C   0  0  0  0  0  0  0  0  0  0  0  0
   -5.2889    0.9232    0.0000 C   0  0  0  0  0  0  0  0  0  0  0  0
   -0.4464    0.9533    0.0000 C   0  0  0  0  0  0  0  0  0  0  0  0
    5.6067   -1.5588    0.0000 F   0  0  0  0  0  0  0  0  0  0  0  0
   -5.6067    1.8563    0.0000 C   0  0  0  0  0  0  0  0  0  0  0  0
   -3.9573    2.4012    0.0000 C   0  0  0  0  0  0  0  0  0  0  0  0
   -4.9309    2.5978    0.0000 C   0  0  0  0  0  0  0  0  0  0  0  0
    1.2888    0.9533    0.0000 C   0  0  0  0  0  0  0  0  0  0  0  0
    0.4159    1.4528    0.0000 C   0  0  0  0  0  0  0  0  0  0  0  0
    3.0040   -2.0279    0.0000 C   0  0  0  0  0  0  0  0  0  0  0  0
    4.7289   -3.0516    0.0000 C   0  0  0  0  0  0  0  0  0  0  0  0
   -5.2437    3.5513    0.0000 C   0  0  0  0  0  0  0  0  0  0  0  0
    2.9887   -3.0418    0.0000 C   0  0  0  0  0  0  0  0  0  0  0  0
    3.8665   -3.5513    0.0000 C   0  0  0  0  0  0  0  0  0  0  0  0
  1  2  2  0  0  0  0
  3  4  2  0  0  0  0
  1  4  1  0  0  0  0
  3  5  1  0  0  0  0
  5  6  1  0  0  0  0
  2  6  1  0  0  0  0
  1  7  1  0  0  0  0
  2  8  1  0  0  0  0
  8 10  1  0  0  0  0
  3  9  1  0  0  0  0
  7 10  2  0  0  0  0
 11 13  1  0  0  0  0
 11 12  1  0  0  0  0
  9 13  1  0  0  0  0
  7 14  1  0  0  0  0
 12 15  1  0  0  0  0
 16 18  1  0  0  0  0
  6 17  2  0  0  0  0
 15 18  1  0  0  0  0
 12 19  2  0  0  0  0
 16 20  2  0  0  0  0
 14 21  1  0  0  0  0
 14 22  2  0  0  0  0
  9 23  1  0  0  0  0
 20 24  1  0  0  0  0
 22 25  1  0  0  0  0
 21 26  2  0  0  0  0
 25 27  2  0  0  0  0
 26 27  1  0  0  0  0
 28 29  1  0  0  0  0
 11 28  1  0  0  0  0
 23 29  1  0  0  0  0
 16 30  1  0  0  0  0
 20 31  1  0  0  0  0
 27 32  1  0  0  0  0
 30 33  2  0  0  0  0
 33 34  1  0  0  0  0
 31 34  2  0  0  0  0
M  END
> <IDNUMBER>
Z250-1375

> <available>
89

> <H_acceptor>
5

> <H_donor>
2

> <B_rotN>
6

> <N_O>
6

> <logP>
4.483

> <logD>
4.4829

> <logSw>
-4.2357

> <PSA>
60.798

> <pKa_ma>
11.0862

> <pKa_mb>
-1.8563

> <N_Chirals>
1

> <Name>
N-[(2-fluorophenyl)methyl]-1-[7-(4-methylphenyl)-4-oxo-3,4-dihydrothieno[3,2-d]pyrimidin-2-yl]piperidine-3-carboxamide

> <Smile>
Cc(cc1)ccc1-c1csc(C(N2)=O)c1N=C2N(CCC1)CC1C(NCc(cccc1)c1F)=O

> <Color>
NOT COLORED

> <Collection>
NC

> <InChI>
InChI=1S/C26H25FN4O2S/c1-16-8-10-17(11-9-16)20-15-34-23-22(20)29-26(30-25(23)33)31-12-4-6-19(14-31)24(32)28-13-18-5-2-3-7-21(18)27/h2-3,5,7-11,15,19H,4,6,12-14H2,1H3,(H,28,32)(H,29,30,33)/t19-/m0/s1

> <InChI Key>
YYOSVYHMUYJCQJ-IBGZPJMESA-N

> <PERCENTSP3>
26.9

> <Link>
https://www.chemdiv.com/catalog/screening-compounds/compound-Z250-1375/

> <MFCDNUMBER>
MFCD18789202

> <CLNUMBER>
CL8892

> <STEREO>
RACEMIC MIXTURE

> <State>
Solid

> <Similarity score>
0.21

$$$$
1-([1]benzofuro[3,2-d]pyrimidin-4-yl)-N-[(2,5-dimethoxyphenyl)methyl]piperidine-
  -OEChem-04222410502D

 33 37  0     0  0  0  0  0  0999 V2000
   -2.2565   -1.2941    0.0000 C   0  0  0  0  0  0  0  0  0  0  0  0
   -1.2840   -1.0866    0.0000 C   0  0  0  0  0  0  0  0  0  0  0  0
   -3.0669   -0.7067    0.0000 O   0  0  0  0  0  0  0  0  0  0  0  0
   -2.5757   -2.2412    0.0000 C   0  0  0  0  0  0  0  0  0  0  0  0
   -0.9649   -0.1391    0.0000 N   0  0  0  0  0  0  0  0  0  0  0  0
   -3.5684   -2.2513    0.0000 C   0  0  0  0  0  0  0  0  0  0  0  0
   -3.8823   -1.2991    0.0000 C   0  0  0  0  0  0  0  0  0  0  0  0
    0.3266    1.0155    0.0000 C   0  0  3  0  0  0  0  0  0  0  0  0
    1.3092    1.2233    0.0000 C   0  0  0  0  0  0  0  0  0  0  0  0
   -0.6155   -1.8310    0.0000 N   0  0  0  0  0  0  0  0  0  0  0  0
    0.0176    0.0684    0.0000 C   0  0  0  0  0  0  0  0  0  0  0  0
    3.2442    1.6588    0.0000 C   0  0  0  0  0  0  0  0  0  0  0  0
   -1.9070   -2.9860    0.0000 N   0  0  0  0  0  0  0  0  0  0  0  0
    1.6182    2.1806    0.0000 N   0  0  0  0  0  0  0  0  0  0  0  0
   -0.9243   -2.7883    0.0000 C   0  0  0  0  0  0  0  0  0  0  0  0
    2.5909    2.3830    0.0000 C   0  0  0  0  0  0  0  0  0  0  0  0
    4.2267    1.8462    0.0000 C   0  0  0  0  0  0  0  0  0  0  0  0
    2.9250    0.7067    0.0000 C   0  0  0  0  0  0  0  0  0  0  0  0
    1.9779    0.4786    0.0000 O   0  0  0  0  0  0  0  0  0  0  0  0
    4.8852    1.1068    0.0000 C   0  0  0  0  0  0  0  0  0  0  0  0
    3.5937   -0.0380    0.0000 C   0  0  0  0  0  0  0  0  0  0  0  0
   -1.6386    0.6053    0.0000 C   0  0  0  0  0  0  0  0  0  0  0  0
    4.5762    0.1597    0.0000 C   0  0  0  0  0  0  0  0  0  0  0  0
   -0.3419    1.7703    0.0000 C   0  0  0  0  0  0  0  0  0  0  0  0
   -4.2370   -2.9860    0.0000 C   0  0  0  0  0  0  0  0  0  0  0  0
    4.5458    2.7985    0.0000 O   0  0  0  0  0  0  0  0  0  0  0  0
    3.2746   -0.9903    0.0000 O   0  0  0  0  0  0  0  0  0  0  0  0
   -4.8550   -1.0866    0.0000 C   0  0  0  0  0  0  0  0  0  0  0  0
   -1.3196    1.5626    0.0000 C   0  0  0  0  0  0  0  0  0  0  0  0
    5.5235    2.9860    0.0000 C   0  0  0  0  0  0  0  0  0  0  0  0
    3.9431   -1.7397    0.0000 C   0  0  0  0  0  0  0  0  0  0  0  0
   -5.2145   -2.7833    0.0000 C   0  0  0  0  0  0  0  0  0  0  0  0
   -5.5235   -1.8310    0.0000 C   0  0  0  0  0  0  0  0  0  0  0  0
  1  2  1  0  0  0  0
  1  3  1  0  0  0  0
  1  4  2  0  0  0  0
  2  5  1  0  0  0  0
  4  6  1  0  0  0  0
  6  7  2  0  0  0  0
  3  7  1  0  0  0  0
  8 11  1  0  0  0  0
  8 24  1  0  0  0  0
  8  9  1  0  0  0  0
  2 10  2  0  0  0  0
 10 15  1  0  0  0  0
  5 11  1  0  0  0  0
 12 16  1  0  0  0  0
  4 13  1  0  0  0  0
  9 14  1  0  0  0  0
 13 15  2  0  0  0  0
 14 16  1  0  0  0  0
 12 17  2  0  0  0  0
 12 18  1  0  0  0  0
  9 19  2  0  0  0  0
 17 20  1  0  0  0  0
 18 21  2  0  0  0  0
  5 22  1  0  0  0  0
 21 23  1  0  0  0  0
 20 23  2  0  0  0  0
 24 29  1  0  0  0  0
  6 25  1  0  0  0  0
 17 26  1  0  0  0  0
 21 27  1  0  0  0  0
  7 28  1  0  0  0  0
 22 29  1  0  0  0  0
 26 30  1  0  0  0  0
 27 31  1  0  0  0  0
 25 32  2  0  0  0  0
 28 33  2  0  0  0  0
 32 33  1  0  0  0  0
M  END
> <IDNUMBER>
L928-0399

> <available>
47

> <H_acceptor>
7

> <H_donor>
1

> <B_rotN>
7

> <N_O>
8

> <logP>
3.8785

> <logD>
3.8681

> <logSw>
-4.0905

> <PSA>
71.859

> <pKa_ma>
12.8587

> <pKa_mb>
5.7848

> <N_Chirals>
1

> <Name>
1-([1]benzofuro[3,2-d]pyrimidin-4-yl)-N-[(2,5-dimethoxyphenyl)methyl]piperidine-3-carboxamide

> <Smile>
COc(cc1)cc(CNC(C(CCC2)CN2c2ncnc3c2oc2c3cccc2)=O)c1OC

> <Color>
ORANGE

> <Collection>
NC

> <InChI>
InChI=1S/C25H26N4O4/c1-31-18-9-10-20(32-2)17(12-18)13-26-25(30)16-6-5-11-29(14-16)24-23-22(27-15-28-24)19-7-3-4-8-21(19)33-23/h3-4,7-10,12,15-16H,5-6,11,13-14H2,1-2H3,(H,26,30)/t16-/m0/s1

> <InChI Key>
BJCSJRDDRAIINV-INIZCTEOSA-N

> <PERCENTSP3>
32

> <Link>
https://www.chemdiv.com/catalog/screening-compounds/compound-L928-0399/

> <MFCDNUMBER>
MFCD20750398

> <CLNUMBER>
CL1503

> <STEREO>
RACEMIC MIXTURE

> <State>
Solid

> <Similarity score>
0.21

$$$$
