
  -OEChem-04222410502D

 18 21  0     0  0  0  0  0  0999 V2000
    3.1042    0.1958    0.0000 C   0  0  0  0  0  0  0  0  0  0  0  0
    1.8042   -0.5542    0.0000 C   0  0  0  0  0  0  0  0  0  0  0  0
    0.5042    0.1958    0.0000 C   0  0  0  0  0  0  0  0  0  0  0  0
    3.1042    1.6958    0.0000 C   0  0  0  0  0  0  0  0  0  0  0  0
   -0.7875   -0.5542    0.0000 C   0  0  0  0  0  0  0  0  0  0  0  0
    5.7042    0.1958    0.0000 N   0  0  0  0  0  0  0  0  0  0  0  0
    4.4042   -0.5542    0.0000 N   0  0  0  0  0  0  0  0  0  0  0  0
   -0.7875   -2.0542    0.0000 C   0  0  0  0  0  0  0  0  0  0  0  0
    1.8042   -2.0542    0.0000 C   0  0  0  0  0  0  0  0  0  0  0  0
    0.5042    1.6958    0.0000 C   0  0  0  0  0  0  0  0  0  0  0  0
   -2.0875    0.1958    0.0000 C   0  0  0  0  0  0  0  0  0  0  0  0
    1.8042    2.4458    0.0000 C   0  0  0  0  0  0  0  0  0  0  0  0
    5.7042    1.6958    0.0000 C   0  0  0  0  0  0  0  0  0  0  0  0
    0.5042   -2.8042    0.0000 C   0  0  0  0  0  0  0  0  0  0  0  0
   -2.0875   -2.8042    0.0000 C   0  0  0  0  0  0  0  0  0  0  0  0
   -3.3875   -2.0542    0.0000 C   0  0  0  0  0  0  0  0  0  0  0  0
   -3.3875   -0.5542    0.0000 C   0  0  0  0  0  0  0  0  0  0  0  0
   -4.6875   -2.8042    0.0000 O   0  0  0  0  0  0  0  0  0  0  0  0
  1  2  1  0  0  0  0
  2  3  2  0  0  0  0
  1  4  2  0  0  0  0
  3  5  1  0  0  0  0
  6  7  1  0  0  0  0
  1  7  1  0  0  0  0
  8 14  1  0  0  0  0
  2  9  1  0  0  0  0
 10 12  1  0  0  0  0
  5 11  1  0  0  0  0
  4 12  1  0  0  0  0
  4 13  1  0  0  0  0
  9 14  2  0  0  0  0
  8 15  1  0  0  0  0
 15 16  2  0  0  0  0
 11 17  2  0  0  0  0
 16 18  1  0  0  0  0
  6 13  2  0  0  0  0
  3 10  1  0  0  0  0
  5  8  2  0  0  0  0
 16 17  1  0  0  0  0
M  END
> <MOLFORMULA>
C15 H12 N2 O

> <MOLWEIGHT>
2.362728000000000e+002

> <IDNUMBER>
AT-225/JK13034

> <PRICE>
EUR 140/10 mg

> <Similarity score>
0.22

$$$$

  -OEChem-04222410502D

 31 35  0     0  0  0  0  0  0999 V2000
    4.3250   -5.4292    0.0000 C   0  0  0  0  0  0  0  0  0  0  0  0
    5.6292   -5.1667    0.0000 C   0  0  0  0  0  0  0  0  0  0  0  0
    3.2542   -4.6500    0.0000 O   0  0  0  0  0  0  0  0  0  0  0  0
    3.9167   -6.6917    0.0000 C   0  0  0  0  0  0  0  0  0  0  0  0
    6.0500   -3.9000    0.0000 N   0  0  3  0  0  0  0  0  0  0  0  0
    2.6000   -6.7042    0.0000 C   0  0  0  0  0  0  0  0  0  0  0  0
    2.1750   -5.4292    0.0000 C   0  0  0  0  0  0  0  0  0  0  0  0
    7.7667   -2.3500    0.0000 C   0  0  3  0  0  0  0  0  0  0  0  0
    9.0792   -2.0792    0.0000 C   0  0  0  0  0  0  0  0  0  0  0  0
    6.5250   -6.1500    0.0000 N   0  0  0  0  0  0  0  0  0  0  0  0
    7.3667   -3.6167    0.0000 C   0  0  0  0  0  0  0  0  0  0  0  0
    4.8000   -7.6750    0.0000 N   0  0  0  0  0  0  0  0  0  0  0  0
   12.9667   -1.2500    0.0000 C   0  0  0  0  0  0  0  0  0  0  0  0
   11.6542   -1.5250    0.0000 C   0  0  0  0  0  0  0  0  0  0  0  0
    9.4792   -0.8042    0.0000 N   0  0  0  0  0  0  0  0  0  0  0  0
   13.8417   -2.2417    0.0000 C   0  0  0  0  0  0  0  0  0  0  0  0
    6.1000   -7.4250    0.0000 C   0  0  0  0  0  0  0  0  0  0  0  0
   10.7917   -0.5417    0.0000 C   0  0  0  0  0  0  0  0  0  0  0  0
    9.9750   -3.0750    0.0000 O   0  0  0  0  0  0  0  0  0  0  0  0
   11.2500   -2.7750    0.0000 C   0  0  0  0  0  0  0  0  0  0  0  0
   13.4250   -3.5000    0.0000 C   0  0  0  0  0  0  0  0  0  0  0  0
   13.3667   -0.0000    0.0000 F   0  0  0  0  0  0  0  0  0  0  0  0
    5.1667   -2.9167    0.0000 C   0  0  0  0  0  0  0  0  0  0  0  0
   12.1292   -3.7917    0.0000 C   0  0  0  0  0  0  0  0  0  0  0  0
   14.3042   -4.5000    0.0000 F   0  0  0  0  0  0  0  0  0  0  0  0
    6.8750   -1.3500    0.0000 C   0  0  0  0  0  0  0  0  0  0  0  0
    1.7000   -7.6750    0.0000 C   0  0  0  0  0  0  0  0  0  0  0  0
    0.8792   -5.1667    0.0000 C   0  0  0  0  0  0  0  0  0  0  0  0
    5.5750   -1.6417    0.0000 C   0  0  0  0  0  0  0  0  0  0  0  0
    0.4000   -7.4042    0.0000 C   0  0  0  0  0  0  0  0  0  0  0  0
    0.0000   -6.1500    0.0000 C   0  0  0  0  0  0  0  0  0  0  0  0
  1  2  2  0  0  0  0
  1  3  1  0  0  0  0
  1  4  1  0  0  0  0
  2  5  1  0  0  0  0
  4  6  1  0  0  0  0
  3  7  1  0  0  0  0
  8 11  1  0  0  0  0
  8  9  1  0  0  0  0
  2 10  1  0  0  0  0
  5 11  1  0  0  0  0
  4 12  2  0  0  0  0
 13 14  2  0  0  0  0
 14 18  1  0  0  0  0
  9 15  1  0  0  0  0
 13 16  1  0  0  0  0
 12 17  1  0  0  0  0
 15 18  1  0  0  0  0
  9 19  2  0  0  0  0
 14 20  1  0  0  0  0
 21 24  1  0  0  0  0
 13 22  1  0  0  0  0
  5 23  1  0  0  0  0
 20 24  2  0  0  0  0
 21 25  1  0  0  0  0
 26 29  1  0  0  0  0
  6 27  1  0  0  0  0
  7 28  1  0  0  0  0
 23 29  1  0  0  0  0
 27 30  2  0  0  0  0
 28 31  2  0  0  0  0
  6  7  2  0  0  0  0
 10 17  2  0  0  0  0
 30 31  1  0  0  0  0
  8 26  1  0  0  0  0
 16 21  2  0  0  0  0
M  END
> <MOLFORMULA>
C23 H20 F2 N4 O2

> <MOLWEIGHT>
4.224330000000000e+002

> <IDNUMBER>
AT-687/PE16777

> <PRICE>
EUR 80/10 mg

> <Similarity score>
0.22

$$$$

  -OEChem-04222410502D

 30 34  0     0  0  0  0  0  0999 V2000
    2.5917   -1.4792    0.0000 C   0  0  0  0  0  0  0  0  0  0  0  0
    3.2417   -1.1042    0.0000 C   0  0  0  0  0  0  0  0  0  0  0  0
    2.5917   -2.2292    0.0000 C   0  0  0  0  0  0  0  0  0  0  0  0
    0.6542   -2.6083    0.0000 C   0  0  0  0  0  0  0  0  0  0  0  0
    3.2417   -0.3542    0.0000 N   0  0  0  0  0  0  0  0  0  0  0  0
    1.9417   -2.6042    0.0000 O   0  0  0  0  0  0  0  0  0  0  0  0
    1.3042   -2.2292    0.0000 C   0  0  0  0  0  0  0  0  0  0  0  0
    1.9417   -1.1042    0.0000 C   0  0  0  0  0  0  0  0  0  0  0  0
    3.8917   -1.4792    0.0000 N   0  0  0  0  0  0  0  0  0  0  0  0
    0.6542   -3.3583    0.0000 C   0  0  0  0  0  0  0  0  0  0  0  0
    0.0042   -3.7333    0.0000 N   0  0  3  0  0  0  0  0  0  0  0  0
    1.3042   -1.4792    0.0000 C   0  0  0  0  0  0  0  0  0  0  0  0
    4.5417   -0.3542    0.0000 C   0  0  0  0  0  0  0  0  0  0  0  0
    4.5417   -1.1042    0.0000 C   0  0  0  0  0  0  0  0  0  0  0  0
    0.0042   -2.2292    0.0000 C   0  0  0  0  0  0  0  0  0  0  0  0
    3.2375   -2.6083    0.0000 O   0  0  0  0  0  0  0  0  0  0  0  0
    0.6542   -1.1083    0.0000 C   0  0  0  0  0  0  0  0  0  0  0  0
    0.0042   -4.4833    0.0000 C   0  0  3  0  0  0  0  0  0  0  0  0
    0.0042   -1.4792    0.0000 C   0  0  0  0  0  0  0  0  0  0  0  0
   -0.6458   -2.6042    0.0000 O   0  0  0  0  0  0  0  0  0  0  0  0
   -0.6458   -3.3583    0.0000 C   0  0  0  0  0  0  0  0  0  0  0  0
    5.1917    0.0208    0.0000 C   0  0  0  0  0  0  0  0  0  0  0  0
    5.1917   -1.4792    0.0000 C   0  0  0  0  0  0  0  0  0  0  0  0
    0.6542   -4.8583    0.0000 C   0  0  0  0  0  0  0  0  0  0  0  0
   -0.6458   -4.8583    0.0000 C   0  0  0  0  0  0  0  0  0  0  0  0
   -1.2958   -3.7333    0.0000 C   0  0  0  0  0  0  0  0  0  0  0  0
    1.3042   -4.4833    0.0000 C   0  0  0  0  0  0  0  0  0  0  0  0
    5.8417   -1.1042    0.0000 C   0  0  0  0  0  0  0  0  0  0  0  0
    5.8417   -0.3542    0.0000 C   0  0  0  0  0  0  0  0  0  0  0  0
   -1.2958   -4.4833    0.0000 C   0  0  0  0  0  0  0  0  0  0  0  0
  1  2  1  0  0  0  0
  1  3  1  0  0  0  0
  4  7  1  0  0  0  0
  2  5  2  0  0  0  0
  3  6  1  0  0  0  0
  7 12  2  0  0  0  0
  1  8  2  0  0  0  0
  2  9  1  0  0  0  0
  4 10  1  0  0  0  0
 10 11  1  0  0  0  0
  8 12  1  0  0  0  0
  5 13  1  0  0  0  0
  9 14  1  0  0  0  0
 15 19  1  0  0  0  0
  3 16  2  0  0  0  0
 12 17  1  0  0  0  0
 11 18  1  0  0  0  0
 17 19  2  0  0  0  0
 15 20  1  0  0  0  0
 11 21  1  0  0  0  0
 13 22  1  0  0  0  0
 14 23  1  0  0  0  0
 18 24  1  0  0  0  0
 18 25  1  0  0  0  0
 21 26  1  0  0  0  0
 24 27  1  0  0  0  0
 23 28  2  0  0  0  0
 22 29  2  0  0  0  0
 26 30  1  0  0  0  0
  6  7  1  0  0  0  0
 13 14  2  0  0  0  0
  4 15  2  0  0  0  0
 28 29  1  0  0  0  0
 25 30  1  0  0  0  0
M  END
> <MOLFORMULA>
C24 H25 N3 O3

> <MOLWEIGHT>
4.034795000000000e+002

> <IDNUMBER>
AT-225/NB52971

> <PRICE>
EUR 140/10 mg

> <Similarity score>
0.21

$$$$

  -OEChem-04222410502D

 34 38  0     0  0  0  0  0  0999 V2000
   -3.3208    2.1875    0.0000 C   0  0  0  0  0  0  0  0  0  0  0  0
   -3.3125    1.3583    0.0000 C   0  0  0  0  0  0  0  0  0  0  0  0
   -1.8833    2.1875    0.0000 C   0  0  0  0  0  0  0  0  0  0  0  0
   -2.6083    2.6083    0.0000 N   0  0  0  0  0  0  0  0  0  0  0  0
   -1.8833    1.3583    0.0000 N   0  0  0  0  0  0  0  0  0  0  0  0
   -2.6000    0.9458    0.0000 C   0  0  0  0  0  0  0  0  0  0  0  0
   -4.1000    2.4333    0.0000 C   0  0  0  0  0  0  0  0  0  0  0  0
   -4.0958    1.1000    0.0000 S   0  0  0  0  0  0  0  0  0  0  0  0
   -1.1708    2.6000    0.0000 N   0  0  3  0  0  0  0  0  0  0  0  0
   -4.5833    1.7708    0.0000 C   0  0  0  0  0  0  0  0  0  0  0  0
    0.2542    2.5958    0.0000 C   0  0  3  0  0  0  0  0  0  0  0  0
    0.9750    2.1750    0.0000 C   0  0  0  0  0  0  0  0  0  0  0  0
   -0.4583    2.1833    0.0000 C   0  0  0  0  0  0  0  0  0  0  0  0
    3.1042    0.9333    0.0000 C   0  0  0  0  0  0  0  0  0  0  0  0
    2.4000    1.3583    0.0000 C   0  0  0  0  0  0  0  0  0  0  0  0
    1.6917    2.5875    0.0000 N   0  0  0  0  0  0  0  0  0  0  0  0
    3.1042    0.1208    0.0000 C   0  0  0  0  0  0  0  0  0  0  0  0
   -4.3625    3.2208    0.0000 C   0  0  0  0  0  0  0  0  0  0  0  0
   -2.6000    0.1208    0.0000 O   0  0  0  0  0  0  0  0  0  0  0  0
    2.4042    2.1708    0.0000 C   0  0  0  0  0  0  0  0  0  0  0  0
    0.9667    1.3500    0.0000 O   0  0  0  0  0  0  0  0  0  0  0  0
    1.6792    0.9583    0.0000 C   0  0  0  0  0  0  0  0  0  0  0  0
    2.3792   -0.2917    0.0000 C   0  0  0  0  0  0  0  0  0  0  0  0
    3.8292    1.3458    0.0000 F   0  0  0  0  0  0  0  0  0  0  0  0
   -1.1708    3.4208    0.0000 C   0  0  0  0  0  0  0  0  0  0  0  0
    1.6667    0.1208    0.0000 C   0  0  0  0  0  0  0  0  0  0  0  0
    2.3750   -1.1167    0.0000 F   0  0  0  0  0  0  0  0  0  0  0  0
    0.2625    3.4208    0.0000 C   0  0  0  0  0  0  0  0  0  0  0  0
   -0.4583    3.8333    0.0000 C   0  0  0  0  0  0  0  0  0  0  0  0
   -3.8083    3.8375    0.0000 C   0  0  0  0  0  0  0  0  0  0  0  0
   -5.1708    3.3958    0.0000 C   0  0  0  0  0  0  0  0  0  0  0  0
   -4.0708    4.6167    0.0000 C   0  0  0  0  0  0  0  0  0  0  0  0
   -5.4333    4.1667    0.0000 C   0  0  0  0  0  0  0  0  0  0  0  0
   -4.8750    4.7792    0.0000 C   0  0  0  0  0  0  0  0  0  0  0  0
  1  2  2  0  0  0  0
  3  4  2  0  0  0  0
  1  4  1  0  0  0  0
  3  5  1  0  0  0  0
  2  6  1  0  0  0  0
  1  7  1  0  0  0  0
  2  8  1  0  0  0  0
  3  9  1  0  0  0  0
  7 10  2  0  0  0  0
 11 13  1  0  0  0  0
 11 12  1  0  0  0  0
  9 13  1  0  0  0  0
 14 15  2  0  0  0  0
 15 20  1  0  0  0  0
 12 16  1  0  0  0  0
 14 17  1  0  0  0  0
  7 18  1  0  0  0  0
  6 19  2  0  0  0  0
 16 20  1  0  0  0  0
 12 21  2  0  0  0  0
 15 22  1  0  0  0  0
 23 26  1  0  0  0  0
 14 24  1  0  0  0  0
  9 25  1  0  0  0  0
 22 26  2  0  0  0  0
 23 27  1  0  0  0  0
 28 29  1  0  0  0  0
 25 29  1  0  0  0  0
 18 30  1  0  0  0  0
 18 31  2  0  0  0  0
 30 32  2  0  0  0  0
 31 33  1  0  0  0  0
 33 34  2  0  0  0  0
  8 10  1  0  0  0  0
  5  6  1  0  0  0  0
 32 34  1  0  0  0  0
 11 28  1  0  0  0  0
 17 23  2  0  0  0  0
M  END
> <MOLFORMULA>
C25 H22 F2 N4 O2 S

> <MOLWEIGHT>
4.805368000000000e+002

> <IDNUMBER>
AT-687/PE25945

> <PRICE>
EUR 80/10 mg

> <Similarity score>
0.21

$$$$

  -OEChem-04222410502D

 35 39  0     0  0  0  0  0  0999 V2000
    7.9792   -5.7667    0.0000 S   0  0  3  0  0  0  0  0  0  0  0  0
    6.6375   -5.7667    0.0000 C   0  0  0  0  0  0  0  0  0  0  0  0
    5.9792   -4.6042    0.0000 C   0  0  0  0  0  0  0  0  0  0  0  0
    4.6542   -4.6042    0.0000 C   0  0  0  0  0  0  0  0  0  0  0  0
    6.6375   -3.4542    0.0000 N   0  0  3  0  0  0  0  0  0  0  0  0
    4.6542   -6.9125    0.0000 N   0  0  0  0  0  0  0  0  0  0  0  0
    3.9667   -5.7667    0.0000 C   0  0  0  0  0  0  0  0  0  0  0  0
    9.3042   -5.7667    0.0000 C   0  0  0  0  0  0  0  0  0  0  0  0
    5.9792   -6.9125    0.0000 C   0  0  0  0  0  0  0  0  0  0  0  0
    7.9792   -4.4375    0.0000 O   0  0  0  0  0  0  0  0  0  0  0  0
    7.9792   -7.0917    0.0000 O   0  0  0  0  0  0  0  0  0  0  0  0
    9.9542   -4.6042    0.0000 C   0  0  0  0  0  0  0  0  0  0  0  0
    2.6542   -1.1542    0.0000 N   0  0  3  0  0  0  0  0  0  0  0  0
    5.9792   -2.3042    0.0000 C   0  0  3  0  0  0  0  0  0  0  0  0
    4.6542   -2.3042    0.0000 C   0  0  0  0  0  0  0  0  0  0  0  0
    2.6542   -5.7667    0.0000 C   0  0  0  0  0  0  0  0  0  0  0  0
    3.9667   -1.1542    0.0000 C   0  0  0  0  0  0  0  0  0  0  0  0
    0.0000   -1.1542    0.0000 O   0  0  0  0  0  0  0  0  0  0  0  0
   11.2917   -4.6042    0.0000 C   0  0  0  0  0  0  0  0  0  0  0  0
    3.9667   -3.4542    0.0000 C   0  0  0  0  0  0  0  0  0  0  0  0
    7.9792   -3.4542    0.0000 C   0  0  0  0  0  0  0  0  0  0  0  0
    1.9917   -6.9125    0.0000 F   0  0  0  0  0  0  0  0  0  0  0  0
   11.9625   -3.4542    0.0000 F   0  0  0  0  0  0  0  0  0  0  0  0
    9.9542   -6.9125    0.0000 C   0  0  0  0  0  0  0  0  0  0  0  0
    1.9917   -2.3042    0.0000 C   0  0  0  0  0  0  0  0  0  0  0  0
    1.9917   -0.0000    0.0000 C   0  0  0  0  0  0  0  0  0  0  0  0
    2.6542   -3.4542    0.0000 C   0  0  0  0  0  0  0  0  0  0  0  0
   11.2917   -6.9125    0.0000 C   0  0  0  0  0  0  0  0  0  0  0  0
    1.9917   -4.6042    0.0000 C   0  0  0  0  0  0  0  0  0  0  0  0
    0.6542   -2.3042    0.0000 C   0  0  0  0  0  0  0  0  0  0  0  0
    0.6542   -0.0000    0.0000 C   0  0  0  0  0  0  0  0  0  0  0  0
    6.6375   -1.1542    0.0000 C   0  0  0  0  0  0  0  0  0  0  0  0
   11.9625   -5.7667    0.0000 C   0  0  0  0  0  0  0  0  0  0  0  0
    8.6375   -2.3042    0.0000 C   0  0  0  0  0  0  0  0  0  0  0  0
    7.9792   -1.1542    0.0000 C   0  0  0  0  0  0  0  0  0  0  0  0
  1  2  1  0  0  0  0
  2  3  2  0  0  0  0
  3  4  1  0  0  0  0
  3  5  1  0  0  0  0
  6  9  2  0  0  0  0
  6  7  1  0  0  0  0
  1  8  1  0  0  0  0
  2  9  1  0  0  0  0
  1 10  2  0  0  0  0
  1 11  2  0  0  0  0
  8 12  1  0  0  0  0
 13 17  1  0  0  0  0
  5 14  1  0  0  0  0
 14 15  1  0  0  0  0
  7 16  2  0  0  0  0
 15 17  1  0  0  0  0
 18 31  1  0  0  0  0
 12 19  2  0  0  0  0
  4 20  2  0  0  0  0
  5 21  1  0  0  0  0
 16 22  1  0  0  0  0
 19 23  1  0  0  0  0
  8 24  2  0  0  0  0
 13 25  1  0  0  0  0
 13 26  1  0  0  0  0
 20 27  1  0  0  0  0
 24 28  1  0  0  0  0
 16 29  1  0  0  0  0
 25 30  1  0  0  0  0
 26 31  1  0  0  0  0
 14 32  1  0  0  0  0
 28 33  2  0  0  0  0
 21 34  1  0  0  0  0
 34 35  1  0  0  0  0
 19 33  1  0  0  0  0
  4  7  1  0  0  0  0
 27 29  2  0  0  0  0
 32 35  1  0  0  0  0
 18 30  1  0  0  0  0
M  END
> <MOLFORMULA>
C26 H29 F2 N3 O3 S

> <MOLWEIGHT>
5.015951000000000e+002

> <IDNUMBER>
AT-687/NB06794

> <PRICE>
EUR 80/10 mg

> <Similarity score>
0.21

$$$$

  -OEChem-04222410502D

 35 39  0     0  0  0  0  0  0999 V2000
   -3.3208    2.1875    0.0000 C   0  0  0  0  0  0  0  0  0  0  0  0
   -3.3125    1.3583    0.0000 C   0  0  0  0  0  0  0  0  0  0  0  0
   -1.8833    2.1875    0.0000 C   0  0  0  0  0  0  0  0  0  0  0  0
   -2.6083    2.6083    0.0000 N   0  0  0  0  0  0  0  0  0  0  0  0
   -1.8833    1.3583    0.0000 N   0  0  0  0  0  0  0  0  0  0  0  0
   -2.6000    0.9458    0.0000 C   0  0  0  0  0  0  0  0  0  0  0  0
   -4.1000    2.4333    0.0000 C   0  0  0  0  0  0  0  0  0  0  0  0
   -4.0958    1.1000    0.0000 S   0  0  0  0  0  0  0  0  0  0  0  0
   -1.1708    2.6000    0.0000 N   0  0  3  0  0  0  0  0  0  0  0  0
   -4.5833    1.7708    0.0000 C   0  0  0  0  0  0  0  0  0  0  0  0
    0.2542    2.5958    0.0000 C   0  0  3  0  0  0  0  0  0  0  0  0
    0.9750    2.1750    0.0000 C   0  0  0  0  0  0  0  0  0  0  0  0
   -0.4583    2.1833    0.0000 C   0  0  0  0  0  0  0  0  0  0  0  0
    3.1042    0.9333    0.0000 C   0  0  0  0  0  0  0  0  0  0  0  0
   -4.3625    3.2208    0.0000 C   0  0  0  0  0  0  0  0  0  0  0  0
    2.4000    1.3583    0.0000 C   0  0  0  0  0  0  0  0  0  0  0  0
    1.6917    2.5875    0.0000 N   0  0  0  0  0  0  0  0  0  0  0  0
    3.1042    0.1208    0.0000 C   0  0  0  0  0  0  0  0  0  0  0  0
   -2.6000    0.1208    0.0000 O   0  0  0  0  0  0  0  0  0  0  0  0
    2.4042    2.1708    0.0000 C   0  0  0  0  0  0  0  0  0  0  0  0
    0.9667    1.3500    0.0000 O   0  0  0  0  0  0  0  0  0  0  0  0
    1.6792    0.9583    0.0000 C   0  0  0  0  0  0  0  0  0  0  0  0
   -3.8083    3.8375    0.0000 C   0  0  0  0  0  0  0  0  0  0  0  0
   -5.1708    3.3958    0.0000 C   0  0  0  0  0  0  0  0  0  0  0  0
    2.3792   -0.2917    0.0000 C   0  0  0  0  0  0  0  0  0  0  0  0
    3.8292    1.3458    0.0000 F   0  0  0  0  0  0  0  0  0  0  0  0
   -1.1708    3.4208    0.0000 C   0  0  0  0  0  0  0  0  0  0  0  0
    1.6667    0.1208    0.0000 C   0  0  0  0  0  0  0  0  0  0  0  0
   -5.4333    4.1667    0.0000 C   0  0  0  0  0  0  0  0  0  0  0  0
   -4.0708    4.6167    0.0000 C   0  0  0  0  0  0  0  0  0  0  0  0
    2.3750   -1.1167    0.0000 F   0  0  0  0  0  0  0  0  0  0  0  0
   -4.8750    4.7792    0.0000 C   0  0  0  0  0  0  0  0  0  0  0  0
    0.2625    3.4208    0.0000 C   0  0  0  0  0  0  0  0  0  0  0  0
   -0.4583    3.8333    0.0000 C   0  0  0  0  0  0  0  0  0  0  0  0
   -5.1333    5.5667    0.0000 C   0  0  0  0  0  0  0  0  0  0  0  0
  1  2  2  0  0  0  0
  3  4  2  0  0  0  0
  1  4  1  0  0  0  0
  3  5  1  0  0  0  0
  2  6  1  0  0  0  0
  1  7  1  0  0  0  0
  2  8  1  0  0  0  0
  3  9  1  0  0  0  0
  7 10  2  0  0  0  0
 11 13  1  0  0  0  0
 11 12  1  0  0  0  0
  9 13  1  0  0  0  0
 14 16  2  0  0  0  0
  7 15  1  0  0  0  0
 16 20  1  0  0  0  0
 12 17  1  0  0  0  0
 14 18  1  0  0  0  0
  6 19  2  0  0  0  0
 17 20  1  0  0  0  0
 12 21  2  0  0  0  0
 16 22  1  0  0  0  0
 15 23  1  0  0  0  0
 15 24  2  0  0  0  0
 25 28  1  0  0  0  0
 14 26  1  0  0  0  0
  9 27  1  0  0  0  0
 22 28  2  0  0  0  0
 24 29  1  0  0  0  0
 23 30  2  0  0  0  0
 25 31  1  0  0  0  0
 29 32  2  0  0  0  0
 33 34  1  0  0  0  0
 27 34  1  0  0  0  0
 32 35  1  0  0  0  0
  8 10  1  0  0  0  0
  5  6  1  0  0  0  0
 30 32  1  0  0  0  0
 11 33  1  0  0  0  0
 18 25  2  0  0  0  0
M  END
> <MOLFORMULA>
C26 H24 F2 N4 O2 S

> <MOLWEIGHT>
4.945636000000000e+002

> <IDNUMBER>
AT-687/PE25985

> <PRICE>
EUR 80/10 mg

> <Similarity score>
0.21

$$$$

  -OEChem-04222410502D

 35 39  0     0  0  0  0  0  0999 V2000
    6.6292   -5.7542    0.0000 C   0  0  0  0  0  0  0  0  0  0  0  0
    5.3042   -5.7542    0.0000 S   0  0  3  0  0  0  0  0  0  0  0  0
    7.2917   -4.6042    0.0000 C   0  0  0  0  0  0  0  0  0  0  0  0
    8.6250   -4.6042    0.0000 C   0  0  0  0  0  0  0  0  0  0  0  0
    6.6292   -3.4500    0.0000 N   0  0  3  0  0  0  0  0  0  0  0  0
    8.6250   -6.9125    0.0000 N   0  0  0  0  0  0  0  0  0  0  0  0
    9.2875   -5.7542    0.0000 C   0  0  0  0  0  0  0  0  0  0  0  0
    7.2917   -6.9125    0.0000 C   0  0  0  0  0  0  0  0  0  0  0  0
    3.9792   -5.7542    0.0000 C   0  0  0  0  0  0  0  0  0  0  0  0
    5.3042   -4.4292    0.0000 O   0  0  0  0  0  0  0  0  0  0  0  0
    5.3042   -7.0792    0.0000 O   0  0  0  0  0  0  0  0  0  0  0  0
   10.6292   -1.1542    0.0000 N   0  0  3  0  0  0  0  0  0  0  0  0
    7.2917   -2.3042    0.0000 C   0  0  3  0  0  0  0  0  0  0  0  0
    8.6250   -2.3042    0.0000 C   0  0  0  0  0  0  0  0  0  0  0  0
   10.6292   -5.7542    0.0000 C   0  0  0  0  0  0  0  0  0  0  0  0
    9.2875   -1.1542    0.0000 C   0  0  0  0  0  0  0  0  0  0  0  0
   13.2667   -1.1542    0.0000 O   0  0  0  0  0  0  0  0  0  0  0  0
    3.3167   -6.9125    0.0000 C   0  0  0  0  0  0  0  0  0  0  0  0
    3.3167   -4.6042    0.0000 C   0  0  0  0  0  0  0  0  0  0  0  0
    9.2875   -3.4500    0.0000 C   0  0  0  0  0  0  0  0  0  0  0  0
    5.3042   -3.4500    0.0000 C   0  0  0  0  0  0  0  0  0  0  0  0
    1.3125   -5.7542    0.0000 C   0  0  0  0  0  0  0  0  0  0  0  0
   11.2917   -6.9125    0.0000 F   0  0  0  0  0  0  0  0  0  0  0  0
    1.9750   -4.6042    0.0000 C   0  0  0  0  0  0  0  0  0  0  0  0
    1.9750   -6.9125    0.0000 C   0  0  0  0  0  0  0  0  0  0  0  0
    0.0000   -5.7542    0.0000 F   0  0  0  0  0  0  0  0  0  0  0  0
   11.2917   -2.3042    0.0000 C   0  0  0  0  0  0  0  0  0  0  0  0
   11.2917   -0.0000    0.0000 C   0  0  0  0  0  0  0  0  0  0  0  0
   10.6292   -3.4500    0.0000 C   0  0  0  0  0  0  0  0  0  0  0  0
   11.2917   -4.6042    0.0000 C   0  0  0  0  0  0  0  0  0  0  0  0
   12.6042   -0.0000    0.0000 C   0  0  0  0  0  0  0  0  0  0  0  0
   12.6042   -2.3042    0.0000 C   0  0  0  0  0  0  0  0  0  0  0  0
    6.6292   -1.1542    0.0000 C   0  0  0  0  0  0  0  0  0  0  0  0
    4.6292   -2.3042    0.0000 C   0  0  0  0  0  0  0  0  0  0  0  0
    5.3042   -1.1542    0.0000 C   0  0  0  0  0  0  0  0  0  0  0  0
  1  2  1  0  0  0  0
  1  3  2  0  0  0  0
  3  4  1  0  0  0  0
  3  5  1  0  0  0  0
  6  8  2  0  0  0  0
  6  7  1  0  0  0  0
  1  8  1  0  0  0  0
  2  9  1  0  0  0  0
  2 10  2  0  0  0  0
  2 11  2  0  0  0  0
 12 16  1  0  0  0  0
  5 13  1  0  0  0  0
 13 14  1  0  0  0  0
  7 15  2  0  0  0  0
 14 16  1  0  0  0  0
 17 31  1  0  0  0  0
  9 18  2  0  0  0  0
  9 19  1  0  0  0  0
  4 20  2  0  0  0  0
  5 21  1  0  0  0  0
 22 24  1  0  0  0  0
 15 23  1  0  0  0  0
 19 24  2  0  0  0  0
 18 25  1  0  0  0  0
 22 26  1  0  0  0  0
 12 27  1  0  0  0  0
 12 28  1  0  0  0  0
 20 29  1  0  0  0  0
 15 30  1  0  0  0  0
 28 31  1  0  0  0  0
 27 32  1  0  0  0  0
 13 33  1  0  0  0  0
 21 34  1  0  0  0  0
 34 35  1  0  0  0  0
  4  7  1  0  0  0  0
 22 25  2  0  0  0  0
 29 30  2  0  0  0  0
 33 35  1  0  0  0  0
 17 32  1  0  0  0  0
M  END
> <MOLFORMULA>
C26 H29 F2 N3 O3 S

> <MOLWEIGHT>
5.015951000000000e+002

> <IDNUMBER>
AT-687/NB06793

> <PRICE>
EUR 80/10 mg

> <Similarity score>
0.21

$$$$

  -OEChem-04222410502D

 30 34  0     0  0  0  0  0  0999 V2000
    0.4917   -0.9458    0.0000 C   0  0  0  0  0  0  0  0  0  0  0  0
   -0.4958   -0.8750    0.0000 N   0  0  0  0  0  0  0  0  0  0  0  0
   -0.0125    2.8750    0.0000 C   0  0  0  0  0  0  0  0  0  0  0  0
    1.0458   -0.1292    0.0000 N   0  0  0  0  0  0  0  0  0  0  0  0
   -0.3667    0.8333    0.0000 C   0  0  0  0  0  0  0  0  0  0  0  0
    0.6167    0.7583    0.0000 C   0  0  0  0  0  0  0  0  0  0  0  0
   -0.9250    0.0125    0.0000 C   0  0  0  0  0  0  0  0  0  0  0  0
    0.9708    2.8042    0.0000 C   0  0  0  0  0  0  0  0  0  0  0  0
   -0.4417    3.7667    0.0000 C   0  0  0  0  0  0  0  0  0  0  0  0
   -0.8000    1.7208    0.0000 C   0  0  0  0  0  0  0  0  0  0  0  0
    0.9208   -1.8375    0.0000 N   0  0  3  0  0  0  0  0  0  0  0  0
    0.1125    4.5792    0.0000 C   0  0  0  0  0  0  0  0  0  0  0  0
    1.5292    3.6208    0.0000 O   0  0  0  0  0  0  0  0  0  0  0  0
    1.1000    4.5042    0.0000 C   0  0  0  0  0  0  0  0  0  0  0  0
    0.3667   -2.6542    0.0000 C   0  0  0  0  0  0  0  0  0  0  0  0
   -1.9083    0.0875    0.0000 N   0  0  0  0  0  0  0  0  0  0  0  0
    0.7958   -3.5458    0.0000 C   0  0  0  0  0  0  0  0  0  0  0  0
    1.1708    1.5750    0.0000 O   0  0  0  0  0  0  0  0  0  0  0  0
    1.4042    1.9125    0.0000 O   0  0  0  0  0  0  0  0  0  0  0  0
    1.9042   -1.9083    0.0000 C   0  0  0  0  0  0  0  0  0  0  0  0
    1.7792   -3.6167    0.0000 C   0  0  0  0  0  0  0  0  0  0  0  0
   -1.4292    3.8375    0.0000 O   0  0  0  0  0  0  0  0  0  0  0  0
    2.3333   -2.8000    0.0000 C   0  0  0  0  0  0  0  0  0  0  0  0
   -1.7833    1.7958    0.0000 C   0  0  0  0  0  0  0  0  0  0  0  0
   -2.3375    0.9750    0.0000 C   0  0  0  0  0  0  0  0  0  0  0  0
    1.6542    5.3250    0.0000 C   0  0  0  0  0  0  0  0  0  0  0  0
    0.2375   -4.3625    0.0000 C   0  0  0  0  0  0  0  0  0  0  0  0
    2.2083   -4.5083    0.0000 C   0  0  0  0  0  0  0  0  0  0  0  0
    0.6667   -5.2500    0.0000 C   0  0  0  0  0  0  0  0  0  0  0  0
    1.6542   -5.3250    0.0000 C   0  0  0  0  0  0  0  0  0  0  0  0
  1  2  2  0  0  0  0
  3 10  1  0  0  0  0
  1  4  1  0  0  0  0
  5  6  1  0  0  0  0
  4  6  1  0  0  0  0
  2  7  1  0  0  0  0
  3  8  1  0  0  0  0
  3  9  2  0  0  0  0
  5 10  1  0  0  0  0
  1 11  1  0  0  0  0
  9 12  1  0  0  0  0
  8 13  1  0  0  0  0
 12 14  2  0  0  0  0
 11 15  1  0  0  0  0
  7 16  1  0  0  0  0
 15 17  1  0  0  0  0
  6 18  2  0  0  0  0
  8 19  2  0  0  0  0
 11 20  1  0  0  0  0
 21 23  1  0  0  0  0
  9 22  1  0  0  0  0
 20 23  1  0  0  0  0
 10 24  2  0  0  0  0
 16 25  2  0  0  0  0
 14 26  1  0  0  0  0
 17 27  1  0  0  0  0
 21 28  1  0  0  0  0
 27 29  2  0  0  0  0
 28 30  2  0  0  0  0
  5  7  2  0  0  0  0
 17 21  2  0  0  0  0
 24 25  1  0  0  0  0
 29 30  1  0  0  0  0
 13 14  1  0  0  0  0
M  END
> <MOLFORMULA>
C22 H18 N4 O4

> <MOLWEIGHT>
4.024082000000000e+002

> <IDNUMBER>
AN-153/NB20268

> <PRICE>
EUR 130/10 mg

> <Similarity score>
0.21

$$$$

  -OEChem-04222410502D

 34 38  0     0  0  0  0  0  0999 V2000
   -3.3208    2.1875    0.0000 C   0  0  0  0  0  0  0  0  0  0  0  0
   -3.3125    1.3583    0.0000 C   0  0  0  0  0  0  0  0  0  0  0  0
   -1.8833    2.1875    0.0000 C   0  0  0  0  0  0  0  0  0  0  0  0
   -2.6083    2.6083    0.0000 N   0  0  0  0  0  0  0  0  0  0  0  0
   -1.8833    1.3583    0.0000 N   0  0  0  0  0  0  0  0  0  0  0  0
   -2.6000    0.9458    0.0000 C   0  0  0  0  0  0  0  0  0  0  0  0
   -4.1000    2.4333    0.0000 C   0  0  0  0  0  0  0  0  0  0  0  0
   -4.0958    1.1000    0.0000 S   0  0  0  0  0  0  0  0  0  0  0  0
   -1.1708    2.6000    0.0000 N   0  0  3  0  0  0  0  0  0  0  0  0
   -4.5833    1.7708    0.0000 C   0  0  0  0  0  0  0  0  0  0  0  0
    0.2542    2.5958    0.0000 C   0  0  3  0  0  0  0  0  0  0  0  0
    0.9750    2.1750    0.0000 C   0  0  0  0  0  0  0  0  0  0  0  0
   -0.4583    2.1833    0.0000 C   0  0  0  0  0  0  0  0  0  0  0  0
   -4.3625    3.2208    0.0000 C   0  0  0  0  0  0  0  0  0  0  0  0
    1.6917    2.5875    0.0000 N   0  0  0  0  0  0  0  0  0  0  0  0
    2.4000    1.3583    0.0000 C   0  0  0  0  0  0  0  0  0  0  0  0
   -2.6000    0.1208    0.0000 O   0  0  0  0  0  0  0  0  0  0  0  0
    2.4042    2.1708    0.0000 C   0  0  0  0  0  0  0  0  0  0  0  0
    0.9667    1.3500    0.0000 O   0  0  0  0  0  0  0  0  0  0  0  0
    3.1042    0.9333    0.0000 C   0  0  0  0  0  0  0  0  0  0  0  0
   -3.8083    3.8375    0.0000 C   0  0  0  0  0  0  0  0  0  0  0  0
   -5.1708    3.3958    0.0000 C   0  0  0  0  0  0  0  0  0  0  0  0
   -1.1708    3.4208    0.0000 C   0  0  0  0  0  0  0  0  0  0  0  0
    3.8292    1.3458    0.0000 F   0  0  0  0  0  0  0  0  0  0  0  0
   -5.4333    4.1667    0.0000 C   0  0  0  0  0  0  0  0  0  0  0  0
   -4.0708    4.6167    0.0000 C   0  0  0  0  0  0  0  0  0  0  0  0
   -4.8750    4.7792    0.0000 C   0  0  0  0  0  0  0  0  0  0  0  0
    0.2625    3.4208    0.0000 C   0  0  0  0  0  0  0  0  0  0  0  0
   -0.4583    3.8333    0.0000 C   0  0  0  0  0  0  0  0  0  0  0  0
    1.6792    0.9583    0.0000 C   0  0  0  0  0  0  0  0  0  0  0  0
    3.1042    0.1125    0.0000 C   0  0  0  0  0  0  0  0  0  0  0  0
   -5.1333    5.5667    0.0000 C   0  0  0  0  0  0  0  0  0  0  0  0
    1.6667    0.1208    0.0000 C   0  0  0  0  0  0  0  0  0  0  0  0
    2.3917   -0.3000    0.0000 C   0  0  0  0  0  0  0  0  0  0  0  0
  1  2  2  0  0  0  0
  3  4  2  0  0  0  0
  1  4  1  0  0  0  0
  3  5  1  0  0  0  0
  2  6  1  0  0  0  0
  1  7  1  0  0  0  0
  2  8  1  0  0  0  0
  3  9  1  0  0  0  0
  7 10  2  0  0  0  0
 11 13  1  0  0  0  0
 11 12  1  0  0  0  0
  9 13  1  0  0  0  0
  7 14  1  0  0  0  0
 12 15  1  0  0  0  0
 16 18  1  0  0  0  0
  6 17  2  0  0  0  0
 15 18  1  0  0  0  0
 12 19  2  0  0  0  0
 16 20  2  0  0  0  0
 14 21  1  0  0  0  0
 14 22  2  0  0  0  0
  9 23  1  0  0  0  0
 20 24  1  0  0  0  0
 22 25  1  0  0  0  0
 21 26  2  0  0  0  0
 25 27  2  0  0  0  0
 28 29  1  0  0  0  0
 23 29  1  0  0  0  0
 16 30  1  0  0  0  0
 20 31  1  0  0  0  0
 27 32  1  0  0  0  0
 30 33  2  0  0  0  0
 33 34  1  0  0  0  0
  8 10  1  0  0  0  0
  5  6  1  0  0  0  0
 26 27  1  0  0  0  0
 11 28  1  0  0  0  0
 31 34  2  0  0  0  0
M  END
> <MOLFORMULA>
C26 H25 F N4 O2 S

> <MOLWEIGHT>
4.765735000000000e+002

> <IDNUMBER>
AT-687/PE25983

> <PRICE>
EUR 80/10 mg

> <Similarity score>
0.21

$$$$

  -OEChem-04222410502D

 33 37  0     0  0  0  0  0  0999 V2000
    4.3417   -5.6750    0.0000 C   0  0  0  0  0  0  0  0  0  0  0  0
    5.6417   -5.4000    0.0000 C   0  0  0  0  0  0  0  0  0  0  0  0
    3.2500   -4.9000    0.0000 O   0  0  0  0  0  0  0  0  0  0  0  0
    3.9167   -6.9417    0.0000 C   0  0  0  0  0  0  0  0  0  0  0  0
    6.0667   -4.1417    0.0000 N   0  0  3  0  0  0  0  0  0  0  0  0
    2.6000   -6.9542    0.0000 C   0  0  0  0  0  0  0  0  0  0  0  0
    2.1792   -5.6750    0.0000 C   0  0  0  0  0  0  0  0  0  0  0  0
    7.7750   -2.6042    0.0000 C   0  0  3  0  0  0  0  0  0  0  0  0
    9.0917   -2.3250    0.0000 C   0  0  0  0  0  0  0  0  0  0  0  0
    6.5167   -6.3792    0.0000 N   0  0  0  0  0  0  0  0  0  0  0  0
    7.3750   -3.8750    0.0000 C   0  0  0  0  0  0  0  0  0  0  0  0
   11.6542   -1.7417    0.0000 C   0  0  0  0  0  0  0  0  0  0  0  0
    4.8000   -7.9250    0.0000 N   0  0  0  0  0  0  0  0  0  0  0  0
    9.4917   -1.0500    0.0000 N   0  0  0  0  0  0  0  0  0  0  0  0
    6.1000   -7.6667    0.0000 C   0  0  0  0  0  0  0  0  0  0  0  0
   10.7917   -0.7917    0.0000 C   0  0  0  0  0  0  0  0  0  0  0  0
   12.9667   -1.5042    0.0000 C   0  0  0  0  0  0  0  0  0  0  0  0
   11.2292   -3.0250    0.0000 C   0  0  0  0  0  0  0  0  0  0  0  0
    9.9750   -3.3167    0.0000 O   0  0  0  0  0  0  0  0  0  0  0  0
   13.8292   -2.4917    0.0000 C   0  0  0  0  0  0  0  0  0  0  0  0
   12.1167   -4.0000    0.0000 C   0  0  0  0  0  0  0  0  0  0  0  0
    5.1667   -3.1500    0.0000 C   0  0  0  0  0  0  0  0  0  0  0  0
   13.4250   -3.7417    0.0000 C   0  0  0  0  0  0  0  0  0  0  0  0
    6.8792   -1.6000    0.0000 C   0  0  0  0  0  0  0  0  0  0  0  0
    1.7000   -7.9250    0.0000 C   0  0  0  0  0  0  0  0  0  0  0  0
   13.4000   -0.2167    0.0000 O   0  0  0  0  0  0  0  0  0  0  0  0
   11.6917   -5.2667    0.0000 O   0  0  0  0  0  0  0  0  0  0  0  0
    0.8917   -5.4000    0.0000 C   0  0  0  0  0  0  0  0  0  0  0  0
    5.5917   -1.8750    0.0000 C   0  0  0  0  0  0  0  0  0  0  0  0
   14.6917   -0.0000    0.0000 C   0  0  0  0  0  0  0  0  0  0  0  0
   12.5917   -6.2667    0.0000 C   0  0  0  0  0  0  0  0  0  0  0  0
    0.4000   -7.6667    0.0000 C   0  0  0  0  0  0  0  0  0  0  0  0
    0.0000   -6.3792    0.0000 C   0  0  0  0  0  0  0  0  0  0  0  0
  1  2  2  0  0  0  0
  1  3  1  0  0  0  0
  1  4  1  0  0  0  0
  2  5  1  0  0  0  0
  4  6  1  0  0  0  0
  3  7  1  0  0  0  0
  8 11  1  0  0  0  0
  8  9  1  0  0  0  0
  2 10  1  0  0  0  0
  5 11  1  0  0  0  0
 12 16  1  0  0  0  0
  4 13  2  0  0  0  0
  9 14  1  0  0  0  0
 13 15  1  0  0  0  0
 14 16  1  0  0  0  0
 12 17  2  0  0  0  0
 12 18  1  0  0  0  0
  9 19  2  0  0  0  0
 17 20  1  0  0  0  0
 18 21  2  0  0  0  0
  5 22  1  0  0  0  0
 21 23  1  0  0  0  0
 24 29  1  0  0  0  0
  6 25  1  0  0  0  0
 17 26  1  0  0  0  0
 21 27  1  0  0  0  0
  7 28  1  0  0  0  0
 22 29  1  0  0  0  0
 26 30  1  0  0  0  0
 27 31  1  0  0  0  0
 25 32  2  0  0  0  0
 28 33  2  0  0  0  0
  6  7  2  0  0  0  0
 10 15  2  0  0  0  0
 32 33  1  0  0  0  0
  8 24  1  0  0  0  0
 20 23  2  0  0  0  0
M  END
> <MOLFORMULA>
C25 H26 N4 O4

> <MOLWEIGHT>
4.465044000000000e+002

> <IDNUMBER>
AT-687/PE16774

> <PRICE>
EUR 80/10 mg

> <Similarity score>
0.21

$$$$

  -OEChem-04222410502D

 29 33  0     0  0  0  0  0  0999 V2000
    3.3667   -1.3375    0.0000 C   0  0  0  0  0  0  0  0  0  0  0  0
    2.7333   -0.9667    0.0000 C   0  0  0  0  0  0  0  0  0  0  0  0
    3.3667   -2.0750    0.0000 C   0  0  0  0  0  0  0  0  0  0  0  0
    5.2792   -2.4417    0.0000 C   0  0  0  0  0  0  0  0  0  0  0  0
    2.7333   -0.2375    0.0000 N   0  0  0  0  0  0  0  0  0  0  0  0
    4.0042   -2.4417    0.0000 O   0  0  0  0  0  0  0  0  0  0  0  0
    4.6458   -2.0750    0.0000 C   0  0  0  0  0  0  0  0  0  0  0  0
    4.0042   -0.9625    0.0000 C   0  0  0  0  0  0  0  0  0  0  0  0
    2.1000   -1.3375    0.0000 N   0  0  0  0  0  0  0  0  0  0  0  0
    5.2792   -3.1750    0.0000 C   0  0  0  0  0  0  0  0  0  0  0  0
    4.6458   -3.5375    0.0000 N   0  0  3  0  0  0  0  0  0  0  0  0
    4.6458   -1.3375    0.0000 C   0  0  0  0  0  0  0  0  0  0  0  0
    1.4625   -0.2375    0.0000 C   0  0  0  0  0  0  0  0  0  0  0  0
    1.4667   -0.9708    0.0000 C   0  0  0  0  0  0  0  0  0  0  0  0
    5.9208   -2.0750    0.0000 C   0  0  0  0  0  0  0  0  0  0  0  0
    2.7208   -2.4500    0.0000 O   0  0  0  0  0  0  0  0  0  0  0  0
    5.2792   -0.9625    0.0000 C   0  0  0  0  0  0  0  0  0  0  0  0
    4.6458   -4.2708    0.0000 C   0  0  3  0  0  0  0  0  0  0  0  0
    5.9208   -1.3375    0.0000 C   0  0  0  0  0  0  0  0  0  0  0  0
    6.5542   -2.4417    0.0000 O   0  0  0  0  0  0  0  0  0  0  0  0
    4.0125   -3.1708    0.0000 C   0  0  0  0  0  0  0  0  0  0  0  0
    0.8250    0.1250    0.0000 C   0  0  0  0  0  0  0  0  0  0  0  0
    0.8292   -1.3375    0.0000 C   0  0  0  0  0  0  0  0  0  0  0  0
    5.2917   -4.6500    0.0000 C   0  0  0  0  0  0  0  0  0  0  0  0
    4.0083   -4.6375    0.0000 C   0  0  0  0  0  0  0  0  0  0  0  0
    3.3792   -3.5333    0.0000 C   0  0  0  0  0  0  0  0  0  0  0  0
    0.1917   -0.9708    0.0000 C   0  0  0  0  0  0  0  0  0  0  0  0
    0.1875   -0.2417    0.0000 C   0  0  0  0  0  0  0  0  0  0  0  0
    3.3750   -4.2667    0.0000 C   0  0  0  0  0  0  0  0  0  0  0  0
  1  2  1  0  0  0  0
  1  3  1  0  0  0  0
  4  7  1  0  0  0  0
  2  5  2  0  0  0  0
  3  6  1  0  0  0  0
  7 12  2  0  0  0  0
  1  8  2  0  0  0  0
  2  9  1  0  0  0  0
  4 10  1  0  0  0  0
 10 11  1  0  0  0  0
  8 12  1  0  0  0  0
  5 13  1  0  0  0  0
  9 14  1  0  0  0  0
  4 15  2  0  0  0  0
  3 16  2  0  0  0  0
 12 17  1  0  0  0  0
 11 18  1  0  0  0  0
 17 19  2  0  0  0  0
 15 20  1  0  0  0  0
 11 21  1  0  0  0  0
 13 22  1  0  0  0  0
 14 23  1  0  0  0  0
 18 24  1  0  0  0  0
 18 25  1  0  0  0  0
 21 26  1  0  0  0  0
 23 27  2  0  0  0  0
 22 28  2  0  0  0  0
 26 29  1  0  0  0  0
  6  7  1  0  0  0  0
 13 14  2  0  0  0  0
 15 19  1  0  0  0  0
 27 28  1  0  0  0  0
 25 29  1  0  0  0  0
M  END
> <MOLFORMULA>
C23 H23 N3 O3

> <MOLWEIGHT>
3.894527000000000e+002

> <IDNUMBER>
AT-225/NB53225

> <PRICE>
EUR 140/10 mg

> <Similarity score>
0.21

$$$$

  -OEChem-04222410502D

 32 36  0     0  0  0  0  0  0999 V2000
    6.7792   -7.6417    0.0000 C   0  0  0  0  0  0  0  0  0  0  0  0
    6.0625   -8.0542    0.0000 N   0  0  3  0  0  0  0  0  0  0  0  0
    6.7792   -6.8125    0.0000 N   0  0  0  0  0  0  0  0  0  0  0  0
    7.3917   -8.1917    0.0000 C   0  0  0  0  0  0  0  0  0  0  0  0
    6.0625   -6.3917    0.0000 C   0  0  0  0  0  0  0  0  0  0  0  0
    6.2292   -8.8625    0.0000 N   0  0  0  0  0  0  0  0  0  0  0  0
    5.3500   -6.8125    0.0000 C   0  0  0  0  0  0  0  0  0  0  0  0
    7.0542   -8.9542    0.0000 N   0  0  0  0  0  0  0  0  0  0  0  0
    5.3417   -7.6375    0.0000 C   0  0  0  0  0  0  0  0  0  0  0  0
    6.0625   -5.5667    0.0000 N   0  0  3  0  0  0  0  0  0  0  0  0
    6.7792   -4.3375    0.0000 C   0  0  3  0  0  0  0  0  0  0  0  0
    8.1917   -8.0292    0.0000 C   0  0  0  0  0  0  0  0  0  0  0  0
    6.7792   -5.1542    0.0000 C   0  0  0  0  0  0  0  0  0  0  0  0
    7.5042   -3.9292    0.0000 C   0  0  0  0  0  0  0  0  0  0  0  0
    4.6292   -6.4000    0.0000 C   0  0  0  0  0  0  0  0  0  0  0  0
    4.6292   -8.0542    0.0000 C   0  0  0  0  0  0  0  0  0  0  0  0
    8.7417   -8.6417    0.0000 C   0  0  0  0  0  0  0  0  0  0  0  0
    7.5042   -3.1042    0.0000 O   0  0  0  0  0  0  0  0  0  0  0  0
    3.9167   -6.8125    0.0000 C   0  0  0  0  0  0  0  0  0  0  0  0
    5.3542   -5.1625    0.0000 C   0  0  0  0  0  0  0  0  0  0  0  0
    3.9167   -7.6417    0.0000 C   0  0  0  0  0  0  0  0  0  0  0  0
    9.5542   -8.4792    0.0000 C   0  0  0  0  0  0  0  0  0  0  0  0
    8.2167   -4.3417    0.0000 O   0  0  0  0  0  0  0  0  0  0  0  0
    3.2042   -6.4000    0.0000 Cl  0  0  0  0  0  0  0  0  0  0  0  0
   10.1000   -9.0917    0.0000 F   0  0  0  0  0  0  0  0  0  0  0  0
    6.0667   -3.9167    0.0000 C   0  0  0  0  0  0  0  0  0  0  0  0
    8.4500   -7.2500    0.0000 C   0  0  0  0  0  0  0  0  0  0  0  0
    5.3542   -4.3292    0.0000 C   0  0  0  0  0  0  0  0  0  0  0  0
    9.2542   -7.0792    0.0000 C   0  0  0  0  0  0  0  0  0  0  0  0
    9.8125   -7.6917    0.0000 C   0  0  0  0  0  0  0  0  0  0  0  0
    8.2125   -5.1667    0.0000 C   0  0  0  0  0  0  0  0  0  0  0  0
    8.9250   -5.5792    0.0000 C   0  0  0  0  0  0  0  0  0  0  0  0
  1  2  1  0  0  0  0
  1  3  1  0  0  0  0
  1  4  2  0  0  0  0
  3  5  2  0  0  0  0
  2  6  1  0  0  0  0
  5  7  1  0  0  0  0
  4  8  1  0  0  0  0
  2  9  1  0  0  0  0
  5 10  1  0  0  0  0
 11 13  1  0  0  0  0
  4 12  1  0  0  0  0
 10 13  1  0  0  0  0
 11 14  1  0  0  0  0
  7 15  2  0  0  0  0
  9 16  2  0  0  0  0
 12 17  2  0  0  0  0
 14 18  2  0  0  0  0
 15 19  1  0  0  0  0
 10 20  1  0  0  0  0
 16 21  1  0  0  0  0
 17 22  1  0  0  0  0
 14 23  1  0  0  0  0
 19 24  1  0  0  0  0
 22 25  1  0  0  0  0
 26 28  1  0  0  0  0
 12 27  1  0  0  0  0
 20 28  1  0  0  0  0
 27 29  2  0  0  0  0
 29 30  1  0  0  0  0
 23 31  1  0  0  0  0
 31 32  1  0  0  0  0
  6  8  2  0  0  0  0
  7  9  1  0  0  0  0
 19 21  2  0  0  0  0
 22 30  2  0  0  0  0
 11 26  1  0  0  0  0
M  END
> <MOLFORMULA>
C23 H21 Cl F N5 O2

> <MOLWEIGHT>
4.539029000000000e+002

> <IDNUMBER>
AT-687/PE10280

> <PRICE>
EUR 80/10 mg

> <Similarity score>
0.21

$$$$

  -OEChem-04222410502D

 31 35  0     0  0  0  0  0  0999 V2000
    4.3250   -5.4292    0.0000 C   0  0  0  0  0  0  0  0  0  0  0  0
    5.6292   -5.1667    0.0000 C   0  0  0  0  0  0  0  0  0  0  0  0
    3.2542   -4.6500    0.0000 O   0  0  0  0  0  0  0  0  0  0  0  0
    3.9167   -6.6917    0.0000 C   0  0  0  0  0  0  0  0  0  0  0  0
    6.0500   -3.9000    0.0000 N   0  0  3  0  0  0  0  0  0  0  0  0
    2.6000   -6.7042    0.0000 C   0  0  0  0  0  0  0  0  0  0  0  0
    2.1750   -5.4292    0.0000 C   0  0  0  0  0  0  0  0  0  0  0  0
    7.7667   -2.3500    0.0000 C   0  0  3  0  0  0  0  0  0  0  0  0
    9.0792   -2.0792    0.0000 C   0  0  0  0  0  0  0  0  0  0  0  0
    6.5250   -6.1500    0.0000 N   0  0  0  0  0  0  0  0  0  0  0  0
    7.3667   -3.6167    0.0000 C   0  0  0  0  0  0  0  0  0  0  0  0
    4.8000   -7.6750    0.0000 N   0  0  0  0  0  0  0  0  0  0  0  0
   12.9667   -1.2500    0.0000 C   0  0  0  0  0  0  0  0  0  0  0  0
   11.6542   -1.5250    0.0000 C   0  0  0  0  0  0  0  0  0  0  0  0
    9.4792   -0.8042    0.0000 N   0  0  0  0  0  0  0  0  0  0  0  0
   13.8417   -2.2417    0.0000 C   0  0  0  0  0  0  0  0  0  0  0  0
    6.1000   -7.4250    0.0000 C   0  0  0  0  0  0  0  0  0  0  0  0
   10.7917   -0.5417    0.0000 C   0  0  0  0  0  0  0  0  0  0  0  0
    9.9750   -3.0750    0.0000 O   0  0  0  0  0  0  0  0  0  0  0  0
   11.2500   -2.7750    0.0000 C   0  0  0  0  0  0  0  0  0  0  0  0
   13.4250   -3.5000    0.0000 C   0  0  0  0  0  0  0  0  0  0  0  0
   13.3667   -0.0000    0.0000 Cl  0  0  0  0  0  0  0  0  0  0  0  0
    5.1667   -2.9167    0.0000 C   0  0  0  0  0  0  0  0  0  0  0  0
   12.1292   -3.7917    0.0000 C   0  0  0  0  0  0  0  0  0  0  0  0
   14.3042   -4.5000    0.0000 F   0  0  0  0  0  0  0  0  0  0  0  0
    6.8750   -1.3500    0.0000 C   0  0  0  0  0  0  0  0  0  0  0  0
    1.7000   -7.6750    0.0000 C   0  0  0  0  0  0  0  0  0  0  0  0
    0.8792   -5.1667    0.0000 C   0  0  0  0  0  0  0  0  0  0  0  0
    5.5750   -1.6417    0.0000 C   0  0  0  0  0  0  0  0  0  0  0  0
    0.4000   -7.4042    0.0000 C   0  0  0  0  0  0  0  0  0  0  0  0
    0.0000   -6.1500    0.0000 C   0  0  0  0  0  0  0  0  0  0  0  0
  1  2  2  0  0  0  0
  1  3  1  0  0  0  0
  1  4  1  0  0  0  0
  2  5  1  0  0  0  0
  4  6  1  0  0  0  0
  3  7  1  0  0  0  0
  8 11  1  0  0  0  0
  8  9  1  0  0  0  0
  2 10  1  0  0  0  0
  5 11  1  0  0  0  0
  4 12  2  0  0  0  0
 13 14  2  0  0  0  0
 14 18  1  0  0  0  0
  9 15  1  0  0  0  0
 13 16  1  0  0  0  0
 12 17  1  0  0  0  0
 15 18  1  0  0  0  0
  9 19  2  0  0  0  0
 14 20  1  0  0  0  0
 21 24  1  0  0  0  0
 13 22  1  0  0  0  0
  5 23  1  0  0  0  0
 20 24  2  0  0  0  0
 21 25  1  0  0  0  0
 26 29  1  0  0  0  0
  6 27  1  0  0  0  0
  7 28  1  0  0  0  0
 23 29  1  0  0  0  0
 27 30  2  0  0  0  0
 28 31  2  0  0  0  0
  6  7  2  0  0  0  0
 10 17  2  0  0  0  0
 30 31  1  0  0  0  0
  8 26  1  0  0  0  0
 16 21  2  0  0  0  0
M  END
> <MOLFORMULA>
C23 H20 Cl F N4 O2

> <MOLWEIGHT>
4.388880000000000e+002

> <IDNUMBER>
AT-687/PE16778

> <PRICE>
EUR 80/10 mg

> <Similarity score>
0.20

$$$$

  -OEChem-04222410502D

 31 35  0     0  0  0  0  0  0999 V2000
    4.3417   -4.8917    0.0000 C   0  0  0  0  0  0  0  0  0  0  0  0
    5.6250   -4.6000    0.0000 C   0  0  0  0  0  0  0  0  0  0  0  0
    3.2667   -4.1000    0.0000 O   0  0  0  0  0  0  0  0  0  0  0  0
    3.9167   -6.1500    0.0000 C   0  0  0  0  0  0  0  0  0  0  0  0
    6.0500   -3.3417    0.0000 N   0  0  3  0  0  0  0  0  0  0  0  0
    2.6000   -6.1667    0.0000 C   0  0  0  0  0  0  0  0  0  0  0  0
    2.1750   -4.8917    0.0000 C   0  0  0  0  0  0  0  0  0  0  0  0
    7.7667   -1.8167    0.0000 C   0  0  3  0  0  0  0  0  0  0  0  0
    9.0917   -1.5417    0.0000 C   0  0  0  0  0  0  0  0  0  0  0  0
    6.5250   -5.6000    0.0000 N   0  0  0  0  0  0  0  0  0  0  0  0
    7.3542   -3.0750    0.0000 C   0  0  0  0  0  0  0  0  0  0  0  0
    4.8000   -7.1250    0.0000 N   0  0  0  0  0  0  0  0  0  0  0  0
    9.5000   -0.2667    0.0000 N   0  0  0  0  0  0  0  0  0  0  0  0
   13.8250   -1.6917    0.0000 C   0  0  0  0  0  0  0  0  0  0  0  0
    6.1167   -6.8750    0.0000 C   0  0  0  0  0  0  0  0  0  0  0  0
   13.4292   -2.9500    0.0000 C   0  0  0  0  0  0  0  0  0  0  0  0
    9.9667   -2.5250    0.0000 O   0  0  0  0  0  0  0  0  0  0  0  0
   12.9667   -0.7000    0.0000 C   0  0  0  0  0  0  0  0  0  0  0  0
   12.1292   -3.2417    0.0000 C   0  0  0  0  0  0  0  0  0  0  0  0
   11.6667   -0.9667    0.0000 C   0  0  0  0  0  0  0  0  0  0  0  0
   10.7792   -0.0000    0.0000 C   0  0  0  0  0  0  0  0  0  0  0  0
   15.1500   -1.3917    0.0000 Cl  0  0  0  0  0  0  0  0  0  0  0  0
    5.1667   -2.3542    0.0000 C   0  0  0  0  0  0  0  0  0  0  0  0
   14.3167   -3.9500    0.0000 F   0  0  0  0  0  0  0  0  0  0  0  0
   11.2500   -2.2250    0.0000 C   0  0  0  0  0  0  0  0  0  0  0  0
    6.8917   -0.8167    0.0000 C   0  0  0  0  0  0  0  0  0  0  0  0
    1.7000   -7.1250    0.0000 C   0  0  0  0  0  0  0  0  0  0  0  0
    0.8917   -4.6000    0.0000 C   0  0  0  0  0  0  0  0  0  0  0  0
    5.5917   -1.0792    0.0000 C   0  0  0  0  0  0  0  0  0  0  0  0
    0.4000   -6.8542    0.0000 C   0  0  0  0  0  0  0  0  0  0  0  0
    0.0000   -5.6000    0.0000 C   0  0  0  0  0  0  0  0  0  0  0  0
  1  2  2  0  0  0  0
  1  3  1  0  0  0  0
  1  4  1  0  0  0  0
  2  5  1  0  0  0  0
  4  6  1  0  0  0  0
  3  7  1  0  0  0  0
  8 11  1  0  0  0  0
  8  9  1  0  0  0  0
  2 10  1  0  0  0  0
  5 11  1  0  0  0  0
  4 12  2  0  0  0  0
  9 13  1  0  0  0  0
 14 18  1  0  0  0  0
 12 15  1  0  0  0  0
 16 19  1  0  0  0  0
  9 17  2  0  0  0  0
 18 20  2  0  0  0  0
 19 25  2  0  0  0  0
 20 21  1  0  0  0  0
 13 21  1  0  0  0  0
 14 22  1  0  0  0  0
  5 23  1  0  0  0  0
 16 24  1  0  0  0  0
 20 25  1  0  0  0  0
 26 29  1  0  0  0  0
  6 27  1  0  0  0  0
  7 28  1  0  0  0  0
 23 29  1  0  0  0  0
 27 30  2  0  0  0  0
 28 31  2  0  0  0  0
  6  7  2  0  0  0  0
 10 15  2  0  0  0  0
 30 31  1  0  0  0  0
  8 26  1  0  0  0  0
 14 16  2  0  0  0  0
M  END
> <MOLFORMULA>
C23 H20 Cl F N4 O2

> <MOLWEIGHT>
4.388880000000000e+002

> <IDNUMBER>
AT-687/PE16779

> <PRICE>
EUR 80/10 mg

> <Similarity score>
0.20

$$$$

  -OEChem-04222410502D

 32 36  0     0  0  0  0  0  0999 V2000
   -1.8958    0.9458    0.0000 C   0  0  0  0  0  0  0  0  0  0  0  0
   -1.0958    1.1125    0.0000 C   0  0  0  0  0  0  0  0  0  0  0  0
   -2.5625    1.4333    0.0000 O   0  0  0  0  0  0  0  0  0  0  0  0
   -2.1583    0.1625    0.0000 C   0  0  0  0  0  0  0  0  0  0  0  0
   -0.8333    1.8958    0.0000 N   0  0  3  0  0  0  0  0  0  0  0  0
   -2.9750    0.1583    0.0000 C   0  0  0  0  0  0  0  0  0  0  0  0
    1.0375    3.0208    0.0000 C   0  0  0  0  0  0  0  0  0  0  0  0
   -3.2333    0.9458    0.0000 C   0  0  0  0  0  0  0  0  0  0  0  0
    0.2292    2.8458    0.0000 C   0  0  3  0  0  0  0  0  0  0  0  0
   -0.5458    0.5083    0.0000 N   0  0  0  0  0  0  0  0  0  0  0  0
   -0.0250    2.0708    0.0000 C   0  0  0  0  0  0  0  0  0  0  0  0
    1.5792    2.4083    0.0000 N   0  0  0  0  0  0  0  0  0  0  0  0
   -1.6083   -0.4500    0.0000 N   0  0  0  0  0  0  0  0  0  0  0  0
    2.9292    1.9583    0.0000 C   0  0  0  0  0  0  0  0  0  0  0  0
    3.7375    2.1208    0.0000 C   0  0  0  0  0  0  0  0  0  0  0  0
   -0.8000   -0.2792    0.0000 C   0  0  0  0  0  0  0  0  0  0  0  0
    2.3792    2.5833    0.0000 C   0  0  0  0  0  0  0  0  0  0  0  0
    1.2917    3.8000    0.0000 O   0  0  0  0  0  0  0  0  0  0  0  0
    3.9917    2.9000    0.0000 C   0  0  0  0  0  0  0  0  0  0  0  0
    3.4500    3.5083    0.0000 C   0  0  0  0  0  0  0  0  0  0  0  0
   -1.3875    2.5083    0.0000 C   0  0  0  0  0  0  0  0  0  0  0  0
    2.6500    3.3583    0.0000 C   0  0  0  0  0  0  0  0  0  0  0  0
    4.2750    1.5083    0.0000 O   0  0  0  0  0  0  0  0  0  0  0  0
   -0.3208    3.4625    0.0000 C   0  0  0  0  0  0  0  0  0  0  0  0
   -3.5250   -0.4500    0.0000 C   0  0  0  0  0  0  0  0  0  0  0  0
    4.7917    3.0625    0.0000 O   0  0  0  0  0  0  0  0  0  0  0  0
   -4.0333    1.1208    0.0000 C   0  0  0  0  0  0  0  0  0  0  0  0
   -1.1250    3.2958    0.0000 C   0  0  0  0  0  0  0  0  0  0  0  0
    5.0792    1.6708    0.0000 C   0  0  0  0  0  0  0  0  0  0  0  0
    5.0542    3.8458    0.0000 C   0  0  0  0  0  0  0  0  0  0  0  0
   -4.3333   -0.2792    0.0000 C   0  0  0  0  0  0  0  0  0  0  0  0
   -4.5833    0.5083    0.0000 C   0  0  0  0  0  0  0  0  0  0  0  0
  1  2  1  0  0  0  0
  1  3  1  0  0  0  0
  1  4  2  0  0  0  0
  2  5  1  0  0  0  0
  4  6  1  0  0  0  0
  7  9  1  0  0  0  0
  3  8  1  0  0  0  0
  9 11  1  0  0  0  0
  2 10  2  0  0  0  0
  5 11  1  0  0  0  0
  7 12  1  0  0  0  0
  4 13  1  0  0  0  0
 14 17  1  0  0  0  0
 14 15  2  0  0  0  0
 13 16  2  0  0  0  0
 12 17  1  0  0  0  0
  7 18  2  0  0  0  0
 19 20  2  0  0  0  0
 20 22  1  0  0  0  0
  5 21  1  0  0  0  0
 17 22  2  0  0  0  0
 15 23  1  0  0  0  0
 24 28  1  0  0  0  0
  6 25  1  0  0  0  0
 19 26  1  0  0  0  0
  8 27  1  0  0  0  0
 21 28  1  0  0  0  0
 23 29  1  0  0  0  0
 26 30  1  0  0  0  0
 25 31  2  0  0  0  0
 27 32  2  0  0  0  0
  6  8  2  0  0  0  0
 10 16  1  0  0  0  0
 31 32  1  0  0  0  0
  9 24  1  0  0  0  0
 15 19  1  0  0  0  0
M  END
> <MOLFORMULA>
C24 H24 N4 O4

> <MOLWEIGHT>
4.324776000000000e+002

> <IDNUMBER>
AT-687/PE16754

> <PRICE>
EUR 80/10 mg

> <Similarity score>
0.20

$$$$

  -OEChem-04222410502D

 32 36  0     0  0  0  0  0  0999 V2000
   -0.0375   -1.3792    0.0000 C   0  0  0  0  0  0  0  0  0  0  0  0
   -0.0583   -2.3792    0.0000 C   0  0  0  0  0  0  0  0  0  0  0  0
    1.6917   -1.3917    0.0000 C   0  0  0  0  0  0  0  0  0  0  0  0
    0.8250   -0.8792    0.0000 N   0  0  0  0  0  0  0  0  0  0  0  0
    1.6792   -2.3917    0.0000 N   0  0  0  0  0  0  0  0  0  0  0  0
   -0.9958   -1.0667    0.0000 C   0  0  0  0  0  0  0  0  0  0  0  0
    0.8125   -2.8917    0.0000 C   0  0  0  0  0  0  0  0  0  0  0  0
   -0.9958   -2.6875    0.0000 S   0  0  0  0  0  0  0  0  0  0  0  0
    2.5625   -0.9042    0.0000 N   0  0  3  0  0  0  0  0  0  0  0  0
   -1.5833   -1.8792    0.0000 C   0  0  0  0  0  0  0  0  0  0  0  0
   -1.2958   -0.1167    0.0000 C   0  0  0  0  0  0  0  0  0  0  0  0
    2.5792    0.1000    0.0000 C   0  0  0  0  0  0  0  0  0  0  0  0
   -2.2833    0.1000    0.0000 C   0  0  0  0  0  0  0  0  0  0  0  0
   -2.5833    1.0375    0.0000 C   0  0  0  0  0  0  0  0  0  0  0  0
    3.4500    0.5833    0.0000 C   0  0  0  0  0  0  0  0  0  0  0  0
    0.7917   -3.9000    0.0000 O   0  0  0  0  0  0  0  0  0  0  0  0
    3.4292   -1.4125    0.0000 C   0  0  0  0  0  0  0  0  0  0  0  0
   -1.9083    1.7833    0.0000 C   0  0  0  0  0  0  0  0  0  0  0  0
    4.3125    0.0833    0.0000 C   0  0  0  0  0  0  0  0  0  0  0  0
   -0.6208    0.6125    0.0000 C   0  0  0  0  0  0  0  0  0  0  0  0
    4.2917   -0.9292    0.0000 C   0  0  0  0  0  0  0  0  0  0  0  0
   -0.9333    1.5708    0.0000 C   0  0  0  0  0  0  0  0  0  0  0  0
   -3.5458    1.2583    0.0000 O   0  0  0  0  0  0  0  0  0  0  0  0
   -2.2083    2.7333    0.0000 O   0  0  0  0  0  0  0  0  0  0  0  0
    3.4500    1.5708    0.0000 C   0  0  0  0  0  0  0  0  0  0  0  0
    5.1875    0.5833    0.0000 C   0  0  0  0  0  0  0  0  0  0  0  0
   -4.2208    0.5208    0.0000 C   0  0  0  0  0  0  0  0  0  0  0  0
   -3.1833    2.9458    0.0000 C   0  0  0  0  0  0  0  0  0  0  0  0
   -3.4708    3.9083    0.0000 C   0  0  0  0  0  0  0  0  0  0  0  0
   -5.1958    0.7333    0.0000 C   0  0  0  0  0  0  0  0  0  0  0  0
    4.3125    2.0708    0.0000 C   0  0  0  0  0  0  0  0  0  0  0  0
    5.1917    1.5833    0.0000 C   0  0  0  0  0  0  0  0  0  0  0  0
  1  2  2  0  0  0  0
  3  4  2  0  0  0  0
  1  4  1  0  0  0  0
  3  5  1  0  0  0  0
  1  6  1  0  0  0  0
  2  7  1  0  0  0  0
  2  8  1  0  0  0  0
  3  9  1  0  0  0  0
  6 10  2  0  0  0  0
  6 11  1  0  0  0  0
  9 12  1  0  0  0  0
 11 13  2  0  0  0  0
 13 14  1  0  0  0  0
 12 15  1  0  0  0  0
  7 16  2  0  0  0  0
  9 17  1  0  0  0  0
 18 22  1  0  0  0  0
 19 21  1  0  0  0  0
 11 20  1  0  0  0  0
 17 21  1  0  0  0  0
 20 22  2  0  0  0  0
 14 23  1  0  0  0  0
 18 24  1  0  0  0  0
 15 25  1  0  0  0  0
 19 26  1  0  0  0  0
 23 27  1  0  0  0  0
 24 28  1  0  0  0  0
 28 29  1  0  0  0  0
 27 30  1  0  0  0  0
 25 31  2  0  0  0  0
 26 32  2  0  0  0  0
  8 10  1  0  0  0  0
  5  7  1  0  0  0  0
 14 18  2  0  0  0  0
 15 19  2  0  0  0  0
 31 32  1  0  0  0  0
M  END
> <MOLFORMULA>
C25 H25 N3 O3 S

> <MOLWEIGHT>
4.475565000000000e+002

> <IDNUMBER>
AT-687/PE25849

> <PRICE>
EUR 80/10 mg

> <Similarity score>
0.20

$$$$

  -OEChem-04222410502D

 31 35  0     0  0  0  0  0  0999 V2000
    4.3292   -4.9250    0.0000 C   0  0  0  0  0  0  0  0  0  0  0  0
    5.6292   -4.6500    0.0000 C   0  0  0  0  0  0  0  0  0  0  0  0
    3.2500   -4.1500    0.0000 O   0  0  0  0  0  0  0  0  0  0  0  0
    3.9042   -6.1917    0.0000 C   0  0  0  0  0  0  0  0  0  0  0  0
    6.0500   -3.3917    0.0000 N   0  0  3  0  0  0  0  0  0  0  0  0
    2.5917   -6.2000    0.0000 C   0  0  0  0  0  0  0  0  0  0  0  0
    9.0750   -1.5750    0.0000 C   0  0  0  0  0  0  0  0  0  0  0  0
    2.1750   -4.9250    0.0000 C   0  0  0  0  0  0  0  0  0  0  0  0
    7.7750   -1.8500    0.0000 C   0  0  3  0  0  0  0  0  0  0  0  0
    6.5250   -5.6292    0.0000 N   0  0  0  0  0  0  0  0  0  0  0  0
    7.3500   -3.1167    0.0000 C   0  0  0  0  0  0  0  0  0  0  0  0
    9.9500   -2.5542    0.0000 N   0  0  0  0  0  0  0  0  0  0  0  0
    4.8000   -7.1792    0.0000 N   0  0  0  0  0  0  0  0  0  0  0  0
    6.1000   -6.9167    0.0000 C   0  0  0  0  0  0  0  0  0  0  0  0
    9.4750   -0.3167    0.0000 O   0  0  0  0  0  0  0  0  0  0  0  0
   11.2500   -2.2917    0.0000 C   0  0  0  0  0  0  0  0  0  0  0  0
    5.1542   -2.4042    0.0000 C   0  0  0  0  0  0  0  0  0  0  0  0
   13.8500   -1.7667    0.0000 C   0  0  0  0  0  0  0  0  0  0  0  0
    6.8750   -0.8500    0.0000 C   0  0  0  0  0  0  0  0  0  0  0  0
    1.7000   -7.1792    0.0000 C   0  0  0  0  0  0  0  0  0  0  0  0
   12.1250   -3.2917    0.0000 C   0  0  0  0  0  0  0  0  0  0  0  0
   11.6750   -1.0250    0.0000 C   0  0  0  0  0  0  0  0  0  0  0  0
   12.9750   -0.7917    0.0000 C   0  0  0  0  0  0  0  0  0  0  0  0
   13.4500   -3.0292    0.0000 C   0  0  0  0  0  0  0  0  0  0  0  0
    0.8917   -4.6500    0.0000 C   0  0  0  0  0  0  0  0  0  0  0  0
   15.1417   -1.5167    0.0000 O   0  0  0  0  0  0  0  0  0  0  0  0
    5.5792   -1.1250    0.0000 C   0  0  0  0  0  0  0  0  0  0  0  0
   15.5750   -0.2500    0.0000 C   0  0  0  0  0  0  0  0  0  0  0  0
    0.4000   -6.9167    0.0000 C   0  0  0  0  0  0  0  0  0  0  0  0
    0.0000   -5.6292    0.0000 C   0  0  0  0  0  0  0  0  0  0  0  0
   16.8750   -0.0000    0.0000 C   0  0  0  0  0  0  0  0  0  0  0  0
  1  2  2  0  0  0  0
  1  3  1  0  0  0  0
  1  4  1  0  0  0  0
  2  5  1  0  0  0  0
  4  6  1  0  0  0  0
  7  9  1  0  0  0  0
  3  8  1  0  0  0  0
  9 11  1  0  0  0  0
  2 10  1  0  0  0  0
  5 11  1  0  0  0  0
  7 12  1  0  0  0  0
  4 13  2  0  0  0  0
 13 14  1  0  0  0  0
  7 15  2  0  0  0  0
 12 16  1  0  0  0  0
  5 17  1  0  0  0  0
 18 23  2  0  0  0  0
 19 27  1  0  0  0  0
  6 20  1  0  0  0  0
 16 21  1  0  0  0  0
 16 22  2  0  0  0  0
 22 23  1  0  0  0  0
 21 24  2  0  0  0  0
  8 25  1  0  0  0  0
 18 26  1  0  0  0  0
 17 27  1  0  0  0  0
 26 28  1  0  0  0  0
 20 29  2  0  0  0  0
 25 30  2  0  0  0  0
 28 31  1  0  0  0  0
  6  8  2  0  0  0  0
 10 14  2  0  0  0  0
 29 30  1  0  0  0  0
  9 19  1  0  0  0  0
 18 24  1  0  0  0  0
M  END
> <MOLFORMULA>
C24 H24 N4 O3

> <MOLWEIGHT>
4.164786000000000e+002

> <IDNUMBER>
AT-687/PE16755

> <PRICE>
EUR 80/10 mg

> <Similarity score>
0.20

$$$$

  -OEChem-04222410502D

 40 45  0     0  0  0  0  0  0999 V2000
    2.4833    2.1417    0.0000 C   0  0  0  0  0  0  0  0  0  0  0  0
    2.4833    3.1417    0.0000 C   0  0  0  0  0  0  0  0  0  0  0  0
    3.3500    1.6417    0.0000 C   0  0  0  0  0  0  0  0  0  0  0  0
    1.6167    1.6417    0.0000 N   0  0  3  0  0  0  0  0  0  0  0  0
    3.3500    3.6417    0.0000 C   0  0  0  0  0  0  0  0  0  0  0  0
    4.2125    2.1417    0.0000 N   0  0  0  0  0  0  0  0  0  0  0  0
    4.2125    3.1458    0.0000 C   0  0  0  0  0  0  0  0  0  0  0  0
    0.7500    0.1417    0.0000 C   0  0  3  0  0  0  0  0  0  0  0  0
   -0.4792   -5.3958    0.0000 N   0  0  0  0  0  0  0  0  0  0  0  0
   -1.7917   -4.4458    0.0000 C   0  0  0  0  0  0  0  0  0  0  0  0
    1.6167    0.6417    0.0000 C   0  0  0  0  0  0  0  0  0  0  0  0
    0.7500   -0.8583    0.0000 C   0  0  0  0  0  0  0  0  0  0  0  0
   -0.1708   -4.4458    0.0000 C   0  0  0  0  0  0  0  0  0  0  0  0
   -0.9792   -3.8583    0.0000 C   0  0  0  0  0  0  0  0  0  0  0  0
   -1.4792   -5.3958    0.0000 C   0  0  0  0  0  0  0  0  0  0  0  0
    3.3458    4.6375    0.0000 C   0  0  0  0  0  0  0  0  0  0  0  0
    1.6167    3.6417    0.0000 C   0  0  0  0  0  0  0  0  0  0  0  0
    3.3500    0.6417    0.0000 O   0  0  0  0  0  0  0  0  0  0  0  0
   -2.7667   -4.2375    0.0000 C   0  0  0  0  0  0  0  0  0  0  0  0
    1.6167   -1.3583    0.0000 O   0  0  0  0  0  0  0  0  0  0  0  0
    5.0792    3.6417    0.0000 C   0  0  0  0  0  0  0  0  0  0  0  0
   -0.1167   -1.3583    0.0000 N   0  0  0  0  0  0  0  0  0  0  0  0
   -2.1500   -6.1375    0.0000 C   0  0  0  0  0  0  0  0  0  0  0  0
    0.7500    2.1417    0.0000 C   0  0  0  0  0  0  0  0  0  0  0  0
    4.2125    5.1375    0.0000 C   0  0  0  0  0  0  0  0  0  0  0  0
   -3.4375   -4.9792    0.0000 C   0  0  0  0  0  0  0  0  0  0  0  0
    5.0792    4.6417    0.0000 C   0  0  0  0  0  0  0  0  0  0  0  0
   -3.1292   -5.9333    0.0000 C   0  0  0  0  0  0  0  0  0  0  0  0
    4.2125    6.1375    0.0000 Cl  0  0  0  0  0  0  0  0  0  0  0  0
   -0.1167    0.6417    0.0000 C   0  0  0  0  0  0  0  0  0  0  0  0
   -0.1167   -2.3583    0.0000 C   0  0  0  0  0  0  0  0  0  0  0  0
   -0.9792   -2.8583    0.0000 C   0  0  0  0  0  0  0  0  0  0  0  0
   -4.4167   -4.7708    0.0000 O   0  0  0  0  0  0  0  0  0  0  0  0
   -0.1167    1.6417    0.0000 C   0  0  0  0  0  0  0  0  0  0  0  0
    1.6167    4.6375    0.0000 C   0  0  0  0  0  0  0  0  0  0  0  0
    0.7500    3.1417    0.0000 C   0  0  0  0  0  0  0  0  0  0  0  0
   -5.0833   -5.5167    0.0000 C   0  0  0  0  0  0  0  0  0  0  0  0
   -0.1167    3.6417    0.0000 C   0  0  0  0  0  0  0  0  0  0  0  0
    0.7500    5.1375    0.0000 C   0  0  0  0  0  0  0  0  0  0  0  0
   -0.1167    4.6375    0.0000 C   0  0  0  0  0  0  0  0  0  0  0  0
  1  2  2  0  0  0  0
  1  3  1  0  0  0  0
  1  4  1  0  0  0  0
  2  5  1  0  0  0  0
  3  6  1  0  0  0  0
  6  7  1  0  0  0  0
  8 11  1  0  0  0  0
  9 13  1  0  0  0  0
 10 14  1  0  0  0  0
  4 11  1  0  0  0  0
  8 12  1  0  0  0  0
 13 14  2  0  0  0  0
 14 32  1  0  0  0  0
 10 15  2  0  0  0  0
  5 16  1  0  0  0  0
  2 17  1  0  0  0  0
  3 18  2  0  0  0  0
 10 19  1  0  0  0  0
 12 20  2  0  0  0  0
  7 21  1  0  0  0  0
 12 22  1  0  0  0  0
 15 23  1  0  0  0  0
  4 24  1  0  0  0  0
 16 25  2  0  0  0  0
 19 26  2  0  0  0  0
 21 27  2  0  0  0  0
 26 28  1  0  0  0  0
 25 29  1  0  0  0  0
 30 34  1  0  0  0  0
 22 31  1  0  0  0  0
 31 32  1  0  0  0  0
 26 33  1  0  0  0  0
 24 34  1  0  0  0  0
 17 35  1  0  0  0  0
 17 36  2  0  0  0  0
 33 37  1  0  0  0  0
 36 38  1  0  0  0  0
 35 39  2  0  0  0  0
 38 40  2  0  0  0  0
  5  7  2  0  0  0  0
  8 30  1  0  0  0  0
 25 27  1  0  0  0  0
 39 40  1  0  0  0  0
  9 15  1  0  0  0  0
 23 28  2  0  0  0  0
M  END
> <MOLFORMULA>
C32 H31 Cl N4 O3

> <MOLWEIGHT>
5.550749000000000e+002

> <IDNUMBER>
AN-153/I262611

> <PRICE>
EUR 130/10 mg

> <Similarity score>
0.20

$$$$

  -OEChem-04222410502D

 29 33  0     0  0  0  0  0  0999 V2000
    0.9917    1.0708    0.0000 N   0  0  3  0  0  0  0  0  0  0  0  0
    2.0292    1.0708    0.0000 C   0  0  0  0  0  0  0  0  0  0  0  0
    0.9917    0.4708    0.0000 C   0  0  0  0  0  0  0  0  0  0  0  0
    2.0292    0.4708    0.0000 C   0  0  0  0  0  0  0  0  0  0  0  0
    1.5125    1.3708    0.0000 C   0  0  0  0  0  0  0  0  0  0  0  0
   -0.0458    0.4708    0.0000 C   0  0  0  0  0  0  0  0  0  0  0  0
   -0.0458    1.0708    0.0000 C   0  0  0  0  0  0  0  0  0  0  0  0
    1.5125    0.1708    0.0000 C   0  0  0  0  0  0  0  0  0  0  0  0
   -0.5708    0.1708    0.0000 N   0  0  0  0  0  0  0  0  0  0  0  0
    2.5500    0.1708    0.0000 C   0  0  1  0  0  0  0  0  0  0  0  0
    0.4667    1.3708    0.0000 C   0  0  0  0  0  0  0  0  0  0  0  0
   -0.5708    1.3708    0.0000 C   0  0  0  0  0  0  0  0  0  0  0  0
    3.0667    0.4708    0.0000 C   0  0  0  0  0  0  0  0  0  0  0  0
   -1.0875    1.0708    0.0000 C   0  0  0  0  0  0  0  0  0  0  0  0
   -1.0875    0.4708    0.0000 C   0  0  0  0  0  0  0  0  0  0  0  0
    2.5500    1.3708    0.0000 C   0  0  0  0  0  0  0  0  0  0  0  0
    3.0667    1.0708    0.0000 O   0  0  0  0  0  0  0  0  0  0  0  0
    1.5125    1.9708    0.0000 O   0  0  0  0  0  0  0  0  0  0  0  0
   -1.6083    1.3708    0.0000 C   0  0  0  0  0  0  0  0  0  0  0  0
    3.5917    0.1708    0.0000 O   0  0  0  0  0  0  0  0  0  0  0  0
   -1.6083    0.1708    0.0000 C   0  0  0  0  0  0  0  0  0  0  0  0
    2.8500   -0.3542    0.0000 O   0  0  0  0  0  0  0  0  0  0  0  0
   -2.1250    1.0708    0.0000 C   0  0  0  0  0  0  0  0  0  0  0  0
    2.2500   -0.3542    0.0000 C   0  0  0  0  0  0  0  0  0  0  0  0
   -2.1250    0.4708    0.0000 C   0  0  0  0  0  0  0  0  0  0  0  0
   -0.5708    1.9708    0.0000 C   0  0  0  0  0  0  0  0  0  0  0  0
   -2.6458    1.3708    0.0000 O   0  0  0  0  0  0  0  0  0  0  0  0
    1.6500   -0.3542    0.0000 C   0  0  0  0  0  0  0  0  0  0  0  0
   -1.0875    2.2708    0.0000 C   0  0  0  0  0  0  0  0  0  0  0  0
  2  5  1  0  0  0  0
  1  3  1  0  0  0  0
  2  4  2  0  0  0  0
  1  5  1  0  0  0  0
  3  6  1  0  0  0  0
  7 11  1  0  0  0  0
  3  8  2  0  0  0  0
  6  9  2  0  0  0  0
  4 10  1  0  0  0  0
  1 11  1  0  0  0  0
  7 12  2  0  0  0  0
 13 17  1  0  0  0  0
 12 14  1  0  0  0  0
  9 15  1  0  0  0  0
  2 16  1  0  0  0  0
 16 17  1  0  0  0  0
  5 18  2  0  0  0  0
 14 19  2  0  0  0  0
 13 20  2  0  0  0  0
 15 21  2  0  0  0  0
 10 22  1  1  0  0  0
 19 23  1  0  0  0  0
 10 24  1  6  0  0  0
 21 25  1  0  0  0  0
 12 26  1  0  0  0  0
 23 27  1  0  0  0  0
 24 28  1  0  0  0  0
 26 29  1  0  0  0  0
  4  8  1  0  0  0  0
  6  7  1  0  0  0  0
 14 15  1  0  0  0  0
 10 13  1  0  0  0  0
 23 25  2  0  0  0  0
M  END
> <MOLFORMULA>
C22 H20 N2 O5

> <MOLWEIGHT>
3.924090000000000e+002

> <IDNUMBER>
AT-358/NJ01084

> <Similarity score>
0.20

$$$$

  -OEChem-04222410502D

 32 36  0     0  0  0  0  0  0999 V2000
    4.3417   -4.8792    0.0000 C   0  0  0  0  0  0  0  0  0  0  0  0
    5.6250   -4.6000    0.0000 C   0  0  0  0  0  0  0  0  0  0  0  0
    3.2667   -4.1042    0.0000 O   0  0  0  0  0  0  0  0  0  0  0  0
    3.9042   -6.1417    0.0000 C   0  0  0  0  0  0  0  0  0  0  0  0
    6.0542   -3.3500    0.0000 N   0  0  3  0  0  0  0  0  0  0  0  0
    2.5917   -6.1542    0.0000 C   0  0  0  0  0  0  0  0  0  0  0  0
    2.1750   -4.8792    0.0000 C   0  0  0  0  0  0  0  0  0  0  0  0
    7.7750   -1.8167    0.0000 C   0  0  3  0  0  0  0  0  0  0  0  0
    9.0792   -1.5250    0.0000 C   0  0  0  0  0  0  0  0  0  0  0  0
    6.5250   -5.6000    0.0000 N   0  0  0  0  0  0  0  0  0  0  0  0
    7.3667   -3.0667    0.0000 C   0  0  0  0  0  0  0  0  0  0  0  0
    4.8000   -7.1292    0.0000 N   0  0  0  0  0  0  0  0  0  0  0  0
    9.5000   -0.2542    0.0000 N   0  0  0  0  0  0  0  0  0  0  0  0
    6.1042   -6.8667    0.0000 C   0  0  0  0  0  0  0  0  0  0  0  0
    9.9750   -2.5250    0.0000 O   0  0  0  0  0  0  0  0  0  0  0  0
   10.7792   -0.0000    0.0000 C   0  0  0  0  0  0  0  0  0  0  0  0
    5.1667   -2.3542    0.0000 C   0  0  0  0  0  0  0  0  0  0  0  0
   11.6542   -0.9667    0.0000 C   0  0  0  0  0  0  0  0  0  0  0  0
   13.4250   -2.9500    0.0000 C   0  0  0  0  0  0  0  0  0  0  0  0
    6.8792   -0.8000    0.0000 C   0  0  0  0  0  0  0  0  0  0  0  0
    1.7167   -7.1292    0.0000 C   0  0  0  0  0  0  0  0  0  0  0  0
   12.9667   -0.7000    0.0000 C   0  0  0  0  0  0  0  0  0  0  0  0
   11.2500   -2.2250    0.0000 C   0  0  0  0  0  0  0  0  0  0  0  0
   12.1250   -3.2292    0.0000 C   0  0  0  0  0  0  0  0  0  0  0  0
   13.8417   -1.7000    0.0000 C   0  0  0  0  0  0  0  0  0  0  0  0
    0.8917   -4.6000    0.0000 C   0  0  0  0  0  0  0  0  0  0  0  0
   14.3250   -3.9250    0.0000 O   0  0  0  0  0  0  0  0  0  0  0  0
    5.5750   -1.0792    0.0000 C   0  0  0  0  0  0  0  0  0  0  0  0
   15.6250   -3.6667    0.0000 C   0  0  0  0  0  0  0  0  0  0  0  0
    0.3917   -6.8667    0.0000 C   0  0  0  0  0  0  0  0  0  0  0  0
    0.0000   -5.6000    0.0000 C   0  0  0  0  0  0  0  0  0  0  0  0
   16.5167   -4.6500    0.0000 C   0  0  0  0  0  0  0  0  0  0  0  0
  1  2  2  0  0  0  0
  1  3  1  0  0  0  0
  1  4  1  0  0  0  0
  2  5  1  0  0  0  0
  4  6  1  0  0  0  0
  3  7  1  0  0  0  0
  8 11  1  0  0  0  0
  8  9  1  0  0  0  0
  2 10  1  0  0  0  0
  5 11  1  0  0  0  0
  4 12  2  0  0  0  0
  9 13  1  0  0  0  0
 12 14  1  0  0  0  0
  9 15  2  0  0  0  0
 13 16  1  0  0  0  0
  5 17  1  0  0  0  0
 16 18  1  0  0  0  0
 19 24  2  0  0  0  0
 20 28  1  0  0  0  0
  6 21  1  0  0  0  0
 18 22  1  0  0  0  0
 18 23  2  0  0  0  0
 23 24  1  0  0  0  0
 22 25  2  0  0  0  0
  7 26  1  0  0  0  0
 19 27  1  0  0  0  0
 17 28  1  0  0  0  0
 27 29  1  0  0  0  0
 21 30  2  0  0  0  0
 26 31  2  0  0  0  0
 29 32  1  0  0  0  0
  6  7  2  0  0  0  0
 10 14  2  0  0  0  0
 30 31  1  0  0  0  0
  8 20  1  0  0  0  0
 19 25  1  0  0  0  0
M  END
> <MOLFORMULA>
C25 H26 N4 O3

> <MOLWEIGHT>
4.305054000000000e+002

> <IDNUMBER>
AT-687/PE16772

> <PRICE>
EUR 80/10 mg

> <Similarity score>
0.20

$$$$

  -OEChem-04222410502D

 34 38  0     0  0  0  0  0  0999 V2000
   -3.3208    2.1875    0.0000 C   0  0  0  0  0  0  0  0  0  0  0  0
   -3.3125    1.3583    0.0000 C   0  0  0  0  0  0  0  0  0  0  0  0
   -1.8833    2.1875    0.0000 C   0  0  0  0  0  0  0  0  0  0  0  0
   -2.6083    2.6083    0.0000 N   0  0  0  0  0  0  0  0  0  0  0  0
   -1.8833    1.3583    0.0000 N   0  0  0  0  0  0  0  0  0  0  0  0
   -2.6000    0.9458    0.0000 C   0  0  0  0  0  0  0  0  0  0  0  0
   -4.1000    2.4333    0.0000 C   0  0  0  0  0  0  0  0  0  0  0  0
   -4.0958    1.1000    0.0000 S   0  0  0  0  0  0  0  0  0  0  0  0
   -1.1708    2.6000    0.0000 N   0  0  3  0  0  0  0  0  0  0  0  0
   -4.5833    1.7708    0.0000 C   0  0  0  0  0  0  0  0  0  0  0  0
    0.2542    2.5958    0.0000 C   0  0  3  0  0  0  0  0  0  0  0  0
    0.9750    2.1750    0.0000 C   0  0  0  0  0  0  0  0  0  0  0  0
   -0.4583    2.1833    0.0000 C   0  0  0  0  0  0  0  0  0  0  0  0
    3.1042    0.9333    0.0000 C   0  0  0  0  0  0  0  0  0  0  0  0
    2.4000    1.3583    0.0000 C   0  0  0  0  0  0  0  0  0  0  0  0
    1.6917    2.5875    0.0000 N   0  0  0  0  0  0  0  0  0  0  0  0
    3.1042    0.1208    0.0000 C   0  0  0  0  0  0  0  0  0  0  0  0
   -4.3625    3.2208    0.0000 C   0  0  0  0  0  0  0  0  0  0  0  0
   -2.6000    0.1208    0.0000 O   0  0  0  0  0  0  0  0  0  0  0  0
    2.4042    2.1708    0.0000 C   0  0  0  0  0  0  0  0  0  0  0  0
    0.9667    1.3500    0.0000 O   0  0  0  0  0  0  0  0  0  0  0  0
    1.6792    0.9583    0.0000 C   0  0  0  0  0  0  0  0  0  0  0  0
    2.3792   -0.2917    0.0000 C   0  0  0  0  0  0  0  0  0  0  0  0
    3.8292    1.3458    0.0000 Cl  0  0  0  0  0  0  0  0  0  0  0  0
   -1.1708    3.4208    0.0000 C   0  0  0  0  0  0  0  0  0  0  0  0
    1.6667    0.1208    0.0000 C   0  0  0  0  0  0  0  0  0  0  0  0
    2.3750   -1.1167    0.0000 F   0  0  0  0  0  0  0  0  0  0  0  0
    0.2625    3.4208    0.0000 C   0  0  0  0  0  0  0  0  0  0  0  0
   -0.4583    3.8333    0.0000 C   0  0  0  0  0  0  0  0  0  0  0  0
   -3.8083    3.8375    0.0000 C   0  0  0  0  0  0  0  0  0  0  0  0
   -5.1708    3.3958    0.0000 C   0  0  0  0  0  0  0  0  0  0  0  0
   -4.0708    4.6167    0.0000 C   0  0  0  0  0  0  0  0  0  0  0  0
   -5.4333    4.1667    0.0000 C   0  0  0  0  0  0  0  0  0  0  0  0
   -4.8750    4.7792    0.0000 C   0  0  0  0  0  0  0  0  0  0  0  0
  1  2  2  0  0  0  0
  3  4  2  0  0  0  0
  1  4  1  0  0  0  0
  3  5  1  0  0  0  0
  2  6  1  0  0  0  0
  1  7  1  0  0  0  0
  2  8  1  0  0  0  0
  3  9  1  0  0  0  0
  7 10  2  0  0  0  0
 11 13  1  0  0  0  0
 11 12  1  0  0  0  0
  9 13  1  0  0  0  0
 14 15  2  0  0  0  0
 15 20  1  0  0  0  0
 12 16  1  0  0  0  0
 14 17  1  0  0  0  0
  7 18  1  0  0  0  0
  6 19  2  0  0  0  0
 16 20  1  0  0  0  0
 12 21  2  0  0  0  0
 15 22  1  0  0  0  0
 23 26  1  0  0  0  0
 14 24  1  0  0  0  0
  9 25  1  0  0  0  0
 22 26  2  0  0  0  0
 23 27  1  0  0  0  0
 28 29  1  0  0  0  0
 25 29  1  0  0  0  0
 18 30  1  0  0  0  0
 18 31  2  0  0  0  0
 30 32  2  0  0  0  0
 31 33  1  0  0  0  0
 33 34  2  0  0  0  0
  8 10  1  0  0  0  0
  5  6  1  0  0  0  0
 32 34  1  0  0  0  0
 11 28  1  0  0  0  0
 17 23  2  0  0  0  0
M  END
> <MOLFORMULA>
C25 H22 Cl F N4 O2 S

> <MOLWEIGHT>
4.969918000000000e+002

> <IDNUMBER>
AT-687/PE25950

> <PRICE>
EUR 80/10 mg

> <Similarity score>
0.20

$$$$

  -OEChem-04222410502D

 33 37  0     0  0  0  0  0  0999 V2000
    4.3250   -4.8792    0.0000 C   0  0  0  0  0  0  0  0  0  0  0  0
    5.6250   -4.6000    0.0000 C   0  0  0  0  0  0  0  0  0  0  0  0
    3.2542   -4.1000    0.0000 O   0  0  0  0  0  0  0  0  0  0  0  0
    3.9167   -6.1500    0.0000 C   0  0  0  0  0  0  0  0  0  0  0  0
    6.0542   -3.3500    0.0000 N   0  0  3  0  0  0  0  0  0  0  0  0
    2.6000   -6.1500    0.0000 C   0  0  0  0  0  0  0  0  0  0  0  0
    2.1750   -4.8792    0.0000 C   0  0  0  0  0  0  0  0  0  0  0  0
    7.7750   -1.8167    0.0000 C   0  0  3  0  0  0  0  0  0  0  0  0
    9.0750   -1.5250    0.0000 C   0  0  0  0  0  0  0  0  0  0  0  0
    6.5250   -5.6000    0.0000 N   0  0  0  0  0  0  0  0  0  0  0  0
    7.3667   -3.0667    0.0000 C   0  0  0  0  0  0  0  0  0  0  0  0
    4.8042   -7.1250    0.0000 N   0  0  0  0  0  0  0  0  0  0  0  0
    9.4792   -0.2667    0.0000 N   0  0  0  0  0  0  0  0  0  0  0  0
    6.1167   -6.8667    0.0000 C   0  0  0  0  0  0  0  0  0  0  0  0
    9.9667   -2.5250    0.0000 O   0  0  0  0  0  0  0  0  0  0  0  0
   10.7917   -0.0000    0.0000 C   0  0  0  0  0  0  0  0  0  0  0  0
    5.1667   -2.3500    0.0000 C   0  0  0  0  0  0  0  0  0  0  0  0
   11.6542   -0.9750    0.0000 C   0  0  0  0  0  0  0  0  0  0  0  0
   13.4250   -2.9417    0.0000 C   0  0  0  0  0  0  0  0  0  0  0  0
    6.8750   -0.8167    0.0000 C   0  0  0  0  0  0  0  0  0  0  0  0
    1.7000   -7.1250    0.0000 C   0  0  0  0  0  0  0  0  0  0  0  0
   12.9667   -0.7042    0.0000 C   0  0  0  0  0  0  0  0  0  0  0  0
   11.2292   -2.2250    0.0000 C   0  0  0  0  0  0  0  0  0  0  0  0
   12.1417   -3.2250    0.0000 C   0  0  0  0  0  0  0  0  0  0  0  0
   13.8500   -1.6750    0.0000 C   0  0  0  0  0  0  0  0  0  0  0  0
    0.8917   -4.6000    0.0000 C   0  0  0  0  0  0  0  0  0  0  0  0
   14.3167   -3.9167    0.0000 O   0  0  0  0  0  0  0  0  0  0  0  0
    5.5750   -1.0792    0.0000 C   0  0  0  0  0  0  0  0  0  0  0  0
   15.6417   -3.6500    0.0000 C   0  0  0  0  0  0  0  0  0  0  0  0
   16.5167   -4.6292    0.0000 C   0  0  0  0  0  0  0  0  0  0  0  0
    0.4000   -6.8667    0.0000 C   0  0  0  0  0  0  0  0  0  0  0  0
    0.0000   -5.6000    0.0000 C   0  0  0  0  0  0  0  0  0  0  0  0
   17.8292   -4.3667    0.0000 C   0  0  0  0  0  0  0  0  0  0  0  0
  1  2  2  0  0  0  0
  1  3  1  0  0  0  0
  1  4  1  0  0  0  0
  2  5  1  0  0  0  0
  4  6  1  0  0  0  0
  3  7  1  0  0  0  0
  8 11  1  0  0  0  0
  8  9  1  0  0  0  0
  2 10  1  0  0  0  0
  5 11  1  0  0  0  0
  4 12  2  0  0  0  0
  9 13  1  0  0  0  0
 12 14  1  0  0  0  0
  9 15  2  0  0  0  0
 13 16  1  0  0  0  0
  5 17  1  0  0  0  0
 16 18  1  0  0  0  0
 19 24  2  0  0  0  0
 20 28  1  0  0  0  0
  6 21  1  0  0  0  0
 18 22  1  0  0  0  0
 18 23  2  0  0  0  0
 23 24  1  0  0  0  0
 22 25  2  0  0  0  0
  7 26  1  0  0  0  0
 19 27  1  0  0  0  0
 17 28  1  0  0  0  0
 27 29  1  0  0  0  0
 29 30  1  0  0  0  0
 21 31  2  0  0  0  0
 26 32  2  0  0  0  0
 30 33  1  0  0  0  0
  6  7  2  0  0  0  0
 10 14  2  0  0  0  0
 31 32  1  0  0  0  0
  8 20  1  0  0  0  0
 19 25  1  0  0  0  0
M  END
> <MOLFORMULA>
C26 H28 N4 O3

> <MOLWEIGHT>
4.445322000000000e+002

> <IDNUMBER>
AT-687/PE16773

> <PRICE>
EUR 80/10 mg

> <Similarity score>
0.20

$$$$

  -OEChem-04222410502D

 38 43  0     0  0  0  0  0  0999 V2000
   -1.0000   -2.7458    0.0000 C   0  0  0  0  0  0  0  0  0  0  0  0
   -0.4833   -3.6000    0.0000 C   0  0  0  0  0  0  0  0  0  0  0  0
   -2.0000   -2.7708    0.0000 C   0  0  0  0  0  0  0  0  0  0  0  0
   -0.5208   -1.8708    0.0000 N   0  0  3  0  0  0  0  0  0  0  0  0
   -0.9625   -4.4792    0.0000 C   0  0  0  0  0  0  0  0  0  0  0  0
   -2.4833   -3.6458    0.0000 N   0  0  0  0  0  0  0  0  0  0  0  0
   -1.9625   -4.5000    0.0000 C   0  0  0  0  0  0  0  0  0  0  0  0
   -0.5625   -0.1375    0.0000 C   0  0  3  0  0  0  0  0  0  0  0  0
   -2.3875    5.2292    0.0000 N   0  0  0  0  0  0  0  0  0  0  0  0
   -1.0417   -1.0167    0.0000 C   0  0  0  0  0  0  0  0  0  0  0  0
   -1.0792    0.7167    0.0000 C   0  0  0  0  0  0  0  0  0  0  0  0
   -2.1583    4.2583    0.0000 C   0  0  0  0  0  0  0  0  0  0  0  0
   -1.1583    4.1750    0.0000 C   0  0  0  0  0  0  0  0  0  0  0  0
   -0.7750    5.1000    0.0000 C   0  0  0  0  0  0  0  0  0  0  0  0
   -1.5333    5.7500    0.0000 C   0  0  0  0  0  0  0  0  0  0  0  0
   -0.4417   -5.3333    0.0000 C   0  0  0  0  0  0  0  0  0  0  0  0
    0.5167   -3.5792    0.0000 C   0  0  0  0  0  0  0  0  0  0  0  0
   -2.5208   -1.9167    0.0000 O   0  0  0  0  0  0  0  0  0  0  0  0
   -2.0792    0.6958    0.0000 O   0  0  0  0  0  0  0  0  0  0  0  0
   -2.4417   -5.3792    0.0000 C   0  0  0  0  0  0  0  0  0  0  0  0
   -0.6000    1.5958    0.0000 N   0  0  0  0  0  0  0  0  0  0  0  0
    0.4792   -1.8458    0.0000 C   0  0  0  0  0  0  0  0  0  0  0  0
   -0.9208   -6.2083    0.0000 C   0  0  0  0  0  0  0  0  0  0  0  0
   -1.9208   -6.2333    0.0000 C   0  0  0  0  0  0  0  0  0  0  0  0
   -0.4042   -7.0625    0.0000 Cl  0  0  0  0  0  0  0  0  0  0  0  0
    0.4375   -0.1167    0.0000 C   0  0  0  0  0  0  0  0  0  0  0  0
   -1.1208    2.4500    0.0000 C   0  0  0  0  0  0  0  0  0  0  0  0
   -0.6417    3.3250    0.0000 C   0  0  0  0  0  0  0  0  0  0  0  0
    0.9583   -0.9708    0.0000 C   0  0  0  0  0  0  0  0  0  0  0  0
    0.1708    5.4292    0.0000 C   0  0  0  0  0  0  0  0  0  0  0  0
   -1.3458    6.7333    0.0000 C   0  0  0  0  0  0  0  0  0  0  0  0
    0.9958   -2.7000    0.0000 C   0  0  0  0  0  0  0  0  0  0  0  0
    1.0375   -4.4333    0.0000 C   0  0  0  0  0  0  0  0  0  0  0  0
    0.3542    6.4125    0.0000 C   0  0  0  0  0  0  0  0  0  0  0  0
   -0.4042    7.0625    0.0000 C   0  0  0  0  0  0  0  0  0  0  0  0
    2.0375   -4.4083    0.0000 C   0  0  0  0  0  0  0  0  0  0  0  0
    1.9958   -2.6792    0.0000 C   0  0  0  0  0  0  0  0  0  0  0  0
    2.5167   -3.5333    0.0000 C   0  0  0  0  0  0  0  0  0  0  0  0
  1  2  2  0  0  0  0
  1  3  1  0  0  0  0
  1  4  1  0  0  0  0
  2  5  1  0  0  0  0
  3  6  1  0  0  0  0
  6  7  1  0  0  0  0
  8 10  1  0  0  0  0
  9 12  1  0  0  0  0
  4 10  1  0  0  0  0
  8 11  1  0  0  0  0
 12 13  2  0  0  0  0
 13 28  1  0  0  0  0
 13 14  1  0  0  0  0
 14 15  2  0  0  0  0
  5 16  1  0  0  0  0
  2 17  1  0  0  0  0
  3 18  2  0  0  0  0
 11 19  2  0  0  0  0
  7 20  1  0  0  0  0
 11 21  1  0  0  0  0
  4 22  1  0  0  0  0
 16 23  2  0  0  0  0
 20 24  2  0  0  0  0
 23 25  1  0  0  0  0
 26 29  1  0  0  0  0
 21 27  1  0  0  0  0
 27 28  1  0  0  0  0
 22 29  1  0  0  0  0
 14 30  1  0  0  0  0
 15 31  1  0  0  0  0
 17 32  1  0  0  0  0
 17 33  2  0  0  0  0
 30 34  2  0  0  0  0
 34 35  1  0  0  0  0
 33 36  1  0  0  0  0
 32 37  2  0  0  0  0
 36 38  2  0  0  0  0
  5  7  2  0  0  0  0
  8 26  1  0  0  0  0
 23 24  1  0  0  0  0
 37 38  1  0  0  0  0
  9 15  1  0  0  0  0
 31 35  2  0  0  0  0
M  END
> <MOLFORMULA>
C31 H29 Cl N4 O2

> <MOLWEIGHT>
5.250491000000000e+002

> <IDNUMBER>
AN-153/I261776

> <PRICE>
EUR 130/10 mg

> <Similarity score>
0.20

$$$$

  -OEChem-04222410502D

 34 38  0     0  0  0  0  0  0999 V2000
   -3.3208    2.1875    0.0000 C   0  0  0  0  0  0  0  0  0  0  0  0
   -3.3125    1.3583    0.0000 C   0  0  0  0  0  0  0  0  0  0  0  0
   -1.8833    2.1875    0.0000 C   0  0  0  0  0  0  0  0  0  0  0  0
   -2.6083    2.6083    0.0000 N   0  0  0  0  0  0  0  0  0  0  0  0
   -1.8833    1.3583    0.0000 N   0  0  0  0  0  0  0  0  0  0  0  0
   -2.6000    0.9458    0.0000 C   0  0  0  0  0  0  0  0  0  0  0  0
   -4.1000    2.4333    0.0000 C   0  0  0  0  0  0  0  0  0  0  0  0
   -4.0958    1.1000    0.0000 S   0  0  0  0  0  0  0  0  0  0  0  0
   -1.1708    2.6000    0.0000 N   0  0  3  0  0  0  0  0  0  0  0  0
   -4.5833    1.7708    0.0000 C   0  0  0  0  0  0  0  0  0  0  0  0
    0.2542    2.5958    0.0000 C   0  0  3  0  0  0  0  0  0  0  0  0
    0.9750    2.1750    0.0000 C   0  0  0  0  0  0  0  0  0  0  0  0
   -0.4583    2.1833    0.0000 C   0  0  0  0  0  0  0  0  0  0  0  0
    1.6917    2.5875    0.0000 N   0  0  0  0  0  0  0  0  0  0  0  0
    3.1042    0.1208    0.0000 C   0  0  0  0  0  0  0  0  0  0  0  0
   -4.3625    3.2208    0.0000 C   0  0  0  0  0  0  0  0  0  0  0  0
   -2.6000    0.1208    0.0000 O   0  0  0  0  0  0  0  0  0  0  0  0
    2.3792   -0.2917    0.0000 C   0  0  0  0  0  0  0  0  0  0  0  0
    0.9667    1.3500    0.0000 O   0  0  0  0  0  0  0  0  0  0  0  0
    3.1042    0.9333    0.0000 C   0  0  0  0  0  0  0  0  0  0  0  0
    1.6667    0.1208    0.0000 C   0  0  0  0  0  0  0  0  0  0  0  0
    2.4000    1.3583    0.0000 C   0  0  0  0  0  0  0  0  0  0  0  0
    2.4042    2.1708    0.0000 C   0  0  0  0  0  0  0  0  0  0  0  0
    3.8250   -0.3000    0.0000 Cl  0  0  0  0  0  0  0  0  0  0  0  0
   -1.1708    3.4208    0.0000 C   0  0  0  0  0  0  0  0  0  0  0  0
    2.3750   -1.1250    0.0000 F   0  0  0  0  0  0  0  0  0  0  0  0
    1.6792    0.9583    0.0000 C   0  0  0  0  0  0  0  0  0  0  0  0
    0.2625    3.4208    0.0000 C   0  0  0  0  0  0  0  0  0  0  0  0
   -0.4583    3.8333    0.0000 C   0  0  0  0  0  0  0  0  0  0  0  0
   -3.8083    3.8375    0.0000 C   0  0  0  0  0  0  0  0  0  0  0  0
   -5.1708    3.3958    0.0000 C   0  0  0  0  0  0  0  0  0  0  0  0
   -4.0708    4.6167    0.0000 C   0  0  0  0  0  0  0  0  0  0  0  0
   -5.4333    4.1667    0.0000 C   0  0  0  0  0  0  0  0  0  0  0  0
   -4.8750    4.7792    0.0000 C   0  0  0  0  0  0  0  0  0  0  0  0
  1  2  2  0  0  0  0
  3  4  2  0  0  0  0
  1  4  1  0  0  0  0
  3  5  1  0  0  0  0
  2  6  1  0  0  0  0
  1  7  1  0  0  0  0
  2  8  1  0  0  0  0
  3  9  1  0  0  0  0
  7 10  2  0  0  0  0
 11 13  1  0  0  0  0
 11 12  1  0  0  0  0
  9 13  1  0  0  0  0
 12 14  1  0  0  0  0
 15 20  1  0  0  0  0
  7 16  1  0  0  0  0
  6 17  2  0  0  0  0
 18 21  1  0  0  0  0
 12 19  2  0  0  0  0
 20 22  2  0  0  0  0
 21 27  2  0  0  0  0
 22 23  1  0  0  0  0
 14 23  1  0  0  0  0
 15 24  1  0  0  0  0
  9 25  1  0  0  0  0
 18 26  1  0  0  0  0
 22 27  1  0  0  0  0
 28 29  1  0  0  0  0
 25 29  1  0  0  0  0
 16 30  1  0  0  0  0
 16 31  2  0  0  0  0
 30 32  2  0  0  0  0
 31 33  1  0  0  0  0
 33 34  2  0  0  0  0
  8 10  1  0  0  0  0
  5  6  1  0  0  0  0
 32 34  1  0  0  0  0
 11 28  1  0  0  0  0
 15 18  2  0  0  0  0
M  END
> <MOLFORMULA>
C25 H22 Cl F N4 O2 S

> <MOLWEIGHT>
4.969918000000000e+002

> <IDNUMBER>
AT-687/PE25951

> <PRICE>
EUR 80/10 mg

> <Similarity score>
0.20

$$$$

  -OEChem-04222410502D

 32 36  0     0  0  0  0  0  0999 V2000
    4.3292   -4.8750    0.0000 C   0  0  0  0  0  0  0  0  0  0  0  0
    5.6292   -4.5917    0.0000 C   0  0  0  0  0  0  0  0  0  0  0  0
    3.2542   -4.0917    0.0000 O   0  0  0  0  0  0  0  0  0  0  0  0
    3.9167   -6.1417    0.0000 C   0  0  0  0  0  0  0  0  0  0  0  0
    6.0500   -3.3417    0.0000 N   0  0  3  0  0  0  0  0  0  0  0  0
    2.6000   -6.1500    0.0000 C   0  0  0  0  0  0  0  0  0  0  0  0
    2.1750   -4.8917    0.0000 C   0  0  0  0  0  0  0  0  0  0  0  0
    7.7667   -1.8000    0.0000 C   0  0  3  0  0  0  0  0  0  0  0  0
    9.0750   -1.5417    0.0000 C   0  0  0  0  0  0  0  0  0  0  0  0
    6.5250   -5.6000    0.0000 N   0  0  0  0  0  0  0  0  0  0  0  0
    7.3750   -3.0667    0.0000 C   0  0  0  0  0  0  0  0  0  0  0  0
    4.8000   -7.1250    0.0000 N   0  0  0  0  0  0  0  0  0  0  0  0
    9.4917   -0.2500    0.0000 N   0  0  0  0  0  0  0  0  0  0  0  0
    6.1000   -6.8667    0.0000 C   0  0  0  0  0  0  0  0  0  0  0  0
    9.9750   -2.5250    0.0000 O   0  0  0  0  0  0  0  0  0  0  0  0
   10.7917   -0.0000    0.0000 C   0  0  0  0  0  0  0  0  0  0  0  0
    5.1667   -2.3500    0.0000 C   0  0  0  0  0  0  0  0  0  0  0  0
   12.9542   -0.7000    0.0000 C   0  0  0  0  0  0  0  0  0  0  0  0
   11.6500   -0.9667    0.0000 C   0  0  0  0  0  0  0  0  0  0  0  0
   13.8417   -1.6750    0.0000 C   0  0  0  0  0  0  0  0  0  0  0  0
    6.8792   -0.8042    0.0000 C   0  0  0  0  0  0  0  0  0  0  0  0
    1.7167   -7.1250    0.0000 C   0  0  0  0  0  0  0  0  0  0  0  0
    0.8750   -4.5917    0.0000 C   0  0  0  0  0  0  0  0  0  0  0  0
   15.1500   -1.3792    0.0000 O   0  0  0  0  0  0  0  0  0  0  0  0
    5.5792   -1.0917    0.0000 C   0  0  0  0  0  0  0  0  0  0  0  0
   12.1250   -3.2000    0.0000 C   0  0  0  0  0  0  0  0  0  0  0  0
   11.2417   -2.2167    0.0000 C   0  0  0  0  0  0  0  0  0  0  0  0
   13.4250   -2.9500    0.0000 C   0  0  0  0  0  0  0  0  0  0  0  0
   16.0250   -2.3750    0.0000 C   0  0  0  0  0  0  0  0  0  0  0  0
    0.3917   -6.8500    0.0000 C   0  0  0  0  0  0  0  0  0  0  0  0
    0.0000   -5.6000    0.0000 C   0  0  0  0  0  0  0  0  0  0  0  0
   17.3500   -2.0917    0.0000 C   0  0  0  0  0  0  0  0  0  0  0  0
  1  2  2  0  0  0  0
  1  3  1  0  0  0  0
  1  4  1  0  0  0  0
  2  5  1  0  0  0  0
  4  6  1  0  0  0  0
  3  7  1  0  0  0  0
  8 11  1  0  0  0  0
  8  9  1  0  0  0  0
  2 10  1  0  0  0  0
  5 11  1  0  0  0  0
  4 12  2  0  0  0  0
  9 13  1  0  0  0  0
 12 14  1  0  0  0  0
  9 15  2  0  0  0  0
 13 16  1  0  0  0  0
  5 17  1  0  0  0  0
 18 19  2  0  0  0  0
 16 19  1  0  0  0  0
 18 20  1  0  0  0  0
 21 25  1  0  0  0  0
  6 22  1  0  0  0  0
  7 23  1  0  0  0  0
 20 24  1  0  0  0  0
 17 25  1  0  0  0  0
 26 27  2  0  0  0  0
 19 27  1  0  0  0  0
 26 28  1  0  0  0  0
 24 29  1  0  0  0  0
 22 30  2  0  0  0  0
 23 31  2  0  0  0  0
 29 32  1  0  0  0  0
  6  7  2  0  0  0  0
 10 14  2  0  0  0  0
 30 31  1  0  0  0  0
  8 21  1  0  0  0  0
 20 28  2  0  0  0  0
M  END
> <MOLFORMULA>
C25 H26 N4 O3

> <MOLWEIGHT>
4.305054000000000e+002

> <IDNUMBER>
AT-687/PE16771

> <PRICE>
EUR 80/10 mg

> <Similarity score>
0.20

$$$$

  -OEChem-04222410502D

 30 34  0     0  0  0  0  0  0999 V2000
    4.3292   -4.8750    0.0000 C   0  0  0  0  0  0  0  0  0  0  0  0
    5.6417   -4.6000    0.0000 C   0  0  0  0  0  0  0  0  0  0  0  0
    3.2542   -4.0917    0.0000 O   0  0  0  0  0  0  0  0  0  0  0  0
    3.9167   -6.1417    0.0000 C   0  0  0  0  0  0  0  0  0  0  0  0
    6.0500   -3.3500    0.0000 N   0  0  3  0  0  0  0  0  0  0  0  0
    2.5917   -6.1500    0.0000 C   0  0  0  0  0  0  0  0  0  0  0  0
    2.1750   -4.8750    0.0000 C   0  0  0  0  0  0  0  0  0  0  0  0
    7.7750   -1.8167    0.0000 C   0  0  3  0  0  0  0  0  0  0  0  0
    9.0750   -1.5250    0.0000 C   0  0  0  0  0  0  0  0  0  0  0  0
    6.5250   -5.6000    0.0000 N   0  0  0  0  0  0  0  0  0  0  0  0
    7.3500   -3.0750    0.0000 C   0  0  0  0  0  0  0  0  0  0  0  0
    4.8042   -7.1250    0.0000 N   0  0  0  0  0  0  0  0  0  0  0  0
    9.4917   -0.2500    0.0000 N   0  0  0  0  0  0  0  0  0  0  0  0
    6.1042   -6.8750    0.0000 C   0  0  0  0  0  0  0  0  0  0  0  0
    9.9667   -2.5167    0.0000 O   0  0  0  0  0  0  0  0  0  0  0  0
   10.7667   -0.0000    0.0000 C   0  0  0  0  0  0  0  0  0  0  0  0
    5.1667   -2.3542    0.0000 C   0  0  0  0  0  0  0  0  0  0  0  0
   13.4250   -2.9500    0.0000 C   0  0  0  0  0  0  0  0  0  0  0  0
   11.6667   -0.9667    0.0000 C   0  0  0  0  0  0  0  0  0  0  0  0
   14.3167   -3.9500    0.0000 F   0  0  0  0  0  0  0  0  0  0  0  0
    6.8792   -0.8042    0.0000 C   0  0  0  0  0  0  0  0  0  0  0  0
    1.7000   -7.1250    0.0000 C   0  0  0  0  0  0  0  0  0  0  0  0
   12.1250   -3.2250    0.0000 C   0  0  0  0  0  0  0  0  0  0  0  0
   13.8500   -1.6792    0.0000 C   0  0  0  0  0  0  0  0  0  0  0  0
   11.2500   -2.2167    0.0000 C   0  0  0  0  0  0  0  0  0  0  0  0
   12.9750   -0.7000    0.0000 C   0  0  0  0  0  0  0  0  0  0  0  0
    0.8792   -4.6000    0.0000 C   0  0  0  0  0  0  0  0  0  0  0  0
    5.5750   -1.0792    0.0000 C   0  0  0  0  0  0  0  0  0  0  0  0
    0.4000   -6.8500    0.0000 C   0  0  0  0  0  0  0  0  0  0  0  0
    0.0000   -5.6000    0.0000 C   0  0  0  0  0  0  0  0  0  0  0  0
  1  2  2  0  0  0  0
  1  3  1  0  0  0  0
  1  4  1  0  0  0  0
  2  5  1  0  0  0  0
  4  6  1  0  0  0  0
  3  7  1  0  0  0  0
  8 11  1  0  0  0  0
  8  9  1  0  0  0  0
  2 10  1  0  0  0  0
  5 11  1  0  0  0  0
  4 12  2  0  0  0  0
  9 13  1  0  0  0  0
 12 14  1  0  0  0  0
  9 15  2  0  0  0  0
 13 16  1  0  0  0  0
  5 17  1  0  0  0  0
 18 24  2  0  0  0  0
 16 19  1  0  0  0  0
 18 20  1  0  0  0  0
 21 28  1  0  0  0  0
  6 22  1  0  0  0  0
 23 25  2  0  0  0  0
 24 26  1  0  0  0  0
 19 25  1  0  0  0  0
 19 26  2  0  0  0  0
  7 27  1  0  0  0  0
 17 28  1  0  0  0  0
 22 29  2  0  0  0  0
 27 30  2  0  0  0  0
  6  7  2  0  0  0  0
 10 14  2  0  0  0  0
 29 30  1  0  0  0  0
  8 21  1  0  0  0  0
 18 23  1  0  0  0  0
M  END
> <MOLFORMULA>
C23 H21 F N4 O2

> <MOLWEIGHT>
4.044429000000000e+002

> <IDNUMBER>
AT-687/PE16776

> <PRICE>
EUR 80/10 mg

> <Similarity score>
0.19

$$$$

  -OEChem-04222410502D

 30 34  0     0  0  0  0  0  0999 V2000
    4.3417   -4.6792    0.0000 C   0  0  0  0  0  0  0  0  0  0  0  0
    5.6417   -4.4250    0.0000 C   0  0  0  0  0  0  0  0  0  0  0  0
    3.2667   -3.9000    0.0000 O   0  0  0  0  0  0  0  0  0  0  0  0
    3.9250   -5.9500    0.0000 C   0  0  0  0  0  0  0  0  0  0  0  0
    6.0542   -3.1542    0.0000 N   0  0  3  0  0  0  0  0  0  0  0  0
    2.6000   -5.9667    0.0000 C   0  0  0  0  0  0  0  0  0  0  0  0
    9.0750   -1.3292    0.0000 C   0  0  0  0  0  0  0  0  0  0  0  0
    2.1750   -4.6792    0.0000 C   0  0  0  0  0  0  0  0  0  0  0  0
    7.7750   -1.6167    0.0000 C   0  0  3  0  0  0  0  0  0  0  0  0
    6.5250   -5.4000    0.0000 N   0  0  0  0  0  0  0  0  0  0  0  0
    7.3667   -2.8667    0.0000 C   0  0  0  0  0  0  0  0  0  0  0  0
    9.9500   -2.3167    0.0000 N   0  0  0  0  0  0  0  0  0  0  0  0
    4.8042   -6.9500    0.0000 N   0  0  0  0  0  0  0  0  0  0  0  0
    6.1250   -6.6667    0.0000 C   0  0  0  0  0  0  0  0  0  0  0  0
    9.5000   -0.0750    0.0000 O   0  0  0  0  0  0  0  0  0  0  0  0
   11.2500   -2.0417    0.0000 C   0  0  0  0  0  0  0  0  0  0  0  0
    5.1667   -2.1542    0.0000 C   0  0  0  0  0  0  0  0  0  0  0  0
   13.8667   -1.5250    0.0000 C   0  0  0  0  0  0  0  0  0  0  0  0
    6.8792   -0.6167    0.0000 C   0  0  0  0  0  0  0  0  0  0  0  0
    1.7042   -6.9500    0.0000 C   0  0  0  0  0  0  0  0  0  0  0  0
   12.1500   -3.0500    0.0000 C   0  0  0  0  0  0  0  0  0  0  0  0
   11.7000   -0.7917    0.0000 C   0  0  0  0  0  0  0  0  0  0  0  0
   12.9917   -0.5417    0.0000 C   0  0  0  0  0  0  0  0  0  0  0  0
   13.4500   -2.7792    0.0000 C   0  0  0  0  0  0  0  0  0  0  0  0
    0.8792   -4.4000    0.0000 C   0  0  0  0  0  0  0  0  0  0  0  0
   15.1542   -1.2750    0.0000 O   0  0  0  0  0  0  0  0  0  0  0  0
    5.5917   -0.8792    0.0000 C   0  0  0  0  0  0  0  0  0  0  0  0
   15.5750   -0.0000    0.0000 C   0  0  0  0  0  0  0  0  0  0  0  0
    0.4000   -6.6667    0.0000 C   0  0  0  0  0  0  0  0  0  0  0  0
    0.0000   -5.4000    0.0000 C   0  0  0  0  0  0  0  0  0  0  0  0
  1  2  2  0  0  0  0
  1  3  1  0  0  0  0
  1  4  1  0  0  0  0
  2  5  1  0  0  0  0
  4  6  1  0  0  0  0
  7  9  1  0  0  0  0
  3  8  1  0  0  0  0
  9 11  1  0  0  0  0
  2 10  1  0  0  0  0
  5 11  1  0  0  0  0
  7 12  1  0  0  0  0
  4 13  2  0  0  0  0
 13 14  1  0  0  0  0
  7 15  2  0  0  0  0
 12 16  1  0  0  0  0
  5 17  1  0  0  0  0
 18 23  2  0  0  0  0
 19 27  1  0  0  0  0
  6 20  1  0  0  0  0
 16 21  1  0  0  0  0
 16 22  2  0  0  0  0
 22 23  1  0  0  0  0
 21 24  2  0  0  0  0
  8 25  1  0  0  0  0
 18 26  1  0  0  0  0
 17 27  1  0  0  0  0
 26 28  1  0  0  0  0
 20 29  2  0  0  0  0
 25 30  2  0  0  0  0
  6  8  2  0  0  0  0
 10 14  2  0  0  0  0
 29 30  1  0  0  0  0
  9 19  1  0  0  0  0
 18 24  1  0  0  0  0
M  END
> <MOLFORMULA>
C23 H22 N4 O3

> <MOLWEIGHT>
4.024518000000000e+002

> <IDNUMBER>
AT-687/PE16753

> <PRICE>
EUR 80/10 mg

> <Similarity score>
0.19

$$$$

  -OEChem-04222410502D

 28 32  0     0  0  0  0  0  0999 V2000
   -0.5333   -0.4667    0.0000 C   0  0  0  0  0  0  0  0  0  0  0  0
   -0.5458   -1.4667    0.0000 C   0  0  0  0  0  0  0  0  0  0  0  0
    1.2000   -0.4792    0.0000 C   0  0  0  0  0  0  0  0  0  0  0  0
    0.3375    0.0333    0.0000 N   0  0  0  0  0  0  0  0  0  0  0  0
    1.1917   -1.4792    0.0000 N   0  0  0  0  0  0  0  0  0  0  0  0
   -1.4833   -0.1542    0.0000 C   0  0  0  0  0  0  0  0  0  0  0  0
    0.3167   -1.9792    0.0000 C   0  0  0  0  0  0  0  0  0  0  0  0
   -1.4875   -1.7667    0.0000 S   0  0  0  0  0  0  0  0  0  0  0  0
    2.0667    0.0083    0.0000 N   0  0  3  0  0  0  0  0  0  0  0  0
   -2.0750   -0.9625    0.0000 C   0  0  0  0  0  0  0  0  0  0  0  0
   -1.7875    0.7958    0.0000 C   0  0  0  0  0  0  0  0  0  0  0  0
    2.0917    1.0208    0.0000 C   0  0  0  0  0  0  0  0  0  0  0  0
    2.9542    1.4958    0.0000 C   0  0  0  0  0  0  0  0  0  0  0  0
    0.3042   -2.9792    0.0000 O   0  0  0  0  0  0  0  0  0  0  0  0
    2.9375   -0.4917    0.0000 C   0  0  0  0  0  0  0  0  0  0  0  0
   -2.7708    1.0208    0.0000 C   0  0  0  0  0  0  0  0  0  0  0  0
    3.8167    0.9958    0.0000 C   0  0  0  0  0  0  0  0  0  0  0  0
    3.8042   -0.0125    0.0000 C   0  0  0  0  0  0  0  0  0  0  0  0
   -3.0750    1.9583    0.0000 C   0  0  0  0  0  0  0  0  0  0  0  0
   -1.1083    1.5333    0.0000 C   0  0  0  0  0  0  0  0  0  0  0  0
   -4.0333    2.1833    0.0000 O   0  0  0  0  0  0  0  0  0  0  0  0
   -1.4208    2.4833    0.0000 C   0  0  0  0  0  0  0  0  0  0  0  0
    2.9542    2.4833    0.0000 C   0  0  0  0  0  0  0  0  0  0  0  0
    4.6917    1.4958    0.0000 C   0  0  0  0  0  0  0  0  0  0  0  0
   -2.3958    2.6958    0.0000 C   0  0  0  0  0  0  0  0  0  0  0  0
   -4.7083    1.4375    0.0000 C   0  0  0  0  0  0  0  0  0  0  0  0
    3.8167    2.9875    0.0000 C   0  0  0  0  0  0  0  0  0  0  0  0
    4.7000    2.4958    0.0000 C   0  0  0  0  0  0  0  0  0  0  0  0
  1  2  2  0  0  0  0
  3  4  2  0  0  0  0
  1  4  1  0  0  0  0
  3  5  1  0  0  0  0
  1  6  1  0  0  0  0
  2  7  1  0  0  0  0
  2  8  1  0  0  0  0
  3  9  1  0  0  0  0
  6 10  2  0  0  0  0
  6 11  1  0  0  0  0
  9 12  1  0  0  0  0
 12 13  1  0  0  0  0
  7 14  2  0  0  0  0
  9 15  1  0  0  0  0
 11 16  2  0  0  0  0
 17 18  1  0  0  0  0
 15 18  1  0  0  0  0
 16 19  1  0  0  0  0
 11 20  1  0  0  0  0
 19 21  1  0  0  0  0
 20 22  2  0  0  0  0
 13 23  1  0  0  0  0
 17 24  1  0  0  0  0
 22 25  1  0  0  0  0
 21 26  1  0  0  0  0
 23 27  2  0  0  0  0
 24 28  2  0  0  0  0
  8 10  1  0  0  0  0
  5  7  1  0  0  0  0
 19 25  2  0  0  0  0
 13 17  2  0  0  0  0
 27 28  1  0  0  0  0
M  END
> <MOLFORMULA>
C22 H19 N3 O2 S

> <MOLWEIGHT>
3.894771000000000e+002

> <IDNUMBER>
AT-687/PE25847

> <PRICE>
EUR 80/10 mg

> <Similarity score>
0.19

$$$$

  -OEChem-04222410502D

 36 40  0     0  0  0  0  0  0999 V2000
    8.0625   -3.9667    0.0000 S   0  0  3  0  0  0  0  0  0  0  0  0
    8.0625   -5.3042    0.0000 C   0  0  0  0  0  0  0  0  0  0  0  0
    6.9000   -5.9792    0.0000 C   0  0  0  0  0  0  0  0  0  0  0  0
    6.9000   -7.3042    0.0000 C   0  0  0  0  0  0  0  0  0  0  0  0
    5.7625   -5.3042    0.0000 N   0  0  3  0  0  0  0  0  0  0  0  0
    8.0625   -2.6500    0.0000 C   0  0  0  0  0  0  0  0  0  0  0  0
    9.2125   -5.9792    0.0000 C   0  0  0  0  0  0  0  0  0  0  0  0
    9.2125   -7.3042    0.0000 N   0  0  0  0  0  0  0  0  0  0  0  0
    9.2125   -1.9875    0.0000 C   0  0  0  0  0  0  0  0  0  0  0  0
    6.9000   -1.9875    0.0000 C   0  0  0  0  0  0  0  0  0  0  0  0
    8.0625   -7.9792    0.0000 C   0  0  0  0  0  0  0  0  0  0  0  0
    6.7292   -3.9667    0.0000 O   0  0  0  0  0  0  0  0  0  0  0  0
    9.3875   -3.9667    0.0000 O   0  0  0  0  0  0  0  0  0  0  0  0
    2.3000   -7.3042    0.0000 N   0  0  3  0  0  0  0  0  0  0  0  0
    4.6042   -5.9667    0.0000 C   0  0  3  0  0  0  0  0  0  0  0  0
    5.7625   -7.9792    0.0000 C   0  0  0  0  0  0  0  0  0  0  0  0
    9.2125   -0.6625    0.0000 C   0  0  0  0  0  0  0  0  0  0  0  0
    6.9000   -0.6625    0.0000 C   0  0  0  0  0  0  0  0  0  0  0  0
    4.6042   -7.3042    0.0000 C   0  0  0  0  0  0  0  0  0  0  0  0
    8.0625   -0.0000    0.0000 C   0  0  0  0  0  0  0  0  0  0  0  0
    3.4542   -7.9792    0.0000 C   0  0  0  0  0  0  0  0  0  0  0  0
    0.0000   -5.9667    0.0000 O   0  0  0  0  0  0  0  0  0  0  0  0
    8.0625   -9.3042    0.0000 C   0  0  0  0  0  0  0  0  0  0  0  0
    5.7625   -9.3042    0.0000 C   0  0  0  0  0  0  0  0  0  0  0  0
    5.7625   -3.9667    0.0000 C   0  0  0  0  0  0  0  0  0  0  0  0
   10.3625   -0.0000    0.0000 F   0  0  0  0  0  0  0  0  0  0  0  0
    5.7625   -0.0000    0.0000 F   0  0  0  0  0  0  0  0  0  0  0  0
    6.9000   -9.9542    0.0000 C   0  0  0  0  0  0  0  0  0  0  0  0
    4.6042   -9.9542    0.0000 F   0  0  0  0  0  0  0  0  0  0  0  0
    1.1500   -7.9792    0.0000 C   0  0  0  0  0  0  0  0  0  0  0  0
    2.3000   -5.9667    0.0000 C   0  0  0  0  0  0  0  0  0  0  0  0
    1.1500   -5.3042    0.0000 C   0  0  0  0  0  0  0  0  0  0  0  0
    0.0000   -7.2917    0.0000 C   0  0  0  0  0  0  0  0  0  0  0  0
    3.4542   -5.3042    0.0000 C   0  0  0  0  0  0  0  0  0  0  0  0
    4.6042   -3.3042    0.0000 C   0  0  0  0  0  0  0  0  0  0  0  0
    3.4542   -3.9667    0.0000 C   0  0  0  0  0  0  0  0  0  0  0  0
  1  2  1  0  0  0  0
  2  3  2  0  0  0  0
  3  4  1  0  0  0  0
  3  5  1  0  0  0  0
  1  6  1  0  0  0  0
  2  7  1  0  0  0  0
  7  8  2  0  0  0  0
  6  9  2  0  0  0  0
  6 10  1  0  0  0  0
  8 11  1  0  0  0  0
  1 12  2  0  0  0  0
  1 13  2  0  0  0  0
 14 21  1  0  0  0  0
  5 15  1  0  0  0  0
  4 16  2  0  0  0  0
  9 17  1  0  0  0  0
 10 18  2  0  0  0  0
 15 19  1  0  0  0  0
 18 20  1  0  0  0  0
 19 21  1  0  0  0  0
 22 32  1  0  0  0  0
 11 23  2  0  0  0  0
 16 24  1  0  0  0  0
  5 25  1  0  0  0  0
 17 26  1  0  0  0  0
 18 27  1  0  0  0  0
 23 28  1  0  0  0  0
 24 29  1  0  0  0  0
 14 30  1  0  0  0  0
 14 31  1  0  0  0  0
 31 32  1  0  0  0  0
 30 33  1  0  0  0  0
 15 34  1  0  0  0  0
 25 35  1  0  0  0  0
 35 36  1  0  0  0  0
 17 20  2  0  0  0  0
  4 11  1  0  0  0  0
 24 28  2  0  0  0  0
 34 36  1  0  0  0  0
 22 33  1  0  0  0  0
M  END
> <MOLFORMULA>
C26 H28 F3 N3 O3 S

> <MOLWEIGHT>
5.195852000000000e+002

> <IDNUMBER>
AT-687/NB06803

> <PRICE>
EUR 80/10 mg

> <Similarity score>
0.19

$$$$

  -OEChem-04222410502D

 30 34  0     0  0  0  0  0  0999 V2000
    4.3417   -4.6000    0.0000 C   0  0  0  0  0  0  0  0  0  0  0  0
    5.6250   -4.3167    0.0000 C   0  0  0  0  0  0  0  0  0  0  0  0
    3.2667   -3.8042    0.0000 O   0  0  0  0  0  0  0  0  0  0  0  0
    3.9167   -5.8667    0.0000 C   0  0  0  0  0  0  0  0  0  0  0  0
    6.0500   -3.0667    0.0000 N   0  0  3  0  0  0  0  0  0  0  0  0
    2.6000   -5.8667    0.0000 C   0  0  0  0  0  0  0  0  0  0  0  0
    9.0750   -1.2500    0.0000 C   0  0  0  0  0  0  0  0  0  0  0  0
    2.1750   -4.6000    0.0000 C   0  0  0  0  0  0  0  0  0  0  0  0
    7.7667   -1.5250    0.0000 C   0  0  3  0  0  0  0  0  0  0  0  0
    6.5250   -5.3042    0.0000 N   0  0  0  0  0  0  0  0  0  0  0  0
    7.3500   -2.7750    0.0000 C   0  0  0  0  0  0  0  0  0  0  0  0
    9.9417   -2.2292    0.0000 N   0  0  0  0  0  0  0  0  0  0  0  0
    4.7917   -6.8500    0.0000 N   0  0  0  0  0  0  0  0  0  0  0  0
    6.1167   -6.5750    0.0000 C   0  0  0  0  0  0  0  0  0  0  0  0
   13.4417   -2.6750    0.0000 C   0  0  0  0  0  0  0  0  0  0  0  0
   11.2500   -1.9500    0.0000 C   0  0  0  0  0  0  0  0  0  0  0  0
    9.4917   -0.0000    0.0000 O   0  0  0  0  0  0  0  0  0  0  0  0
   12.1250   -2.9667    0.0000 C   0  0  0  0  0  0  0  0  0  0  0  0
   13.8500   -1.4292    0.0000 C   0  0  0  0  0  0  0  0  0  0  0  0
   12.9500   -0.4292    0.0000 C   0  0  0  0  0  0  0  0  0  0  0  0
    5.1542   -2.0667    0.0000 C   0  0  0  0  0  0  0  0  0  0  0  0
   11.6667   -0.7000    0.0000 C   0  0  0  0  0  0  0  0  0  0  0  0
    6.8792   -0.5417    0.0000 C   0  0  0  0  0  0  0  0  0  0  0  0
    1.7000   -6.8500    0.0000 C   0  0  0  0  0  0  0  0  0  0  0  0
    0.8917   -4.3042    0.0000 C   0  0  0  0  0  0  0  0  0  0  0  0
    5.5750   -0.8000    0.0000 C   0  0  0  0  0  0  0  0  0  0  0  0
   14.3167   -3.6917    0.0000 C   0  0  0  0  0  0  0  0  0  0  0  0
   15.1292   -1.1500    0.0000 C   0  0  0  0  0  0  0  0  0  0  0  0
    0.4000   -6.5750    0.0000 C   0  0  0  0  0  0  0  0  0  0  0  0
    0.0000   -5.3042    0.0000 C   0  0  0  0  0  0  0  0  0  0  0  0
  1  2  2  0  0  0  0
  1  3  1  0  0  0  0
  1  4  1  0  0  0  0
  2  5  1  0  0  0  0
  4  6  1  0  0  0  0
  7  9  1  0  0  0  0
  3  8  1  0  0  0  0
  9 11  1  0  0  0  0
  2 10  1  0  0  0  0
  5 11  1  0  0  0  0
  7 12  1  0  0  0  0
  4 13  2  0  0  0  0
 13 14  1  0  0  0  0
 15 18  1  0  0  0  0
 12 16  1  0  0  0  0
  7 17  2  0  0  0  0
 16 18  2  0  0  0  0
 19 20  1  0  0  0  0
 20 22  2  0  0  0  0
  5 21  1  0  0  0  0
 16 22  1  0  0  0  0
 23 26  1  0  0  0  0
  6 24  1  0  0  0  0
  8 25  1  0  0  0  0
 21 26  1  0  0  0  0
 15 27  1  0  0  0  0
 19 28  1  0  0  0  0
 24 29  2  0  0  0  0
 25 30  2  0  0  0  0
  6  8  2  0  0  0  0
 10 14  2  0  0  0  0
 29 30  1  0  0  0  0
  9 23  1  0  0  0  0
 15 19  2  0  0  0  0
M  END
> <MOLFORMULA>
C24 H24 N4 O2

> <MOLWEIGHT>
4.004796000000000e+002

> <IDNUMBER>
AT-687/PE16751

> <PRICE>
EUR 80/10 mg

> <Similarity score>
0.19

$$$$

  -OEChem-04222410502D

 29 32  0     0  0  0  0  0  0999 V2000
    7.3042   -4.4042    0.0000 S   0  0  3  0  0  0  0  0  0  0  0  0
    5.9917   -4.4042    0.0000 C   0  0  0  0  0  0  0  0  0  0  0  0
    5.3250   -3.2542    0.0000 C   0  0  0  0  0  0  0  0  0  0  0  0
    5.9792   -2.1000    0.0000 N   0  0  3  0  0  0  0  0  0  0  0  0
    8.6500   -4.4042    0.0000 C   0  0  0  0  0  0  0  0  0  0  0  0
    3.9917   -3.2542    0.0000 C   0  0  0  0  0  0  0  0  0  0  0  0
    3.3292   -4.4042    0.0000 C   0  0  0  0  0  0  0  0  0  0  0  0
    4.0000   -5.5625    0.0000 N   0  0  0  0  0  0  0  0  0  0  0  0
    5.3250   -5.5625    0.0000 C   0  0  0  0  0  0  0  0  0  0  0  0
    9.3167   -5.5625    0.0000 C   0  0  0  0  0  0  0  0  0  0  0  0
    9.3042   -3.2542    0.0000 C   0  0  0  0  0  0  0  0  0  0  0  0
    7.3042   -3.0750    0.0000 O   0  0  0  0  0  0  0  0  0  0  0  0
    7.3042   -5.7292    0.0000 O   0  0  0  0  0  0  0  0  0  0  0  0
    3.3250   -2.1000    0.0000 C   0  0  0  0  0  0  0  0  0  0  0  0
    2.0000   -4.4042    0.0000 C   0  0  0  0  0  0  0  0  0  0  0  0
   10.6417   -5.5625    0.0000 C   0  0  0  0  0  0  0  0  0  0  0  0
   10.6417   -3.2542    0.0000 C   0  0  0  0  0  0  0  0  0  0  0  0
    7.3042   -1.9667    0.0000 C   0  0  3  0  0  0  0  0  0  0  0  0
   11.3042   -4.4042    0.0000 C   0  0  0  0  0  0  0  0  0  0  0  0
    1.3292   -3.2542    0.0000 C   0  0  0  0  0  0  0  0  0  0  0  0
    5.4500   -0.8917    0.0000 C   0  0  0  0  0  0  0  0  0  0  0  0
    1.9875   -2.1000    0.0000 C   0  0  0  0  0  0  0  0  0  0  0  0
   11.3042   -6.7042    0.0000 Cl  0  0  0  0  0  0  0  0  0  0  0  0
   11.2917   -2.1000    0.0000 Cl  0  0  0  0  0  0  0  0  0  0  0  0
    0.0000   -3.2542    0.0000 F   0  0  0  0  0  0  0  0  0  0  0  0
    9.5000   -2.6792    0.0000 O   0  0  0  0  0  0  0  0  0  0  0  0
    6.4292   -0.0000    0.0000 C   0  0  0  0  0  0  0  0  0  0  0  0
    8.2000   -2.9500    0.0000 C   0  0  0  0  0  0  0  0  0  0  0  0
    7.5875   -0.6667    0.0000 C   0  0  0  0  0  0  0  0  0  0  0  0
  1  2  1  0  0  0  0
  2  3  2  0  0  0  0
  3  4  1  0  0  0  0
  1  5  1  0  0  0  0
  3  6  1  0  0  0  0
  7  8  1  0  0  0  0
  8  9  2  0  0  0  0
  2  9  1  0  0  0  0
  5 10  2  0  0  0  0
  5 11  1  0  0  0  0
  1 12  2  0  0  0  0
  1 13  2  0  0  0  0
  6 14  2  0  0  0  0
  7 15  2  0  0  0  0
 10 16  1  0  0  0  0
 11 17  2  0  0  0  0
  4 18  1  0  0  0  0
 17 19  1  0  0  0  0
 15 20  1  0  0  0  0
  4 21  1  0  0  0  0
 14 22  1  0  0  0  0
 16 23  1  0  0  0  0
 17 24  1  0  0  0  0
 20 25  1  0  0  0  0
 26 28  1  0  0  0  0
 21 27  1  0  0  0  0
 18 28  1  0  0  0  0
 18 29  1  0  0  0  0
 16 19  2  0  0  0  0
  6  7  1  0  0  0  0
 20 22  2  0  0  0  0
 27 29  1  0  0  0  0
M  END
> <MOLFORMULA>
C20 H17 Cl2 F N2 O3 S

> <MOLWEIGHT>
4.553353000000000e+002

> <IDNUMBER>
AT-687/NB06820

> <PRICE>
EUR 80/10 mg

> <Similarity score>
0.19

$$$$

  -OEChem-04222410502D

 32 36  0     0  0  0  0  0  0999 V2000
    4.3250   -6.9542    0.0000 C   0  0  0  0  0  0  0  0  0  0  0  0
    5.6250   -6.6917    0.0000 C   0  0  0  0  0  0  0  0  0  0  0  0
    3.2542   -6.1750    0.0000 O   0  0  0  0  0  0  0  0  0  0  0  0
    3.9042   -8.2167    0.0000 C   0  0  0  0  0  0  0  0  0  0  0  0
    6.0500   -5.4292    0.0000 N   0  0  3  0  0  0  0  0  0  0  0  0
    2.5917   -8.2250    0.0000 C   0  0  0  0  0  0  0  0  0  0  0  0
    2.1750   -6.9750    0.0000 C   0  0  0  0  0  0  0  0  0  0  0  0
    7.7750   -3.8917    0.0000 C   0  0  3  0  0  0  0  0  0  0  0  0
    9.0750   -3.6250    0.0000 C   0  0  0  0  0  0  0  0  0  0  0  0
    6.5250   -7.6667    0.0000 N   0  0  0  0  0  0  0  0  0  0  0  0
    7.3667   -5.1500    0.0000 C   0  0  0  0  0  0  0  0  0  0  0  0
    4.8000   -9.2042    0.0000 N   0  0  0  0  0  0  0  0  0  0  0  0
    9.4750   -2.3292    0.0000 N   0  0  0  0  0  0  0  0  0  0  0  0
    6.1167   -8.9500    0.0000 C   0  0  0  0  0  0  0  0  0  0  0  0
   11.6500   -3.0500    0.0000 C   0  0  0  0  0  0  0  0  0  0  0  0
   10.7667   -2.0750    0.0000 C   0  0  0  0  0  0  0  0  0  0  0  0
    9.9667   -4.6000    0.0000 O   0  0  0  0  0  0  0  0  0  0  0  0
   12.9500   -2.7917    0.0000 C   0  0  0  0  0  0  0  0  0  0  0  0
    5.1542   -4.4292    0.0000 C   0  0  0  0  0  0  0  0  0  0  0  0
    6.8792   -2.9000    0.0000 C   0  0  0  0  0  0  0  0  0  0  0  0
    1.7000   -9.2042    0.0000 C   0  0  0  0  0  0  0  0  0  0  0  0
   13.3667   -1.5292    0.0000 O   0  0  0  0  0  0  0  0  0  0  0  0
    0.8792   -6.6917    0.0000 C   0  0  0  0  0  0  0  0  0  0  0  0
    5.5792   -3.1667    0.0000 C   0  0  0  0  0  0  0  0  0  0  0  0
   11.2292   -4.3000    0.0000 C   0  0  0  0  0  0  0  0  0  0  0  0
   13.8500   -3.7500    0.0000 C   0  0  0  0  0  0  0  0  0  0  0  0
   14.6750   -1.2667    0.0000 C   0  0  0  0  0  0  0  0  0  0  0  0
    0.4000   -8.9417    0.0000 C   0  0  0  0  0  0  0  0  0  0  0  0
    0.0000   -7.6667    0.0000 C   0  0  0  0  0  0  0  0  0  0  0  0
   15.1000   -0.0000    0.0000 C   0  0  0  0  0  0  0  0  0  0  0  0
   12.1250   -5.3167    0.0000 C   0  0  0  0  0  0  0  0  0  0  0  0
   13.4250   -5.0250    0.0000 C   0  0  0  0  0  0  0  0  0  0  0  0
  1  2  2  0  0  0  0
  1  3  1  0  0  0  0
  1  4  1  0  0  0  0
  2  5  1  0  0  0  0
  4  6  1  0  0  0  0
  3  7  1  0  0  0  0
  8 11  1  0  0  0  0
  8  9  1  0  0  0  0
  2 10  1  0  0  0  0
  5 11  1  0  0  0  0
  4 12  2  0  0  0  0
  9 13  1  0  0  0  0
 12 14  1  0  0  0  0
 15 16  1  0  0  0  0
 13 16  1  0  0  0  0
  9 17  2  0  0  0  0
 15 18  2  0  0  0  0
  5 19  1  0  0  0  0
 20 24  1  0  0  0  0
  6 21  1  0  0  0  0
 18 22  1  0  0  0  0
  7 23  1  0  0  0  0
 19 24  1  0  0  0  0
 15 25  1  0  0  0  0
 18 26  1  0  0  0  0
 22 27  1  0  0  0  0
 21 28  2  0  0  0  0
 23 29  2  0  0  0  0
 27 30  1  0  0  0  0
 25 31  2  0  0  0  0
 31 32  1  0  0  0  0
  6  7  2  0  0  0  0
 10 14  2  0  0  0  0
 28 29  1  0  0  0  0
  8 20  1  0  0  0  0
 26 32  2  0  0  0  0
M  END
> <MOLFORMULA>
C25 H26 N4 O3

> <MOLWEIGHT>
4.305054000000000e+002

> <IDNUMBER>
AT-687/PE16770

> <PRICE>
EUR 80/10 mg

> <Similarity score>
0.19

$$$$

  -OEChem-04222410502D

 36 40  0     0  0  0  0  0  0999 V2000
    1.0000    1.7333    0.0000 C   0  0  0  0  0  0  0  0  0  0  0  0
    0.4958    2.6000    0.0000 C   0  0  0  0  0  0  0  0  0  0  0  0
    1.9958    1.7333    0.0000 C   0  0  0  0  0  0  0  0  0  0  0  0
    0.4958    0.8667    0.0000 N   0  0  3  0  0  0  0  0  0  0  0  0
    1.0000    3.4667    0.0000 C   0  0  0  0  0  0  0  0  0  0  0  0
    2.5000    2.6000    0.0000 N   0  0  0  0  0  0  0  0  0  0  0  0
    1.9958    3.4667    0.0000 C   0  0  0  0  0  0  0  0  0  0  0  0
    0.4958   -0.8625    0.0000 C   0  0  3  0  0  0  0  0  0  0  0  0
    1.0000   -1.7292    0.0000 C   0  0  0  0  0  0  0  0  0  0  0  0
    1.0000   -0.0000    0.0000 C   0  0  0  0  0  0  0  0  0  0  0  0
    0.4958   -2.5958    0.0000 N   0  0  0  0  0  0  0  0  0  0  0  0
    0.4958    4.3292    0.0000 C   0  0  0  0  0  0  0  0  0  0  0  0
   -0.5000    2.6000    0.0000 C   0  0  0  0  0  0  0  0  0  0  0  0
    2.5000    0.8667    0.0000 O   0  0  0  0  0  0  0  0  0  0  0  0
    0.4958   -4.3292    0.0000 C   0  0  0  0  0  0  0  0  0  0  0  0
    1.0000   -3.4625    0.0000 C   0  0  0  0  0  0  0  0  0  0  0  0
    1.9958   -1.7292    0.0000 O   0  0  0  0  0  0  0  0  0  0  0  0
    2.5000    4.3292    0.0000 C   0  0  0  0  0  0  0  0  0  0  0  0
    1.0000   -5.1958    0.0000 C   0  0  0  0  0  0  0  0  0  0  0  0
   -0.5000    0.8667    0.0000 C   0  0  0  0  0  0  0  0  0  0  0  0
    1.0000    5.1958    0.0000 C   0  0  0  0  0  0  0  0  0  0  0  0
    1.9958    5.1958    0.0000 C   0  0  0  0  0  0  0  0  0  0  0  0
    0.4958    6.0583    0.0000 Cl  0  0  0  0  0  0  0  0  0  0  0  0
   -0.5000   -0.8625    0.0000 C   0  0  0  0  0  0  0  0  0  0  0  0
    1.9958   -5.1958    0.0000 O   0  0  0  0  0  0  0  0  0  0  0  0
   -1.0042   -0.0000    0.0000 C   0  0  0  0  0  0  0  0  0  0  0  0
   -0.5000   -4.3292    0.0000 C   0  0  0  0  0  0  0  0  0  0  0  0
   -1.0042    3.4667    0.0000 C   0  0  0  0  0  0  0  0  0  0  0  0
   -1.0042    1.7333    0.0000 C   0  0  0  0  0  0  0  0  0  0  0  0
    0.4958   -6.0583    0.0000 C   0  0  0  0  0  0  0  0  0  0  0  0
    2.5000   -6.0583    0.0000 C   0  0  0  0  0  0  0  0  0  0  0  0
   -1.0042   -5.1958    0.0000 C   0  0  0  0  0  0  0  0  0  0  0  0
   -0.5000   -6.0583    0.0000 C   0  0  0  0  0  0  0  0  0  0  0  0
   -2.0000    3.4667    0.0000 C   0  0  0  0  0  0  0  0  0  0  0  0
   -2.0000    1.7333    0.0000 C   0  0  0  0  0  0  0  0  0  0  0  0
   -2.5042    2.6000    0.0000 C   0  0  0  0  0  0  0  0  0  0  0  0
  1  2  2  0  0  0  0
  1  3  1  0  0  0  0
  1  4  1  0  0  0  0
  2  5  1  0  0  0  0
  3  6  1  0  0  0  0
  6  7  1  0  0  0  0
  8 10  1  0  0  0  0
  8  9  1  0  0  0  0
  4 10  1  0  0  0  0
  9 11  1  0  0  0  0
  5 12  1  0  0  0  0
  2 13  1  0  0  0  0
  3 14  2  0  0  0  0
 15 16  1  0  0  0  0
 11 16  1  0  0  0  0
  9 17  2  0  0  0  0
  7 18  1  0  0  0  0
 15 19  2  0  0  0  0
  4 20  1  0  0  0  0
 12 21  2  0  0  0  0
 18 22  2  0  0  0  0
 21 23  1  0  0  0  0
 24 26  1  0  0  0  0
 19 25  1  0  0  0  0
 20 26  1  0  0  0  0
 15 27  1  0  0  0  0
 13 28  2  0  0  0  0
 13 29  1  0  0  0  0
 19 30  1  0  0  0  0
 25 31  1  0  0  0  0
 27 32  2  0  0  0  0
 32 33  1  0  0  0  0
 28 34  1  0  0  0  0
 29 35  2  0  0  0  0
 35 36  1  0  0  0  0
  5  7  2  0  0  0  0
  8 24  1  0  0  0  0
 21 22  1  0  0  0  0
 34 36  2  0  0  0  0
 30 33  2  0  0  0  0
M  END
> <MOLFORMULA>
C29 H28 Cl N3 O3

> <MOLWEIGHT>
5.020112000000000e+002

> <IDNUMBER>
AN-153/I261764

> <PRICE>
EUR 130/10 mg

> <Similarity score>
0.19

$$$$

  -OEChem-04222410502D

 31 34  0     0  0  0  0  0  0999 V2000
    8.3167   -0.3917    0.0000 N   0  0  3  0  0  0  0  0  0  0  0  0
    8.3125    0.6083    0.0000 C   0  0  0  0  0  0  0  0  0  0  0  0
    6.5792    0.5958    0.0000 C   0  0  0  0  0  0  0  0  0  0  0  0
    7.4500    1.1000    0.0000 N   0  0  0  0  0  0  0  0  0  0  0  0
    7.4500   -0.9000    0.0000 C   0  0  0  0  0  0  0  0  0  0  0  0
    5.7125    1.1000    0.0000 N   0  0  0  0  0  0  0  0  0  0  0  0
    6.5792   -0.3917    0.0000 C   0  0  0  0  0  0  0  0  0  0  0  0
    4.8500    0.6000    0.0000 C   0  0  0  0  0  0  0  0  0  0  0  0
    3.9792    1.0958    0.0000 N   0  0  3  0  0  0  0  0  0  0  0  0
    9.3542   -0.9917    0.0000 C   0  0  0  0  0  0  0  0  0  0  0  0
    4.8542   -0.4042    0.0000 N   0  0  0  0  0  0  0  0  0  0  0  0
    3.1125    2.5958    0.0000 C   0  0  3  0  0  0  0  0  0  0  0  0
    5.7167   -0.9000    0.0000 C   0  0  0  0  0  0  0  0  0  0  0  0
    3.9792    2.1000    0.0000 C   0  0  0  0  0  0  0  0  0  0  0  0
    3.1125    3.5958    0.0000 C   0  0  0  0  0  0  0  0  0  0  0  0
    9.3542   -1.9917    0.0000 C   0  0  0  0  0  0  0  0  0  0  0  0
    9.1750    1.1083    0.0000 O   0  0  0  0  0  0  0  0  0  0  0  0
    7.4500   -1.5000    0.0000 O   0  0  0  0  0  0  0  0  0  0  0  0
   10.2292   -2.4917    0.0000 C   0  0  0  0  0  0  0  0  0  0  0  0
    3.9792    4.0917    0.0000 O   0  0  0  0  0  0  0  0  0  0  0  0
    2.2500    4.0792    0.0000 O   0  0  0  0  0  0  0  0  0  0  0  0
   11.0917   -1.9917    0.0000 F   0  0  0  0  0  0  0  0  0  0  0  0
    3.1167    0.5958    0.0000 C   0  0  0  0  0  0  0  0  0  0  0  0
    2.2500    2.0958    0.0000 C   0  0  0  0  0  0  0  0  0  0  0  0
    8.5000   -2.4917    0.0000 C   0  0  0  0  0  0  0  0  0  0  0  0
    2.2417    1.0958    0.0000 C   0  0  0  0  0  0  0  0  0  0  0  0
   10.2292   -3.4917    0.0000 C   0  0  0  0  0  0  0  0  0  0  0  0
    1.3792    3.5833    0.0000 C   0  0  0  0  0  0  0  0  0  0  0  0
    8.5000   -3.4917    0.0000 C   0  0  0  0  0  0  0  0  0  0  0  0
    0.5167    4.0750    0.0000 C   0  0  0  0  0  0  0  0  0  0  0  0
    9.3542   -3.9917    0.0000 C   0  0  0  0  0  0  0  0  0  0  0  0
  1  2  1  0  0  0  0
  3  7  2  0  0  0  0
  2  4  1  0  0  0  0
  1  5  1  0  0  0  0
  3  6  1  0  0  0  0
  5  7  1  0  0  0  0
  8 11  1  0  0  0  0
  8  9  1  0  0  0  0
  1 10  1  0  0  0  0
 11 13  2  0  0  0  0
 12 14  1  0  0  0  0
  7 13  1  0  0  0  0
  9 14  1  0  0  0  0
 12 15  1  0  0  0  0
 10 16  1  0  0  0  0
  2 17  2  0  0  0  0
  5 18  2  0  0  0  0
 16 19  2  0  0  0  0
 15 20  2  0  0  0  0
 15 21  1  0  0  0  0
 19 22  1  0  0  0  0
  9 23  1  0  0  0  0
 24 26  1  0  0  0  0
 16 25  1  0  0  0  0
 23 26  1  0  0  0  0
 19 27  1  0  0  0  0
 21 28  1  0  0  0  0
 25 29  2  0  0  0  0
 28 30  1  0  0  0  0
 29 31  1  0  0  0  0
  3  4  1  0  0  0  0
 27 31  2  0  0  0  0
  6  8  2  0  0  0  0
 12 24  1  0  0  0  0
M  END
> <MOLFORMULA>
C21 H22 F N5 O4

> <MOLWEIGHT>
4.274338000000000e+002

> <IDNUMBER>
AT-687/PE12739

> <PRICE>
EUR 80/10 mg

> <Similarity score>
0.19

$$$$

  -OEChem-04222410502D

 35 39  0     0  0  0  0  0  0999 V2000
   -3.3208    2.1875    0.0000 C   0  0  0  0  0  0  0  0  0  0  0  0
   -3.3125    1.3583    0.0000 C   0  0  0  0  0  0  0  0  0  0  0  0
   -1.8833    2.1875    0.0000 C   0  0  0  0  0  0  0  0  0  0  0  0
   -2.6083    2.6083    0.0000 N   0  0  0  0  0  0  0  0  0  0  0  0
   -1.8833    1.3583    0.0000 N   0  0  0  0  0  0  0  0  0  0  0  0
   -4.1000    2.4333    0.0000 C   0  0  0  0  0  0  0  0  0  0  0  0
   -2.6000    0.9458    0.0000 C   0  0  0  0  0  0  0  0  0  0  0  0
   -4.0958    1.1000    0.0000 S   0  0  0  0  0  0  0  0  0  0  0  0
   -1.1708    2.6000    0.0000 N   0  0  3  0  0  0  0  0  0  0  0  0
   -4.5833    1.7708    0.0000 C   0  0  0  0  0  0  0  0  0  0  0  0
   -4.3625    3.2208    0.0000 C   0  0  0  0  0  0  0  0  0  0  0  0
    0.2542    2.5958    0.0000 C   0  0  3  0  0  0  0  0  0  0  0  0
    0.9750    2.1750    0.0000 C   0  0  0  0  0  0  0  0  0  0  0  0
   -0.4583    2.1833    0.0000 C   0  0  0  0  0  0  0  0  0  0  0  0
   -5.1708    3.3958    0.0000 C   0  0  0  0  0  0  0  0  0  0  0  0
    1.6917    2.5875    0.0000 N   0  0  0  0  0  0  0  0  0  0  0  0
   -5.4333    4.1667    0.0000 C   0  0  0  0  0  0  0  0  0  0  0  0
    2.4000    1.3583    0.0000 C   0  0  0  0  0  0  0  0  0  0  0  0
   -2.6000    0.1208    0.0000 O   0  0  0  0  0  0  0  0  0  0  0  0
    3.0542    0.8583    0.0000 O   0  0  0  0  0  0  0  0  0  0  0  0
   -4.8750    4.7792    0.0000 C   0  0  0  0  0  0  0  0  0  0  0  0
   -3.8083    3.8375    0.0000 C   0  0  0  0  0  0  0  0  0  0  0  0
    0.9667    1.3500    0.0000 O   0  0  0  0  0  0  0  0  0  0  0  0
    1.7292    0.8750    0.0000 C   0  0  0  0  0  0  0  0  0  0  0  0
    2.7917    0.0750    0.0000 C   0  0  0  0  0  0  0  0  0  0  0  0
    1.9750    0.0833    0.0000 C   0  0  0  0  0  0  0  0  0  0  0  0
   -4.0708    4.6167    0.0000 C   0  0  0  0  0  0  0  0  0  0  0  0
    2.4042    2.1708    0.0000 C   0  0  0  0  0  0  0  0  0  0  0  0
   -1.1708    3.4208    0.0000 C   0  0  0  0  0  0  0  0  0  0  0  0
   -6.2167    4.3375    0.0000 O   0  0  0  0  0  0  0  0  0  0  0  0
    0.2625    3.4208    0.0000 C   0  0  0  0  0  0  0  0  0  0  0  0
   -5.1333    5.5667    0.0000 O   0  0  0  0  0  0  0  0  0  0  0  0
   -0.4583    3.8333    0.0000 C   0  0  0  0  0  0  0  0  0  0  0  0
   -6.7792    3.7333    0.0000 C   0  0  0  0  0  0  0  0  0  0  0  0
   -5.9458    5.7292    0.0000 C   0  0  0  0  0  0  0  0  0  0  0  0
  1  2  2  0  0  0  0
  3  4  2  0  0  0  0
  1  4  1  0  0  0  0
  3  5  1  0  0  0  0
  1  6  1  0  0  0  0
  2  7  1  0  0  0  0
  2  8  1  0  0  0  0
  3  9  1  0  0  0  0
  6 10  2  0  0  0  0
  6 11  1  0  0  0  0
 12 14  1  0  0  0  0
 12 13  1  0  0  0  0
  9 14  1  0  0  0  0
 11 15  2  0  0  0  0
 13 16  1  0  0  0  0
 15 17  1  0  0  0  0
 18 28  1  0  0  0  0
  7 19  2  0  0  0  0
 18 20  1  0  0  0  0
 21 27  1  0  0  0  0
 11 22  1  0  0  0  0
 13 23  2  0  0  0  0
 18 24  2  0  0  0  0
 20 25  1  0  0  0  0
 24 26  1  0  0  0  0
 22 27  2  0  0  0  0
 16 28  1  0  0  0  0
  9 29  1  0  0  0  0
 17 30  1  0  0  0  0
 31 33  1  0  0  0  0
 21 32  1  0  0  0  0
 29 33  1  0  0  0  0
 30 34  1  0  0  0  0
 32 35  1  0  0  0  0
  8 10  1  0  0  0  0
  5  7  1  0  0  0  0
 17 21  2  0  0  0  0
 12 31  1  0  0  0  0
 25 26  2  0  0  0  0
M  END
> <MOLFORMULA>
C25 H26 N4 O5 S

> <MOLWEIGHT>
4.945694000000000e+002

> <IDNUMBER>
AT-687/PE26008

> <PRICE>
EUR 80/10 mg

> <Similarity score>
0.19

$$$$

  -OEChem-04222410502D

 31 35  0     0  0  0  0  0  0999 V2000
    4.3292   -4.8750    0.0000 C   0  0  0  0  0  0  0  0  0  0  0  0
    5.6167   -4.6167    0.0000 C   0  0  0  0  0  0  0  0  0  0  0  0
    3.2542   -4.1000    0.0000 O   0  0  0  0  0  0  0  0  0  0  0  0
    3.9167   -6.1500    0.0000 C   0  0  0  0  0  0  0  0  0  0  0  0
    6.0500   -3.3500    0.0000 N   0  0  3  0  0  0  0  0  0  0  0  0
    2.5917   -6.1667    0.0000 C   0  0  0  0  0  0  0  0  0  0  0  0
    2.1750   -4.9000    0.0000 C   0  0  0  0  0  0  0  0  0  0  0  0
    7.7500   -1.8250    0.0000 C   0  0  3  0  0  0  0  0  0  0  0  0
    9.0667   -1.5417    0.0000 C   0  0  0  0  0  0  0  0  0  0  0  0
    6.5000   -5.6000    0.0000 N   0  0  0  0  0  0  0  0  0  0  0  0
    7.3500   -3.0750    0.0000 C   0  0  0  0  0  0  0  0  0  0  0  0
    4.7917   -7.1250    0.0000 N   0  0  0  0  0  0  0  0  0  0  0  0
    9.4750   -0.2750    0.0000 N   0  0  0  0  0  0  0  0  0  0  0  0
    6.1000   -6.8667    0.0000 C   0  0  0  0  0  0  0  0  0  0  0  0
    9.9500   -2.5250    0.0000 O   0  0  0  0  0  0  0  0  0  0  0  0
   10.7667   -0.0000    0.0000 C   0  0  0  0  0  0  0  0  0  0  0  0
    5.1500   -2.3667    0.0000 C   0  0  0  0  0  0  0  0  0  0  0  0
   11.6417   -0.9750    0.0000 C   0  0  0  0  0  0  0  0  0  0  0  0
   13.4000   -2.9750    0.0000 C   0  0  0  0  0  0  0  0  0  0  0  0
    6.8750   -0.8250    0.0000 C   0  0  0  0  0  0  0  0  0  0  0  0
    1.7000   -7.1250    0.0000 C   0  0  0  0  0  0  0  0  0  0  0  0
   12.9417   -0.7250    0.0000 C   0  0  0  0  0  0  0  0  0  0  0  0
   11.2000   -2.2417    0.0000 C   0  0  0  0  0  0  0  0  0  0  0  0
   12.1000   -3.2542    0.0000 C   0  0  0  0  0  0  0  0  0  0  0  0
   13.8250   -1.7000    0.0000 C   0  0  0  0  0  0  0  0  0  0  0  0
    0.8792   -4.6167    0.0000 C   0  0  0  0  0  0  0  0  0  0  0  0
    5.5667   -1.0917    0.0000 C   0  0  0  0  0  0  0  0  0  0  0  0
   14.3000   -3.9750    0.0000 C   0  0  0  0  0  0  0  0  0  0  0  0
    0.4000   -6.8667    0.0000 C   0  0  0  0  0  0  0  0  0  0  0  0
    0.0000   -5.6000    0.0000 C   0  0  0  0  0  0  0  0  0  0  0  0
   15.6042   -3.7000    0.0000 C   0  0  0  0  0  0  0  0  0  0  0  0
  1  2  2  0  0  0  0
  1  3  1  0  0  0  0
  1  4  1  0  0  0  0
  2  5  1  0  0  0  0
  4  6  1  0  0  0  0
  3  7  1  0  0  0  0
  8 11  1  0  0  0  0
  8  9  1  0  0  0  0
  2 10  1  0  0  0  0
  5 11  1  0  0  0  0
  4 12  2  0  0  0  0
  9 13  1  0  0  0  0
 12 14  1  0  0  0  0
  9 15  2  0  0  0  0
 13 16  1  0  0  0  0
  5 17  1  0  0  0  0
 16 18  1  0  0  0  0
 19 24  2  0  0  0  0
 20 27  1  0  0  0  0
  6 21  1  0  0  0  0
 18 22  1  0  0  0  0
 18 23  2  0  0  0  0
 23 24  1  0  0  0  0
 22 25  2  0  0  0  0
  7 26  1  0  0  0  0
 17 27  1  0  0  0  0
 19 28  1  0  0  0  0
 21 29  2  0  0  0  0
 26 30  2  0  0  0  0
 28 31  1  0  0  0  0
  6  7  2  0  0  0  0
 10 14  2  0  0  0  0
 29 30  1  0  0  0  0
  8 20  1  0  0  0  0
 19 25  1  0  0  0  0
M  END
> <MOLFORMULA>
C25 H26 N4 O2

> <MOLWEIGHT>
4.145064000000000e+002

> <IDNUMBER>
AT-687/PE16767

> <PRICE>
EUR 80/10 mg

> <Similarity score>
0.19

$$$$

  -OEChem-04222410502D

 27 31  0     0  0  0  0  0  0999 V2000
    3.3792   -4.9000    0.0000 C   0  0  0  0  0  0  0  0  0  0  0  0
    3.3667   -6.2250    0.0000 C   0  0  0  0  0  0  0  0  0  0  0  0
    5.6750   -4.9167    0.0000 C   0  0  0  0  0  0  0  0  0  0  0  0
    4.5292   -4.2417    0.0000 N   0  0  0  0  0  0  0  0  0  0  0  0
    5.6750   -6.2500    0.0000 N   0  0  0  0  0  0  0  0  0  0  0  0
    2.1250   -4.4917    0.0000 C   0  0  0  0  0  0  0  0  0  0  0  0
    4.5167   -6.9042    0.0000 C   0  0  0  0  0  0  0  0  0  0  0  0
    2.1167   -6.6250    0.0000 S   0  0  0  0  0  0  0  0  0  0  0  0
    6.8417   -4.2750    0.0000 N   0  0  3  0  0  0  0  0  0  0  0  0
    1.3417   -5.5500    0.0000 C   0  0  0  0  0  0  0  0  0  0  0  0
    1.7250   -3.2250    0.0000 C   0  0  0  0  0  0  0  0  0  0  0  0
    6.8542   -2.9250    0.0000 C   0  0  0  0  0  0  0  0  0  0  0  0
    8.0250   -2.3000    0.0000 C   0  0  0  0  0  0  0  0  0  0  0  0
    4.5000   -8.2500    0.0000 O   0  0  0  0  0  0  0  0  0  0  0  0
    7.9917   -4.9500    0.0000 C   0  0  0  0  0  0  0  0  0  0  0  0
    2.6042   -2.2500    0.0000 C   0  0  0  0  0  0  0  0  0  0  0  0
    9.1667   -2.9667    0.0000 C   0  0  0  0  0  0  0  0  0  0  0  0
    9.1417   -4.3000    0.0000 C   0  0  0  0  0  0  0  0  0  0  0  0
    2.1917   -0.9750    0.0000 C   0  0  0  0  0  0  0  0  0  0  0  0
    0.4042   -2.9250    0.0000 C   0  0  0  0  0  0  0  0  0  0  0  0
    0.0000   -1.6750    0.0000 C   0  0  0  0  0  0  0  0  0  0  0  0
    8.0250   -0.9750    0.0000 C   0  0  0  0  0  0  0  0  0  0  0  0
   10.3292   -2.3000    0.0000 C   0  0  0  0  0  0  0  0  0  0  0  0
    0.9000   -0.6917    0.0000 C   0  0  0  0  0  0  0  0  0  0  0  0
    3.1000   -0.0000    0.0000 C   0  0  0  0  0  0  0  0  0  0  0  0
    9.1667   -0.3167    0.0000 C   0  0  0  0  0  0  0  0  0  0  0  0
   10.3292   -0.9667    0.0000 C   0  0  0  0  0  0  0  0  0  0  0  0
  1  2  2  0  0  0  0
  3  4  2  0  0  0  0
  1  4  1  0  0  0  0
  3  5  1  0  0  0  0
  1  6  1  0  0  0  0
  2  7  1  0  0  0  0
  2  8  1  0  0  0  0
  3  9  1  0  0  0  0
  6 10  2  0  0  0  0
  6 11  1  0  0  0  0
  9 12  1  0  0  0  0
 12 13  1  0  0  0  0
  7 14  2  0  0  0  0
  9 15  1  0  0  0  0
 11 16  2  0  0  0  0
 17 18  1  0  0  0  0
 15 18  1  0  0  0  0
 16 19  1  0  0  0  0
 11 20  1  0  0  0  0
 20 21  2  0  0  0  0
 13 22  1  0  0  0  0
 17 23  1  0  0  0  0
 21 24  1  0  0  0  0
 19 25  1  0  0  0  0
 22 26  2  0  0  0  0
 23 27  2  0  0  0  0
  8 10  1  0  0  0  0
  5  7  1  0  0  0  0
 19 24  2  0  0  0  0
 13 17  2  0  0  0  0
 26 27  1  0  0  0  0
M  END
> <MOLFORMULA>
C22 H19 N3 O S

> <MOLWEIGHT>
3.734781000000000e+002

> <IDNUMBER>
AT-687/PE25829

> <PRICE>
EUR 80/10 mg

> <Similarity score>
0.19

$$$$

  -OEChem-04222410502D

 31 35  0     0  0  0  0  0  0999 V2000
    4.3500   -5.6792    0.0000 C   0  0  0  0  0  0  0  0  0  0  0  0
    5.6417   -5.4000    0.0000 C   0  0  0  0  0  0  0  0  0  0  0  0
    3.2542   -4.9000    0.0000 O   0  0  0  0  0  0  0  0  0  0  0  0
    3.9167   -6.9500    0.0000 C   0  0  0  0  0  0  0  0  0  0  0  0
    6.0667   -4.1417    0.0000 N   0  0  3  0  0  0  0  0  0  0  0  0
    2.6000   -6.9667    0.0000 C   0  0  0  0  0  0  0  0  0  0  0  0
    2.1792   -5.6792    0.0000 C   0  0  0  0  0  0  0  0  0  0  0  0
    7.7792   -2.6042    0.0000 C   0  0  3  0  0  0  0  0  0  0  0  0
    9.0917   -2.3250    0.0000 C   0  0  0  0  0  0  0  0  0  0  0  0
    6.5250   -6.3917    0.0000 N   0  0  0  0  0  0  0  0  0  0  0  0
    7.3750   -3.8750    0.0000 C   0  0  0  0  0  0  0  0  0  0  0  0
    4.8000   -7.9250    0.0000 N   0  0  0  0  0  0  0  0  0  0  0  0
    9.4917   -1.0500    0.0000 N   0  0  0  0  0  0  0  0  0  0  0  0
    6.1042   -7.6667    0.0000 C   0  0  0  0  0  0  0  0  0  0  0  0
   11.6667   -1.7417    0.0000 C   0  0  0  0  0  0  0  0  0  0  0  0
   10.8000   -0.7917    0.0000 C   0  0  0  0  0  0  0  0  0  0  0  0
    9.9750   -3.3167    0.0000 O   0  0  0  0  0  0  0  0  0  0  0  0
   12.9750   -1.5042    0.0000 C   0  0  0  0  0  0  0  0  0  0  0  0
    5.1667   -3.1500    0.0000 C   0  0  0  0  0  0  0  0  0  0  0  0
    6.8917   -1.6000    0.0000 C   0  0  0  0  0  0  0  0  0  0  0  0
    1.7000   -7.9250    0.0000 C   0  0  0  0  0  0  0  0  0  0  0  0
   13.4000   -0.2167    0.0000 O   0  0  0  0  0  0  0  0  0  0  0  0
    0.8917   -5.4000    0.0000 C   0  0  0  0  0  0  0  0  0  0  0  0
    5.6000   -1.8750    0.0000 C   0  0  0  0  0  0  0  0  0  0  0  0
   11.2417   -3.0250    0.0000 C   0  0  0  0  0  0  0  0  0  0  0  0
   13.8417   -2.4917    0.0000 C   0  0  0  0  0  0  0  0  0  0  0  0
   14.6917   -0.0000    0.0000 C   0  0  0  0  0  0  0  0  0  0  0  0
    0.4000   -7.6667    0.0000 C   0  0  0  0  0  0  0  0  0  0  0  0
    0.0000   -6.3917    0.0000 C   0  0  0  0  0  0  0  0  0  0  0  0
   12.1250   -4.0042    0.0000 C   0  0  0  0  0  0  0  0  0  0  0  0
   13.4250   -3.7417    0.0000 C   0  0  0  0  0  0  0  0  0  0  0  0
  1  2  2  0  0  0  0
  1  3  1  0  0  0  0
  1  4  1  0  0  0  0
  2  5  1  0  0  0  0
  4  6  1  0  0  0  0
  3  7  1  0  0  0  0
  8 11  1  0  0  0  0
  8  9  1  0  0  0  0
  2 10  1  0  0  0  0
  5 11  1  0  0  0  0
  4 12  2  0  0  0  0
  9 13  1  0  0  0  0
 12 14  1  0  0  0  0
 15 16  1  0  0  0  0
 13 16  1  0  0  0  0
  9 17  2  0  0  0  0
 15 18  2  0  0  0  0
  5 19  1  0  0  0  0
 20 24  1  0  0  0  0
  6 21  1  0  0  0  0
 18 22  1  0  0  0  0
  7 23  1  0  0  0  0
 19 24  1  0  0  0  0
 15 25  1  0  0  0  0
 18 26  1  0  0  0  0
 22 27  1  0  0  0  0
 21 28  2  0  0  0  0
 23 29  2  0  0  0  0
 25 30  2  0  0  0  0
 30 31  1  0  0  0  0
  6  7  2  0  0  0  0
 10 14  2  0  0  0  0
 28 29  1  0  0  0  0
  8 20  1  0  0  0  0
 26 31  2  0  0  0  0
M  END
> <MOLFORMULA>
C24 H24 N4 O3

> <MOLWEIGHT>
4.164786000000000e+002

> <IDNUMBER>
AT-687/PE16768

> <PRICE>
EUR 80/10 mg

> <Similarity score>
0.19

$$$$

  -OEChem-04222410502D

 36 41  0     0  0  0  0  0  0999 V2000
   -3.3208    2.1875    0.0000 C   0  0  0  0  0  0  0  0  0  0  0  0
   -3.3125    1.3583    0.0000 C   0  0  0  0  0  0  0  0  0  0  0  0
   -1.8833    2.1875    0.0000 C   0  0  0  0  0  0  0  0  0  0  0  0
   -2.6083    2.6083    0.0000 N   0  0  0  0  0  0  0  0  0  0  0  0
   -1.8833    1.3583    0.0000 N   0  0  0  0  0  0  0  0  0  0  0  0
   -2.6000    0.9458    0.0000 C   0  0  0  0  0  0  0  0  0  0  0  0
   -4.1000    2.4333    0.0000 C   0  0  0  0  0  0  0  0  0  0  0  0
   -4.0958    1.1000    0.0000 S   0  0  0  0  0  0  0  0  0  0  0  0
   -1.1708    2.6000    0.0000 N   0  0  3  0  0  0  0  0  0  0  0  0
   -4.5833    1.7708    0.0000 C   0  0  0  0  0  0  0  0  0  0  0  0
    0.2542    2.5958    0.0000 C   0  0  3  0  0  0  0  0  0  0  0  0
    4.4292    0.6500    0.0000 N   0  0  0  0  0  0  0  0  0  0  0  0
    0.9750    2.1750    0.0000 C   0  0  0  0  0  0  0  0  0  0  0  0
    3.8750    1.2708    0.0000 C   0  0  0  0  0  0  0  0  0  0  0  0
   -0.4583    2.1833    0.0000 C   0  0  0  0  0  0  0  0  0  0  0  0
    3.1125    0.9333    0.0000 C   0  0  0  0  0  0  0  0  0  0  0  0
    3.2000    0.1083    0.0000 C   0  0  0  0  0  0  0  0  0  0  0  0
    4.0125   -0.0667    0.0000 C   0  0  0  0  0  0  0  0  0  0  0  0
   -4.3625    3.2208    0.0000 C   0  0  0  0  0  0  0  0  0  0  0  0
   -2.6000    0.1208    0.0000 O   0  0  0  0  0  0  0  0  0  0  0  0
    0.9667    1.3500    0.0000 O   0  0  0  0  0  0  0  0  0  0  0  0
    1.6917    2.5875    0.0000 N   0  0  0  0  0  0  0  0  0  0  0  0
   -1.1708    3.4208    0.0000 C   0  0  0  0  0  0  0  0  0  0  0  0
    0.2625    3.4208    0.0000 C   0  0  0  0  0  0  0  0  0  0  0  0
    2.4042    2.1708    0.0000 C   0  0  0  0  0  0  0  0  0  0  0  0
    2.4000    1.3458    0.0000 C   0  0  0  0  0  0  0  0  0  0  0  0
   -0.4583    3.8333    0.0000 C   0  0  0  0  0  0  0  0  0  0  0  0
    2.6417   -0.5042    0.0000 C   0  0  0  0  0  0  0  0  0  0  0  0
    4.2542   -0.8625    0.0000 C   0  0  0  0  0  0  0  0  0  0  0  0
   -3.8083    3.8375    0.0000 C   0  0  0  0  0  0  0  0  0  0  0  0
   -5.1708    3.3958    0.0000 C   0  0  0  0  0  0  0  0  0  0  0  0
    2.8917   -1.2875    0.0000 C   0  0  0  0  0  0  0  0  0  0  0  0
    3.7000   -1.4667    0.0000 C   0  0  0  0  0  0  0  0  0  0  0  0
   -4.0708    4.6167    0.0000 C   0  0  0  0  0  0  0  0  0  0  0  0
   -5.4333    4.1667    0.0000 C   0  0  0  0  0  0  0  0  0  0  0  0
   -4.8750    4.7792    0.0000 C   0  0  0  0  0  0  0  0  0  0  0  0
  1  2  2  0  0  0  0
  3  4  2  0  0  0  0
  1  4  1  0  0  0  0
  3  5  1  0  0  0  0
  2  6  1  0  0  0  0
  1  7  1  0  0  0  0
  2  8  1  0  0  0  0
  3  9  1  0  0  0  0
  7 10  2  0  0  0  0
 11 15  1  0  0  0  0
 12 14  1  0  0  0  0
 11 13  1  0  0  0  0
 14 16  2  0  0  0  0
  9 15  1  0  0  0  0
 16 26  1  0  0  0  0
 16 17  1  0  0  0  0
 17 18  1  0  0  0  0
  7 19  1  0  0  0  0
  6 20  2  0  0  0  0
 13 21  2  0  0  0  0
 13 22  1  0  0  0  0
  9 23  1  0  0  0  0
 24 27  1  0  0  0  0
 22 25  1  0  0  0  0
 25 26  1  0  0  0  0
 23 27  1  0  0  0  0
 17 28  2  0  0  0  0
 18 29  2  0  0  0  0
 19 30  1  0  0  0  0
 19 31  2  0  0  0  0
 28 32  1  0  0  0  0
 32 33  2  0  0  0  0
 30 34  2  0  0  0  0
 31 35  1  0  0  0  0
 35 36  2  0  0  0  0
  8 10  1  0  0  0  0
  5  6  1  0  0  0  0
 34 36  1  0  0  0  0
 11 24  1  0  0  0  0
 12 18  1  0  0  0  0
 29 33  1  0  0  0  0
M  END
> <MOLFORMULA>
C28 H27 N5 O2 S

> <MOLWEIGHT>
4.976203000000000e+002

> <IDNUMBER>
AT-687/PE25965

> <PRICE>
EUR 80/10 mg

> <Similarity score>
0.19

$$$$

  -OEChem-04222410502D

 35 39  0     0  0  0  0  0  0999 V2000
   -3.3208    2.1875    0.0000 C   0  0  0  0  0  0  0  0  0  0  0  0
   -3.3125    1.3583    0.0000 C   0  0  0  0  0  0  0  0  0  0  0  0
   -1.8833    2.1875    0.0000 C   0  0  0  0  0  0  0  0  0  0  0  0
   -2.6083    2.6083    0.0000 N   0  0  0  0  0  0  0  0  0  0  0  0
   -1.8833    1.3583    0.0000 N   0  0  0  0  0  0  0  0  0  0  0  0
   -2.6000    0.9458    0.0000 C   0  0  0  0  0  0  0  0  0  0  0  0
   -4.1000    2.4333    0.0000 C   0  0  0  0  0  0  0  0  0  0  0  0
   -4.0958    1.1000    0.0000 S   0  0  0  0  0  0  0  0  0  0  0  0
   -1.1708    2.6000    0.0000 N   0  0  3  0  0  0  0  0  0  0  0  0
   -4.5833    1.7708    0.0000 C   0  0  0  0  0  0  0  0  0  0  0  0
    0.2542    2.5958    0.0000 C   0  0  3  0  0  0  0  0  0  0  0  0
    0.9750    2.1750    0.0000 C   0  0  0  0  0  0  0  0  0  0  0  0
   -0.4583    2.1833    0.0000 C   0  0  0  0  0  0  0  0  0  0  0  0
    1.6917    2.5875    0.0000 N   0  0  0  0  0  0  0  0  0  0  0  0
    2.4000    1.3583    0.0000 C   0  0  0  0  0  0  0  0  0  0  0  0
   -4.3625    3.2208    0.0000 C   0  0  0  0  0  0  0  0  0  0  0  0
   -2.6000    0.1208    0.0000 O   0  0  0  0  0  0  0  0  0  0  0  0
    2.4042    2.1708    0.0000 C   0  0  0  0  0  0  0  0  0  0  0  0
    0.9667    1.3500    0.0000 O   0  0  0  0  0  0  0  0  0  0  0  0
    3.1042    0.9375    0.0000 C   0  0  0  0  0  0  0  0  0  0  0  0
   -1.1708    3.4208    0.0000 C   0  0  0  0  0  0  0  0  0  0  0  0
    0.2625    3.4208    0.0000 C   0  0  0  0  0  0  0  0  0  0  0  0
    3.8292    1.3458    0.0000 O   0  0  0  0  0  0  0  0  0  0  0  0
   -0.4583    3.8333    0.0000 C   0  0  0  0  0  0  0  0  0  0  0  0
    1.6792    0.9583    0.0000 C   0  0  0  0  0  0  0  0  0  0  0  0
   -3.8083    3.8375    0.0000 C   0  0  0  0  0  0  0  0  0  0  0  0
   -5.1708    3.3958    0.0000 C   0  0  0  0  0  0  0  0  0  0  0  0
    3.1042    0.1208    0.0000 C   0  0  0  0  0  0  0  0  0  0  0  0
    4.5417    0.9208    0.0000 C   0  0  0  0  0  0  0  0  0  0  0  0
    5.2667    1.3333    0.0000 C   0  0  0  0  0  0  0  0  0  0  0  0
    1.6667    0.1250    0.0000 C   0  0  0  0  0  0  0  0  0  0  0  0
   -5.4333    4.1667    0.0000 C   0  0  0  0  0  0  0  0  0  0  0  0
    2.3917   -0.2917    0.0000 C   0  0  0  0  0  0  0  0  0  0  0  0
   -4.0708    4.6167    0.0000 C   0  0  0  0  0  0  0  0  0  0  0  0
   -4.8750    4.7792    0.0000 C   0  0  0  0  0  0  0  0  0  0  0  0
  1  2  2  0  0  0  0
  3  4  2  0  0  0  0
  1  4  1  0  0  0  0
  3  5  1  0  0  0  0
  2  6  1  0  0  0  0
  1  7  1  0  0  0  0
  2  8  1  0  0  0  0
  3  9  1  0  0  0  0
  7 10  2  0  0  0  0
 11 13  1  0  0  0  0
 11 12  1  0  0  0  0
  9 13  1  0  0  0  0
 12 14  1  0  0  0  0
 15 18  1  0  0  0  0
  7 16  1  0  0  0  0
  6 17  2  0  0  0  0
 14 18  1  0  0  0  0
 12 19  2  0  0  0  0
 15 20  2  0  0  0  0
  9 21  1  0  0  0  0
 22 24  1  0  0  0  0
 20 23  1  0  0  0  0
 21 24  1  0  0  0  0
 15 25  1  0  0  0  0
 16 26  1  0  0  0  0
 16 27  2  0  0  0  0
 20 28  1  0  0  0  0
 23 29  1  0  0  0  0
 29 30  1  0  0  0  0
 25 31  2  0  0  0  0
 27 32  1  0  0  0  0
 31 33  1  0  0  0  0
 26 34  2  0  0  0  0
 32 35  2  0  0  0  0
  8 10  1  0  0  0  0
  5  6  1  0  0  0  0
 34 35  1  0  0  0  0
 11 22  1  0  0  0  0
 28 33  2  0  0  0  0
M  END
> <MOLFORMULA>
C27 H28 N4 O3 S

> <MOLWEIGHT>
4.886092000000000e+002

> <IDNUMBER>
AT-687/PE25941

> <PRICE>
EUR 80/10 mg

> <Similarity score>
0.19

$$$$

  -OEChem-04222410502D

 22 25  0     0  0  0  0  0  0999 V2000
    5.5625   -2.7917    0.0000 C   0  0  0  0  0  0  0  0  0  0  0  0
    5.8500   -1.4792    0.0000 N   0  0  0  0  0  0  0  0  0  0  0  0
    4.8417   -2.3667    0.0000 C   0  0  0  0  0  0  0  0  0  0  0  0
    5.0250   -1.5542    0.0000 N   0  0  0  0  0  0  0  0  0  0  0  0
    6.1792   -2.2375    0.0000 C   0  0  0  0  0  0  0  0  0  0  0  0
    4.1292   -2.7917    0.0000 C   0  0  0  0  0  0  0  0  0  0  0  0
    5.5667   -3.6250    0.0000 C   0  0  0  0  0  0  0  0  0  0  0  0
    4.8417   -4.0375    0.0000 N   0  0  0  0  0  0  0  0  0  0  0  0
    4.1250   -3.6250    0.0000 C   0  0  0  0  0  0  0  0  0  0  0  0
    6.9917   -2.4167    0.0000 C   0  0  0  0  0  0  0  0  0  0  0  0
    3.4125   -2.3792    0.0000 C   0  0  0  0  0  0  0  0  0  0  0  0
    7.2375   -3.2042    0.0000 C   0  0  0  0  0  0  0  0  0  0  0  0
    7.5417   -1.8042    0.0000 C   0  0  0  0  0  0  0  0  0  0  0  0
    3.4125   -4.0292    0.0000 C   0  0  0  0  0  0  0  0  0  0  0  0
    2.7000   -2.7917    0.0000 C   0  0  0  0  0  0  0  0  0  0  0  0
    2.7000   -3.6167    0.0000 C   0  0  0  0  0  0  0  0  0  0  0  0
    8.3417   -1.9792    0.0000 C   0  0  0  0  0  0  0  0  0  0  0  0
    8.0417   -3.3792    0.0000 C   0  0  0  0  0  0  0  0  0  0  0  0
    8.6000   -2.7667    0.0000 C   0  0  0  0  0  0  0  0  0  0  0  0
    9.4042   -2.9417    0.0000 C   0  0  0  0  0  0  0  0  0  0  0  0
    1.9875   -2.3792    0.0000 C   0  0  0  0  0  0  0  0  0  0  0  0
    9.9542   -2.3292    0.0000 C   0  0  0  0  0  0  0  0  0  0  0  0
  2  5  2  0  0  0  0
  1  3  2  0  0  0  0
  3  4  1  0  0  0  0
  1  5  1  0  0  0  0
  3  6  1  0  0  0  0
  1  7  1  0  0  0  0
  7  8  2  0  0  0  0
  8  9  1  0  0  0  0
  5 10  1  0  0  0  0
  6 11  2  0  0  0  0
 10 12  2  0  0  0  0
 10 13  1  0  0  0  0
  9 14  2  0  0  0  0
 11 15  1  0  0  0  0
 14 16  1  0  0  0  0
 13 17  2  0  0  0  0
 12 18  1  0  0  0  0
 17 19  1  0  0  0  0
 19 20  1  0  0  0  0
 15 21  1  0  0  0  0
 20 22  1  0  0  0  0
  2  4  1  0  0  0  0
  6  9  1  0  0  0  0
 15 16  2  0  0  0  0
 18 19  2  0  0  0  0
M  END
> <MOLFORMULA>
C19 H17 N3

> <MOLWEIGHT>
2.873643000000000e+002

> <IDNUMBER>
AT-687/SK17428

> <PRICE>
EUR 80/10 mg

> <Similarity score>
0.19

$$$$

  -OEChem-04222410502D

 27 31  0     0  0  0  0  0  0999 V2000
   -1.3458   -0.8000    0.0000 C   0  0  0  0  0  0  0  0  0  0  0  0
   -1.3583   -1.8000    0.0000 C   0  0  0  0  0  0  0  0  0  0  0  0
    0.3792   -0.8125    0.0000 C   0  0  0  0  0  0  0  0  0  0  0  0
   -0.4833   -0.3000    0.0000 N   0  0  0  0  0  0  0  0  0  0  0  0
    0.3792   -1.8125    0.0000 N   0  0  0  0  0  0  0  0  0  0  0  0
   -0.4958   -2.3125    0.0000 C   0  0  0  0  0  0  0  0  0  0  0  0
   -2.2958   -0.4792    0.0000 C   0  0  0  0  0  0  0  0  0  0  0  0
   -2.3083   -2.1000    0.0000 S   0  0  0  0  0  0  0  0  0  0  0  0
    1.2542   -0.3250    0.0000 N   0  0  3  0  0  0  0  0  0  0  0  0
   -2.8875   -1.2917    0.0000 C   0  0  0  0  0  0  0  0  0  0  0  0
    1.2667    0.6833    0.0000 C   0  0  0  0  0  0  0  0  0  0  0  0
   -2.6000    0.4625    0.0000 C   0  0  0  0  0  0  0  0  0  0  0  0
    2.1417    1.1625    0.0000 C   0  0  0  0  0  0  0  0  0  0  0  0
   -0.5083   -3.3125    0.0000 O   0  0  0  0  0  0  0  0  0  0  0  0
    2.1167   -0.8292    0.0000 C   0  0  0  0  0  0  0  0  0  0  0  0
    3.0042    0.6625    0.0000 C   0  0  0  0  0  0  0  0  0  0  0  0
    2.9917   -0.3417    0.0000 C   0  0  0  0  0  0  0  0  0  0  0  0
   -3.5833    0.6833    0.0000 C   0  0  0  0  0  0  0  0  0  0  0  0
   -1.9250    1.1958    0.0000 C   0  0  0  0  0  0  0  0  0  0  0  0
   -3.2083    2.3625    0.0000 C   0  0  0  0  0  0  0  0  0  0  0  0
   -3.8958    1.6208    0.0000 C   0  0  0  0  0  0  0  0  0  0  0  0
   -2.2375    2.1500    0.0000 C   0  0  0  0  0  0  0  0  0  0  0  0
   -3.5083    3.3208    0.0000 F   0  0  0  0  0  0  0  0  0  0  0  0
    2.1417    2.1500    0.0000 C   0  0  0  0  0  0  0  0  0  0  0  0
    3.8792    1.1625    0.0000 C   0  0  0  0  0  0  0  0  0  0  0  0
    3.0042    2.6500    0.0000 C   0  0  0  0  0  0  0  0  0  0  0  0
    3.8792    2.1625    0.0000 C   0  0  0  0  0  0  0  0  0  0  0  0
  1  2  2  0  0  0  0
  3  4  2  0  0  0  0
  1  4  1  0  0  0  0
  3  5  1  0  0  0  0
  2  6  1  0  0  0  0
  1  7  1  0  0  0  0
  2  8  1  0  0  0  0
  3  9  1  0  0  0  0
  7 10  2  0  0  0  0
  9 11  1  0  0  0  0
  7 12  1  0  0  0  0
 11 13  1  0  0  0  0
  6 14  2  0  0  0  0
  9 15  1  0  0  0  0
 16 17  1  0  0  0  0
 15 17  1  0  0  0  0
 12 18  2  0  0  0  0
 12 19  1  0  0  0  0
 20 22  1  0  0  0  0
 18 21  1  0  0  0  0
 19 22  2  0  0  0  0
 20 23  1  0  0  0  0
 13 24  1  0  0  0  0
 16 25  1  0  0  0  0
 24 26  2  0  0  0  0
 25 27  2  0  0  0  0
  8 10  1  0  0  0  0
  5  6  1  0  0  0  0
 20 21  2  0  0  0  0
 13 16  2  0  0  0  0
 26 27  1  0  0  0  0
M  END
> <MOLFORMULA>
C21 H16 F N3 O S

> <MOLWEIGHT>
3.774414000000000e+002

> <IDNUMBER>
AT-687/PE25866

> <PRICE>
EUR 80/10 mg

> <Similarity score>
0.19

$$$$

  -OEChem-04222410502D

 34 38  0     0  0  0  0  0  0999 V2000
   -3.3208    2.1875    0.0000 C   0  0  0  0  0  0  0  0  0  0  0  0
   -3.3125    1.3583    0.0000 C   0  0  0  0  0  0  0  0  0  0  0  0
   -1.8833    2.1875    0.0000 C   0  0  0  0  0  0  0  0  0  0  0  0
   -2.6083    2.6083    0.0000 N   0  0  0  0  0  0  0  0  0  0  0  0
   -1.8833    1.3583    0.0000 N   0  0  0  0  0  0  0  0  0  0  0  0
   -4.1000    2.4333    0.0000 C   0  0  0  0  0  0  0  0  0  0  0  0
   -2.6000    0.9458    0.0000 C   0  0  0  0  0  0  0  0  0  0  0  0
   -4.0958    1.1000    0.0000 S   0  0  0  0  0  0  0  0  0  0  0  0
   -1.1708    2.6000    0.0000 N   0  0  3  0  0  0  0  0  0  0  0  0
   -4.5833    1.7708    0.0000 C   0  0  0  0  0  0  0  0  0  0  0  0
    0.2542    2.5958    0.0000 C   0  0  3  0  0  0  0  0  0  0  0  0
    0.9750    2.1750    0.0000 C   0  0  0  0  0  0  0  0  0  0  0  0
   -4.3625    3.2208    0.0000 C   0  0  0  0  0  0  0  0  0  0  0  0
   -0.4583    2.1833    0.0000 C   0  0  0  0  0  0  0  0  0  0  0  0
    1.6917    2.5875    0.0000 N   0  0  0  0  0  0  0  0  0  0  0  0
   -2.6000    0.1208    0.0000 O   0  0  0  0  0  0  0  0  0  0  0  0
   -5.1708    3.3958    0.0000 C   0  0  0  0  0  0  0  0  0  0  0  0
    0.9667    1.3500    0.0000 O   0  0  0  0  0  0  0  0  0  0  0  0
    2.4042    2.1708    0.0000 C   0  0  0  0  0  0  0  0  0  0  0  0
   -5.4333    4.1667    0.0000 C   0  0  0  0  0  0  0  0  0  0  0  0
   -1.1708    3.4208    0.0000 C   0  0  0  0  0  0  0  0  0  0  0  0
    0.2625    3.4208    0.0000 C   0  0  0  0  0  0  0  0  0  0  0  0
    2.4000    1.3500    0.0000 C   0  0  0  0  0  0  0  0  0  0  0  0
   -3.8083    3.8375    0.0000 C   0  0  0  0  0  0  0  0  0  0  0  0
   -6.2167    4.3375    0.0000 O   0  0  0  0  0  0  0  0  0  0  0  0
   -0.4583    3.8333    0.0000 C   0  0  0  0  0  0  0  0  0  0  0  0
   -4.0708    4.6167    0.0000 C   0  0  0  0  0  0  0  0  0  0  0  0
   -4.8750    4.7792    0.0000 C   0  0  0  0  0  0  0  0  0  0  0  0
    3.1167    0.9208    0.0000 C   0  0  0  0  0  0  0  0  0  0  0  0
    1.6792    0.9458    0.0000 C   0  0  0  0  0  0  0  0  0  0  0  0
   -6.7792    3.7333    0.0000 C   0  0  0  0  0  0  0  0  0  0  0  0
    1.6667    0.1083    0.0000 C   0  0  0  0  0  0  0  0  0  0  0  0
    3.1042    0.1083    0.0000 C   0  0  0  0  0  0  0  0  0  0  0  0
    2.3917   -0.3042    0.0000 C   0  0  0  0  0  0  0  0  0  0  0  0
  1  2  2  0  0  0  0
  3  4  2  0  0  0  0
  1  4  1  0  0  0  0
  3  5  1  0  0  0  0
  1  6  1  0  0  0  0
  2  7  1  0  0  0  0
  2  8  1  0  0  0  0
  3  9  1  0  0  0  0
  6 10  2  0  0  0  0
 11 14  1  0  0  0  0
 11 12  1  0  0  0  0
  6 13  1  0  0  0  0
  9 14  1  0  0  0  0
 12 15  1  0  0  0  0
  7 16  2  0  0  0  0
 13 17  2  0  0  0  0
 12 18  2  0  0  0  0
 15 19  1  0  0  0  0
 17 20  1  0  0  0  0
  9 21  1  0  0  0  0
 22 26  1  0  0  0  0
 19 23  1  0  0  0  0
 13 24  1  0  0  0  0
 20 25  1  0  0  0  0
 21 26  1  0  0  0  0
 24 27  2  0  0  0  0
 27 28  1  0  0  0  0
 23 29  2  0  0  0  0
 23 30  1  0  0  0  0
 25 31  1  0  0  0  0
 30 32  2  0  0  0  0
 29 33  1  0  0  0  0
 32 34  1  0  0  0  0
  8 10  1  0  0  0  0
  5  7  1  0  0  0  0
 20 28  2  0  0  0  0
 11 22  1  0  0  0  0
 33 34  2  0  0  0  0
M  END
> <MOLFORMULA>
C26 H26 N4 O3 S

> <MOLWEIGHT>
4.745824000000000e+002

> <IDNUMBER>
AT-687/PE26007

> <PRICE>
EUR 80/10 mg

> <Similarity score>
0.19

$$$$

  -OEChem-04222410502D

 26 30  0     0  0  0  0  0  0999 V2000
    5.6500   -6.7417    0.0000 C   0  0  0  0  0  0  0  0  0  0  0  0
    5.6583   -6.0417    0.0000 C   0  0  0  0  0  0  0  0  0  0  0  0
    5.0500   -7.0833    0.0000 N   0  0  0  0  0  0  0  0  0  0  0  0
    5.0500   -5.6958    0.0000 C   0  0  0  0  0  0  0  0  0  0  0  0
    6.2583   -7.0917    0.0000 C   0  0  0  0  0  0  0  0  0  0  0  0
    4.4583   -6.0458    0.0000 C   0  0  0  0  0  0  0  0  0  0  0  0
    5.0500   -4.9958    0.0000 N   0  0  3  0  0  0  0  0  0  0  0  0
    4.4583   -6.7333    0.0000 C   0  0  0  0  0  0  0  0  0  0  0  0
    6.8625   -6.7417    0.0000 C   0  0  0  0  0  0  0  0  0  0  0  0
    6.2625   -5.6833    0.0000 C   0  0  0  0  0  0  0  0  0  0  0  0
    6.2500   -7.7833    0.0000 C   0  0  0  0  0  0  0  0  0  0  0  0
    6.8625   -6.0417    0.0000 C   0  0  0  0  0  0  0  0  0  0  0  0
    7.4625   -7.0917    0.0000 C   0  0  0  0  0  0  0  0  0  0  0  0
    5.0500   -3.6083    0.0000 O   0  0  0  0  0  0  0  0  0  0  0  0
    7.4625   -7.7917    0.0000 C   0  0  0  0  0  0  0  0  0  0  0  0
    6.8583   -8.1417    0.0000 C   0  0  0  0  0  0  0  0  0  0  0  0
    5.6500   -4.6542    0.0000 C   0  0  0  0  0  0  0  0  0  0  0  0
    4.4500   -4.6542    0.0000 C   0  0  0  0  0  0  0  0  0  0  0  0
    3.8583   -5.6958    0.0000 C   0  0  0  0  0  0  0  0  0  0  0  0
    8.0625   -8.1333    0.0000 O   0  0  0  0  0  0  0  0  0  0  0  0
    3.8583   -7.0833    0.0000 C   0  0  0  0  0  0  0  0  0  0  0  0
    5.6500   -3.9583    0.0000 C   0  0  0  0  0  0  0  0  0  0  0  0
    4.4500   -3.9583    0.0000 C   0  0  0  0  0  0  0  0  0  0  0  0
    8.0583   -8.8292    0.0000 C   0  0  0  0  0  0  0  0  0  0  0  0
    3.2583   -6.0458    0.0000 C   0  0  0  0  0  0  0  0  0  0  0  0
    3.2583   -6.7333    0.0000 C   0  0  0  0  0  0  0  0  0  0  0  0
  1  2  1  0  0  0  0
  1  3  2  0  0  0  0
  2  4  2  0  0  0  0
  1  5  1  0  0  0  0
  6  8  1  0  0  0  0
  4  7  1  0  0  0  0
  3  8  1  0  0  0  0
  5  9  2  0  0  0  0
  2 10  1  0  0  0  0
  5 11  1  0  0  0  0
  9 12  1  0  0  0  0
  9 13  1  0  0  0  0
 14 23  1  0  0  0  0
 15 16  1  0  0  0  0
 11 16  2  0  0  0  0
  7 17  1  0  0  0  0
  7 18  1  0  0  0  0
  6 19  2  0  0  0  0
 15 20  1  0  0  0  0
  8 21  2  0  0  0  0
 17 22  1  0  0  0  0
 18 23  1  0  0  0  0
 20 24  1  0  0  0  0
 19 25  1  0  0  0  0
 21 26  1  0  0  0  0
 10 12  1  0  0  0  0
  4  6  1  0  0  0  0
 13 15  2  0  0  0  0
 25 26  2  0  0  0  0
 14 22  1  0  0  0  0
M  END
> <MOLFORMULA>
C22 H22 N2 O2

> <MOLWEIGHT>
3.464278000000000e+002

> <IDNUMBER>
AT-225/NB47209

> <SALTDATA>
H2O

> <PRICE>
EUR 140/10 mg

> <Similarity score>
0.19

$$$$

  -OEChem-04222410502D

 26 30  0     0  0  0  0  0  0999 V2000
    5.3583   -7.0583    0.0000 C   0  0  0  0  0  0  0  0  0  0  0  0
    5.3667   -6.3208    0.0000 C   0  0  0  0  0  0  0  0  0  0  0  0
    4.7292   -7.4125    0.0000 N   0  0  0  0  0  0  0  0  0  0  0  0
    4.7292   -5.9500    0.0000 C   0  0  0  0  0  0  0  0  0  0  0  0
    6.0083   -7.4167    0.0000 C   0  0  0  0  0  0  0  0  0  0  0  0
    4.0917   -6.3250    0.0000 C   0  0  0  0  0  0  0  0  0  0  0  0
    4.7208   -5.2250    0.0000 N   0  0  3  0  0  0  0  0  0  0  0  0
    4.0917   -7.0500    0.0000 C   0  0  0  0  0  0  0  0  0  0  0  0
    6.6542   -7.0583    0.0000 C   0  0  0  0  0  0  0  0  0  0  0  0
    6.0083   -5.9500    0.0000 C   0  0  0  0  0  0  0  0  0  0  0  0
    6.0042   -8.1583    0.0000 C   0  0  0  0  0  0  0  0  0  0  0  0
    6.6542   -6.3208    0.0000 C   0  0  0  0  0  0  0  0  0  0  0  0
    7.2917   -7.4250    0.0000 C   0  0  0  0  0  0  0  0  0  0  0  0
    4.7208   -3.7708    0.0000 O   0  0  0  0  0  0  0  0  0  0  0  0
    7.2917   -8.1625    0.0000 C   0  0  0  0  0  0  0  0  0  0  0  0
    6.6417   -8.5250    0.0000 C   0  0  0  0  0  0  0  0  0  0  0  0
    5.3583   -4.8625    0.0000 C   0  0  0  0  0  0  0  0  0  0  0  0
    4.0833   -4.8625    0.0000 C   0  0  0  0  0  0  0  0  0  0  0  0
    3.4583   -5.9583    0.0000 C   0  0  0  0  0  0  0  0  0  0  0  0
    7.9208   -8.5250    0.0000 O   0  0  0  0  0  0  0  0  0  0  0  0
    3.4583   -7.4125    0.0000 C   0  0  0  0  0  0  0  0  0  0  0  0
    5.3583   -4.1333    0.0000 C   0  0  0  0  0  0  0  0  0  0  0  0
    4.0833   -4.1375    0.0000 C   0  0  0  0  0  0  0  0  0  0  0  0
    8.5583   -8.1583    0.0000 C   0  0  0  0  0  0  0  0  0  0  0  0
    2.8208   -6.3250    0.0000 C   0  0  0  0  0  0  0  0  0  0  0  0
    2.8208   -7.0500    0.0000 C   0  0  0  0  0  0  0  0  0  0  0  0
  1  2  1  0  0  0  0
  1  3  2  0  0  0  0
  2  4  2  0  0  0  0
  1  5  1  0  0  0  0
  6  8  1  0  0  0  0
  4  7  1  0  0  0  0
  3  8  1  0  0  0  0
  5  9  2  0  0  0  0
  2 10  1  0  0  0  0
  5 11  1  0  0  0  0
  9 12  1  0  0  0  0
  9 13  1  0  0  0  0
 14 23  1  0  0  0  0
 15 16  1  0  0  0  0
 11 16  2  0  0  0  0
  7 17  1  0  0  0  0
  7 18  1  0  0  0  0
  6 19  2  0  0  0  0
 15 20  1  0  0  0  0
  8 21  2  0  0  0  0
 17 22  1  0  0  0  0
 18 23  1  0  0  0  0
 20 24  1  0  0  0  0
 25 26  2  0  0  0  0
 21 26  1  0  0  0  0
 10 12  1  0  0  0  0
  4  6  1  0  0  0  0
 13 15  2  0  0  0  0
 19 25  1  0  0  0  0
 14 22  1  0  0  0  0
M  END
> <MOLFORMULA>
C22 H22 N2 O2

> <MOLWEIGHT>
3.464278000000000e+002

> <IDNUMBER>
AT-225/NB48356

> <SALTDATA>
2 H2O

> <PRICE>
EUR 140/10 mg

> <Similarity score>
0.19

$$$$

  -OEChem-04222410502D

 26 30  0     0  0  0  0  0  0999 V2000
   -2.9375   -6.7125    0.0000 C   0  0  0  0  0  0  0  0  0  0  0  0
   -2.9375   -5.9542    0.0000 C   0  0  0  0  0  0  0  0  0  0  0  0
   -3.5958   -7.0875    0.0000 N   0  0  0  0  0  0  0  0  0  0  0  0
   -3.6125   -5.5792    0.0000 C   0  0  0  0  0  0  0  0  0  0  0  0
   -2.2833   -7.0875    0.0000 C   0  0  0  0  0  0  0  0  0  0  0  0
   -4.2458   -5.9542    0.0000 C   0  0  0  0  0  0  0  0  0  0  0  0
   -3.6125   -4.7917    0.0000 N   0  0  3  0  0  0  0  0  0  0  0  0
   -4.2458   -6.7125    0.0000 C   0  0  0  0  0  0  0  0  0  0  0  0
   -1.6333   -6.7125    0.0000 C   0  0  0  0  0  0  0  0  0  0  0  0
   -2.2833   -5.5792    0.0000 C   0  0  0  0  0  0  0  0  0  0  0  0
   -2.2833   -7.8417    0.0000 C   0  0  0  0  0  0  0  0  0  0  0  0
   -1.6333   -5.9542    0.0000 C   0  0  0  0  0  0  0  0  0  0  0  0
   -0.9833   -7.0875    0.0000 C   0  0  0  0  0  0  0  0  0  0  0  0
   -3.6125   -3.2875    0.0000 O   0  0  0  0  0  0  0  0  0  0  0  0
   -0.9833   -7.8417    0.0000 C   0  0  0  0  0  0  0  0  0  0  0  0
   -1.6333   -8.2167    0.0000 C   0  0  0  0  0  0  0  0  0  0  0  0
   -2.9625   -4.4167    0.0000 C   0  0  0  0  0  0  0  0  0  0  0  0
   -4.2708   -4.4167    0.0000 C   0  0  0  0  0  0  0  0  0  0  0  0
   -4.9083   -5.5792    0.0000 C   0  0  0  0  0  0  0  0  0  0  0  0
   -0.3333   -8.2167    0.0000 O   0  0  0  0  0  0  0  0  0  0  0  0
   -4.9083   -7.0875    0.0000 C   0  0  0  0  0  0  0  0  0  0  0  0
   -2.9583   -3.6667    0.0000 C   0  0  0  0  0  0  0  0  0  0  0  0
   -4.2708   -3.6625    0.0000 C   0  0  0  0  0  0  0  0  0  0  0  0
   -0.3333   -8.9667    0.0000 C   0  0  0  0  0  0  0  0  0  0  0  0
   -5.5458   -5.9542    0.0000 C   0  0  0  0  0  0  0  0  0  0  0  0
   -5.5458   -6.7125    0.0000 C   0  0  0  0  0  0  0  0  0  0  0  0
  1  2  2  0  0  0  0
  1  3  1  0  0  0  0
  2  4  1  0  0  0  0
  1  5  1  0  0  0  0
  6  8  1  0  0  0  0
  4  7  1  0  0  0  0
  3  8  2  0  0  0  0
  5  9  2  0  0  0  0
  2 10  1  0  0  0  0
  5 11  1  0  0  0  0
  9 12  1  0  0  0  0
  9 13  1  0  0  0  0
 14 23  1  0  0  0  0
 15 16  1  0  0  0  0
 11 16  2  0  0  0  0
  7 17  1  0  0  0  0
  7 18  1  0  0  0  0
  6 19  1  0  0  0  0
 15 20  1  0  0  0  0
  8 21  1  0  0  0  0
 17 22  1  0  0  0  0
 18 23  1  0  0  0  0
 20 24  1  0  0  0  0
 25 26  1  0  0  0  0
 21 26  2  0  0  0  0
 10 12  1  0  0  0  0
  4  6  2  0  0  0  0
 13 15  2  0  0  0  0
 19 25  2  0  0  0  0
 14 22  1  0  0  0  0
M  END
> <MOLFORMULA>
C22 H22 N2 O2

> <MOLWEIGHT>
3.464278000000000e+002

> <IDNUMBER>
AT-225/JK06946

> <PRICE>
EUR 140/10 mg

> <Similarity score>
0.19

$$$$

  -OEChem-04222410502D

 27 31  0     0  0  0  0  0  0999 V2000
    0.4375   -0.3542    0.0000 C   0  0  0  0  0  0  0  0  0  0  0  0
   -0.5292   -0.1000    0.0000 N   0  0  0  0  0  0  0  0  0  0  0  0
    1.1417    0.3583    0.0000 N   0  0  0  0  0  0  0  0  0  0  0  0
    0.8792    1.3208    0.0000 C   0  0  0  0  0  0  0  0  0  0  0  0
   -0.7917    0.8667    0.0000 C   0  0  0  0  0  0  0  0  0  0  0  0
   -0.0917    1.5750    0.0000 C   0  0  0  0  0  0  0  0  0  0  0  0
    0.7000   -1.3167    0.0000 N   0  0  3  0  0  0  0  0  0  0  0  0
   -0.3542    2.5417    0.0000 C   0  0  0  0  0  0  0  0  0  0  0  0
   -0.0042   -2.0292    0.0000 C   0  0  0  0  0  0  0  0  0  0  0  0
   -1.7625    1.1167    0.0000 N   0  0  0  0  0  0  0  0  0  0  0  0
    0.2625   -2.9917    0.0000 C   0  0  0  0  0  0  0  0  0  0  0  0
    1.5792    2.0333    0.0000 O   0  0  0  0  0  0  0  0  0  0  0  0
    1.6667   -1.5708    0.0000 C   0  0  0  0  0  0  0  0  0  0  0  0
    1.2292   -3.2458    0.0000 C   0  0  0  0  0  0  0  0  0  0  0  0
    0.3500    3.2500    0.0000 C   0  0  0  0  0  0  0  0  0  0  0  0
    1.7583    4.6667    0.0000 N   0  0  0  0  0  0  0  0  0  0  0  0
    1.9333   -2.5375    0.0000 C   0  0  0  0  0  0  0  0  0  0  0  0
   -2.0250    2.0833    0.0000 C   0  0  0  0  0  0  0  0  0  0  0  0
   -1.3208    2.7958    0.0000 C   0  0  0  0  0  0  0  0  0  0  0  0
   -0.4417   -3.7042    0.0000 C   0  0  0  0  0  0  0  0  0  0  0  0
    0.7875    4.9208    0.0000 C   0  0  0  0  0  0  0  0  0  0  0  0
    2.0208    3.7083    0.0000 C   0  0  0  0  0  0  0  0  0  0  0  0
    1.3167    2.9958    0.0000 C   0  0  0  0  0  0  0  0  0  0  0  0
    0.0875    4.2125    0.0000 C   0  0  0  0  0  0  0  0  0  0  0  0
    1.4917   -4.2125    0.0000 C   0  0  0  0  0  0  0  0  0  0  0  0
   -0.1792   -4.6667    0.0000 C   0  0  0  0  0  0  0  0  0  0  0  0
    0.7875   -4.9208    0.0000 C   0  0  0  0  0  0  0  0  0  0  0  0
  1  2  2  0  0  0  0
  1  3  1  0  0  0  0
  3  4  1  0  0  0  0
  2  5  1  0  0  0  0
  4  6  1  0  0  0  0
  1  7  1  0  0  0  0
  6  8  1  0  0  0  0
  7  9  1  0  0  0  0
  5 10  1  0  0  0  0
  9 11  1  0  0  0  0
  4 12  2  0  0  0  0
  7 13  1  0  0  0  0
 14 17  1  0  0  0  0
  8 15  1  0  0  0  0
 16 21  1  0  0  0  0
 13 17  1  0  0  0  0
 10 18  2  0  0  0  0
  8 19  2  0  0  0  0
 11 20  1  0  0  0  0
 21 24  2  0  0  0  0
 22 23  1  0  0  0  0
 15 23  2  0  0  0  0
 15 24  1  0  0  0  0
 14 25  1  0  0  0  0
 20 26  2  0  0  0  0
 25 27  2  0  0  0  0
  5  6  2  0  0  0  0
 11 14  2  0  0  0  0
 18 19  1  0  0  0  0
 26 27  1  0  0  0  0
 16 22  2  0  0  0  0
M  END
> <MOLFORMULA>
C21 H17 N5 O

> <MOLWEIGHT>
3.553993000000000e+002

> <IDNUMBER>
AN-153/NB21479

> <PRICE>
EUR 130/10 mg

> <Similarity score>
0.19

$$$$

  -OEChem-04222410502D

 31 35  0     0  0  0  0  0  0999 V2000
    4.3417   -4.6917    0.0000 C   0  0  0  0  0  0  0  0  0  0  0  0
    5.6250   -4.4417    0.0000 C   0  0  0  0  0  0  0  0  0  0  0  0
    3.2667   -3.9042    0.0000 O   0  0  0  0  0  0  0  0  0  0  0  0
    3.9042   -5.9667    0.0000 C   0  0  0  0  0  0  0  0  0  0  0  0
    6.0542   -3.1750    0.0000 N   0  0  3  0  0  0  0  0  0  0  0  0
    2.5917   -5.9750    0.0000 C   0  0  0  0  0  0  0  0  0  0  0  0
    9.0750   -1.3417    0.0000 C   0  0  0  0  0  0  0  0  0  0  0  0
    2.1750   -4.6917    0.0000 C   0  0  0  0  0  0  0  0  0  0  0  0
    7.7750   -1.6250    0.0000 C   0  0  3  0  0  0  0  0  0  0  0  0
    6.5250   -5.4000    0.0000 N   0  0  0  0  0  0  0  0  0  0  0  0
    7.3500   -2.8750    0.0000 C   0  0  0  0  0  0  0  0  0  0  0  0
    9.9500   -2.3417    0.0000 N   0  0  0  0  0  0  0  0  0  0  0  0
    4.8000   -6.9500    0.0000 N   0  0  0  0  0  0  0  0  0  0  0  0
    6.1000   -6.6792    0.0000 C   0  0  0  0  0  0  0  0  0  0  0  0
    9.4917   -0.0917    0.0000 O   0  0  0  0  0  0  0  0  0  0  0  0
   13.8500   -1.5292    0.0000 C   0  0  0  0  0  0  0  0  0  0  0  0
   11.2500   -2.0500    0.0000 C   0  0  0  0  0  0  0  0  0  0  0  0
   13.4292   -2.7792    0.0000 C   0  0  0  0  0  0  0  0  0  0  0  0
   12.9750   -0.5417    0.0000 C   0  0  0  0  0  0  0  0  0  0  0  0
    5.1542   -2.1750    0.0000 C   0  0  0  0  0  0  0  0  0  0  0  0
   15.1500   -1.2500    0.0000 C   0  0  3  0  0  0  0  0  0  0  0  0
   12.1417   -3.0542    0.0000 C   0  0  0  0  0  0  0  0  0  0  0  0
   11.6750   -0.8000    0.0000 C   0  0  0  0  0  0  0  0  0  0  0  0
    6.8750   -0.6292    0.0000 C   0  0  0  0  0  0  0  0  0  0  0  0
    1.7042   -6.9500    0.0000 C   0  0  0  0  0  0  0  0  0  0  0  0
    0.8750   -4.4250    0.0000 C   0  0  0  0  0  0  0  0  0  0  0  0
    5.5750   -0.9042    0.0000 C   0  0  0  0  0  0  0  0  0  0  0  0
   15.5667   -0.0000    0.0000 C   0  0  0  0  0  0  0  0  0  0  0  0
   16.0292   -2.2417    0.0000 C   0  0  0  0  0  0  0  0  0  0  0  0
    0.4000   -6.6792    0.0000 C   0  0  0  0  0  0  0  0  0  0  0  0
    0.0000   -5.4000    0.0000 C   0  0  0  0  0  0  0  0  0  0  0  0
  1  2  2  0  0  0  0
  1  3  1  0  0  0  0
  1  4  1  0  0  0  0
  2  5  1  0  0  0  0
  4  6  1  0  0  0  0
  7  9  1  0  0  0  0
  3  8  1  0  0  0  0
  9 11  1  0  0  0  0
  2 10  1  0  0  0  0
  5 11  1  0  0  0  0
  7 12  1  0  0  0  0
  4 13  2  0  0  0  0
 13 14  1  0  0  0  0
  7 15  2  0  0  0  0
 16 19  1  0  0  0  0
 12 17  1  0  0  0  0
 18 22  1  0  0  0  0
 19 23  2  0  0  0  0
  5 20  1  0  0  0  0
 16 21  1  0  0  0  0
 17 22  2  0  0  0  0
 17 23  1  0  0  0  0
 24 27  1  0  0  0  0
  6 25  1  0  0  0  0
  8 26  1  0  0  0  0
 20 27  1  0  0  0  0
 21 28  1  0  0  0  0
 21 29  1  0  0  0  0
 25 30  2  0  0  0  0
 26 31  2  0  0  0  0
  6  8  2  0  0  0  0
 10 14  2  0  0  0  0
 30 31  1  0  0  0  0
  9 24  1  0  0  0  0
 16 18  2  0  0  0  0
M  END
> <MOLFORMULA>
C25 H26 N4 O2

> <MOLWEIGHT>
4.145064000000000e+002

> <IDNUMBER>
AT-687/PE16752

> <PRICE>
EUR 80/10 mg

> <Similarity score>
0.19

$$$$

  -OEChem-04222410502D

 35 39  0     0  0  0  0  0  0999 V2000
   -3.3208    2.1875    0.0000 C   0  0  0  0  0  0  0  0  0  0  0  0
   -3.3125    1.3583    0.0000 C   0  0  0  0  0  0  0  0  0  0  0  0
   -1.8833    2.1875    0.0000 C   0  0  0  0  0  0  0  0  0  0  0  0
   -2.6083    2.6083    0.0000 N   0  0  0  0  0  0  0  0  0  0  0  0
   -1.8833    1.3583    0.0000 N   0  0  0  0  0  0  0  0  0  0  0  0
   -2.6000    0.9458    0.0000 C   0  0  0  0  0  0  0  0  0  0  0  0
   -4.1000    2.4333    0.0000 C   0  0  0  0  0  0  0  0  0  0  0  0
   -4.0958    1.1000    0.0000 S   0  0  0  0  0  0  0  0  0  0  0  0
   -1.1708    2.6000    0.0000 N   0  0  3  0  0  0  0  0  0  0  0  0
   -4.5833    1.7708    0.0000 C   0  0  0  0  0  0  0  0  0  0  0  0
    0.2542    2.5958    0.0000 C   0  0  3  0  0  0  0  0  0  0  0  0
    0.9750    2.1750    0.0000 C   0  0  0  0  0  0  0  0  0  0  0  0
   -0.4583    2.1833    0.0000 C   0  0  0  0  0  0  0  0  0  0  0  0
   -4.3625    3.2208    0.0000 C   0  0  0  0  0  0  0  0  0  0  0  0
    1.6917    2.5875    0.0000 N   0  0  0  0  0  0  0  0  0  0  0  0
   -2.6000    0.1208    0.0000 O   0  0  0  0  0  0  0  0  0  0  0  0
    2.3792   -0.2917    0.0000 C   0  0  0  0  0  0  0  0  0  0  0  0
    0.9667    1.3500    0.0000 O   0  0  0  0  0  0  0  0  0  0  0  0
    1.6667    0.1208    0.0000 C   0  0  0  0  0  0  0  0  0  0  0  0
    3.1042    0.1208    0.0000 C   0  0  0  0  0  0  0  0  0  0  0  0
    2.4000    1.3583    0.0000 C   0  0  0  0  0  0  0  0  0  0  0  0
   -5.1708    3.3958    0.0000 C   0  0  0  0  0  0  0  0  0  0  0  0
   -3.8083    3.8375    0.0000 C   0  0  0  0  0  0  0  0  0  0  0  0
    2.4042    2.1708    0.0000 C   0  0  0  0  0  0  0  0  0  0  0  0
    1.6792    0.9583    0.0000 C   0  0  0  0  0  0  0  0  0  0  0  0
    3.1042    0.9333    0.0000 C   0  0  0  0  0  0  0  0  0  0  0  0
   -1.1708    3.4208    0.0000 C   0  0  0  0  0  0  0  0  0  0  0  0
    3.8250   -0.2917    0.0000 F   0  0  0  0  0  0  0  0  0  0  0  0
    0.9417   -0.2875    0.0000 F   0  0  0  0  0  0  0  0  0  0  0  0
   -4.0708    4.6167    0.0000 C   0  0  0  0  0  0  0  0  0  0  0  0
   -5.4333    4.1667    0.0000 C   0  0  0  0  0  0  0  0  0  0  0  0
   -4.8750    4.7792    0.0000 C   0  0  0  0  0  0  0  0  0  0  0  0
    0.2625    3.4208    0.0000 C   0  0  0  0  0  0  0  0  0  0  0  0
   -0.4583    3.8333    0.0000 C   0  0  0  0  0  0  0  0  0  0  0  0
   -5.1333    5.5667    0.0000 C   0  0  0  0  0  0  0  0  0  0  0  0
  1  2  2  0  0  0  0
  3  4  2  0  0  0  0
  1  4  1  0  0  0  0
  3  5  1  0  0  0  0
  2  6  1  0  0  0  0
  1  7  1  0  0  0  0
  2  8  1  0  0  0  0
  3  9  1  0  0  0  0
  7 10  2  0  0  0  0
 11 13  1  0  0  0  0
 11 12  1  0  0  0  0
  9 13  1  0  0  0  0
  7 14  1  0  0  0  0
 12 15  1  0  0  0  0
  6 16  2  0  0  0  0
 17 20  2  0  0  0  0
 12 18  2  0  0  0  0
 19 25  2  0  0  0  0
 20 26  1  0  0  0  0
 21 24  1  0  0  0  0
 14 22  2  0  0  0  0
 14 23  1  0  0  0  0
 15 24  1  0  0  0  0
 21 25  1  0  0  0  0
 21 26  2  0  0  0  0
  9 27  1  0  0  0  0
 20 28  1  0  0  0  0
 19 29  1  0  0  0  0
 23 30  2  0  0  0  0
 22 31  1  0  0  0  0
 30 32  1  0  0  0  0
 33 34  1  0  0  0  0
 27 34  1  0  0  0  0
 32 35  1  0  0  0  0
  8 10  1  0  0  0  0
  5  6  1  0  0  0  0
 31 32  2  0  0  0  0
 11 33  1  0  0  0  0
 17 19  1  0  0  0  0
M  END
> <MOLFORMULA>
C26 H24 F2 N4 O2 S

> <MOLWEIGHT>
4.945636000000000e+002

> <IDNUMBER>
AT-687/PE25986

> <PRICE>
EUR 80/10 mg

> <Similarity score>
0.19

$$$$

  -OEChem-04222410502D

 34 38  0     0  0  0  0  0  0999 V2000
   -3.3208    2.1875    0.0000 C   0  0  0  0  0  0  0  0  0  0  0  0
   -3.3125    1.3583    0.0000 C   0  0  0  0  0  0  0  0  0  0  0  0
   -1.8833    2.1875    0.0000 C   0  0  0  0  0  0  0  0  0  0  0  0
   -2.6083    2.6083    0.0000 N   0  0  0  0  0  0  0  0  0  0  0  0
   -1.8833    1.3583    0.0000 N   0  0  0  0  0  0  0  0  0  0  0  0
   -2.6000    0.9458    0.0000 C   0  0  0  0  0  0  0  0  0  0  0  0
   -4.1000    2.4333    0.0000 C   0  0  0  0  0  0  0  0  0  0  0  0
   -4.0958    1.1000    0.0000 S   0  0  0  0  0  0  0  0  0  0  0  0
   -1.1708    2.6000    0.0000 N   0  0  3  0  0  0  0  0  0  0  0  0
   -4.5833    1.7708    0.0000 C   0  0  0  0  0  0  0  0  0  0  0  0
    0.2542    2.5958    0.0000 C   0  0  3  0  0  0  0  0  0  0  0  0
    0.9750    2.1750    0.0000 C   0  0  0  0  0  0  0  0  0  0  0  0
   -0.4583    2.1833    0.0000 C   0  0  0  0  0  0  0  0  0  0  0  0
    1.6917    2.5875    0.0000 N   0  0  0  0  0  0  0  0  0  0  0  0
    2.4000    1.3625    0.0000 C   0  0  0  0  0  0  0  0  0  0  0  0
   -4.3625    3.2208    0.0000 C   0  0  0  0  0  0  0  0  0  0  0  0
   -2.6000    0.1208    0.0000 O   0  0  0  0  0  0  0  0  0  0  0  0
    2.4042    2.1708    0.0000 C   0  0  0  0  0  0  0  0  0  0  0  0
    0.9667    1.3500    0.0000 O   0  0  0  0  0  0  0  0  0  0  0  0
    3.1000    0.9333    0.0000 C   0  0  0  0  0  0  0  0  0  0  0  0
   -1.1708    3.4208    0.0000 C   0  0  0  0  0  0  0  0  0  0  0  0
    0.2625    3.4208    0.0000 C   0  0  0  0  0  0  0  0  0  0  0  0
    3.8292    1.3458    0.0000 O   0  0  0  0  0  0  0  0  0  0  0  0
   -0.4583    3.8333    0.0000 C   0  0  0  0  0  0  0  0  0  0  0  0
    1.6792    0.9583    0.0000 C   0  0  0  0  0  0  0  0  0  0  0  0
   -3.8083    3.8375    0.0000 C   0  0  0  0  0  0  0  0  0  0  0  0
   -5.1708    3.3958    0.0000 C   0  0  0  0  0  0  0  0  0  0  0  0
    3.1000    0.1208    0.0000 C   0  0  0  0  0  0  0  0  0  0  0  0
    4.5417    0.9208    0.0000 C   0  0  0  0  0  0  0  0  0  0  0  0
    1.6667    0.1333    0.0000 C   0  0  0  0  0  0  0  0  0  0  0  0
   -4.0708    4.6167    0.0000 C   0  0  0  0  0  0  0  0  0  0  0  0
   -5.4333    4.1667    0.0000 C   0  0  0  0  0  0  0  0  0  0  0  0
    2.3792   -0.2917    0.0000 C   0  0  0  0  0  0  0  0  0  0  0  0
   -4.8750    4.7792    0.0000 C   0  0  0  0  0  0  0  0  0  0  0  0
  1  2  2  0  0  0  0
  3  4  2  0  0  0  0
  1  4  1  0  0  0  0
  3  5  1  0  0  0  0
  2  6  1  0  0  0  0
  1  7  1  0  0  0  0
  2  8  1  0  0  0  0
  3  9  1  0  0  0  0
  7 10  2  0  0  0  0
 11 13  1  0  0  0  0
 11 12  1  0  0  0  0
  9 13  1  0  0  0  0
 12 14  1  0  0  0  0
 15 18  1  0  0  0  0
  7 16  1  0  0  0  0
  6 17  2  0  0  0  0
 14 18  1  0  0  0  0
 12 19  2  0  0  0  0
 15 20  2  0  0  0  0
  9 21  1  0  0  0  0
 22 24  1  0  0  0  0
 20 23  1  0  0  0  0
 21 24  1  0  0  0  0
 15 25  1  0  0  0  0
 16 26  1  0  0  0  0
 16 27  2  0  0  0  0
 20 28  1  0  0  0  0
 23 29  1  0  0  0  0
 25 30  2  0  0  0  0
 26 31  2  0  0  0  0
 27 32  1  0  0  0  0
 30 33  1  0  0  0  0
 32 34  2  0  0  0  0
  8 10  1  0  0  0  0
  5  6  1  0  0  0  0
 31 34  1  0  0  0  0
 11 22  1  0  0  0  0
 28 33  2  0  0  0  0
M  END
> <MOLFORMULA>
C26 H26 N4 O3 S

> <MOLWEIGHT>
4.745824000000000e+002

> <IDNUMBER>
AT-687/PE25939

> <PRICE>
EUR 80/10 mg

> <Similarity score>
0.19

$$$$

  -OEChem-04222410502D

 34 38  0     0  0  0  0  0  0999 V2000
   -3.3208    2.1875    0.0000 C   0  0  0  0  0  0  0  0  0  0  0  0
   -3.3125    1.3583    0.0000 C   0  0  0  0  0  0  0  0  0  0  0  0
   -1.8833    2.1875    0.0000 C   0  0  0  0  0  0  0  0  0  0  0  0
   -2.6083    2.6083    0.0000 N   0  0  0  0  0  0  0  0  0  0  0  0
   -1.8833    1.3583    0.0000 N   0  0  0  0  0  0  0  0  0  0  0  0
   -2.6000    0.9458    0.0000 C   0  0  0  0  0  0  0  0  0  0  0  0
   -4.1000    2.4333    0.0000 C   0  0  0  0  0  0  0  0  0  0  0  0
   -4.0958    1.1000    0.0000 S   0  0  0  0  0  0  0  0  0  0  0  0
   -1.1708    2.6000    0.0000 N   0  0  3  0  0  0  0  0  0  0  0  0
   -4.5833    1.7708    0.0000 C   0  0  0  0  0  0  0  0  0  0  0  0
    0.2542    2.5958    0.0000 C   0  0  3  0  0  0  0  0  0  0  0  0
    0.9750    2.1750    0.0000 C   0  0  0  0  0  0  0  0  0  0  0  0
   -0.4583    2.1833    0.0000 C   0  0  0  0  0  0  0  0  0  0  0  0
   -4.3625    3.2208    0.0000 C   0  0  0  0  0  0  0  0  0  0  0  0
    1.6917    2.5875    0.0000 N   0  0  0  0  0  0  0  0  0  0  0  0
   -2.6000    0.1208    0.0000 O   0  0  0  0  0  0  0  0  0  0  0  0
    0.9667    1.3500    0.0000 O   0  0  0  0  0  0  0  0  0  0  0  0
    2.4042    2.1708    0.0000 C   0  0  0  0  0  0  0  0  0  0  0  0
    2.4000    1.3458    0.0000 C   0  0  0  0  0  0  0  0  0  0  0  0
   -5.1708    3.3958    0.0000 C   0  0  0  0  0  0  0  0  0  0  0  0
   -3.8083    3.8375    0.0000 C   0  0  0  0  0  0  0  0  0  0  0  0
    3.1167    0.9333    0.0000 C   0  0  0  0  0  0  0  0  0  0  0  0
   -1.1708    3.4208    0.0000 C   0  0  0  0  0  0  0  0  0  0  0  0
   -4.0708    4.6167    0.0000 C   0  0  0  0  0  0  0  0  0  0  0  0
   -5.4333    4.1667    0.0000 C   0  0  0  0  0  0  0  0  0  0  0  0
   -4.8750    4.7792    0.0000 C   0  0  0  0  0  0  0  0  0  0  0  0
    0.2625    3.4208    0.0000 C   0  0  0  0  0  0  0  0  0  0  0  0
   -0.4583    3.8333    0.0000 C   0  0  0  0  0  0  0  0  0  0  0  0
    1.6875    0.9333    0.0000 C   0  0  0  0  0  0  0  0  0  0  0  0
    3.8292    1.3458    0.0000 C   0  0  0  0  0  0  0  0  0  0  0  0
    3.1167    0.1083    0.0000 C   0  0  0  0  0  0  0  0  0  0  0  0
   -5.1333    5.5667    0.0000 C   0  0  0  0  0  0  0  0  0  0  0  0
    2.4042   -0.3042    0.0000 C   0  0  0  0  0  0  0  0  0  0  0  0
    1.6792    0.1083    0.0000 C   0  0  0  0  0  0  0  0  0  0  0  0
  1  2  2  0  0  0  0
  3  4  2  0  0  0  0
  1  4  1  0  0  0  0
  3  5  1  0  0  0  0
  2  6  1  0  0  0  0
  1  7  1  0  0  0  0
  2  8  1  0  0  0  0
  3  9  1  0  0  0  0
  7 10  2  0  0  0  0
 11 13  1  0  0  0  0
 11 12  1  0  0  0  0
  9 13  1  0  0  0  0
  7 14  1  0  0  0  0
 12 15  1  0  0  0  0
  6 16  2  0  0  0  0
 12 17  2  0  0  0  0
 15 18  1  0  0  0  0
 18 19  1  0  0  0  0
 14 20  2  0  0  0  0
 14 21  1  0  0  0  0
 19 22  2  0  0  0  0
  9 23  1  0  0  0  0
 21 24  2  0  0  0  0
 20 25  1  0  0  0  0
 24 26  1  0  0  0  0
 27 28  1  0  0  0  0
 23 28  1  0  0  0  0
 19 29  1  0  0  0  0
 22 30  1  0  0  0  0
 22 31  1  0  0  0  0
 26 32  1  0  0  0  0
 33 34  1  0  0  0  0
 29 34  2  0  0  0  0
  8 10  1  0  0  0  0
  5  6  1  0  0  0  0
 25 26  2  0  0  0  0
 11 27  1  0  0  0  0
 31 33  2  0  0  0  0
M  END
> <MOLFORMULA>
C27 H28 N4 O2 S

> <MOLWEIGHT>
4.726102000000000e+002

> <IDNUMBER>
AT-687/PE25995

> <PRICE>
EUR 80/10 mg

> <Similarity score>
0.19

$$$$

  -OEChem-04222410502D

 35 39  0     0  0  0  0  0  0999 V2000
   -3.3208    2.1875    0.0000 C   0  0  0  0  0  0  0  0  0  0  0  0
   -3.3125    1.3583    0.0000 C   0  0  0  0  0  0  0  0  0  0  0  0
   -1.8833    2.1875    0.0000 C   0  0  0  0  0  0  0  0  0  0  0  0
   -2.6083    2.6083    0.0000 N   0  0  0  0  0  0  0  0  0  0  0  0
   -1.8833    1.3583    0.0000 N   0  0  0  0  0  0  0  0  0  0  0  0
   -2.6000    0.9458    0.0000 C   0  0  0  0  0  0  0  0  0  0  0  0
   -4.1000    2.4333    0.0000 C   0  0  0  0  0  0  0  0  0  0  0  0
   -4.0958    1.1000    0.0000 S   0  0  0  0  0  0  0  0  0  0  0  0
   -1.1708    2.6000    0.0000 N   0  0  3  0  0  0  0  0  0  0  0  0
   -4.5833    1.7708    0.0000 C   0  0  0  0  0  0  0  0  0  0  0  0
    0.2542    2.5958    0.0000 C   0  0  3  0  0  0  0  0  0  0  0  0
    0.9750    2.1750    0.0000 C   0  0  0  0  0  0  0  0  0  0  0  0
   -0.4583    2.1833    0.0000 C   0  0  0  0  0  0  0  0  0  0  0  0
    1.6917    2.5875    0.0000 N   0  0  0  0  0  0  0  0  0  0  0  0
   -4.3625    3.2208    0.0000 C   0  0  0  0  0  0  0  0  0  0  0  0
   -2.6000    0.1208    0.0000 O   0  0  0  0  0  0  0  0  0  0  0  0
    0.9667    1.3500    0.0000 O   0  0  0  0  0  0  0  0  0  0  0  0
    2.4042    2.1708    0.0000 C   0  0  0  0  0  0  0  0  0  0  0  0
   -1.1708    3.4208    0.0000 C   0  0  0  0  0  0  0  0  0  0  0  0
    3.1042    0.9375    0.0000 C   0  0  0  0  0  0  0  0  0  0  0  0
    2.4000    1.3583    0.0000 C   0  0  0  0  0  0  0  0  0  0  0  0
    3.1042    0.1208    0.0000 C   0  0  0  0  0  0  0  0  0  0  0  0
    0.2625    3.4208    0.0000 C   0  0  0  0  0  0  0  0  0  0  0  0
    3.8250   -0.2875    0.0000 O   0  0  0  0  0  0  0  0  0  0  0  0
   -0.4583    3.8333    0.0000 C   0  0  0  0  0  0  0  0  0  0  0  0
    1.6792    0.1333    0.0000 C   0  0  0  0  0  0  0  0  0  0  0  0
   -5.1708    3.3958    0.0000 C   0  0  0  0  0  0  0  0  0  0  0  0
   -3.8083    3.8375    0.0000 C   0  0  0  0  0  0  0  0  0  0  0  0
    1.6792    0.9583    0.0000 C   0  0  0  0  0  0  0  0  0  0  0  0
    2.3917   -0.2917    0.0000 C   0  0  0  0  0  0  0  0  0  0  0  0
    3.8250   -1.1167    0.0000 C   0  0  0  0  0  0  0  0  0  0  0  0
    4.5417   -1.5375    0.0000 C   0  0  0  0  0  0  0  0  0  0  0  0
   -5.4333    4.1667    0.0000 C   0  0  0  0  0  0  0  0  0  0  0  0
   -4.0708    4.6167    0.0000 C   0  0  0  0  0  0  0  0  0  0  0  0
   -4.8750    4.7792    0.0000 C   0  0  0  0  0  0  0  0  0  0  0  0
  1  2  2  0  0  0  0
  3  4  2  0  0  0  0
  1  4  1  0  0  0  0
  3  5  1  0  0  0  0
  2  6  1  0  0  0  0
  1  7  1  0  0  0  0
  2  8  1  0  0  0  0
  3  9  1  0  0  0  0
  7 10  2  0  0  0  0
 11 13  1  0  0  0  0
 11 12  1  0  0  0  0
  9 13  1  0  0  0  0
 12 14  1  0  0  0  0
  7 15  1  0  0  0  0
  6 16  2  0  0  0  0
 12 17  2  0  0  0  0
 14 18  1  0  0  0  0
  9 19  1  0  0  0  0
 20 21  2  0  0  0  0
 18 21  1  0  0  0  0
 20 22  1  0  0  0  0
 23 25  1  0  0  0  0
 22 24  1  0  0  0  0
 19 25  1  0  0  0  0
 26 29  2  0  0  0  0
 15 27  2  0  0  0  0
 15 28  1  0  0  0  0
 21 29  1  0  0  0  0
 26 30  1  0  0  0  0
 24 31  1  0  0  0  0
 31 32  1  0  0  0  0
 27 33  1  0  0  0  0
 28 34  2  0  0  0  0
 34 35  1  0  0  0  0
  8 10  1  0  0  0  0
  5  6  1  0  0  0  0
 33 35  2  0  0  0  0
 11 23  1  0  0  0  0
 22 30  2  0  0  0  0
M  END
> <MOLFORMULA>
C27 H28 N4 O3 S

> <MOLWEIGHT>
4.886092000000000e+002

> <IDNUMBER>
AT-687/PE25942

> <PRICE>
EUR 80/10 mg

> <Similarity score>
0.19

$$$$

  -OEChem-04222410502D

 29 32  0     0  0  0  0  0  0999 V2000
    0.4958   -0.0000    0.0000 C   0  0  0  0  0  0  0  0  0  0  0  0
   -0.0042    0.8667    0.0000 C   0  0  0  0  0  0  0  0  0  0  0  0
    1.4958   -0.0000    0.0000 C   0  0  0  0  0  0  0  0  0  0  0  0
   -0.0042   -0.8625    0.0000 N   0  0  3  0  0  0  0  0  0  0  0  0
    0.4958    1.7333    0.0000 C   0  0  0  0  0  0  0  0  0  0  0  0
    2.0000    0.8667    0.0000 N   0  0  0  0  0  0  0  0  0  0  0  0
    1.4958    1.7333    0.0000 C   0  0  0  0  0  0  0  0  0  0  0  0
   -0.0042   -2.5958    0.0000 C   0  0  3  0  0  0  0  0  0  0  0  0
    0.4958   -1.7292    0.0000 C   0  0  0  0  0  0  0  0  0  0  0  0
    0.4958   -3.4625    0.0000 C   0  0  0  0  0  0  0  0  0  0  0  0
   -0.0042    2.6000    0.0000 C   0  0  0  0  0  0  0  0  0  0  0  0
   -1.0000    0.8667    0.0000 C   0  0  0  0  0  0  0  0  0  0  0  0
    2.0000   -0.8625    0.0000 O   0  0  0  0  0  0  0  0  0  0  0  0
   -0.0042   -4.3292    0.0000 O   0  0  0  0  0  0  0  0  0  0  0  0
    2.0000    2.6000    0.0000 C   0  0  0  0  0  0  0  0  0  0  0  0
   -1.0000   -0.8625    0.0000 C   0  0  0  0  0  0  0  0  0  0  0  0
    0.4958    3.4667    0.0000 C   0  0  0  0  0  0  0  0  0  0  0  0
    1.4958   -3.4625    0.0000 O   0  0  0  0  0  0  0  0  0  0  0  0
    1.4958    3.4667    0.0000 C   0  0  0  0  0  0  0  0  0  0  0  0
   -0.0042    4.3292    0.0000 Cl  0  0  0  0  0  0  0  0  0  0  0  0
   -1.0000   -2.5958    0.0000 C   0  0  0  0  0  0  0  0  0  0  0  0
   -1.5000   -1.7292    0.0000 C   0  0  0  0  0  0  0  0  0  0  0  0
   -1.5000    1.7333    0.0000 C   0  0  0  0  0  0  0  0  0  0  0  0
   -1.5000   -0.0000    0.0000 C   0  0  0  0  0  0  0  0  0  0  0  0
    2.0000   -4.3292    0.0000 C   0  0  0  0  0  0  0  0  0  0  0  0
    3.0000   -4.3292    0.0000 C   0  0  0  0  0  0  0  0  0  0  0  0
   -2.5000    1.7333    0.0000 C   0  0  0  0  0  0  0  0  0  0  0  0
   -2.5000   -0.0000    0.0000 C   0  0  0  0  0  0  0  0  0  0  0  0
   -3.0000    0.8667    0.0000 C   0  0  0  0  0  0  0  0  0  0  0  0
  1  2  2  0  0  0  0
  1  3  1  0  0  0  0
  1  4  1  0  0  0  0
  2  5  1  0  0  0  0
  3  6  1  0  0  0  0
  6  7  1  0  0  0  0
  8  9  1  0  0  0  0
  4  9  1  0  0  0  0
  8 10  1  0  0  0  0
  5 11  2  0  0  0  0
  2 12  1  0  0  0  0
  3 13  2  0  0  0  0
 10 14  2  0  0  0  0
  7 15  2  0  0  0  0
  4 16  1  0  0  0  0
 11 17  1  0  0  0  0
 10 18  1  0  0  0  0
 15 19  1  0  0  0  0
 17 20  1  0  0  0  0
 21 22  1  0  0  0  0
 16 22  1  0  0  0  0
 12 23  1  0  0  0  0
 12 24  2  0  0  0  0
 18 25  1  0  0  0  0
 25 26  1  0  0  0  0
 23 27  2  0  0  0  0
 24 28  1  0  0  0  0
 28 29  2  0  0  0  0
  5  7  1  0  0  0  0
  8 21  1  0  0  0  0
 17 19  2  0  0  0  0
 27 29  1  0  0  0  0
M  END
> <MOLFORMULA>
C23 H23 Cl N2 O3

> <MOLWEIGHT>
4.108987000000000e+002

> <IDNUMBER>
AN-153/I208778

> <PRICE>
EUR 130/10 mg

> <Similarity score>
0.19

$$$$

  -OEChem-04222410502D

 31 35  0     0  0  0  0  0  0999 V2000
    4.3417   -4.8917    0.0000 C   0  0  0  0  0  0  0  0  0  0  0  0
    5.6250   -4.6167    0.0000 C   0  0  0  0  0  0  0  0  0  0  0  0
    3.2667   -4.1000    0.0000 O   0  0  0  0  0  0  0  0  0  0  0  0
    3.9042   -6.1417    0.0000 C   0  0  0  0  0  0  0  0  0  0  0  0
    6.0542   -3.3500    0.0000 N   0  0  3  0  0  0  0  0  0  0  0  0
    2.5917   -6.1500    0.0000 C   0  0  0  0  0  0  0  0  0  0  0  0
    2.1750   -4.8917    0.0000 C   0  0  0  0  0  0  0  0  0  0  0  0
    7.7750   -1.8000    0.0000 C   0  0  3  0  0  0  0  0  0  0  0  0
    9.0750   -1.5292    0.0000 C   0  0  0  0  0  0  0  0  0  0  0  0
    6.5250   -5.5917    0.0000 N   0  0  0  0  0  0  0  0  0  0  0  0
    7.3500   -3.0750    0.0000 C   0  0  0  0  0  0  0  0  0  0  0  0
    4.8000   -7.1250    0.0000 N   0  0  0  0  0  0  0  0  0  0  0  0
    9.4917   -0.2667    0.0000 N   0  0  0  0  0  0  0  0  0  0  0  0
    6.1000   -6.8750    0.0000 C   0  0  0  0  0  0  0  0  0  0  0  0
    9.9750   -2.5250    0.0000 O   0  0  0  0  0  0  0  0  0  0  0  0
   10.7917   -0.0000    0.0000 C   0  0  0  0  0  0  0  0  0  0  0  0
    5.1542   -2.3500    0.0000 C   0  0  0  0  0  0  0  0  0  0  0  0
   12.9750   -0.7000    0.0000 C   0  0  0  0  0  0  0  0  0  0  0  0
   11.6750   -0.9750    0.0000 C   0  0  0  0  0  0  0  0  0  0  0  0
   13.8500   -1.7000    0.0000 C   0  0  0  0  0  0  0  0  0  0  0  0
    6.8750   -0.8167    0.0000 C   0  0  0  0  0  0  0  0  0  0  0  0
    1.7042   -7.1250    0.0000 C   0  0  0  0  0  0  0  0  0  0  0  0
    0.8750   -4.6167    0.0000 C   0  0  0  0  0  0  0  0  0  0  0  0
   15.1500   -1.4000    0.0000 O   0  0  0  0  0  0  0  0  0  0  0  0
    5.5750   -1.0792    0.0000 C   0  0  0  0  0  0  0  0  0  0  0  0
   12.1292   -3.2292    0.0000 C   0  0  0  0  0  0  0  0  0  0  0  0
   11.2500   -2.2250    0.0000 C   0  0  0  0  0  0  0  0  0  0  0  0
   13.4292   -2.9500    0.0000 C   0  0  0  0  0  0  0  0  0  0  0  0
   16.0292   -2.4000    0.0000 C   0  0  0  0  0  0  0  0  0  0  0  0
    0.4000   -6.8542    0.0000 C   0  0  0  0  0  0  0  0  0  0  0  0
    0.0000   -5.5917    0.0000 C   0  0  0  0  0  0  0  0  0  0  0  0
  1  2  2  0  0  0  0
  1  3  1  0  0  0  0
  1  4  1  0  0  0  0
  2  5  1  0  0  0  0
  4  6  1  0  0  0  0
  3  7  1  0  0  0  0
  8 11  1  0  0  0  0
  8  9  1  0  0  0  0
  2 10  1  0  0  0  0
  5 11  1  0  0  0  0
  4 12  2  0  0  0  0
  9 13  1  0  0  0  0
 12 14  1  0  0  0  0
  9 15  2  0  0  0  0
 13 16  1  0  0  0  0
  5 17  1  0  0  0  0
 18 19  2  0  0  0  0
 16 19  1  0  0  0  0
 18 20  1  0  0  0  0
 21 25  1  0  0  0  0
  6 22  1  0  0  0  0
  7 23  1  0  0  0  0
 20 24  1  0  0  0  0
 17 25  1  0  0  0  0
 26 27  2  0  0  0  0
 19 27  1  0  0  0  0
 26 28  1  0  0  0  0
 24 29  1  0  0  0  0
 22 30  2  0  0  0  0
 23 31  2  0  0  0  0
  6  7  2  0  0  0  0
 10 14  2  0  0  0  0
 30 31  1  0  0  0  0
  8 21  1  0  0  0  0
 20 28  2  0  0  0  0
M  END
> <MOLFORMULA>
C24 H24 N4 O3

> <MOLWEIGHT>
4.164786000000000e+002

> <IDNUMBER>
AT-687/PE16769

> <PRICE>
EUR 80/10 mg

> <Similarity score>
0.19

$$$$

  -OEChem-04222410502D

 23 25  0     0  0  0  0  0  0999 V2000
    4.8333    6.2500    0.0000 C   0  0  0  0  0  0  0  0  0  0  0  0
    4.8375    7.6500    0.0000 N   0  0  0  0  0  0  0  0  0  0  0  0
    3.6167    5.5583    0.0000 C   0  0  0  0  0  0  0  0  0  0  0  0
    3.6250    8.3500    0.0000 C   0  0  0  0  0  0  0  0  0  0  0  0
    2.4125    7.6500    0.0000 N   0  0  0  0  0  0  0  0  0  0  0  0
    6.0417    5.5458    0.0000 C   0  0  0  0  0  0  0  0  0  0  0  0
    2.4125    6.2542    0.0000 C   0  0  0  0  0  0  0  0  0  0  0  0
    3.6167    4.1708    0.0000 C   0  0  0  0  0  0  0  0  0  0  0  0
    7.2583    6.2417    0.0000 C   0  0  0  0  0  0  0  0  0  0  0  0
    3.6250    9.7500    0.0000 O   0  0  0  0  0  0  0  0  0  0  0  0
    2.4125    3.4792    0.0000 C   0  0  0  0  0  0  0  0  0  0  0  0
    1.2125    5.5583    0.0000 C   0  0  0  0  0  0  0  0  0  0  0  0
    2.4125    2.0833    0.0000 O   0  0  0  0  0  0  0  0  0  0  0  0
    1.2000    1.3958    0.0000 C   0  0  3  0  0  0  0  0  0  0  0  0
    1.2125    4.1708    0.0000 C   0  0  0  0  0  0  0  0  0  0  0  0
    7.2625    7.6417    0.0000 F   0  0  0  0  0  0  0  0  0  0  0  0
    6.0333    4.1458    0.0000 C   0  0  0  0  0  0  0  0  0  0  0  0
    8.4667    5.5333    0.0000 C   0  0  0  0  0  0  0  0  0  0  0  0
    1.2000   -0.0000    0.0000 C   0  0  0  0  0  0  0  0  0  0  0  0
    0.0000    2.0833    0.0000 C   0  0  0  0  0  0  0  0  0  0  0  0
    0.0000    0.7000    0.0000 C   0  0  0  0  0  0  0  0  0  0  0  0
    7.2458    3.4458    0.0000 C   0  0  0  0  0  0  0  0  0  0  0  0
    8.4583    4.1333    0.0000 C   0  0  0  0  0  0  0  0  0  0  0  0
  1  2  2  0  0  0  0
  1  3  1  0  0  0  0
  2  4  1  0  0  0  0
  5  7  1  0  0  0  0
  1  6  1  0  0  0  0
  3  7  2  0  0  0  0
  3  8  1  0  0  0  0
  6  9  1  0  0  0  0
  4 10  2  0  0  0  0
  8 11  2  0  0  0  0
  7 12  1  0  0  0  0
 11 13  1  0  0  0  0
 13 14  1  0  0  0  0
 12 15  2  0  0  0  0
  9 16  1  0  0  0  0
  6 17  2  0  0  0  0
  9 18  2  0  0  0  0
 14 19  1  0  0  0  0
 14 20  1  0  0  0  0
 14 21  1  0  0  0  0
 17 22  1  0  0  0  0
 18 23  1  0  0  0  0
  4  5  1  0  0  0  0
 11 15  1  0  0  0  0
 22 23  2  0  0  0  0
M  END
> <MOLFORMULA>
C18 H17 F N2 O2

> <MOLWEIGHT>
3.123423000000000e+002

> <IDNUMBER>
AT-819/OC12801

> <PRICE>
EUR 192/10 mg

> <Similarity score>
0.19

$$$$

  -OEChem-04222410502D

 29 33  0     0  0  0  0  0  0999 V2000
    4.3292   -4.6000    0.0000 C   0  0  0  0  0  0  0  0  0  0  0  0
    5.6250   -4.3292    0.0000 C   0  0  0  0  0  0  0  0  0  0  0  0
    3.2542   -3.8167    0.0000 O   0  0  0  0  0  0  0  0  0  0  0  0
    3.9000   -5.8667    0.0000 C   0  0  0  0  0  0  0  0  0  0  0  0
    6.0500   -3.0750    0.0000 N   0  0  3  0  0  0  0  0  0  0  0  0
    2.5917   -5.8667    0.0000 C   0  0  0  0  0  0  0  0  0  0  0  0
    9.0750   -1.2500    0.0000 C   0  0  0  0  0  0  0  0  0  0  0  0
    2.1750   -4.6000    0.0000 C   0  0  0  0  0  0  0  0  0  0  0  0
    7.7750   -1.5250    0.0000 C   0  0  3  0  0  0  0  0  0  0  0  0
    6.5167   -5.3042    0.0000 N   0  0  0  0  0  0  0  0  0  0  0  0
    7.3500   -2.7917    0.0000 C   0  0  0  0  0  0  0  0  0  0  0  0
    9.9500   -2.2417    0.0000 N   0  0  0  0  0  0  0  0  0  0  0  0
    4.7917   -6.8500    0.0000 N   0  0  0  0  0  0  0  0  0  0  0  0
    6.1000   -6.5792    0.0000 C   0  0  0  0  0  0  0  0  0  0  0  0
    9.4750   -0.0000    0.0000 O   0  0  0  0  0  0  0  0  0  0  0  0
   11.2417   -1.9500    0.0000 C   0  0  0  0  0  0  0  0  0  0  0  0
    5.1500   -2.0792    0.0000 C   0  0  0  0  0  0  0  0  0  0  0  0
   12.1250   -2.9750    0.0000 C   0  0  0  0  0  0  0  0  0  0  0  0
    6.8792   -0.5417    0.0000 C   0  0  0  0  0  0  0  0  0  0  0  0
    1.7000   -6.8500    0.0000 C   0  0  0  0  0  0  0  0  0  0  0  0
   13.4250   -2.6917    0.0000 C   0  0  0  0  0  0  0  0  0  0  0  0
    0.8792   -4.3167    0.0000 C   0  0  0  0  0  0  0  0  0  0  0  0
    5.5750   -0.8042    0.0000 C   0  0  0  0  0  0  0  0  0  0  0  0
   12.9500   -0.4417    0.0000 C   0  0  0  0  0  0  0  0  0  0  0  0
   11.6500   -0.7042    0.0000 C   0  0  0  0  0  0  0  0  0  0  0  0
   13.8500   -1.4250    0.0000 C   0  0  0  0  0  0  0  0  0  0  0  0
   14.3167   -3.6917    0.0000 C   0  0  0  0  0  0  0  0  0  0  0  0
    0.4000   -6.5792    0.0000 C   0  0  0  0  0  0  0  0  0  0  0  0
    0.0000   -5.3042    0.0000 C   0  0  0  0  0  0  0  0  0  0  0  0
  1  2  2  0  0  0  0
  1  3  1  0  0  0  0
  1  4  1  0  0  0  0
  2  5  1  0  0  0  0
  4  6  1  0  0  0  0
  7  9  1  0  0  0  0
  3  8  1  0  0  0  0
  9 11  1  0  0  0  0
  2 10  1  0  0  0  0
  5 11  1  0  0  0  0
  7 12  1  0  0  0  0
  4 13  2  0  0  0  0
 13 14  1  0  0  0  0
  7 15  2  0  0  0  0
 12 16  1  0  0  0  0
  5 17  1  0  0  0  0
 16 18  2  0  0  0  0
 19 23  1  0  0  0  0
  6 20  1  0  0  0  0
 18 21  1  0  0  0  0
  8 22  1  0  0  0  0
 17 23  1  0  0  0  0
 24 25  2  0  0  0  0
 16 25  1  0  0  0  0
 24 26  1  0  0  0  0
 21 27  1  0  0  0  0
 20 28  2  0  0  0  0
 22 29  2  0  0  0  0
  6  8  2  0  0  0  0
 10 14  2  0  0  0  0
 28 29  1  0  0  0  0
  9 19  1  0  0  0  0
 21 26  2  0  0  0  0
M  END
> <MOLFORMULA>
C23 H22 N4 O2

> <MOLWEIGHT>
3.864528000000000e+002

> <IDNUMBER>
AT-687/PE16749

> <PRICE>
EUR 80/10 mg

> <Similarity score>
0.19

$$$$

  -OEChem-04222410502D

 28 32  0     0  0  0  0  0  0999 V2000
    8.0792   -3.3375    0.0000 C   0  0  0  0  0  0  0  0  0  0  0  0
    8.0792   -2.0042    0.0000 C   0  0  0  0  0  0  0  0  0  0  0  0
    5.7667   -3.3250    0.0000 C   0  0  0  0  0  0  0  0  0  0  0  0
    4.6042   -3.9875    0.0000 C   0  0  0  0  0  0  0  0  0  0  0  0
    6.9167   -3.9917    0.0000 N   0  0  0  0  0  0  0  0  0  0  0  0
    6.9292   -1.3292    0.0000 C   0  0  0  0  0  0  0  0  0  0  0  0
    5.7667   -1.9917    0.0000 N   0  0  0  0  0  0  0  0  0  0  0  0
    4.6042   -5.3250    0.0000 C   0  0  0  0  0  0  0  0  0  0  0  0
    9.3250   -3.7542    0.0000 S   0  0  0  0  0  0  0  0  0  0  0  0
    9.3500   -1.6042    0.0000 C   0  0  0  0  0  0  0  0  0  0  0  0
    3.4542   -5.9917    0.0000 O   0  0  0  0  0  0  0  0  0  0  0  0
    3.4542   -3.3167    0.0000 C   0  0  0  0  0  0  0  0  0  0  0  0
   10.1167   -2.6792    0.0000 C   0  0  0  0  0  0  0  0  0  0  0  0
    2.2917   -5.3250    0.0000 C   0  0  0  0  0  0  0  0  0  0  0  0
    2.3042   -3.9875    0.0000 C   0  0  0  0  0  0  0  0  0  0  0  0
    6.9417   -0.0000    0.0000 O   0  0  0  0  0  0  0  0  0  0  0  0
    5.7542   -5.9917    0.0000 O   0  0  0  0  0  0  0  0  0  0  0  0
    1.1417   -5.9917    0.0000 C   0  0  0  0  0  0  0  0  0  0  0  0
    9.8875   -0.4042    0.0000 C   0  0  0  0  0  0  0  0  0  0  0  0
   11.4167   -2.5625    0.0000 C   0  0  0  0  0  0  0  0  0  0  0  0
    1.1542   -7.3125    0.0000 O   0  0  0  0  0  0  0  0  0  0  0  0
    1.1417   -3.3250    0.0000 C   0  0  0  0  0  0  0  0  0  0  0  0
    0.0000   -3.9875    0.0000 C   0  0  0  0  0  0  0  0  0  0  0  0
    0.0000   -5.3250    0.0000 C   0  0  0  0  0  0  0  0  0  0  0  0
    2.3042   -7.9792    0.0000 C   0  0  0  0  0  0  0  0  0  0  0  0
   11.2042   -0.2750    0.0000 C   0  0  0  0  0  0  0  0  0  0  0  0
   11.9667   -1.3500    0.0000 C   0  0  0  0  0  0  0  0  0  0  0  0
    3.4542   -7.3125    0.0000 C   0  0  0  0  0  0  0  0  0  0  0  0
  1  2  2  0  0  0  0
  3  5  2  0  0  0  0
  3  4  1  0  0  0  0
  1  5  1  0  0  0  0
  2  6  1  0  0  0  0
  3  7  1  0  0  0  0
  4  8  1  0  0  0  0
  1  9  1  0  0  0  0
  2 10  1  0  0  0  0
  8 11  1  0  0  0  0
  4 12  2  0  0  0  0
  9 13  1  0  0  0  0
 14 15  1  0  0  0  0
 12 15  1  0  0  0  0
  6 16  2  0  0  0  0
  8 17  2  0  0  0  0
 14 18  2  0  0  0  0
 10 19  1  0  0  0  0
 13 20  1  0  0  0  0
 18 21  1  0  0  0  0
 15 22  2  0  0  0  0
 22 23  1  0  0  0  0
 23 24  2  0  0  0  0
 21 25  1  0  0  0  0
 19 26  1  0  0  0  0
 20 27  1  0  0  0  0
 25 28  1  0  0  0  0
 10 13  2  0  0  0  0
  6  7  1  0  0  0  0
 26 27  1  0  0  0  0
 11 14  1  0  0  0  0
 18 24  1  0  0  0  0
M  END
> <MOLFORMULA>
C21 H18 N2 O4 S

> <MOLWEIGHT>
3.944492000000000e+002

> <IDNUMBER>
AT-687/NB04359

> <PRICE>
EUR 80/10 mg

> <Similarity score>
0.19

$$$$

  -OEChem-04222410502D

 36 40  0     0  0  0  0  0  0999 V2000
    5.3167   -8.0625    0.0000 S   0  0  3  0  0  0  0  0  0  0  0  0
    6.6500   -8.0625    0.0000 C   0  0  0  0  0  0  0  0  0  0  0  0
    7.3042   -6.9042    0.0000 C   0  0  0  0  0  0  0  0  0  0  0  0
    8.6375   -6.9042    0.0000 C   0  0  0  0  0  0  0  0  0  0  0  0
    6.6500   -5.7542    0.0000 N   0  0  3  0  0  0  0  0  0  0  0  0
    3.9750   -8.0625    0.0000 C   0  0  0  0  0  0  0  0  0  0  0  0
    7.3042   -9.2125    0.0000 C   0  0  0  0  0  0  0  0  0  0  0  0
    8.6375   -9.2125    0.0000 N   0  0  0  0  0  0  0  0  0  0  0  0
    3.3167   -6.9042    0.0000 C   0  0  0  0  0  0  0  0  0  0  0  0
    9.3042   -8.0625    0.0000 C   0  0  0  0  0  0  0  0  0  0  0  0
    1.9917   -6.9042    0.0000 C   0  0  0  0  0  0  0  0  0  0  0  0
    5.3167   -6.7292    0.0000 O   0  0  0  0  0  0  0  0  0  0  0  0
    5.3167   -9.3917    0.0000 O   0  0  0  0  0  0  0  0  0  0  0  0
    8.6375   -2.3000    0.0000 N   0  0  3  0  0  0  0  0  0  0  0  0
    7.3042   -4.6042    0.0000 C   0  0  3  0  0  0  0  0  0  0  0  0
    9.3042   -5.7542    0.0000 C   0  0  0  0  0  0  0  0  0  0  0  0
    8.6375   -4.6042    0.0000 C   0  0  0  0  0  0  0  0  0  0  0  0
    1.3167   -8.0625    0.0000 C   0  0  0  0  0  0  0  0  0  0  0  0
    3.3167   -9.2125    0.0000 C   0  0  0  0  0  0  0  0  0  0  0  0
    1.9917   -9.2125    0.0000 C   0  0  0  0  0  0  0  0  0  0  0  0
    9.3042   -3.4542    0.0000 C   0  0  0  0  0  0  0  0  0  0  0  0
    7.3042   -0.0000    0.0000 O   0  0  0  0  0  0  0  0  0  0  0  0
   10.6250   -8.0625    0.0000 C   0  0  0  0  0  0  0  0  0  0  0  0
   10.6250   -5.7542    0.0000 C   0  0  0  0  0  0  0  0  0  0  0  0
    1.3167   -5.7542    0.0000 F   0  0  0  0  0  0  0  0  0  0  0  0
    5.3167   -5.7542    0.0000 C   0  0  0  0  0  0  0  0  0  0  0  0
    0.0000   -8.0625    0.0000 F   0  0  0  0  0  0  0  0  0  0  0  0
   11.2917   -6.9042    0.0000 C   0  0  0  0  0  0  0  0  0  0  0  0
   11.2917   -4.6042    0.0000 F   0  0  0  0  0  0  0  0  0  0  0  0
    9.3042   -1.1500    0.0000 C   0  0  0  0  0  0  0  0  0  0  0  0
    7.3042   -2.3000    0.0000 C   0  0  0  0  0  0  0  0  0  0  0  0
    6.6375   -1.1500    0.0000 C   0  0  0  0  0  0  0  0  0  0  0  0
    8.6375   -0.0000    0.0000 C   0  0  0  0  0  0  0  0  0  0  0  0
    6.6500   -3.4542    0.0000 C   0  0  0  0  0  0  0  0  0  0  0  0
    4.6375   -4.6042    0.0000 C   0  0  0  0  0  0  0  0  0  0  0  0
    5.3167   -3.4542    0.0000 C   0  0  0  0  0  0  0  0  0  0  0  0
  1  2  1  0  0  0  0
  2  3  2  0  0  0  0
  3  4  1  0  0  0  0
  3  5  1  0  0  0  0
  1  6  1  0  0  0  0
  2  7  1  0  0  0  0
  7  8  2  0  0  0  0
  6  9  1  0  0  0  0
  8 10  1  0  0  0  0
  9 11  2  0  0  0  0
  1 12  2  0  0  0  0
  1 13  2  0  0  0  0
 14 21  1  0  0  0  0
  5 15  1  0  0  0  0
  4 16  2  0  0  0  0
 15 17  1  0  0  0  0
 18 20  2  0  0  0  0
  6 19  2  0  0  0  0
 19 20  1  0  0  0  0
 17 21  1  0  0  0  0
 22 32  1  0  0  0  0
 10 23  2  0  0  0  0
 16 24  1  0  0  0  0
 11 25  1  0  0  0  0
  5 26  1  0  0  0  0
 18 27  1  0  0  0  0
 23 28  1  0  0  0  0
 24 29  1  0  0  0  0
 14 30  1  0  0  0  0
 14 31  1  0  0  0  0
 31 32  1  0  0  0  0
 30 33  1  0  0  0  0
 15 34  1  0  0  0  0
 26 35  1  0  0  0  0
 35 36  1  0  0  0  0
 11 18  1  0  0  0  0
  4 10  1  0  0  0  0
 24 28  2  0  0  0  0
 34 36  1  0  0  0  0
 22 33  1  0  0  0  0
M  END
> <MOLFORMULA>
C26 H28 F3 N3 O3 S

> <MOLWEIGHT>
5.195852000000000e+002

> <IDNUMBER>
AT-687/NB06802

> <PRICE>
EUR 80/10 mg

> <Similarity score>
0.19

$$$$

  -OEChem-04222410502D

 29 32  0     0  0  0  0  0  0999 V2000
   -0.4333    0.2500    0.0000 S   0  0  3  0  0  0  0  0  0  0  0  0
    0.4292   -0.2417    0.0000 C   0  0  0  0  0  0  0  0  0  0  0  0
    0.4292   -1.2500    0.0000 C   0  0  0  0  0  0  0  0  0  0  0  0
   -1.3000    0.7500    0.0000 C   0  0  0  0  0  0  0  0  0  0  0  0
    1.2917   -1.7500    0.0000 C   0  0  0  0  0  0  0  0  0  0  0  0
    2.1625   -0.2417    0.0000 N   0  0  0  0  0  0  0  0  0  0  0  0
    2.1625   -1.2500    0.0000 C   0  0  0  0  0  0  0  0  0  0  0  0
    1.2917    0.2500    0.0000 C   0  0  0  0  0  0  0  0  0  0  0  0
   -2.1708    0.2500    0.0000 C   0  0  0  0  0  0  0  0  0  0  0  0
   -1.3000    1.7583    0.0000 C   0  0  0  0  0  0  0  0  0  0  0  0
    0.0667    1.1208    0.0000 O   0  0  0  0  0  0  0  0  0  0  0  0
   -0.9333   -0.6125    0.0000 O   0  0  0  0  0  0  0  0  0  0  0  0
   -0.4333   -1.7500    0.0000 C   0  0  0  0  0  0  0  0  0  0  0  0
   -2.1708    2.2500    0.0000 C   0  0  0  0  0  0  0  0  0  0  0  0
   -3.0333    0.7500    0.0000 C   0  0  0  0  0  0  0  0  0  0  0  0
    3.0292   -1.7500    0.0000 C   0  0  0  0  0  0  0  0  0  0  0  0
   -3.0333    1.7583    0.0000 C   0  0  0  0  0  0  0  0  0  0  0  0
   -0.4333   -2.7500    0.0000 C   0  0  0  0  0  0  0  0  0  0  0  0
   -1.3000   -1.2500    0.0000 C   0  0  0  0  0  0  0  0  0  0  0  0
   -2.1708   -2.7500    0.0000 C   0  0  0  0  0  0  0  0  0  0  0  0
   -3.9000    0.2500    0.0000 F   0  0  0  0  0  0  0  0  0  0  0  0
   -2.1708    3.2500    0.0000 F   0  0  0  0  0  0  0  0  0  0  0  0
    3.8917   -1.2500    0.0000 F   0  0  0  0  0  0  0  0  0  0  0  0
    1.2917   -2.7500    0.0000 C   0  0  0  0  0  0  0  0  0  0  0  0
   -2.1708   -1.7500    0.0000 C   0  0  0  0  0  0  0  0  0  0  0  0
   -1.3000   -3.2500    0.0000 C   0  0  0  0  0  0  0  0  0  0  0  0
   -3.0333   -3.2500    0.0000 F   0  0  0  0  0  0  0  0  0  0  0  0
    2.1625   -3.2500    0.0000 C   0  0  0  0  0  0  0  0  0  0  0  0
    3.0292   -2.7500    0.0000 C   0  0  0  0  0  0  0  0  0  0  0  0
  1  2  1  0  0  0  0
  2  3  2  0  0  0  0
  1  4  1  0  0  0  0
  3  5  1  0  0  0  0
  6  8  2  0  0  0  0
  6  7  1  0  0  0  0
  2  8  1  0  0  0  0
  4  9  1  0  0  0  0
  4 10  2  0  0  0  0
  1 11  2  0  0  0  0
  1 12  2  0  0  0  0
  3 13  1  0  0  0  0
 10 14  1  0  0  0  0
  9 15  2  0  0  0  0
  7 16  1  0  0  0  0
 14 17  2  0  0  0  0
 13 18  1  0  0  0  0
 13 19  2  0  0  0  0
 20 25  2  0  0  0  0
 15 21  1  0  0  0  0
 14 22  1  0  0  0  0
 16 23  1  0  0  0  0
  5 24  1  0  0  0  0
 19 25  1  0  0  0  0
 18 26  2  0  0  0  0
 20 27  1  0  0  0  0
 24 28  2  0  0  0  0
 16 29  2  0  0  0  0
 15 17  1  0  0  0  0
  5  7  2  0  0  0  0
 20 26  1  0  0  0  0
 28 29  1  0  0  0  0
M  END
> <MOLFORMULA>
C21 H11 F4 N O2 S

> <MOLWEIGHT>
4.173809000000000e+002

> <IDNUMBER>
AT-687/PE13102

> <PRICE>
EUR 80/10 mg

> <Similarity score>
0.19

$$$$

  -OEChem-04222410502D

 29 33  0     0  0  0  0  0  0999 V2000
    4.3417   -4.6000    0.0000 C   0  0  0  0  0  0  0  0  0  0  0  0
    5.6250   -4.3167    0.0000 C   0  0  0  0  0  0  0  0  0  0  0  0
    3.2667   -3.8167    0.0000 O   0  0  0  0  0  0  0  0  0  0  0  0
    3.9167   -5.8750    0.0000 C   0  0  0  0  0  0  0  0  0  0  0  0
    6.0500   -3.0667    0.0000 N   0  0  3  0  0  0  0  0  0  0  0  0
    2.6000   -5.8750    0.0000 C   0  0  0  0  0  0  0  0  0  0  0  0
    9.0750   -1.2500    0.0000 C   0  0  0  0  0  0  0  0  0  0  0  0
    2.1750   -4.6000    0.0000 C   0  0  0  0  0  0  0  0  0  0  0  0
    7.7667   -1.5250    0.0000 C   0  0  3  0  0  0  0  0  0  0  0  0
    6.5250   -5.3042    0.0000 N   0  0  0  0  0  0  0  0  0  0  0  0
    7.3500   -2.7750    0.0000 C   0  0  0  0  0  0  0  0  0  0  0  0
    9.9500   -2.2292    0.0000 N   0  0  0  0  0  0  0  0  0  0  0  0
    4.8000   -6.8500    0.0000 N   0  0  0  0  0  0  0  0  0  0  0  0
    6.1167   -6.5792    0.0000 C   0  0  0  0  0  0  0  0  0  0  0  0
    9.4917   -0.0000    0.0000 O   0  0  0  0  0  0  0  0  0  0  0  0
   11.2500   -1.9500    0.0000 C   0  0  0  0  0  0  0  0  0  0  0  0
    5.1542   -2.0667    0.0000 C   0  0  0  0  0  0  0  0  0  0  0  0
   13.8500   -1.4292    0.0000 C   0  0  0  0  0  0  0  0  0  0  0  0
    6.8792   -0.5417    0.0000 C   0  0  0  0  0  0  0  0  0  0  0  0
    1.7000   -6.8500    0.0000 C   0  0  0  0  0  0  0  0  0  0  0  0
   12.1250   -2.9667    0.0000 C   0  0  0  0  0  0  0  0  0  0  0  0
   11.6750   -0.7000    0.0000 C   0  0  0  0  0  0  0  0  0  0  0  0
   12.9542   -0.4292    0.0000 C   0  0  0  0  0  0  0  0  0  0  0  0
   13.4417   -2.6750    0.0000 C   0  0  0  0  0  0  0  0  0  0  0  0
    0.8917   -4.3042    0.0000 C   0  0  0  0  0  0  0  0  0  0  0  0
    5.5792   -0.8000    0.0000 C   0  0  0  0  0  0  0  0  0  0  0  0
   15.1417   -1.1500    0.0000 C   0  0  0  0  0  0  0  0  0  0  0  0
    0.4000   -6.5792    0.0000 C   0  0  0  0  0  0  0  0  0  0  0  0
    0.0000   -5.3042    0.0000 C   0  0  0  0  0  0  0  0  0  0  0  0
  1  2  2  0  0  0  0
  1  3  1  0  0  0  0
  1  4  1  0  0  0  0
  2  5  1  0  0  0  0
  4  6  1  0  0  0  0
  7  9  1  0  0  0  0
  3  8  1  0  0  0  0
  9 11  1  0  0  0  0
  2 10  1  0  0  0  0
  5 11  1  0  0  0  0
  7 12  1  0  0  0  0
  4 13  2  0  0  0  0
 13 14  1  0  0  0  0
  7 15  2  0  0  0  0
 12 16  1  0  0  0  0
  5 17  1  0  0  0  0
 18 23  2  0  0  0  0
 19 26  1  0  0  0  0
  6 20  1  0  0  0  0
 16 21  1  0  0  0  0
 16 22  2  0  0  0  0
 22 23  1  0  0  0  0
 21 24  2  0  0  0  0
  8 25  1  0  0  0  0
 17 26  1  0  0  0  0
 18 27  1  0  0  0  0
 20 28  2  0  0  0  0
 25 29  2  0  0  0  0
  6  8  2  0  0  0  0
 10 14  2  0  0  0  0
 28 29  1  0  0  0  0
  9 19  1  0  0  0  0
 18 24  1  0  0  0  0
M  END
> <MOLFORMULA>
C23 H22 N4 O2

> <MOLWEIGHT>
3.864528000000000e+002

> <IDNUMBER>
AT-687/PE16750

> <PRICE>
EUR 80/10 mg

> <Similarity score>
0.19

$$$$

  -OEChem-04222410502D

 27 30  0     0  0  0  0  0  0999 V2000
    5.5125   -6.1708    0.0000 C   0  0  0  0  0  0  0  0  0  0  0  0
    5.5125   -6.9958    0.0000 C   0  0  0  0  0  0  0  0  0  0  0  0
    4.8000   -5.7583    0.0000 C   0  0  0  0  0  0  0  0  0  0  0  0
    4.8000   -7.4083    0.0000 N   0  0  0  0  0  0  0  0  0  0  0  0
    6.2250   -7.4083    0.0000 C   0  0  0  0  0  0  0  0  0  0  0  0
    4.0833   -6.1708    0.0000 C   0  0  0  0  0  0  0  0  0  0  0  0
    4.8000   -4.9333    0.0000 N   0  0  3  0  0  0  0  0  0  0  0  0
    4.0833   -6.9958    0.0000 C   0  0  0  0  0  0  0  0  0  0  0  0
    6.9417   -6.9958    0.0000 C   0  0  0  0  0  0  0  0  0  0  0  0
    6.2250   -5.7583    0.0000 C   0  0  0  0  0  0  0  0  0  0  0  0
    6.2250   -8.2375    0.0000 C   0  0  0  0  0  0  0  0  0  0  0  0
    6.9417   -6.1708    0.0000 C   0  0  0  0  0  0  0  0  0  0  0  0
    7.6583   -7.4083    0.0000 C   0  0  0  0  0  0  0  0  0  0  0  0
    5.5125   -4.5208    0.0000 C   0  0  3  0  0  0  0  0  0  0  0  0
    4.0833   -4.5208    0.0000 C   0  0  3  0  0  0  0  0  0  0  0  0
    7.6583   -8.2375    0.0000 C   0  0  0  0  0  0  0  0  0  0  0  0
    6.9375   -8.6500    0.0000 C   0  0  0  0  0  0  0  0  0  0  0  0
    3.3708   -5.7583    0.0000 C   0  0  0  0  0  0  0  0  0  0  0  0
    8.3833   -8.6542    0.0000 O   0  0  0  0  0  0  0  0  0  0  0  0
    3.3708   -7.4083    0.0000 C   0  0  0  0  0  0  0  0  0  0  0  0
    3.3708   -4.9333    0.0000 C   0  0  0  0  0  0  0  0  0  0  0  0
    5.5125   -3.6917    0.0000 C   0  0  0  0  0  0  0  0  0  0  0  0
    6.2292   -4.9333    0.0000 C   0  0  0  0  0  0  0  0  0  0  0  0
    4.0833   -3.6917    0.0000 C   0  0  0  0  0  0  0  0  0  0  0  0
    8.3875   -9.4875    0.0000 C   0  0  0  0  0  0  0  0  0  0  0  0
    2.6542   -6.1708    0.0000 C   0  0  0  0  0  0  0  0  0  0  0  0
    2.6542   -6.9958    0.0000 C   0  0  0  0  0  0  0  0  0  0  0  0
  1  2  2  0  0  0  0
  1  3  1  0  0  0  0
  2  4  1  0  0  0  0
  2  5  1  0  0  0  0
  3  6  2  0  0  0  0
  3  7  1  0  0  0  0
  4  8  2  0  0  0  0
  5  9  2  0  0  0  0
  1 10  1  0  0  0  0
  5 11  1  0  0  0  0
 10 12  1  0  0  0  0
  9 13  1  0  0  0  0
  7 14  1  0  0  0  0
  7 15  1  0  0  0  0
 16 17  1  0  0  0  0
 11 17  2  0  0  0  0
  6 18  1  0  0  0  0
 16 19  1  0  0  0  0
  8 20  1  0  0  0  0
 15 21  1  0  0  0  0
 14 22  1  0  0  0  0
 14 23  1  0  0  0  0
 15 24  1  0  0  0  0
 19 25  1  0  0  0  0
 18 26  2  0  0  0  0
 20 27  2  0  0  0  0
  9 12  1  0  0  0  0
  6  8  1  0  0  0  0
 13 16  2  0  0  0  0
 26 27  1  0  0  0  0
M  END
> <MOLFORMULA>
C24 H28 N2 O

> <MOLWEIGHT>
3.604982000000000e+002

> <IDNUMBER>
AT-225/NB36287

> <SALTDATA>
2 HBr

> <PRICE>
EUR 140/10 mg

> <Similarity score>
0.19

$$$$

  -OEChem-04222410502D

 27 30  0     0  0  0  0  0  0999 V2000
    5.6625   -5.8417    0.0000 C   0  0  0  0  0  0  0  0  0  0  0  0
    5.6625   -6.6000    0.0000 C   0  0  0  0  0  0  0  0  0  0  0  0
    4.9875   -5.4667    0.0000 C   0  0  0  0  0  0  0  0  0  0  0  0
    5.0042   -6.9750    0.0000 N   0  0  0  0  0  0  0  0  0  0  0  0
    6.3167   -6.9750    0.0000 C   0  0  0  0  0  0  0  0  0  0  0  0
    4.3542   -5.8417    0.0000 C   0  0  0  0  0  0  0  0  0  0  0  0
    4.9875   -4.6792    0.0000 N   0  0  3  0  0  0  0  0  0  0  0  0
    4.3542   -6.6000    0.0000 C   0  0  0  0  0  0  0  0  0  0  0  0
    6.9667   -6.6000    0.0000 C   0  0  0  0  0  0  0  0  0  0  0  0
    6.3167   -5.4667    0.0000 C   0  0  0  0  0  0  0  0  0  0  0  0
    6.3167   -7.7292    0.0000 C   0  0  0  0  0  0  0  0  0  0  0  0
    6.9667   -5.8417    0.0000 C   0  0  0  0  0  0  0  0  0  0  0  0
    7.6167   -6.9750    0.0000 C   0  0  0  0  0  0  0  0  0  0  0  0
    5.6375   -4.3042    0.0000 C   0  0  3  0  0  0  0  0  0  0  0  0
    4.3292   -4.3042    0.0000 C   0  0  3  0  0  0  0  0  0  0  0  0
    7.6167   -7.7292    0.0000 C   0  0  0  0  0  0  0  0  0  0  0  0
    6.9667   -8.1042    0.0000 C   0  0  0  0  0  0  0  0  0  0  0  0
    3.6917   -5.4667    0.0000 C   0  0  0  0  0  0  0  0  0  0  0  0
    8.2667   -8.1042    0.0000 O   0  0  0  0  0  0  0  0  0  0  0  0
    3.6917   -6.9750    0.0000 C   0  0  0  0  0  0  0  0  0  0  0  0
    6.2875   -4.6792    0.0000 C   0  0  0  0  0  0  0  0  0  0  0  0
    4.3292   -3.5542    0.0000 C   0  0  0  0  0  0  0  0  0  0  0  0
    3.6875   -4.6792    0.0000 C   0  0  0  0  0  0  0  0  0  0  0  0
    5.6417   -3.5542    0.0000 C   0  0  0  0  0  0  0  0  0  0  0  0
    8.2667   -8.8542    0.0000 C   0  0  0  0  0  0  0  0  0  0  0  0
    3.0542   -5.8417    0.0000 C   0  0  0  0  0  0  0  0  0  0  0  0
    3.0542   -6.6000    0.0000 C   0  0  0  0  0  0  0  0  0  0  0  0
  1  2  2  0  0  0  0
  1  3  1  0  0  0  0
  2  4  1  0  0  0  0
  2  5  1  0  0  0  0
  3  6  2  0  0  0  0
  3  7  1  0  0  0  0
  4  8  2  0  0  0  0
  5  9  2  0  0  0  0
  1 10  1  0  0  0  0
  5 11  1  0  0  0  0
 10 12  1  0  0  0  0
  9 13  1  0  0  0  0
  7 14  1  0  0  0  0
  7 15  1  0  0  0  0
 16 17  1  0  0  0  0
 11 17  2  0  0  0  0
  6 18  1  0  0  0  0
 16 19  1  0  0  0  0
  8 20  1  0  0  0  0
 14 21  1  0  0  0  0
 15 22  1  0  0  0  0
 15 23  1  0  0  0  0
 14 24  1  0  0  0  0
 19 25  1  0  0  0  0
 18 26  2  0  0  0  0
 20 27  2  0  0  0  0
  9 12  1  0  0  0  0
  6  8  1  0  0  0  0
 13 16  2  0  0  0  0
 26 27  1  0  0  0  0
M  END
> <MOLFORMULA>
C24 H28 N2 O

> <MOLWEIGHT>
3.604982000000000e+002

> <IDNUMBER>
AT-225/NB35457

> <SALTDATA>
2 HBr

> <PRICE>
EUR 140/10 mg

> <Similarity score>
0.19

$$$$

  -OEChem-04222410502D

 27 30  0     0  0  0  0  0  0999 V2000
    5.6542   -5.8250    0.0000 C   0  0  0  0  0  0  0  0  0  0  0  0
    5.6542   -6.5750    0.0000 C   0  0  0  0  0  0  0  0  0  0  0  0
    5.0125   -5.4542    0.0000 C   0  0  0  0  0  0  0  0  0  0  0  0
    5.0125   -6.9417    0.0000 N   0  0  0  0  0  0  0  0  0  0  0  0
    6.3000   -6.9500    0.0000 C   0  0  0  0  0  0  0  0  0  0  0  0
    4.3667   -5.8292    0.0000 C   0  0  0  0  0  0  0  0  0  0  0  0
    5.0042   -4.7042    0.0000 N   0  0  3  0  0  0  0  0  0  0  0  0
    4.3667   -6.5667    0.0000 C   0  0  0  0  0  0  0  0  0  0  0  0
    6.9542   -6.5750    0.0000 C   0  0  0  0  0  0  0  0  0  0  0  0
    6.3042   -5.4417    0.0000 C   0  0  0  0  0  0  0  0  0  0  0  0
    6.2917   -7.6917    0.0000 C   0  0  0  0  0  0  0  0  0  0  0  0
    6.9542   -5.8250    0.0000 C   0  0  0  0  0  0  0  0  0  0  0  0
    7.5917   -6.9500    0.0000 C   0  0  0  0  0  0  0  0  0  0  0  0
    5.6542   -4.3417    0.0000 C   0  0  3  0  0  0  0  0  0  0  0  0
    4.3667   -4.3417    0.0000 C   0  0  3  0  0  0  0  0  0  0  0  0
    7.5917   -7.7000    0.0000 C   0  0  0  0  0  0  0  0  0  0  0  0
    6.9417   -8.0750    0.0000 C   0  0  0  0  0  0  0  0  0  0  0  0
    3.7250   -5.4542    0.0000 C   0  0  0  0  0  0  0  0  0  0  0  0
    8.2375   -8.0667    0.0000 O   0  0  0  0  0  0  0  0  0  0  0  0
    3.7250   -6.9417    0.0000 C   0  0  0  0  0  0  0  0  0  0  0  0
    5.6542   -3.5917    0.0000 C   0  0  0  0  0  0  0  0  0  0  0  0
    6.2917   -4.7125    0.0000 C   0  0  0  0  0  0  0  0  0  0  0  0
    4.3625   -3.5917    0.0000 C   0  0  0  0  0  0  0  0  0  0  0  0
    3.7167   -4.7125    0.0000 C   0  0  0  0  0  0  0  0  0  0  0  0
    8.2292   -8.8125    0.0000 C   0  0  0  0  0  0  0  0  0  0  0  0
    3.0792   -5.8292    0.0000 C   0  0  0  0  0  0  0  0  0  0  0  0
    3.0792   -6.5667    0.0000 C   0  0  0  0  0  0  0  0  0  0  0  0
  1  2  1  0  0  0  0
  1  3  2  0  0  0  0
  2  4  2  0  0  0  0
  2  5  1  0  0  0  0
  3  6  1  0  0  0  0
  3  7  1  0  0  0  0
  4  8  1  0  0  0  0
  5  9  2  0  0  0  0
  1 10  1  0  0  0  0
  5 11  1  0  0  0  0
 10 12  1  0  0  0  0
  9 13  1  0  0  0  0
  7 14  1  0  0  0  0
  7 15  1  0  0  0  0
 13 16  2  0  0  0  0
 11 17  2  0  0  0  0
  6 18  2  0  0  0  0
 16 19  1  0  0  0  0
  8 20  2  0  0  0  0
 14 21  1  0  0  0  0
 14 22  1  0  0  0  0
 15 23  1  0  0  0  0
 15 24  1  0  0  0  0
 19 25  1  0  0  0  0
 18 26  1  0  0  0  0
 20 27  1  0  0  0  0
  9 12  1  0  0  0  0
  6  8  1  0  0  0  0
 16 17  1  0  0  0  0
 26 27  2  0  0  0  0
M  END
> <MOLFORMULA>
C24 H28 N2 O

> <MOLWEIGHT>
3.604982000000000e+002

> <IDNUMBER>
AT-225/NB47210

> <SALTDATA>
2 HBr/H2O

> <PRICE>
EUR 140/10 mg

> <Similarity score>
0.19

$$$$

  -OEChem-04222410502D

 27 30  0     0  0  0  0  0  0999 V2000
    5.4167   -5.8583    0.0000 C   0  0  0  0  0  0  0  0  0  0  0  0
    5.4250   -6.5583    0.0000 C   0  0  0  0  0  0  0  0  0  0  0  0
    4.8042   -5.5083    0.0000 C   0  0  0  0  0  0  0  0  0  0  0  0
    4.8125   -6.9083    0.0000 N   0  0  0  0  0  0  0  0  0  0  0  0
    6.0375   -6.9042    0.0000 C   0  0  0  0  0  0  0  0  0  0  0  0
    4.2000   -5.8667    0.0000 C   0  0  0  0  0  0  0  0  0  0  0  0
    4.8000   -4.8083    0.0000 N   0  0  3  0  0  0  0  0  0  0  0  0
    4.2000   -6.5583    0.0000 C   0  0  0  0  0  0  0  0  0  0  0  0
    6.6417   -6.5542    0.0000 C   0  0  0  0  0  0  0  0  0  0  0  0
    6.0250   -5.4958    0.0000 C   0  0  0  0  0  0  0  0  0  0  0  0
    6.0417   -7.6083    0.0000 C   0  0  0  0  0  0  0  0  0  0  0  0
    6.6417   -5.8458    0.0000 C   0  0  0  0  0  0  0  0  0  0  0  0
    7.2542   -6.8958    0.0000 C   0  0  0  0  0  0  0  0  0  0  0  0
    5.4125   -4.4667    0.0000 C   0  0  3  0  0  0  0  0  0  0  0  0
    4.1917   -4.4708    0.0000 C   0  0  3  0  0  0  0  0  0  0  0  0
    7.2625   -7.5958    0.0000 C   0  0  0  0  0  0  0  0  0  0  0  0
    6.6542   -7.9542    0.0000 C   0  0  0  0  0  0  0  0  0  0  0  0
    3.5917   -5.5083    0.0000 C   0  0  0  0  0  0  0  0  0  0  0  0
    7.8667   -7.9417    0.0000 O   0  0  0  0  0  0  0  0  0  0  0  0
    3.5917   -6.9167    0.0000 C   0  0  0  0  0  0  0  0  0  0  0  0
    4.1917   -3.7667    0.0000 C   0  0  0  0  0  0  0  0  0  0  0  0
    3.5875   -4.8125    0.0000 C   0  0  0  0  0  0  0  0  0  0  0  0
    5.4125   -3.7583    0.0000 C   0  0  0  0  0  0  0  0  0  0  0  0
    6.0250   -4.8083    0.0000 C   0  0  0  0  0  0  0  0  0  0  0  0
    7.8667   -8.6458    0.0000 C   0  0  0  0  0  0  0  0  0  0  0  0
    2.9792   -5.8667    0.0000 C   0  0  0  0  0  0  0  0  0  0  0  0
    2.9792   -6.5667    0.0000 C   0  0  0  0  0  0  0  0  0  0  0  0
  1  2  1  0  0  0  0
  1  3  2  0  0  0  0
  2  4  2  0  0  0  0
  2  5  1  0  0  0  0
  3  6  1  0  0  0  0
  3  7  1  0  0  0  0
  4  8  1  0  0  0  0
  5  9  2  0  0  0  0
  1 10  1  0  0  0  0
  5 11  1  0  0  0  0
 10 12  1  0  0  0  0
  9 13  1  0  0  0  0
  7 14  1  0  0  0  0
  7 15  1  0  0  0  0
 13 16  2  0  0  0  0
 11 17  2  0  0  0  0
  6 18  2  0  0  0  0
 16 19  1  0  0  0  0
  8 20  2  0  0  0  0
 15 21  1  0  0  0  0
 15 22  1  0  0  0  0
 14 23  1  0  0  0  0
 14 24  1  0  0  0  0
 19 25  1  0  0  0  0
 18 26  1  0  0  0  0
 20 27  1  0  0  0  0
  9 12  1  0  0  0  0
  6  8  1  0  0  0  0
 16 17  1  0  0  0  0
 26 27  2  0  0  0  0
M  END
> <MOLFORMULA>
C24 H28 N2 O

> <MOLWEIGHT>
3.604982000000000e+002

> <IDNUMBER>
AT-225/NB48358

> <SALTDATA>
2 HBr/2 H2O

> <PRICE>
EUR 140/10 mg

> <Similarity score>
0.19

$$$$

  -OEChem-04222410502D

 33 38  0     0  0  0  0  0  0999 V2000
    5.2250   -0.9167    0.0000 C   0  0  0  0  0  0  0  0  0  0  0  0
    5.9375    0.3208    0.0000 C   0  0  0  0  0  0  0  0  0  0  0  0
    5.9375   -0.5042    0.0000 C   0  0  0  0  0  0  0  0  0  0  0  0
    4.5167   -0.5042    0.0000 C   0  0  0  0  0  0  0  0  0  0  0  0
    5.2250   -3.3875    0.0000 C   0  0  0  0  0  0  0  0  0  0  0  0
    5.2250    0.7333    0.0000 O   0  0  0  0  0  0  0  0  0  0  0  0
    5.2292   -4.2125    0.0000 C   0  0  0  0  0  0  0  0  0  0  0  0
    5.2250   -1.7375    0.0000 C   0  0  0  0  0  0  0  0  0  0  0  0
    4.5042   -2.9750    0.0000 N   0  0  0  0  0  0  0  0  0  0  0  0
    4.5167    0.3208    0.0000 C   0  0  0  0  0  0  0  0  0  0  0  0
    5.9417   -2.9667    0.0000 C   0  0  0  0  0  0  0  0  0  0  0  0
    5.9375   -2.1500    0.0000 C   0  0  0  0  0  0  0  0  0  0  0  0
    6.6667   -4.2042    0.0000 O   0  0  0  0  0  0  0  0  0  0  0  0
    5.9417   -4.6250    0.0000 C   0  0  0  0  0  0  0  0  0  0  0  0
    4.5042   -2.1500    0.0000 C   0  0  0  0  0  0  0  0  0  0  0  0
    6.6542   -3.3792    0.0000 C   0  0  0  0  0  0  0  0  0  0  0  0
    3.8042   -0.9167    0.0000 C   0  0  0  0  0  0  0  0  0  0  0  0
    6.6542    0.7333    0.0000 O   0  0  0  0  0  0  0  0  0  0  0  0
    4.5167   -4.6250    0.0000 C   0  0  0  0  0  0  0  0  0  0  0  0
    6.6500   -0.9167    0.0000 C   0  0  0  0  0  0  0  0  0  0  0  0
    3.8042    0.7333    0.0000 C   0  0  0  0  0  0  0  0  0  0  0  0
    5.9500   -5.4500    0.0000 C   0  0  0  0  0  0  0  0  0  0  0  0
    3.0917   -0.5042    0.0000 C   0  0  0  0  0  0  0  0  0  0  0  0
    4.5167   -5.4500    0.0000 C   0  0  0  0  0  0  0  0  0  0  0  0
    3.0917    0.3208    0.0000 C   0  0  0  0  0  0  0  0  0  0  0  0
    5.2375   -5.8625    0.0000 C   0  0  0  0  0  0  0  0  0  0  0  0
    2.3792   -0.9167    0.0000 Cl  0  0  0  0  0  0  0  0  0  0  0  0
    3.8042   -5.8667    0.0000 Cl  0  0  0  0  0  0  0  0  0  0  0  0
    7.3625   -0.5042    0.0000 C   0  0  0  0  0  0  0  0  0  0  0  0
    6.6500   -1.7417    0.0000 C   0  0  0  0  0  0  0  0  0  0  0  0
    7.3625   -2.1542    0.0000 C   0  0  0  0  0  0  0  0  0  0  0  0
    8.0750   -0.9167    0.0000 C   0  0  0  0  0  0  0  0  0  0  0  0
    8.0792   -1.7417    0.0000 C   0  0  0  0  0  0  0  0  0  0  0  0
  2  3  1  0  0  0  0
  1  3  2  0  0  0  0
  1  4  1  0  0  0  0
  5  9  2  0  0  0  0
  6 10  1  0  0  0  0
  5  7  1  0  0  0  0
  1  8  1  0  0  0  0
  9 15  1  0  0  0  0
  4 10  2  0  0  0  0
 11 12  2  0  0  0  0
  8 12  1  0  0  0  0
 13 16  1  0  0  0  0
  7 14  1  0  0  0  0
  8 15  2  0  0  0  0
 11 16  1  0  0  0  0
  4 17  1  0  0  0  0
  2 18  2  0  0  0  0
  7 19  2  0  0  0  0
  3 20  1  0  0  0  0
 10 21  1  0  0  0  0
 14 22  2  0  0  0  0
 17 23  2  0  0  0  0
 19 24  1  0  0  0  0
 23 25  1  0  0  0  0
 24 26  2  0  0  0  0
 23 27  1  0  0  0  0
 24 28  1  0  0  0  0
 20 29  1  0  0  0  0
 20 30  2  0  0  0  0
 30 31  1  0  0  0  0
 29 32  2  0  0  0  0
 31 33  2  0  0  0  0
  5 11  1  0  0  0  0
  2  6  1  0  0  0  0
 21 25  2  0  0  0  0
 32 33  1  0  0  0  0
 13 14  1  0  0  0  0
 22 26  1  0  0  0  0
M  END
> <MOLFORMULA>
C27 H15 Cl2 N O3

> <MOLWEIGHT>
4.723255000000000e+002

> <IDNUMBER>
AQ-358/J254344

> <PRICE>
EUR 29.00/10 mg

> <Similarity score>
0.19

$$$$

  -OEChem-04222410502D

 36 40  0     0  0  0  0  0  0999 V2000
    0.5125    2.4167    0.0000 C   0  0  0  0  0  0  0  0  0  0  0  0
    0.2542    3.3833    0.0000 C   0  0  0  0  0  0  0  0  0  0  0  0
    1.4792    2.1583    0.0000 C   0  0  0  0  0  0  0  0  0  0  0  0
   -0.1958    1.7125    0.0000 N   0  0  3  0  0  0  0  0  0  0  0  0
    0.9625    4.0875    0.0000 C   0  0  0  0  0  0  0  0  0  0  0  0
    2.1875    2.8625    0.0000 N   0  0  0  0  0  0  0  0  0  0  0  0
    1.9292    3.8292    0.0000 C   0  0  0  0  0  0  0  0  0  0  0  0
   -0.3875   -0.9292    0.0000 C   0  0  0  0  0  0  0  0  0  0  0  0
   -0.6458    0.0375    0.0000 C   0  0  3  0  0  0  0  0  0  0  0  0
    0.0625    0.7458    0.0000 C   0  0  0  0  0  0  0  0  0  0  0  0
   -1.0958   -1.6333    0.0000 N   0  0  0  0  0  0  0  0  0  0  0  0
    0.7042    5.0542    0.0000 C   0  0  0  0  0  0  0  0  0  0  0  0
   -0.7083    3.6458    0.0000 C   0  0  0  0  0  0  0  0  0  0  0  0
    1.7375    1.1917    0.0000 O   0  0  0  0  0  0  0  0  0  0  0  0
    0.5792   -1.1875    0.0000 O   0  0  0  0  0  0  0  0  0  0  0  0
    2.6375    4.5333    0.0000 C   0  0  0  0  0  0  0  0  0  0  0  0
   -0.8375   -2.6000    0.0000 C   0  0  0  0  0  0  0  0  0  0  0  0
   -1.1625    1.9708    0.0000 C   0  0  0  0  0  0  0  0  0  0  0  0
    1.4125    5.7583    0.0000 C   0  0  0  0  0  0  0  0  0  0  0  0
   -0.3250   -4.5333    0.0000 C   0  0  0  0  0  0  0  0  0  0  0  0
    2.3792    5.5000    0.0000 C   0  0  0  0  0  0  0  0  0  0  0  0
    1.1583    6.7250    0.0000 Cl  0  0  0  0  0  0  0  0  0  0  0  0
   -1.6125    0.3000    0.0000 C   0  0  0  0  0  0  0  0  0  0  0  0
   -1.5458   -3.3042    0.0000 C   0  0  0  0  0  0  0  0  0  0  0  0
    0.1250   -2.8583    0.0000 C   0  0  0  0  0  0  0  0  0  0  0  0
    0.3833   -3.8250    0.0000 C   0  0  0  0  0  0  0  0  0  0  0  0
   -1.2875   -4.2708    0.0000 C   0  0  0  0  0  0  0  0  0  0  0  0
   -0.0667   -5.5000    0.0000 O   0  0  0  0  0  0  0  0  0  0  0  0
   -1.8708    1.2667    0.0000 C   0  0  0  0  0  0  0  0  0  0  0  0
   -0.9667    4.6083    0.0000 C   0  0  0  0  0  0  0  0  0  0  0  0
   -1.4167    2.9375    0.0000 C   0  0  0  0  0  0  0  0  0  0  0  0
    0.9000   -5.7583    0.0000 C   0  0  0  0  0  0  0  0  0  0  0  0
    1.1583   -6.7250    0.0000 C   0  0  0  0  0  0  0  0  0  0  0  0
   -1.9333    4.8667    0.0000 C   0  0  0  0  0  0  0  0  0  0  0  0
   -2.3833    3.2000    0.0000 C   0  0  0  0  0  0  0  0  0  0  0  0
   -2.6417    4.1625    0.0000 C   0  0  0  0  0  0  0  0  0  0  0  0
  1  2  2  0  0  0  0
  1  3  1  0  0  0  0
  1  4  1  0  0  0  0
  2  5  1  0  0  0  0
  3  6  1  0  0  0  0
  6  7  1  0  0  0  0
  8  9  1  0  0  0  0
  9 10  1  0  0  0  0
  4 10  1  0  0  0  0
  8 11  1  0  0  0  0
  5 12  1  0  0  0  0
  2 13  1  0  0  0  0
  3 14  2  0  0  0  0
  8 15  2  0  0  0  0
  7 16  1  0  0  0  0
 11 17  1  0  0  0  0
  4 18  1  0  0  0  0
 12 19  2  0  0  0  0
 20 26  1  0  0  0  0
 16 21  2  0  0  0  0
 19 22  1  0  0  0  0
 23 29  1  0  0  0  0
 17 24  2  0  0  0  0
 17 25  1  0  0  0  0
 25 26  2  0  0  0  0
 24 27  1  0  0  0  0
 20 28  1  0  0  0  0
 18 29  1  0  0  0  0
 13 30  1  0  0  0  0
 13 31  2  0  0  0  0
 28 32  1  0  0  0  0
 32 33  1  0  0  0  0
 30 34  2  0  0  0  0
 31 35  1  0  0  0  0
 35 36  2  0  0  0  0
  5  7  2  0  0  0  0
  9 23  1  0  0  0  0
 19 21  1  0  0  0  0
 34 36  1  0  0  0  0
 20 27  2  0  0  0  0
M  END
> <MOLFORMULA>
C29 H28 Cl N3 O3

> <MOLWEIGHT>
5.020112000000000e+002

> <IDNUMBER>
AN-153/I261743

> <PRICE>
EUR 130/10 mg

> <Similarity score>
0.19

$$$$

  -OEChem-04222410502D

 30 34  0     0  0  0  0  0  0999 V2000
   -0.0708   -0.4792    0.0000 C   0  0  0  0  0  0  0  0  0  0  0  0
   -0.7125   -0.1125    0.0000 C   0  0  0  0  0  0  0  0  0  0  0  0
   -0.7125    0.6167    0.0000 N   0  0  0  0  0  0  0  0  0  0  0  0
   -0.0708   -1.2167    0.0000 C   0  0  0  0  0  0  0  0  0  0  0  0
    0.5625   -0.1042    0.0000 C   0  0  0  0  0  0  0  0  0  0  0  0
   -1.3417   -0.4833    0.0000 S   0  0  0  0  0  0  0  0  0  0  0  0
    0.5625   -1.5875    0.0000 O   0  0  0  0  0  0  0  0  0  0  0  0
    4.4083   -1.5750    0.0000 C   0  0  0  0  0  0  0  0  0  0  0  0
    1.1958   -1.2167    0.0000 C   0  0  0  0  0  0  0  0  0  0  0  0
    1.1958   -0.4792    0.0000 C   0  0  0  0  0  0  0  0  0  0  0  0
   -1.9833    0.6167    0.0000 C   0  0  0  0  0  0  0  0  0  0  0  0
   -1.9792   -0.1167    0.0000 C   0  0  0  0  0  0  0  0  0  0  0  0
    3.7542   -1.2042    0.0000 C   0  0  0  0  0  0  0  0  0  0  0  0
    1.8375   -1.5875    0.0000 C   0  0  0  0  0  0  0  0  0  0  0  0
   -0.7208   -1.5958    0.0000 O   0  0  0  0  0  0  0  0  0  0  0  0
    4.4125   -2.3250    0.0000 C   0  0  0  0  0  0  0  0  0  0  0  0
    5.0542   -1.1958    0.0000 C   0  0  0  0  0  0  0  0  0  0  0  0
    3.1125   -1.5875    0.0000 O   0  0  0  0  0  0  0  0  0  0  0  0
    1.8375   -0.1083    0.0000 C   0  0  0  0  0  0  0  0  0  0  0  0
    2.4750   -1.2167    0.0000 C   0  0  0  0  0  0  0  0  0  0  0  0
    3.7667   -2.7042    0.0000 Cl  0  0  0  0  0  0  0  0  0  0  0  0
    5.0500   -0.4458    0.0000 F   0  0  0  0  0  0  0  0  0  0  0  0
    2.4750   -0.4792    0.0000 C   0  0  0  0  0  0  0  0  0  0  0  0
   -2.6167    0.9792    0.0000 C   0  0  0  0  0  0  0  0  0  0  0  0
    5.7125   -2.3167    0.0000 C   0  0  0  0  0  0  0  0  0  0  0  0
   -2.6125   -0.4833    0.0000 C   0  0  0  0  0  0  0  0  0  0  0  0
    5.7083   -1.5667    0.0000 C   0  0  0  0  0  0  0  0  0  0  0  0
    5.0667   -2.6958    0.0000 C   0  0  0  0  0  0  0  0  0  0  0  0
   -3.2500   -0.1167    0.0000 C   0  0  0  0  0  0  0  0  0  0  0  0
   -3.2542    0.6125    0.0000 C   0  0  0  0  0  0  0  0  0  0  0  0
  1  2  1  0  0  0  0
  2  3  2  0  0  0  0
  1  4  1  0  0  0  0
  1  5  2  0  0  0  0
  2  6  1  0  0  0  0
  4  7  1  0  0  0  0
  8 13  1  0  0  0  0
  9 10  2  0  0  0  0
  5 10  1  0  0  0  0
  3 11  1  0  0  0  0
  6 12  1  0  0  0  0
 13 18  1  0  0  0  0
  9 14  1  0  0  0  0
  4 15  2  0  0  0  0
  8 16  1  0  0  0  0
  8 17  2  0  0  0  0
 18 20  1  0  0  0  0
 10 19  1  0  0  0  0
 14 20  2  0  0  0  0
 16 21  1  0  0  0  0
 17 22  1  0  0  0  0
 19 23  2  0  0  0  0
 11 24  1  0  0  0  0
 25 27  2  0  0  0  0
 12 26  1  0  0  0  0
 17 27  1  0  0  0  0
 16 28  2  0  0  0  0
 26 29  2  0  0  0  0
 24 30  2  0  0  0  0
  7  9  1  0  0  0  0
 11 12  2  0  0  0  0
 20 23  1  0  0  0  0
 29 30  1  0  0  0  0
 25 28  1  0  0  0  0
M  END
> <MOLFORMULA>
C23 H13 Cl F N O3 S

> <MOLWEIGHT>
4.378767000000000e+002

> <IDNUMBER>
AT-225/NB53220

> <PRICE>
EUR 140/10 mg

> <Similarity score>
0.19

$$$$

  -OEChem-04222410502D

 34 38  0     0  0  0  0  0  0999 V2000
    0.5833    1.7083    0.0000 C   0  0  0  0  0  0  0  0  0  0  0  0
    0.6750    2.7042    0.0000 C   0  0  0  0  0  0  0  0  0  0  0  0
    1.4042    1.1333    0.0000 C   0  0  0  0  0  0  0  0  0  0  0  0
   -0.3208    1.2875    0.0000 N   0  0  3  0  0  0  0  0  0  0  0  0
    1.5792    3.1250    0.0000 C   0  0  0  0  0  0  0  0  0  0  0  0
    2.3083    1.5542    0.0000 N   0  0  0  0  0  0  0  0  0  0  0  0
    2.4000    2.5500    0.0000 C   0  0  0  0  0  0  0  0  0  0  0  0
   -1.4083   -1.1292    0.0000 C   0  0  0  0  0  0  0  0  0  0  0  0
   -1.3167   -0.1292    0.0000 C   0  0  3  0  0  0  0  0  0  0  0  0
   -0.4125    0.2875    0.0000 C   0  0  0  0  0  0  0  0  0  0  0  0
   -2.3125   -1.5500    0.0000 N   0  0  0  0  0  0  0  0  0  0  0  0
    1.6708    4.1167    0.0000 C   0  0  0  0  0  0  0  0  0  0  0  0
   -0.1458    3.2792    0.0000 C   0  0  0  0  0  0  0  0  0  0  0  0
    1.3125    0.1375    0.0000 O   0  0  0  0  0  0  0  0  0  0  0  0
   -0.5875   -1.7042    0.0000 O   0  0  0  0  0  0  0  0  0  0  0  0
    3.3042    2.9708    0.0000 C   0  0  0  0  0  0  0  0  0  0  0  0
   -2.4042   -2.5458    0.0000 C   0  0  0  0  0  0  0  0  0  0  0  0
   -1.1417    1.8625    0.0000 C   0  0  0  0  0  0  0  0  0  0  0  0
    2.5750    4.5375    0.0000 C   0  0  0  0  0  0  0  0  0  0  0  0
   -2.5792   -4.5375    0.0000 C   0  0  0  0  0  0  0  0  0  0  0  0
    3.3958    3.9667    0.0000 C   0  0  0  0  0  0  0  0  0  0  0  0
    2.6667    5.5333    0.0000 Cl  0  0  0  0  0  0  0  0  0  0  0  0
   -2.6708   -5.5333    0.0000 F   0  0  0  0  0  0  0  0  0  0  0  0
   -2.1375    0.4417    0.0000 C   0  0  0  0  0  0  0  0  0  0  0  0
   -3.3083   -2.9667    0.0000 C   0  0  0  0  0  0  0  0  0  0  0  0
   -1.5833   -3.1208    0.0000 C   0  0  0  0  0  0  0  0  0  0  0  0
   -3.4000   -3.9625    0.0000 C   0  0  0  0  0  0  0  0  0  0  0  0
   -1.6750   -4.1167    0.0000 C   0  0  0  0  0  0  0  0  0  0  0  0
   -2.0458    1.4417    0.0000 C   0  0  0  0  0  0  0  0  0  0  0  0
   -1.0500    2.8583    0.0000 C   0  0  0  0  0  0  0  0  0  0  0  0
   -0.0542    4.2708    0.0000 C   0  0  0  0  0  0  0  0  0  0  0  0
   -0.8750    4.8458    0.0000 C   0  0  0  0  0  0  0  0  0  0  0  0
   -1.8708    3.4333    0.0000 C   0  0  0  0  0  0  0  0  0  0  0  0
   -1.7792    4.4250    0.0000 C   0  0  0  0  0  0  0  0  0  0  0  0
  1  2  2  0  0  0  0
  1  3  1  0  0  0  0
  1  4  1  0  0  0  0
  2  5  1  0  0  0  0
  3  6  1  0  0  0  0
  6  7  1  0  0  0  0
  8  9  1  0  0  0  0
  9 10  1  0  0  0  0
  4 10  1  0  0  0  0
  8 11  1  0  0  0  0
  5 12  1  0  0  0  0
  2 13  1  0  0  0  0
  3 14  2  0  0  0  0
  8 15  2  0  0  0  0
  7 16  1  0  0  0  0
 11 17  1  0  0  0  0
  4 18  1  0  0  0  0
 12 19  2  0  0  0  0
 20 27  2  0  0  0  0
 16 21  2  0  0  0  0
 19 22  1  0  0  0  0
 20 23  1  0  0  0  0
 24 29  1  0  0  0  0
 17 25  2  0  0  0  0
 17 26  1  0  0  0  0
 25 27  1  0  0  0  0
 26 28  2  0  0  0  0
 18 29  1  0  0  0  0
 13 30  2  0  0  0  0
 13 31  1  0  0  0  0
 31 32  2  0  0  0  0
 30 33  1  0  0  0  0
 32 34  1  0  0  0  0
  5  7  2  0  0  0  0
  9 24  1  0  0  0  0
 19 21  1  0  0  0  0
 33 34  2  0  0  0  0
 20 28  1  0  0  0  0
M  END
> <MOLFORMULA>
C27 H23 Cl F N3 O2

> <MOLWEIGHT>
4.759487000000000e+002

> <IDNUMBER>
AN-153/MD17196

> <SALTDATA>
HCl

> <PRICE>
EUR 130/10 mg

> <Similarity score>
0.19

$$$$

  -OEChem-04222410502D

 34 38  0     0  0  0  0  0  0999 V2000
   -3.3208    2.1875    0.0000 C   0  0  0  0  0  0  0  0  0  0  0  0
   -3.3125    1.3583    0.0000 C   0  0  0  0  0  0  0  0  0  0  0  0
   -1.8833    2.1875    0.0000 C   0  0  0  0  0  0  0  0  0  0  0  0
   -2.6083    2.6083    0.0000 N   0  0  0  0  0  0  0  0  0  0  0  0
   -1.8833    1.3583    0.0000 N   0  0  0  0  0  0  0  0  0  0  0  0
   -2.6000    0.9458    0.0000 C   0  0  0  0  0  0  0  0  0  0  0  0
   -4.1000    2.4333    0.0000 C   0  0  0  0  0  0  0  0  0  0  0  0
   -4.0958    1.1000    0.0000 S   0  0  0  0  0  0  0  0  0  0  0  0
   -1.1708    2.6000    0.0000 N   0  0  3  0  0  0  0  0  0  0  0  0
   -4.5833    1.7708    0.0000 C   0  0  0  0  0  0  0  0  0  0  0  0
    0.2542    2.5958    0.0000 C   0  0  3  0  0  0  0  0  0  0  0  0
    0.9750    2.1750    0.0000 C   0  0  0  0  0  0  0  0  0  0  0  0
   -0.4583    2.1833    0.0000 C   0  0  0  0  0  0  0  0  0  0  0  0
    1.6917    2.5875    0.0000 N   0  0  0  0  0  0  0  0  0  0  0  0
   -4.3625    3.2208    0.0000 C   0  0  0  0  0  0  0  0  0  0  0  0
   -2.6000    0.1208    0.0000 O   0  0  0  0  0  0  0  0  0  0  0  0
    2.3792   -0.2917    0.0000 C   0  0  0  0  0  0  0  0  0  0  0  0
    0.9667    1.3500    0.0000 O   0  0  0  0  0  0  0  0  0  0  0  0
    1.6667    0.1208    0.0000 C   0  0  0  0  0  0  0  0  0  0  0  0
    3.1042    0.1208    0.0000 C   0  0  0  0  0  0  0  0  0  0  0  0
    2.4000    1.3583    0.0000 C   0  0  0  0  0  0  0  0  0  0  0  0
    2.4042    2.1708    0.0000 C   0  0  0  0  0  0  0  0  0  0  0  0
    1.6792    0.9583    0.0000 C   0  0  0  0  0  0  0  0  0  0  0  0
    3.1042    0.9333    0.0000 C   0  0  0  0  0  0  0  0  0  0  0  0
   -1.1708    3.4208    0.0000 C   0  0  0  0  0  0  0  0  0  0  0  0
    3.8250   -0.2917    0.0000 F   0  0  0  0  0  0  0  0  0  0  0  0
    0.9417   -0.2875    0.0000 F   0  0  0  0  0  0  0  0  0  0  0  0
    0.2625    3.4208    0.0000 C   0  0  0  0  0  0  0  0  0  0  0  0
   -0.4583    3.8333    0.0000 C   0  0  0  0  0  0  0  0  0  0  0  0
   -3.8083    3.8375    0.0000 C   0  0  0  0  0  0  0  0  0  0  0  0
   -5.1708    3.3958    0.0000 C   0  0  0  0  0  0  0  0  0  0  0  0
   -4.0708    4.6167    0.0000 C   0  0  0  0  0  0  0  0  0  0  0  0
   -5.4333    4.1667    0.0000 C   0  0  0  0  0  0  0  0  0  0  0  0
   -4.8750    4.7792    0.0000 C   0  0  0  0  0  0  0  0  0  0  0  0
  1  2  2  0  0  0  0
  3  4  2  0  0  0  0
  1  4  1  0  0  0  0
  3  5  1  0  0  0  0
  2  6  1  0  0  0  0
  1  7  1  0  0  0  0
  2  8  1  0  0  0  0
  3  9  1  0  0  0  0
  7 10  2  0  0  0  0
 11 13  1  0  0  0  0
 11 12  1  0  0  0  0
  9 13  1  0  0  0  0
 12 14  1  0  0  0  0
  7 15  1  0  0  0  0
  6 16  2  0  0  0  0
 17 20  2  0  0  0  0
 12 18  2  0  0  0  0
 19 23  2  0  0  0  0
 20 24  1  0  0  0  0
 21 22  1  0  0  0  0
 14 22  1  0  0  0  0
 21 23  1  0  0  0  0
 21 24  2  0  0  0  0
  9 25  1  0  0  0  0
 20 26  1  0  0  0  0
 19 27  1  0  0  0  0
 28 29  1  0  0  0  0
 25 29  1  0  0  0  0
 15 30  1  0  0  0  0
 15 31  2  0  0  0  0
 30 32  2  0  0  0  0
 31 33  1  0  0  0  0
 33 34  2  0  0  0  0
  8 10  1  0  0  0  0
  5  6  1  0  0  0  0
 32 34  1  0  0  0  0
 11 28  1  0  0  0  0
 17 19  1  0  0  0  0
M  END
> <MOLFORMULA>
C25 H22 F2 N4 O2 S

> <MOLWEIGHT>
4.805368000000000e+002

> <IDNUMBER>
AT-687/PE25946

> <PRICE>
EUR 80/10 mg

> <Similarity score>
0.19

$$$$

  -OEChem-04222410502D

 35 39  0     0  0  0  0  0  0999 V2000
   -3.3208    2.1875    0.0000 C   0  0  0  0  0  0  0  0  0  0  0  0
   -3.3125    1.3583    0.0000 C   0  0  0  0  0  0  0  0  0  0  0  0
   -1.8833    2.1875    0.0000 C   0  0  0  0  0  0  0  0  0  0  0  0
   -2.6083    2.6083    0.0000 N   0  0  0  0  0  0  0  0  0  0  0  0
   -1.8833    1.3583    0.0000 N   0  0  0  0  0  0  0  0  0  0  0  0
   -2.6000    0.9458    0.0000 C   0  0  0  0  0  0  0  0  0  0  0  0
   -4.1000    2.4333    0.0000 C   0  0  0  0  0  0  0  0  0  0  0  0
   -4.0958    1.1000    0.0000 S   0  0  0  0  0  0  0  0  0  0  0  0
   -1.1708    2.6000    0.0000 N   0  0  3  0  0  0  0  0  0  0  0  0
   -4.5833    1.7708    0.0000 C   0  0  0  0  0  0  0  0  0  0  0  0
    0.2542    2.5958    0.0000 C   0  0  3  0  0  0  0  0  0  0  0  0
    0.9750    2.1750    0.0000 C   0  0  0  0  0  0  0  0  0  0  0  0
   -0.4583    2.1833    0.0000 C   0  0  0  0  0  0  0  0  0  0  0  0
    1.6917    2.5875    0.0000 N   0  0  0  0  0  0  0  0  0  0  0  0
   -4.3625    3.2208    0.0000 C   0  0  0  0  0  0  0  0  0  0  0  0
   -2.6000    0.1208    0.0000 O   0  0  0  0  0  0  0  0  0  0  0  0
    0.9667    1.3500    0.0000 O   0  0  0  0  0  0  0  0  0  0  0  0
    2.4042    2.1708    0.0000 C   0  0  0  0  0  0  0  0  0  0  0  0
   -1.1708    3.4208    0.0000 C   0  0  0  0  0  0  0  0  0  0  0  0
    2.4000    1.3583    0.0000 C   0  0  0  0  0  0  0  0  0  0  0  0
    2.3917   -0.3000    0.0000 C   0  0  0  0  0  0  0  0  0  0  0  0
    0.2625    3.4208    0.0000 C   0  0  0  0  0  0  0  0  0  0  0  0
    1.6792    0.9583    0.0000 C   0  0  0  0  0  0  0  0  0  0  0  0
    3.1042    0.9333    0.0000 C   0  0  0  0  0  0  0  0  0  0  0  0
    1.6667    0.1208    0.0000 C   0  0  0  0  0  0  0  0  0  0  0  0
    3.1042    0.1125    0.0000 C   0  0  0  0  0  0  0  0  0  0  0  0
    2.3792   -1.1167    0.0000 O   0  0  0  0  0  0  0  0  0  0  0  0
   -0.4583    3.8333    0.0000 C   0  0  0  0  0  0  0  0  0  0  0  0
   -5.1708    3.3958    0.0000 C   0  0  0  0  0  0  0  0  0  0  0  0
   -3.8083    3.8375    0.0000 C   0  0  0  0  0  0  0  0  0  0  0  0
    3.1042   -1.5417    0.0000 C   0  0  0  0  0  0  0  0  0  0  0  0
    3.1000   -2.3667    0.0000 C   0  0  0  0  0  0  0  0  0  0  0  0
   -5.4333    4.1667    0.0000 C   0  0  0  0  0  0  0  0  0  0  0  0
   -4.0708    4.6167    0.0000 C   0  0  0  0  0  0  0  0  0  0  0  0
   -4.8750    4.7792    0.0000 C   0  0  0  0  0  0  0  0  0  0  0  0
  1  2  2  0  0  0  0
  3  4  2  0  0  0  0
  1  4  1  0  0  0  0
  3  5  1  0  0  0  0
  2  6  1  0  0  0  0
  1  7  1  0  0  0  0
  2  8  1  0  0  0  0
  3  9  1  0  0  0  0
  7 10  2  0  0  0  0
 11 13  1  0  0  0  0
 11 12  1  0  0  0  0
  9 13  1  0  0  0  0
 12 14  1  0  0  0  0
  7 15  1  0  0  0  0
  6 16  2  0  0  0  0
 12 17  2  0  0  0  0
 14 18  1  0  0  0  0
  9 19  1  0  0  0  0
 18 20  1  0  0  0  0
 21 26  2  0  0  0  0
 22 28  1  0  0  0  0
 20 23  1  0  0  0  0
 20 24  2  0  0  0  0
 23 25  2  0  0  0  0
 24 26  1  0  0  0  0
 21 27  1  0  0  0  0
 19 28  1  0  0  0  0
 15 29  2  0  0  0  0
 15 30  1  0  0  0  0
 27 31  1  0  0  0  0
 31 32  1  0  0  0  0
 29 33  1  0  0  0  0
 30 34  2  0  0  0  0
 34 35  1  0  0  0  0
  8 10  1  0  0  0  0
  5  6  1  0  0  0  0
 33 35  2  0  0  0  0
 11 22  1  0  0  0  0
 21 25  1  0  0  0  0
M  END
> <MOLFORMULA>
C27 H28 N4 O3 S

> <MOLWEIGHT>
4.886092000000000e+002

> <IDNUMBER>
AT-687/PE25943

> <PRICE>
EUR 80/10 mg

> <Similarity score>
0.19

$$$$

  -OEChem-04222410502D

 25 29  0     0  0  0  0  0  0999 V2000
    5.3375   -5.5167    0.0000 C   0  0  0  0  0  0  0  0  0  0  0  0
    5.6250   -4.2042    0.0000 N   0  0  0  0  0  0  0  0  0  0  0  0
    4.6167   -5.1000    0.0000 C   0  0  0  0  0  0  0  0  0  0  0  0
    5.9542   -4.9667    0.0000 C   0  0  0  0  0  0  0  0  0  0  0  0
    4.8000   -4.2875    0.0000 N   0  0  0  0  0  0  0  0  0  0  0  0
    3.9042   -5.5167    0.0000 C   0  0  0  0  0  0  0  0  0  0  0  0
    3.9000   -6.3542    0.0000 C   0  0  0  0  0  0  0  0  0  0  0  0
    4.6167   -6.7667    0.0000 N   0  0  0  0  0  0  0  0  0  0  0  0
    3.1875   -5.1042    0.0000 C   0  0  0  0  0  0  0  0  0  0  0  0
    6.7625   -5.1417    0.0000 C   0  0  0  0  0  0  0  0  0  0  0  0
    5.3417   -6.3542    0.0000 C   0  0  0  0  0  0  0  0  0  0  0  0
    3.1875   -6.7625    0.0000 C   0  0  0  0  0  0  0  0  0  0  0  0
    2.4750   -5.5250    0.0000 C   0  0  0  0  0  0  0  0  0  0  0  0
    2.4750   -6.3500    0.0000 C   0  0  0  0  0  0  0  0  0  0  0  0
    7.3167   -4.5375    0.0000 C   0  0  0  0  0  0  0  0  0  0  0  0
    8.1167   -4.7042    0.0000 C   0  0  0  0  0  0  0  0  0  0  0  0
    1.7625   -5.1042    0.0000 O   0  0  0  0  0  0  0  0  0  0  0  0
    1.7625   -6.7625    0.0000 O   0  0  0  0  0  0  0  0  0  0  0  0
    8.3750   -5.5000    0.0000 C   0  0  0  0  0  0  0  0  0  0  0  0
    7.0125   -5.9292    0.0000 C   0  0  0  0  0  0  0  0  0  0  0  0
    7.8167   -6.1042    0.0000 C   0  0  0  0  0  0  0  0  0  0  0  0
    8.6750   -4.0917    0.0000 C   0  0  0  0  0  0  0  0  0  0  0  0
    1.0417   -5.5167    0.0000 C   0  0  0  0  0  0  0  0  0  0  0  0
    1.0417   -6.3417    0.0000 C   0  0  0  0  0  0  0  0  0  0  0  0
    9.1792   -5.6750    0.0000 C   0  0  0  0  0  0  0  0  0  0  0  0
  2  4  2  0  0  0  0
  1  3  2  0  0  0  0
  1  4  1  0  0  0  0
  3  5  1  0  0  0  0
  3  6  1  0  0  0  0
  7  8  1  0  0  0  0
  8 11  2  0  0  0  0
  6  9  2  0  0  0  0
  4 10  1  0  0  0  0
  1 11  1  0  0  0  0
  7 12  2  0  0  0  0
  9 13  1  0  0  0  0
 12 14  1  0  0  0  0
 10 15  1  0  0  0  0
 15 16  2  0  0  0  0
 13 17  1  0  0  0  0
 14 18  1  0  0  0  0
 19 21  2  0  0  0  0
 10 20  2  0  0  0  0
 20 21  1  0  0  0  0
 16 22  1  0  0  0  0
 17 23  1  0  0  0  0
 18 24  1  0  0  0  0
 19 25  1  0  0  0  0
  2  5  1  0  0  0  0
  6  7  1  0  0  0  0
 13 14  2  0  0  0  0
 16 19  1  0  0  0  0
 23 24  1  0  0  0  0
M  END
> <MOLFORMULA>
C20 H17 N3 O2

> <MOLWEIGHT>
3.313733000000000e+002

> <IDNUMBER>
AT-687/SK17479

> <PRICE>
EUR 80/10 mg

> <Similarity score>
0.19

$$$$

  -OEChem-04222410502D

 36 41  0     0  0  0  0  0  0999 V2000
    1.0000    1.3000    0.0000 C   0  0  0  0  0  0  0  0  0  0  0  0
    0.5000    2.1667    0.0000 C   0  0  0  0  0  0  0  0  0  0  0  0
    2.0000    1.3000    0.0000 C   0  0  0  0  0  0  0  0  0  0  0  0
    0.5000    0.4333    0.0000 N   0  0  3  0  0  0  0  0  0  0  0  0
    1.0000    3.0333    0.0000 C   0  0  0  0  0  0  0  0  0  0  0  0
    0.5000   -3.0292    0.0000 N   0  0  3  0  0  0  0  0  0  0  0  0
    2.5000    2.1667    0.0000 N   0  0  0  0  0  0  0  0  0  0  0  0
    1.0000   -2.1625    0.0000 C   0  0  0  0  0  0  0  0  0  0  0  0
    0.5000   -1.2958    0.0000 C   0  0  3  0  0  0  0  0  0  0  0  0
    2.0000    3.0333    0.0000 C   0  0  0  0  0  0  0  0  0  0  0  0
    1.0000   -0.4292    0.0000 C   0  0  0  0  0  0  0  0  0  0  0  0
   -0.5000   -3.0292    0.0000 C   0  0  0  0  0  0  0  0  0  0  0  0
   -1.0000   -3.8958    0.0000 C   0  0  0  0  0  0  0  0  0  0  0  0
    0.5000    3.9000    0.0000 C   0  0  0  0  0  0  0  0  0  0  0  0
   -0.5000    2.1667    0.0000 C   0  0  0  0  0  0  0  0  0  0  0  0
    2.5000    0.4333    0.0000 O   0  0  0  0  0  0  0  0  0  0  0  0
    1.0000   -3.8958    0.0000 C   0  0  0  0  0  0  0  0  0  0  0  0
    2.0000   -2.1625    0.0000 O   0  0  0  0  0  0  0  0  0  0  0  0
   -0.5000   -4.7625    0.0000 C   0  0  0  0  0  0  0  0  0  0  0  0
    2.5000    3.9000    0.0000 C   0  0  0  0  0  0  0  0  0  0  0  0
    0.5000   -4.7625    0.0000 C   0  0  0  0  0  0  0  0  0  0  0  0
   -0.5000    0.4333    0.0000 C   0  0  0  0  0  0  0  0  0  0  0  0
    1.0000    4.7625    0.0000 C   0  0  0  0  0  0  0  0  0  0  0  0
   -0.5000   -1.2958    0.0000 C   0  0  0  0  0  0  0  0  0  0  0  0
    2.0000    4.7625    0.0000 C   0  0  0  0  0  0  0  0  0  0  0  0
    0.5000    5.6250    0.0000 Cl  0  0  0  0  0  0  0  0  0  0  0  0
   -1.0000   -0.4292    0.0000 C   0  0  0  0  0  0  0  0  0  0  0  0
   -2.0000   -3.8958    0.0000 C   0  0  0  0  0  0  0  0  0  0  0  0
   -1.0000    1.3000    0.0000 C   0  0  0  0  0  0  0  0  0  0  0  0
   -1.0000    3.0333    0.0000 C   0  0  0  0  0  0  0  0  0  0  0  0
   -1.0000   -5.6250    0.0000 C   0  0  0  0  0  0  0  0  0  0  0  0
   -2.5000   -4.7625    0.0000 C   0  0  0  0  0  0  0  0  0  0  0  0
   -2.0000   -5.6250    0.0000 C   0  0  0  0  0  0  0  0  0  0  0  0
   -2.0000    1.3000    0.0000 C   0  0  0  0  0  0  0  0  0  0  0  0
   -2.0000    3.0333    0.0000 C   0  0  0  0  0  0  0  0  0  0  0  0
   -2.5000    2.1667    0.0000 C   0  0  0  0  0  0  0  0  0  0  0  0
  1  2  2  0  0  0  0
  1  3  1  0  0  0  0
  1  4  1  0  0  0  0
  2  5  1  0  0  0  0
  6  8  1  0  0  0  0
  3  7  1  0  0  0  0
  8  9  1  0  0  0  0
  9 11  1  0  0  0  0
  7 10  1  0  0  0  0
  4 11  1  0  0  0  0
  6 12  1  0  0  0  0
 12 13  1  0  0  0  0
  5 14  1  0  0  0  0
  2 15  1  0  0  0  0
  3 16  2  0  0  0  0
  6 17  1  0  0  0  0
  8 18  2  0  0  0  0
 19 21  1  0  0  0  0
 10 20  1  0  0  0  0
 17 21  1  0  0  0  0
  4 22  1  0  0  0  0
 14 23  2  0  0  0  0
 24 27  1  0  0  0  0
 20 25  2  0  0  0  0
 23 26  1  0  0  0  0
 22 27  1  0  0  0  0
 13 28  1  0  0  0  0
 15 29  1  0  0  0  0
 15 30  2  0  0  0  0
 19 31  1  0  0  0  0
 28 32  2  0  0  0  0
 31 33  2  0  0  0  0
 29 34  2  0  0  0  0
 30 35  1  0  0  0  0
 35 36  2  0  0  0  0
  5 10  2  0  0  0  0
  9 24  1  0  0  0  0
 23 25  1  0  0  0  0
 34 36  1  0  0  0  0
 13 19  2  0  0  0  0
 32 33  1  0  0  0  0
M  END
> <MOLFORMULA>
C30 H28 Cl N3 O2

> <MOLWEIGHT>
4.980232000000000e+002

> <IDNUMBER>
AN-153/I262635

> <PRICE>
EUR 130/10 mg

> <Similarity score>
0.19

$$$$

  -OEChem-04222410502D

 33 37  0     0  0  0  0  0  0999 V2000
   -3.3208    2.1875    0.0000 C   0  0  0  0  0  0  0  0  0  0  0  0
   -3.3125    1.3583    0.0000 C   0  0  0  0  0  0  0  0  0  0  0  0
   -1.8833    2.1875    0.0000 C   0  0  0  0  0  0  0  0  0  0  0  0
   -2.6083    2.6083    0.0000 N   0  0  0  0  0  0  0  0  0  0  0  0
   -1.8833    1.3583    0.0000 N   0  0  0  0  0  0  0  0  0  0  0  0
   -2.6000    0.9458    0.0000 C   0  0  0  0  0  0  0  0  0  0  0  0
   -4.1000    2.4333    0.0000 C   0  0  0  0  0  0  0  0  0  0  0  0
   -4.0958    1.1000    0.0000 S   0  0  0  0  0  0  0  0  0  0  0  0
   -1.1708    2.6000    0.0000 N   0  0  3  0  0  0  0  0  0  0  0  0
   -4.5833    1.7708    0.0000 C   0  0  0  0  0  0  0  0  0  0  0  0
    0.2542    2.5958    0.0000 C   0  0  3  0  0  0  0  0  0  0  0  0
    0.9750    2.1750    0.0000 C   0  0  0  0  0  0  0  0  0  0  0  0
   -0.4583    2.1833    0.0000 C   0  0  0  0  0  0  0  0  0  0  0  0
    1.6917    2.5875    0.0000 N   0  0  0  0  0  0  0  0  0  0  0  0
   -4.3625    3.2208    0.0000 C   0  0  0  0  0  0  0  0  0  0  0  0
   -2.6000    0.1208    0.0000 O   0  0  0  0  0  0  0  0  0  0  0  0
    0.9667    1.3500    0.0000 O   0  0  0  0  0  0  0  0  0  0  0  0
    2.4042    2.1708    0.0000 C   0  0  0  0  0  0  0  0  0  0  0  0
    2.4000    1.3458    0.0000 C   0  0  0  0  0  0  0  0  0  0  0  0
    3.1167    0.9333    0.0000 C   0  0  0  0  0  0  0  0  0  0  0  0
   -1.1708    3.4208    0.0000 C   0  0  0  0  0  0  0  0  0  0  0  0
    0.2625    3.4208    0.0000 C   0  0  0  0  0  0  0  0  0  0  0  0
   -0.4583    3.8333    0.0000 C   0  0  0  0  0  0  0  0  0  0  0  0
   -3.8083    3.8375    0.0000 C   0  0  0  0  0  0  0  0  0  0  0  0
   -5.1708    3.3958    0.0000 C   0  0  0  0  0  0  0  0  0  0  0  0
    1.6875    0.9333    0.0000 C   0  0  0  0  0  0  0  0  0  0  0  0
    3.8292    1.3458    0.0000 C   0  0  0  0  0  0  0  0  0  0  0  0
    3.1167    0.1083    0.0000 C   0  0  0  0  0  0  0  0  0  0  0  0
    2.4042   -0.3042    0.0000 C   0  0  0  0  0  0  0  0  0  0  0  0
   -4.0708    4.6167    0.0000 C   0  0  0  0  0  0  0  0  0  0  0  0
   -5.4333    4.1667    0.0000 C   0  0  0  0  0  0  0  0  0  0  0  0
    1.6792    0.1083    0.0000 C   0  0  0  0  0  0  0  0  0  0  0  0
   -4.8750    4.7792    0.0000 C   0  0  0  0  0  0  0  0  0  0  0  0
  1  2  2  0  0  0  0
  3  4  2  0  0  0  0
  1  4  1  0  0  0  0
  3  5  1  0  0  0  0
  2  6  1  0  0  0  0
  1  7  1  0  0  0  0
  2  8  1  0  0  0  0
  3  9  1  0  0  0  0
  7 10  2  0  0  0  0
 11 13  1  0  0  0  0
 11 12  1  0  0  0  0
  9 13  1  0  0  0  0
 12 14  1  0  0  0  0
  7 15  1  0  0  0  0
  6 16  2  0  0  0  0
 12 17  2  0  0  0  0
 14 18  1  0  0  0  0
 18 19  1  0  0  0  0
 19 20  2  0  0  0  0
  9 21  1  0  0  0  0
 22 23  1  0  0  0  0
 21 23  1  0  0  0  0
 15 24  1  0  0  0  0
 15 25  2  0  0  0  0
 19 26  1  0  0  0  0
 20 27  1  0  0  0  0
 20 28  1  0  0  0  0
 29 32  1  0  0  0  0
 24 30  2  0  0  0  0
 25 31  1  0  0  0  0
 26 32  2  0  0  0  0
 31 33  2  0  0  0  0
  8 10  1  0  0  0  0
  5  6  1  0  0  0  0
 30 33  1  0  0  0  0
 11 22  1  0  0  0  0
 28 29  2  0  0  0  0
M  END
> <MOLFORMULA>
C26 H26 N4 O2 S

> <MOLWEIGHT>
4.585834000000000e+002

> <IDNUMBER>
AT-687/PE25959

> <PRICE>
EUR 80/10 mg

> <Similarity score>
0.19

$$$$

  -OEChem-04222410502D

 31 35  0     0  0  0  0  0  0999 V2000
    4.3417   -4.8917    0.0000 C   0  0  0  0  0  0  0  0  0  0  0  0
    5.6250   -4.6250    0.0000 C   0  0  0  0  0  0  0  0  0  0  0  0
    3.2667   -4.1000    0.0000 O   0  0  0  0  0  0  0  0  0  0  0  0
    3.9167   -6.1500    0.0000 C   0  0  0  0  0  0  0  0  0  0  0  0
    6.0542   -3.3500    0.0000 N   0  0  3  0  0  0  0  0  0  0  0  0
    2.5917   -6.1750    0.0000 C   0  0  0  0  0  0  0  0  0  0  0  0
    2.1792   -4.9000    0.0000 C   0  0  0  0  0  0  0  0  0  0  0  0
    7.7667   -1.8250    0.0000 C   0  0  3  0  0  0  0  0  0  0  0  0
    9.0750   -1.5417    0.0000 C   0  0  0  0  0  0  0  0  0  0  0  0
    6.5167   -5.6042    0.0000 N   0  0  0  0  0  0  0  0  0  0  0  0
    7.3542   -3.0750    0.0000 C   0  0  0  0  0  0  0  0  0  0  0  0
    4.7917   -7.1417    0.0000 N   0  0  0  0  0  0  0  0  0  0  0  0
    9.4792   -0.2750    0.0000 N   0  0  0  0  0  0  0  0  0  0  0  0
    6.1042   -6.8750    0.0000 C   0  0  0  0  0  0  0  0  0  0  0  0
    9.9667   -2.5250    0.0000 O   0  0  0  0  0  0  0  0  0  0  0  0
   10.7667   -0.0000    0.0000 C   0  0  0  0  0  0  0  0  0  0  0  0
    5.1500   -2.3750    0.0000 C   0  0  0  0  0  0  0  0  0  0  0  0
   13.4250   -2.9667    0.0000 C   0  0  0  0  0  0  0  0  0  0  0  0
   11.6542   -0.9750    0.0000 C   0  0  0  0  0  0  0  0  0  0  0  0
   14.3167   -3.9500    0.0000 S   0  0  0  0  0  0  0  0  0  0  0  0
    6.8917   -0.8250    0.0000 C   0  0  0  0  0  0  0  0  0  0  0  0
    1.7000   -7.1417    0.0000 C   0  0  0  0  0  0  0  0  0  0  0  0
   12.1250   -3.2500    0.0000 C   0  0  0  0  0  0  0  0  0  0  0  0
   13.8500   -1.7000    0.0000 C   0  0  0  0  0  0  0  0  0  0  0  0
   11.2500   -2.2250    0.0000 C   0  0  0  0  0  0  0  0  0  0  0  0
   12.9500   -0.7167    0.0000 C   0  0  0  0  0  0  0  0  0  0  0  0
    0.8792   -4.6250    0.0000 C   0  0  0  0  0  0  0  0  0  0  0  0
    5.5750   -1.0917    0.0000 C   0  0  0  0  0  0  0  0  0  0  0  0
   15.6250   -3.6667    0.0000 C   0  0  0  0  0  0  0  0  0  0  0  0
    0.4000   -6.8750    0.0000 C   0  0  0  0  0  0  0  0  0  0  0  0
    0.0000   -5.6042    0.0000 C   0  0  0  0  0  0  0  0  0  0  0  0
  1  2  2  0  0  0  0
  1  3  1  0  0  0  0
  1  4  1  0  0  0  0
  2  5  1  0  0  0  0
  4  6  1  0  0  0  0
  3  7  1  0  0  0  0
  8 11  1  0  0  0  0
  8  9  1  0  0  0  0
  2 10  1  0  0  0  0
  5 11  1  0  0  0  0
  4 12  2  0  0  0  0
  9 13  1  0  0  0  0
 12 14  1  0  0  0  0
  9 15  2  0  0  0  0
 13 16  1  0  0  0  0
  5 17  1  0  0  0  0
 18 24  2  0  0  0  0
 16 19  1  0  0  0  0
 18 20  1  0  0  0  0
 21 28  1  0  0  0  0
  6 22  1  0  0  0  0
 23 25  2  0  0  0  0
 24 26  1  0  0  0  0
 19 25  1  0  0  0  0
 19 26  2  0  0  0  0
  7 27  1  0  0  0  0
 17 28  1  0  0  0  0
 20 29  1  0  0  0  0
 22 30  2  0  0  0  0
 27 31  2  0  0  0  0
  6  7  2  0  0  0  0
 10 14  2  0  0  0  0
 30 31  1  0  0  0  0
  8 21  1  0  0  0  0
 18 23  1  0  0  0  0
M  END
> <MOLFORMULA>
C24 H24 N4 O2 S

> <MOLWEIGHT>
4.325456000000000e+002

> <IDNUMBER>
AT-687/PE16775

> <PRICE>
EUR 80/10 mg

> <Similarity score>
0.19

$$$$

  -OEChem-04222410502D

 30 34  0     0  0  0  0  0  0999 V2000
    4.3417   -4.8792    0.0000 C   0  0  0  0  0  0  0  0  0  0  0  0
    5.6250   -4.6042    0.0000 C   0  0  0  0  0  0  0  0  0  0  0  0
    3.2667   -4.1042    0.0000 O   0  0  0  0  0  0  0  0  0  0  0  0
    3.9042   -6.1500    0.0000 C   0  0  0  0  0  0  0  0  0  0  0  0
    6.0542   -3.3500    0.0000 N   0  0  3  0  0  0  0  0  0  0  0  0
    2.5917   -6.1542    0.0000 C   0  0  0  0  0  0  0  0  0  0  0  0
    2.1750   -4.9000    0.0000 C   0  0  0  0  0  0  0  0  0  0  0  0
    7.7750   -1.8167    0.0000 C   0  0  3  0  0  0  0  0  0  0  0  0
    9.0792   -1.5417    0.0000 C   0  0  0  0  0  0  0  0  0  0  0  0
    6.5167   -5.6000    0.0000 N   0  0  0  0  0  0  0  0  0  0  0  0
    7.3667   -3.0750    0.0000 C   0  0  0  0  0  0  0  0  0  0  0  0
    4.8000   -7.1292    0.0000 N   0  0  0  0  0  0  0  0  0  0  0  0
    9.4792   -0.2667    0.0000 N   0  0  0  0  0  0  0  0  0  0  0  0
    6.1000   -6.8750    0.0000 C   0  0  0  0  0  0  0  0  0  0  0  0
    9.9750   -2.5292    0.0000 O   0  0  0  0  0  0  0  0  0  0  0  0
   10.7667   -0.0000    0.0000 C   0  0  0  0  0  0  0  0  0  0  0  0
    5.1500   -2.3542    0.0000 C   0  0  0  0  0  0  0  0  0  0  0  0
   11.6667   -0.9667    0.0000 C   0  0  0  0  0  0  0  0  0  0  0  0
   13.4250   -2.9500    0.0000 C   0  0  0  0  0  0  0  0  0  0  0  0
    6.8917   -0.8167    0.0000 C   0  0  0  0  0  0  0  0  0  0  0  0
    1.7000   -7.1292    0.0000 C   0  0  0  0  0  0  0  0  0  0  0  0
   12.9750   -0.7167    0.0000 C   0  0  0  0  0  0  0  0  0  0  0  0
   11.2500   -2.2250    0.0000 C   0  0  0  0  0  0  0  0  0  0  0  0
   12.1417   -3.2292    0.0000 C   0  0  0  0  0  0  0  0  0  0  0  0
   13.8417   -1.6917    0.0000 C   0  0  0  0  0  0  0  0  0  0  0  0
    0.8792   -4.6042    0.0000 C   0  0  0  0  0  0  0  0  0  0  0  0
    5.5792   -1.0792    0.0000 C   0  0  0  0  0  0  0  0  0  0  0  0
   14.3250   -3.9417    0.0000 C   0  0  0  0  0  0  0  0  0  0  0  0
    0.4000   -6.8667    0.0000 C   0  0  0  0  0  0  0  0  0  0  0  0
    0.0000   -5.6000    0.0000 C   0  0  0  0  0  0  0  0  0  0  0  0
  1  2  2  0  0  0  0
  1  3  1  0  0  0  0
  1  4  1  0  0  0  0
  2  5  1  0  0  0  0
  4  6  1  0  0  0  0
  3  7  1  0  0  0  0
  8 11  1  0  0  0  0
  8  9  1  0  0  0  0
  2 10  1  0  0  0  0
  5 11  1  0  0  0  0
  4 12  2  0  0  0  0
  9 13  1  0  0  0  0
 12 14  1  0  0  0  0
  9 15  2  0  0  0  0
 13 16  1  0  0  0  0
  5 17  1  0  0  0  0
 16 18  1  0  0  0  0
 19 24  2  0  0  0  0
 20 27  1  0  0  0  0
  6 21  1  0  0  0  0
 18 22  1  0  0  0  0
 18 23  2  0  0  0  0
 23 24  1  0  0  0  0
 22 25  2  0  0  0  0
  7 26  1  0  0  0  0
 17 27  1  0  0  0  0
 19 28  1  0  0  0  0
 21 29  2  0  0  0  0
 26 30  2  0  0  0  0
  6  7  2  0  0  0  0
 10 14  2  0  0  0  0
 29 30  1  0  0  0  0
  8 20  1  0  0  0  0
 19 25  1  0  0  0  0
M  END
> <MOLFORMULA>
C24 H24 N4 O2

> <MOLWEIGHT>
4.004796000000000e+002

> <IDNUMBER>
AT-687/PE16766

> <PRICE>
EUR 80/10 mg

> <Similarity score>
0.19

$$$$

  -OEChem-04222410502D

 27 31  0     0  0  0  0  0  0999 V2000
   -0.8625   -0.4667    0.0000 C   0  0  0  0  0  0  0  0  0  0  0  0
   -0.8750   -1.4667    0.0000 C   0  0  0  0  0  0  0  0  0  0  0  0
    0.8667   -0.4792    0.0000 C   0  0  0  0  0  0  0  0  0  0  0  0
    0.0042    0.0333    0.0000 N   0  0  0  0  0  0  0  0  0  0  0  0
    0.8625   -1.4792    0.0000 N   0  0  0  0  0  0  0  0  0  0  0  0
   -1.8208   -0.1500    0.0000 C   0  0  0  0  0  0  0  0  0  0  0  0
   -0.0125   -1.9792    0.0000 C   0  0  0  0  0  0  0  0  0  0  0  0
   -1.8208   -1.7667    0.0000 S   0  0  0  0  0  0  0  0  0  0  0  0
    1.7417    0.0083    0.0000 N   0  0  3  0  0  0  0  0  0  0  0  0
   -2.4083   -0.9542    0.0000 C   0  0  0  0  0  0  0  0  0  0  0  0
   -2.1208    0.7958    0.0000 C   0  0  0  0  0  0  0  0  0  0  0  0
    1.7542    1.0208    0.0000 C   0  0  0  0  0  0  0  0  0  0  0  0
    2.6250    1.4958    0.0000 C   0  0  0  0  0  0  0  0  0  0  0  0
   -0.0333   -2.9792    0.0000 O   0  0  0  0  0  0  0  0  0  0  0  0
    2.6042   -0.4917    0.0000 C   0  0  0  0  0  0  0  0  0  0  0  0
   -3.1083    1.0208    0.0000 C   0  0  0  0  0  0  0  0  0  0  0  0
    3.4875    0.9958    0.0000 C   0  0  0  0  0  0  0  0  0  0  0  0
    3.4750   -0.0125    0.0000 C   0  0  0  0  0  0  0  0  0  0  0  0
   -3.4083    1.9583    0.0000 C   0  0  0  0  0  0  0  0  0  0  0  0
   -4.3708    2.1750    0.0000 Cl  0  0  0  0  0  0  0  0  0  0  0  0
   -1.4458    1.5333    0.0000 C   0  0  0  0  0  0  0  0  0  0  0  0
   -1.7583    2.4833    0.0000 C   0  0  0  0  0  0  0  0  0  0  0  0
    2.6250    2.4833    0.0000 C   0  0  0  0  0  0  0  0  0  0  0  0
    4.3625    1.4958    0.0000 C   0  0  0  0  0  0  0  0  0  0  0  0
   -2.7250    2.6958    0.0000 C   0  0  0  0  0  0  0  0  0  0  0  0
    3.4875    2.9833    0.0000 C   0  0  0  0  0  0  0  0  0  0  0  0
    4.3667    2.4958    0.0000 C   0  0  0  0  0  0  0  0  0  0  0  0
  1  2  2  0  0  0  0
  3  4  2  0  0  0  0
  1  4  1  0  0  0  0
  3  5  1  0  0  0  0
  1  6  1  0  0  0  0
  2  7  1  0  0  0  0
  2  8  1  0  0  0  0
  3  9  1  0  0  0  0
  6 10  2  0  0  0  0
  6 11  1  0  0  0  0
  9 12  1  0  0  0  0
 12 13  1  0  0  0  0
  7 14  2  0  0  0  0
  9 15  1  0  0  0  0
 11 16  2  0  0  0  0
 17 18  1  0  0  0  0
 15 18  1  0  0  0  0
 16 19  1  0  0  0  0
 19 20  1  0  0  0  0
 11 21  1  0  0  0  0
 21 22  2  0  0  0  0
 13 23  1  0  0  0  0
 17 24  1  0  0  0  0
 22 25  1  0  0  0  0
 23 26  2  0  0  0  0
 24 27  2  0  0  0  0
  8 10  1  0  0  0  0
  5  7  1  0  0  0  0
 19 25  2  0  0  0  0
 13 17  2  0  0  0  0
 26 27  1  0  0  0  0
M  END
> <MOLFORMULA>
C21 H16 Cl N3 O S

> <MOLWEIGHT>
3.938964000000000e+002

> <IDNUMBER>
AT-687/PE25881

> <PRICE>
EUR 80/10 mg

> <Similarity score>
0.18

$$$$

  -OEChem-04222410502D

 27 31  0     0  0  0  0  0  0999 V2000
    5.3958   -7.8167    0.0000 C   0  0  0  0  0  0  0  0  0  0  0  0
    5.3958   -6.9875    0.0000 C   0  0  0  0  0  0  0  0  0  0  0  0
    4.6833   -8.2292    0.0000 N   0  0  0  0  0  0  0  0  0  0  0  0
    4.6833   -6.5750    0.0000 C   0  0  0  0  0  0  0  0  0  0  0  0
    6.1083   -8.2292    0.0000 C   0  0  0  0  0  0  0  0  0  0  0  0
    4.6833   -5.7458    0.0000 N   0  0  3  0  0  0  0  0  0  0  0  0
    3.9667   -6.9875    0.0000 C   0  0  0  0  0  0  0  0  0  0  0  0
    3.9667   -7.8167    0.0000 C   0  0  0  0  0  0  0  0  0  0  0  0
    6.8250   -7.8167    0.0000 C   0  0  0  0  0  0  0  0  0  0  0  0
    6.1083   -6.5750    0.0000 C   0  0  0  0  0  0  0  0  0  0  0  0
    4.6833   -4.0917    0.0000 N   0  0  3  0  0  0  0  0  0  0  0  0
    6.1083   -9.0583    0.0000 C   0  0  0  0  0  0  0  0  0  0  0  0
    6.8250   -6.9875    0.0000 C   0  0  0  0  0  0  0  0  0  0  0  0
    7.5417   -8.2292    0.0000 C   0  0  0  0  0  0  0  0  0  0  0  0
    5.4000   -5.3333    0.0000 C   0  0  0  0  0  0  0  0  0  0  0  0
    3.9708   -5.3333    0.0000 C   0  0  0  0  0  0  0  0  0  0  0  0
    3.9708   -4.5042    0.0000 C   0  0  0  0  0  0  0  0  0  0  0  0
    5.4000   -4.5042    0.0000 C   0  0  0  0  0  0  0  0  0  0  0  0
    7.5417   -9.0583    0.0000 C   0  0  0  0  0  0  0  0  0  0  0  0
    6.8208   -9.4708    0.0000 C   0  0  0  0  0  0  0  0  0  0  0  0
    3.2542   -6.5750    0.0000 C   0  0  0  0  0  0  0  0  0  0  0  0
    8.2667   -9.4750    0.0000 O   0  0  0  0  0  0  0  0  0  0  0  0
    4.6750   -3.2667    0.0000 C   0  0  0  0  0  0  0  0  0  0  0  0
    3.2542   -8.2292    0.0000 C   0  0  0  0  0  0  0  0  0  0  0  0
    8.9875   -9.0583    0.0000 C   0  0  0  0  0  0  0  0  0  0  0  0
    2.5375   -6.9875    0.0000 C   0  0  0  0  0  0  0  0  0  0  0  0
    2.5375   -7.8167    0.0000 C   0  0  0  0  0  0  0  0  0  0  0  0
  1  2  1  0  0  0  0
  1  3  2  0  0  0  0
  2  4  2  0  0  0  0
  1  5  1  0  0  0  0
  4  6  1  0  0  0  0
  7  8  1  0  0  0  0
  3  8  1  0  0  0  0
  5  9  2  0  0  0  0
  2 10  1  0  0  0  0
 11 17  1  0  0  0  0
  5 12  1  0  0  0  0
  9 13  1  0  0  0  0
  9 14  1  0  0  0  0
  6 15  1  0  0  0  0
  6 16  1  0  0  0  0
 16 17  1  0  0  0  0
 15 18  1  0  0  0  0
 19 20  1  0  0  0  0
 12 20  2  0  0  0  0
  7 21  2  0  0  0  0
 19 22  1  0  0  0  0
 11 23  1  0  0  0  0
  8 24  2  0  0  0  0
 22 25  1  0  0  0  0
 26 27  2  0  0  0  0
 24 27  1  0  0  0  0
 10 13  1  0  0  0  0
  4  7  1  0  0  0  0
 14 19  2  0  0  0  0
 21 26  1  0  0  0  0
 11 18  1  0  0  0  0
M  END
> <MOLFORMULA>
C23 H25 N3 O

> <MOLWEIGHT>
3.594705000000000e+002

> <IDNUMBER>
AT-225/NB48355

> <SALTDATA>
H2O

> <PRICE>
EUR 140/10 mg

> <Similarity score>
0.18

$$$$

  -OEChem-04222410502D

 27 31  0     0  0  0  0  0  0999 V2000
   -2.9375   -6.7125    0.0000 C   0  0  0  0  0  0  0  0  0  0  0  0
   -2.9375   -5.9542    0.0000 C   0  0  0  0  0  0  0  0  0  0  0  0
   -3.5958   -7.0875    0.0000 N   0  0  0  0  0  0  0  0  0  0  0  0
   -3.6125   -5.5792    0.0000 C   0  0  0  0  0  0  0  0  0  0  0  0
   -2.2833   -7.0875    0.0000 C   0  0  0  0  0  0  0  0  0  0  0  0
   -3.6125   -4.7917    0.0000 N   0  0  3  0  0  0  0  0  0  0  0  0
   -4.2458   -5.9542    0.0000 C   0  0  0  0  0  0  0  0  0  0  0  0
   -4.2458   -6.7125    0.0000 C   0  0  0  0  0  0  0  0  0  0  0  0
   -1.6333   -6.7125    0.0000 C   0  0  0  0  0  0  0  0  0  0  0  0
   -2.2833   -5.5792    0.0000 C   0  0  0  0  0  0  0  0  0  0  0  0
   -3.6125   -3.2875    0.0000 N   0  0  3  0  0  0  0  0  0  0  0  0
   -2.2833   -7.8417    0.0000 C   0  0  0  0  0  0  0  0  0  0  0  0
   -1.6333   -5.9542    0.0000 C   0  0  0  0  0  0  0  0  0  0  0  0
   -0.9833   -7.0875    0.0000 C   0  0  0  0  0  0  0  0  0  0  0  0
   -2.9625   -4.4167    0.0000 C   0  0  0  0  0  0  0  0  0  0  0  0
   -4.2708   -4.4167    0.0000 C   0  0  0  0  0  0  0  0  0  0  0  0
   -4.2708   -3.6625    0.0000 C   0  0  0  0  0  0  0  0  0  0  0  0
   -2.9583   -3.6667    0.0000 C   0  0  0  0  0  0  0  0  0  0  0  0
   -0.9833   -7.8417    0.0000 C   0  0  0  0  0  0  0  0  0  0  0  0
   -1.6333   -8.2167    0.0000 C   0  0  0  0  0  0  0  0  0  0  0  0
   -4.9083   -5.5792    0.0000 C   0  0  0  0  0  0  0  0  0  0  0  0
   -0.3333   -8.2167    0.0000 O   0  0  0  0  0  0  0  0  0  0  0  0
   -3.6083   -2.5375    0.0000 C   0  0  0  0  0  0  0  0  0  0  0  0
   -4.9083   -7.0875    0.0000 C   0  0  0  0  0  0  0  0  0  0  0  0
   -0.3333   -8.9667    0.0000 C   0  0  0  0  0  0  0  0  0  0  0  0
   -5.5458   -5.9542    0.0000 C   0  0  0  0  0  0  0  0  0  0  0  0
   -5.5458   -6.7125    0.0000 C   0  0  0  0  0  0  0  0  0  0  0  0
  1  2  2  0  0  0  0
  1  3  1  0  0  0  0
  2  4  1  0  0  0  0
  1  5  1  0  0  0  0
  4  6  1  0  0  0  0
  7  8  1  0  0  0  0
  3  8  2  0  0  0  0
  5  9  2  0  0  0  0
  2 10  1  0  0  0  0
 11 17  1  0  0  0  0
  5 12  1  0  0  0  0
  9 13  1  0  0  0  0
  9 14  1  0  0  0  0
  6 15  1  0  0  0  0
  6 16  1  0  0  0  0
 16 17  1  0  0  0  0
 15 18  1  0  0  0  0
 19 20  1  0  0  0  0
 12 20  2  0  0  0  0
  7 21  1  0  0  0  0
 19 22  1  0  0  0  0
 11 23  1  0  0  0  0
  8 24  1  0  0  0  0
 22 25  1  0  0  0  0
 26 27  1  0  0  0  0
 24 27  2  0  0  0  0
 10 13  1  0  0  0  0
  4  7  2  0  0  0  0
 14 19  2  0  0  0  0
 21 26  2  0  0  0  0
 11 18  1  0  0  0  0
M  END
> <MOLFORMULA>
C23 H25 N3 O

> <MOLWEIGHT>
3.594705000000000e+002

> <IDNUMBER>
AT-225/JK06945

> <PRICE>
EUR 140/10 mg

> <Similarity score>
0.18

$$$$

  -OEChem-04222410502D

 29 32  0     0  0  0  0  0  0999 V2000
    0.2500   -1.6625    0.0000 S   0  0  3  0  0  0  0  0  0  0  0  0
   -0.7583   -1.6625    0.0000 C   0  0  0  0  0  0  0  0  0  0  0  0
   -1.2583   -0.7917    0.0000 C   0  0  0  0  0  0  0  0  0  0  0  0
   -2.2500   -0.7917    0.0000 C   0  0  0  0  0  0  0  0  0  0  0  0
   -2.2500   -2.5292    0.0000 N   0  0  0  0  0  0  0  0  0  0  0  0
   -2.7583   -1.6625    0.0000 C   0  0  0  0  0  0  0  0  0  0  0  0
   -0.7583    0.0708    0.0000 C   0  0  0  0  0  0  0  0  0  0  0  0
   -1.2583   -2.5292    0.0000 C   0  0  0  0  0  0  0  0  0  0  0  0
   -3.7500   -1.6625    0.0000 C   0  0  0  0  0  0  0  0  0  0  0  0
    1.2417   -1.6625    0.0000 C   0  0  0  0  0  0  0  0  0  0  0  0
   -4.2500   -0.7917    0.0000 C   0  0  0  0  0  0  0  0  0  0  0  0
    0.2500   -0.6625    0.0000 O   0  0  0  0  0  0  0  0  0  0  0  0
    0.2500   -2.6625    0.0000 O   0  0  0  0  0  0  0  0  0  0  0  0
   -2.7583    0.0708    0.0000 C   0  0  0  0  0  0  0  0  0  0  0  0
   -3.7500    0.0708    0.0000 C   0  0  0  0  0  0  0  0  0  0  0  0
   -1.2583    0.9333    0.0000 C   0  0  0  0  0  0  0  0  0  0  0  0
    1.7417   -2.5292    0.0000 C   0  0  0  0  0  0  0  0  0  0  0  0
    1.7417   -0.7917    0.0000 C   0  0  0  0  0  0  0  0  0  0  0  0
   -4.2500   -2.5292    0.0000 F   0  0  0  0  0  0  0  0  0  0  0  0
   -0.7583    1.8000    0.0000 C   0  0  0  0  0  0  0  0  0  0  0  0
    3.2417   -1.6625    0.0000 C   0  0  0  0  0  0  0  0  0  0  0  0
   -4.2500    0.9333    0.0000 Cl  0  0  0  0  0  0  0  0  0  0  0  0
    2.7500   -0.7917    0.0000 C   0  0  0  0  0  0  0  0  0  0  0  0
    2.7500   -2.5292    0.0000 C   0  0  0  0  0  0  0  0  0  0  0  0
   -1.2583    2.6708    0.0000 F   0  0  0  0  0  0  0  0  0  0  0  0
    4.2500   -1.6625    0.0000 F   0  0  0  0  0  0  0  0  0  0  0  0
    0.2500    0.0708    0.0000 C   0  0  0  0  0  0  0  0  0  0  0  0
    0.7500    0.9333    0.0000 C   0  0  0  0  0  0  0  0  0  0  0  0
    0.2500    1.8000    0.0000 C   0  0  0  0  0  0  0  0  0  0  0  0
  1  2  1  0  0  0  0
  2  3  2  0  0  0  0
  3  4  1  0  0  0  0
  5  8  2  0  0  0  0
  5  6  1  0  0  0  0
  3  7  1  0  0  0  0
  2  8  1  0  0  0  0
  6  9  2  0  0  0  0
  1 10  1  0  0  0  0
  9 11  1  0  0  0  0
  1 12  2  0  0  0  0
  1 13  2  0  0  0  0
  4 14  2  0  0  0  0
 14 15  1  0  0  0  0
  7 16  2  0  0  0  0
 10 17  2  0  0  0  0
 10 18  1  0  0  0  0
  9 19  1  0  0  0  0
 16 20  1  0  0  0  0
 21 23  1  0  0  0  0
 15 22  1  0  0  0  0
 18 23  2  0  0  0  0
 17 24  1  0  0  0  0
 20 25  1  0  0  0  0
 21 26  1  0  0  0  0
  7 27  1  0  0  0  0
 27 28  2  0  0  0  0
 28 29  1  0  0  0  0
 21 24  2  0  0  0  0
  4  6  1  0  0  0  0
 11 15  2  0  0  0  0
 20 29  2  0  0  0  0
M  END
> <MOLFORMULA>
C21 H11 Cl F3 N O2 S

> <MOLWEIGHT>
4.338359000000000e+002

> <IDNUMBER>
AT-687/PE25811

> <PRICE>
EUR 80/10 mg

> <Similarity score>
0.18

$$$$

  -OEChem-04222410502D

 32 36  0     0  0  0  0  0  0999 V2000
    0.9958    0.8667    0.0000 C   0  0  0  0  0  0  0  0  0  0  0  0
    0.4958    1.7333    0.0000 C   0  0  0  0  0  0  0  0  0  0  0  0
    2.0000    0.8667    0.0000 C   0  0  0  0  0  0  0  0  0  0  0  0
    0.4958   -0.0000    0.0000 N   0  0  3  0  0  0  0  0  0  0  0  0
    0.9958    2.6000    0.0000 C   0  0  0  0  0  0  0  0  0  0  0  0
    2.5000    1.7333    0.0000 N   0  0  0  0  0  0  0  0  0  0  0  0
    0.9958   -2.5958    0.0000 C   0  0  0  0  0  0  0  0  0  0  0  0
    0.4958   -1.7292    0.0000 C   0  0  3  0  0  0  0  0  0  0  0  0
    2.0000    2.6000    0.0000 C   0  0  0  0  0  0  0  0  0  0  0  0
    0.9958   -0.8625    0.0000 C   0  0  0  0  0  0  0  0  0  0  0  0
    0.4958   -3.4625    0.0000 N   0  0  3  0  0  0  0  0  0  0  0  0
    0.4958    3.4667    0.0000 C   0  0  0  0  0  0  0  0  0  0  0  0
   -0.5000    1.7333    0.0000 C   0  0  0  0  0  0  0  0  0  0  0  0
    2.5000   -0.0000    0.0000 O   0  0  0  0  0  0  0  0  0  0  0  0
    2.0000   -2.5958    0.0000 O   0  0  0  0  0  0  0  0  0  0  0  0
    2.5000    3.4667    0.0000 C   0  0  0  0  0  0  0  0  0  0  0  0
   -0.5000   -5.1958    0.0000 O   0  0  0  0  0  0  0  0  0  0  0  0
   -0.5000   -0.0000    0.0000 C   0  0  0  0  0  0  0  0  0  0  0  0
    0.9958    4.3292    0.0000 C   0  0  0  0  0  0  0  0  0  0  0  0
   -0.5000   -1.7292    0.0000 C   0  0  0  0  0  0  0  0  0  0  0  0
    2.0000    4.3292    0.0000 C   0  0  0  0  0  0  0  0  0  0  0  0
    0.4958    5.1958    0.0000 Cl  0  0  0  0  0  0  0  0  0  0  0  0
    0.9958   -4.3292    0.0000 C   0  0  0  0  0  0  0  0  0  0  0  0
   -0.5000   -3.4625    0.0000 C   0  0  0  0  0  0  0  0  0  0  0  0
   -1.0042   -0.8625    0.0000 C   0  0  0  0  0  0  0  0  0  0  0  0
   -1.0042   -4.3292    0.0000 C   0  0  0  0  0  0  0  0  0  0  0  0
    0.4958   -5.1958    0.0000 C   0  0  0  0  0  0  0  0  0  0  0  0
   -1.0042    0.8667    0.0000 C   0  0  0  0  0  0  0  0  0  0  0  0
   -1.0042    2.6000    0.0000 C   0  0  0  0  0  0  0  0  0  0  0  0
   -2.0042    2.6000    0.0000 C   0  0  0  0  0  0  0  0  0  0  0  0
   -2.0042    0.8667    0.0000 C   0  0  0  0  0  0  0  0  0  0  0  0
   -2.5000    1.7333    0.0000 C   0  0  0  0  0  0  0  0  0  0  0  0
  1  2  2  0  0  0  0
  1  3  1  0  0  0  0
  1  4  1  0  0  0  0
  2  5  1  0  0  0  0
  3  6  1  0  0  0  0
  7  8  1  0  0  0  0
  8 10  1  0  0  0  0
  6  9  1  0  0  0  0
  4 10  1  0  0  0  0
  7 11  1  0  0  0  0
  5 12  1  0  0  0  0
  2 13  1  0  0  0  0
  3 14  2  0  0  0  0
  7 15  2  0  0  0  0
  9 16  1  0  0  0  0
 17 26  1  0  0  0  0
  4 18  1  0  0  0  0
 12 19  2  0  0  0  0
 20 25  1  0  0  0  0
 16 21  2  0  0  0  0
 19 22  1  0  0  0  0
 11 23  1  0  0  0  0
 11 24  1  0  0  0  0
 18 25  1  0  0  0  0
 24 26  1  0  0  0  0
 23 27  1  0  0  0  0
 13 28  1  0  0  0  0
 13 29  2  0  0  0  0
 29 30  1  0  0  0  0
 28 31  2  0  0  0  0
 30 32  2  0  0  0  0
  5  9  2  0  0  0  0
  8 20  1  0  0  0  0
 19 21  1  0  0  0  0
 31 32  1  0  0  0  0
 17 27  1  0  0  0  0
M  END
> <MOLFORMULA>
C25 H26 Cl N3 O3

> <MOLWEIGHT>
4.519514000000000e+002

> <IDNUMBER>
AN-153/I262613

> <PRICE>
EUR 130/10 mg

> <Similarity score>
0.18

$$$$

  -OEChem-04222410502D

 27 30  0     0  0  0  0  0  0999 V2000
    2.5083  -11.6167    0.0000 N   0  0  0  0  0  0  0  0  0  0  0  0
    1.8542  -12.7417    0.0000 C   0  0  0  0  0  0  0  0  0  0  0  0
    2.5042  -12.3667    0.0000 C   0  0  0  0  0  0  0  0  0  0  0  0
    1.2000  -14.6125    0.0000 N   0  3  0  0  0  0  0  0  0  0  0  0
    1.2042   -9.3542    0.0000 N   0  3  0  0  0  0  0  0  0  0  0  0
    1.8542  -11.2417    0.0000 C   0  0  0  0  0  0  0  0  0  0  0  0
    1.2042  -12.3667    0.0000 C   0  0  0  0  0  0  0  0  0  0  0  0
    1.2042  -11.6167    0.0000 C   0  0  0  0  0  0  0  0  0  0  0  0
    1.8542  -13.4917    0.0000 C   0  0  0  0  0  0  0  0  0  0  0  0
    1.2042  -13.8625    0.0000 C   0  0  0  0  0  0  0  0  0  0  0  0
    1.2042  -10.1042    0.0000 C   0  0  0  0  0  0  0  0  0  0  0  0
    1.8542  -10.4875    0.0000 C   0  0  0  0  0  0  0  0  0  0  0  0
    3.1542  -12.7500    0.0000 C   0  0  0  0  0  0  0  0  0  0  0  0
    0.5542  -12.7375    0.0000 C   0  0  0  0  0  0  0  0  0  0  0  0
    0.5542  -11.2375    0.0000 C   0  0  0  0  0  0  0  0  0  0  0  0
    0.5500  -14.9875    0.0000 O   0  5  0  0  0  0  0  0  0  0  0  0
    1.8542   -8.9792    0.0000 O   0  5  0  0  0  0  0  0  0  0  0  0
    1.8500  -14.9917    0.0000 O   0  0  0  0  0  0  0  0  0  0  0  0
    0.5542   -8.9792    0.0000 O   0  0  0  0  0  0  0  0  0  0  0  0
    0.5542  -13.4875    0.0000 C   0  0  0  0  0  0  0  0  0  0  0  0
    3.1542  -13.5000    0.0000 C   0  0  0  0  0  0  0  0  0  0  0  0
    0.5542  -10.4875    0.0000 C   0  0  0  0  0  0  0  0  0  0  0  0
    3.8042  -13.8750    0.0000 C   0  0  0  0  0  0  0  0  0  0  0  0
    3.8000  -14.6250    0.0000 O   0  0  0  0  0  0  0  0  0  0  0  0
    3.8042  -12.3750    0.0000 C   0  0  0  0  0  0  0  0  0  0  0  0
    4.4542  -12.7542    0.0000 C   0  0  0  0  0  0  0  0  0  0  0  0
    4.4542  -13.5042    0.0000 C   0  0  0  0  0  0  0  0  0  0  0  0
  2  3  1  0  0  0  0
  1  3  2  0  0  0  0
  4 10  1  0  0  0  0
  5 11  1  0  0  0  0
  1  6  1  0  0  0  0
  7  8  1  0  0  0  0
  6  8  1  0  0  0  0
  2  9  1  0  0  0  0
  9 10  2  0  0  0  0
 11 12  1  0  0  0  0
  6 12  2  0  0  0  0
  3 13  1  0  0  0  0
  7 14  1  0  0  0  0
  8 15  2  0  0  0  0
  4 16  1  0  0  0  0
  5 17  1  0  0  0  0
  4 18  2  0  0  0  0
  5 19  2  0  0  0  0
 14 20  2  0  0  0  0
 13 21  1  0  0  0  0
 11 22  2  0  0  0  0
 21 23  2  0  0  0  0
 23 24  1  0  0  0  0
 13 25  2  0  0  0  0
 25 26  1  0  0  0  0
 26 27  2  0  0  0  0
  2  7  2  0  0  0  0
 15 22  1  0  0  0  0
 10 20  1  0  0  0  0
 23 27  1  0  0  0  0
M  CHG  4   4   1   5   1  16  -1  17  -1
M  END
> <MOLFORMULA>
C19 H11 N3 O5

> <MOLWEIGHT>
3.613119000000000e+002

> <IDNUMBER>
AT-225/NB32526

> <PRICE>
EUR 140/10 mg

> <Similarity score>
0.18

$$$$

  -OEChem-04222410502D

 37 41  0     0  0  0  0  0  0999 V2000
    0.9958    2.6000    0.0000 C   0  0  0  0  0  0  0  0  0  0  0  0
    0.4958    3.4667    0.0000 C   0  0  0  0  0  0  0  0  0  0  0  0
    2.0000    2.6000    0.0000 C   0  0  0  0  0  0  0  0  0  0  0  0
    0.4958    1.7333    0.0000 N   0  0  3  0  0  0  0  0  0  0  0  0
    0.9958    4.3292    0.0000 C   0  0  0  0  0  0  0  0  0  0  0  0
    2.5000    3.4667    0.0000 N   0  0  0  0  0  0  0  0  0  0  0  0
    0.9958   -0.8625    0.0000 C   0  0  0  0  0  0  0  0  0  0  0  0
    0.4958    0.0042    0.0000 C   0  0  3  0  0  0  0  0  0  0  0  0
    2.0000    4.3292    0.0000 C   0  0  0  0  0  0  0  0  0  0  0  0
    0.4958   -1.7292    0.0000 N   0  0  3  0  0  0  0  0  0  0  0  0
   -0.5042   -3.4625    0.0000 N   0  0  3  0  0  0  0  0  0  0  0  0
   -1.0042   -4.3292    0.0000 C   0  0  0  0  0  0  0  0  0  0  0  0
    0.9958    0.8667    0.0000 C   0  0  0  0  0  0  0  0  0  0  0  0
    0.4958    5.1958    0.0000 C   0  0  0  0  0  0  0  0  0  0  0  0
   -0.5042    3.4667    0.0000 C   0  0  0  0  0  0  0  0  0  0  0  0
    2.5000    1.7333    0.0000 O   0  0  0  0  0  0  0  0  0  0  0  0
   -1.0042   -2.5958    0.0000 C   0  0  0  0  0  0  0  0  0  0  0  0
    0.4958   -3.4625    0.0000 C   0  0  0  0  0  0  0  0  0  0  0  0
   -0.5042   -1.7292    0.0000 C   0  0  0  0  0  0  0  0  0  0  0  0
    0.9958   -2.5958    0.0000 C   0  0  0  0  0  0  0  0  0  0  0  0
    2.0000   -0.8625    0.0000 O   0  0  0  0  0  0  0  0  0  0  0  0
   -2.0000   -4.3292    0.0000 O   0  0  0  0  0  0  0  0  0  0  0  0
    2.5000    5.1958    0.0000 C   0  0  0  0  0  0  0  0  0  0  0  0
   -0.5042    1.7333    0.0000 C   0  0  0  0  0  0  0  0  0  0  0  0
    0.9958    6.0583    0.0000 C   0  0  0  0  0  0  0  0  0  0  0  0
   -0.5042   -5.1958    0.0000 O   0  0  0  0  0  0  0  0  0  0  0  0
   -0.5042    0.0042    0.0000 C   0  0  0  0  0  0  0  0  0  0  0  0
    2.0000    6.0583    0.0000 C   0  0  0  0  0  0  0  0  0  0  0  0
    0.4958    6.9250    0.0000 Cl  0  0  0  0  0  0  0  0  0  0  0  0
   -1.0042    0.8667    0.0000 C   0  0  0  0  0  0  0  0  0  0  0  0
   -1.0042    2.6000    0.0000 C   0  0  0  0  0  0  0  0  0  0  0  0
   -1.0042    4.3292    0.0000 C   0  0  0  0  0  0  0  0  0  0  0  0
   -1.0042   -6.0583    0.0000 C   0  0  0  0  0  0  0  0  0  0  0  0
   -0.5042   -6.9250    0.0000 C   0  0  0  0  0  0  0  0  0  0  0  0
   -2.0000    4.3292    0.0000 C   0  0  0  0  0  0  0  0  0  0  0  0
   -2.0000    2.6000    0.0000 C   0  0  0  0  0  0  0  0  0  0  0  0
   -2.5000    3.4667    0.0000 C   0  0  0  0  0  0  0  0  0  0  0  0
  1  2  2  0  0  0  0
  1  3  1  0  0  0  0
  1  4  1  0  0  0  0
  2  5  1  0  0  0  0
  3  6  1  0  0  0  0
  7  8  1  0  0  0  0
  8 13  1  0  0  0  0
  6  9  1  0  0  0  0
  7 10  1  0  0  0  0
 11 18  1  0  0  0  0
 11 12  1  0  0  0  0
  4 13  1  0  0  0  0
  5 14  1  0  0  0  0
  2 15  1  0  0  0  0
  3 16  2  0  0  0  0
 17 19  1  0  0  0  0
 18 20  1  0  0  0  0
 10 19  1  0  0  0  0
 10 20  1  0  0  0  0
  7 21  2  0  0  0  0
 12 22  2  0  0  0  0
  9 23  1  0  0  0  0
  4 24  1  0  0  0  0
 14 25  2  0  0  0  0
 12 26  1  0  0  0  0
 27 30  1  0  0  0  0
 23 28  2  0  0  0  0
 25 29  1  0  0  0  0
 24 30  1  0  0  0  0
 15 31  2  0  0  0  0
 15 32  1  0  0  0  0
 26 33  1  0  0  0  0
 33 34  1  0  0  0  0
 32 35  2  0  0  0  0
 31 36  1  0  0  0  0
 35 37  1  0  0  0  0
  5  9  2  0  0  0  0
  8 27  1  0  0  0  0
 25 28  1  0  0  0  0
 36 37  2  0  0  0  0
 11 17  1  0  0  0  0
M  END
> <MOLFORMULA>
C28 H31 Cl N4 O4

> <MOLWEIGHT>
5.230299000000000e+002

> <IDNUMBER>
AN-153/I262625

> <PRICE>
EUR 130/10 mg

> <Similarity score>
0.18

$$$$

  -OEChem-04222410502D

 34 38  0     0  0  0  0  0  0999 V2000
   -3.3208    2.1875    0.0000 C   0  0  0  0  0  0  0  0  0  0  0  0
   -3.3125    1.3583    0.0000 C   0  0  0  0  0  0  0  0  0  0  0  0
   -1.8833    2.1875    0.0000 C   0  0  0  0  0  0  0  0  0  0  0  0
   -2.6083    2.6083    0.0000 N   0  0  0  0  0  0  0  0  0  0  0  0
   -1.8833    1.3583    0.0000 N   0  0  0  0  0  0  0  0  0  0  0  0
   -4.1000    2.4333    0.0000 C   0  0  0  0  0  0  0  0  0  0  0  0
   -2.6000    0.9458    0.0000 C   0  0  0  0  0  0  0  0  0  0  0  0
   -4.0958    1.1000    0.0000 S   0  0  0  0  0  0  0  0  0  0  0  0
   -1.1708    2.6000    0.0000 N   0  0  3  0  0  0  0  0  0  0  0  0
   -4.5833    1.7708    0.0000 C   0  0  0  0  0  0  0  0  0  0  0  0
    0.9750    2.1750    0.0000 C   0  0  0  0  0  0  0  0  0  0  0  0
    0.2542    2.5958    0.0000 C   0  0  3  0  0  0  0  0  0  0  0  0
   -4.3625    3.2208    0.0000 C   0  0  0  0  0  0  0  0  0  0  0  0
   -0.4583    2.1833    0.0000 C   0  0  0  0  0  0  0  0  0  0  0  0
    1.6917    2.5875    0.0000 N   0  0  0  0  0  0  0  0  0  0  0  0
   -2.6000    0.1208    0.0000 O   0  0  0  0  0  0  0  0  0  0  0  0
    0.9667    1.3500    0.0000 O   0  0  0  0  0  0  0  0  0  0  0  0
   -5.1708    3.3958    0.0000 C   0  0  0  0  0  0  0  0  0  0  0  0
    2.4042    2.1708    0.0000 C   0  0  3  0  0  0  0  0  0  0  0  0
   -5.4333    4.1667    0.0000 C   0  0  0  0  0  0  0  0  0  0  0  0
   -1.1708    3.4208    0.0000 C   0  0  0  0  0  0  0  0  0  0  0  0
    0.2625    3.4208    0.0000 C   0  0  0  0  0  0  0  0  0  0  0  0
    2.4000    1.3458    0.0000 C   0  0  0  0  0  0  0  0  0  0  0  0
    3.1250    2.5833    0.0000 C   0  0  0  0  0  0  0  0  0  0  0  0
    3.8375    2.1708    0.0000 C   0  0  0  0  0  0  0  0  0  0  0  0
    3.1125    0.9333    0.0000 C   0  0  0  0  0  0  0  0  0  0  0  0
   -3.8083    3.8375    0.0000 C   0  0  0  0  0  0  0  0  0  0  0  0
    3.8375    1.3375    0.0000 C   0  0  3  0  0  0  0  0  0  0  0  0
   -6.2167    4.3375    0.0000 O   0  0  0  0  0  0  0  0  0  0  0  0
   -0.4583    3.8333    0.0000 C   0  0  0  0  0  0  0  0  0  0  0  0
   -4.0708    4.6167    0.0000 C   0  0  0  0  0  0  0  0  0  0  0  0
   -4.8750    4.7792    0.0000 C   0  0  0  0  0  0  0  0  0  0  0  0
   -6.7792    3.7333    0.0000 C   0  0  0  0  0  0  0  0  0  0  0  0
    4.5500    0.9208    0.0000 C   0  0  0  0  0  0  0  0  0  0  0  0
  1  2  2  0  0  0  0
  3  4  2  0  0  0  0
  1  4  1  0  0  0  0
  3  5  1  0  0  0  0
  1  6  1  0  0  0  0
  2  7  1  0  0  0  0
  2  8  1  0  0  0  0
  3  9  1  0  0  0  0
  6 10  2  0  0  0  0
 11 12  1  0  0  0  0
 12 14  1  0  0  0  0
  6 13  1  0  0  0  0
  9 14  1  0  0  0  0
 11 15  1  0  0  0  0
  7 16  2  0  0  0  0
 11 17  2  0  0  0  0
 13 18  2  0  0  0  0
 15 19  1  0  0  0  0
 18 20  1  0  0  0  0
  9 21  1  0  0  0  0
 22 30  1  0  0  0  0
 19 23  1  0  0  0  0
 19 24  1  0  0  0  0
 24 25  1  0  0  0  0
 23 26  1  0  0  0  0
 13 27  1  0  0  0  0
 25 28  1  0  0  0  0
 20 29  1  0  0  0  0
 21 30  1  0  0  0  0
 27 31  2  0  0  0  0
 31 32  1  0  0  0  0
 29 33  1  0  0  0  0
 28 34  1  0  0  0  0
  8 10  1  0  0  0  0
  5  7  1  0  0  0  0
 20 32  2  0  0  0  0
 12 22  1  0  0  0  0
 26 28  1  0  0  0  0
M  END
> <MOLFORMULA>
C26 H32 N4 O3 S

> <MOLWEIGHT>
4.806298000000000e+002

> <IDNUMBER>
AT-687/PE26004

> <PRICE>
EUR 80/10 mg

> <Similarity score>
0.18

$$$$

  -OEChem-04222410502D

 38 43  0     0  0  0  0  0  0999 V2000
    1.0000    2.1667    0.0000 C   0  0  0  0  0  0  0  0  0  0  0  0
    0.5000    3.0333    0.0000 C   0  0  0  0  0  0  0  0  0  0  0  0
    2.0000    2.1667    0.0000 C   0  0  0  0  0  0  0  0  0  0  0  0
    0.5000    1.3000    0.0000 N   0  0  3  0  0  0  0  0  0  0  0  0
    1.0000    3.9000    0.0000 C   0  0  0  0  0  0  0  0  0  0  0  0
    2.5000    3.0333    0.0000 N   0  0  0  0  0  0  0  0  0  0  0  0
    1.0000   -1.2958    0.0000 C   0  0  0  0  0  0  0  0  0  0  0  0
    0.5000   -0.4292    0.0000 C   0  0  3  0  0  0  0  0  0  0  0  0
    2.0000    3.9000    0.0000 C   0  0  0  0  0  0  0  0  0  0  0  0
   -1.0000   -4.7625    0.0000 C   0  0  0  0  0  0  0  0  0  0  0  0
    0.5000   -2.1625    0.0000 N   0  0  3  0  0  0  0  0  0  0  0  0
   -0.5000   -3.8958    0.0000 N   0  0  3  0  0  0  0  0  0  0  0  0
    1.0000    0.4333    0.0000 C   0  0  0  0  0  0  0  0  0  0  0  0
   -2.0042   -4.7625    0.0000 N   0  0  0  0  0  0  0  0  0  0  0  0
   -0.5000   -5.6292    0.0000 N   0  0  0  0  0  0  0  0  0  0  0  0
    0.5000    4.7625    0.0000 C   0  0  0  0  0  0  0  0  0  0  0  0
   -0.5000    3.0333    0.0000 C   0  0  0  0  0  0  0  0  0  0  0  0
    2.5000    1.3000    0.0000 O   0  0  0  0  0  0  0  0  0  0  0  0
   -0.5000   -2.1625    0.0000 C   0  0  0  0  0  0  0  0  0  0  0  0
    1.0000   -3.0292    0.0000 C   0  0  0  0  0  0  0  0  0  0  0  0
    0.5000   -3.8958    0.0000 C   0  0  0  0  0  0  0  0  0  0  0  0
   -1.0000   -3.0292    0.0000 C   0  0  0  0  0  0  0  0  0  0  0  0
    2.0000   -1.2958    0.0000 O   0  0  0  0  0  0  0  0  0  0  0  0
    2.5000    4.7625    0.0000 C   0  0  0  0  0  0  0  0  0  0  0  0
   -0.5000    1.3000    0.0000 C   0  0  0  0  0  0  0  0  0  0  0  0
    1.0000    5.6250    0.0000 C   0  0  0  0  0  0  0  0  0  0  0  0
   -0.5000   -0.4292    0.0000 C   0  0  0  0  0  0  0  0  0  0  0  0
    2.0000    5.6250    0.0000 C   0  0  0  0  0  0  0  0  0  0  0  0
    0.5000    6.4917    0.0000 Cl  0  0  0  0  0  0  0  0  0  0  0  0
   -2.0042   -6.4917    0.0000 C   0  0  0  0  0  0  0  0  0  0  0  0
   -2.5000   -5.6292    0.0000 C   0  0  0  0  0  0  0  0  0  0  0  0
   -1.0000   -6.4917    0.0000 C   0  0  0  0  0  0  0  0  0  0  0  0
   -1.0000    0.4333    0.0000 C   0  0  0  0  0  0  0  0  0  0  0  0
   -1.0000    3.9000    0.0000 C   0  0  0  0  0  0  0  0  0  0  0  0
   -1.0000    2.1667    0.0000 C   0  0  0  0  0  0  0  0  0  0  0  0
   -2.0042    3.9000    0.0000 C   0  0  0  0  0  0  0  0  0  0  0  0
   -2.0042    2.1667    0.0000 C   0  0  0  0  0  0  0  0  0  0  0  0
   -2.5000    3.0333    0.0000 C   0  0  0  0  0  0  0  0  0  0  0  0
  1  2  2  0  0  0  0
  1  3  1  0  0  0  0
  1  4  1  0  0  0  0
  2  5  1  0  0  0  0
  3  6  1  0  0  0  0
  7  8  1  0  0  0  0
  8 13  1  0  0  0  0
  6  9  1  0  0  0  0
 10 12  1  0  0  0  0
  7 11  1  0  0  0  0
 12 21  1  0  0  0  0
  4 13  1  0  0  0  0
 10 14  1  0  0  0  0
 10 15  2  0  0  0  0
  5 16  1  0  0  0  0
  2 17  1  0  0  0  0
  3 18  2  0  0  0  0
 11 19  1  0  0  0  0
 11 20  1  0  0  0  0
 20 21  1  0  0  0  0
 19 22  1  0  0  0  0
  7 23  2  0  0  0  0
  9 24  1  0  0  0  0
  4 25  1  0  0  0  0
 16 26  2  0  0  0  0
 27 33  1  0  0  0  0
 24 28  2  0  0  0  0
 26 29  1  0  0  0  0
 30 32  2  0  0  0  0
 14 31  2  0  0  0  0
 15 32  1  0  0  0  0
 25 33  1  0  0  0  0
 17 34  2  0  0  0  0
 17 35  1  0  0  0  0
 34 36  1  0  0  0  0
 35 37  2  0  0  0  0
 37 38  1  0  0  0  0
  5  9  2  0  0  0  0
  8 27  1  0  0  0  0
 26 28  1  0  0  0  0
 36 38  2  0  0  0  0
 12 22  1  0  0  0  0
 30 31  1  0  0  0  0
M  END
> <MOLFORMULA>
C29 H29 Cl N6 O2

> <MOLWEIGHT>
5.290411000000000e+002

> <IDNUMBER>
AN-153/I262620

> <PRICE>
EUR 130/10 mg

> <Similarity score>
0.18

$$$$

  -OEChem-04222410502D

 26 29  0     0  0  0  0  0  0999 V2000
   -1.7083   -1.4750    0.0000 C   0  0  0  0  0  0  0  0  0  0  0  0
   -0.9875   -1.0625    0.0000 C   0  0  0  0  0  0  0  0  0  0  0  0
   -0.2333   -1.3917    0.0000 N   0  0  0  0  0  0  0  0  0  0  0  0
   -1.7083   -2.3042    0.0000 C   0  0  0  0  0  0  0  0  0  0  0  0
   -2.4333   -2.7167    0.0000 O   0  0  0  0  0  0  0  0  0  0  0  0
   -2.4250   -1.0542    0.0000 C   0  0  0  0  0  0  0  0  0  0  0  0
   -0.9000   -0.2375    0.0000 N   0  0  0  0  0  0  0  0  0  0  0  0
   -3.1458   -1.4750    0.0000 C   0  0  0  0  0  0  0  0  0  0  0  0
   -3.1458   -2.3042    0.0000 C   0  0  0  0  0  0  0  0  0  0  0  0
    0.3167   -0.7792    0.0000 C   0  0  0  0  0  0  0  0  0  0  0  0
   -0.0958   -0.0667    0.0000 C   0  0  0  0  0  0  0  0  0  0  0  0
   -4.5708   -2.3042    0.0000 N   0  0  0  0  0  0  0  0  0  0  0  0
    2.3792   -0.0792    0.0000 C   0  0  0  0  0  0  0  0  0  0  0  0
    1.5542   -0.0750    0.0000 C   0  0  0  0  0  0  0  0  0  0  0  0
   -3.8583   -1.0625    0.0000 C   0  0  0  0  0  0  0  0  0  0  0  0
    1.1375   -0.7875    0.0000 C   0  0  0  0  0  0  0  0  0  0  0  0
   -3.8583   -2.7167    0.0000 C   0  0  0  0  0  0  0  0  0  0  0  0
   -0.9958   -2.7250    0.0000 O   0  0  0  0  0  0  0  0  0  0  0  0
   -4.5708   -1.4750    0.0000 C   0  0  0  0  0  0  0  0  0  0  0  0
    2.7917    0.6375    0.0000 O   0  0  0  0  0  0  0  0  0  0  0  0
    0.3167    0.6458    0.0000 C   0  0  0  0  0  0  0  0  0  0  0  0
    1.1417    0.6458    0.0000 C   0  0  0  0  0  0  0  0  0  0  0  0
    2.7917   -0.7917    0.0000 O   0  0  0  0  0  0  0  0  0  0  0  0
   -3.8625   -0.2375    0.0000 C   0  0  0  0  0  0  0  0  0  0  0  0
   -3.1458    0.1750    0.0000 O   0  0  0  0  0  0  0  0  0  0  0  0
   -3.8583   -3.5417    0.0000 C   0  0  0  0  0  0  0  0  0  0  0  0
  1  2  1  0  0  0  0
  2  3  2  0  0  0  0
  1  4  1  0  0  0  0
  4  5  1  0  0  0  0
  1  6  2  0  0  0  0
  2  7  1  0  0  0  0
  6  8  1  0  0  0  0
  8  9  1  0  0  0  0
  3 10  1  0  0  0  0
  7 11  1  0  0  0  0
 12 19  2  0  0  0  0
 13 14  1  0  0  0  0
 14 16  2  0  0  0  0
  8 15  2  0  0  0  0
 10 16  1  0  0  0  0
  9 17  2  0  0  0  0
  4 18  2  0  0  0  0
 15 19  1  0  0  0  0
 13 20  2  0  0  0  0
 11 21  1  0  0  0  0
 21 22  2  0  0  0  0
 13 23  1  0  0  0  0
 15 24  1  0  0  0  0
 24 25  1  0  0  0  0
 17 26  1  0  0  0  0
  5  9  1  0  0  0  0
 10 11  2  0  0  0  0
 12 17  1  0  0  0  0
 14 22  1  0  0  0  0
M  END
> <MOLFORMULA>
C18 H13 N3 O5

> <MOLWEIGHT>
3.513167000000000e+002

> <IDNUMBER>
AT-687/SK15767

> <PRICE>
EUR 80/10 mg

> <Similarity score>
0.18

$$$$

  -OEChem-04222410502D

 35 39  0     0  0  0  0  0  0999 V2000
    0.7000    1.9750    0.0000 C   0  0  0  0  0  0  0  0  0  0  0  0
    0.8583    2.9667    0.0000 C   0  0  0  0  0  0  0  0  0  0  0  0
    1.4750    1.3458    0.0000 C   0  0  0  0  0  0  0  0  0  0  0  0
   -0.2333    1.6208    0.0000 N   0  0  3  0  0  0  0  0  0  0  0  0
    1.7917    3.3208    0.0000 C   0  0  0  0  0  0  0  0  0  0  0  0
    2.4125    1.7042    0.0000 N   0  0  0  0  0  0  0  0  0  0  0  0
    2.5667    2.6917    0.0000 C   0  0  0  0  0  0  0  0  0  0  0  0
   -1.4792   -0.7125    0.0000 C   0  0  0  0  0  0  0  0  0  0  0  0
   -1.3250    0.2750    0.0000 C   0  0  3  0  0  0  0  0  0  0  0  0
   -0.3917    0.6333    0.0000 C   0  0  0  0  0  0  0  0  0  0  0  0
   -2.4167   -1.0708    0.0000 N   0  0  0  0  0  0  0  0  0  0  0  0
    1.9458    4.3042    0.0000 C   0  0  0  0  0  0  0  0  0  0  0  0
    0.0792    3.5958    0.0000 C   0  0  0  0  0  0  0  0  0  0  0  0
    1.3208    0.3583    0.0000 O   0  0  0  0  0  0  0  0  0  0  0  0
   -0.7042   -1.3458    0.0000 O   0  0  0  0  0  0  0  0  0  0  0  0
    3.5000    3.0500    0.0000 C   0  0  0  0  0  0  0  0  0  0  0  0
   -2.5708   -2.0583    0.0000 C   0  0  0  0  0  0  0  0  0  0  0  0
   -1.0125    2.2500    0.0000 C   0  0  0  0  0  0  0  0  0  0  0  0
    2.8792    4.6625    0.0000 C   0  0  0  0  0  0  0  0  0  0  0  0
    3.6583    4.0333    0.0000 C   0  0  0  0  0  0  0  0  0  0  0  0
    3.0375    5.6542    0.0000 Cl  0  0  0  0  0  0  0  0  0  0  0  0
   -2.8833   -4.0333    0.0000 C   0  0  0  0  0  0  0  0  0  0  0  0
   -2.1000    0.9042    0.0000 C   0  0  0  0  0  0  0  0  0  0  0  0
   -3.5042   -2.4167    0.0000 C   0  0  0  0  0  0  0  0  0  0  0  0
   -1.7958   -2.6875    0.0000 C   0  0  0  0  0  0  0  0  0  0  0  0
   -1.9500   -3.6750    0.0000 C   0  0  0  0  0  0  0  0  0  0  0  0
   -3.6625   -3.4042    0.0000 C   0  0  0  0  0  0  0  0  0  0  0  0
   -1.9458    1.8917    0.0000 C   0  0  0  0  0  0  0  0  0  0  0  0
    0.2375    4.5792    0.0000 C   0  0  0  0  0  0  0  0  0  0  0  0
   -0.8542    3.2375    0.0000 C   0  0  0  0  0  0  0  0  0  0  0  0
   -3.0417   -5.0208    0.0000 C   0  0  0  0  0  0  0  0  0  0  0  0
   -2.2667   -5.6542    0.0000 C   0  0  0  0  0  0  0  0  0  0  0  0
   -1.6292    3.8667    0.0000 C   0  0  0  0  0  0  0  0  0  0  0  0
   -0.5417    5.2083    0.0000 C   0  0  0  0  0  0  0  0  0  0  0  0
   -1.4750    4.8500    0.0000 C   0  0  0  0  0  0  0  0  0  0  0  0
  1  2  2  0  0  0  0
  1  3  1  0  0  0  0
  1  4  1  0  0  0  0
  2  5  1  0  0  0  0
  3  6  1  0  0  0  0
  6  7  1  0  0  0  0
  8  9  1  0  0  0  0
  9 10  1  0  0  0  0
  4 10  1  0  0  0  0
  8 11  1  0  0  0  0
  5 12  1  0  0  0  0
  2 13  1  0  0  0  0
  3 14  2  0  0  0  0
  8 15  2  0  0  0  0
  7 16  1  0  0  0  0
 11 17  1  0  0  0  0
  4 18  1  0  0  0  0
 12 19  2  0  0  0  0
 16 20  2  0  0  0  0
 19 21  1  0  0  0  0
 22 26  1  0  0  0  0
 23 28  1  0  0  0  0
 17 24  2  0  0  0  0
 17 25  1  0  0  0  0
 25 26  2  0  0  0  0
 24 27  1  0  0  0  0
 18 28  1  0  0  0  0
 13 29  2  0  0  0  0
 13 30  1  0  0  0  0
 22 31  1  0  0  0  0
 31 32  1  0  0  0  0
 30 33  2  0  0  0  0
 29 34  1  0  0  0  0
 34 35  2  0  0  0  0
  5  7  2  0  0  0  0
  9 23  1  0  0  0  0
 19 20  1  0  0  0  0
 33 35  1  0  0  0  0
 22 27  2  0  0  0  0
M  END
> <MOLFORMULA>
C29 H28 Cl N3 O2

> <MOLWEIGHT>
4.860122000000000e+002

> <IDNUMBER>
AN-153/MD17197

> <SALTDATA>
HCl

> <PRICE>
EUR 130/10 mg

> <Similarity score>
0.18

$$$$

  -OEChem-04222410502D

 31 35  0     0  0  0  0  0  0999 V2000
   -1.8958    0.7750    0.0000 C   0  0  0  0  0  0  0  0  0  0  0  0
   -1.0958    0.9458    0.0000 C   0  0  0  0  0  0  0  0  0  0  0  0
   -2.5625    1.2583    0.0000 O   0  0  0  0  0  0  0  0  0  0  0  0
   -2.1583   -0.0042    0.0000 C   0  0  0  0  0  0  0  0  0  0  0  0
   -0.8333    1.7250    0.0000 N   0  0  3  0  0  0  0  0  0  0  0  0
   -2.9750   -0.0125    0.0000 C   0  0  0  0  0  0  0  0  0  0  0  0
   -3.2333    0.7708    0.0000 C   0  0  0  0  0  0  0  0  0  0  0  0
    0.2292    2.6750    0.0000 C   0  0  3  0  0  0  0  0  0  0  0  0
   -0.5458    0.3333    0.0000 N   0  0  0  0  0  0  0  0  0  0  0  0
   -0.0250    1.8958    0.0000 C   0  0  0  0  0  0  0  0  0  0  0  0
    1.0375    2.8458    0.0000 C   0  0  0  0  0  0  0  0  0  0  0  0
   -1.6083   -0.6167    0.0000 N   0  0  0  0  0  0  0  0  0  0  0  0
   -0.8000   -0.4542    0.0000 C   0  0  0  0  0  0  0  0  0  0  0  0
    1.5875    2.2333    0.0000 O   0  0  0  0  0  0  0  0  0  0  0  0
    1.2917    3.6333    0.0000 N   0  0  0  0  0  0  0  0  0  0  0  0
   -1.3875    2.3375    0.0000 C   0  0  0  0  0  0  0  0  0  0  0  0
   -0.3208    3.2958    0.0000 C   0  0  0  0  0  0  0  0  0  0  0  0
   -3.5250   -0.6167    0.0000 C   0  0  0  0  0  0  0  0  0  0  0  0
   -4.0333    0.9458    0.0000 C   0  0  0  0  0  0  0  0  0  0  0  0
    4.0000    2.7375    0.0000 C   0  0  0  0  0  0  0  0  0  0  0  0
   -1.1250    3.1250    0.0000 C   0  0  0  0  0  0  0  0  0  0  0  0
    2.0917    3.8000    0.0000 C   0  0  0  0  0  0  0  0  0  0  0  0
    3.4500    3.3458    0.0000 C   0  0  0  0  0  0  0  0  0  0  0  0
    4.8042    2.8958    0.0000 C   0  0  0  0  0  0  0  0  0  0  0  0
    3.7375    1.9583    0.0000 C   0  0  0  0  0  0  0  0  0  0  0  0
    2.6417    3.1875    0.0000 C   0  0  0  0  0  0  0  0  0  0  0  0
   -4.3333   -0.4500    0.0000 C   0  0  0  0  0  0  0  0  0  0  0  0
   -4.5833    0.3333    0.0000 C   0  0  0  0  0  0  0  0  0  0  0  0
    4.2792    1.3458    0.0000 C   0  0  0  0  0  0  0  0  0  0  0  0
    5.3500    2.2833    0.0000 C   0  0  0  0  0  0  0  0  0  0  0  0
    5.0875    1.5083    0.0000 C   0  0  0  0  0  0  0  0  0  0  0  0
  1  2  1  0  0  0  0
  1  3  1  0  0  0  0
  1  4  2  0  0  0  0
  2  5  1  0  0  0  0
  4  6  1  0  0  0  0
  3  7  1  0  0  0  0
  8 10  1  0  0  0  0
  2  9  2  0  0  0  0
  5 10  1  0  0  0  0
  8 11  1  0  0  0  0
  4 12  1  0  0  0  0
 12 13  2  0  0  0  0
 11 14  2  0  0  0  0
 11 15  1  0  0  0  0
  5 16  1  0  0  0  0
 17 21  1  0  0  0  0
  6 18  1  0  0  0  0
  7 19  1  0  0  0  0
 20 23  1  0  0  0  0
 16 21  1  0  0  0  0
 15 22  1  0  0  0  0
 23 26  1  0  0  0  0
 20 24  2  0  0  0  0
 20 25  1  0  0  0  0
 22 26  1  0  0  0  0
 18 27  2  0  0  0  0
 19 28  2  0  0  0  0
 25 29  2  0  0  0  0
 24 30  1  0  0  0  0
 29 31  1  0  0  0  0
  6  7  2  0  0  0  0
  9 13  1  0  0  0  0
 27 28  1  0  0  0  0
  8 17  1  0  0  0  0
 30 31  2  0  0  0  0
M  END
> <MOLFORMULA>
C25 H26 N4 O2

> <MOLWEIGHT>
4.145064000000000e+002

> <IDNUMBER>
AT-687/PE16784

> <PRICE>
EUR 80/10 mg

> <Similarity score>
0.18

$$$$

  -OEChem-04222410502D

 32 36  0     0  0  0  0  0  0999 V2000
   -3.3208    2.1875    0.0000 C   0  0  0  0  0  0  0  0  0  0  0  0
   -3.3125    1.3583    0.0000 C   0  0  0  0  0  0  0  0  0  0  0  0
   -1.8833    2.1875    0.0000 C   0  0  0  0  0  0  0  0  0  0  0  0
   -2.6083    2.6083    0.0000 N   0  0  0  0  0  0  0  0  0  0  0  0
   -1.8833    1.3583    0.0000 N   0  0  0  0  0  0  0  0  0  0  0  0
   -4.1000    2.4333    0.0000 C   0  0  0  0  0  0  0  0  0  0  0  0
   -2.6000    0.9458    0.0000 C   0  0  0  0  0  0  0  0  0  0  0  0
   -4.0958    1.1000    0.0000 S   0  0  0  0  0  0  0  0  0  0  0  0
   -1.1708    2.6000    0.0000 N   0  0  3  0  0  0  0  0  0  0  0  0
   -4.5833    1.7708    0.0000 C   0  0  0  0  0  0  0  0  0  0  0  0
    0.9750    2.1750    0.0000 C   0  0  0  0  0  0  0  0  0  0  0  0
    0.2542    2.5958    0.0000 C   0  0  3  0  0  0  0  0  0  0  0  0
   -4.3625    3.2208    0.0000 C   0  0  0  0  0  0  0  0  0  0  0  0
   -0.4583    2.1833    0.0000 C   0  0  0  0  0  0  0  0  0  0  0  0
    1.6917    2.5875    0.0000 N   0  0  0  0  0  0  0  0  0  0  0  0
   -2.6000    0.1208    0.0000 O   0  0  0  0  0  0  0  0  0  0  0  0
    0.9667    1.3500    0.0000 O   0  0  0  0  0  0  0  0  0  0  0  0
   -5.1708    3.3958    0.0000 C   0  0  0  0  0  0  0  0  0  0  0  0
   -5.4333    4.1667    0.0000 C   0  0  0  0  0  0  0  0  0  0  0  0
   -1.1708    3.4208    0.0000 C   0  0  0  0  0  0  0  0  0  0  0  0
    2.4042    2.1708    0.0000 C   0  0  3  0  0  0  0  0  0  0  0  0
    0.2625    3.4208    0.0000 C   0  0  0  0  0  0  0  0  0  0  0  0
   -3.8083    3.8375    0.0000 C   0  0  0  0  0  0  0  0  0  0  0  0
   -6.2167    4.3375    0.0000 O   0  0  0  0  0  0  0  0  0  0  0  0
   -0.4583    3.8333    0.0000 C   0  0  0  0  0  0  0  0  0  0  0  0
   -4.0708    4.6167    0.0000 C   0  0  0  0  0  0  0  0  0  0  0  0
   -4.8750    4.7792    0.0000 C   0  0  0  0  0  0  0  0  0  0  0  0
   -6.7792    3.7333    0.0000 C   0  0  0  0  0  0  0  0  0  0  0  0
    2.4917    1.3458    0.0000 C   0  0  0  0  0  0  0  0  0  0  0  0
    3.1625    2.5083    0.0000 C   0  0  0  0  0  0  0  0  0  0  0  0
    3.7125    1.8833    0.0000 C   0  0  0  0  0  0  0  0  0  0  0  0
    3.3042    1.1750    0.0000 C   0  0  0  0  0  0  0  0  0  0  0  0
  1  2  2  0  0  0  0
  3  4  2  0  0  0  0
  1  4  1  0  0  0  0
  3  5  1  0  0  0  0
  1  6  1  0  0  0  0
  2  7  1  0  0  0  0
  2  8  1  0  0  0  0
  3  9  1  0  0  0  0
  6 10  2  0  0  0  0
 11 12  1  0  0  0  0
 12 14  1  0  0  0  0
  6 13  1  0  0  0  0
  9 14  1  0  0  0  0
 11 15  1  0  0  0  0
  7 16  2  0  0  0  0
 11 17  2  0  0  0  0
 13 18  2  0  0  0  0
 18 19  1  0  0  0  0
  9 20  1  0  0  0  0
 15 21  1  0  0  0  0
 22 25  1  0  0  0  0
 13 23  1  0  0  0  0
 19 24  1  0  0  0  0
 20 25  1  0  0  0  0
 23 26  2  0  0  0  0
 26 27  1  0  0  0  0
 24 28  1  0  0  0  0
 21 29  1  0  0  0  0
 21 30  1  0  0  0  0
 30 31  1  0  0  0  0
 29 32  1  0  0  0  0
  8 10  1  0  0  0  0
  5  7  1  0  0  0  0
 19 27  2  0  0  0  0
 12 22  1  0  0  0  0
 31 32  1  0  0  0  0
M  END
> <MOLFORMULA>
C24 H28 N4 O3 S

> <MOLWEIGHT>
4.525762000000000e+002

> <IDNUMBER>
AT-687/PE26002

> <PRICE>
EUR 80/10 mg

> <Similarity score>
0.18

$$$$

  -OEChem-04222410502D

 26 30  0     0  0  0  0  0  0999 V2000
    3.8750   -0.1042    0.0000 C   0  0  0  0  0  0  0  0  0  0  0  0
    4.9125   -0.1042    0.0000 N   0  0  3  0  0  0  0  0  0  0  0  0
    4.9125    0.4958    0.0000 C   0  0  0  0  0  0  0  0  0  0  0  0
    4.3917    0.7958    0.0000 C   0  0  0  0  0  0  0  0  0  0  0  0
    3.8750    0.4958    0.0000 C   0  0  0  0  0  0  0  0  0  0  0  0
    5.4292    0.7958    0.0000 C   0  0  0  0  0  0  0  0  0  0  0  0
    4.3917   -0.4042    0.0000 C   0  0  0  0  0  0  0  0  0  0  0  0
    3.3542   -0.4042    0.0000 C   0  0  0  0  0  0  0  0  0  0  0  0
    5.9542    0.4958    0.0000 C   0  0  0  0  0  0  0  0  0  0  0  0
    5.4292    1.3958    0.0000 C   0  0  0  0  0  0  0  0  0  0  0  0
    6.4667    0.7958    0.0000 C   0  0  0  0  0  0  0  0  0  0  0  0
    6.4667    1.3958    0.0000 C   0  0  0  0  0  0  0  0  0  0  0  0
    4.3917    1.3958    0.0000 C   0  0  0  0  0  0  0  0  0  0  0  0
    3.3542    0.7958    0.0000 C   0  0  0  0  0  0  0  0  0  0  0  0
    5.9542    1.6958    0.0000 C   0  0  0  0  0  0  0  0  0  0  0  0
    7.0417    0.6083    0.0000 O   0  0  0  0  0  0  0  0  0  0  0  0
    7.0417    1.5833    0.0000 O   0  0  0  0  0  0  0  0  0  0  0  0
    2.8375   -0.1042    0.0000 C   0  0  0  0  0  0  0  0  0  0  0  0
    7.3917    1.0958    0.0000 C   0  0  0  0  0  0  0  0  0  0  0  0
    4.9125    1.6958    0.0000 C   0  0  0  0  0  0  0  0  0  0  0  0
    2.8375    0.4958    0.0000 C   0  0  0  0  0  0  0  0  0  0  0  0
    5.4292   -0.4042    0.0000 C   0  0  0  0  0  0  0  0  0  0  0  0
    3.3542   -1.0042    0.0000 O   0  0  0  0  0  0  0  0  0  0  0  0
    2.3167   -0.4042    0.0000 O   0  0  0  0  0  0  0  0  0  0  0  0
    2.8375   -1.3042    0.0000 C   0  0  0  0  0  0  0  0  0  0  0  0
    2.3167   -1.0042    0.0000 C   0  0  0  0  0  0  0  0  0  0  0  0
  2  7  1  0  0  0  0
  2  3  1  0  0  0  0
  4  5  1  0  0  0  0
  1  5  2  0  0  0  0
  3  6  1  0  0  0  0
  1  7  1  0  0  0  0
  1  8  1  0  0  0  0
  6  9  1  0  0  0  0
  6 10  2  0  0  0  0
  9 11  2  0  0  0  0
 12 15  2  0  0  0  0
  4 13  1  0  0  0  0
  5 14  1  0  0  0  0
 10 15  1  0  0  0  0
 11 16  1  0  0  0  0
 12 17  1  0  0  0  0
  8 18  2  0  0  0  0
 16 19  1  0  0  0  0
 13 20  2  0  0  0  0
 18 21  1  0  0  0  0
  2 22  1  0  0  0  0
  8 23  1  0  0  0  0
 18 24  1  0  0  0  0
 23 25  1  0  0  0  0
 24 26  1  0  0  0  0
  3  4  2  0  0  0  0
 14 21  2  0  0  0  0
 10 20  1  0  0  0  0
 11 12  1  0  0  0  0
 17 19  1  0  0  0  0
M  END
> <MOLFORMULA>
C21 H19 N O4

> <MOLWEIGHT>
3.493841000000000e+002

> <IDNUMBER>
AT-358/MD21393

> <Similarity score>
0.18

$$$$

  -OEChem-04222410502D

 35 39  0     0  0  0  0  0  0999 V2000
    0.5542    1.9250    0.0000 C   0  0  0  0  0  0  0  0  0  0  0  0
    0.2750    2.8833    0.0000 C   0  0  0  0  0  0  0  0  0  0  0  0
    1.5250    1.6833    0.0000 C   0  0  0  0  0  0  0  0  0  0  0  0
   -0.1417    1.2042    0.0000 N   0  0  3  0  0  0  0  0  0  0  0  0
    0.9708    3.6042    0.0000 C   0  0  0  0  0  0  0  0  0  0  0  0
    2.2167    2.4042    0.0000 N   0  0  0  0  0  0  0  0  0  0  0  0
    1.9375    3.3667    0.0000 C   0  0  0  0  0  0  0  0  0  0  0  0
   -0.2792   -1.4375    0.0000 C   0  0  0  0  0  0  0  0  0  0  0  0
   -0.5583   -0.4792    0.0000 C   0  0  3  0  0  0  0  0  0  0  0  0
    0.1375    0.2417    0.0000 C   0  0  0  0  0  0  0  0  0  0  0  0
   -0.9708   -2.1583    0.0000 N   0  0  0  0  0  0  0  0  0  0  0  0
    0.6917    4.5625    0.0000 C   0  0  0  0  0  0  0  0  0  0  0  0
   -0.6958    3.1250    0.0000 C   0  0  0  0  0  0  0  0  0  0  0  0
    1.8000    0.7208    0.0000 O   0  0  0  0  0  0  0  0  0  0  0  0
    0.6917   -1.6792    0.0000 O   0  0  0  0  0  0  0  0  0  0  0  0
    2.6333    4.0792    0.0000 C   0  0  0  0  0  0  0  0  0  0  0  0
   -0.6958   -3.1208    0.0000 C   0  0  0  0  0  0  0  0  0  0  0  0
   -1.1125    1.4417    0.0000 C   0  0  0  0  0  0  0  0  0  0  0  0
    1.3833    5.2833    0.0000 C   0  0  0  0  0  0  0  0  0  0  0  0
   -0.1417   -5.0417    0.0000 C   0  0  0  0  0  0  0  0  0  0  0  0
    2.3542    5.0417    0.0000 C   0  0  0  0  0  0  0  0  0  0  0  0
    1.1083    6.2417    0.0000 Cl  0  0  0  0  0  0  0  0  0  0  0  0
   -1.5292   -0.2375    0.0000 C   0  0  0  0  0  0  0  0  0  0  0  0
   -1.3875   -3.8417    0.0000 C   0  0  0  0  0  0  0  0  0  0  0  0
    0.2750   -3.3625    0.0000 C   0  0  0  0  0  0  0  0  0  0  0  0
    0.5542   -4.3208    0.0000 C   0  0  0  0  0  0  0  0  0  0  0  0
   -1.1125   -4.8000    0.0000 C   0  0  0  0  0  0  0  0  0  0  0  0
    0.1375   -6.0042    0.0000 O   0  0  0  0  0  0  0  0  0  0  0  0
   -1.8042    0.7208    0.0000 C   0  0  0  0  0  0  0  0  0  0  0  0
   -1.3875    2.4042    0.0000 C   0  0  0  0  0  0  0  0  0  0  0  0
   -0.9708    4.0792    0.0000 C   0  0  0  0  0  0  0  0  0  0  0  0
    1.1083   -6.2417    0.0000 C   0  0  0  0  0  0  0  0  0  0  0  0
   -1.9417    4.3208    0.0000 C   0  0  0  0  0  0  0  0  0  0  0  0
   -2.3583    2.6458    0.0000 C   0  0  0  0  0  0  0  0  0  0  0  0
   -2.6375    3.6042    0.0000 C   0  0  0  0  0  0  0  0  0  0  0  0
  1  2  2  0  0  0  0
  1  3  1  0  0  0  0
  1  4  1  0  0  0  0
  2  5  1  0  0  0  0
  3  6  1  0  0  0  0
  6  7  1  0  0  0  0
  8  9  1  0  0  0  0
  9 10  1  0  0  0  0
  4 10  1  0  0  0  0
  8 11  1  0  0  0  0
  5 12  1  0  0  0  0
  2 13  1  0  0  0  0
  3 14  2  0  0  0  0
  8 15  2  0  0  0  0
  7 16  1  0  0  0  0
 11 17  1  0  0  0  0
  4 18  1  0  0  0  0
 12 19  2  0  0  0  0
 20 26  1  0  0  0  0
 16 21  2  0  0  0  0
 19 22  1  0  0  0  0
 23 29  1  0  0  0  0
 17 24  2  0  0  0  0
 17 25  1  0  0  0  0
 25 26  2  0  0  0  0
 24 27  1  0  0  0  0
 20 28  1  0  0  0  0
 18 29  1  0  0  0  0
 13 30  2  0  0  0  0
 13 31  1  0  0  0  0
 28 32  1  0  0  0  0
 31 33  2  0  0  0  0
 30 34  1  0  0  0  0
 33 35  1  0  0  0  0
  5  7  2  0  0  0  0
  9 23  1  0  0  0  0
 19 21  1  0  0  0  0
 34 35  2  0  0  0  0
 20 27  2  0  0  0  0
M  END
> <MOLFORMULA>
C28 H26 Cl N3 O3

> <MOLWEIGHT>
4.879844000000000e+002

> <IDNUMBER>
AN-153/I261742

> <PRICE>
EUR 130/10 mg

> <Similarity score>
0.18

$$$$

  -OEChem-04222410502D

 28 31  0     0  0  0  0  0  0999 V2000
    0.9958   -0.0000    0.0000 C   0  0  0  0  0  0  0  0  0  0  0  0
    0.5000    0.8667    0.0000 C   0  0  0  0  0  0  0  0  0  0  0  0
    2.0000   -0.0000    0.0000 C   0  0  0  0  0  0  0  0  0  0  0  0
    0.5000   -0.8625    0.0000 N   0  0  3  0  0  0  0  0  0  0  0  0
    0.9958    1.7333    0.0000 C   0  0  0  0  0  0  0  0  0  0  0  0
    2.5000    0.8667    0.0000 N   0  0  0  0  0  0  0  0  0  0  0  0
    2.0000    1.7333    0.0000 C   0  0  0  0  0  0  0  0  0  0  0  0
    0.5000   -2.5958    0.0000 C   0  0  3  0  0  0  0  0  0  0  0  0
    0.9958   -1.7292    0.0000 C   0  0  0  0  0  0  0  0  0  0  0  0
    0.9958   -3.4625    0.0000 C   0  0  0  0  0  0  0  0  0  0  0  0
    0.5000    2.6000    0.0000 C   0  0  0  0  0  0  0  0  0  0  0  0
   -0.5000    0.8667    0.0000 C   0  0  0  0  0  0  0  0  0  0  0  0
    2.5000   -0.8625    0.0000 O   0  0  0  0  0  0  0  0  0  0  0  0
    0.5000   -4.3292    0.0000 O   0  0  0  0  0  0  0  0  0  0  0  0
    2.5000    2.6000    0.0000 C   0  0  0  0  0  0  0  0  0  0  0  0
   -0.5000   -0.8625    0.0000 C   0  0  0  0  0  0  0  0  0  0  0  0
    0.9958    3.4667    0.0000 C   0  0  0  0  0  0  0  0  0  0  0  0
    2.0000   -3.4625    0.0000 O   0  0  0  0  0  0  0  0  0  0  0  0
    2.0000    3.4667    0.0000 C   0  0  0  0  0  0  0  0  0  0  0  0
    0.5000    4.3292    0.0000 Cl  0  0  0  0  0  0  0  0  0  0  0  0
   -0.5000   -2.5958    0.0000 C   0  0  0  0  0  0  0  0  0  0  0  0
   -1.0042   -1.7292    0.0000 C   0  0  0  0  0  0  0  0  0  0  0  0
   -1.0042    1.7333    0.0000 C   0  0  0  0  0  0  0  0  0  0  0  0
   -1.0042   -0.0000    0.0000 C   0  0  0  0  0  0  0  0  0  0  0  0
    2.5000   -4.3292    0.0000 C   0  0  0  0  0  0  0  0  0  0  0  0
   -2.0000   -0.0000    0.0000 C   0  0  0  0  0  0  0  0  0  0  0  0
   -2.0000    1.7333    0.0000 C   0  0  0  0  0  0  0  0  0  0  0  0
   -2.5000    0.8667    0.0000 C   0  0  0  0  0  0  0  0  0  0  0  0
  1  2  2  0  0  0  0
  1  3  1  0  0  0  0
  1  4  1  0  0  0  0
  2  5  1  0  0  0  0
  3  6  1  0  0  0  0
  6  7  1  0  0  0  0
  8  9  1  0  0  0  0
  4  9  1  0  0  0  0
  8 10  1  0  0  0  0
  5 11  1  0  0  0  0
  2 12  1  0  0  0  0
  3 13  2  0  0  0  0
 10 14  2  0  0  0  0
  7 15  1  0  0  0  0
  4 16  1  0  0  0  0
 11 17  2  0  0  0  0
 10 18  1  0  0  0  0
 15 19  2  0  0  0  0
 17 20  1  0  0  0  0
 21 22  1  0  0  0  0
 16 22  1  0  0  0  0
 12 23  2  0  0  0  0
 12 24  1  0  0  0  0
 18 25  1  0  0  0  0
 24 26  2  0  0  0  0
 23 27  1  0  0  0  0
 26 28  1  0  0  0  0
  5  7  2  0  0  0  0
  8 21  1  0  0  0  0
 17 19  1  0  0  0  0
 27 28  2  0  0  0  0
M  END
> <MOLFORMULA>
C22 H21 Cl N2 O3

> <MOLWEIGHT>
3.968719000000000e+002

> <IDNUMBER>
AN-153/I261734

> <PRICE>
EUR 130/10 mg

> <Similarity score>
0.18

$$$$

  -OEChem-04222410502D

 34 38  0     0  0  0  0  0  0999 V2000
   -3.3208    2.1875    0.0000 C   0  0  0  0  0  0  0  0  0  0  0  0
   -3.3125    1.3583    0.0000 C   0  0  0  0  0  0  0  0  0  0  0  0
   -1.8833    2.1875    0.0000 C   0  0  0  0  0  0  0  0  0  0  0  0
   -2.6083    2.6083    0.0000 N   0  0  0  0  0  0  0  0  0  0  0  0
   -1.8833    1.3583    0.0000 N   0  0  0  0  0  0  0  0  0  0  0  0
   -2.6000    0.9458    0.0000 C   0  0  0  0  0  0  0  0  0  0  0  0
   -4.1000    2.4333    0.0000 C   0  0  0  0  0  0  0  0  0  0  0  0
   -4.0958    1.1000    0.0000 S   0  0  0  0  0  0  0  0  0  0  0  0
   -1.1708    2.6000    0.0000 N   0  0  3  0  0  0  0  0  0  0  0  0
   -4.5833    1.7708    0.0000 C   0  0  0  0  0  0  0  0  0  0  0  0
    0.2542    2.5958    0.0000 C   0  0  3  0  0  0  0  0  0  0  0  0
    0.9750    2.1750    0.0000 C   0  0  0  0  0  0  0  0  0  0  0  0
   -0.4583    2.1833    0.0000 C   0  0  0  0  0  0  0  0  0  0  0  0
    1.6917    2.5875    0.0000 N   0  0  0  0  0  0  0  0  0  0  0  0
   -4.3625    3.2208    0.0000 C   0  0  0  0  0  0  0  0  0  0  0  0
   -2.6000    0.1208    0.0000 O   0  0  0  0  0  0  0  0  0  0  0  0
    0.9667    1.3500    0.0000 O   0  0  0  0  0  0  0  0  0  0  0  0
    2.4042    2.1708    0.0000 C   0  0  0  0  0  0  0  0  0  0  0  0
   -1.1708    3.4208    0.0000 C   0  0  0  0  0  0  0  0  0  0  0  0
    3.1042    0.9333    0.0000 C   0  0  0  0  0  0  0  0  0  0  0  0
    2.4000    1.3583    0.0000 C   0  0  0  0  0  0  0  0  0  0  0  0
    3.1042    0.1125    0.0000 C   0  0  0  0  0  0  0  0  0  0  0  0
    0.2625    3.4208    0.0000 C   0  0  0  0  0  0  0  0  0  0  0  0
    3.8250   -0.3000    0.0000 O   0  0  0  0  0  0  0  0  0  0  0  0
   -0.4583    3.8333    0.0000 C   0  0  0  0  0  0  0  0  0  0  0  0
    1.6667    0.1208    0.0000 C   0  0  0  0  0  0  0  0  0  0  0  0
   -5.1708    3.3958    0.0000 C   0  0  0  0  0  0  0  0  0  0  0  0
   -3.8083    3.8375    0.0000 C   0  0  0  0  0  0  0  0  0  0  0  0
    1.6792    0.9583    0.0000 C   0  0  0  0  0  0  0  0  0  0  0  0
    2.3917   -0.3000    0.0000 C   0  0  0  0  0  0  0  0  0  0  0  0
    3.8167   -1.1292    0.0000 C   0  0  0  0  0  0  0  0  0  0  0  0
   -4.0708    4.6167    0.0000 C   0  0  0  0  0  0  0  0  0  0  0  0
   -5.4333    4.1667    0.0000 C   0  0  0  0  0  0  0  0  0  0  0  0
   -4.8750    4.7792    0.0000 C   0  0  0  0  0  0  0  0  0  0  0  0
  1  2  2  0  0  0  0
  3  4  2  0  0  0  0
  1  4  1  0  0  0  0
  3  5  1  0  0  0  0
  2  6  1  0  0  0  0
  1  7  1  0  0  0  0
  2  8  1  0  0  0  0
  3  9  1  0  0  0  0
  7 10  2  0  0  0  0
 11 13  1  0  0  0  0
 11 12  1  0  0  0  0
  9 13  1  0  0  0  0
 12 14  1  0  0  0  0
  7 15  1  0  0  0  0
  6 16  2  0  0  0  0
 12 17  2  0  0  0  0
 14 18  1  0  0  0  0
  9 19  1  0  0  0  0
 20 21  2  0  0  0  0
 18 21  1  0  0  0  0
 20 22  1  0  0  0  0
 23 25  1  0  0  0  0
 22 24  1  0  0  0  0
 19 25  1  0  0  0  0
 26 29  2  0  0  0  0
 15 27  2  0  0  0  0
 15 28  1  0  0  0  0
 21 29  1  0  0  0  0
 26 30  1  0  0  0  0
 24 31  1  0  0  0  0
 28 32  2  0  0  0  0
 27 33  1  0  0  0  0
 32 34  1  0  0  0  0
  8 10  1  0  0  0  0
  5  6  1  0  0  0  0
 33 34  2  0  0  0  0
 11 23  1  0  0  0  0
 22 30  2  0  0  0  0
M  END
> <MOLFORMULA>
C26 H26 N4 O3 S

> <MOLWEIGHT>
4.745824000000000e+002

> <IDNUMBER>
AT-687/PE25940

> <PRICE>
EUR 80/10 mg

> <Similarity score>
0.18

$$$$

  -OEChem-04222410502D

 21 25  0     0  0  0  0  0  0999 V2000
    0.4750    0.2833    0.0000 C   0  0  0  0  0  0  0  0  0  0  0  0
    0.4750    1.7833    0.0000 C   0  0  0  0  0  0  0  0  0  0  0  0
    1.7667   -0.4667    0.0000 N   0  0  0  0  0  0  0  0  0  0  0  0
   -0.8250   -0.4667    0.0000 C   0  0  0  0  0  0  0  0  0  0  0  0
   -2.1250    0.2833    0.0000 C   0  0  0  0  0  0  0  0  0  0  0  0
    3.0667    1.7833    0.0000 C   0  0  0  0  0  0  0  0  0  0  0  0
    3.0667    0.2833    0.0000 C   0  0  0  0  0  0  0  0  0  0  0  0
   -0.8250    2.5333    0.0000 C   0  0  0  0  0  0  0  0  0  0  0  0
   -3.4250   -0.4667    0.0000 C   0  0  0  0  0  0  0  0  0  0  0  0
   -2.1250    1.7833    0.0000 C   0  0  0  0  0  0  0  0  0  0  0  0
   -0.8250   -1.9667    0.0000 C   0  0  0  0  0  0  0  0  0  0  0  0
   -3.4250   -1.9667    0.0000 C   0  0  0  0  0  0  0  0  0  0  0  0
   -2.1250   -2.7167    0.0000 C   0  0  0  0  0  0  0  0  0  0  0  0
    4.3667    2.5333    0.0000 C   0  0  0  0  0  0  0  0  0  0  0  0
    4.3667   -0.4667    0.0000 C   0  0  0  0  0  0  0  0  0  0  0  0
   -4.7208    0.2833    0.0000 C   0  0  0  0  0  0  0  0  0  0  0  0
   -4.7208   -2.7167    0.0000 C   0  0  0  0  0  0  0  0  0  0  0  0
    5.6667    1.7833    0.0000 C   0  0  0  0  0  0  0  0  0  0  0  0
    5.6667    0.2833    0.0000 C   0  0  0  0  0  0  0  0  0  0  0  0
   -6.0167   -0.4667    0.0000 C   0  0  0  0  0  0  0  0  0  0  0  0
   -6.0167   -1.9667    0.0000 C   0  0  0  0  0  0  0  0  0  0  0  0
  1  2  2  0  0  0  0
  1  3  1  0  0  0  0
  1  4  1  0  0  0  0
  4  5  2  0  0  0  0
  2  6  1  0  0  0  0
  3  7  1  0  0  0  0
  2  8  1  0  0  0  0
  5  9  1  0  0  0  0
  5 10  1  0  0  0  0
  4 11  1  0  0  0  0
 12 13  1  0  0  0  0
 11 13  2  0  0  0  0
  6 14  1  0  0  0  0
  7 15  1  0  0  0  0
  9 16  1  0  0  0  0
 12 17  1  0  0  0  0
 14 18  2  0  0  0  0
 15 19  2  0  0  0  0
 16 20  2  0  0  0  0
 17 21  2  0  0  0  0
  6  7  2  0  0  0  0
  8 10  1  0  0  0  0
  9 12  2  0  0  0  0
 18 19  1  0  0  0  0
 20 21  1  0  0  0  0
M  END
> <MOLFORMULA>
C20 H15 N

> <MOLWEIGHT>
2.693455000000000e+002

> <IDNUMBER>
AT-225/NB98225

> <PRICE>
EUR 140/10 mg

> <Similarity score>
0.18

$$$$

  -OEChem-04222410502D

 27 30  0     0  0  0  0  0  0999 V2000
    1.0000   -0.0000    0.0000 C   0  0  0  0  0  0  0  0  0  0  0  0
    0.5000    0.8667    0.0000 C   0  0  0  0  0  0  0  0  0  0  0  0
    2.0000   -0.0000    0.0000 C   0  0  0  0  0  0  0  0  0  0  0  0
    0.5000   -0.8625    0.0000 N   0  0  3  0  0  0  0  0  0  0  0  0
    1.0000    1.7333    0.0000 C   0  0  0  0  0  0  0  0  0  0  0  0
    2.5000    0.8667    0.0000 N   0  0  0  0  0  0  0  0  0  0  0  0
    2.0000    1.7333    0.0000 C   0  0  0  0  0  0  0  0  0  0  0  0
    0.5000   -2.5958    0.0000 C   0  0  3  0  0  0  0  0  0  0  0  0
    1.0000   -1.7292    0.0000 C   0  0  0  0  0  0  0  0  0  0  0  0
    1.0000   -3.4625    0.0000 C   0  0  0  0  0  0  0  0  0  0  0  0
    0.5000    2.6000    0.0000 C   0  0  0  0  0  0  0  0  0  0  0  0
   -0.5000    0.8667    0.0000 C   0  0  0  0  0  0  0  0  0  0  0  0
    2.5000   -0.8625    0.0000 O   0  0  0  0  0  0  0  0  0  0  0  0
    0.5000   -4.3292    0.0000 O   0  0  0  0  0  0  0  0  0  0  0  0
    2.5000    2.6000    0.0000 C   0  0  0  0  0  0  0  0  0  0  0  0
   -0.5000   -0.8625    0.0000 C   0  0  0  0  0  0  0  0  0  0  0  0
    1.0000    3.4667    0.0000 C   0  0  0  0  0  0  0  0  0  0  0  0
    2.0000   -3.4625    0.0000 O   0  0  0  0  0  0  0  0  0  0  0  0
    2.0000    3.4667    0.0000 C   0  0  0  0  0  0  0  0  0  0  0  0
    0.5000    4.3292    0.0000 Cl  0  0  0  0  0  0  0  0  0  0  0  0
   -0.5000   -2.5958    0.0000 C   0  0  0  0  0  0  0  0  0  0  0  0
   -1.0000   -1.7292    0.0000 C   0  0  0  0  0  0  0  0  0  0  0  0
   -1.0000   -0.0000    0.0000 C   0  0  0  0  0  0  0  0  0  0  0  0
   -1.0000    1.7333    0.0000 C   0  0  0  0  0  0  0  0  0  0  0  0
   -2.0000    1.7333    0.0000 C   0  0  0  0  0  0  0  0  0  0  0  0
   -2.0000   -0.0000    0.0000 C   0  0  0  0  0  0  0  0  0  0  0  0
   -2.5000    0.8667    0.0000 C   0  0  0  0  0  0  0  0  0  0  0  0
  1  2  2  0  0  0  0
  1  3  1  0  0  0  0
  1  4  1  0  0  0  0
  2  5  1  0  0  0  0
  3  6  1  0  0  0  0
  6  7  1  0  0  0  0
  8  9  1  0  0  0  0
  4  9  1  0  0  0  0
  8 10  1  0  0  0  0
  5 11  2  0  0  0  0
  2 12  1  0  0  0  0
  3 13  2  0  0  0  0
 10 14  2  0  0  0  0
  7 15  2  0  0  0  0
  4 16  1  0  0  0  0
 11 17  1  0  0  0  0
 10 18  1  0  0  0  0
 15 19  1  0  0  0  0
 17 20  1  0  0  0  0
 21 22  1  0  0  0  0
 16 22  1  0  0  0  0
 12 23  2  0  0  0  0
 12 24  1  0  0  0  0
 24 25  2  0  0  0  0
 23 26  1  0  0  0  0
 25 27  1  0  0  0  0
  5  7  1  0  0  0  0
  8 21  1  0  0  0  0
 17 19  2  0  0  0  0
 26 27  2  0  0  0  0
M  END
> <MOLFORMULA>
C21 H19 Cl N2 O3

> <MOLWEIGHT>
3.828451000000000e+002

> <IDNUMBER>
AN-153/I208779

> <PRICE>
EUR 130/10 mg

> <Similarity score>
0.18

$$$$

  -OEChem-04222410502D

 29 32  0     0  0  0  0  0  0999 V2000
    0.4292   -0.2417    0.0000 S   0  0  3  0  0  0  0  0  0  0  0  0
   -0.4333    0.2500    0.0000 C   0  0  0  0  0  0  0  0  0  0  0  0
   -0.4333    1.2500    0.0000 C   0  0  0  0  0  0  0  0  0  0  0  0
    1.2917   -0.7500    0.0000 C   0  0  0  0  0  0  0  0  0  0  0  0
   -1.3000    1.7583    0.0000 C   0  0  0  0  0  0  0  0  0  0  0  0
   -2.1708    0.2500    0.0000 N   0  0  0  0  0  0  0  0  0  0  0  0
   -2.1708    1.2500    0.0000 C   0  0  0  0  0  0  0  0  0  0  0  0
   -1.3000   -0.2417    0.0000 C   0  0  0  0  0  0  0  0  0  0  0  0
    2.1625   -0.2417    0.0000 C   0  0  0  0  0  0  0  0  0  0  0  0
    1.2917   -1.7500    0.0000 C   0  0  0  0  0  0  0  0  0  0  0  0
    0.9292    0.6208    0.0000 O   0  0  0  0  0  0  0  0  0  0  0  0
   -0.0708   -1.1125    0.0000 O   0  0  0  0  0  0  0  0  0  0  0  0
    0.4292    1.7583    0.0000 C   0  0  0  0  0  0  0  0  0  0  0  0
    2.1625   -2.2500    0.0000 C   0  0  0  0  0  0  0  0  0  0  0  0
    3.0292   -0.7500    0.0000 C   0  0  0  0  0  0  0  0  0  0  0  0
   -3.0333    1.7583    0.0000 C   0  0  0  0  0  0  0  0  0  0  0  0
    3.0292   -1.7500    0.0000 C   0  0  0  0  0  0  0  0  0  0  0  0
    0.4292    2.7583    0.0000 C   0  0  0  0  0  0  0  0  0  0  0  0
    1.2917    1.2500    0.0000 C   0  0  0  0  0  0  0  0  0  0  0  0
    2.1625    2.7583    0.0000 C   0  0  0  0  0  0  0  0  0  0  0  0
    3.8917   -0.2417    0.0000 Cl  0  0  0  0  0  0  0  0  0  0  0  0
    2.1625   -3.2500    0.0000 Cl  0  0  0  0  0  0  0  0  0  0  0  0
   -3.9000    1.2500    0.0000 F   0  0  0  0  0  0  0  0  0  0  0  0
   -1.3000    2.7583    0.0000 C   0  0  0  0  0  0  0  0  0  0  0  0
    2.1625    1.7583    0.0000 C   0  0  0  0  0  0  0  0  0  0  0  0
    1.2917    3.2500    0.0000 C   0  0  0  0  0  0  0  0  0  0  0  0
    3.0292    3.2500    0.0000 F   0  0  0  0  0  0  0  0  0  0  0  0
   -2.1708    3.2500    0.0000 C   0  0  0  0  0  0  0  0  0  0  0  0
   -3.0333    2.7583    0.0000 C   0  0  0  0  0  0  0  0  0  0  0  0
  1  2  1  0  0  0  0
  2  3  2  0  0  0  0
  1  4  1  0  0  0  0
  3  5  1  0  0  0  0
  6  8  2  0  0  0  0
  6  7  1  0  0  0  0
  2  8  1  0  0  0  0
  4  9  2  0  0  0  0
  4 10  1  0  0  0  0
  1 11  2  0  0  0  0
  1 12  2  0  0  0  0
  3 13  1  0  0  0  0
 10 14  2  0  0  0  0
  9 15  1  0  0  0  0
  7 16  1  0  0  0  0
 14 17  1  0  0  0  0
 13 18  1  0  0  0  0
 13 19  2  0  0  0  0
 20 25  2  0  0  0  0
 15 21  1  0  0  0  0
 14 22  1  0  0  0  0
 16 23  1  0  0  0  0
  5 24  1  0  0  0  0
 19 25  1  0  0  0  0
 18 26  2  0  0  0  0
 20 27  1  0  0  0  0
 24 28  2  0  0  0  0
 16 29  2  0  0  0  0
 15 17  2  0  0  0  0
  5  7  2  0  0  0  0
 20 26  1  0  0  0  0
 28 29  1  0  0  0  0
M  END
> <MOLFORMULA>
C21 H11 Cl2 F2 N O2 S

> <MOLWEIGHT>
4.502909000000000e+002

> <IDNUMBER>
AT-687/PE13101

> <PRICE>
EUR 80/10 mg

> <Similarity score>
0.18

$$$$

  -OEChem-04222410502D

 28 32  0     0  0  0  0  0  0999 V2000
    4.3250   -4.6042    0.0000 C   0  0  0  0  0  0  0  0  0  0  0  0
    5.6292   -4.3417    0.0000 C   0  0  0  0  0  0  0  0  0  0  0  0
    3.2667   -3.8167    0.0000 O   0  0  0  0  0  0  0  0  0  0  0  0
    3.9167   -5.8750    0.0000 C   0  0  0  0  0  0  0  0  0  0  0  0
    6.0500   -3.0750    0.0000 N   0  0  3  0  0  0  0  0  0  0  0  0
    2.6000   -5.8750    0.0000 C   0  0  0  0  0  0  0  0  0  0  0  0
    9.0667   -1.2500    0.0000 C   0  0  0  0  0  0  0  0  0  0  0  0
    2.1667   -4.6042    0.0000 C   0  0  0  0  0  0  0  0  0  0  0  0
    7.7667   -1.5500    0.0000 C   0  0  3  0  0  0  0  0  0  0  0  0
    6.5167   -5.3167    0.0000 N   0  0  0  0  0  0  0  0  0  0  0  0
    7.3667   -2.7917    0.0000 C   0  0  0  0  0  0  0  0  0  0  0  0
    9.9500   -2.2500    0.0000 N   0  0  0  0  0  0  0  0  0  0  0  0
    4.8000   -6.8667    0.0000 N   0  0  0  0  0  0  0  0  0  0  0  0
    6.1000   -6.5917    0.0000 C   0  0  0  0  0  0  0  0  0  0  0  0
    9.4792   -0.0000    0.0000 O   0  0  0  0  0  0  0  0  0  0  0  0
   11.2417   -1.9667    0.0000 C   0  0  0  0  0  0  0  0  0  0  0  0
    5.1667   -2.0917    0.0000 C   0  0  0  0  0  0  0  0  0  0  0  0
    6.8750   -0.5500    0.0000 C   0  0  0  0  0  0  0  0  0  0  0  0
    1.7000   -6.8667    0.0000 C   0  0  0  0  0  0  0  0  0  0  0  0
    0.8750   -4.3167    0.0000 C   0  0  0  0  0  0  0  0  0  0  0  0
    5.5750   -0.8167    0.0000 C   0  0  0  0  0  0  0  0  0  0  0  0
   11.6750   -0.7167    0.0000 C   0  0  0  0  0  0  0  0  0  0  0  0
   12.1250   -2.9750    0.0000 C   0  0  0  0  0  0  0  0  0  0  0  0
    0.4000   -6.5917    0.0000 C   0  0  0  0  0  0  0  0  0  0  0  0
    0.0000   -5.3167    0.0000 C   0  0  0  0  0  0  0  0  0  0  0  0
   13.4250   -2.7000    0.0000 C   0  0  0  0  0  0  0  0  0  0  0  0
   12.9542   -0.4500    0.0000 C   0  0  0  0  0  0  0  0  0  0  0  0
   13.8500   -1.4292    0.0000 C   0  0  0  0  0  0  0  0  0  0  0  0
  1  2  2  0  0  0  0
  1  3  1  0  0  0  0
  1  4  1  0  0  0  0
  2  5  1  0  0  0  0
  4  6  1  0  0  0  0
  7  9  1  0  0  0  0
  3  8  1  0  0  0  0
  9 11  1  0  0  0  0
  2 10  1  0  0  0  0
  5 11  1  0  0  0  0
  7 12  1  0  0  0  0
  4 13  2  0  0  0  0
 13 14  1  0  0  0  0
  7 15  2  0  0  0  0
 12 16  1  0  0  0  0
  5 17  1  0  0  0  0
 18 21  1  0  0  0  0
  6 19  1  0  0  0  0
  8 20  1  0  0  0  0
 17 21  1  0  0  0  0
 16 22  1  0  0  0  0
 16 23  2  0  0  0  0
 19 24  2  0  0  0  0
 20 25  2  0  0  0  0
 23 26  1  0  0  0  0
 22 27  2  0  0  0  0
 26 28  2  0  0  0  0
  6  8  2  0  0  0  0
 10 14  2  0  0  0  0
 24 25  1  0  0  0  0
  9 18  1  0  0  0  0
 27 28  1  0  0  0  0
M  END
> <MOLFORMULA>
C22 H20 N4 O2

> <MOLWEIGHT>
3.724260000000000e+002

> <IDNUMBER>
AT-687/PE16748

> <PRICE>
EUR 80/10 mg

> <Similarity score>
0.18

$$$$

  -OEChem-04222410502D

 37 41  0     0  0  0  0  0  0999 V2000
    8.6375   -5.7625    0.0000 S   0  0  3  0  0  0  0  0  0  0  0  0
    7.3125   -5.7625    0.0000 C   0  0  0  0  0  0  0  0  0  0  0  0
    6.6292   -4.6042    0.0000 C   0  0  0  0  0  0  0  0  0  0  0  0
    7.3125   -3.4542    0.0000 N   0  0  3  0  0  0  0  0  0  0  0  0
    5.3000   -4.6042    0.0000 C   0  0  0  0  0  0  0  0  0  0  0  0
    9.9625   -5.7625    0.0000 C   0  0  0  0  0  0  0  0  0  0  0  0
    5.3000   -6.9042    0.0000 N   0  0  0  0  0  0  0  0  0  0  0  0
    6.6292   -6.9042    0.0000 C   0  0  0  0  0  0  0  0  0  0  0  0
    4.6417   -5.7625    0.0000 C   0  0  0  0  0  0  0  0  0  0  0  0
   10.6167   -4.6042    0.0000 C   0  0  0  0  0  0  0  0  0  0  0  0
    0.0000   -4.6042    0.0000 N   0  0  0  0  0  0  0  0  0  0  0  0
   11.9417   -4.6042    0.0000 C   0  0  0  0  0  0  0  0  0  0  0  0
    8.6375   -4.4375    0.0000 O   0  0  0  0  0  0  0  0  0  0  0  0
    8.6375   -7.0875    0.0000 O   0  0  0  0  0  0  0  0  0  0  0  0
    4.6417   -3.4542    0.0000 C   0  0  0  0  0  0  0  0  0  0  0  0
    1.3250   -4.6042    0.0000 C   0  0  0  0  0  0  0  0  0  0  0  0
    3.3042   -1.1542    0.0000 N   0  0  3  0  0  0  0  0  0  0  0  0
    6.6292   -2.3167    0.0000 C   0  0  3  0  0  0  0  0  0  0  0  0
    5.3000   -2.3167    0.0000 C   0  0  0  0  0  0  0  0  0  0  0  0
   12.6292   -5.7625    0.0000 C   0  0  0  0  0  0  0  0  0  0  0  0
    3.3042   -5.7625    0.0000 C   0  0  0  0  0  0  0  0  0  0  0  0
   10.6167   -6.9042    0.0000 C   0  0  0  0  0  0  0  0  0  0  0  0
   11.9417   -6.9042    0.0000 C   0  0  0  0  0  0  0  0  0  0  0  0
    2.6500   -4.6042    0.0000 C   0  0  0  0  0  0  0  0  0  0  0  0
    4.6417   -1.1542    0.0000 C   0  0  0  0  0  0  0  0  0  0  0  0
    0.6542   -1.1542    0.0000 O   0  0  0  0  0  0  0  0  0  0  0  0
   12.6292   -3.4542    0.0000 Cl  0  0  0  0  0  0  0  0  0  0  0  0
    3.3042   -3.4542    0.0000 C   0  0  0  0  0  0  0  0  0  0  0  0
    8.6375   -3.4542    0.0000 C   0  0  0  0  0  0  0  0  0  0  0  0
   13.9542   -5.7625    0.0000 F   0  0  0  0  0  0  0  0  0  0  0  0
    2.6500   -0.0000    0.0000 C   0  0  0  0  0  0  0  0  0  0  0  0
    2.6500   -2.3167    0.0000 C   0  0  0  0  0  0  0  0  0  0  0  0
    1.3250   -2.3167    0.0000 C   0  0  0  0  0  0  0  0  0  0  0  0
    1.3250   -0.0000    0.0000 C   0  0  0  0  0  0  0  0  0  0  0  0
    7.3125   -1.1542    0.0000 C   0  0  0  0  0  0  0  0  0  0  0  0
    9.2917   -2.3167    0.0000 C   0  0  0  0  0  0  0  0  0  0  0  0
    8.6375   -1.1542    0.0000 C   0  0  0  0  0  0  0  0  0  0  0  0
  1  2  1  0  0  0  0
  2  3  2  0  0  0  0
  3  4  1  0  0  0  0
  3  5  1  0  0  0  0
  1  6  1  0  0  0  0
  7  8  2  0  0  0  0
  2  8  1  0  0  0  0
  7  9  1  0  0  0  0
  6 10  1  0  0  0  0
 11 16  3  0  0  0  0
 10 12  2  0  0  0  0
  1 13  2  0  0  0  0
  1 14  2  0  0  0  0
  5 15  2  0  0  0  0
 16 24  1  0  0  0  0
 17 25  1  0  0  0  0
  4 18  1  0  0  0  0
 18 19  1  0  0  0  0
 20 23  2  0  0  0  0
  9 21  2  0  0  0  0
  6 22  2  0  0  0  0
 22 23  1  0  0  0  0
 21 24  1  0  0  0  0
 19 25  1  0  0  0  0
 26 33  1  0  0  0  0
 12 27  1  0  0  0  0
 15 28  1  0  0  0  0
  4 29  1  0  0  0  0
 20 30  1  0  0  0  0
 17 31  1  0  0  0  0
 17 32  1  0  0  0  0
 32 33  1  0  0  0  0
 31 34  1  0  0  0  0
 18 35  1  0  0  0  0
 29 36  1  0  0  0  0
 36 37  1  0  0  0  0
 12 20  1  0  0  0  0
  5  9  1  0  0  0  0
 24 28  2  0  0  0  0
 35 37  1  0  0  0  0
 26 34  1  0  0  0  0
M  END
> <MOLFORMULA>
C27 H28 Cl F N4 O3 S

> <MOLWEIGHT>
5.430602000000000e+002

> <IDNUMBER>
AT-687/NB06789

> <PRICE>
EUR 80/10 mg

> <Similarity score>
0.18

$$$$

  -OEChem-04222410502D

 33 37  0     0  0  0  0  0  0999 V2000
   -3.3208    2.1875    0.0000 C   0  0  0  0  0  0  0  0  0  0  0  0
   -3.3125    1.3583    0.0000 C   0  0  0  0  0  0  0  0  0  0  0  0
   -1.8833    2.1875    0.0000 C   0  0  0  0  0  0  0  0  0  0  0  0
   -2.6083    2.6083    0.0000 N   0  0  0  0  0  0  0  0  0  0  0  0
   -1.8833    1.3583    0.0000 N   0  0  0  0  0  0  0  0  0  0  0  0
   -4.1000    2.4333    0.0000 C   0  0  0  0  0  0  0  0  0  0  0  0
   -2.6000    0.9458    0.0000 C   0  0  0  0  0  0  0  0  0  0  0  0
   -4.0958    1.1000    0.0000 S   0  0  0  0  0  0  0  0  0  0  0  0
   -1.1708    2.6000    0.0000 N   0  0  3  0  0  0  0  0  0  0  0  0
   -4.5833    1.7708    0.0000 C   0  0  0  0  0  0  0  0  0  0  0  0
    0.9750    2.1750    0.0000 C   0  0  0  0  0  0  0  0  0  0  0  0
    0.2542    2.5958    0.0000 C   0  0  3  0  0  0  0  0  0  0  0  0
   -4.3625    3.2208    0.0000 C   0  0  0  0  0  0  0  0  0  0  0  0
   -0.4583    2.1833    0.0000 C   0  0  0  0  0  0  0  0  0  0  0  0
    1.6917    2.5875    0.0000 N   0  0  0  0  0  0  0  0  0  0  0  0
   -2.6000    0.1208    0.0000 O   0  0  0  0  0  0  0  0  0  0  0  0
    0.9667    1.3500    0.0000 O   0  0  0  0  0  0  0  0  0  0  0  0
   -5.1708    3.3958    0.0000 C   0  0  0  0  0  0  0  0  0  0  0  0
   -5.4333    4.1667    0.0000 C   0  0  0  0  0  0  0  0  0  0  0  0
   -1.1708    3.4208    0.0000 C   0  0  0  0  0  0  0  0  0  0  0  0
    2.4042    2.1708    0.0000 C   0  0  3  0  0  0  0  0  0  0  0  0
    0.2625    3.4208    0.0000 C   0  0  0  0  0  0  0  0  0  0  0  0
   -3.8083    3.8375    0.0000 C   0  0  0  0  0  0  0  0  0  0  0  0
   -6.2167    4.3375    0.0000 O   0  0  0  0  0  0  0  0  0  0  0  0
   -0.4583    3.8333    0.0000 C   0  0  0  0  0  0  0  0  0  0  0  0
   -4.0708    4.6167    0.0000 C   0  0  0  0  0  0  0  0  0  0  0  0
   -4.8750    4.7792    0.0000 C   0  0  0  0  0  0  0  0  0  0  0  0
   -6.7792    3.7333    0.0000 C   0  0  0  0  0  0  0  0  0  0  0  0
    2.4042    1.3458    0.0000 C   0  0  0  0  0  0  0  0  0  0  0  0
    3.1292    2.5833    0.0000 C   0  0  0  0  0  0  0  0  0  0  0  0
    3.8375    2.1583    0.0000 C   0  0  0  0  0  0  0  0  0  0  0  0
    3.1125    0.9250    0.0000 C   0  0  0  0  0  0  0  0  0  0  0  0
    3.8375    1.3333    0.0000 C   0  0  0  0  0  0  0  0  0  0  0  0
  1  2  2  0  0  0  0
  3  4  2  0  0  0  0
  1  4  1  0  0  0  0
  3  5  1  0  0  0  0
  1  6  1  0  0  0  0
  2  7  1  0  0  0  0
  2  8  1  0  0  0  0
  3  9  1  0  0  0  0
  6 10  2  0  0  0  0
 11 12  1  0  0  0  0
 12 14  1  0  0  0  0
  6 13  1  0  0  0  0
  9 14  1  0  0  0  0
 11 15  1  0  0  0  0
  7 16  2  0  0  0  0
 11 17  2  0  0  0  0
 13 18  2  0  0  0  0
 18 19  1  0  0  0  0
  9 20  1  0  0  0  0
 15 21  1  0  0  0  0
 22 25  1  0  0  0  0
 13 23  1  0  0  0  0
 19 24  1  0  0  0  0
 20 25  1  0  0  0  0
 23 26  2  0  0  0  0
 26 27  1  0  0  0  0
 24 28  1  0  0  0  0
 21 29  1  0  0  0  0
 21 30  1  0  0  0  0
 30 31  1  0  0  0  0
 29 32  1  0  0  0  0
 31 33  1  0  0  0  0
  8 10  1  0  0  0  0
  5  7  1  0  0  0  0
 19 27  2  0  0  0  0
 12 22  1  0  0  0  0
 32 33  1  0  0  0  0
M  END
> <MOLFORMULA>
C25 H30 N4 O3 S

> <MOLWEIGHT>
4.666030000000000e+002

> <IDNUMBER>
AT-687/PE26003

> <PRICE>
EUR 80/10 mg

> <Similarity score>
0.18

$$$$

  -OEChem-04222410502D

 27 30  0     0  0  0  0  0  0999 V2000
   -0.2125   -0.2875    0.0000 C   0  0  0  0  0  0  0  0  0  0  0  0
   -0.3833   -1.2708    0.0000 C   0  0  0  0  0  0  0  0  0  0  0  0
    0.6833    0.1583    0.0000 C   0  0  0  0  0  0  0  0  0  0  0  0
   -1.0958    0.1792    0.0000 C   0  0  0  0  0  0  0  0  0  0  0  0
    0.7500    1.1542    0.0000 C   0  0  0  0  0  0  0  0  0  0  0  0
   -1.3708   -1.4167    0.0000 C   0  0  0  0  0  0  0  0  0  0  0  0
   -1.8125   -0.5167    0.0000 N   0  0  0  0  0  0  0  0  0  0  0  0
    0.2375   -2.0583    0.0000 C   0  0  0  0  0  0  0  0  0  0  0  0
   -0.0792    1.7083    0.0000 C   0  0  0  0  0  0  0  0  0  0  0  0
   -1.7417   -2.3417    0.0000 C   0  0  0  0  0  0  0  0  0  0  0  0
    1.6458    1.5958    0.0000 C   0  0  0  0  0  0  0  0  0  0  0  0
   -0.1333   -2.9875    0.0000 C   0  0  0  0  0  0  0  0  0  0  0  0
   -0.0167    2.7083    0.0000 C   0  0  0  0  0  0  0  0  0  0  0  0
   -1.1208   -3.1292    0.0000 C   0  0  0  0  0  0  0  0  0  0  0  0
    0.8833    3.1500    0.0000 C   0  0  0  0  0  0  0  0  0  0  0  0
    1.5167   -0.4000    0.0000 N   0  0  0  0  0  0  0  0  0  0  0  0
    1.7125    2.5958    0.0000 C   0  0  0  0  0  0  0  0  0  0  0  0
    2.4125    0.0417    0.0000 C   0  0  0  0  0  0  0  0  0  0  0  0
    0.4875   -3.7708    0.0000 O   0  0  0  0  0  0  0  0  0  0  0  0
   -0.8458    3.2625    0.0000 O   0  0  0  0  0  0  0  0  0  0  0  0
   -1.4917   -4.0583    0.0000 O   0  0  0  0  0  0  0  0  0  0  0  0
    0.9458    4.1458    0.0000 O   0  0  0  0  0  0  0  0  0  0  0  0
    2.4792    1.0417    0.0000 C   0  0  0  0  0  0  0  0  0  0  0  0
    0.1167    4.7000    0.0000 C   0  0  0  0  0  0  0  0  0  0  0  0
   -2.4833   -4.2000    0.0000 C   0  0  0  0  0  0  0  0  0  0  0  0
   -1.7458    2.8208    0.0000 C   0  0  0  0  0  0  0  0  0  0  0  0
    0.1167   -4.7000    0.0000 C   0  0  0  0  0  0  0  0  0  0  0  0
  1  2  1  0  0  0  0
  1  3  1  0  0  0  0
  1  4  2  0  0  0  0
  3  5  1  0  0  0  0
  2  6  2  0  0  0  0
  4  7  1  0  0  0  0
  2  8  1  0  0  0  0
  5  9  1  0  0  0  0
  6 10  1  0  0  0  0
  5 11  2  0  0  0  0
  8 12  2  0  0  0  0
  9 13  2  0  0  0  0
 12 14  1  0  0  0  0
 15 17  2  0  0  0  0
  3 16  2  0  0  0  0
 11 17  1  0  0  0  0
 16 18  1  0  0  0  0
 12 19  1  0  0  0  0
 13 20  1  0  0  0  0
 14 21  1  0  0  0  0
 15 22  1  0  0  0  0
 18 23  2  0  0  0  0
 22 24  1  0  0  0  0
 21 25  1  0  0  0  0
 20 26  1  0  0  0  0
 19 27  1  0  0  0  0
  6  7  1  0  0  0  0
 11 23  1  0  0  0  0
 10 14  2  0  0  0  0
 13 15  1  0  0  0  0
M  END
> <MOLFORMULA>
C21 H20 N2 O4

> <MOLWEIGHT>
3.643990000000000e+002

> <IDNUMBER>
AN-153/I289756

> <PRICE>
EUR 130/10 mg

> <Similarity score>
0.18

$$$$

  -OEChem-04222410502D

 35 39  0     0  0  0  0  0  0999 V2000
   -3.3208    2.1875    0.0000 C   0  0  0  0  0  0  0  0  0  0  0  0
   -3.3125    1.3583    0.0000 C   0  0  0  0  0  0  0  0  0  0  0  0
   -1.8833    2.1875    0.0000 C   0  0  0  0  0  0  0  0  0  0  0  0
   -2.6083    2.6083    0.0000 N   0  0  0  0  0  0  0  0  0  0  0  0
   -1.8833    1.3583    0.0000 N   0  0  0  0  0  0  0  0  0  0  0  0
   -4.1000    2.4333    0.0000 C   0  0  0  0  0  0  0  0  0  0  0  0
   -2.6000    0.9458    0.0000 C   0  0  0  0  0  0  0  0  0  0  0  0
   -4.0958    1.1000    0.0000 S   0  0  0  0  0  0  0  0  0  0  0  0
   -1.1708    2.6000    0.0000 N   0  0  3  0  0  0  0  0  0  0  0  0
   -4.5833    1.7708    0.0000 C   0  0  0  0  0  0  0  0  0  0  0  0
    0.9750    2.1750    0.0000 C   0  0  0  0  0  0  0  0  0  0  0  0
    0.2542    2.5958    0.0000 C   0  0  3  0  0  0  0  0  0  0  0  0
   -4.3625    3.2208    0.0000 C   0  0  0  0  0  0  0  0  0  0  0  0
   -0.4583    2.1833    0.0000 C   0  0  0  0  0  0  0  0  0  0  0  0
    1.6917    2.5875    0.0000 N   0  0  0  0  0  0  0  0  0  0  0  0
   -2.6000    0.1208    0.0000 O   0  0  0  0  0  0  0  0  0  0  0  0
    0.9667    1.3500    0.0000 O   0  0  0  0  0  0  0  0  0  0  0  0
   -5.1708    3.3958    0.0000 C   0  0  0  0  0  0  0  0  0  0  0  0
   -5.4333    4.1667    0.0000 C   0  0  0  0  0  0  0  0  0  0  0  0
   -1.1708    3.4208    0.0000 C   0  0  0  0  0  0  0  0  0  0  0  0
    2.4042    2.1708    0.0000 C   0  0  3  0  0  0  0  0  0  0  0  0
    0.2625    3.4208    0.0000 C   0  0  0  0  0  0  0  0  0  0  0  0
   -3.8083    3.8375    0.0000 C   0  0  0  0  0  0  0  0  0  0  0  0
   -6.2167    4.3375    0.0000 O   0  0  0  0  0  0  0  0  0  0  0  0
   -0.4583    3.8333    0.0000 C   0  0  0  0  0  0  0  0  0  0  0  0
   -4.0708    4.6167    0.0000 C   0  0  0  0  0  0  0  0  0  0  0  0
   -4.8750    4.7792    0.0000 C   0  0  0  0  0  0  0  0  0  0  0  0
   -6.7792    3.7333    0.0000 C   0  0  0  0  0  0  0  0  0  0  0  0
    2.2917    1.3583    0.0000 C   0  0  0  0  0  0  0  0  0  0  0  0
    3.0667    2.6708    0.0000 C   0  0  0  0  0  0  0  0  0  0  0  0
    2.7917    0.6958    0.0000 C   0  0  0  0  0  0  0  0  0  0  0  0
    3.8875    2.5583    0.0000 C   0  0  0  0  0  0  0  0  0  0  0  0
    4.2667    1.0833    0.0000 C   0  0  0  0  0  0  0  0  0  0  0  0
    3.6167    0.5833    0.0000 C   0  0  0  0  0  0  0  0  0  0  0  0
    4.3875    1.9000    0.0000 C   0  0  0  0  0  0  0  0  0  0  0  0
  1  2  2  0  0  0  0
  3  4  2  0  0  0  0
  1  4  1  0  0  0  0
  3  5  1  0  0  0  0
  1  6  1  0  0  0  0
  2  7  1  0  0  0  0
  2  8  1  0  0  0  0
  3  9  1  0  0  0  0
  6 10  2  0  0  0  0
 11 12  1  0  0  0  0
 12 14  1  0  0  0  0
  6 13  1  0  0  0  0
  9 14  1  0  0  0  0
 11 15  1  0  0  0  0
  7 16  2  0  0  0  0
 11 17  2  0  0  0  0
 13 18  2  0  0  0  0
 18 19  1  0  0  0  0
  9 20  1  0  0  0  0
 15 21  1  0  0  0  0
 22 25  1  0  0  0  0
 13 23  1  0  0  0  0
 19 24  1  0  0  0  0
 20 25  1  0  0  0  0
 23 26  2  0  0  0  0
 26 27  1  0  0  0  0
 24 28  1  0  0  0  0
 21 29  1  0  0  0  0
 21 30  1  0  0  0  0
 29 31  1  0  0  0  0
 30 32  1  0  0  0  0
 33 35  1  0  0  0  0
 31 34  1  0  0  0  0
 32 35  1  0  0  0  0
  8 10  1  0  0  0  0
  5  7  1  0  0  0  0
 19 27  2  0  0  0  0
 12 22  1  0  0  0  0
 33 34  1  0  0  0  0
M  END
> <MOLFORMULA>
C27 H34 N4 O3 S

> <MOLWEIGHT>
4.946566000000000e+002

> <IDNUMBER>
AT-687/PE26005

> <PRICE>
EUR 80/10 mg

> <Similarity score>
0.18

$$$$
