N-[(2,4-difluorophenyl)methyl]-1-(2-methyl-5,6,8,9-tetrahydrooxepino[4,5-d]pyrim
  -OEChem-04222410502D

 30 33  0     0  0  0  0  0  0999 V2000
   -2.8644   -0.2462    0.0000 C   0  0  0  0  0  0  0  0  0  0  0  0
   -3.7200    0.2520    0.0000 C   0  0  0  0  0  0  0  0  0  0  0  0
   -2.8644   -1.2488    0.0000 N   0  0  0  0  0  0  0  0  0  0  0  0
   -1.9900    0.2520    0.0000 N   0  0  0  0  0  0  0  0  0  0  0  0
   -4.5940   -0.2462    0.0000 C   0  0  0  0  0  0  0  0  0  0  0  0
   -4.5940   -1.2488    0.0000 N   0  0  0  0  0  0  0  0  0  0  0  0
   -3.7200   -1.7503    0.0000 C   0  0  0  0  0  0  0  0  0  0  0  0
    0.6144    1.7503    0.0000 C   0  0  0  0  0  0  0  0  0  0  0  0
    3.2058    0.2520    0.0000 C   0  0  0  0  0  0  0  0  0  0  0  0
    3.2058    1.2488    0.0000 C   0  0  0  0  0  0  0  0  0  0  0  0
    1.4856    1.2488    0.0000 N   0  0  0  0  0  0  0  0  0  0  0  0
    4.0740   -0.2462    0.0000 C   0  0  0  0  0  0  0  0  0  0  0  0
   -0.2600    1.2488    0.0000 C   0  0  0  0  0  0  0  0  0  0  0  0
   -1.1156   -0.2462    0.0000 C   0  0  0  0  0  0  0  0  0  0  0  0
   -1.9900    1.2488    0.0000 C   0  0  0  0  0  0  0  0  0  0  0  0
    2.3440    1.7503    0.0000 C   0  0  0  0  0  0  0  0  0  0  0  0
    0.6144    2.7468    0.0000 O   0  0  0  0  0  0  0  0  0  0  0  0
    4.0740    1.7503    0.0000 C   0  0  0  0  0  0  0  0  0  0  0  0
   -0.2600    0.2520    0.0000 C   0  0  0  0  0  0  0  0  0  0  0  0
   -1.1156    1.7503    0.0000 C   0  0  0  0  0  0  0  0  0  0  0  0
   -5.2524    1.9007    0.0000 O   0  0  0  0  0  0  0  0  0  0  0  0
    4.9485    0.2520    0.0000 C   0  0  0  0  0  0  0  0  0  0  0  0
   -5.5251    0.1206    0.0000 C   0  0  0  0  0  0  0  0  0  0  0  0
    2.3440   -0.2462    0.0000 F   0  0  0  0  0  0  0  0  0  0  0  0
   -3.5693    1.2394    0.0000 C   0  0  0  0  0  0  0  0  0  0  0  0
    4.9485    1.2488    0.0000 C   0  0  0  0  0  0  0  0  0  0  0  0
    5.8102   -0.2462    0.0000 F   0  0  0  0  0  0  0  0  0  0  0  0
   -3.7200   -2.7468    0.0000 C   0  0  0  0  0  0  0  0  0  0  0  0
   -5.8102    1.0734    0.0000 C   0  0  0  0  0  0  0  0  0  0  0  0
   -4.2556    1.9820    0.0000 C   0  0  0  0  0  0  0  0  0  0  0  0
  1  2  1  0  0  0  0
  1  3  2  0  0  0  0
  1  4  1  0  0  0  0
  2  5  2  0  0  0  0
  6  7  2  0  0  0  0
  5  6  1  0  0  0  0
  3  7  1  0  0  0  0
  8 13  1  0  0  0  0
  9 10  2  0  0  0  0
 10 16  1  0  0  0  0
  8 11  1  0  0  0  0
  9 12  1  0  0  0  0
 13 20  1  0  0  0  0
  4 14  1  0  0  0  0
  4 15  1  0  0  0  0
 11 16  1  0  0  0  0
  8 17  2  0  0  0  0
 10 18  1  0  0  0  0
 14 19  1  0  0  0  0
 13 19  1  0  0  0  0
 15 20  1  0  0  0  0
 21 30  1  0  0  0  0
 22 26  1  0  0  0  0
 12 22  2  0  0  0  0
  5 23  1  0  0  0  0
  9 24  1  0  0  0  0
  2 25  1  0  0  0  0
 18 26  2  0  0  0  0
 22 27  1  0  0  0  0
  7 28  1  0  0  0  0
 23 29  1  0  0  0  0
 21 29  1  0  0  0  0
 25 30  1  0  0  0  0
M  END
> <IDNUMBER>
S896-0388

> <available>
14

> <H_acceptor>
5

> <H_donor>
1

> <B_rotN>
5

> <N_O>
6

> <logP>
2.954

> <logD>
2.9432

> <logSw>
-3.2232

> <PSA>
55.882

> <pKa_ma>
12.1429

> <pKa_mb>
5.8035

> <N_Chirals>
0

> <Name>
N-[(2,4-difluorophenyl)methyl]-1-(2-methyl-5,6,8,9-tetrahydrooxepino[4,5-d]pyrimidin-4-yl)piperidine-4-carboxamide

> <Smile>
Cc1nc(CCOCC2)c2c(N(CC2)CCC2C(NCc(ccc(F)c2)c2F)=O)n1

> <Color>
NOT COLORED

> <Collection>
IC

> <InChI>
InChI=1S/C22H26F2N4O2/c1-14-26-20-7-11-30-10-6-18(20)21(27-14)28-8-4-15(5-9-28)22(29)25-13-16-2-3-17(23)12-19(16)24/h2-3,12,15H,4-11,13H2,1H3,(H,25,29)

> <InChI Key>
MJEYTQNMHUDINA-UHFFFAOYSA-N

> <PERCENTSP3>
50

> <Link>
https://www.chemdiv.com/catalog/screening-compounds/compound-S896-0388/

> <MFCDNUMBER>
MFCD31957228

> <CLNUMBER>
CM3993

> <STEREO>
ACHIRAL

> <State>
Solid

> <Similarity score>
0.27

$$$$
2-(4-fluorophenyl)-N-(1-methyl-1,2,3,4-tetrahydroquinolin-7-yl)-4-oxo-4,5,6,7,8,
  -OEChem-04222410502D

 33 37  0     0  0  0  0  0  0999 V2000
   -0.2353    0.4667    0.0000 C   0  0  0  0  0  0  0  0  0  0  0  0
   -1.9684    0.4292    0.0000 N   0  0  0  0  0  0  0  0  0  0  0  0
   -1.1185    1.9413    0.0000 N   0  0  0  0  0  0  0  0  0  0  0  0
   -0.2560    1.4664    0.0000 C   0  0  0  0  0  0  0  0  0  0  0  0
   -1.9811    1.4291    0.0000 C   0  0  0  0  0  0  0  0  0  0  0  0
   -1.0853   -0.0541    0.0000 C   0  0  0  0  0  0  0  0  0  0  0  0
    3.9556   -0.8291    0.0000 C   0  0  0  0  0  0  0  0  0  0  0  0
    0.9687   -2.5330    0.0000 C   0  0  0  0  0  0  0  0  0  0  0  0
    4.9681   -0.8207    0.0000 N   0  0  0  0  0  0  0  0  0  0  0  0
    1.9643   -2.5330    0.0000 N   0  0  0  0  0  0  0  0  0  0  0  0
    0.7061    0.1291    0.0000 C   0  0  0  0  0  0  0  0  0  0  0  0
    3.4683   -1.6789    0.0000 C   0  0  0  0  0  0  0  0  0  0  0  0
   -2.8561    1.9081    0.0000 C   0  0  0  0  0  0  0  0  0  0  0  0
    2.4683   -1.6789    0.0000 C   0  0  0  0  0  0  0  0  0  0  0  0
    0.5897    2.0163    0.0000 O   0  0  0  0  0  0  0  0  0  0  0  0
    0.4688   -1.6664    0.0000 C   0  0  3  0  0  0  0  0  0  0  0  0
   -1.2062   -1.0331    0.0000 C   0  0  0  0  0  0  0  0  0  0  0  0
    3.4642    0.0666    0.0000 C   0  0  0  0  0  0  0  0  0  0  0  0
    0.4770   -3.3956    0.0000 O   0  0  0  0  0  0  0  0  0  0  0  0
    1.0185   -0.8207    0.0000 C   0  0  0  0  0  0  0  0  0  0  0  0
   -0.5061   -1.7456    0.0000 C   0  0  0  0  0  0  0  0  0  0  0  0
   -2.8811    2.9080    0.0000 C   0  0  0  0  0  0  0  0  0  0  0  0
   -3.7057    1.3957    0.0000 C   0  0  0  0  0  0  0  0  0  0  0  0
    2.4683    0.0584    0.0000 C   0  0  0  0  0  0  0  0  0  0  0  0
    1.9684   -0.8166    0.0000 C   0  0  0  0  0  0  0  0  0  0  0  0
   -4.6057    2.8788    0.0000 C   0  0  0  0  0  0  0  0  0  0  0  0
   -4.5932    1.8706    0.0000 C   0  0  0  0  0  0  0  0  0  0  0  0
   -3.7557    3.3956    0.0000 C   0  0  0  0  0  0  0  0  0  0  0  0
   -5.4806    3.3580    0.0000 F   0  0  0  0  0  0  0  0  0  0  0  0
    5.4806    0.0541    0.0000 C   0  0  0  0  0  0  0  0  0  0  0  0
    5.4556   -1.6914    0.0000 C   0  0  0  0  0  0  0  0  0  0  0  0
    4.9765    0.9332    0.0000 C   0  0  0  0  0  0  0  0  0  0  0  0
    3.9640    0.9291    0.0000 C   0  0  0  0  0  0  0  0  0  0  0  0
  2  6  1  0  0  0  0
  3  4  1  0  0  0  0
  1  4  1  0  0  0  0
  2  5  2  0  0  0  0
  3  5  1  0  0  0  0
  1  6  2  0  0  0  0
  7 12  2  0  0  0  0
  7 18  1  0  0  0  0
  8 16  1  0  0  0  0
  7  9  1  0  0  0  0
  8 10  1  0  0  0  0
  1 11  1  0  0  0  0
 12 14  1  0  0  0  0
  5 13  1  0  0  0  0
 10 14  1  0  0  0  0
  4 15  2  0  0  0  0
 16 20  1  0  0  0  0
  6 17  1  0  0  0  0
 18 24  2  0  0  0  0
  8 19  2  0  0  0  0
 11 20  1  0  0  0  0
 17 21  1  0  0  0  0
 16 21  1  0  0  0  0
 13 22  2  0  0  0  0
 13 23  1  0  0  0  0
 24 25  1  0  0  0  0
 14 25  2  0  0  0  0
 26 27  1  0  0  0  0
 23 27  2  0  0  0  0
 22 28  1  0  0  0  0
 26 28  2  0  0  0  0
 26 29  1  0  0  0  0
  9 30  1  0  0  0  0
  9 31  1  0  0  0  0
 32 33  1  0  0  0  0
 30 32  1  0  0  0  0
 18 33  1  0  0  0  0
M  END
> <IDNUMBER>
SB25-1064

> <available>
21

> <H_acceptor>
5

> <H_donor>
2

> <B_rotN>
4

> <N_O>
6

> <logP>
3.1468

> <logD>
2.0654

> <logSw>
-3.4088

> <PSA>
60.834

> <pKa_ma>
6.3562

> <pKa_mb>
5.1601

> <N_Chirals>
1

> <Name>
2-(4-fluorophenyl)-N-(1-methyl-1,2,3,4-tetrahydroquinolin-7-yl)-4-oxo-4,5,6,7,8,9-hexahydro-3H-cyclohepta[d]pyrimidine-7-carboxamide

> <Smile>
CN(CCC1)c2c1ccc(NC(C(CC1)CCC(N=C(c(cc3)ccc3F)N3)=C1C3=O)=O)c2

> <Color>
BROWN

> <Collection>
IC

> <InChI>
InChI=1S/C26H27FN4O2/c1-31-14-2-3-16-6-11-20(15-23(16)31)28-25(32)18-7-12-21-22(13-8-18)29-24(30-26(21)33)17-4-9-19(27)10-5-17/h4-6,9-11,15,18H,2-3,7-8,12-14H2,1H3,(H,28,32)(H,29,30,33)/t18-/m1/s1

> <InChI Key>
ISKNMQZXQSLRSF-GOSISDBHSA-N

> <PERCENTSP3>
34.62

> <Link>
https://www.chemdiv.com/catalog/screening-compounds/compound-SB25-1064/

> <MFCDNUMBER>
MFCD32246928

> <CLNUMBER>
CM3995

> <STEREO>
RACEMIC MIXTURE

> <State>
Solid

> <Similarity score>
0.25

$$$$
7-[(2,5-difluorophenyl)methyl]-2-(4-methylpiperazin-1-yl)-3,5,6,7,8,9-hexahydro-
  -OEChem-04222410502D

 28 31  0     0  0  0  0  0  0999 V2000
    1.8176    0.6079    0.0000 C   0  0  0  0  0  0  0  0  0  0  0  0
    1.5920    1.5918    0.0000 N   0  0  0  0  0  0  0  0  0  0  0  0
   -0.1033    1.2065    0.0000 C   0  0  0  0  0  0  0  0  0  0  0  0
    1.0812   -0.0689    0.0000 N   0  0  0  0  0  0  0  0  0  0  0  0
    0.6300    1.8834    0.0000 C   0  0  0  0  0  0  0  0  0  0  0  0
    0.1223    0.2286    0.0000 C   0  0  0  0  0  0  0  0  0  0  0  0
    2.7765    0.3164    0.0000 N   0  0  0  0  0  0  0  0  0  0  0  0
   -3.3998   -0.9464    0.0000 C   0  0  0  0  0  0  0  0  0  0  0  0
   -2.1215    0.2286    0.0000 N   0  0  0  0  0  0  0  0  0  0  0  0
   -1.0058    1.6387    0.0000 C   0  0  0  0  0  0  0  0  0  0  0  0
   -0.4981   -0.5515    0.0000 C   0  0  0  0  0  0  0  0  0  0  0  0
    4.6815   -0.2695    0.0000 N   0  0  0  0  0  0  0  0  0  0  0  0
   -3.1022    0.0030    0.0000 C   0  0  0  0  0  0  0  0  0  0  0  0
   -2.7074   -1.6796    0.0000 C   0  0  0  0  0  0  0  0  0  0  0  0
    0.4167    2.8641    0.0000 O   0  0  0  0  0  0  0  0  0  0  0  0
   -4.3681   -1.1720    0.0000 C   0  0  0  0  0  0  0  0  0  0  0  0
    3.5097    1.0028    0.0000 C   0  0  0  0  0  0  0  0  0  0  0  0
    3.0021   -0.6548    0.0000 C   0  0  0  0  0  0  0  0  0  0  0  0
   -1.8959    1.2065    0.0000 C   0  0  0  0  0  0  0  0  0  0  0  0
   -1.5011   -0.5515    0.0000 C   0  0  0  0  0  0  0  0  0  0  0  0
   -3.0144   -2.6385    0.0000 C   0  0  0  0  0  0  0  0  0  0  0  0
    4.4559    0.6989    0.0000 C   0  0  0  0  0  0  0  0  0  0  0  0
    3.9483   -0.9464    0.0000 C   0  0  0  0  0  0  0  0  0  0  0  0
   -4.6597   -2.1308    0.0000 C   0  0  0  0  0  0  0  0  0  0  0  0
   -1.7390   -1.4635    0.0000 F   0  0  0  0  0  0  0  0  0  0  0  0
   -3.9828   -2.8641    0.0000 C   0  0  0  0  0  0  0  0  0  0  0  0
   -5.6404   -2.3565    0.0000 F   0  0  0  0  0  0  0  0  0  0  0  0
    5.6404   -0.5610    0.0000 C   0  0  0  0  0  0  0  0  0  0  0  0
  1  2  1  0  0  0  0
  3  6  2  0  0  0  0
  3  5  1  0  0  0  0
  1  4  2  0  0  0  0
  2  5  1  0  0  0  0
  4  6  1  0  0  0  0
  1  7  1  0  0  0  0
  8 13  1  0  0  0  0
  9 20  1  0  0  0  0
  9 19  1  0  0  0  0
  3 10  1  0  0  0  0
  6 11  1  0  0  0  0
 12 23  1  0  0  0  0
 12 22  1  0  0  0  0
  9 13  1  0  0  0  0
  8 14  2  0  0  0  0
  5 15  2  0  0  0  0
  8 16  1  0  0  0  0
  7 17  1  0  0  0  0
  7 18  1  0  0  0  0
 10 19  1  0  0  0  0
 11 20  1  0  0  0  0
 14 21  1  0  0  0  0
 21 26  2  0  0  0  0
 17 22  1  0  0  0  0
 18 23  1  0  0  0  0
 16 24  2  0  0  0  0
 14 25  1  0  0  0  0
 24 26  1  0  0  0  0
 24 27  1  0  0  0  0
 12 28  1  0  0  0  0
M  END
> <IDNUMBER>
S039-3679

> <available>
1

> <H_acceptor>
5

> <H_donor>
1

> <B_rotN>
3

> <N_O>
6

> <logP>
1.8037

> <logD>
0.584

> <logSw>
-2.5192

> <PSA>
45.276

> <pKa_ma>
9.6889

> <pKa_mb>
8.5927

> <N_Chirals>
0

> <Name>
7-[(2,5-difluorophenyl)methyl]-2-(4-methylpiperazin-1-yl)-3,5,6,7,8,9-hexahydro-4H-pyrimido[4,5-d]azepin-4-one

> <Smile>
CN(CC1)CCN1C(N1)=NC(CCN(Cc(cc(cc2)F)c2F)CC2)=C2C1=O

> <Color>
NOT COLORED

> <Collection>
IC

> <InChI>
InChI=1S/C20H25F2N5O/c1-25-8-10-27(11-9-25)20-23-18-5-7-26(6-4-16(18)19(28)24-20)13-14-12-15(21)2-3-17(14)22/h2-3,12H,4-11,13H2,1H3,(H,23,24,28)

> <InChI Key>
HXZPGVSUKKWVJZ-UHFFFAOYSA-N

> <PERCENTSP3>
50

> <Link>
https://www.chemdiv.com/catalog/screening-compounds/compound-S039-3679/

> <MFCDNUMBER>
MFCD29000063

> <CLNUMBER>
CM2417

> <STEREO>
ACHIRAL

> <State>
Solid

> <Similarity score>
0.25

$$$$
7-[(5-chloro-2-fluorophenyl)methyl]-2-(morpholin-4-yl)-3,5,6,7,8,9-hexahydro-4H-
  -OEChem-04222410502D

 27 30  0     0  0  0  0  0  0999 V2000
    2.2857    0.6125    0.0000 C   0  0  0  0  0  0  0  0  0  0  0  0
    2.0693    1.5962    0.0000 N   0  0  0  0  0  0  0  0  0  0  0  0
    0.3774    1.2014    0.0000 C   0  0  0  0  0  0  0  0  0  0  0  0
    1.5524   -0.0673    0.0000 N   0  0  0  0  0  0  0  0  0  0  0  0
    1.1106    1.8812    0.0000 C   0  0  0  0  0  0  0  0  0  0  0  0
    0.5938    0.2335    0.0000 C   0  0  0  0  0  0  0  0  0  0  0  0
    3.2443    0.3178    0.0000 N   0  0  0  0  0  0  0  0  0  0  0  0
   -2.9216   -0.9509    0.0000 C   0  0  0  0  0  0  0  0  0  0  0  0
   -1.6432    0.2335    0.0000 N   0  0  0  0  0  0  0  0  0  0  0  0
   -0.5152    1.6339    0.0000 C   0  0  0  0  0  0  0  0  0  0  0  0
   -0.0203   -0.5468    0.0000 C   0  0  0  0  0  0  0  0  0  0  0  0
   -2.6209    0.0077    0.0000 C   0  0  0  0  0  0  0  0  0  0  0  0
   -2.2386   -1.6841    0.0000 C   0  0  0  0  0  0  0  0  0  0  0  0
    0.8852    2.8588    0.0000 O   0  0  0  0  0  0  0  0  0  0  0  0
   -3.8896   -1.1670    0.0000 C   0  0  0  0  0  0  0  0  0  0  0  0
   -1.4272    1.2014    0.0000 C   0  0  0  0  0  0  0  0  0  0  0  0
   -1.0230   -0.5468    0.0000 C   0  0  0  0  0  0  0  0  0  0  0  0
    5.1522   -0.2740    0.0000 O   0  0  0  0  0  0  0  0  0  0  0  0
   -2.5268   -2.6334    0.0000 C   0  0  0  0  0  0  0  0  0  0  0  0
   -4.1843   -2.1259    0.0000 C   0  0  0  0  0  0  0  0  0  0  0  0
   -1.2578   -1.4584    0.0000 F   0  0  0  0  0  0  0  0  0  0  0  0
   -3.5042   -2.8588    0.0000 C   0  0  0  0  0  0  0  0  0  0  0  0
   -5.1522   -2.3420    0.0000 Cl  0  0  0  0  0  0  0  0  0  0  0  0
    3.4604   -0.6501    0.0000 C   0  0  0  0  0  0  0  0  0  0  0  0
    3.9772    1.0040    0.0000 C   0  0  0  0  0  0  0  0  0  0  0  0
    4.9362    0.7065    0.0000 C   0  0  0  0  0  0  0  0  0  0  0  0
    4.4190   -0.9509    0.0000 C   0  0  0  0  0  0  0  0  0  0  0  0
  1  2  1  0  0  0  0
  3  6  2  0  0  0  0
  3  5  1  0  0  0  0
  1  4  2  0  0  0  0
  2  5  1  0  0  0  0
  4  6  1  0  0  0  0
  1  7  1  0  0  0  0
  8 12  1  0  0  0  0
  9 17  1  0  0  0  0
  9 16  1  0  0  0  0
  3 10  1  0  0  0  0
  6 11  1  0  0  0  0
  9 12  1  0  0  0  0
  8 13  2  0  0  0  0
  5 14  2  0  0  0  0
  8 15  1  0  0  0  0
 10 16  1  0  0  0  0
 11 17  1  0  0  0  0
 18 26  1  0  0  0  0
 18 27  1  0  0  0  0
 13 19  1  0  0  0  0
 19 22  2  0  0  0  0
 15 20  2  0  0  0  0
 13 21  1  0  0  0  0
 20 22  1  0  0  0  0
 20 23  1  0  0  0  0
  7 24  1  0  0  0  0
  7 25  1  0  0  0  0
 25 26  1  0  0  0  0
 24 27  1  0  0  0  0
M  END
> <IDNUMBER>
S039-3182

> <available>
17

> <H_acceptor>
5

> <H_donor>
1

> <B_rotN>
3

> <N_O>
6

> <logP>
2.2817

> <logD>
2.1419

> <logSw>
-3.452

> <PSA>
49.708

> <pKa_ma>
9.6889

> <pKa_mb>
6.9712

> <N_Chirals>
0

> <Name>
7-[(5-chloro-2-fluorophenyl)methyl]-2-(morpholin-4-yl)-3,5,6,7,8,9-hexahydro-4H-pyrimido[4,5-d]azepin-4-one

> <Smile>
O=C1NC(N2CCOCC2)=NC2=C1CCN(Cc(cc(cc1)Cl)c1F)CC2

> <Color>
NOT COLORED

> <Collection>
IC

> <InChI>
InChI=1S/C19H22ClFN4O2/c20-14-1-2-16(21)13(11-14)12-24-5-3-15-17(4-6-24)22-19(23-18(15)26)25-7-9-27-10-8-25/h1-2,11H,3-10,12H2,(H,22,23,26)

> <InChI Key>
LWVLGXXCIKKWBK-UHFFFAOYSA-N

> <PERCENTSP3>
47.4

> <Link>
https://www.chemdiv.com/catalog/screening-compounds/compound-S039-3182/

> <MFCDNUMBER>
MFCD29000064

> <CLNUMBER>
CM2417

> <STEREO>
ACHIRAL

> <State>
Solid

> <Similarity score>
0.25

$$$$
7-[(5-chloro-2-fluorophenyl)methyl]-2-(4-methylpiperazin-1-yl)-3,5,6,7,8,9-hexah
  -OEChem-04222410502D

 28 31  0     0  0  0  0  0  0999 V2000
    1.8176    0.6079    0.0000 C   0  0  0  0  0  0  0  0  0  0  0  0
    1.5920    1.5918    0.0000 N   0  0  0  0  0  0  0  0  0  0  0  0
   -0.1033    1.2065    0.0000 C   0  0  0  0  0  0  0  0  0  0  0  0
    1.0812   -0.0689    0.0000 N   0  0  0  0  0  0  0  0  0  0  0  0
    0.6300    1.8834    0.0000 C   0  0  0  0  0  0  0  0  0  0  0  0
    0.1223    0.2286    0.0000 C   0  0  0  0  0  0  0  0  0  0  0  0
    2.7765    0.3164    0.0000 N   0  0  0  0  0  0  0  0  0  0  0  0
   -3.3998   -0.9464    0.0000 C   0  0  0  0  0  0  0  0  0  0  0  0
   -2.1215    0.2286    0.0000 N   0  0  0  0  0  0  0  0  0  0  0  0
   -1.0058    1.6387    0.0000 C   0  0  0  0  0  0  0  0  0  0  0  0
   -0.4981   -0.5515    0.0000 C   0  0  0  0  0  0  0  0  0  0  0  0
    4.6815   -0.2695    0.0000 N   0  0  0  0  0  0  0  0  0  0  0  0
   -3.1022    0.0030    0.0000 C   0  0  0  0  0  0  0  0  0  0  0  0
   -2.7074   -1.6796    0.0000 C   0  0  0  0  0  0  0  0  0  0  0  0
    0.4167    2.8641    0.0000 O   0  0  0  0  0  0  0  0  0  0  0  0
   -4.3681   -1.1720    0.0000 C   0  0  0  0  0  0  0  0  0  0  0  0
    3.5097    1.0028    0.0000 C   0  0  0  0  0  0  0  0  0  0  0  0
    3.0021   -0.6548    0.0000 C   0  0  0  0  0  0  0  0  0  0  0  0
   -1.8959    1.2065    0.0000 C   0  0  0  0  0  0  0  0  0  0  0  0
   -1.5011   -0.5515    0.0000 C   0  0  0  0  0  0  0  0  0  0  0  0
   -3.0144   -2.6385    0.0000 C   0  0  0  0  0  0  0  0  0  0  0  0
    4.4559    0.6989    0.0000 C   0  0  0  0  0  0  0  0  0  0  0  0
    3.9483   -0.9464    0.0000 C   0  0  0  0  0  0  0  0  0  0  0  0
   -4.6597   -2.1308    0.0000 C   0  0  0  0  0  0  0  0  0  0  0  0
   -1.7390   -1.4635    0.0000 F   0  0  0  0  0  0  0  0  0  0  0  0
   -3.9828   -2.8641    0.0000 C   0  0  0  0  0  0  0  0  0  0  0  0
   -5.6404   -2.3565    0.0000 Cl  0  0  0  0  0  0  0  0  0  0  0  0
    5.6404   -0.5610    0.0000 C   0  0  0  0  0  0  0  0  0  0  0  0
  1  2  1  0  0  0  0
  3  6  2  0  0  0  0
  3  5  1  0  0  0  0
  1  4  2  0  0  0  0
  2  5  1  0  0  0  0
  4  6  1  0  0  0  0
  1  7  1  0  0  0  0
  8 13  1  0  0  0  0
  9 20  1  0  0  0  0
  9 19  1  0  0  0  0
  3 10  1  0  0  0  0
  6 11  1  0  0  0  0
 12 23  1  0  0  0  0
 12 22  1  0  0  0  0
  9 13  1  0  0  0  0
  8 14  2  0  0  0  0
  5 15  2  0  0  0  0
  8 16  1  0  0  0  0
  7 17  1  0  0  0  0
  7 18  1  0  0  0  0
 10 19  1  0  0  0  0
 11 20  1  0  0  0  0
 14 21  1  0  0  0  0
 21 26  2  0  0  0  0
 17 22  1  0  0  0  0
 18 23  1  0  0  0  0
 16 24  2  0  0  0  0
 14 25  1  0  0  0  0
 24 26  1  0  0  0  0
 24 27  1  0  0  0  0
 12 28  1  0  0  0  0
M  END
> <IDNUMBER>
S039-3683

> <available>
28

> <H_acceptor>
5

> <H_donor>
1

> <B_rotN>
3

> <N_O>
6

> <logP>
2.2585

> <logD>
1.0387

> <logSw>
-3.4434

> <PSA>
45.276

> <pKa_ma>
9.6889

> <pKa_mb>
8.5927

> <N_Chirals>
0

> <Name>
7-[(5-chloro-2-fluorophenyl)methyl]-2-(4-methylpiperazin-1-yl)-3,5,6,7,8,9-hexahydro-4H-pyrimido[4,5-d]azepin-4-one

> <Smile>
CN(CC1)CCN1C(N1)=NC(CCN(Cc(cc(cc2)Cl)c2F)CC2)=C2C1=O

> <Color>
NOT COLORED

> <Collection>
IC

> <InChI>
InChI=1S/C20H25ClFN5O/c1-25-8-10-27(11-9-25)20-23-18-5-7-26(6-4-16(18)19(28)24-20)13-14-12-15(21)2-3-17(14)22/h2-3,12H,4-11,13H2,1H3,(H,23,24,28)

> <InChI Key>
BXQGVDAKYZEHKC-UHFFFAOYSA-N

> <PERCENTSP3>
50

> <Link>
https://www.chemdiv.com/catalog/screening-compounds/compound-S039-3683/

> <MFCDNUMBER>
MFCD28999067

> <CLNUMBER>
CM2417

> <STEREO>
ACHIRAL

> <State>
Solid

> <Similarity score>
0.24

$$$$
7-[(2,4-difluorophenyl)methyl]-2-(4-methylpiperazin-1-yl)-3,5,6,7,8,9-hexahydro-
  -OEChem-04222410502D

 28 31  0     0  0  0  0  0  0999 V2000
    1.5151    1.0982    0.0000 C   0  0  0  0  0  0  0  0  0  0  0  0
    1.3052    2.0696    0.0000 N   0  0  0  0  0  0  0  0  0  0  0  0
   -0.3932    1.6844    0.0000 C   0  0  0  0  0  0  0  0  0  0  0  0
    0.7911    0.4122    0.0000 N   0  0  0  0  0  0  0  0  0  0  0  0
    0.3401    2.3580    0.0000 C   0  0  0  0  0  0  0  0  0  0  0  0
   -0.1709    0.7037    0.0000 C   0  0  0  0  0  0  0  0  0  0  0  0
    2.4768    0.7975    0.0000 N   0  0  0  0  0  0  0  0  0  0  0  0
   -3.6895   -0.4717    0.0000 C   0  0  0  0  0  0  0  0  0  0  0  0
   -2.4144    0.7037    0.0000 N   0  0  0  0  0  0  0  0  0  0  0  0
   -1.2955    2.1136    0.0000 C   0  0  0  0  0  0  0  0  0  0  0  0
   -4.6609   -0.6970    0.0000 C   0  0  0  0  0  0  0  0  0  0  0  0
   -0.7881   -0.0674    0.0000 C   0  0  0  0  0  0  0  0  0  0  0  0
    4.3915    0.2083    0.0000 N   0  0  0  0  0  0  0  0  0  0  0  0
   -4.9616   -1.6466    0.0000 C   0  0  0  0  0  0  0  0  0  0  0  0
   -3.3858    0.4874    0.0000 C   0  0  0  0  0  0  0  0  0  0  0  0
    0.1145    3.3387    0.0000 O   0  0  0  0  0  0  0  0  0  0  0  0
    3.2072    1.4838    0.0000 C   0  0  0  0  0  0  0  0  0  0  0  0
    2.7058   -0.1769    0.0000 C   0  0  0  0  0  0  0  0  0  0  0  0
   -3.0159   -1.2017    0.0000 C   0  0  0  0  0  0  0  0  0  0  0  0
   -2.1887    1.6844    0.0000 C   0  0  0  0  0  0  0  0  0  0  0  0
   -1.7939   -0.0674    0.0000 C   0  0  0  0  0  0  0  0  0  0  0  0
   -4.2850   -2.3890    0.0000 C   0  0  0  0  0  0  0  0  0  0  0  0
    3.6551   -0.4717    0.0000 C   0  0  0  0  0  0  0  0  0  0  0  0
    4.1659    1.1830    0.0000 C   0  0  0  0  0  0  0  0  0  0  0  0
   -5.3408    0.0424    0.0000 F   0  0  0  0  0  0  0  0  0  0  0  0
   -3.3010   -2.1634    0.0000 C   0  0  0  0  0  0  0  0  0  0  0  0
   -4.5764   -3.3387    0.0000 F   0  0  0  0  0  0  0  0  0  0  0  0
    5.3408   -0.0861    0.0000 C   0  0  0  0  0  0  0  0  0  0  0  0
  1  2  1  0  0  0  0
  3  6  2  0  0  0  0
  3  5  1  0  0  0  0
  1  4  2  0  0  0  0
  2  5  1  0  0  0  0
  4  6  1  0  0  0  0
  1  7  1  0  0  0  0
  8 15  1  0  0  0  0
  9 21  1  0  0  0  0
  9 20  1  0  0  0  0
  3 10  1  0  0  0  0
  8 11  2  0  0  0  0
  6 12  1  0  0  0  0
 13 23  1  0  0  0  0
 13 24  1  0  0  0  0
 11 14  1  0  0  0  0
 14 22  2  0  0  0  0
  9 15  1  0  0  0  0
  5 16  2  0  0  0  0
  7 17  1  0  0  0  0
  7 18  1  0  0  0  0
  8 19  1  0  0  0  0
 10 20  1  0  0  0  0
 12 21  1  0  0  0  0
 22 26  1  0  0  0  0
 18 23  1  0  0  0  0
 17 24  1  0  0  0  0
 11 25  1  0  0  0  0
 19 26  2  0  0  0  0
 22 27  1  0  0  0  0
 13 28  1  0  0  0  0
M  END
> <IDNUMBER>
S039-3665

> <available>
1

> <H_acceptor>
5

> <H_donor>
1

> <B_rotN>
3

> <N_O>
6

> <logP>
1.6717

> <logD>
0.452

> <logSw>
-2.4529

> <PSA>
45.276

> <pKa_ma>
9.6889

> <pKa_mb>
8.5927

> <N_Chirals>
0

> <Name>
7-[(2,4-difluorophenyl)methyl]-2-(4-methylpiperazin-1-yl)-3,5,6,7,8,9-hexahydro-4H-pyrimido[4,5-d]azepin-4-one

> <Smile>
CN(CC1)CCN1C(N1)=NC(CCN(Cc(ccc(F)c2)c2F)CC2)=C2C1=O

> <Color>
NOT COLORED

> <Collection>
IC

> <InChI>
InChI=1S/C20H25F2N5O/c1-25-8-10-27(11-9-25)20-23-18-5-7-26(6-4-16(18)19(28)24-20)13-14-2-3-15(21)12-17(14)22/h2-3,12H,4-11,13H2,1H3,(H,23,24,28)

> <InChI Key>
BVOBTXVCGMXIMZ-UHFFFAOYSA-N

> <PERCENTSP3>
50

> <Link>
https://www.chemdiv.com/catalog/screening-compounds/compound-S039-3665/

> <MFCDNUMBER>
MFCD28999058

> <CLNUMBER>
CM2417

> <STEREO>
ACHIRAL

> <State>
Solid

> <Similarity score>
0.24

$$$$
1-amino-N-(2,4-dimethoxyphenyl)-7-methyl-5-(morpholin-4-yl)-6,7,8,9-tetrahydroth
  -OEChem-04222410502D

 34 38  0     0  0  0  0  0  0999 V2000
   -0.0647    0.4770    0.0000 C   0  0  0  0  0  0  0  0  0  0  0  0
   -1.6025    0.9772    0.0000 C   0  0  0  0  0  0  0  0  0  0  0  0
   -0.6523    1.2814    0.0000 C   0  0  0  0  0  0  0  0  0  0  0  0
   -3.3277    0.9772    0.0000 C   0  0  0  0  0  0  0  0  0  0  0  0
   -1.6025   -0.0230    0.0000 C   0  0  0  0  0  0  0  0  0  0  0  0
   -3.3277   -0.0230    0.0000 C   0  0  0  0  0  0  0  0  0  0  0  0
   -2.4650   -0.5232    0.0000 N   0  0  0  0  0  0  0  0  0  0  0  0
   -0.6523   -0.3355    0.0000 S   0  0  0  0  0  0  0  0  0  0  0  0
   -2.4650    1.4731    0.0000 C   0  0  0  0  0  0  0  0  0  0  0  0
    0.9315    0.4646    0.0000 C   0  0  0  0  0  0  0  0  0  0  0  0
   -4.1944   -0.5232    0.0000 N   0  0  0  0  0  0  0  0  0  0  0  0
    1.4315   -0.3939    0.0000 N   0  0  0  0  0  0  0  0  0  0  0  0
   -4.1944    1.4731    0.0000 C   0  0  0  0  0  0  0  0  0  0  0  0
    2.4359   -0.3939    0.0000 C   0  0  0  0  0  0  0  0  0  0  0  0
   -4.1944    2.4776    0.0000 N   0  0  0  0  0  0  0  0  0  0  0  0
   -2.4650    2.4776    0.0000 C   0  0  0  0  0  0  0  0  0  0  0  0
    2.9359   -1.2649    0.0000 C   0  0  0  0  0  0  0  0  0  0  0  0
    3.9320   -1.2649    0.0000 C   0  0  0  0  0  0  0  0  0  0  0  0
    1.4315    1.3398    0.0000 O   0  0  0  0  0  0  0  0  0  0  0  0
   -0.3479    2.2358    0.0000 N   0  0  0  0  0  0  0  0  0  0  0  0
    2.9359    0.4646    0.0000 C   0  0  0  0  0  0  0  0  0  0  0  0
   -3.3277    2.9776    0.0000 C   0  0  0  0  0  0  0  0  0  0  0  0
   -5.9282   -1.5317    0.0000 O   0  0  0  0  0  0  0  0  0  0  0  0
    4.4320   -0.3939    0.0000 C   0  0  0  0  0  0  0  0  0  0  0  0
    3.9320    0.4646    0.0000 C   0  0  0  0  0  0  0  0  0  0  0  0
    2.4359   -2.1191    0.0000 O   0  0  0  0  0  0  0  0  0  0  0  0
   -4.1944   -1.5317    0.0000 C   0  0  0  0  0  0  0  0  0  0  0  0
   -5.0571   -0.0230    0.0000 C   0  0  0  0  0  0  0  0  0  0  0  0
    5.4322   -0.3939    0.0000 O   0  0  0  0  0  0  0  0  0  0  0  0
   -5.0695    2.9859    0.0000 C   0  0  0  0  0  0  0  0  0  0  0  0
   -5.9282   -0.5232    0.0000 C   0  0  0  0  0  0  0  0  0  0  0  0
   -5.0571   -2.0274    0.0000 C   0  0  0  0  0  0  0  0  0  0  0  0
    2.9359   -2.9859    0.0000 C   0  0  0  0  0  0  0  0  0  0  0  0
    5.9282    0.4770    0.0000 C   0  0  0  0  0  0  0  0  0  0  0  0
  2  3  1  0  0  0  0
  2  5  2  0  0  0  0
  1  3  2  0  0  0  0
  4  9  2  0  0  0  0
  4  6  1  0  0  0  0
  5  8  1  0  0  0  0
  6  7  2  0  0  0  0
  5  7  1  0  0  0  0
  1  8  1  0  0  0  0
  2  9  1  0  0  0  0
  1 10  1  0  0  0  0
  6 11  1  0  0  0  0
 10 12  1  0  0  0  0
  4 13  1  0  0  0  0
 13 15  1  0  0  0  0
 12 14  1  0  0  0  0
 15 22  1  0  0  0  0
  9 16  1  0  0  0  0
 14 17  2  0  0  0  0
 17 18  1  0  0  0  0
 18 24  2  0  0  0  0
 10 19  2  0  0  0  0
  3 20  1  0  0  0  0
 14 21  1  0  0  0  0
 16 22  1  0  0  0  0
 23 31  1  0  0  0  0
 23 32  1  0  0  0  0
 24 25  1  0  0  0  0
 21 25  2  0  0  0  0
 17 26  1  0  0  0  0
 11 27  1  0  0  0  0
 11 28  1  0  0  0  0
 24 29  1  0  0  0  0
 15 30  1  0  0  0  0
 28 31  1  0  0  0  0
 27 32  1  0  0  0  0
 26 33  1  0  0  0  0
 29 34  1  0  0  0  0
M  END
> <IDNUMBER>
IB04-3808

> <available>
50

> <H_acceptor>
7

> <H_donor>
3

> <B_rotN>
6

> <N_O>
9

> <logP>
3.04

> <logD>
1.81

> <logSw>
-3.91

> <PSA>
132.55

> <pKa_ma>
11.28

> <pKa_mb>
8.6

> <N_Chirals>
0

> <Name>
1-amino-N-(2,4-dimethoxyphenyl)-7-methyl-5-(morpholin-4-yl)-6,7,8,9-tetrahydrothieno[2,3-c][2,7]naphthyridine-2-carboxamide

> <Smile>
CN(CCc1c23)Cc1c(N1CCOCC1)nc2sc(C(Nc(ccc(OC)c1)c1OC)=O)c3N

> <Color>
NOT COLORED

> <Collection>
DC

> <InChI>
InChI=1S/C24H29N5O4S/c1-28-7-6-15-16(13-28)22(29-8-10-33-11-9-29)27-24-19(15)20(25)21(34-24)23(30)26-17-5-4-14(31-2)12-18(17)32-3/h4-5,12H,6-11,13,25H2,1-3H3,(H,26,30)

> <InChI Key>
JDFVILXQAFEFBH-UHFFFAOYSA-N

> <PERCENTSP3>
41.7

> <Link>
https://www.chemdiv.com/catalog/screening-compounds/compound-IB04-3808/

> <STEREO>
ACHIRAL

> <State>
Solid

> <Similarity score>
0.24

$$$$
N-(3-methoxyphenyl)-1-(2-methyl-5,6,8,9-tetrahydrooxepino[4,5-d]pyrimidin-4-yl)p
  -OEChem-04222410502D

 29 32  0     0  0  0  0  0  0999 V2000
   -2.8615   -0.4904    0.0000 C   0  0  0  0  0  0  0  0  0  0  0  0
   -3.7175    0.0080    0.0000 C   0  0  0  0  0  0  0  0  0  0  0  0
   -2.8615   -1.4934    0.0000 N   0  0  0  0  0  0  0  0  0  0  0  0
   -1.9871    0.0080    0.0000 N   0  0  0  0  0  0  0  0  0  0  0  0
   -4.5920   -0.4904    0.0000 C   0  0  0  0  0  0  0  0  0  0  0  0
   -4.5920   -1.4934    0.0000 N   0  0  0  0  0  0  0  0  0  0  0  0
    0.6175    1.5061    0.0000 C   0  0  0  0  0  0  0  0  0  0  0  0
   -3.7175   -1.9918    0.0000 C   0  0  0  0  0  0  0  0  0  0  0  0
    1.4731    0.9953    0.0000 N   0  0  0  0  0  0  0  0  0  0  0  0
   -0.2570    0.9953    0.0000 C   0  0  0  0  0  0  0  0  0  0  0  0
   -1.9871    1.0048    0.0000 C   0  0  0  0  0  0  0  0  0  0  0  0
   -1.1253   -0.4904    0.0000 C   0  0  0  0  0  0  0  0  0  0  0  0
    2.3475    1.4937    0.0000 C   0  0  0  0  0  0  0  0  0  0  0  0
    0.6175    2.5091    0.0000 O   0  0  0  0  0  0  0  0  0  0  0  0
    3.2097    0.9953    0.0000 C   0  0  0  0  0  0  0  0  0  0  0  0
   -1.1126    1.5061    0.0000 C   0  0  0  0  0  0  0  0  0  0  0  0
   -0.2570   -0.0015    0.0000 C   0  0  0  0  0  0  0  0  0  0  0  0
   -5.2406    1.6567    0.0000 O   0  0  0  0  0  0  0  0  0  0  0  0
   -5.5227   -0.1143    0.0000 C   0  0  0  0  0  0  0  0  0  0  0  0
    4.0780    1.4937    0.0000 C   0  0  0  0  0  0  0  0  0  0  0  0
   -3.5668    0.9953    0.0000 C   0  0  0  0  0  0  0  0  0  0  0  0
    4.9397    0.9953    0.0000 O   0  0  0  0  0  0  0  0  0  0  0  0
   -3.7298   -2.9919    0.0000 C   0  0  0  0  0  0  0  0  0  0  0  0
   -5.8080    0.8353    0.0000 C   0  0  0  0  0  0  0  0  0  0  0  0
    3.2220    2.9919    0.0000 C   0  0  0  0  0  0  0  0  0  0  0  0
   -4.2533    1.7380    0.0000 C   0  0  0  0  0  0  0  0  0  0  0  0
    2.3475    2.4935    0.0000 C   0  0  0  0  0  0  0  0  0  0  0  0
    4.0780    2.4935    0.0000 C   0  0  0  0  0  0  0  0  0  0  0  0
    5.8080    1.4937    0.0000 C   0  0  0  0  0  0  0  0  0  0  0  0
  1  2  1  0  0  0  0
  1  3  2  0  0  0  0
  1  4  1  0  0  0  0
  2  5  2  0  0  0  0
  6  8  2  0  0  0  0
  5  6  1  0  0  0  0
  7 10  1  0  0  0  0
  3  8  1  0  0  0  0
  7  9  1  0  0  0  0
 10 17  1  0  0  0  0
  4 11  1  0  0  0  0
  4 12  1  0  0  0  0
  9 13  1  0  0  0  0
  7 14  2  0  0  0  0
 13 15  2  0  0  0  0
 11 16  1  0  0  0  0
 10 16  1  0  0  0  0
 12 17  1  0  0  0  0
 18 26  1  0  0  0  0
  5 19  1  0  0  0  0
 15 20  1  0  0  0  0
  2 21  1  0  0  0  0
 20 22  1  0  0  0  0
  8 23  1  0  0  0  0
 19 24  1  0  0  0  0
 18 24  1  0  0  0  0
 25 27  2  0  0  0  0
 21 26  1  0  0  0  0
 13 27  1  0  0  0  0
 25 28  1  0  0  0  0
 20 28  2  0  0  0  0
 22 29  1  0  0  0  0
M  END
> <IDNUMBER>
S896-0376

> <available>
1

> <H_acceptor>
6

> <H_donor>
1

> <B_rotN>
5

> <N_O>
7

> <logP>
2.9178

> <logD>
2.9068

> <logSw>
-3.325

> <PSA>
62.104

> <pKa_ma>
11.0969

> <pKa_mb>
5.8035

> <N_Chirals>
0

> <Name>
N-(3-methoxyphenyl)-1-(2-methyl-5,6,8,9-tetrahydrooxepino[4,5-d]pyrimidin-4-yl)piperidine-4-carboxamide

> <Smile>
Cc1nc(CCOCC2)c2c(N(CC2)CCC2C(Nc2cc(OC)ccc2)=O)n1

> <Color>
YELLOW

> <Collection>
IC

> <InChI>
InChI=1S/C22H28N4O3/c1-15-23-20-9-13-29-12-8-19(20)21(24-15)26-10-6-16(7-11-26)22(27)25-17-4-3-5-18(14-17)28-2/h3-5,14,16H,6-13H2,1-2H3,(H,25,27)

> <InChI Key>
URUWRLLCCCQVHG-UHFFFAOYSA-N

> <PERCENTSP3>
50

> <Link>
https://www.chemdiv.com/catalog/screening-compounds/compound-S896-0376/

> <MFCDNUMBER>
MFCD31957143

> <CLNUMBER>
CM3993

> <STEREO>
ACHIRAL

> <State>
Solid

> <Similarity score>
0.24

$$$$
N-(3,4-dimethoxyphenyl)-2-(9-fluoro-6-methyl-10-oxo-3,4,5,10-tetrahydrobenzo[b][
  -OEChem-04222410502D

 31 34  0     0  0  0  0  0  0999 V2000
   -0.8899   -1.9568    0.0000 C   0  0  0  0  0  0  0  0  0  0  0  0
   -1.7672   -1.4585    0.0000 C   0  0  0  0  0  0  0  0  0  0  0  0
   -2.6415   -1.9568    0.0000 C   0  0  0  0  0  0  0  0  0  0  0  0
   -1.7829   -3.4421    0.0000 N   0  0  0  0  0  0  0  0  0  0  0  0
   -2.6415   -2.9344    0.0000 C   0  0  0  0  0  0  0  0  0  0  0  0
   -0.8899   -2.9532    0.0000 C   0  0  0  0  0  0  0  0  0  0  0  0
    0.8678   -1.9568    0.0000 N   0  0  0  0  0  0  0  0  0  0  0  0
    0.0032   -1.4773    0.0000 C   0  0  0  0  0  0  0  0  0  0  0  0
    1.7608   -0.4967    0.0000 C   0  0  0  0  0  0  0  0  0  0  0  0
   -3.5345   -1.4773    0.0000 C   0  0  0  0  0  0  0  0  0  0  0  0
   -0.0156   -3.4421    0.0000 C   0  0  0  0  0  0  0  0  0  0  0  0
    3.5376    1.4491    0.0000 C   0  0  0  0  0  0  0  0  0  0  0  0
    3.5376    2.4330    0.0000 C   0  0  0  0  0  0  0  0  0  0  0  0
   -3.5345   -3.4233    0.0000 C   0  0  0  0  0  0  0  0  0  0  0  0
    2.6539   -0.0110    0.0000 N   0  0  0  0  0  0  0  0  0  0  0  0
   -1.7672   -0.4779    0.0000 O   0  0  0  0  0  0  0  0  0  0  0  0
    2.6539    0.9759    0.0000 C   0  0  0  0  0  0  0  0  0  0  0  0
    1.7608   -1.4773    0.0000 C   0  0  0  0  0  0  0  0  0  0  0  0
    2.6539    2.9220    0.0000 C   0  0  0  0  0  0  0  0  0  0  0  0
    0.8678   -0.0110    0.0000 O   0  0  0  0  0  0  0  0  0  0  0  0
    0.8678   -2.9532    0.0000 C   0  0  0  0  0  0  0  0  0  0  0  0
   -4.4088   -1.9568    0.0000 C   0  0  0  0  0  0  0  0  0  0  0  0
   -4.4088   -2.9344    0.0000 C   0  0  0  0  0  0  0  0  0  0  0  0
    1.7796    2.4330    0.0000 C   0  0  0  0  0  0  0  0  0  0  0  0
    1.7796    1.4491    0.0000 C   0  0  0  0  0  0  0  0  0  0  0  0
   -3.5439   -0.4685    0.0000 F   0  0  0  0  0  0  0  0  0  0  0  0
    4.4088    2.9438    0.0000 O   0  0  0  0  0  0  0  0  0  0  0  0
    2.6539    3.9183    0.0000 O   0  0  0  0  0  0  0  0  0  0  0  0
   -3.5439   -4.4197    0.0000 C   0  0  0  0  0  0  0  0  0  0  0  0
    4.3897    3.9465    0.0000 C   0  0  0  0  0  0  0  0  0  0  0  0
    1.7984    4.4197    0.0000 C   0  0  0  0  0  0  0  0  0  0  0  0
  1  2  1  0  0  0  0
  2  3  1  0  0  0  0
  3  5  1  0  0  0  0
  4  6  1  0  0  0  0
  4  5  1  0  0  0  0
  1  6  2  0  0  0  0
  7  8  1  0  0  0  0
  1  8  1  0  0  0  0
  9 18  1  0  0  0  0
  3 10  2  0  0  0  0
  6 11  1  0  0  0  0
 11 21  1  0  0  0  0
 12 17  1  0  0  0  0
 12 13  2  0  0  0  0
 13 19  1  0  0  0  0
  5 14  2  0  0  0  0
  9 15  1  0  0  0  0
  2 16  2  0  0  0  0
 15 17  1  0  0  0  0
  7 18  1  0  0  0  0
 19 24  2  0  0  0  0
  9 20  2  0  0  0  0
  7 21  1  0  0  0  0
 10 22  1  0  0  0  0
 22 23  2  0  0  0  0
 14 23  1  0  0  0  0
 24 25  1  0  0  0  0
 17 25  2  0  0  0  0
 10 26  1  0  0  0  0
 13 27  1  0  0  0  0
 19 28  1  0  0  0  0
 14 29  1  0  0  0  0
 27 30  1  0  0  0  0
 28 31  1  0  0  0  0
M  END
> <IDNUMBER>
L489-1903

> <available>
84

> <H_acceptor>
7

> <H_donor>
2

> <B_rotN>
6

> <N_O>
7

> <logP>
3.1341

> <logD>
2.2371

> <logSw>
-3.0764

> <PSA>
64.072

> <pKa_ma>
6.5619

> <pKa_mb>
2.3077

> <N_Chirals>
0

> <Name>
N-(3,4-dimethoxyphenyl)-2-(9-fluoro-6-methyl-10-oxo-3,4,5,10-tetrahydrobenzo[b][1,6]naphthyridin-2(1H)-yl)acetamide

> <Smile>
Cc(ccc(F)c12)c2NC(CCN(CC(Nc(cc2)cc(OC)c2OC)=O)C2)=C2C1=O

> <Color>
ORANGE

> <Collection>
NC

> <InChI>
InChI=1S/C23H24FN3O4/c1-13-4-6-16(24)21-22(13)26-17-8-9-27(11-15(17)23(21)29)12-20(28)25-14-5-7-18(30-2)19(10-14)31-3/h4-7,10H,8-9,11-12H2,1-3H3,(H,25,28)(H,26,29)

> <InChI Key>
ROXCJPIGJMSJLC-UHFFFAOYSA-N

> <PERCENTSP3>
30.4

> <Link>
https://www.chemdiv.com/catalog/screening-compounds/compound-L489-1903/

> <MFCDNUMBER>
MFCD27457669

> <CLNUMBER>
CL8213A

> <STEREO>
ACHIRAL

> <State>
Solid

> <Similarity score>
0.24

$$$$
2-(6,9-difluoro-10-oxo-3,4,5,10-tetrahydrobenzo[b][1,6]naphthyridin-2(1H)-yl)-N-
  -OEChem-04222410502D

 30 33  0     0  0  0  0  0  0999 V2000
   -0.4781   -2.4438    0.0000 C   0  0  0  0  0  0  0  0  0  0  0  0
   -1.3340   -1.9391    0.0000 C   0  0  0  0  0  0  0  0  0  0  0  0
   -2.2182   -2.4438    0.0000 C   0  0  0  0  0  0  0  0  0  0  0  0
   -1.3623   -3.9302    0.0000 N   0  0  0  0  0  0  0  0  0  0  0  0
   -2.2182   -3.4252    0.0000 C   0  0  0  0  0  0  0  0  0  0  0  0
   -0.4781   -3.4348    0.0000 C   0  0  0  0  0  0  0  0  0  0  0  0
    1.3153   -2.4438    0.0000 N   0  0  0  0  0  0  0  0  0  0  0  0
    0.4310   -1.9579    0.0000 C   0  0  0  0  0  0  0  0  0  0  0  0
    2.1933   -0.9765    0.0000 C   0  0  0  0  0  0  0  0  0  0  0  0
   -3.1055   -1.9579    0.0000 C   0  0  0  0  0  0  0  0  0  0  0  0
    0.4154   -3.9302    0.0000 C   0  0  0  0  0  0  0  0  0  0  0  0
   -3.1055   -3.9302    0.0000 C   0  0  0  0  0  0  0  0  0  0  0  0
   -1.3340   -0.9673    0.0000 O   0  0  0  0  0  0  0  0  0  0  0  0
    3.0963   -0.4905    0.0000 N   0  0  0  0  0  0  0  0  0  0  0  0
    2.1933   -1.9579    0.0000 C   0  0  0  0  0  0  0  0  0  0  0  0
    1.3153   -0.4905    0.0000 O   0  0  0  0  0  0  0  0  0  0  0  0
    1.3153   -3.4348    0.0000 C   0  0  0  0  0  0  0  0  0  0  0  0
   -3.9802   -2.4438    0.0000 C   0  0  0  0  0  0  0  0  0  0  0  0
   -3.9802   -3.4252    0.0000 C   0  0  0  0  0  0  0  0  0  0  0  0
    3.0963    0.4905    0.0000 C   0  0  0  0  0  0  0  0  0  0  0  0
   -3.1055   -0.9673    0.0000 F   0  0  0  0  0  0  0  0  0  0  0  0
   -3.1147   -4.9209    0.0000 F   0  0  0  0  0  0  0  0  0  0  0  0
    3.0963    2.4438    0.0000 C   0  0  0  0  0  0  0  0  0  0  0  0
    2.2213    0.9765    0.0000 C   0  0  0  0  0  0  0  0  0  0  0  0
    3.9802    0.9765    0.0000 C   0  0  0  0  0  0  0  0  0  0  0  0
    3.9802    1.9579    0.0000 C   0  0  0  0  0  0  0  0  0  0  0  0
    2.2213    1.9579    0.0000 C   0  0  0  0  0  0  0  0  0  0  0  0
    3.0963    3.4348    0.0000 O   0  0  0  0  0  0  0  0  0  0  0  0
    2.2308    3.9395    0.0000 C   0  0  0  0  0  0  0  0  0  0  0  0
    2.2308    4.9209    0.0000 C   0  0  0  0  0  0  0  0  0  0  0  0
  1  2  1  0  0  0  0
  2  3  1  0  0  0  0
  3  5  1  0  0  0  0
  4  6  1  0  0  0  0
  4  5  1  0  0  0  0
  1  6  2  0  0  0  0
  7  8  1  0  0  0  0
  1  8  1  0  0  0  0
  9 15  1  0  0  0  0
  3 10  2  0  0  0  0
  6 11  1  0  0  0  0
 11 17  1  0  0  0  0
  5 12  2  0  0  0  0
  2 13  2  0  0  0  0
  9 14  1  0  0  0  0
  7 15  1  0  0  0  0
  9 16  2  0  0  0  0
  7 17  1  0  0  0  0
 10 18  1  0  0  0  0
 18 19  2  0  0  0  0
 12 19  1  0  0  0  0
 14 20  1  0  0  0  0
 10 21  1  0  0  0  0
 12 22  1  0  0  0  0
 23 26  1  0  0  0  0
 23 27  2  0  0  0  0
 20 24  2  0  0  0  0
 20 25  1  0  0  0  0
 25 26  2  0  0  0  0
 24 27  1  0  0  0  0
 23 28  1  0  0  0  0
 28 29  1  0  0  0  0
 29 30  1  0  0  0  0
M  END
> <IDNUMBER>
L489-2047

> <available>
79

> <H_acceptor>
6

> <H_donor>
2

> <B_rotN>
6

> <N_O>
6

> <logP>
3.7877

> <logD>
1.3017

> <logSw>
-4.1282

> <PSA>
55.935

> <pKa_ma>
4.9155

> <pKa_mb>
2.5395

> <N_Chirals>
0

> <Name>
2-(6,9-difluoro-10-oxo-3,4,5,10-tetrahydrobenzo[b][1,6]naphthyridin-2(1H)-yl)-N-(4-ethoxyphenyl)acetamide

> <Smile>
CCOc(cc1)ccc1NC(CN(CC1)CC(C(c2c(cc3)F)=O)=C1Nc2c3F)=O

> <Color>
YELLOW

> <Collection>
NC

> <InChI>
InChI=1S/C22H21F2N3O3/c1-2-30-14-5-3-13(4-6-14)25-19(28)12-27-10-9-18-15(11-27)22(29)20-16(23)7-8-17(24)21(20)26-18/h3-8H,2,9-12H2,1H3,(H,25,28)(H,26,29)

> <InChI Key>
RWFCGZVXZZBZBT-UHFFFAOYSA-N

> <PERCENTSP3>
27.3

> <Link>
https://www.chemdiv.com/catalog/screening-compounds/compound-L489-2047/

> <MFCDNUMBER>
MFCD20754336

> <CLNUMBER>
CL8213A

> <STEREO>
ACHIRAL

> <State>
Solid

> <Similarity score>
0.24

$$$$
N-(1-methyl-1,2,3,4-tetrahydroquinolin-7-yl)-4-oxo-2-phenyl-4,5,6,7,8,9-hexahydr
  -OEChem-04222410502D

 32 36  0     0  0  0  0  0  0999 V2000
   -0.6732    0.4689    0.0000 C   0  0  0  0  0  0  0  0  0  0  0  0
   -2.3987    0.4314    0.0000 N   0  0  0  0  0  0  0  0  0  0  0  0
   -1.5568    1.9443    0.0000 N   0  0  0  0  0  0  0  0  0  0  0  0
   -0.6940    1.4693    0.0000 C   0  0  0  0  0  0  0  0  0  0  0  0
   -2.4194    1.4318    0.0000 C   0  0  0  0  0  0  0  0  0  0  0  0
   -1.5234   -0.0520    0.0000 C   0  0  0  0  0  0  0  0  0  0  0  0
    3.5199   -0.8273    0.0000 C   0  0  0  0  0  0  0  0  0  0  0  0
    0.5313   -2.5321    0.0000 C   0  0  0  0  0  0  0  0  0  0  0  0
    4.5327   -0.8189    0.0000 N   0  0  0  0  0  0  0  0  0  0  0  0
    1.5275   -2.5321    0.0000 N   0  0  0  0  0  0  0  0  0  0  0  0
    0.2688    0.1312    0.0000 C   0  0  0  0  0  0  0  0  0  0  0  0
    3.0322   -1.6776    0.0000 C   0  0  0  0  0  0  0  0  0  0  0  0
    2.0318   -1.6776    0.0000 C   0  0  0  0  0  0  0  0  0  0  0  0
    0.1520    2.0194    0.0000 O   0  0  0  0  0  0  0  0  0  0  0  0
    0.0312   -1.6651    0.0000 C   0  0  3  0  0  0  0  0  0  0  0  0
   -1.6443   -1.0314    0.0000 C   0  0  0  0  0  0  0  0  0  0  0  0
    3.0280    0.0687    0.0000 C   0  0  0  0  0  0  0  0  0  0  0  0
   -3.2990    1.9111    0.0000 C   0  0  0  0  0  0  0  0  0  0  0  0
    0.0396   -3.3947    0.0000 O   0  0  0  0  0  0  0  0  0  0  0  0
    0.5774   -0.8189    0.0000 C   0  0  0  0  0  0  0  0  0  0  0  0
   -0.9439   -1.7444    0.0000 C   0  0  0  0  0  0  0  0  0  0  0  0
    2.0276    0.0604    0.0000 C   0  0  0  0  0  0  0  0  0  0  0  0
    1.5317   -0.8148    0.0000 C   0  0  0  0  0  0  0  0  0  0  0  0
    5.0453    0.0563    0.0000 C   0  0  0  0  0  0  0  0  0  0  0  0
    5.0202   -1.6900    0.0000 C   0  0  0  0  0  0  0  0  0  0  0  0
    4.5327    0.9357    0.0000 C   0  0  0  0  0  0  0  0  0  0  0  0
    3.5281    0.9315    0.0000 C   0  0  0  0  0  0  0  0  0  0  0  0
   -3.3198    2.9113    0.0000 C   0  0  0  0  0  0  0  0  0  0  0  0
   -4.1576    1.3985    0.0000 C   0  0  0  0  0  0  0  0  0  0  0  0
   -5.0328    1.8735    0.0000 C   0  0  0  0  0  0  0  0  0  0  0  0
   -4.1950    3.3947    0.0000 C   0  0  0  0  0  0  0  0  0  0  0  0
   -5.0453    2.8821    0.0000 C   0  0  0  0  0  0  0  0  0  0  0  0
  2  6  1  0  0  0  0
  3  4  1  0  0  0  0
  1  4  1  0  0  0  0
  2  5  2  0  0  0  0
  3  5  1  0  0  0  0
  1  6  2  0  0  0  0
  7 12  2  0  0  0  0
  7 17  1  0  0  0  0
  8 15  1  0  0  0  0
  7  9  1  0  0  0  0
  8 10  1  0  0  0  0
  1 11  1  0  0  0  0
 12 13  1  0  0  0  0
 10 13  1  0  0  0  0
  4 14  2  0  0  0  0
 15 20  1  0  0  0  0
  6 16  1  0  0  0  0
 17 22  2  0  0  0  0
  5 18  1  0  0  0  0
  8 19  2  0  0  0  0
 11 20  1  0  0  0  0
 16 21  1  0  0  0  0
 15 21  1  0  0  0  0
 22 23  1  0  0  0  0
 13 23  2  0  0  0  0
  9 24  1  0  0  0  0
  9 25  1  0  0  0  0
 26 27  1  0  0  0  0
 24 26  1  0  0  0  0
 17 27  1  0  0  0  0
 18 28  2  0  0  0  0
 18 29  1  0  0  0  0
 29 30  2  0  0  0  0
 28 31  1  0  0  0  0
 31 32  2  0  0  0  0
 30 32  1  0  0  0  0
M  END
> <IDNUMBER>
SB25-0977

> <available>
15

> <H_acceptor>
5

> <H_donor>
2

> <B_rotN>
4

> <N_O>
6

> <logP>
3.0127

> <logD>
2.6563

> <logSw>
-3.5733

> <PSA>
60.834

> <pKa_ma>
7.2956

> <pKa_mb>
5.1601

> <N_Chirals>
1

> <Name>
N-(1-methyl-1,2,3,4-tetrahydroquinolin-7-yl)-4-oxo-2-phenyl-4,5,6,7,8,9-hexahydro-3H-cyclohepta[d]pyrimidine-7-carboxamide

> <Smile>
CN(CCC1)c2c1ccc(NC(C(CC1)CCC(N=C(c3ccccc3)N3)=C1C3=O)=O)c2

> <Color>
ORANGE

> <Collection>
IC

> <InChI>
InChI=1S/C26H28N4O2/c1-30-15-5-8-17-9-12-20(16-23(17)30)27-25(31)19-10-13-21-22(14-11-19)28-24(29-26(21)32)18-6-3-2-4-7-18/h2-4,6-7,9,12,16,19H,5,8,10-11,13-15H2,1H3,(H,27,31)(H,28,29,32)/t19-/m1/s1

> <InChI Key>
IWWUSKRBFHAJRU-LJQANCHMSA-N

> <PERCENTSP3>
34.62

> <Link>
https://www.chemdiv.com/catalog/screening-compounds/compound-SB25-0977/

> <MFCDNUMBER>
MFCD32247380

> <CLNUMBER>
CM3995

> <STEREO>
RACEMIC MIXTURE

> <State>
Solid

> <Similarity score>
0.24

$$$$
N-{4-[3-(6-fluoro-1,3,4,9-tetrahydro-2H-pyrido[3,4-b]indol-2-yl)-2,5-dioxopyrrol
  -OEChem-04222410502D

 31 35  0     0  0  0  0  0  0999 V2000
    1.6794   -0.1228    0.0000 N   0  0  0  0  0  0  0  0  0  0  0  0
    0.7001    0.0896    0.0000 C   0  0  0  0  0  0  0  0  0  0  0  0
    1.7835   -1.1232    0.0000 C   0  0  0  0  0  0  0  0  0  0  0  0
   -2.1836   -1.9146    0.0000 C   0  0  0  0  0  0  0  0  0  0  0  0
    0.2083   -0.7816    0.0000 C   0  0  3  0  0  0  0  0  0  0  0  0
   -2.7795   -1.1022    0.0000 C   0  0  0  0  0  0  0  0  0  0  0  0
    0.8710   -1.5232    0.0000 C   0  0  0  0  0  0  0  0  0  0  0  0
   -0.7833   -0.8898    0.0000 N   0  0  3  0  0  0  0  0  0  0  0  0
   -2.7795   -2.7357    0.0000 N   0  0  0  0  0  0  0  0  0  0  0  0
   -3.7337   -1.4189    0.0000 C   0  0  0  0  0  0  0  0  0  0  0  0
   -3.7337   -2.4230    0.0000 C   0  0  0  0  0  0  0  0  0  0  0  0
   -1.1877   -1.8064    0.0000 C   0  0  0  0  0  0  0  0  0  0  0  0
    2.4210    0.5479    0.0000 C   0  0  0  0  0  0  0  0  0  0  0  0
   -2.3753   -0.1731    0.0000 C   0  0  0  0  0  0  0  0  0  0  0  0
    0.3001    0.9938    0.0000 O   0  0  0  0  0  0  0  0  0  0  0  0
   -1.3793   -0.0686    0.0000 C   0  0  0  0  0  0  0  0  0  0  0  0
    2.6544   -1.6106    0.0000 O   0  0  0  0  0  0  0  0  0  0  0  0
    5.5840    2.2481    0.0000 C   0  0  0  0  0  0  0  0  0  0  0  0
   -4.6049   -0.9313    0.0000 C   0  0  0  0  0  0  0  0  0  0  0  0
    4.6423    2.5526    0.0000 N   0  0  0  0  0  0  0  0  0  0  0  0
   -4.6049   -2.9106    0.0000 C   0  0  0  0  0  0  0  0  0  0  0  0
    5.7965    1.2690    0.0000 O   0  0  0  0  0  0  0  0  0  0  0  0
    2.2086    1.5107    0.0000 C   0  0  0  0  0  0  0  0  0  0  0  0
    3.3713    0.2356    0.0000 C   0  0  0  0  0  0  0  0  0  0  0  0
    3.9005    1.8857    0.0000 C   0  0  0  0  0  0  0  0  0  0  0  0
   -5.4632   -1.4272    0.0000 C   0  0  0  0  0  0  0  0  0  0  0  0
   -5.4632   -2.4230    0.0000 C   0  0  0  0  0  0  0  0  0  0  0  0
    4.1131    0.9105    0.0000 C   0  0  0  0  0  0  0  0  0  0  0  0
    2.9462    2.1900    0.0000 C   0  0  0  0  0  0  0  0  0  0  0  0
   -6.3300   -0.9313    0.0000 F   0  0  0  0  0  0  0  0  0  0  0  0
    6.3300    2.9106    0.0000 C   0  0  0  0  0  0  0  0  0  0  0  0
  1  2  1  0  0  0  0
  1  3  1  0  0  0  0
  4 12  1  0  0  0  0
  2  5  1  0  0  0  0
  5  7  1  0  0  0  0
  6 14  1  0  0  0  0
  4  6  2  0  0  0  0
  3  7  1  0  0  0  0
  5  8  1  0  0  0  0
  4  9  1  0  0  0  0
  6 10  1  0  0  0  0
 10 11  1  0  0  0  0
  9 11  1  0  0  0  0
  8 12  1  0  0  0  0
  1 13  1  0  0  0  0
 14 16  1  0  0  0  0
  2 15  2  0  0  0  0
  8 16  1  0  0  0  0
  3 17  2  0  0  0  0
 18 20  1  0  0  0  0
 10 19  2  0  0  0  0
 20 25  1  0  0  0  0
 11 21  2  0  0  0  0
 18 22  2  0  0  0  0
 13 23  1  0  0  0  0
 13 24  2  0  0  0  0
 25 28  2  0  0  0  0
 19 26  1  0  0  0  0
 26 27  2  0  0  0  0
 21 27  1  0  0  0  0
 24 28  1  0  0  0  0
 23 29  2  0  0  0  0
 25 29  1  0  0  0  0
 26 30  1  0  0  0  0
 18 31  1  0  0  0  0
M  END
> <IDNUMBER>
Y020-3929

> <available>
19

> <H_acceptor>
7

> <H_donor>
2

> <B_rotN>
4

> <N_O>
7

> <logP>
0.94

> <logD>
0.94

> <logSw>
-2.2294

> <PSA>
65.762

> <pKa_ma>
12.7279

> <pKa_mb>
2.076

> <N_Chirals>
1

> <Name>
N-{4-[3-(6-fluoro-1,3,4,9-tetrahydro-2H-pyrido[3,4-b]indol-2-yl)-2,5-dioxopyrrolidin-1-yl]phenyl}acetamide

> <Smile>
CC(Nc(cc1)ccc1N(C(CC1N(CC2)Cc3c2c(cc(cc2)F)c2[nH]3)=O)C1=O)=O

> <Color>
NOT COLORED

> <Collection>
DC

> <InChI>
InChI=1S/C23H21FN4O3/c1-13(29)25-15-3-5-16(6-4-15)28-22(30)11-21(23(28)31)27-9-8-17-18-10-14(24)2-7-19(18)26-20(17)12-27/h2-7,10,21,26H,8-9,11-12H2,1H3,(H,25,29)/t21-/m0/s1

> <InChI Key>
GNBWBCRENPWLOY-NRFANRHFSA-N

> <PERCENTSP3>
26.1

> <Link>
https://www.chemdiv.com/catalog/screening-compounds/compound-Y020-3929/

> <MFCDNUMBER>
MFCD12215438

> <CLNUMBER>
CL2165

> <STEREO>
RACEMIC MIXTURE

> <State>
Solid

> <Similarity score>
0.24

$$$$
2-(4-methylpiperazin-1-yl)-6-[(3-methylthiophen-2-yl)methyl]-4-(morpholin-4-yl)-
  -OEChem-04222410502D

 30 34  0     0  0  0  0  0  0999 V2000
    1.6643   -0.2521    0.0000 N   0  0  0  0  0  0  0  0  0  0  0  0
    0.7978    0.2521    0.0000 C   0  0  0  0  0  0  0  0  0  0  0  0
    1.6602   -1.2563    0.0000 C   0  0  0  0  0  0  0  0  0  0  0  0
   -0.0686   -0.2479    0.0000 C   0  0  0  0  0  0  0  0  0  0  0  0
    0.7895   -1.7478    0.0000 N   0  0  0  0  0  0  0  0  0  0  0  0
   -0.0729   -1.2478    0.0000 C   0  0  0  0  0  0  0  0  0  0  0  0
    2.5226   -1.7603    0.0000 N   0  0  0  0  0  0  0  0  0  0  0  0
   -3.5308   -0.2521    0.0000 C   0  0  0  0  0  0  0  0  0  0  0  0
    0.7978    1.2560    0.0000 N   0  0  0  0  0  0  0  0  0  0  0  0
   -1.7976   -0.2479    0.0000 N   0  0  0  0  0  0  0  0  0  0  0  0
   -3.6349   -1.2435    0.0000 C   0  0  0  0  0  0  0  0  0  0  0  0
   -0.9312    0.2602    0.0000 C   0  0  0  0  0  0  0  0  0  0  0  0
   -4.4473    0.1478    0.0000 S   0  0  0  0  0  0  0  0  0  0  0  0
   -2.6641    0.2521    0.0000 C   0  0  0  0  0  0  0  0  0  0  0  0
    4.2515   -2.7602    0.0000 N   0  0  0  0  0  0  0  0  0  0  0  0
   -0.9312   -1.7437    0.0000 C   0  0  0  0  0  0  0  0  0  0  0  0
   -5.1181   -0.6063    0.0000 C   0  0  0  0  0  0  0  0  0  0  0  0
   -4.6016   -1.4519    0.0000 C   0  0  0  0  0  0  0  0  0  0  0  0
    2.5184   -2.7642    0.0000 C   0  0  0  0  0  0  0  0  0  0  0  0
    3.3934   -1.2643    0.0000 C   0  0  0  0  0  0  0  0  0  0  0  0
   -1.7976   -1.2478    0.0000 C   0  0  0  0  0  0  0  0  0  0  0  0
    0.8269    3.2642    0.0000 O   0  0  0  0  0  0  0  0  0  0  0  0
    4.2515   -1.7645    0.0000 C   0  0  0  0  0  0  0  0  0  0  0  0
    3.3848   -3.2601    0.0000 C   0  0  0  0  0  0  0  0  0  0  0  0
   -0.0605    1.7685    0.0000 C   0  0  0  0  0  0  0  0  0  0  0  0
    1.6643    1.7477    0.0000 C   0  0  0  0  0  0  0  0  0  0  0  0
    5.1181   -3.2642    0.0000 C   0  0  0  0  0  0  0  0  0  0  0  0
   -2.8808   -1.9143    0.0000 C   0  0  0  0  0  0  0  0  0  0  0  0
    1.6768    2.7558    0.0000 C   0  0  0  0  0  0  0  0  0  0  0  0
   -0.0478    2.7766    0.0000 C   0  0  0  0  0  0  0  0  0  0  0  0
  1  2  2  0  0  0  0
  1  3  1  0  0  0  0
  2  4  1  0  0  0  0
  3  5  2  0  0  0  0
  5  6  1  0  0  0  0
  4  6  2  0  0  0  0
  3  7  1  0  0  0  0
  8 14  1  0  0  0  0
  2  9  1  0  0  0  0
 10 12  1  0  0  0  0
  8 11  2  0  0  0  0
  4 12  1  0  0  0  0
  8 13  1  0  0  0  0
 10 14  1  0  0  0  0
 15 23  1  0  0  0  0
 15 24  1  0  0  0  0
  6 16  1  0  0  0  0
 13 17  1  0  0  0  0
 11 18  1  0  0  0  0
 17 18  2  0  0  0  0
  7 19  1  0  0  0  0
  7 20  1  0  0  0  0
 16 21  1  0  0  0  0
 10 21  1  0  0  0  0
 22 30  1  0  0  0  0
 20 23  1  0  0  0  0
 19 24  1  0  0  0  0
  9 25  1  0  0  0  0
  9 26  1  0  0  0  0
 15 27  1  0  0  0  0
 11 28  1  0  0  0  0
 26 29  1  0  0  0  0
 22 29  1  0  0  0  0
 25 30  1  0  0  0  0
M  END
> <IDNUMBER>
V021-1644

> <available>
1

> <H_acceptor>
5

> <H_donor>
0

> <B_rotN>
4

> <N_O>
7

> <logP>
3.0379

> <logD>
2.466

> <logSw>
-2.9719

> <PSA>
41.873

> <pKa_ma>
20.5827

> <pKa_mb>
7.8364

> <N_Chirals>
0

> <Name>
2-(4-methylpiperazin-1-yl)-6-[(3-methylthiophen-2-yl)methyl]-4-(morpholin-4-yl)-5,6,7,8-tetrahydropyrido[4,3-d]pyrimidine

> <Smile>
Cc1c(CN2Cc3c(N4CCOCC4)nc(N4CCN(C)CC4)nc3CC2)scc1

> <Color>
NOT COLORED

> <Collection>
DC

> <InChI>
InChI=1S/C22H32N6OS/c1-17-4-14-30-20(17)16-26-5-3-19-18(15-26)21(27-10-12-29-13-11-27)24-22(23-19)28-8-6-25(2)7-9-28/h4,14H,3,5-13,15-16H2,1-2H3

> <InChI Key>
GEKDMXHQOXWYBO-UHFFFAOYSA-N

> <PERCENTSP3>
63.6

> <Link>
https://www.chemdiv.com/catalog/screening-compounds/compound-V021-1644/

> <MFCDNUMBER>
MFCD19932398

> <STEREO>
ACHIRAL

> <State>
Solid

> <Similarity score>
0.24

$$$$
4-[4-(2,5-dimethylphenyl)piperazin-1-yl]-2-methyl-5,6,8,9-tetrahydrooxepino[4,5-
  -OEChem-04222410502D

 26 29  0     0  0  0  0  0  0999 V2000
    1.8034    0.0486    0.0000 C   0  0  0  0  0  0  0  0  0  0  0  0
    1.8722    1.0511    0.0000 C   0  0  0  0  0  0  0  0  0  0  0  0
    2.6306   -0.5093    0.0000 N   0  0  0  0  0  0  0  0  0  0  0  0
    0.9040   -0.3776    0.0000 N   0  0  0  0  0  0  0  0  0  0  0  0
    2.7808    1.4867    0.0000 C   0  0  0  0  0  0  0  0  0  0  0  0
    3.5988    0.9196    0.0000 N   0  0  0  0  0  0  0  0  0  0  0  0
   -0.9040   -1.2486    0.0000 N   0  0  0  0  0  0  0  0  0  0  0  0
   -1.8034   -1.6843    0.0000 C   0  0  0  0  0  0  0  0  0  0  0  0
    3.5267   -0.0831    0.0000 C   0  0  0  0  0  0  0  0  0  0  0  0
    0.8289   -1.3803    0.0000 C   0  0  0  0  0  0  0  0  0  0  0  0
    0.0675    0.1895    0.0000 C   0  0  0  0  0  0  0  0  0  0  0  0
   -1.8722   -2.6776    0.0000 C   0  0  0  0  0  0  0  0  0  0  0  0
   -0.0675   -1.8065    0.0000 C   0  0  0  0  0  0  0  0  0  0  0  0
   -0.8256   -0.2554    0.0000 C   0  0  0  0  0  0  0  0  0  0  0  0
   -2.6306   -1.1202    0.0000 C   0  0  0  0  0  0  0  0  0  0  0  0
    1.3739    3.2447    0.0000 O   0  0  0  0  0  0  0  0  0  0  0  0
   -2.7808   -3.1132    0.0000 C   0  0  0  0  0  0  0  0  0  0  0  0
    3.0067    2.4612    0.0000 C   0  0  0  0  0  0  0  0  0  0  0  0
   -3.5267   -1.5526    0.0000 C   0  0  0  0  0  0  0  0  0  0  0  0
    0.9761    1.4867    0.0000 C   0  0  0  0  0  0  0  0  0  0  0  0
   -3.5988   -2.5491    0.0000 C   0  0  0  0  0  0  0  0  0  0  0  0
    4.3540   -0.6410    0.0000 C   0  0  0  0  0  0  0  0  0  0  0  0
    2.3800    3.2447    0.0000 C   0  0  0  0  0  0  0  0  0  0  0  0
    0.7505    2.4612    0.0000 C   0  0  0  0  0  0  0  0  0  0  0  0
   -1.0545   -3.2447    0.0000 C   0  0  0  0  0  0  0  0  0  0  0  0
   -4.3540   -0.9888    0.0000 C   0  0  0  0  0  0  0  0  0  0  0  0
  1  2  1  0  0  0  0
  1  3  2  0  0  0  0
  1  4  1  0  0  0  0
  2  5  2  0  0  0  0
  6  9  2  0  0  0  0
  5  6  1  0  0  0  0
  7 14  1  0  0  0  0
  7  8  1  0  0  0  0
  3  9  1  0  0  0  0
  4 10  1  0  0  0  0
  4 11  1  0  0  0  0
  8 12  2  0  0  0  0
 10 13  1  0  0  0  0
  7 13  1  0  0  0  0
 11 14  1  0  0  0  0
  8 15  1  0  0  0  0
 16 24  1  0  0  0  0
 12 17  1  0  0  0  0
  5 18  1  0  0  0  0
 15 19  2  0  0  0  0
  2 20  1  0  0  0  0
 19 21  1  0  0  0  0
 17 21  2  0  0  0  0
  9 22  1  0  0  0  0
 18 23  1  0  0  0  0
 16 23  1  0  0  0  0
 20 24  1  0  0  0  0
 12 25  1  0  0  0  0
 19 26  1  0  0  0  0
M  END
> <IDNUMBER>
S896-0075

> <available>
1

> <H_acceptor>
3

> <H_donor>
0

> <B_rotN>
2

> <N_O>
5

> <logP>
4.3291

> <logD>
4.3183

> <logSw>
-4.3926

> <PSA>
34.428

> <pKa_ma>
19.7965

> <pKa_mb>
5.8035

> <N_Chirals>
0

> <Name>
4-[4-(2,5-dimethylphenyl)piperazin-1-yl]-2-methyl-5,6,8,9-tetrahydrooxepino[4,5-d]pyrimidine

> <Smile>
Cc1cc(N(CC2)CCN2c2nc(C)nc3c2CCOCC3)c(C)cc1

> <Color>
YELLOW

> <Collection>
IC

> <InChI>
InChI=1S/C21H28N4O/c1-15-4-5-16(2)20(14-15)24-8-10-25(11-9-24)21-18-6-12-26-13-7-19(18)22-17(3)23-21/h4-5,14H,6-13H2,1-3H3

> <InChI Key>
ZBWHFBHCHARHOR-UHFFFAOYSA-N

> <PERCENTSP3>
52.38

> <Link>
https://www.chemdiv.com/catalog/screening-compounds/compound-S896-0075/

> <MFCDNUMBER>
MFCD31957780

> <CLNUMBER>
CM3993

> <STEREO>
ACHIRAL

> <State>
Solid

> <Similarity score>
0.24

$$$$
7-[(2,5-difluorophenyl)methyl]-2-(dimethylamino)-3,5,6,7,8,9-hexahydro-4H-pyrimi
  -OEChem-04222410502D

 24 26  0     0  0  0  0  0  0999 V2000
   -2.8811    0.6166    0.0000 C   0  0  0  0  0  0  0  0  0  0  0  0
   -2.6562    1.5916    0.0000 N   0  0  0  0  0  0  0  0  0  0  0  0
   -0.9688    1.2041    0.0000 C   0  0  0  0  0  0  0  0  0  0  0  0
   -2.1478   -0.0667    0.0000 N   0  0  0  0  0  0  0  0  0  0  0  0
   -1.7062    1.8915    0.0000 C   0  0  0  0  0  0  0  0  0  0  0  0
   -1.1937    0.2291    0.0000 C   0  0  0  0  0  0  0  0  0  0  0  0
    2.3187   -0.9458    0.0000 C   0  0  0  0  0  0  0  0  0  0  0  0
    1.0562    0.2291    0.0000 N   0  0  0  0  0  0  0  0  0  0  0  0
   -0.0688    1.6415    0.0000 C   0  0  0  0  0  0  0  0  0  0  0  0
   -3.8353    0.3167    0.0000 N   0  0  0  0  0  0  0  0  0  0  0  0
   -0.5686   -0.5542    0.0000 C   0  0  0  0  0  0  0  0  0  0  0  0
    2.0312    0.0041    0.0000 C   0  0  0  0  0  0  0  0  0  0  0  0
    1.6435   -1.6832    0.0000 C   0  0  0  0  0  0  0  0  0  0  0  0
   -1.4812    2.8582    0.0000 O   0  0  0  0  0  0  0  0  0  0  0  0
    3.2935   -1.1708    0.0000 C   0  0  0  0  0  0  0  0  0  0  0  0
    0.8312    1.2041    0.0000 C   0  0  0  0  0  0  0  0  0  0  0  0
    0.4313   -0.5542    0.0000 C   0  0  0  0  0  0  0  0  0  0  0  0
    1.9394   -2.6332    0.0000 C   0  0  0  0  0  0  0  0  0  0  0  0
    3.5936   -2.1291    0.0000 C   0  0  0  0  0  0  0  0  0  0  0  0
    0.6687   -1.4582    0.0000 F   0  0  0  0  0  0  0  0  0  0  0  0
    2.9143   -2.8582    0.0000 C   0  0  0  0  0  0  0  0  0  0  0  0
    4.5686   -2.3457    0.0000 F   0  0  0  0  0  0  0  0  0  0  0  0
   -4.0602   -0.6583    0.0000 C   0  0  0  0  0  0  0  0  0  0  0  0
   -4.5686    1.0041    0.0000 C   0  0  0  0  0  0  0  0  0  0  0  0
  1  2  1  0  0  0  0
  3  6  2  0  0  0  0
  3  5  1  0  0  0  0
  1  4  2  0  0  0  0
  2  5  1  0  0  0  0
  4  6  1  0  0  0  0
  7 12  1  0  0  0  0
  8 17  1  0  0  0  0
  3  9  1  0  0  0  0
  1 10  1  0  0  0  0
  6 11  1  0  0  0  0
  8 12  1  0  0  0  0
  7 13  2  0  0  0  0
  5 14  2  0  0  0  0
  7 15  1  0  0  0  0
  9 16  1  0  0  0  0
  8 16  1  0  0  0  0
 11 17  1  0  0  0  0
 13 18  1  0  0  0  0
 18 21  2  0  0  0  0
 15 19  2  0  0  0  0
 13 20  1  0  0  0  0
 19 21  1  0  0  0  0
 19 22  1  0  0  0  0
 10 23  1  0  0  0  0
 10 24  1  0  0  0  0
M  END
> <IDNUMBER>
S039-1692

> <available>
5

> <H_acceptor>
4

> <H_donor>
1

> <B_rotN>
3

> <N_O>
5

> <logP>
1.8694

> <logD>
1.6825

> <logSw>
-2.6105

> <PSA>
41.151

> <pKa_ma>
8.7946

> <pKa_mb>
7.0794

> <N_Chirals>
0

> <Name>
7-[(2,5-difluorophenyl)methyl]-2-(dimethylamino)-3,5,6,7,8,9-hexahydro-4H-pyrimido[4,5-d]azepin-4-one

> <Smile>
CN(C)C(N1)=NC(CCN(Cc(cc(cc2)F)c2F)CC2)=C2C1=O

> <Color>
NOT COLORED

> <Collection>
IC

> <InChI>
InChI=1S/C17H20F2N4O/c1-22(2)17-20-15-6-8-23(7-5-13(15)16(24)21-17)10-11-9-12(18)3-4-14(11)19/h3-4,9H,5-8,10H2,1-2H3,(H,20,21,24)

> <InChI Key>
VQINYOXRWAJJNJ-UHFFFAOYSA-N

> <PERCENTSP3>
41.2

> <Link>
https://www.chemdiv.com/catalog/screening-compounds/compound-S039-1692/

> <MFCDNUMBER>
MFCD28999958

> <CLNUMBER>
CM2417

> <STEREO>
ACHIRAL

> <State>
Solid

> <Similarity score>
0.24

$$$$
2-[4-(4-cyano-1-propyl-6,7-dihydro-5H-cyclopenta[c]pyridin-3-yl)piperazin-1-yl]-
  -OEChem-04222410502D

 34 37  0     0  0  0  0  0  0999 V2000
   -1.3901   -2.0048    0.0000 C   0  0  0  0  0  0  0  0  0  0  0  0
   -2.2528   -1.5087    0.0000 C   0  0  0  0  0  0  0  0  0  0  0  0
   -1.3901   -3.0051    0.0000 N   0  0  0  0  0  0  0  0  0  0  0  0
   -3.1155   -2.0048    0.0000 C   0  0  0  0  0  0  0  0  0  0  0  0
   -0.5272   -1.5087    0.0000 N   0  0  0  0  0  0  0  0  0  0  0  0
   -2.2528   -3.5010    0.0000 C   0  0  0  0  0  0  0  0  0  0  0  0
   -3.1283   -3.0092    0.0000 C   0  0  0  0  0  0  0  0  0  0  0  0
   -2.2528   -0.5085    0.0000 C   0  0  0  0  0  0  0  0  0  0  0  0
    2.0691    1.0003    0.0000 C   0  0  0  0  0  0  0  0  0  0  0  0
    2.9318    1.5005    0.0000 N   0  0  0  0  0  0  0  0  0  0  0  0
   -2.2528    0.4877    0.0000 N   0  0  0  0  0  0  0  0  0  0  0  0
    2.9318    2.5090    0.0000 C   0  0  0  0  0  0  0  0  0  0  0  0
    1.2107   -0.5085    0.0000 N   0  0  0  0  0  0  0  0  0  0  0  0
    3.7947    3.0092    0.0000 C   0  0  0  0  0  0  0  0  0  0  0  0
    3.7947    4.0054    0.0000 C   0  0  0  0  0  0  0  0  0  0  0  0
   -0.5272   -0.5085    0.0000 C   0  0  0  0  0  0  0  0  0  0  0  0
    0.3314   -2.0131    0.0000 C   0  0  0  0  0  0  0  0  0  0  0  0
    2.0691    0.0041    0.0000 C   0  0  0  0  0  0  0  0  0  0  0  0
    1.2107    1.5005    0.0000 O   0  0  0  0  0  0  0  0  0  0  0  0
    2.0691    3.0092    0.0000 C   0  0  0  0  0  0  0  0  0  0  0  0
    1.2107   -1.5087    0.0000 C   0  0  0  0  0  0  0  0  0  0  0  0
    0.3314   -0.0126    0.0000 C   0  0  0  0  0  0  0  0  0  0  0  0
    2.9318    4.5139    0.0000 C   0  0  0  0  0  0  0  0  0  0  0  0
    2.0691    4.0054    0.0000 C   0  0  0  0  0  0  0  0  0  0  0  0
    4.6702    2.5008    0.0000 O   0  0  0  0  0  0  0  0  0  0  0  0
   -4.0700   -1.6879    0.0000 C   0  0  0  0  0  0  0  0  0  0  0  0
   -4.0824   -3.3134    0.0000 C   0  0  0  0  0  0  0  0  0  0  0  0
   -2.2528   -4.5013    0.0000 C   0  0  0  0  0  0  0  0  0  0  0  0
    2.9485    5.5016    0.0000 O   0  0  0  0  0  0  0  0  0  0  0  0
   -4.6702   -2.4965    0.0000 C   0  0  0  0  0  0  0  0  0  0  0  0
    4.6574    1.4962    0.0000 C   0  0  0  0  0  0  0  0  0  0  0  0
    3.8112    5.9975    0.0000 C   0  0  0  0  0  0  0  0  0  0  0  0
   -3.1196   -5.0013    0.0000 C   0  0  0  0  0  0  0  0  0  0  0  0
   -3.1283   -5.9975    0.0000 C   0  0  0  0  0  0  0  0  0  0  0  0
  1  2  2  0  0  0  0
  1  3  1  0  0  0  0
  2  4  1  0  0  0  0
  4  7  2  0  0  0  0
  1  5  1  0  0  0  0
  3  6  2  0  0  0  0
  6  7  1  0  0  0  0
  2  8  1  0  0  0  0
  9 18  1  0  0  0  0
  9 10  1  0  0  0  0
  8 11  3  0  0  0  0
 10 12  1  0  0  0  0
 13 21  1  0  0  0  0
 12 14  2  0  0  0  0
 14 15  1  0  0  0  0
  5 16  1  0  0  0  0
  5 17  1  0  0  0  0
 13 18  1  0  0  0  0
  9 19  2  0  0  0  0
 12 20  1  0  0  0  0
 17 21  1  0  0  0  0
 16 22  1  0  0  0  0
 13 22  1  0  0  0  0
 23 24  1  0  0  0  0
 15 23  2  0  0  0  0
 20 24  2  0  0  0  0
 14 25  1  0  0  0  0
  4 26  1  0  0  0  0
  7 27  1  0  0  0  0
 27 30  1  0  0  0  0
  6 28  1  0  0  0  0
 23 29  1  0  0  0  0
 26 30  1  0  0  0  0
 25 31  1  0  0  0  0
 29 32  1  0  0  0  0
 28 33  1  0  0  0  0
 33 34  1  0  0  0  0
M  END
> <IDNUMBER>
IB06-3440

> <available>
50

> <H_acceptor>
7

> <H_donor>
1

> <B_rotN>
10

> <N_O>
8

> <logP>
4.65

> <logD>
4.59

> <logSw>
-5.72

> <PSA>
118.24

> <pKa_ma>
10.81

> <pKa_mb>
6.57

> <N_Chirals>
0

> <Name>
2-[4-(4-cyano-1-propyl-6,7-dihydro-5H-cyclopenta[c]pyridin-3-yl)piperazin-1-yl]-N-(2,4-dimethoxyphenyl)acetamide

> <Smile>
CCCc(nc1N2CCN(CC(Nc(ccc(OC)c3)c3OC)=O)CC2)c(CCC2)c2c1C#N

> <Color>
NOT COLORED

> <Collection>
DC

> <InChI>
InChI=1S/C26H33N5O3/c1-4-6-22-20-8-5-7-19(20)21(16-27)26(29-22)31-13-11-30(12-14-31)17-25(32)28-23-10-9-18(33-2)15-24(23)34-3/h9-10,15H,4-8,11-14,17H2,1-3H3,(H,28,32)

> <InChI Key>
GJOYYKLJYQBYFU-UHFFFAOYSA-N

> <PERCENTSP3>
50

> <Link>
https://www.chemdiv.com/catalog/screening-compounds/compound-IB06-3440/

> <STEREO>
ACHIRAL

> <State>
Solid

> <Similarity score>
0.24

$$$$
N-{4-[3-(6-methoxy-1,3,4,9-tetrahydro-2H-pyrido[3,4-b]indol-2-yl)-2,5-dioxopyrro
  -OEChem-04222410502D

 32 36  0     0  0  0  0  0  0999 V2000
    1.6794   -0.1186    0.0000 N   0  0  0  0  0  0  0  0  0  0  0  0
    0.7001    0.0939    0.0000 C   0  0  0  0  0  0  0  0  0  0  0  0
    1.7833   -1.1146    0.0000 C   0  0  0  0  0  0  0  0  0  0  0  0
   -2.1834   -1.9146    0.0000 C   0  0  0  0  0  0  0  0  0  0  0  0
    0.2125   -0.7731    0.0000 C   0  0  3  0  0  0  0  0  0  0  0  0
   -2.7794   -1.0937    0.0000 C   0  0  0  0  0  0  0  0  0  0  0  0
    0.8709   -1.5189    0.0000 C   0  0  0  0  0  0  0  0  0  0  0  0
   -0.7834   -0.8812    0.0000 N   0  0  3  0  0  0  0  0  0  0  0  0
   -2.7794   -2.7272    0.0000 N   0  0  0  0  0  0  0  0  0  0  0  0
   -3.7335   -1.4105    0.0000 C   0  0  0  0  0  0  0  0  0  0  0  0
   -3.7335   -2.4230    0.0000 C   0  0  0  0  0  0  0  0  0  0  0  0
   -1.1876   -1.8065    0.0000 C   0  0  0  0  0  0  0  0  0  0  0  0
    2.4210    0.5479    0.0000 C   0  0  0  0  0  0  0  0  0  0  0  0
   -2.3752   -0.1730    0.0000 C   0  0  0  0  0  0  0  0  0  0  0  0
    0.3001    0.9939    0.0000 O   0  0  0  0  0  0  0  0  0  0  0  0
   -1.3793   -0.0688    0.0000 C   0  0  0  0  0  0  0  0  0  0  0  0
    2.6543   -1.6021    0.0000 O   0  0  0  0  0  0  0  0  0  0  0  0
    5.5837    2.2481    0.0000 C   0  0  0  0  0  0  0  0  0  0  0  0
   -4.6044   -0.9229    0.0000 C   0  0  0  0  0  0  0  0  0  0  0  0
    4.6503    2.5564    0.0000 N   0  0  0  0  0  0  0  0  0  0  0  0
   -4.6044   -2.9189    0.0000 C   0  0  0  0  0  0  0  0  0  0  0  0
    5.7962    1.2686    0.0000 O   0  0  0  0  0  0  0  0  0  0  0  0
    2.2083    1.5189    0.0000 C   0  0  0  0  0  0  0  0  0  0  0  0
    3.3752    0.2437    0.0000 C   0  0  0  0  0  0  0  0  0  0  0  0
    3.9085    1.8855    0.0000 C   0  0  0  0  0  0  0  0  0  0  0  0
   -5.4544   -1.4272    0.0000 C   0  0  0  0  0  0  0  0  0  0  0  0
   -5.4544   -2.4230    0.0000 C   0  0  0  0  0  0  0  0  0  0  0  0
    4.1210    0.9107    0.0000 C   0  0  0  0  0  0  0  0  0  0  0  0
    2.9502    2.1981    0.0000 C   0  0  0  0  0  0  0  0  0  0  0  0
   -6.3212   -0.9229    0.0000 O   0  0  0  0  0  0  0  0  0  0  0  0
    6.3253    2.9189    0.0000 C   0  0  0  0  0  0  0  0  0  0  0  0
   -6.3253    0.0727    0.0000 C   0  0  0  0  0  0  0  0  0  0  0  0
  1  2  1  0  0  0  0
  1  3  1  0  0  0  0
  4 12  1  0  0  0  0
  2  5  1  0  0  0  0
  5  7  1  0  0  0  0
  6 14  1  0  0  0  0
  4  6  2  0  0  0  0
  3  7  1  0  0  0  0
  5  8  1  0  0  0  0
  4  9  1  0  0  0  0
  6 10  1  0  0  0  0
 10 11  1  0  0  0  0
  9 11  1  0  0  0  0
  8 12  1  0  0  0  0
  1 13  1  0  0  0  0
 14 16  1  0  0  0  0
  2 15  2  0  0  0  0
  8 16  1  0  0  0  0
  3 17  2  0  0  0  0
 18 20  1  0  0  0  0
 10 19  2  0  0  0  0
 20 25  1  0  0  0  0
 11 21  2  0  0  0  0
 18 22  2  0  0  0  0
 13 23  1  0  0  0  0
 13 24  2  0  0  0  0
 25 28  2  0  0  0  0
 19 26  1  0  0  0  0
 26 27  2  0  0  0  0
 21 27  1  0  0  0  0
 24 28  1  0  0  0  0
 23 29  2  0  0  0  0
 25 29  1  0  0  0  0
 26 30  1  0  0  0  0
 18 31  1  0  0  0  0
 30 32  1  0  0  0  0
M  END
> <IDNUMBER>
Y020-3914

> <available>
39

> <H_acceptor>
8

> <H_donor>
2

> <B_rotN>
5

> <N_O>
8

> <logP>
0.8997

> <logD>
0.8997

> <logSw>
-2.2346

> <PSA>
73.305

> <pKa_ma>
12.7279

> <pKa_mb>
2.076

> <N_Chirals>
1

> <Name>
N-{4-[3-(6-methoxy-1,3,4,9-tetrahydro-2H-pyrido[3,4-b]indol-2-yl)-2,5-dioxopyrrolidin-1-yl]phenyl}acetamide

> <Smile>
CC(Nc(cc1)ccc1N(C(CC1N(CC2)Cc3c2c(cc(cc2)OC)c2[nH]3)=O)C1=O)=O

> <Color>
NOT COLORED

> <Collection>
DC

> <InChI>
InChI=1S/C24H24N4O4/c1-14(29)25-15-3-5-16(6-4-15)28-23(30)12-22(24(28)31)27-10-9-18-19-11-17(32-2)7-8-20(19)26-21(18)13-27/h3-8,11,22,26H,9-10,12-13H2,1-2H3,(H,25,29)/t22-/m0/s1

> <InChI Key>
GFHFWGFKMHTSCF-QFIPXVFZSA-N

> <PERCENTSP3>
29.2

> <Link>
https://www.chemdiv.com/catalog/screening-compounds/compound-Y020-3914/

> <MFCDNUMBER>
MFCD12030364

> <CLNUMBER>
CL2165

> <STEREO>
RACEMIC MIXTURE

> <State>
Solid

> <Similarity score>
0.24

$$$$
rel-(3R,4R)-1-[4-cyano-3-(trifluoromethyl)phenyl]-4-(methoxymethyl)-N-(5,6,7,8-t
  -OEChem-04222410502D

 33 36  0     0  0  0  0  0  0999 V2000
   -0.7416    0.0165    0.0000 C   0  0  1  0  0  0  0  0  0  0  0  0
    0.7960    0.5083    0.0000 N   0  0  0  0  0  0  0  0  0  0  0  0
   -1.7418    0.0165    0.0000 C   0  0  0  0  0  0  0  0  0  0  0  0
    4.2462    0.8792    0.0000 C   0  0  0  0  0  0  0  0  0  0  0  0
   -0.1458    0.8291    0.0000 C   0  0  0  0  0  0  0  0  0  0  0  0
    3.3337    1.2918    0.0000 C   0  0  0  0  0  0  0  0  0  0  0  0
   -2.2418   -0.8541    0.0000 N   0  0  0  0  0  0  0  0  0  0  0  0
   -0.1458   -0.7960    0.0000 C   0  0  2  0  0  0  0  0  0  0  0  0
    1.6167    1.1043    0.0000 C   0  0  0  0  0  0  0  0  0  0  0  0
    2.5211    0.6959    0.0000 C   0  0  0  0  0  0  0  0  0  0  0  0
    0.7960   -0.4834    0.0000 C   0  0  0  0  0  0  0  0  0  0  0  0
   -3.2418   -0.8541    0.0000 C   0  0  0  0  0  0  0  0  0  0  0  0
    4.8462    3.4545    0.0000 N   0  0  0  0  0  0  0  0  0  0  0  0
   -3.7420   -1.7210    0.0000 C   0  0  0  0  0  0  0  0  0  0  0  0
    4.0337    2.8667    0.0000 C   0  0  0  0  0  0  0  0  0  0  0  0
    3.2294    2.2835    0.0000 C   0  0  0  0  0  0  0  0  0  0  0  0
   -2.2418    0.8792    0.0000 O   0  0  0  0  0  0  0  0  0  0  0  0
    1.5085    2.0917    0.0000 C   0  0  0  0  0  0  0  0  0  0  0  0
   -4.7420   -1.7210    0.0000 C   0  0  0  0  0  0  0  0  0  0  0  0
    2.3170    2.6791    0.0000 C   0  0  0  0  0  0  0  0  0  0  0  0
    4.3463   -0.1209    0.0000 F   0  0  0  0  0  0  0  0  0  0  0  0
    5.2420    0.9791    0.0000 F   0  0  0  0  0  0  0  0  0  0  0  0
    4.6462    1.7834    0.0000 F   0  0  0  0  0  0  0  0  0  0  0  0
   -0.4667   -1.7461    0.0000 C   0  0  0  0  0  0  0  0  0  0  0  0
   -3.7420    0.0165    0.0000 C   0  0  0  0  0  0  0  0  0  0  0  0
    0.2085   -2.4917    0.0000 O   0  0  0  0  0  0  0  0  0  0  0  0
   -4.7420    0.0165    0.0000 C   0  0  0  0  0  0  0  0  0  0  0  0
   -3.2418   -2.5835    0.0000 C   0  0  0  0  0  0  0  0  0  0  0  0
   -5.2420   -0.8541    0.0000 C   0  0  0  0  0  0  0  0  0  0  0  0
   -5.2420   -2.5835    0.0000 C   0  0  0  0  0  0  0  0  0  0  0  0
   -0.1042   -3.4337    0.0000 C   0  0  0  0  0  0  0  0  0  0  0  0
   -3.7420   -3.4545    0.0000 C   0  0  0  0  0  0  0  0  0  0  0  0
   -4.7420   -3.4545    0.0000 C   0  0  0  0  0  0  0  0  0  0  0  0
  1  3  1  1  0  0  0
  2  5  1  0  0  0  0
  4  6  1  0  0  0  0
  1  5  1  0  0  0  0
  6 10  1  0  0  0  0
  3  7  1  0  0  0  0
  1  8  1  0  0  0  0
  8 24  1  6  0  0  0
  2  9  1  0  0  0  0
  9 10  2  0  0  0  0
  8 11  1  0  0  0  0
  2 11  1  0  0  0  0
  7 12  1  0  0  0  0
 13 15  3  0  0  0  0
 12 14  1  0  0  0  0
 15 16  1  0  0  0  0
 16 20  1  0  0  0  0
  6 16  2  0  0  0  0
  3 17  2  0  0  0  0
  9 18  1  0  0  0  0
 14 19  2  0  0  0  0
 18 20  2  0  0  0  0
  4 21  1  0  0  0  0
  4 22  1  0  0  0  0
  4 23  1  0  0  0  0
 12 25  2  0  0  0  0
 24 26  1  0  0  0  0
 25 27  1  0  0  0  0
 14 28  1  0  0  0  0
 27 29  2  0  0  0  0
 19 29  1  0  0  0  0
 19 30  1  0  0  0  0
 26 31  1  0  0  0  0
 28 32  1  0  0  0  0
 32 33  1  0  0  0  0
 30 33  1  0  0  0  0
M  END
> <IDNUMBER>
S964-0162

> <available>
37

> <H_acceptor>
4

> <H_donor>
1

> <B_rotN>
8

> <N_O>
5

> <logP>
4.8303

> <logD>
4.8303

> <logSw>
-4.5204

> <PSA>
51.718

> <pKa_ma>
11.9488

> <pKa_mb>
1.2428

> <N_Chirals>
2

> <Name>
rel-(3R,4R)-1-[4-cyano-3-(trifluoromethyl)phenyl]-4-(methoxymethyl)-N-(5,6,7,8-tetrahydronaphthalen-1-yl)pyrrolidine-3-carboxamide

> <Smile>
COC[C@@H](CN(C1)c(cc2)cc(C(F)(F)F)c2C#N)[C@H]1C(Nc1c(CCCC2)c2ccc1)=O

> <Color>
NOT COLORED

> <Collection>
IC

> <InChI>
InChI=1S/C25H26F3N3O2/c1-33-15-18-13-31(19-10-9-17(12-29)22(11-19)25(26,27)28)14-21(18)24(32)30-23-8-4-6-16-5-2-3-7-20(16)23/h4,6,8-11,18,21H,2-3,5,7,13-15H2,1H3,(H,30,32)/t18-,21+/m0/s1

> <InChI Key>
BBBQPJCBOZUWAO-GHTZIAJQSA-N

> <PERCENTSP3>
44

> <Link>
https://www.chemdiv.com/catalog/screening-compounds/compound-S964-0162/

> <MFCDNUMBER>
MFCD34645461

> <CLNUMBER>
CM4497

> <STEREO>
RELATIVE

> <State>
Solid

> <Similarity score>
0.24

$$$$
7-(diethylamino)-4-[(2,6-difluorophenyl)methyl]-5,8-difluoro-3,4-dihydro-1lambda
  -OEChem-04222410502D

 28 30  0     0  0  0  0  0  0999 V2000
    0.4307   -1.2487    0.0000 C   0  0  0  0  0  0  0  0  0  0  0  0
    1.2978   -1.7493    0.0000 S   0  0  0  0  0  0  0  0  0  0  0  0
   -0.4365   -1.7493    0.0000 C   0  0  0  0  0  0  0  0  0  0  0  0
    0.4307   -0.2533    0.0000 C   0  0  0  0  0  0  0  0  0  0  0  0
   -1.3039   -0.2533    0.0000 N   0  0  0  0  0  0  0  0  0  0  0  0
    1.2978    0.2473    0.0000 N   0  0  0  0  0  0  0  0  0  0  0  0
   -1.3039   -1.2487    0.0000 C   0  0  0  0  0  0  0  0  0  0  0  0
   -0.4365    0.2473    0.0000 C   0  0  0  0  0  0  0  0  0  0  0  0
    2.1650    1.7493    0.0000 C   0  0  0  0  0  0  0  0  0  0  0  0
    1.2978    1.2487    0.0000 C   0  0  0  0  0  0  0  0  0  0  0  0
    2.1650   -1.2487    0.0000 C   0  0  0  0  0  0  0  0  0  0  0  0
    2.1650   -0.2533    0.0000 C   0  0  0  0  0  0  0  0  0  0  0  0
    0.4307   -2.2499    0.0000 O   0  0  0  0  0  0  0  0  0  0  0  0
    2.1650   -2.2499    0.0000 O   0  0  0  0  0  0  0  0  0  0  0  0
   -2.1711   -1.7493    0.0000 N   0  0  0  0  0  0  0  0  0  0  0  0
    3.0324    1.2487    0.0000 C   0  0  0  0  0  0  0  0  0  0  0  0
    2.1650    2.7507    0.0000 C   0  0  0  0  0  0  0  0  0  0  0  0
   -0.4365   -2.7446    0.0000 F   0  0  0  0  0  0  0  0  0  0  0  0
   -0.4365    1.2487    0.0000 F   0  0  0  0  0  0  0  0  0  0  0  0
    1.3039    3.2513    0.0000 F   0  0  0  0  0  0  0  0  0  0  0  0
    3.0324    0.2533    0.0000 F   0  0  0  0  0  0  0  0  0  0  0  0
    3.8995    2.7507    0.0000 C   0  0  0  0  0  0  0  0  0  0  0  0
   -2.1711   -2.7507    0.0000 C   0  0  0  0  0  0  0  0  0  0  0  0
   -3.0382   -1.2487    0.0000 C   0  0  0  0  0  0  0  0  0  0  0  0
    3.0324    3.2513    0.0000 C   0  0  0  0  0  0  0  0  0  0  0  0
    3.8995    1.7493    0.0000 C   0  0  0  0  0  0  0  0  0  0  0  0
   -3.8995   -1.7493    0.0000 C   0  0  0  0  0  0  0  0  0  0  0  0
   -3.0382   -3.2513    0.0000 C   0  0  0  0  0  0  0  0  0  0  0  0
  1  2  1  0  0  0  0
  1  3  1  0  0  0  0
  1  4  2  0  0  0  0
  5  8  2  0  0  0  0
  5  7  1  0  0  0  0
  4  6  1  0  0  0  0
  3  7  2  0  0  0  0
  4  8  1  0  0  0  0
  9 10  1  0  0  0  0
  6 10  1  0  0  0  0
  2 11  1  0  0  0  0
  6 12  1  0  0  0  0
 11 12  1  0  0  0  0
  2 13  2  0  0  0  0
  2 14  2  0  0  0  0
  7 15  1  0  0  0  0
  9 16  2  0  0  0  0
  9 17  1  0  0  0  0
  3 18  1  0  0  0  0
  8 19  1  0  0  0  0
 17 20  1  0  0  0  0
 16 21  1  0  0  0  0
 22 25  1  0  0  0  0
 22 26  2  0  0  0  0
 15 23  1  0  0  0  0
 15 24  1  0  0  0  0
 17 25  2  0  0  0  0
 16 26  1  0  0  0  0
 24 27  1  0  0  0  0
 23 28  1  0  0  0  0
M  END
> <IDNUMBER>
8610-0656

> <available>
88

> <H_acceptor>
5

> <H_donor>
0

> <B_rotN>
5

> <N_O>
5

> <logP>
3.4727

> <logD>
3.4727

> <logSw>
-3.6506

> <PSA>
46.421

> <pKa_ma>
21.3867

> <pKa_mb>
1.6727

> <N_Chirals>
0

> <Name>
7-(diethylamino)-4-[(2,6-difluorophenyl)methyl]-5,8-difluoro-3,4-dihydro-1lambda~6~-pyrido[4,3-b][1,4]thiazine-1,1(2H)-dione

> <Smile>
CCN(CC)c(c(F)c12)nc(F)c2N(Cc(c(F)ccc2)c2F)CCS1(=O)=O

> <Color>
YELLOW

> <Collection>
DC

> <InChI>
InChI=1S/C18H19F4N3O2S/c1-3-24(4-2)18-14(21)16-15(17(22)23-18)25(8-9-28(16,26)27)10-11-12(19)6-5-7-13(11)20/h5-7H,3-4,8-10H2,1-2H3

> <InChI Key>
UEWMRETZFXGCEG-UHFFFAOYSA-N

> <PERCENTSP3>
38.9

> <Link>
https://www.chemdiv.com/catalog/screening-compounds/compound-8610-0656/

> <MFCDNUMBER>
MFCD08053451

> <STEREO>
ACHIRAL

> <State>
Solid

> <Similarity score>
0.23

$$$$
2-(4-methoxyphenyl)-4-(pyrrolidin-1-yl)-5,6,8,9-tetrahydrooxepino[4,5-d]pyrimidi
  -OEChem-04222410502D

 24 27  0     0  0  0  0  0  0999 V2000
    0.0972    0.8397    0.0000 N   0  0  0  0  0  0  0  0  0  0  0  0
    0.1724    1.8360    0.0000 C   0  0  0  0  0  0  0  0  0  0  0  0
   -0.6517    2.4001    0.0000 C   0  0  0  0  0  0  0  0  0  0  0  0
   -0.8022    0.4074    0.0000 C   0  0  0  0  0  0  0  0  0  0  0  0
   -1.6231    0.9650    0.0000 N   0  0  0  0  0  0  0  0  0  0  0  0
   -1.5479    1.9614    0.0000 C   0  0  0  0  0  0  0  0  0  0  0  0
    1.0777    2.2686    0.0000 N   0  0  0  0  0  0  0  0  0  0  0  0
   -0.8774   -0.5983    0.0000 C   0  0  0  0  0  0  0  0  0  0  0  0
   -2.0554    4.1516    0.0000 O   0  0  0  0  0  0  0  0  0  0  0  0
   -0.0533   -1.1624    0.0000 C   0  0  0  0  0  0  0  0  0  0  0  0
   -1.7796   -1.0278    0.0000 C   0  0  0  0  0  0  0  0  0  0  0  0
   -2.4566    2.4001    0.0000 C   0  0  0  0  0  0  0  0  0  0  0  0
   -0.4262    3.3713    0.0000 C   0  0  0  0  0  0  0  0  0  0  0  0
   -1.0276   -2.5911    0.0000 C   0  0  0  0  0  0  0  0  0  0  0  0
   -1.8548   -2.0273    0.0000 C   0  0  0  0  0  0  0  0  0  0  0  0
   -0.1286   -2.1588    0.0000 C   0  0  0  0  0  0  0  0  0  0  0  0
    1.2472    3.2554    0.0000 C   0  0  0  0  0  0  0  0  0  0  0  0
    1.9584    1.7984    0.0000 C   0  0  0  0  0  0  0  0  0  0  0  0
   -1.1029   -3.5875    0.0000 O   0  0  0  0  0  0  0  0  0  0  0  0
   -2.6758    3.3713    0.0000 C   0  0  0  0  0  0  0  0  0  0  0  0
   -1.0497    4.1516    0.0000 C   0  0  0  0  0  0  0  0  0  0  0  0
   -0.2757   -4.1516    0.0000 C   0  0  0  0  0  0  0  0  0  0  0  0
    2.2435    3.3903    0.0000 C   0  0  0  0  0  0  0  0  0  0  0  0
    2.6758    2.4847    0.0000 C   0  0  0  0  0  0  0  0  0  0  0  0
  1  2  2  0  0  0  0
  2  3  1  0  0  0  0
  1  4  1  0  0  0  0
  4  5  2  0  0  0  0
  5  6  1  0  0  0  0
  3  6  2  0  0  0  0
  2  7  1  0  0  0  0
  4  8  1  0  0  0  0
  9 21  1  0  0  0  0
  8 10  1  0  0  0  0
  8 11  2  0  0  0  0
  6 12  1  0  0  0  0
  3 13  1  0  0  0  0
 14 15  2  0  0  0  0
 11 15  1  0  0  0  0
 10 16  2  0  0  0  0
 14 16  1  0  0  0  0
  7 17  1  0  0  0  0
  7 18  1  0  0  0  0
 14 19  1  0  0  0  0
 12 20  1  0  0  0  0
  9 20  1  0  0  0  0
 13 21  1  0  0  0  0
 19 22  1  0  0  0  0
 17 23  1  0  0  0  0
 18 24  1  0  0  0  0
 23 24  1  0  0  0  0
M  END
> <IDNUMBER>
S896-0156

> <available>
37

> <H_acceptor>
4

> <H_donor>
0

> <B_rotN>
3

> <N_O>
5

> <logP>
4.3351

> <logD>
4.3294

> <logSw>
-4.2934

> <PSA>
39.494

> <pKa_ma>
19.7965

> <pKa_mb>
5.5159

> <N_Chirals>
0

> <Name>
2-(4-methoxyphenyl)-4-(pyrrolidin-1-yl)-5,6,8,9-tetrahydrooxepino[4,5-d]pyrimidine

> <Smile>
COc(cc1)ccc1-c1nc(CCOCC2)c2c(N2CCCC2)n1

> <Color>
BROWN

> <Collection>
IC

> <InChI>
InChI=1S/C19H23N3O2/c1-23-15-6-4-14(5-7-15)18-20-17-9-13-24-12-8-16(17)19(21-18)22-10-2-3-11-22/h4-7H,2-3,8-13H2,1H3

> <InChI Key>
DQWNYWMMEXZJDX-UHFFFAOYSA-N

> <PERCENTSP3>
47.37

> <Link>
https://www.chemdiv.com/catalog/screening-compounds/compound-S896-0156/

> <MFCDNUMBER>
MFCD31956801

> <CLNUMBER>
CM3993

> <STEREO>
ACHIRAL

> <State>
Solid

> <Similarity score>
0.23

$$$$
ethyl 4-{4-[(2,6-difluorophenyl)methyl]-5,8-difluoro-1,1-dioxo-1,2,3,4-tetrahydr
  -OEChem-04222410502D

 34 37  0     0  0  0  0  0  0999 V2000
    1.2973   -0.0028    0.0000 C   0  0  0  0  0  0  0  0  0  0  0  0
    2.1642   -0.5035    0.0000 S   0  0  0  0  0  0  0  0  0  0  0  0
    0.4303   -0.5035    0.0000 C   0  0  0  0  0  0  0  0  0  0  0  0
    1.2973    0.9981    0.0000 C   0  0  0  0  0  0  0  0  0  0  0  0
   -0.4363   -0.0028    0.0000 C   0  0  0  0  0  0  0  0  0  0  0  0
   -0.4363    0.9981    0.0000 N   0  0  0  0  0  0  0  0  0  0  0  0
    2.1642    1.4984    0.0000 N   0  0  0  0  0  0  0  0  0  0  0  0
    0.4303    1.4984    0.0000 C   0  0  0  0  0  0  0  0  0  0  0  0
    3.0311    3.0000    0.0000 C   0  0  0  0  0  0  0  0  0  0  0  0
    2.1642    2.4994    0.0000 C   0  0  0  0  0  0  0  0  0  0  0  0
   -1.3032   -0.5035    0.0000 N   0  0  0  0  0  0  0  0  0  0  0  0
   -3.0371   -1.5044    0.0000 N   0  0  0  0  0  0  0  0  0  0  0  0
   -3.9040   -1.9988    0.0000 C   0  0  0  0  0  0  0  0  0  0  0  0
    3.0311   -0.0028    0.0000 C   0  0  0  0  0  0  0  0  0  0  0  0
    3.0311    0.9981    0.0000 C   0  0  0  0  0  0  0  0  0  0  0  0
    3.0311   -1.0038    0.0000 O   0  0  0  0  0  0  0  0  0  0  0  0
    1.2973   -1.0038    0.0000 O   0  0  0  0  0  0  0  0  0  0  0  0
    3.8981    2.4994    0.0000 C   0  0  0  0  0  0  0  0  0  0  0  0
    3.0311    4.0010    0.0000 C   0  0  0  0  0  0  0  0  0  0  0  0
   -1.3032   -1.5044    0.0000 C   0  0  0  0  0  0  0  0  0  0  0  0
   -2.1702   -0.0028    0.0000 C   0  0  0  0  0  0  0  0  0  0  0  0
    0.4303   -1.5044    0.0000 F   0  0  0  0  0  0  0  0  0  0  0  0
   -3.0371   -0.5035    0.0000 C   0  0  0  0  0  0  0  0  0  0  0  0
   -2.1702   -1.9988    0.0000 C   0  0  0  0  0  0  0  0  0  0  0  0
   -4.7620   -1.5044    0.0000 O   0  0  0  0  0  0  0  0  0  0  0  0
    0.4303    2.4994    0.0000 F   0  0  0  0  0  0  0  0  0  0  0  0
   -3.9040   -2.9997    0.0000 O   0  0  0  0  0  0  0  0  0  0  0  0
    2.1702    4.5011    0.0000 F   0  0  0  0  0  0  0  0  0  0  0  0
    3.8981    1.5044    0.0000 F   0  0  0  0  0  0  0  0  0  0  0  0
    4.7650    4.0010    0.0000 C   0  0  0  0  0  0  0  0  0  0  0  0
    3.8981    4.5011    0.0000 C   0  0  0  0  0  0  0  0  0  0  0  0
    4.7650    3.0000    0.0000 C   0  0  0  0  0  0  0  0  0  0  0  0
   -4.7650   -3.5003    0.0000 C   0  0  0  0  0  0  0  0  0  0  0  0
   -4.7650   -4.5011    0.0000 C   0  0  0  0  0  0  0  0  0  0  0  0
  1  2  1  0  0  0  0
  1  3  1  0  0  0  0
  1  4  2  0  0  0  0
  3  5  2  0  0  0  0
  6  8  2  0  0  0  0
  5  6  1  0  0  0  0
  4  7  1  0  0  0  0
  4  8  1  0  0  0  0
  9 10  1  0  0  0  0
  7 10  1  0  0  0  0
  5 11  1  0  0  0  0
 12 23  1  0  0  0  0
 12 24  1  0  0  0  0
 12 13  1  0  0  0  0
  2 14  1  0  0  0  0
  7 15  1  0  0  0  0
 14 15  1  0  0  0  0
  2 16  2  0  0  0  0
  2 17  2  0  0  0  0
  9 18  2  0  0  0  0
  9 19  1  0  0  0  0
 11 20  1  0  0  0  0
 11 21  1  0  0  0  0
  3 22  1  0  0  0  0
 21 23  1  0  0  0  0
 20 24  1  0  0  0  0
 13 25  2  0  0  0  0
  8 26  1  0  0  0  0
 13 27  1  0  0  0  0
 19 28  1  0  0  0  0
 18 29  1  0  0  0  0
 30 31  1  0  0  0  0
 30 32  2  0  0  0  0
 19 31  2  0  0  0  0
 18 32  1  0  0  0  0
 27 33  1  0  0  0  0
 33 34  1  0  0  0  0
M  END
> <IDNUMBER>
8610-0664

> <available>
62

> <H_acceptor>
8

> <H_donor>
0

> <B_rotN>
6

> <N_O>
8

> <logP>
3.3503

> <logD>
3.3503

> <logSw>
-3.5443

> <PSA>
69.918

> <pKa_ma>
21.3867

> <pKa_mb>
0.4001

> <N_Chirals>
0

> <Name>
ethyl 4-{4-[(2,6-difluorophenyl)methyl]-5,8-difluoro-1,1-dioxo-1,2,3,4-tetrahydro-1lambda~6~-pyrido[4,3-b][1,4]thiazin-7-yl}piperazine-1-carboxylate

> <Smile>
CCOC(N(CC1)CCN1c(c(F)c12)nc(F)c2N(Cc(c(F)ccc2)c2F)CCS1(=O)=O)=O

> <Color>
NOT COLORED

> <Collection>
DC

> <InChI>
InChI=1S/C21H22F4N4O4S/c1-2-33-21(30)28-8-6-27(7-9-28)20-16(24)18-17(19(25)26-20)29(10-11-34(18,31)32)12-13-14(22)4-3-5-15(13)23/h3-5H,2,6-12H2,1H3

> <InChI Key>
AVCUJQQMECJVIZ-UHFFFAOYSA-N

> <PERCENTSP3>
42.9

> <Link>
https://www.chemdiv.com/catalog/screening-compounds/compound-8610-0664/

> <MFCDNUMBER>
MFCD08053459

> <STEREO>
ACHIRAL

> <State>
Solid

> <Similarity score>
0.23

$$$$
N-(2,4-difluorophenyl)-1-(2,5,6-trimethylfuro[2,3-d]pyrimidin-4-yl)piperidine-3-
  -OEChem-04222410502D

 29 32  0     0  0  0  0  0  0999 V2000
   -0.3543    2.4093    0.0000 C   0  0  0  0  0  0  0  0  0  0  0  0
   -1.0963    3.0721    0.0000 C   0  0  0  0  0  0  0  0  0  0  0  0
   -0.8921    4.0435    0.0000 C   0  0  0  0  0  0  0  0  0  0  0  0
   -0.5670    1.4256    0.0000 N   0  0  0  0  0  0  0  0  0  0  0  0
   -2.0927    2.9722    0.0000 C   0  0  0  0  0  0  0  0  0  0  0  0
    0.5962    2.7139    0.0000 N   0  0  0  0  0  0  0  0  0  0  0  0
    0.0584    4.3561    0.0000 N   0  0  0  0  0  0  0  0  0  0  0  0
   -1.7550    4.5437    0.0000 O   0  0  0  0  0  0  0  0  0  0  0  0
   -2.5051    3.8850    0.0000 C   0  0  0  0  0  0  0  0  0  0  0  0
    0.7171   -0.8921    0.0000 C   0  0  0  0  0  0  0  0  0  0  0  0
   -0.0293   -0.2168    0.0000 C   0  0  3  0  0  0  0  0  0  0  0  0
    0.8047    3.6974    0.0000 C   0  0  0  0  0  0  0  0  0  0  0  0
    0.5088   -1.8675    0.0000 N   0  0  0  0  0  0  0  0  0  0  0  0
    0.1793    0.7587    0.0000 C   0  0  0  0  0  0  0  0  0  0  0  0
    1.2465   -2.5387    0.0000 C   0  0  0  0  0  0  0  0  0  0  0  0
    2.2009   -2.2303    0.0000 C   0  0  0  0  0  0  0  0  0  0  0  0
    2.9473   -2.9013    0.0000 C   0  0  0  0  0  0  0  0  0  0  0  0
    1.6675   -0.5795    0.0000 O   0  0  0  0  0  0  0  0  0  0  0  0
    1.0422   -3.5183    0.0000 C   0  0  0  0  0  0  0  0  0  0  0  0
    2.7346   -3.8768    0.0000 C   0  0  0  0  0  0  0  0  0  0  0  0
    2.4094   -1.2505    0.0000 F   0  0  0  0  0  0  0  0  0  0  0  0
   -1.5173    1.1213    0.0000 C   0  0  0  0  0  0  0  0  0  0  0  0
    1.7843   -4.1893    0.0000 C   0  0  0  0  0  0  0  0  0  0  0  0
   -2.5928    2.1009    0.0000 C   0  0  0  0  0  0  0  0  0  0  0  0
    3.4808   -4.5437    0.0000 F   0  0  0  0  0  0  0  0  0  0  0  0
   -3.4808    4.0810    0.0000 C   0  0  0  0  0  0  0  0  0  0  0  0
   -0.9795   -0.5295    0.0000 C   0  0  0  0  0  0  0  0  0  0  0  0
   -1.7216    0.1376    0.0000 C   0  0  0  0  0  0  0  0  0  0  0  0
    1.7550    4.0019    0.0000 C   0  0  0  0  0  0  0  0  0  0  0  0
  1  2  1  0  0  0  0
  2  3  2  0  0  0  0
  3  7  1  0  0  0  0
  1  4  1  0  0  0  0
  2  5  1  0  0  0  0
  1  6  2  0  0  0  0
  7 12  2  0  0  0  0
  3  8  1  0  0  0  0
  5  9  2  0  0  0  0
  8  9  1  0  0  0  0
 10 11  1  0  0  0  0
 11 14  1  0  0  0  0
 11 27  1  0  0  0  0
  6 12  1  0  0  0  0
 10 13  1  0  0  0  0
  4 14  1  0  0  0  0
 13 15  1  0  0  0  0
 15 16  1  0  0  0  0
 16 17  2  0  0  0  0
 10 18  2  0  0  0  0
 15 19  2  0  0  0  0
 20 23  2  0  0  0  0
 17 20  1  0  0  0  0
 16 21  1  0  0  0  0
  4 22  1  0  0  0  0
 19 23  1  0  0  0  0
  5 24  1  0  0  0  0
 20 25  1  0  0  0  0
  9 26  1  0  0  0  0
 27 28  1  0  0  0  0
 22 28  1  0  0  0  0
 12 29  1  0  0  0  0
M  END
> <IDNUMBER>
F228-0877

> <available>
88

> <H_acceptor>
5

> <H_donor>
1

> <B_rotN>
4

> <N_O>
6

> <logP>
3.6942

> <logD>
3.3571

> <logSw>
-4.0321

> <PSA>
52.255

> <pKa_ma>
8.1865

> <pKa_mb>
7.4693

> <N_Chirals>
1

> <Name>
N-(2,4-difluorophenyl)-1-(2,5,6-trimethylfuro[2,3-d]pyrimidin-4-yl)piperidine-3-carboxamide

> <Smile>
Cc1c(C)oc2c1c(N(CCC1)CC1C(Nc(ccc(F)c1)c1F)=O)nc(C)n2

> <Color>
NOT COLORED

> <Collection>
NC

> <InChI>
InChI=1S/C21H22F2N4O2/c1-11-12(2)29-21-18(11)19(24-13(3)25-21)27-8-4-5-14(10-27)20(28)26-17-7-6-15(22)9-16(17)23/h6-7,9,14H,4-5,8,10H2,1-3H3,(H,26,28)/t14-/m0/s1

> <InChI Key>
BREAMLIAZICWSA-AWEZNQCLSA-N

> <PERCENTSP3>
38.1

> <Link>
https://www.chemdiv.com/catalog/screening-compounds/compound-F228-0877/

> <MFCDNUMBER>
MFCD14945696

> <CLNUMBER>
CL1321B

> <STEREO>
RACEMIC MIXTURE

> <State>
Solid

> <Similarity score>
0.23

$$$$
N-(2-ethyl-2,3,4,5-tetrahydro-1H-pyrido[4,3-b]indol-8-yl)-3,4-difluorobenzamide
  -OEChem-04222410502D

 26 29  0     0  0  0  0  0  0999 V2000
    1.6921    0.2480    0.0000 C   0  0  0  0  0  0  0  0  0  0  0  0
    2.5340   -0.2438    0.0000 C   0  0  0  0  0  0  0  0  0  0  0  0
    2.5340   -1.2148    0.0000 N   0  0  0  0  0  0  0  0  0  0  0  0
    0.8461   -1.2148    0.0000 C   0  0  0  0  0  0  0  0  0  0  0  0
    1.6921   -1.7068    0.0000 C   0  0  0  0  0  0  0  0  0  0  0  0
   -1.6920   -2.6819    0.0000 C   0  0  0  0  0  0  0  0  0  0  0  0
   -0.8460   -3.1695    0.0000 N   0  0  0  0  0  0  0  0  0  0  0  0
   -1.6920   -1.7025    0.0000 C   0  0  0  0  0  0  0  0  0  0  0  0
    1.6921    1.2232    0.0000 C   0  0  0  0  0  0  0  0  0  0  0  0
    2.5340    1.7192    0.0000 N   0  0  0  0  0  0  0  0  0  0  0  0
    3.3799    0.2480    0.0000 C   0  0  0  0  0  0  0  0  0  0  0  0
   -2.5339   -0.2438    0.0000 C   0  0  0  0  0  0  0  0  0  0  0  0
   -2.5339   -1.2148    0.0000 C   0  0  0  0  0  0  0  0  0  0  0  0
    0.0042   -1.7025    0.0000 C   0  0  0  0  0  0  0  0  0  0  0  0
    0.0042   -2.6819    0.0000 C   0  0  0  0  0  0  0  0  0  0  0  0
   -1.6920    0.2480    0.0000 C   0  0  0  0  0  0  0  0  0  0  0  0
   -2.5339   -3.1695    0.0000 O   0  0  0  0  0  0  0  0  0  0  0  0
    1.6921   -2.6819    0.0000 C   0  0  0  0  0  0  0  0  0  0  0  0
   -0.8460   -1.2148    0.0000 C   0  0  0  0  0  0  0  0  0  0  0  0
   -0.8460   -0.2438    0.0000 C   0  0  0  0  0  0  0  0  0  0  0  0
    3.3799    1.2191    0.0000 C   0  0  0  0  0  0  0  0  0  0  0  0
   -3.3799    0.2480    0.0000 F   0  0  0  0  0  0  0  0  0  0  0  0
    0.8461   -3.1695    0.0000 C   0  0  0  0  0  0  0  0  0  0  0  0
   -1.6920    1.2232    0.0000 F   0  0  0  0  0  0  0  0  0  0  0  0
    2.5340    2.6861    0.0000 C   0  0  0  0  0  0  0  0  0  0  0  0
    3.3799    3.1695    0.0000 C   0  0  0  0  0  0  0  0  0  0  0  0
  1  2  2  0  0  0  0
  2  3  1  0  0  0  0
  1  4  1  0  0  0  0
  4  5  1  0  0  0  0
  3  5  1  0  0  0  0
  6  7  1  0  0  0  0
  7 15  1  0  0  0  0
  6  8  1  0  0  0  0
  1  9  1  0  0  0  0
  9 10  1  0  0  0  0
  2 11  1  0  0  0  0
 12 13  1  0  0  0  0
  8 13  2  0  0  0  0
  4 14  2  0  0  0  0
 14 15  1  0  0  0  0
 16 20  1  0  0  0  0
 12 16  2  0  0  0  0
  6 17  2  0  0  0  0
  5 18  2  0  0  0  0
  8 19  1  0  0  0  0
 19 20  2  0  0  0  0
 10 21  1  0  0  0  0
 11 21  1  0  0  0  0
 12 22  1  0  0  0  0
 15 23  2  0  0  0  0
 18 23  1  0  0  0  0
 16 24  1  0  0  0  0
 10 25  1  0  0  0  0
 25 26  1  0  0  0  0
M  END
> <IDNUMBER>
M294-0082

> <available>
1

> <H_acceptor>
3

> <H_donor>
2

> <B_rotN>
4

> <N_O>
4

> <logP>
3.46

> <logD>
0.7494

> <logSw>
-3.8191

> <PSA>
37.57

> <pKa_ma>
8.8565

> <pKa_mb>
10.1807

> <N_Chirals>
0

> <Name>
N-(2-ethyl-2,3,4,5-tetrahydro-1H-pyrido[4,3-b]indol-8-yl)-3,4-difluorobenzamide

> <Smile>
CCN(CC1)Cc2c1[nH]c(cc1)c2cc1NC(c(cc1)cc(F)c1F)=O

> <Color>
NOT COLORED

> <Collection>
NC

> <InChI>
InChI=1S/C20H19F2N3O/c1-2-25-8-7-19-15(11-25)14-10-13(4-6-18(14)24-19)23-20(26)12-3-5-16(21)17(22)9-12/h3-6,9-10,24H,2,7-8,11H2,1H3,(H,23,26)

> <InChI Key>
YSASCPZJNIOIBY-UHFFFAOYSA-N

> <PERCENTSP3>
25

> <Link>
https://www.chemdiv.com/catalog/screening-compounds/compound-M294-0082/

> <MFCDNUMBER>
MFCD27535414

> <CLNUMBER>
CL9549

> <STEREO>
ACHIRAL

> <State>
Solid

> <Similarity score>
0.23

$$$$
N-[(2,5-difluorophenyl)methyl]-4-methoxy-2-phenyl-6,7,8,9-tetrahydro-5H-cyclohep
  -OEChem-04222410502D

 31 34  0     0  0  0  0  0  0999 V2000
   -2.1685   -0.8430    0.0000 N   0  0  0  0  0  0  0  0  0  0  0  0
   -2.1685   -1.8490    0.0000 C   0  0  0  0  0  0  0  0  0  0  0  0
   -0.4293   -0.8430    0.0000 C   0  0  0  0  0  0  0  0  0  0  0  0
   -1.2974   -0.3416    0.0000 C   0  0  0  0  0  0  0  0  0  0  0  0
   -1.2974   -2.3442    0.0000 N   0  0  0  0  0  0  0  0  0  0  0  0
   -0.4293   -1.8490    0.0000 C   0  0  0  0  0  0  0  0  0  0  0  0
    2.7641   -1.3414    0.0000 C   0  0  0  0  0  0  0  0  0  0  0  0
    3.2562    1.2535    0.0000 C   0  0  0  0  0  0  0  0  0  0  0  0
    0.3509   -0.2194    0.0000 C   0  0  0  0  0  0  0  0  0  0  0  0
    3.2562   -0.4762    0.0000 N   0  0  0  0  0  0  0  0  0  0  0  0
    4.2590    1.2535    0.0000 C   0  0  0  0  0  0  0  0  0  0  0  0
    2.7641    0.3919    0.0000 C   0  0  0  0  0  0  0  0  0  0  0  0
    1.7613   -1.3414    0.0000 C   0  0  3  0  0  0  0  0  0  0  0  0
    2.7641    2.1186    0.0000 C   0  0  0  0  0  0  0  0  0  0  0  0
   -3.0337   -2.3442    0.0000 C   0  0  0  0  0  0  0  0  0  0  0  0
    0.3509   -2.4663    0.0000 C   0  0  0  0  0  0  0  0  0  0  0  0
    3.2562   -2.2062    0.0000 O   0  0  0  0  0  0  0  0  0  0  0  0
    1.3195   -0.4482    0.0000 C   0  0  0  0  0  0  0  0  0  0  0  0
    1.3195   -2.2500    0.0000 C   0  0  0  0  0  0  0  0  0  0  0  0
    4.7667    2.1186    0.0000 C   0  0  0  0  0  0  0  0  0  0  0  0
   -1.2974    0.6612    0.0000 O   0  0  0  0  0  0  0  0  0  0  0  0
    3.2562    2.9868    0.0000 C   0  0  0  0  0  0  0  0  0  0  0  0
    4.7667    0.3919    0.0000 F   0  0  0  0  0  0  0  0  0  0  0  0
    4.2590    2.9868    0.0000 C   0  0  0  0  0  0  0  0  0  0  0  0
    2.7641    3.8516    0.0000 F   0  0  0  0  0  0  0  0  0  0  0  0
   -3.9018   -1.8490    0.0000 C   0  0  0  0  0  0  0  0  0  0  0  0
   -3.0337   -3.3440    0.0000 C   0  0  0  0  0  0  0  0  0  0  0  0
   -0.4293    1.1596    0.0000 C   0  0  0  0  0  0  0  0  0  0  0  0
   -4.7667   -2.3442    0.0000 C   0  0  0  0  0  0  0  0  0  0  0  0
   -3.9018   -3.8516    0.0000 C   0  0  0  0  0  0  0  0  0  0  0  0
   -4.7667   -3.3440    0.0000 C   0  0  0  0  0  0  0  0  0  0  0  0
  1  2  1  0  0  0  0
  3  4  1  0  0  0  0
  1  4  2  0  0  0  0
  2  5  2  0  0  0  0
  5  6  1  0  0  0  0
  3  6  2  0  0  0  0
  7 13  1  0  0  0  0
  8 12  1  0  0  0  0
  3  9  1  0  0  0  0
  7 10  1  0  0  0  0
  8 11  1  0  0  0  0
 10 12  1  0  0  0  0
 13 18  1  0  0  0  0
  8 14  2  0  0  0  0
  2 15  1  0  0  0  0
  6 16  1  0  0  0  0
  7 17  2  0  0  0  0
  9 18  1  0  0  0  0
 16 19  1  0  0  0  0
 13 19  1  0  0  0  0
 11 20  2  0  0  0  0
 20 24  1  0  0  0  0
  4 21  1  0  0  0  0
 14 22  1  0  0  0  0
 11 23  1  0  0  0  0
 22 24  2  0  0  0  0
 22 25  1  0  0  0  0
 15 26  1  0  0  0  0
 15 27  2  0  0  0  0
 21 28  1  0  0  0  0
 26 29  2  0  0  0  0
 29 31  1  0  0  0  0
 27 30  1  0  0  0  0
 30 31  2  0  0  0  0
M  END
> <IDNUMBER>
SD54-0169

> <available>
16

> <H_acceptor>
5

> <H_donor>
1

> <B_rotN>
6

> <N_O>
5

> <logP>
5.3281

> <logD>
5.328

> <logSw>
-5.3304

> <PSA>
53.005

> <pKa_ma>
11.1377

> <pKa_mb>
3.0621

> <N_Chirals>
1

> <Name>
N-[(2,5-difluorophenyl)methyl]-4-methoxy-2-phenyl-6,7,8,9-tetrahydro-5H-cyclohepta[d]pyrimidine-7-carboxamide

> <Smile>
COc1nc(-c2ccccc2)nc(CC2)c1CCC2C(NCc(cc(cc1)F)c1F)=O

> <Color>
NOT COLORED

> <Collection>
IC

> <InChI>
InChI=1S/C24H23F2N3O2/c1-31-24-19-10-7-16(23(30)27-14-17-13-18(25)9-11-20(17)26)8-12-21(19)28-22(29-24)15-5-3-2-4-6-15/h2-6,9,11,13,16H,7-8,10,12,14H2,1H3,(H,27,30)/t16-/m0/s1

> <InChI Key>
NLNNCXMFSHVYQC-INIZCTEOSA-N

> <PERCENTSP3>
29.17

> <Link>
https://www.chemdiv.com/catalog/screening-compounds/compound-SD54-0169/

> <MFCDNUMBER>
MFCD32724520

> <CLNUMBER>
CM6341

> <STEREO>
RACEMIC MIXTURE

> <State>
Solid

> <Similarity score>
0.23

$$$$
N-(2H-1,3-benzodioxol-5-yl)-2-(9-fluoro-6-methyl-10-oxo-3,4,5,10-tetrahydrobenzo
  -OEChem-04222410502D

 30 34  0     0  0  0  0  0  0999 V2000
   -0.8288   -1.7780    0.0000 C   0  0  0  0  0  0  0  0  0  0  0  0
   -1.7029   -1.2767    0.0000 C   0  0  0  0  0  0  0  0  0  0  0  0
   -2.5770   -1.7780    0.0000 C   0  0  0  0  0  0  0  0  0  0  0  0
   -1.7124   -3.2350    0.0000 N   0  0  0  0  0  0  0  0  0  0  0  0
   -2.5770   -2.7432    0.0000 C   0  0  0  0  0  0  0  0  0  0  0  0
   -0.8288   -2.7652    0.0000 C   0  0  0  0  0  0  0  0  0  0  0  0
    0.9446   -1.7780    0.0000 N   0  0  0  0  0  0  0  0  0  0  0  0
    0.0737   -1.2767    0.0000 C   0  0  0  0  0  0  0  0  0  0  0  0
    1.8282   -0.3118    0.0000 C   0  0  0  0  0  0  0  0  0  0  0  0
    3.6173    2.6209    0.0000 C   0  0  0  0  0  0  0  0  0  0  0  0
   -3.4639   -1.2767    0.0000 C   0  0  0  0  0  0  0  0  0  0  0  0
    0.0643   -3.2350    0.0000 C   0  0  0  0  0  0  0  0  0  0  0  0
    3.6173    1.6465    0.0000 C   0  0  0  0  0  0  0  0  0  0  0  0
   -3.4639   -3.2350    0.0000 C   0  0  0  0  0  0  0  0  0  0  0  0
    2.7400    0.1895    0.0000 N   0  0  0  0  0  0  0  0  0  0  0  0
   -1.7029   -0.2931    0.0000 O   0  0  0  0  0  0  0  0  0  0  0  0
    2.7242    3.1003    0.0000 C   0  0  0  0  0  0  0  0  0  0  0  0
    4.3380    3.3164    0.0000 O   0  0  0  0  0  0  0  0  0  0  0  0
    2.9219    4.0967    0.0000 O   0  0  0  0  0  0  0  0  0  0  0  0
    2.7400    1.1734    0.0000 C   0  0  0  0  0  0  0  0  0  0  0  0
    1.8282   -1.2767    0.0000 C   0  0  0  0  0  0  0  0  0  0  0  0
    3.9088    4.2314    0.0000 C   0  0  0  0  0  0  0  0  0  0  0  0
    0.9446    0.1895    0.0000 O   0  0  0  0  0  0  0  0  0  0  0  0
    0.9446   -2.7652    0.0000 C   0  0  0  0  0  0  0  0  0  0  0  0
   -4.3380   -1.7780    0.0000 C   0  0  0  0  0  0  0  0  0  0  0  0
   -4.3380   -2.7432    0.0000 C   0  0  0  0  0  0  0  0  0  0  0  0
    1.8472    2.6209    0.0000 C   0  0  0  0  0  0  0  0  0  0  0  0
    1.8472    1.6465    0.0000 C   0  0  0  0  0  0  0  0  0  0  0  0
   -3.4639   -0.2741    0.0000 F   0  0  0  0  0  0  0  0  0  0  0  0
   -3.4639   -4.2314    0.0000 C   0  0  0  0  0  0  0  0  0  0  0  0
  1  2  1  0  0  0  0
  2  3  1  0  0  0  0
  3  5  1  0  0  0  0
  4  6  1  0  0  0  0
  4  5  1  0  0  0  0
  1  6  2  0  0  0  0
  7  8  1  0  0  0  0
  1  8  1  0  0  0  0
  9 21  1  0  0  0  0
 10 13  2  0  0  0  0
 10 17  1  0  0  0  0
  3 11  2  0  0  0  0
  6 12  1  0  0  0  0
 12 24  1  0  0  0  0
 13 20  1  0  0  0  0
  5 14  2  0  0  0  0
  9 15  1  0  0  0  0
  2 16  2  0  0  0  0
 17 27  2  0  0  0  0
 10 18  1  0  0  0  0
 17 19  1  0  0  0  0
 19 22  1  0  0  0  0
 15 20  1  0  0  0  0
  7 21  1  0  0  0  0
 18 22  1  0  0  0  0
  9 23  2  0  0  0  0
  7 24  1  0  0  0  0
 11 25  1  0  0  0  0
 25 26  2  0  0  0  0
 14 26  1  0  0  0  0
 27 28  1  0  0  0  0
 20 28  2  0  0  0  0
 11 29  1  0  0  0  0
 14 30  1  0  0  0  0
M  END
> <IDNUMBER>
L489-1906

> <available>
75

> <H_acceptor>
7

> <H_donor>
2

> <B_rotN>
4

> <N_O>
7

> <logP>
3.4323

> <logD>
2.5353

> <logSw>
-3.7165

> <PSA>
65.926

> <pKa_ma>
6.5619

> <pKa_mb>
2.0512

> <N_Chirals>
0

> <Name>
N-(2H-1,3-benzodioxol-5-yl)-2-(9-fluoro-6-methyl-10-oxo-3,4,5,10-tetrahydrobenzo[b][1,6]naphthyridin-2(1H)-yl)acetamide

> <Smile>
Cc(ccc(F)c12)c2NC(CCN(CC(Nc(cc2)cc3c2OCO3)=O)C2)=C2C1=O

> <Color>
BROWN

> <Collection>
NC

> <InChI>
InChI=1S/C22H20FN3O4/c1-12-2-4-15(23)20-21(12)25-16-6-7-26(9-14(16)22(20)28)10-19(27)24-13-3-5-17-18(8-13)30-11-29-17/h2-5,8H,6-7,9-11H2,1H3,(H,24,27)(H,25,28)

> <InChI Key>
SDWZIOASGKJVAU-UHFFFAOYSA-N

> <PERCENTSP3>
27.3

> <Link>
https://www.chemdiv.com/catalog/screening-compounds/compound-L489-1906/

> <MFCDNUMBER>
MFCD27457672

> <CLNUMBER>
CL8213A

> <STEREO>
ACHIRAL

> <State>
Solid

> <Similarity score>
0.23

$$$$
3-(6-fluoro-1,3,4,9-tetrahydro-2H-pyrido[3,4-b]indol-2-yl)-1-methylpyrrolidine-2
  -OEChem-04222410502D

 22 25  0     0  0  0  0  0  0999 V2000
    3.5223    0.8435    0.0000 N   0  0  0  0  0  0  0  0  0  0  0  0
    2.5515    1.0560    0.0000 C   0  0  0  0  0  0  0  0  0  0  0  0
   -0.3561   -0.9518    0.0000 C   0  0  0  0  0  0  0  0  0  0  0  0
    3.6138   -0.1521    0.0000 C   0  0  0  0  0  0  0  0  0  0  0  0
    2.0434    0.1771    0.0000 C   0  0  3  0  0  0  0  0  0  0  0  0
   -0.9476   -0.1396    0.0000 C   0  0  0  0  0  0  0  0  0  0  0  0
    1.0726    0.0895    0.0000 N   0  0  3  0  0  0  0  0  0  0  0  0
    2.7224   -0.5562    0.0000 C   0  0  0  0  0  0  0  0  0  0  0  0
   -0.9227   -1.7642    0.0000 N   0  0  0  0  0  0  0  0  0  0  0  0
   -1.8976   -0.4562    0.0000 C   0  0  0  0  0  0  0  0  0  0  0  0
   -1.8810   -1.4685    0.0000 C   0  0  0  0  0  0  0  0  0  0  0  0
    0.6395   -0.8477    0.0000 C   0  0  0  0  0  0  0  0  0  0  0  0
   -0.5436    0.7811    0.0000 C   0  0  0  0  0  0  0  0  0  0  0  0
    0.4728    0.8895    0.0000 C   0  0  0  0  0  0  0  0  0  0  0  0
    2.1266    1.9517    0.0000 O   0  0  0  0  0  0  0  0  0  0  0  0
    4.4845   -0.6477    0.0000 O   0  0  0  0  0  0  0  0  0  0  0  0
   -2.7474    0.0437    0.0000 C   0  0  0  0  0  0  0  0  0  0  0  0
   -2.7474   -1.9517    0.0000 C   0  0  0  0  0  0  0  0  0  0  0  0
    4.2469    1.5059    0.0000 C   0  0  0  0  0  0  0  0  0  0  0  0
   -3.6181   -0.4562    0.0000 C   0  0  0  0  0  0  0  0  0  0  0  0
   -3.6181   -1.4685    0.0000 C   0  0  0  0  0  0  0  0  0  0  0  0
   -4.4845    0.0437    0.0000 F   0  0  0  0  0  0  0  0  0  0  0  0
  1  2  1  0  0  0  0
  3 12  1  0  0  0  0
  1  4  1  0  0  0  0
  2  5  1  0  0  0  0
  5  8  1  0  0  0  0
  6 13  1  0  0  0  0
  3  6  2  0  0  0  0
  5  7  1  0  0  0  0
  4  8  1  0  0  0  0
  3  9  1  0  0  0  0
  6 10  1  0  0  0  0
 10 11  1  0  0  0  0
  9 11  1  0  0  0  0
  7 12  1  0  0  0  0
 13 14  1  0  0  0  0
  7 14  1  0  0  0  0
  2 15  2  0  0  0  0
  4 16  2  0  0  0  0
 10 17  2  0  0  0  0
 11 18  2  0  0  0  0
  1 19  1  0  0  0  0
 17 20  1  0  0  0  0
 20 21  2  0  0  0  0
 18 21  1  0  0  0  0
 20 22  1  0  0  0  0
M  END
> <IDNUMBER>
Y020-9706

> <available>
13

> <H_acceptor>
5

> <H_donor>
1

> <B_rotN>
1

> <N_O>
5

> <logP>
0.3584

> <logD>
0.3582

> <logSw>
-2.0343

> <PSA>
43.148

> <pKa_ma>
16.8486

> <pKa_mb>
3.9283

> <N_Chirals>
1

> <Name>
3-(6-fluoro-1,3,4,9-tetrahydro-2H-pyrido[3,4-b]indol-2-yl)-1-methylpyrrolidine-2,5-dione

> <Smile>
CN(C(CC1N(CC2)Cc3c2c(cc(cc2)F)c2[nH]3)=O)C1=O

> <Color>
NOT COLORED

> <Collection>
DC

> <InChI>
InChI=1S/C16H16FN3O2/c1-19-15(21)7-14(16(19)22)20-5-4-10-11-6-9(17)2-3-12(11)18-13(10)8-20/h2-3,6,14,18H,4-5,7-8H2,1H3/t14-/m0/s1

> <InChI Key>
WKYJQDYNRZJPEZ-AWEZNQCLSA-N

> <PERCENTSP3>
37.5

> <Link>
https://www.chemdiv.com/catalog/screening-compounds/compound-Y020-9706/

> <MFCDNUMBER>
MFCD22582761

> <STEREO>
RACEMIC MIXTURE

> <State>
Solid

> <Similarity score>
0.23

$$$$
(2,4-difluorophenyl)[4-(4-methylpiperidin-1-yl)-2-(morpholin-4-yl)-7,8-dihydropy
  -OEChem-04222410502D

 33 37  0     0  0  0  0  0  0999 V2000
    2.5812   -0.7479    0.0000 N   0  0  0  0  0  0  0  0  0  0  0  0
    1.7143   -0.2439    0.0000 C   0  0  0  0  0  0  0  0  0  0  0  0
    2.5812   -1.7478    0.0000 C   0  0  0  0  0  0  0  0  0  0  0  0
    0.8478   -0.7479    0.0000 C   0  0  0  0  0  0  0  0  0  0  0  0
   -0.8938   -0.7521    0.0000 N   0  0  0  0  0  0  0  0  0  0  0  0
   -1.7647   -0.2603    0.0000 C   0  0  0  0  0  0  0  0  0  0  0  0
   -2.6271   -0.7646    0.0000 C   0  0  0  0  0  0  0  0  0  0  0  0
    1.7143   -2.2519    0.0000 N   0  0  0  0  0  0  0  0  0  0  0  0
    0.8478   -1.7520    0.0000 C   0  0  0  0  0  0  0  0  0  0  0  0
   -0.0230   -0.2439    0.0000 C   0  0  0  0  0  0  0  0  0  0  0  0
    1.7143    0.7561    0.0000 N   0  0  0  0  0  0  0  0  0  0  0  0
    3.4519   -2.2477    0.0000 N   0  0  0  0  0  0  0  0  0  0  0  0
   -3.4896   -0.2770    0.0000 C   0  0  0  0  0  0  0  0  0  0  0  0
   -2.6187   -1.7645    0.0000 C   0  0  0  0  0  0  0  0  0  0  0  0
   -4.3395   -0.7771    0.0000 C   0  0  0  0  0  0  0  0  0  0  0  0
   -0.0188   -2.2477    0.0000 C   0  0  0  0  0  0  0  0  0  0  0  0
   -0.8853   -1.7520    0.0000 C   0  0  0  0  0  0  0  0  0  0  0  0
   -1.7687    0.7436    0.0000 O   0  0  0  0  0  0  0  0  0  0  0  0
    0.8436    1.2562    0.0000 C   0  0  0  0  0  0  0  0  0  0  0  0
    2.5812    1.2562    0.0000 C   0  0  0  0  0  0  0  0  0  0  0  0
    5.1810   -3.2727    0.0000 O   0  0  0  0  0  0  0  0  0  0  0  0
   -4.3395   -1.7687    0.0000 C   0  0  0  0  0  0  0  0  0  0  0  0
   -3.4936    0.7144    0.0000 F   0  0  0  0  0  0  0  0  0  0  0  0
   -3.4771   -2.2644    0.0000 C   0  0  0  0  0  0  0  0  0  0  0  0
   -5.1935   -2.2688    0.0000 F   0  0  0  0  0  0  0  0  0  0  0  0
    0.8436    2.2519    0.0000 C   0  0  0  0  0  0  0  0  0  0  0  0
    2.5727    2.2602    0.0000 C   0  0  0  0  0  0  0  0  0  0  0  0
    4.3269   -1.7520    0.0000 C   0  0  0  0  0  0  0  0  0  0  0  0
    3.4436   -3.2477    0.0000 C   0  0  0  0  0  0  0  0  0  0  0  0
    1.7062    2.7561    0.0000 C   0  0  0  0  0  0  0  0  0  0  0  0
    4.3144   -3.7603    0.0000 C   0  0  0  0  0  0  0  0  0  0  0  0
    5.1935   -2.2644    0.0000 C   0  0  0  0  0  0  0  0  0  0  0  0
    1.6976    3.7603    0.0000 C   0  0  0  0  0  0  0  0  0  0  0  0
  1  2  2  0  0  0  0
  1  3  1  0  0  0  0
  2  4  1  0  0  0  0
  4  9  2  0  0  0  0
  5 10  1  0  0  0  0
  5  6  1  0  0  0  0
  6  7  1  0  0  0  0
  3  8  2  0  0  0  0
  8  9  1  0  0  0  0
  4 10  1  0  0  0  0
  2 11  1  0  0  0  0
  3 12  1  0  0  0  0
  7 13  2  0  0  0  0
  7 14  1  0  0  0  0
 13 15  1  0  0  0  0
  9 16  1  0  0  0  0
 16 17  1  0  0  0  0
  5 17  1  0  0  0  0
  6 18  2  0  0  0  0
 11 19  1  0  0  0  0
 11 20  1  0  0  0  0
 21 32  1  0  0  0  0
 15 22  2  0  0  0  0
 13 23  1  0  0  0  0
 14 24  2  0  0  0  0
 22 24  1  0  0  0  0
 22 25  1  0  0  0  0
 19 26  1  0  0  0  0
 20 27  1  0  0  0  0
 12 28  1  0  0  0  0
 12 29  1  0  0  0  0
 26 30  1  0  0  0  0
 27 30  1  0  0  0  0
 29 31  1  0  0  0  0
 21 31  1  0  0  0  0
 28 32  1  0  0  0  0
 30 33  1  0  0  0  0
M  END
> <IDNUMBER>
V021-1232

> <available>
1

> <H_acceptor>
5

> <H_donor>
0

> <B_rotN>
4

> <N_O>
7

> <logP>
4.0229

> <logD>
4.0219

> <logSw>
-4.2372

> <PSA>
50.294

> <pKa_ma>
19.796

> <pKa_mb>
4.7718

> <N_Chirals>
0

> <Name>
(2,4-difluorophenyl)[4-(4-methylpiperidin-1-yl)-2-(morpholin-4-yl)-7,8-dihydropyrido[4,3-d]pyrimidin-6(5H)-yl]methanone

> <Smile>
CC(CC1)CCN1c1c(CN(CC2)C(c(ccc(F)c3)c3F)=O)c2nc(N2CCOCC2)n1

> <Color>
NOT COLORED

> <Collection>
DC

> <InChI>
InChI=1S/C24H29F2N5O2/c1-16-4-7-29(8-5-16)22-19-15-31(23(32)18-3-2-17(25)14-20(18)26)9-6-21(19)27-24(28-22)30-10-12-33-13-11-30/h2-3,14,16H,4-13,15H2,1H3

> <InChI Key>
ZKITXJBDPSZEFW-UHFFFAOYSA-N

> <PERCENTSP3>
54.167

> <Link>
https://www.chemdiv.com/catalog/screening-compounds/compound-V021-1232/

> <MFCDNUMBER>
MFCD19909043

> <STEREO>
ACHIRAL

> <State>
Solid

> <Similarity score>
0.23

$$$$
N-(4-fluorophenyl)-N'-(2-propyl-2,3,4,5-tetrahydro-1H-pyrido[4,3-b]indol-8-yl)ur
  -OEChem-04222410502D

 27 30  0     0  0  0  0  0  0999 V2000
   -2.5293    0.2417    0.0000 C   0  0  0  0  0  0  0  0  0  0  0  0
   -2.5293    1.2167    0.0000 C   0  0  0  0  0  0  0  0  0  0  0  0
   -1.6917    1.7085    0.0000 N   0  0  0  0  0  0  0  0  0  0  0  0
   -0.8417    0.2417    0.0000 C   0  0  0  0  0  0  0  0  0  0  0  0
   -0.8417    1.2167    0.0000 C   0  0  0  0  0  0  0  0  0  0  0  0
    1.6959   -1.2209    0.0000 C   0  0  0  0  0  0  0  0  0  0  0  0
   -3.3833   -0.2457    0.0000 C   0  0  0  0  0  0  0  0  0  0  0  0
   -4.2211    0.2417    0.0000 N   0  0  0  0  0  0  0  0  0  0  0  0
   -3.3833    1.7085    0.0000 C   0  0  0  0  0  0  0  0  0  0  0  0
    1.6959   -0.2457    0.0000 N   0  0  0  0  0  0  0  0  0  0  0  0
    2.5335   -1.7085    0.0000 N   0  0  0  0  0  0  0  0  0  0  0  0
    0.0043   -0.2457    0.0000 C   0  0  0  0  0  0  0  0  0  0  0  0
    0.8417    0.2417    0.0000 C   0  0  0  0  0  0  0  0  0  0  0  0
    0.8417   -1.7085    0.0000 O   0  0  0  0  0  0  0  0  0  0  0  0
    0.0043    1.7085    0.0000 C   0  0  0  0  0  0  0  0  0  0  0  0
   -4.2211    1.2167    0.0000 C   0  0  0  0  0  0  0  0  0  0  0  0
    3.3833   -1.2209    0.0000 C   0  0  0  0  0  0  0  0  0  0  0  0
    0.8417    1.2167    0.0000 C   0  0  0  0  0  0  0  0  0  0  0  0
    5.0794   -0.2457    0.0000 C   0  0  0  0  0  0  0  0  0  0  0  0
    5.9169    0.2417    0.0000 F   0  0  0  0  0  0  0  0  0  0  0  0
    3.3833   -0.2457    0.0000 C   0  0  0  0  0  0  0  0  0  0  0  0
    4.2211   -1.7085    0.0000 C   0  0  0  0  0  0  0  0  0  0  0  0
    4.2211    0.2417    0.0000 C   0  0  0  0  0  0  0  0  0  0  0  0
    5.0794   -1.2209    0.0000 C   0  0  0  0  0  0  0  0  0  0  0  0
   -5.0794   -0.2457    0.0000 C   0  0  0  0  0  0  0  0  0  0  0  0
   -5.0794   -1.2209    0.0000 C   0  0  0  0  0  0  0  0  0  0  0  0
   -5.9169   -1.7085    0.0000 C   0  0  0  0  0  0  0  0  0  0  0  0
  1  2  2  0  0  0  0
  2  3  1  0  0  0  0
  1  4  1  0  0  0  0
  4  5  1  0  0  0  0
  3  5  1  0  0  0  0
  6 10  1  0  0  0  0
  1  7  1  0  0  0  0
  7  8  1  0  0  0  0
  2  9  1  0  0  0  0
 10 13  1  0  0  0  0
  6 11  1  0  0  0  0
  4 12  2  0  0  0  0
 12 13  1  0  0  0  0
  6 14  2  0  0  0  0
  5 15  2  0  0  0  0
  8 16  1  0  0  0  0
  9 16  1  0  0  0  0
 11 17  1  0  0  0  0
 13 18  2  0  0  0  0
 15 18  1  0  0  0  0
 19 24  2  0  0  0  0
 19 23  1  0  0  0  0
 19 20  1  0  0  0  0
 17 21  1  0  0  0  0
 17 22  2  0  0  0  0
 21 23  2  0  0  0  0
 22 24  1  0  0  0  0
  8 25  1  0  0  0  0
 25 26  1  0  0  0  0
 26 27  1  0  0  0  0
M  END
> <IDNUMBER>
M294-1325

> <available>
1

> <H_acceptor>
3

> <H_donor>
3

> <B_rotN>
6

> <N_O>
5

> <logP>
4.211

> <logD>
1.4818

> <logSw>
-4.1492

> <PSA>
47.036

> <pKa_ma>
11.6228

> <pKa_mb>
10.1284

> <N_Chirals>
0

> <Name>
N-(4-fluorophenyl)-N'-(2-propyl-2,3,4,5-tetrahydro-1H-pyrido[4,3-b]indol-8-yl)urea

> <Smile>
CCCN(CC1)Cc2c1[nH]c(cc1)c2cc1NC(Nc(cc1)ccc1F)=O

> <Color>
YELLOW

> <Collection>
NC

> <InChI>
InChI=1S/C21H23FN4O/c1-2-10-26-11-9-20-18(13-26)17-12-16(7-8-19(17)25-20)24-21(27)23-15-5-3-14(22)4-6-15/h3-8,12,25H,2,9-11,13H2,1H3,(H2,23,24,27)

> <InChI Key>
KALPGNDSCLTLST-UHFFFAOYSA-N

> <PERCENTSP3>
28.5714

> <Link>
https://www.chemdiv.com/catalog/screening-compounds/compound-M294-1325/

> <MFCDNUMBER>
MFCD27535427

> <CLNUMBER>
CL9549

> <STEREO>
ACHIRAL

> <State>
Solid

> <Similarity score>
0.23

$$$$
7-[(3,4-difluorophenyl)methyl]-2-(4-methylpiperazin-1-yl)-3,5,6,7,8,9-hexahydro-
  -OEChem-04222410502D

 28 31  0     0  0  0  0  0  0999 V2000
    1.3270    1.0920    0.0000 C   0  0  0  0  0  0  0  0  0  0  0  0
    1.1015    2.0760    0.0000 N   0  0  0  0  0  0  0  0  0  0  0  0
   -0.5907    1.6811    0.0000 C   0  0  0  0  0  0  0  0  0  0  0  0
    0.5939    0.4121    0.0000 N   0  0  0  0  0  0  0  0  0  0  0  0
    0.1427    2.3610    0.0000 C   0  0  0  0  0  0  0  0  0  0  0  0
   -0.3649    0.7129    0.0000 C   0  0  0  0  0  0  0  0  0  0  0  0
    2.2861    0.7973    0.0000 N   0  0  0  0  0  0  0  0  0  0  0  0
   -1.4870    2.1137    0.0000 C   0  0  0  0  0  0  0  0  0  0  0  0
   -2.6214    0.7129    0.0000 N   0  0  0  0  0  0  0  0  0  0  0  0
   -0.9949   -0.0675    0.0000 C   0  0  0  0  0  0  0  0  0  0  0  0
    4.1944    0.2082    0.0000 N   0  0  0  0  0  0  0  0  0  0  0  0
   -3.4955   -2.1639    0.0000 C   0  0  0  0  0  0  0  0  0  0  0  0
   -0.0738    3.3388    0.0000 O   0  0  0  0  0  0  0  0  0  0  0  0
   -4.4734   -2.3800    0.0000 C   0  0  0  0  0  0  0  0  0  0  0  0
    3.0192    1.4743    0.0000 C   0  0  0  0  0  0  0  0  0  0  0  0
    2.5022   -0.1709    0.0000 C   0  0  0  0  0  0  0  0  0  0  0  0
   -3.2073   -1.2051    0.0000 C   0  0  0  0  0  0  0  0  0  0  0  0
   -3.8904   -0.4717    0.0000 C   0  0  0  0  0  0  0  0  0  0  0  0
   -3.5896    0.4871    0.0000 C   0  0  0  0  0  0  0  0  0  0  0  0
   -2.3956    1.6811    0.0000 C   0  0  0  0  0  0  0  0  0  0  0  0
   -1.9914   -0.0675    0.0000 C   0  0  0  0  0  0  0  0  0  0  0  0
   -5.1533   -1.6470    0.0000 C   0  0  0  0  0  0  0  0  0  0  0  0
    3.4611   -0.4717    0.0000 C   0  0  0  0  0  0  0  0  0  0  0  0
    3.9654    1.1861    0.0000 C   0  0  0  0  0  0  0  0  0  0  0  0
   -2.8188   -2.8941    0.0000 F   0  0  0  0  0  0  0  0  0  0  0  0
   -4.8586   -0.6878    0.0000 C   0  0  0  0  0  0  0  0  0  0  0  0
   -4.7742   -3.3388    0.0000 F   0  0  0  0  0  0  0  0  0  0  0  0
    5.1533   -0.0768    0.0000 C   0  0  0  0  0  0  0  0  0  0  0  0
  1  2  1  0  0  0  0
  3  6  2  0  0  0  0
  3  5  1  0  0  0  0
  1  4  2  0  0  0  0
  2  5  1  0  0  0  0
  4  6  1  0  0  0  0
  1  7  1  0  0  0  0
  3  8  1  0  0  0  0
  9 21  1  0  0  0  0
  9 20  1  0  0  0  0
  6 10  1  0  0  0  0
 11 23  1  0  0  0  0
 11 24  1  0  0  0  0
 12 17  1  0  0  0  0
 12 14  2  0  0  0  0
  5 13  2  0  0  0  0
 14 22  1  0  0  0  0
  7 15  1  0  0  0  0
  7 16  1  0  0  0  0
 17 18  2  0  0  0  0
 18 19  1  0  0  0  0
  9 19  1  0  0  0  0
  8 20  1  0  0  0  0
 10 21  1  0  0  0  0
 22 26  2  0  0  0  0
 16 23  1  0  0  0  0
 15 24  1  0  0  0  0
 12 25  1  0  0  0  0
 18 26  1  0  0  0  0
 14 27  1  0  0  0  0
 11 28  1  0  0  0  0
M  END
> <IDNUMBER>
S039-3670

> <available>
3

> <H_acceptor>
5

> <H_donor>
1

> <B_rotN>
3

> <N_O>
6

> <logP>
1.5632

> <logD>
0.3435

> <logSw>
-2.379

> <PSA>
45.276

> <pKa_ma>
9.6889

> <pKa_mb>
8.5927

> <N_Chirals>
0

> <Name>
7-[(3,4-difluorophenyl)methyl]-2-(4-methylpiperazin-1-yl)-3,5,6,7,8,9-hexahydro-4H-pyrimido[4,5-d]azepin-4-one

> <Smile>
CN(CC1)CCN1C(N1)=NC(CCN(Cc(cc2)cc(F)c2F)CC2)=C2C1=O

> <Color>
NOT COLORED

> <Collection>
IC

> <InChI>
InChI=1S/C20H25F2N5O/c1-25-8-10-27(11-9-25)20-23-18-5-7-26(6-4-15(18)19(28)24-20)13-14-2-3-16(21)17(22)12-14/h2-3,12H,4-11,13H2,1H3,(H,23,24,28)

> <InChI Key>
UDMVQXXWMBWRRO-UHFFFAOYSA-N

> <PERCENTSP3>
50

> <Link>
https://www.chemdiv.com/catalog/screening-compounds/compound-S039-3670/

> <MFCDNUMBER>
MFCD28999062

> <CLNUMBER>
CM2417

> <STEREO>
ACHIRAL

> <State>
Solid

> <Similarity score>
0.23

$$$$
7-[(2,3-difluorophenyl)methyl]-2-(4-methylpiperazin-1-yl)-3,5,6,7,8,9-hexahydro-
  -OEChem-04222410502D

 28 31  0     0  0  0  0  0  0999 V2000
    1.8172    0.6141    0.0000 C   0  0  0  0  0  0  0  0  0  0  0  0
    1.5917    1.5917    0.0000 N   0  0  0  0  0  0  0  0  0  0  0  0
   -0.1004    1.2063    0.0000 C   0  0  0  0  0  0  0  0  0  0  0  0
    1.0841   -0.0627    0.0000 N   0  0  0  0  0  0  0  0  0  0  0  0
    0.6331    1.8831    0.0000 C   0  0  0  0  0  0  0  0  0  0  0  0
    0.1254    0.2286    0.0000 C   0  0  0  0  0  0  0  0  0  0  0  0
    2.7762    0.3164    0.0000 N   0  0  0  0  0  0  0  0  0  0  0  0
   -3.3966   -0.9463    0.0000 C   0  0  0  0  0  0  0  0  0  0  0  0
   -4.3648   -1.1718    0.0000 C   0  0  0  0  0  0  0  0  0  0  0  0
   -2.1212    0.2286    0.0000 N   0  0  0  0  0  0  0  0  0  0  0  0
   -1.0027    1.6386    0.0000 C   0  0  0  0  0  0  0  0  0  0  0  0
   -0.4950   -0.5514    0.0000 C   0  0  0  0  0  0  0  0  0  0  0  0
    4.6780   -0.2695    0.0000 N   0  0  0  0  0  0  0  0  0  0  0  0
   -3.1052    0.0032    0.0000 C   0  0  0  0  0  0  0  0  0  0  0  0
    0.4168    2.8639    0.0000 O   0  0  0  0  0  0  0  0  0  0  0  0
    3.0017   -0.6518    0.0000 C   0  0  0  0  0  0  0  0  0  0  0  0
    3.5030    1.0090    0.0000 C   0  0  0  0  0  0  0  0  0  0  0  0
   -4.6561   -2.1308    0.0000 C   0  0  0  0  0  0  0  0  0  0  0  0
   -1.8958    1.2063    0.0000 C   0  0  0  0  0  0  0  0  0  0  0  0
   -1.5008   -0.5514    0.0000 C   0  0  0  0  0  0  0  0  0  0  0  0
    3.9448   -0.9463    0.0000 C   0  0  0  0  0  0  0  0  0  0  0  0
    4.4525    0.6986    0.0000 C   0  0  0  0  0  0  0  0  0  0  0  0
   -5.0510   -0.4386    0.0000 F   0  0  0  0  0  0  0  0  0  0  0  0
   -5.6369   -2.3562    0.0000 F   0  0  0  0  0  0  0  0  0  0  0  0
   -2.7103   -1.6795    0.0000 C   0  0  0  0  0  0  0  0  0  0  0  0
    5.6369   -0.5609    0.0000 C   0  0  0  0  0  0  0  0  0  0  0  0
   -3.0112   -2.6384    0.0000 C   0  0  0  0  0  0  0  0  0  0  0  0
   -3.9793   -2.8639    0.0000 C   0  0  0  0  0  0  0  0  0  0  0  0
  1  2  1  0  0  0  0
  3  6  2  0  0  0  0
  3  5  1  0  0  0  0
  1  4  2  0  0  0  0
  2  5  1  0  0  0  0
  4  6  1  0  0  0  0
  1  7  1  0  0  0  0
  8 14  1  0  0  0  0
  8  9  2  0  0  0  0
 10 20  1  0  0  0  0
 10 19  1  0  0  0  0
  3 11  1  0  0  0  0
  6 12  1  0  0  0  0
 13 22  1  0  0  0  0
 13 21  1  0  0  0  0
 10 14  1  0  0  0  0
  5 15  2  0  0  0  0
  7 16  1  0  0  0  0
  7 17  1  0  0  0  0
  9 18  1  0  0  0  0
 18 28  2  0  0  0  0
 11 19  1  0  0  0  0
 12 20  1  0  0  0  0
 16 21  1  0  0  0  0
 17 22  1  0  0  0  0
  9 23  1  0  0  0  0
 18 24  1  0  0  0  0
  8 25  1  0  0  0  0
 13 26  1  0  0  0  0
 25 27  2  0  0  0  0
 27 28  1  0  0  0  0
M  END
> <IDNUMBER>
S039-3961

> <available>
1

> <H_acceptor>
5

> <H_donor>
1

> <B_rotN>
3

> <N_O>
6

> <logP>
1.831

> <logD>
0.6112

> <logSw>
-2.3225

> <PSA>
45.276

> <pKa_ma>
9.6889

> <pKa_mb>
8.5927

> <N_Chirals>
0

> <Name>
7-[(2,3-difluorophenyl)methyl]-2-(4-methylpiperazin-1-yl)-3,5,6,7,8,9-hexahydro-4H-pyrimido[4,5-d]azepin-4-one

> <Smile>
CN(CC1)CCN1C(N1)=NC(CCN(Cc2cccc(F)c2F)CC2)=C2C1=O

> <Color>
NOT COLORED

> <Collection>
IC

> <InChI>
InChI=1S/C20H25F2N5O/c1-25-9-11-27(12-10-25)20-23-17-6-8-26(7-5-15(17)19(28)24-20)13-14-3-2-4-16(21)18(14)22/h2-4H,5-13H2,1H3,(H,23,24,28)

> <InChI Key>
JGTJJVMAAFZULJ-UHFFFAOYSA-N

> <PERCENTSP3>
50

> <Link>
https://www.chemdiv.com/catalog/screening-compounds/compound-S039-3961/

> <MFCDNUMBER>
MFCD28999102

> <CLNUMBER>
CM2417

> <STEREO>
ACHIRAL

> <State>
Solid

> <Similarity score>
0.23

$$$$
N-(3,4-difluorophenyl)-2-(9-fluoro-6-methyl-10-oxo-3,4,5,10-tetrahydrobenzo[b][1
  -OEChem-04222410502D

 29 32  0     0  0  0  0  0  0999 V2000
   -0.8916   -1.7001    0.0000 C   0  0  0  0  0  0  0  0  0  0  0  0
   -1.7598   -1.2113    0.0000 C   0  0  0  0  0  0  0  0  0  0  0  0
   -2.6404   -1.7001    0.0000 C   0  0  0  0  0  0  0  0  0  0  0  0
   -1.7785   -3.1824    0.0000 N   0  0  0  0  0  0  0  0  0  0  0  0
   -2.6404   -2.6875    0.0000 C   0  0  0  0  0  0  0  0  0  0  0  0
   -0.8916   -2.6968    0.0000 C   0  0  0  0  0  0  0  0  0  0  0  0
    0.8822   -1.7001    0.0000 N   0  0  0  0  0  0  0  0  0  0  0  0
    0.0077   -1.2176    0.0000 C   0  0  0  0  0  0  0  0  0  0  0  0
    1.7692   -0.2396    0.0000 C   0  0  0  0  0  0  0  0  0  0  0  0
   -3.5334   -1.2176    0.0000 C   0  0  0  0  0  0  0  0  0  0  0  0
   -0.0077   -3.1824    0.0000 C   0  0  0  0  0  0  0  0  0  0  0  0
    3.5461    2.6842    0.0000 C   0  0  0  0  0  0  0  0  0  0  0  0
    3.5461    1.7065    0.0000 C   0  0  0  0  0  0  0  0  0  0  0  0
   -3.5334   -3.1730    0.0000 C   0  0  0  0  0  0  0  0  0  0  0  0
    2.6685    0.2459    0.0000 N   0  0  0  0  0  0  0  0  0  0  0  0
   -1.7598   -0.2242    0.0000 O   0  0  0  0  0  0  0  0  0  0  0  0
    2.6685    1.2333    0.0000 C   0  0  0  0  0  0  0  0  0  0  0  0
    2.6685    3.1700    0.0000 C   0  0  0  0  0  0  0  0  0  0  0  0
    1.7692   -1.2176    0.0000 C   0  0  0  0  0  0  0  0  0  0  0  0
    0.8822    0.2459    0.0000 O   0  0  0  0  0  0  0  0  0  0  0  0
    0.8822   -2.6968    0.0000 C   0  0  0  0  0  0  0  0  0  0  0  0
   -4.4016   -1.7001    0.0000 C   0  0  0  0  0  0  0  0  0  0  0  0
   -4.4016   -2.6875    0.0000 C   0  0  0  0  0  0  0  0  0  0  0  0
    1.7785    2.6842    0.0000 C   0  0  0  0  0  0  0  0  0  0  0  0
    4.4016    3.2014    0.0000 F   0  0  0  0  0  0  0  0  0  0  0  0
    1.7785    1.7065    0.0000 C   0  0  0  0  0  0  0  0  0  0  0  0
   -3.5334   -0.2242    0.0000 F   0  0  0  0  0  0  0  0  0  0  0  0
    2.6685    4.1697    0.0000 F   0  0  0  0  0  0  0  0  0  0  0  0
   -3.5334   -4.1697    0.0000 C   0  0  0  0  0  0  0  0  0  0  0  0
  1  2  1  0  0  0  0
  2  3  1  0  0  0  0
  3  5  1  0  0  0  0
  4  6  1  0  0  0  0
  4  5  1  0  0  0  0
  1  6  2  0  0  0  0
  7  8  1  0  0  0  0
  1  8  1  0  0  0  0
  9 19  1  0  0  0  0
  3 10  2  0  0  0  0
  6 11  1  0  0  0  0
 11 21  1  0  0  0  0
 12 13  2  0  0  0  0
 12 18  1  0  0  0  0
 13 17  1  0  0  0  0
  5 14  2  0  0  0  0
  9 15  1  0  0  0  0
  2 16  2  0  0  0  0
 15 17  1  0  0  0  0
 18 24  2  0  0  0  0
  7 19  1  0  0  0  0
  9 20  2  0  0  0  0
  7 21  1  0  0  0  0
 10 22  1  0  0  0  0
 22 23  2  0  0  0  0
 14 23  1  0  0  0  0
 24 26  1  0  0  0  0
 12 25  1  0  0  0  0
 17 26  2  0  0  0  0
 10 27  1  0  0  0  0
 18 28  1  0  0  0  0
 14 29  1  0  0  0  0
M  END
> <IDNUMBER>
L489-1908

> <available>
92

> <H_acceptor>
5

> <H_donor>
2

> <B_rotN>
4

> <N_O>
5

> <logP>
3.9558

> <logD>
3.0588

> <logSw>
-4.2206

> <PSA>
48.811

> <pKa_ma>
6.5619

> <pKa_mb>
1.2894

> <N_Chirals>
0

> <Name>
N-(3,4-difluorophenyl)-2-(9-fluoro-6-methyl-10-oxo-3,4,5,10-tetrahydrobenzo[b][1,6]naphthyridin-2(1H)-yl)acetamide

> <Smile>
Cc(c(NC1=C2CN(CC(Nc(cc3)cc(F)c3F)=O)CC1)c1C2=O)ccc1F

> <Color>
YELLOW

> <Collection>
NC

> <InChI>
InChI=1S/C21H18F3N3O2/c1-11-2-4-15(23)19-20(11)26-17-6-7-27(9-13(17)21(19)29)10-18(28)25-12-3-5-14(22)16(24)8-12/h2-5,8H,6-7,9-10H2,1H3,(H,25,28)(H,26,29)

> <InChI Key>
QUOULELQJOXPMJ-UHFFFAOYSA-N

> <PERCENTSP3>
23.8

> <Link>
https://www.chemdiv.com/catalog/screening-compounds/compound-L489-1908/

> <MFCDNUMBER>
MFCD27457674

> <CLNUMBER>
CL8213A

> <STEREO>
ACHIRAL

> <State>
Solid

> <Similarity score>
0.23

$$$$
4-[4-(2-fluorophenyl)piperazin-1-yl]-2-(2-methoxyethyl)-5,6,8,9-tetrahydrooxepin
  -OEChem-04222410502D

 28 31  0     0  0  0  0  0  0999 V2000
    1.0558   -0.0252    0.0000 C   0  0  0  0  0  0  0  0  0  0  0  0
    1.1247   -1.0213    0.0000 C   0  0  0  0  0  0  0  0  0  0  0  0
    1.8735    0.5294    0.0000 N   0  0  0  0  0  0  0  0  0  0  0  0
    0.1474    0.4074    0.0000 N   0  0  0  0  0  0  0  0  0  0  0  0
    2.0271   -1.4602    0.0000 C   0  0  0  0  0  0  0  0  0  0  0  0
    2.8511   -0.8993    0.0000 N   0  0  0  0  0  0  0  0  0  0  0  0
    2.7792    0.1004    0.0000 C   0  0  0  0  0  0  0  0  0  0  0  0
   -1.6575    1.2719    0.0000 N   0  0  0  0  0  0  0  0  0  0  0  0
   -2.5537    1.7045    0.0000 C   0  0  0  0  0  0  0  0  0  0  0  0
   -0.6799   -0.1568    0.0000 C   0  0  0  0  0  0  0  0  0  0  0  0
    0.0689    1.4035    0.0000 C   0  0  0  0  0  0  0  0  0  0  0  0
   -1.5823    0.2758    0.0000 C   0  0  0  0  0  0  0  0  0  0  0  0
   -0.8302    1.8361    0.0000 C   0  0  0  0  0  0  0  0  0  0  0  0
    3.5969    0.6610    0.0000 C   0  0  0  0  0  0  0  0  0  0  0  0
   -3.3869    1.1404    0.0000 C   0  0  0  0  0  0  0  0  0  0  0  0
    0.6268   -3.2209    0.0000 O   0  0  0  0  0  0  0  0  0  0  0  0
    2.2497   -2.4315    0.0000 C   0  0  0  0  0  0  0  0  0  0  0  0
    0.2225   -1.4602    0.0000 C   0  0  0  0  0  0  0  0  0  0  0  0
   -3.3055    0.1440    0.0000 F   0  0  0  0  0  0  0  0  0  0  0  0
    1.6292   -3.2209    0.0000 C   0  0  0  0  0  0  0  0  0  0  0  0
    4.3583    2.2308    0.0000 O   0  0  0  0  0  0  0  0  0  0  0  0
   -2.6351    2.7102    0.0000 C   0  0  0  0  0  0  0  0  0  0  0  0
    3.5310    1.6606    0.0000 C   0  0  0  0  0  0  0  0  0  0  0  0
   -0.0030   -2.4315    0.0000 C   0  0  0  0  0  0  0  0  0  0  0  0
   -4.2798    1.5759    0.0000 C   0  0  0  0  0  0  0  0  0  0  0  0
    4.2798    3.2209    0.0000 C   0  0  0  0  0  0  0  0  0  0  0  0
   -3.5310    3.1362    0.0000 C   0  0  0  0  0  0  0  0  0  0  0  0
   -4.3583    2.5786    0.0000 C   0  0  0  0  0  0  0  0  0  0  0  0
  1  2  1  0  0  0  0
  1  3  2  0  0  0  0
  1  4  1  0  0  0  0
  2  5  2  0  0  0  0
  6  7  2  0  0  0  0
  5  6  1  0  0  0  0
  3  7  1  0  0  0  0
  8 13  1  0  0  0  0
  8  9  1  0  0  0  0
  4 10  1  0  0  0  0
  4 11  1  0  0  0  0
 10 12  1  0  0  0  0
  8 12  1  0  0  0  0
 11 13  1  0  0  0  0
  7 14  1  0  0  0  0
  9 15  1  0  0  0  0
 16 24  1  0  0  0  0
  5 17  1  0  0  0  0
  2 18  1  0  0  0  0
 15 19  1  0  0  0  0
 17 20  1  0  0  0  0
 16 20  1  0  0  0  0
 21 23  1  0  0  0  0
  9 22  2  0  0  0  0
 14 23  1  0  0  0  0
 18 24  1  0  0  0  0
 15 25  2  0  0  0  0
 21 26  1  0  0  0  0
 22 27  1  0  0  0  0
 27 28  2  0  0  0  0
 25 28  1  0  0  0  0
M  END
> <IDNUMBER>
S896-0030

> <available>
14

> <H_acceptor>
4

> <H_donor>
0

> <B_rotN>
5

> <N_O>
6

> <logP>
3.3784

> <logD>
3.3747

> <logSw>
-3.5738

> <PSA>
44.148

> <pKa_ma>
19.7965

> <pKa_mb>
5.3362

> <N_Chirals>
0

> <Name>
4-[4-(2-fluorophenyl)piperazin-1-yl]-2-(2-methoxyethyl)-5,6,8,9-tetrahydrooxepino[4,5-d]pyrimidine

> <Smile>
COCCc1nc(CCOCC2)c2c(N(CC2)CCN2c(cccc2)c2F)n1

> <Color>
YELLOW

> <Collection>
IC

> <InChI>
InChI=1S/C21H27FN4O2/c1-27-13-8-20-23-18-7-15-28-14-6-16(18)21(24-20)26-11-9-25(10-12-26)19-5-3-2-4-17(19)22/h2-5H,6-15H2,1H3

> <InChI Key>
MXCFKYZHAXXKLK-UHFFFAOYSA-N

> <PERCENTSP3>
52.38

> <Link>
https://www.chemdiv.com/catalog/screening-compounds/compound-S896-0030/

> <MFCDNUMBER>
MFCD31957696

> <CLNUMBER>
CM3993

> <STEREO>
ACHIRAL

> <State>
Liquid

> <Similarity score>
0.23

$$$$
N-[1-(2-cyclopentyl-5,6,8,9-tetrahydrooxepino[4,5-d]pyrimidin-4-yl)piperidin-4-y
  -OEChem-04222410502D

 30 33  0     0  0  0  0  0  0999 V2000
   -1.5564    0.9105    0.0000 C   0  0  0  0  0  0  0  0  0  0  0  0
   -1.5564   -0.0895    0.0000 N   0  0  0  0  0  0  0  0  0  0  0  0
   -2.4189    1.4064    0.0000 C   0  0  0  0  0  0  0  0  0  0  0  0
   -2.4189   -0.5853    0.0000 C   0  0  0  0  0  0  0  0  0  0  0  0
   -3.2857   -0.0895    0.0000 N   0  0  0  0  0  0  0  0  0  0  0  0
   -0.6896    1.4064    0.0000 N   0  0  0  0  0  0  0  0  0  0  0  0
   -3.2857    0.9105    0.0000 C   0  0  0  0  0  0  0  0  0  0  0  0
    2.7774    2.4107    0.0000 C   0  0  0  0  0  0  0  0  0  0  0  0
    1.9106    2.9107    0.0000 N   0  0  0  0  0  0  0  0  0  0  0  0
    0.1770    0.9105    0.0000 C   0  0  0  0  0  0  0  0  0  0  0  0
   -0.6896    2.4107    0.0000 C   0  0  0  0  0  0  0  0  0  0  0  0
    3.6441    2.9107    0.0000 O   0  0  0  0  0  0  0  0  0  0  0  0
   -2.4189   -1.5855    0.0000 C   0  0  0  0  0  0  0  0  0  0  0  0
    1.0480    2.4107    0.0000 C   0  0  0  0  0  0  0  0  0  0  0  0
    1.0480    1.4064    0.0000 C   0  0  0  0  0  0  0  0  0  0  0  0
    0.1770    2.9107    0.0000 C   0  0  0  0  0  0  0  0  0  0  0  0
   -3.9524    3.0566    0.0000 O   0  0  0  0  0  0  0  0  0  0  0  0
    2.7774    1.4064    0.0000 C   0  0  3  0  0  0  0  0  0  0  0  0
   -4.2149    1.2730    0.0000 C   0  0  0  0  0  0  0  0  0  0  0  0
   -2.2689    2.3980    0.0000 C   0  0  0  0  0  0  0  0  0  0  0  0
   -4.5108    2.2314    0.0000 C   0  0  0  0  0  0  0  0  0  0  0  0
   -2.9565    3.1274    0.0000 C   0  0  0  0  0  0  0  0  0  0  0  0
   -1.6148   -2.1856    0.0000 C   0  0  0  0  0  0  0  0  0  0  0  0
   -3.2315   -2.1856    0.0000 C   0  0  0  0  0  0  0  0  0  0  0  0
    3.6441    0.9105    0.0000 C   0  0  0  0  0  0  0  0  0  0  0  0
    1.9106    0.9105    0.0000 C   0  0  0  0  0  0  0  0  0  0  0  0
    3.6441   -0.0895    0.0000 C   0  0  0  0  0  0  0  0  0  0  0  0
    4.5108   -0.5853    0.0000 C   0  0  0  0  0  0  0  0  0  0  0  0
   -2.9273   -3.1274    0.0000 C   0  0  0  0  0  0  0  0  0  0  0  0
   -1.9188   -3.1274    0.0000 C   0  0  0  0  0  0  0  0  0  0  0  0
  1  2  2  0  0  0  0
  1  3  1  0  0  0  0
  2  4  1  0  0  0  0
  4  5  2  0  0  0  0
  5  7  1  0  0  0  0
  1  6  1  0  0  0  0
  3  7  2  0  0  0  0
  8  9  1  0  0  0  0
  9 14  1  0  0  0  0
  6 10  1  0  0  0  0
  6 11  1  0  0  0  0
  8 12  2  0  0  0  0
  4 13  1  0  0  0  0
 14 16  1  0  0  0  0
 14 15  1  0  0  0  0
 10 15  1  0  0  0  0
 11 16  1  0  0  0  0
 17 22  1  0  0  0  0
 17 21  1  0  0  0  0
  8 18  1  0  0  0  0
  7 19  1  0  0  0  0
  3 20  1  0  0  0  0
 19 21  1  0  0  0  0
 20 22  1  0  0  0  0
 13 23  1  0  0  0  0
 13 24  1  0  0  0  0
 18 25  1  0  0  0  0
 18 26  1  0  0  0  0
 25 27  1  0  0  0  0
 27 28  1  0  0  0  0
 24 29  1  0  0  0  0
 29 30  1  0  0  0  0
 23 30  1  0  0  0  0
M  END
> <IDNUMBER>
S896-0674

> <available>
55

> <H_acceptor>
5

> <H_donor>
1

> <B_rotN>
7

> <N_O>
6

> <logP>
4.7889

> <logD>
4.7179

> <logSw>
-4.3975

> <PSA>
56.361

> <pKa_ma>
15.607

> <pKa_mb>
6.6495

> <N_Chirals>
1

> <Name>
N-[1-(2-cyclopentyl-5,6,8,9-tetrahydrooxepino[4,5-d]pyrimidin-4-yl)piperidin-4-yl]-2-methylpentanamide

> <Smile>
CCCC(C)C(NC(CC1)CCN1c1nc(C2CCCC2)nc2c1CCOCC2)=O

> <Color>
NOT COLORED

> <Collection>
IC

> <InChI>
InChI=1S/C24H38N4O2/c1-3-6-17(2)24(29)25-19-9-13-28(14-10-19)23-20-11-15-30-16-12-21(20)26-22(27-23)18-7-4-5-8-18/h17-19H,3-16H2,1-2H3,(H,25,29)/t17-/m0/s1

> <InChI Key>
DBYGQIJKRWBFTC-KRWDZBQOSA-N

> <PERCENTSP3>
79.17

> <Link>
https://www.chemdiv.com/catalog/screening-compounds/compound-S896-0674/

> <MFCDNUMBER>
MFCD31956886

> <CLNUMBER>
CM3993

> <STEREO>
RACEMIC MIXTURE

> <State>
Solid

> <Similarity score>
0.23

$$$$
2-(4-methoxyphenyl)-4-(4-propylpiperazin-1-yl)-5,6,8,9-tetrahydrooxepino[4,5-d]p
  -OEChem-04222410502D

 28 31  0     0  0  0  0  0  0999 V2000
   -0.8630    1.4081    0.0000 C   0  0  0  0  0  0  0  0  0  0  0  0
   -0.9381    0.4121    0.0000 N   0  0  0  0  0  0  0  0  0  0  0  0
   -1.6900    1.9752    0.0000 C   0  0  0  0  0  0  0  0  0  0  0  0
   -1.8404   -0.0171    0.0000 C   0  0  0  0  0  0  0  0  0  0  0  0
   -2.6674    0.5434    0.0000 N   0  0  0  0  0  0  0  0  0  0  0  0
    0.0297    1.8499    0.0000 N   0  0  0  0  0  0  0  0  0  0  0  0
   -2.5923    1.5492    0.0000 C   0  0  0  0  0  0  0  0  0  0  0  0
    1.8404    2.7145    0.0000 N   0  0  0  0  0  0  0  0  0  0  0  0
   -1.9155   -1.0135    0.0000 C   0  0  0  0  0  0  0  0  0  0  0  0
    0.8630    1.2796    0.0000 C   0  0  0  0  0  0  0  0  0  0  0  0
    0.1051    2.8459    0.0000 C   0  0  0  0  0  0  0  0  0  0  0  0
   -3.0935    3.7294    0.0000 O   0  0  0  0  0  0  0  0  0  0  0  0
   -2.8211   -1.4489    0.0000 C   0  0  0  0  0  0  0  0  0  0  0  0
   -1.0917   -1.5803    0.0000 C   0  0  0  0  0  0  0  0  0  0  0  0
    1.0072    3.2720    0.0000 C   0  0  0  0  0  0  0  0  0  0  0  0
    1.7591    1.7182    0.0000 C   0  0  0  0  0  0  0  0  0  0  0  0
   -3.4944    1.9752    0.0000 C   0  0  0  0  0  0  0  0  0  0  0  0
   -1.4675    2.9524    0.0000 C   0  0  0  0  0  0  0  0  0  0  0  0
   -2.0692   -3.0152    0.0000 C   0  0  0  0  0  0  0  0  0  0  0  0
   -1.1668   -2.5766    0.0000 C   0  0  0  0  0  0  0  0  0  0  0  0
   -2.8930   -2.4450    0.0000 C   0  0  0  0  0  0  0  0  0  0  0  0
   -2.1443   -4.0019    0.0000 O   0  0  0  0  0  0  0  0  0  0  0  0
    2.7365    3.1466    0.0000 C   0  0  0  0  0  0  0  0  0  0  0  0
   -3.7137    2.9524    0.0000 C   0  0  0  0  0  0  0  0  0  0  0  0
   -2.0877    3.7294    0.0000 C   0  0  0  0  0  0  0  0  0  0  0  0
   -1.3142   -4.5690    0.0000 C   0  0  0  0  0  0  0  0  0  0  0  0
    2.8085    4.1429    0.0000 C   0  0  0  0  0  0  0  0  0  0  0  0
    3.7137    4.5690    0.0000 C   0  0  0  0  0  0  0  0  0  0  0  0
  1  2  2  0  0  0  0
  1  3  1  0  0  0  0
  2  4  1  0  0  0  0
  5  7  1  0  0  0  0
  4  5  2  0  0  0  0
  1  6  1  0  0  0  0
  3  7  2  0  0  0  0
  8 15  1  0  0  0  0
  4  9  1  0  0  0  0
  6 10  1  0  0  0  0
  6 11  1  0  0  0  0
 12 25  1  0  0  0  0
  9 13  2  0  0  0  0
  9 14  1  0  0  0  0
 11 15  1  0  0  0  0
 10 16  1  0  0  0  0
  8 16  1  0  0  0  0
  7 17  1  0  0  0  0
  3 18  1  0  0  0  0
 19 20  1  0  0  0  0
 14 20  2  0  0  0  0
 13 21  1  0  0  0  0
 19 21  2  0  0  0  0
 19 22  1  0  0  0  0
  8 23  1  0  0  0  0
 17 24  1  0  0  0  0
 12 24  1  0  0  0  0
 18 25  1  0  0  0  0
 22 26  1  0  0  0  0
 23 27  1  0  0  0  0
 27 28  1  0  0  0  0
M  END
> <IDNUMBER>
S896-0120

> <available>
49

> <H_acceptor>
5

> <H_donor>
0

> <B_rotN>
5

> <N_O>
6

> <logP>
4.3819

> <logD>
3.0387

> <logSw>
-4.1518

> <PSA>
42.919

> <pKa_ma>
19.7965

> <pKa_mb>
8.7231

> <N_Chirals>
0

> <Name>
2-(4-methoxyphenyl)-4-(4-propylpiperazin-1-yl)-5,6,8,9-tetrahydrooxepino[4,5-d]pyrimidine

> <Smile>
CCCN(CC1)CCN1c1nc(-c(cc2)ccc2OC)nc2c1CCOCC2

> <Color>
ORANGE

> <Collection>
IC

> <InChI>
InChI=1S/C22H30N4O2/c1-3-10-25-11-13-26(14-12-25)22-19-8-15-28-16-9-20(19)23-21(24-22)17-4-6-18(27-2)7-5-17/h4-7H,3,8-16H2,1-2H3

> <InChI Key>
CWNDZZWAJWTPJE-UHFFFAOYSA-N

> <PERCENTSP3>
54.54

> <Link>
https://www.chemdiv.com/catalog/screening-compounds/compound-S896-0120/

> <MFCDNUMBER>
MFCD31956713

> <CLNUMBER>
CM3993

> <STEREO>
ACHIRAL

> <State>
Solid

> <Similarity score>
0.23

$$$$
4-[(2,6-difluorophenyl)methyl]-5,8-difluoro-7-(morpholin-4-yl)-3,4-dihydro-1lamb
  -OEChem-04222410502D

 29 32  0     0  0  0  0  0  0999 V2000
    0.4307   -1.2488    0.0000 C   0  0  0  0  0  0  0  0  0  0  0  0
    1.2979   -1.7494    0.0000 S   0  0  0  0  0  0  0  0  0  0  0  0
   -0.4365   -1.7494    0.0000 C   0  0  0  0  0  0  0  0  0  0  0  0
    0.4307   -0.2534    0.0000 C   0  0  0  0  0  0  0  0  0  0  0  0
   -1.3040   -1.2488    0.0000 C   0  0  0  0  0  0  0  0  0  0  0  0
   -1.3040   -0.2534    0.0000 N   0  0  0  0  0  0  0  0  0  0  0  0
    1.2979    0.2473    0.0000 N   0  0  0  0  0  0  0  0  0  0  0  0
   -0.4365    0.2473    0.0000 C   0  0  0  0  0  0  0  0  0  0  0  0
    2.1651    1.7494    0.0000 C   0  0  0  0  0  0  0  0  0  0  0  0
    1.2979    1.2488    0.0000 C   0  0  0  0  0  0  0  0  0  0  0  0
    2.1651   -1.2488    0.0000 C   0  0  0  0  0  0  0  0  0  0  0  0
   -2.1712   -1.7494    0.0000 N   0  0  0  0  0  0  0  0  0  0  0  0
    2.1651   -0.2534    0.0000 C   0  0  0  0  0  0  0  0  0  0  0  0
    2.1651   -2.2501    0.0000 O   0  0  0  0  0  0  0  0  0  0  0  0
    0.4307   -2.2501    0.0000 O   0  0  0  0  0  0  0  0  0  0  0  0
    3.0326    1.2488    0.0000 C   0  0  0  0  0  0  0  0  0  0  0  0
    2.1651    2.7509    0.0000 C   0  0  0  0  0  0  0  0  0  0  0  0
   -0.4365   -2.7448    0.0000 F   0  0  0  0  0  0  0  0  0  0  0  0
   -0.4365    1.2488    0.0000 F   0  0  0  0  0  0  0  0  0  0  0  0
   -3.8998   -2.7509    0.0000 O   0  0  0  0  0  0  0  0  0  0  0  0
    1.3040    3.2516    0.0000 F   0  0  0  0  0  0  0  0  0  0  0  0
    3.0326    0.2534    0.0000 F   0  0  0  0  0  0  0  0  0  0  0  0
   -3.0384   -1.2488    0.0000 C   0  0  0  0  0  0  0  0  0  0  0  0
   -2.1712   -2.7509    0.0000 C   0  0  0  0  0  0  0  0  0  0  0  0
    3.8998    2.7509    0.0000 C   0  0  0  0  0  0  0  0  0  0  0  0
    3.0326    3.2516    0.0000 C   0  0  0  0  0  0  0  0  0  0  0  0
    3.8998    1.7494    0.0000 C   0  0  0  0  0  0  0  0  0  0  0  0
   -3.8998   -1.7494    0.0000 C   0  0  0  0  0  0  0  0  0  0  0  0
   -3.0384   -3.2516    0.0000 C   0  0  0  0  0  0  0  0  0  0  0  0
  1  2  1  0  0  0  0
  1  3  1  0  0  0  0
  1  4  2  0  0  0  0
  3  5  2  0  0  0  0
  6  8  2  0  0  0  0
  5  6  1  0  0  0  0
  4  7  1  0  0  0  0
  4  8  1  0  0  0  0
  9 10  1  0  0  0  0
  7 10  1  0  0  0  0
  2 11  1  0  0  0  0
  5 12  1  0  0  0  0
  7 13  1  0  0  0  0
 11 13  1  0  0  0  0
  2 14  2  0  0  0  0
  2 15  2  0  0  0  0
  9 16  2  0  0  0  0
  9 17  1  0  0  0  0
  3 18  1  0  0  0  0
  8 19  1  0  0  0  0
 20 29  1  0  0  0  0
 20 28  1  0  0  0  0
 17 21  1  0  0  0  0
 16 22  1  0  0  0  0
 12 23  1  0  0  0  0
 12 24  1  0  0  0  0
 25 26  1  0  0  0  0
 25 27  2  0  0  0  0
 17 26  2  0  0  0  0
 16 27  1  0  0  0  0
 23 28  1  0  0  0  0
 24 29  1  0  0  0  0
M  END
> <IDNUMBER>
8610-0653

> <available>
70

> <H_acceptor>
6

> <H_donor>
0

> <B_rotN>
3

> <N_O>
6

> <logP>
2.6539

> <logD>
2.6539

> <logSw>
-2.8352

> <PSA>
55.046

> <pKa_ma>
21.3867

> <pKa_mb>
-0.8099

> <N_Chirals>
0

> <Name>
4-[(2,6-difluorophenyl)methyl]-5,8-difluoro-7-(morpholin-4-yl)-3,4-dihydro-1lambda~6~-pyrido[4,3-b][1,4]thiazine-1,1(2H)-dione

> <Smile>
O=S(CCN(Cc(c(F)ccc1)c1F)c1c(nc2N3CCOCC3)F)(c1c2F)=O

> <Color>
NOT COLORED

> <Collection>
DC

> <InChI>
InChI=1S/C18H17F4N3O3S/c19-12-2-1-3-13(20)11(12)10-25-6-9-29(26,27)16-14(21)18(23-17(22)15(16)25)24-4-7-28-8-5-24/h1-3H,4-10H2

> <InChI Key>
LBLSRMXDTBGPHE-UHFFFAOYSA-N

> <PERCENTSP3>
38.9

> <Link>
https://www.chemdiv.com/catalog/screening-compounds/compound-8610-0653/

> <MFCDNUMBER>
MFCD08053448

> <STEREO>
ACHIRAL

> <State>
Solid

> <Similarity score>
0.23

$$$$
2-(9-fluoro-6-methyl-10-oxo-3,4,5,10-tetrahydrobenzo[b][1,6]naphthyridin-2(1H)-y
  -OEChem-04222410502D

 29 32  0     0  0  0  0  0  0999 V2000
   -0.8914   -1.6968    0.0000 C   0  0  0  0  0  0  0  0  0  0  0  0
   -1.7595   -1.1923    0.0000 C   0  0  0  0  0  0  0  0  0  0  0  0
   -2.6399   -1.6968    0.0000 C   0  0  0  0  0  0  0  0  0  0  0  0
   -1.7782   -3.1757    0.0000 N   0  0  0  0  0  0  0  0  0  0  0  0
   -2.6399   -2.6743    0.0000 C   0  0  0  0  0  0  0  0  0  0  0  0
   -0.8914   -2.6870    0.0000 C   0  0  0  0  0  0  0  0  0  0  0  0
    0.8821   -1.6968    0.0000 N   0  0  0  0  0  0  0  0  0  0  0  0
    0.0017   -1.2111    0.0000 C   0  0  0  0  0  0  0  0  0  0  0  0
    1.7689   -0.2335    0.0000 C   0  0  0  0  0  0  0  0  0  0  0  0
   -3.5328   -1.2111    0.0000 C   0  0  0  0  0  0  0  0  0  0  0  0
   -0.0077   -3.1757    0.0000 C   0  0  0  0  0  0  0  0  0  0  0  0
   -3.5328   -3.1757    0.0000 C   0  0  0  0  0  0  0  0  0  0  0  0
    2.6617    0.2552    0.0000 N   0  0  0  0  0  0  0  0  0  0  0  0
   -1.7595   -0.2145    0.0000 O   0  0  0  0  0  0  0  0  0  0  0  0
    3.5517    2.6994    0.0000 C   0  0  0  0  0  0  0  0  0  0  0  0
    1.7689   -1.2111    0.0000 C   0  0  0  0  0  0  0  0  0  0  0  0
    2.6617    3.1788    0.0000 C   0  0  0  0  0  0  0  0  0  0  0  0
    2.6617    1.2331    0.0000 C   0  0  0  0  0  0  0  0  0  0  0  0
    3.5517    1.7125    0.0000 C   0  0  0  0  0  0  0  0  0  0  0  0
    0.8821    0.2552    0.0000 O   0  0  0  0  0  0  0  0  0  0  0  0
    0.8821   -2.6870    0.0000 C   0  0  0  0  0  0  0  0  0  0  0  0
   -4.4008   -1.6968    0.0000 C   0  0  0  0  0  0  0  0  0  0  0  0
   -4.4008   -2.6743    0.0000 C   0  0  0  0  0  0  0  0  0  0  0  0
    1.7782    2.6994    0.0000 C   0  0  0  0  0  0  0  0  0  0  0  0
   -3.5328   -0.2145    0.0000 F   0  0  0  0  0  0  0  0  0  0  0  0
    1.7782    1.7125    0.0000 C   0  0  0  0  0  0  0  0  0  0  0  0
    2.6713    4.1690    0.0000 F   0  0  0  0  0  0  0  0  0  0  0  0
    4.4008    3.2101    0.0000 C   0  0  0  0  0  0  0  0  0  0  0  0
   -3.5328   -4.1690    0.0000 C   0  0  0  0  0  0  0  0  0  0  0  0
  1  2  1  0  0  0  0
  2  3  1  0  0  0  0
  3  5  1  0  0  0  0
  4  6  1  0  0  0  0
  4  5  1  0  0  0  0
  1  6  2  0  0  0  0
  7  8  1  0  0  0  0
  1  8  1  0  0  0  0
  9 16  1  0  0  0  0
  3 10  2  0  0  0  0
  6 11  1  0  0  0  0
 11 21  1  0  0  0  0
  5 12  2  0  0  0  0
  9 13  1  0  0  0  0
  2 14  2  0  0  0  0
 15 19  2  0  0  0  0
 15 17  1  0  0  0  0
  7 16  1  0  0  0  0
 17 24  2  0  0  0  0
 13 18  1  0  0  0  0
 18 19  1  0  0  0  0
  9 20  2  0  0  0  0
  7 21  1  0  0  0  0
 10 22  1  0  0  0  0
 22 23  2  0  0  0  0
 12 23  1  0  0  0  0
 24 26  1  0  0  0  0
 10 25  1  0  0  0  0
 18 26  2  0  0  0  0
 17 27  1  0  0  0  0
 15 28  1  0  0  0  0
 12 29  1  0  0  0  0
M  END
> <IDNUMBER>
L489-1914

> <available>
99

> <H_acceptor>
5

> <H_donor>
2

> <B_rotN>
4

> <N_O>
5

> <logP>
4.0571

> <logD>
3.16

> <logSw>
-4.2455

> <PSA>
48.811

> <pKa_ma>
6.5619

> <pKa_mb>
1.2894

> <N_Chirals>
0

> <Name>
2-(9-fluoro-6-methyl-10-oxo-3,4,5,10-tetrahydrobenzo[b][1,6]naphthyridin-2(1H)-yl)-N-(4-fluoro-3-methylphenyl)acetamide

> <Smile>
Cc(ccc(F)c12)c2NC(CCN(CC(Nc(cc2)cc(C)c2F)=O)C2)=C2C1=O

> <Color>
YELLOW

> <Collection>
NC

> <InChI>
InChI=1S/C22H21F2N3O2/c1-12-3-5-17(24)20-21(12)26-18-7-8-27(10-15(18)22(20)29)11-19(28)25-14-4-6-16(23)13(2)9-14/h3-6,9H,7-8,10-11H2,1-2H3,(H,25,28)(H,26,29)

> <InChI Key>
LPTILAFATDYEOH-UHFFFAOYSA-N

> <PERCENTSP3>
27.3

> <Link>
https://www.chemdiv.com/catalog/screening-compounds/compound-L489-1914/

> <MFCDNUMBER>
MFCD27457679

> <CLNUMBER>
CL8213A

> <STEREO>
ACHIRAL

> <State>
Solid

> <Similarity score>
0.23

$$$$
2-(9-fluoro-6-methyl-10-oxo-3,4,5,10-tetrahydrobenzo[b][1,6]naphthyridin-2(1H)-y
  -OEChem-04222410502D

 29 32  0     0  0  0  0  0  0999 V2000
   -0.8822   -1.7030    0.0000 C   0  0  0  0  0  0  0  0  0  0  0  0
   -1.7657   -1.2018    0.0000 C   0  0  0  0  0  0  0  0  0  0  0  0
   -2.6339   -1.7030    0.0000 C   0  0  0  0  0  0  0  0  0  0  0  0
   -1.7784   -3.1791    0.0000 N   0  0  0  0  0  0  0  0  0  0  0  0
   -2.6339   -2.6809    0.0000 C   0  0  0  0  0  0  0  0  0  0  0  0
   -0.8822   -2.6963    0.0000 C   0  0  0  0  0  0  0  0  0  0  0  0
    0.8758   -1.7030    0.0000 N   0  0  0  0  0  0  0  0  0  0  0  0
    0.0077   -1.2205    0.0000 C   0  0  0  0  0  0  0  0  0  0  0  0
    1.7784   -0.2333    0.0000 C   0  0  0  0  0  0  0  0  0  0  0  0
   -3.5331   -1.2205    0.0000 C   0  0  0  0  0  0  0  0  0  0  0  0
   -0.0110   -3.1791    0.0000 C   0  0  0  0  0  0  0  0  0  0  0  0
    3.5551    2.6902    0.0000 C   0  0  0  0  0  0  0  0  0  0  0  0
    3.5551    1.7126    0.0000 C   0  0  0  0  0  0  0  0  0  0  0  0
   -3.5331   -3.1791    0.0000 C   0  0  0  0  0  0  0  0  0  0  0  0
    2.6619    0.2522    0.0000 N   0  0  0  0  0  0  0  0  0  0  0  0
   -1.7657   -0.2239    0.0000 O   0  0  0  0  0  0  0  0  0  0  0  0
    2.6619    1.2301    0.0000 C   0  0  0  0  0  0  0  0  0  0  0  0
    1.7784   -1.2205    0.0000 C   0  0  0  0  0  0  0  0  0  0  0  0
    2.6619    3.1760    0.0000 C   0  0  0  0  0  0  0  0  0  0  0  0
    0.8758    0.2522    0.0000 O   0  0  0  0  0  0  0  0  0  0  0  0
    0.8758   -2.6963    0.0000 C   0  0  0  0  0  0  0  0  0  0  0  0
   -4.4012   -1.7030    0.0000 C   0  0  0  0  0  0  0  0  0  0  0  0
   -4.4012   -2.6809    0.0000 C   0  0  0  0  0  0  0  0  0  0  0  0
    1.7847    2.6902    0.0000 C   0  0  0  0  0  0  0  0  0  0  0  0
    4.4012    3.1947    0.0000 F   0  0  0  0  0  0  0  0  0  0  0  0
    1.7847    1.7126    0.0000 C   0  0  0  0  0  0  0  0  0  0  0  0
   -3.5331   -0.2146    0.0000 F   0  0  0  0  0  0  0  0  0  0  0  0
   -3.5331   -4.1757    0.0000 C   0  0  0  0  0  0  0  0  0  0  0  0
    2.6619    4.1757    0.0000 C   0  0  0  0  0  0  0  0  0  0  0  0
  1  2  1  0  0  0  0
  2  3  1  0  0  0  0
  3  5  1  0  0  0  0
  4  6  1  0  0  0  0
  4  5  1  0  0  0  0
  1  6  2  0  0  0  0
  7  8  1  0  0  0  0
  1  8  1  0  0  0  0
  9 18  1  0  0  0  0
  3 10  2  0  0  0  0
  6 11  1  0  0  0  0
 11 21  1  0  0  0  0
 12 13  2  0  0  0  0
 12 19  1  0  0  0  0
 13 17  1  0  0  0  0
  5 14  2  0  0  0  0
  9 15  1  0  0  0  0
  2 16  2  0  0  0  0
 15 17  1  0  0  0  0
  7 18  1  0  0  0  0
 19 24  2  0  0  0  0
  9 20  2  0  0  0  0
  7 21  1  0  0  0  0
 10 22  1  0  0  0  0
 22 23  2  0  0  0  0
 14 23  1  0  0  0  0
 24 26  1  0  0  0  0
 12 25  1  0  0  0  0
 17 26  2  0  0  0  0
 10 27  1  0  0  0  0
 14 28  1  0  0  0  0
 19 29  1  0  0  0  0
M  END
> <IDNUMBER>
L489-1896

> <available>
79

> <H_acceptor>
5

> <H_donor>
2

> <B_rotN>
4

> <N_O>
5

> <logP>
4.249

> <logD>
3.352

> <logSw>
-4.3547

> <PSA>
48.811

> <pKa_ma>
6.5619

> <pKa_mb>
1.2894

> <N_Chirals>
0

> <Name>
2-(9-fluoro-6-methyl-10-oxo-3,4,5,10-tetrahydrobenzo[b][1,6]naphthyridin-2(1H)-yl)-N-(3-fluoro-4-methylphenyl)acetamide

> <Smile>
Cc(ccc(NC(CN(CC1)CC2=C1Nc(c(C)ccc1F)c1C2=O)=O)c1)c1F

> <Color>
YELLOW

> <Collection>
NC

> <InChI>
InChI=1S/C22H21F2N3O2/c1-12-3-5-14(9-17(12)24)25-19(28)11-27-8-7-18-15(10-27)22(29)20-16(23)6-4-13(2)21(20)26-18/h3-6,9H,7-8,10-11H2,1-2H3,(H,25,28)(H,26,29)

> <InChI Key>
WFDFDOLIQUQDAE-UHFFFAOYSA-N

> <PERCENTSP3>
27.3

> <Link>
https://www.chemdiv.com/catalog/screening-compounds/compound-L489-1896/

> <MFCDNUMBER>
MFCD27457662

> <CLNUMBER>
CL8213A

> <STEREO>
ACHIRAL

> <State>
Solid

> <Similarity score>
0.23

$$$$
N-(3,4-dimethoxyphenyl)-1-(2,5,6-trimethylfuro[2,3-d]pyrimidin-4-yl)piperidine-3
  -OEChem-04222410502D

 31 34  0     0  0  0  0  0  0999 V2000
   -0.8314    3.0467    0.0000 C   0  0  0  0  0  0  0  0  0  0  0  0
   -1.5734    3.7220    0.0000 C   0  0  0  0  0  0  0  0  0  0  0  0
   -1.3691    4.6931    0.0000 C   0  0  0  0  0  0  0  0  0  0  0  0
   -1.0440    2.0715    0.0000 N   0  0  0  0  0  0  0  0  0  0  0  0
   -2.5695    3.6136    0.0000 C   0  0  0  0  0  0  0  0  0  0  0  0
    0.1188    3.3594    0.0000 N   0  0  0  0  0  0  0  0  0  0  0  0
   -0.4189    5.0015    0.0000 N   0  0  0  0  0  0  0  0  0  0  0  0
   -2.2318    5.1933    0.0000 O   0  0  0  0  0  0  0  0  0  0  0  0
   -2.9821    4.5182    0.0000 C   0  0  0  0  0  0  0  0  0  0  0  0
    0.2397   -0.2501    0.0000 C   0  0  0  0  0  0  0  0  0  0  0  0
   -0.5063    0.4210    0.0000 C   0  0  3  0  0  0  0  0  0  0  0  0
    0.3272    4.3306    0.0000 C   0  0  0  0  0  0  0  0  0  0  0  0
   -0.2980    1.4004    0.0000 C   0  0  0  0  0  0  0  0  0  0  0  0
    0.0313   -1.2255    0.0000 N   0  0  0  0  0  0  0  0  0  0  0  0
    0.5648   -2.8759    0.0000 C   0  0  0  0  0  0  0  0  0  0  0  0
    1.3068   -3.5428    0.0000 C   0  0  0  0  0  0  0  0  0  0  0  0
    0.7691   -1.8923    0.0000 C   0  0  0  0  0  0  0  0  0  0  0  0
    1.1899    0.0625    0.0000 O   0  0  0  0  0  0  0  0  0  0  0  0
    2.2570   -3.2302    0.0000 C   0  0  0  0  0  0  0  0  0  0  0  0
    2.4696   -2.2549    0.0000 C   0  0  0  0  0  0  0  0  0  0  0  0
   -1.9942    1.7589    0.0000 C   0  0  0  0  0  0  0  0  0  0  0  0
    1.7193   -1.5880    0.0000 C   0  0  0  0  0  0  0  0  0  0  0  0
   -3.0696    2.7466    0.0000 C   0  0  0  0  0  0  0  0  0  0  0  0
    1.1024   -4.5182    0.0000 O   0  0  0  0  0  0  0  0  0  0  0  0
   -3.9574    4.7306    0.0000 C   0  0  0  0  0  0  0  0  0  0  0  0
   -1.4567    0.1125    0.0000 C   0  0  0  0  0  0  0  0  0  0  0  0
    3.0030   -3.9054    0.0000 O   0  0  0  0  0  0  0  0  0  0  0  0
   -2.1985    0.7835    0.0000 C   0  0  0  0  0  0  0  0  0  0  0  0
    1.2775    4.6389    0.0000 C   0  0  0  0  0  0  0  0  0  0  0  0
    1.8444   -5.1933    0.0000 C   0  0  0  0  0  0  0  0  0  0  0  0
    3.9574   -3.5928    0.0000 C   0  0  0  0  0  0  0  0  0  0  0  0
  1  2  1  0  0  0  0
  2  3  2  0  0  0  0
  3  7  1  0  0  0  0
  1  4  1  0  0  0  0
  2  5  1  0  0  0  0
  1  6  2  0  0  0  0
  7 12  2  0  0  0  0
  3  8  1  0  0  0  0
  5  9  2  0  0  0  0
  8  9  1  0  0  0  0
 10 11  1  0  0  0  0
 11 13  1  0  0  0  0
 11 26  1  0  0  0  0
  6 12  1  0  0  0  0
  4 13  1  0  0  0  0
 10 14  1  0  0  0  0
 15 17  1  0  0  0  0
 15 16  2  0  0  0  0
 14 17  1  0  0  0  0
 10 18  2  0  0  0  0
 19 20  2  0  0  0  0
 16 19  1  0  0  0  0
 20 22  1  0  0  0  0
  4 21  1  0  0  0  0
 17 22  2  0  0  0  0
  5 23  1  0  0  0  0
 16 24  1  0  0  0  0
  9 25  1  0  0  0  0
 26 28  1  0  0  0  0
 19 27  1  0  0  0  0
 21 28  1  0  0  0  0
 12 29  1  0  0  0  0
 24 30  1  0  0  0  0
 27 31  1  0  0  0  0
M  END
> <IDNUMBER>
F228-0857

> <available>
27

> <H_acceptor>
7

> <H_donor>
1

> <B_rotN>
6

> <N_O>
8

> <logP>
3.0146

> <logD>
2.6775

> <logSw>
-3.4386

> <PSA>
68.214

> <pKa_ma>
10.5658

> <pKa_mb>
7.4693

> <N_Chirals>
1

> <Name>
N-(3,4-dimethoxyphenyl)-1-(2,5,6-trimethylfuro[2,3-d]pyrimidin-4-yl)piperidine-3-carboxamide

> <Smile>
Cc1c(C)oc2c1c(N(CCC1)CC1C(Nc(cc1)cc(OC)c1OC)=O)nc(C)n2

> <Color>
NOT COLORED

> <Collection>
DC

> <InChI>
InChI=1S/C23H28N4O4/c1-13-14(2)31-23-20(13)21(24-15(3)25-23)27-10-6-7-16(12-27)22(28)26-17-8-9-18(29-4)19(11-17)30-5/h8-9,11,16H,6-7,10,12H2,1-5H3,(H,26,28)/t16-/m0/s1

> <InChI Key>
GSNFHPVAJNZHQU-INIZCTEOSA-N

> <PERCENTSP3>
43.5

> <Link>
https://www.chemdiv.com/catalog/screening-compounds/compound-F228-0857/

> <MFCDNUMBER>
MFCD14945681

> <CLNUMBER>
CL1321B

> <STEREO>
RACEMIC MIXTURE

> <State>
Solid

> <Similarity score>
0.23

$$$$
4-(4-ethylpiperazin-1-yl)-2-(4-methoxyphenyl)-5,6,8,9-tetrahydrooxepino[4,5-d]py
  -OEChem-04222410502D

 27 30  0     0  0  0  0  0  0999 V2000
   -0.4182    1.6311    0.0000 C   0  0  0  0  0  0  0  0  0  0  0  0
   -0.4904    0.6313    0.0000 N   0  0  0  0  0  0  0  0  0  0  0  0
   -1.2364    2.2015    0.0000 C   0  0  0  0  0  0  0  0  0  0  0  0
   -1.3962    0.1928    0.0000 C   0  0  0  0  0  0  0  0  0  0  0  0
   -2.2141    0.7631    0.0000 N   0  0  0  0  0  0  0  0  0  0  0  0
    0.4874    2.0699    0.0000 N   0  0  0  0  0  0  0  0  0  0  0  0
   -2.1452    1.7627    0.0000 C   0  0  0  0  0  0  0  0  0  0  0  0
    2.2926    2.9287    0.0000 N   0  0  0  0  0  0  0  0  0  0  0  0
   -1.4681   -0.7977    0.0000 C   0  0  0  0  0  0  0  0  0  0  0  0
    0.5533    3.0602    0.0000 C   0  0  0  0  0  0  0  0  0  0  0  0
    1.3148    1.4996    0.0000 C   0  0  0  0  0  0  0  0  0  0  0  0
   -2.6434    3.9503    0.0000 O   0  0  0  0  0  0  0  0  0  0  0  0
   -2.3707   -1.2362    0.0000 C   0  0  0  0  0  0  0  0  0  0  0  0
   -0.6440   -1.3585    0.0000 C   0  0  0  0  0  0  0  0  0  0  0  0
    1.4651    3.4990    0.0000 C   0  0  0  0  0  0  0  0  0  0  0  0
    2.2141    1.9384    0.0000 C   0  0  0  0  0  0  0  0  0  0  0  0
   -3.0508    2.2015    0.0000 C   0  0  0  0  0  0  0  0  0  0  0  0
   -1.0201    3.1730    0.0000 C   0  0  0  0  0  0  0  0  0  0  0  0
   -1.6218   -2.7971    0.0000 C   0  0  0  0  0  0  0  0  0  0  0  0
   -0.7159   -2.3583    0.0000 C   0  0  0  0  0  0  0  0  0  0  0  0
   -2.4396   -2.2268    0.0000 C   0  0  0  0  0  0  0  0  0  0  0  0
   -1.6939   -3.7874    0.0000 O   0  0  0  0  0  0  0  0  0  0  0  0
    3.1856    3.3674    0.0000 C   0  0  0  0  0  0  0  0  0  0  0  0
   -3.2671    3.1730    0.0000 C   0  0  0  0  0  0  0  0  0  0  0  0
   -1.6373    3.9503    0.0000 C   0  0  0  0  0  0  0  0  0  0  0  0
   -0.8665   -4.3577    0.0000 C   0  0  0  0  0  0  0  0  0  0  0  0
    3.2671    4.3577    0.0000 C   0  0  0  0  0  0  0  0  0  0  0  0
  1  2  2  0  0  0  0
  1  3  1  0  0  0  0
  2  4  1  0  0  0  0
  5  7  1  0  0  0  0
  4  5  2  0  0  0  0
  1  6  1  0  0  0  0
  3  7  2  0  0  0  0
  8 16  1  0  0  0  0
  4  9  1  0  0  0  0
  6 10  1  0  0  0  0
  6 11  1  0  0  0  0
 12 25  1  0  0  0  0
  9 13  2  0  0  0  0
  9 14  1  0  0  0  0
 10 15  1  0  0  0  0
  8 15  1  0  0  0  0
 11 16  1  0  0  0  0
  7 17  1  0  0  0  0
  3 18  1  0  0  0  0
 19 20  1  0  0  0  0
 14 20  2  0  0  0  0
 13 21  1  0  0  0  0
 19 21  2  0  0  0  0
 19 22  1  0  0  0  0
  8 23  1  0  0  0  0
 17 24  1  0  0  0  0
 12 24  1  0  0  0  0
 18 25  1  0  0  0  0
 22 26  1  0  0  0  0
 23 27  1  0  0  0  0
M  END
> <IDNUMBER>
S896-0124

> <available>
115

> <H_acceptor>
5

> <H_donor>
0

> <B_rotN>
4

> <N_O>
6

> <logP>
3.9145

> <logD>
2.589

> <logSw>
-4.0193

> <PSA>
42.665

> <pKa_ma>
19.7965

> <pKa_mb>
8.7044

> <N_Chirals>
0

> <Name>
4-(4-ethylpiperazin-1-yl)-2-(4-methoxyphenyl)-5,6,8,9-tetrahydrooxepino[4,5-d]pyrimidine

> <Smile>
CCN(CC1)CCN1c1nc(-c(cc2)ccc2OC)nc2c1CCOCC2

> <Color>
BROWN

> <Collection>
IC

> <InChI>
InChI=1S/C21H28N4O2/c1-3-24-10-12-25(13-11-24)21-18-8-14-27-15-9-19(18)22-20(23-21)16-4-6-17(26-2)7-5-16/h4-7H,3,8-15H2,1-2H3

> <InChI Key>
FMSISEUOUMJAJE-UHFFFAOYSA-N

> <PERCENTSP3>
52.38

> <Link>
https://www.chemdiv.com/catalog/screening-compounds/compound-S896-0124/

> <MFCDNUMBER>
MFCD31956714

> <CLNUMBER>
CM3993

> <STEREO>
ACHIRAL

> <State>
Solid

> <Similarity score>
0.23

$$$$
N-[(2,5-difluorophenyl)methyl]-2-methyl-4-oxo-4,5,6,7,8,9-hexahydro-3H-cyclohept
  -OEChem-04222410502D

 25 27  0     0  0  0  0  0  0999 V2000
    3.3552   -0.2186    0.0000 C   0  0  0  0  0  0  0  0  0  0  0  0
    4.3550   -0.2186    0.0000 C   0  0  0  0  0  0  0  0  0  0  0  0
    2.8555    0.6476    0.0000 C   0  0  0  0  0  0  0  0  0  0  0  0
    3.3552    1.5142    0.0000 N   0  0  0  0  0  0  0  0  0  0  0  0
    4.8547    0.6476    0.0000 N   0  0  0  0  0  0  0  0  0  0  0  0
    4.3550    1.5142    0.0000 C   0  0  0  0  0  0  0  0  0  0  0  0
    0.3394   -1.3807    0.0000 C   0  0  0  0  0  0  0  0  0  0  0  0
   -2.2556   -0.8810    0.0000 C   0  0  0  0  0  0  0  0  0  0  0  0
    2.9887   -1.1475    0.0000 C   0  0  0  0  0  0  0  0  0  0  0  0
   -0.5228   -0.8810    0.0000 N   0  0  0  0  0  0  0  0  0  0  0  0
    4.8547   -1.0849    0.0000 O   0  0  0  0  0  0  0  0  0  0  0  0
   -2.2556    0.1188    0.0000 C   0  0  0  0  0  0  0  0  0  0  0  0
    1.8641    0.7975    0.0000 C   0  0  0  0  0  0  0  0  0  0  0  0
   -1.3892   -1.3807    0.0000 C   0  0  0  0  0  0  0  0  0  0  0  0
    1.2059   -0.8810    0.0000 C   0  0  3  0  0  0  0  0  0  0  0  0
   -3.1219   -1.3807    0.0000 C   0  0  0  0  0  0  0  0  0  0  0  0
    0.3394   -2.3805    0.0000 O   0  0  0  0  0  0  0  0  0  0  0  0
    2.0347   -1.4434    0.0000 C   0  0  0  0  0  0  0  0  0  0  0  0
    1.1308    0.1147    0.0000 C   0  0  0  0  0  0  0  0  0  0  0  0
   -3.1219    0.6185    0.0000 C   0  0  0  0  0  0  0  0  0  0  0  0
   -3.9883   -0.8810    0.0000 C   0  0  0  0  0  0  0  0  0  0  0  0
   -1.3892    0.6185    0.0000 F   0  0  0  0  0  0  0  0  0  0  0  0
   -3.9883    0.1188    0.0000 C   0  0  0  0  0  0  0  0  0  0  0  0
   -4.8547   -1.3807    0.0000 F   0  0  0  0  0  0  0  0  0  0  0  0
    4.8547    2.3805    0.0000 C   0  0  0  0  0  0  0  0  0  0  0  0
  1  2  1  0  0  0  0
  1  3  2  0  0  0  0
  3  4  1  0  0  0  0
  2  5  1  0  0  0  0
  5  6  1  0  0  0  0
  4  6  2  0  0  0  0
  7 15  1  0  0  0  0
  8 14  1  0  0  0  0
  1  9  1  0  0  0  0
  7 10  1  0  0  0  0
  2 11  2  0  0  0  0
  8 12  1  0  0  0  0
  3 13  1  0  0  0  0
 10 14  1  0  0  0  0
 15 18  1  0  0  0  0
 15 19  1  0  0  0  0
  8 16  2  0  0  0  0
  7 17  2  0  0  0  0
  9 18  1  0  0  0  0
 13 19  1  0  0  0  0
 12 20  2  0  0  0  0
 20 23  1  0  0  0  0
 16 21  1  0  0  0  0
 12 22  1  0  0  0  0
 21 23  2  0  0  0  0
 21 24  1  0  0  0  0
  6 25  1  0  0  0  0
M  END
> <IDNUMBER>
SB25-0042

> <available>
28

> <H_acceptor>
5

> <H_donor>
2

> <B_rotN>
4

> <N_O>
5

> <logP>
1.7679

> <logD>
1.766

> <logSw>
-2.2691

> <PSA>
58.55

> <pKa_ma>
9.7494

> <pKa_mb>
2.0448

> <N_Chirals>
1

> <Name>
N-[(2,5-difluorophenyl)methyl]-2-methyl-4-oxo-4,5,6,7,8,9-hexahydro-3H-cyclohepta[d]pyrimidine-7-carboxamide

> <Smile>
CC(N1)=NC(CCC(CC2)C(NCc(cc(cc3)F)c3F)=O)=C2C1=O

> <Color>
NOT COLORED

> <Collection>
IC

> <InChI>
InChI=1S/C18H19F2N3O2/c1-10-22-16-7-3-11(2-5-14(16)18(25)23-10)17(24)21-9-12-8-13(19)4-6-15(12)20/h4,6,8,11H,2-3,5,7,9H2,1H3,(H,21,24)(H,22,23,25)/t11-/m0/s1

> <InChI Key>
OQCZZBKYKSAAFA-NSHDSACASA-N

> <PERCENTSP3>
38.89

> <Link>
https://www.chemdiv.com/catalog/screening-compounds/compound-SB25-0042/

> <MFCDNUMBER>
MFCD32247119

> <CLNUMBER>
CM3995

> <STEREO>
RACEMIC MIXTURE

> <State>
Solid

> <Similarity score>
0.23

$$$$
7-[(2,4-difluorophenyl)methyl]-2-(dimethylamino)-3,5,6,7,8,9-hexahydro-4H-pyrimi
  -OEChem-04222410502D

 24 26  0     0  0  0  0  0  0999 V2000
   -2.5806   -1.0965    0.0000 C   0  0  0  0  0  0  0  0  0  0  0  0
   -2.3638   -2.0720    0.0000 N   0  0  0  0  0  0  0  0  0  0  0  0
   -0.6671   -1.6842    0.0000 C   0  0  0  0  0  0  0  0  0  0  0  0
   -1.8510   -0.4169    0.0000 N   0  0  0  0  0  0  0  0  0  0  0  0
   -1.4007   -2.3679    0.0000 C   0  0  0  0  0  0  0  0  0  0  0  0
   -0.8922   -0.7087    0.0000 C   0  0  0  0  0  0  0  0  0  0  0  0
    2.6264    0.4669    0.0000 C   0  0  0  0  0  0  0  0  0  0  0  0
    1.3508   -0.7087    0.0000 N   0  0  0  0  0  0  0  0  0  0  0  0
    0.2334   -2.1178    0.0000 C   0  0  0  0  0  0  0  0  0  0  0  0
    3.6019    0.6920    0.0000 C   0  0  0  0  0  0  0  0  0  0  0  0
   -3.5395   -0.7963    0.0000 N   0  0  0  0  0  0  0  0  0  0  0  0
   -0.2668    0.0708    0.0000 C   0  0  0  0  0  0  0  0  0  0  0  0
    3.8980    1.6468    0.0000 C   0  0  0  0  0  0  0  0  0  0  0  0
    2.3263   -0.4836    0.0000 C   0  0  0  0  0  0  0  0  0  0  0  0
   -1.1799   -3.3351    0.0000 O   0  0  0  0  0  0  0  0  0  0  0  0
    1.9468    1.2049    0.0000 C   0  0  0  0  0  0  0  0  0  0  0  0
    1.1339   -1.6842    0.0000 C   0  0  0  0  0  0  0  0  0  0  0  0
    0.7336    0.0708    0.0000 C   0  0  0  0  0  0  0  0  0  0  0  0
    3.2143    2.3805    0.0000 C   0  0  0  0  0  0  0  0  0  0  0  0
    4.2773   -0.0333    0.0000 F   0  0  0  0  0  0  0  0  0  0  0  0
    2.2388    2.1595    0.0000 C   0  0  0  0  0  0  0  0  0  0  0  0
    3.5102    3.3351    0.0000 F   0  0  0  0  0  0  0  0  0  0  0  0
   -3.7646    0.1792    0.0000 C   0  0  0  0  0  0  0  0  0  0  0  0
   -4.2773   -1.4800    0.0000 C   0  0  0  0  0  0  0  0  0  0  0  0
  1  2  1  0  0  0  0
  3  6  2  0  0  0  0
  3  5  1  0  0  0  0
  1  4  2  0  0  0  0
  2  5  1  0  0  0  0
  4  6  1  0  0  0  0
  7 14  1  0  0  0  0
  8 18  1  0  0  0  0
  3  9  1  0  0  0  0
  7 10  2  0  0  0  0
  1 11  1  0  0  0  0
  6 12  1  0  0  0  0
 10 13  1  0  0  0  0
 13 19  2  0  0  0  0
  8 14  1  0  0  0  0
  5 15  2  0  0  0  0
  7 16  1  0  0  0  0
  9 17  1  0  0  0  0
  8 17  1  0  0  0  0
 12 18  1  0  0  0  0
 19 21  1  0  0  0  0
 10 20  1  0  0  0  0
 16 21  2  0  0  0  0
 19 22  1  0  0  0  0
 11 23  1  0  0  0  0
 11 24  1  0  0  0  0
M  END
> <IDNUMBER>
S039-1683

> <available>
11

> <H_acceptor>
4

> <H_donor>
1

> <B_rotN>
3

> <N_O>
5

> <logP>
1.7374

> <logD>
1.59

> <logSw>
-2.4456

> <PSA>
41.151

> <pKa_ma>
8.7946

> <pKa_mb>
6.9436

> <N_Chirals>
0

> <Name>
7-[(2,4-difluorophenyl)methyl]-2-(dimethylamino)-3,5,6,7,8,9-hexahydro-4H-pyrimido[4,5-d]azepin-4-one

> <Smile>
CN(C)C(N1)=NC(CCN(Cc(ccc(F)c2)c2F)CC2)=C2C1=O

> <Color>
NOT COLORED

> <Collection>
IC

> <InChI>
InChI=1S/C17H20F2N4O/c1-22(2)17-20-15-6-8-23(7-5-13(15)16(24)21-17)10-11-3-4-12(18)9-14(11)19/h3-4,9H,5-8,10H2,1-2H3,(H,20,21,24)

> <InChI Key>
MKAHLXCMLXHEKH-UHFFFAOYSA-N

> <PERCENTSP3>
41.2

> <Link>
https://www.chemdiv.com/catalog/screening-compounds/compound-S039-1683/

> <MFCDNUMBER>
MFCD28996002

> <CLNUMBER>
CM2417

> <STEREO>
ACHIRAL

> <State>
Solid

> <Similarity score>
0.23

$$$$
2-(9-fluoro-6-methyl-10-oxo-3,4,5,10-tetrahydrobenzo[b][1,6]naphthyridin-2(1H)-y
  -OEChem-04222410502D

 29 32  0     0  0  0  0  0  0999 V2000
   -0.9090   -1.7178    0.0000 C   0  0  0  0  0  0  0  0  0  0  0  0
   -1.7615   -1.2193    0.0000 C   0  0  0  0  0  0  0  0  0  0  0  0
   -2.6454   -1.7178    0.0000 C   0  0  0  0  0  0  0  0  0  0  0  0
   -1.7805   -3.1942    0.0000 N   0  0  0  0  0  0  0  0  0  0  0  0
   -2.6454   -2.7050    0.0000 C   0  0  0  0  0  0  0  0  0  0  0  0
   -0.9090   -2.7146    0.0000 C   0  0  0  0  0  0  0  0  0  0  0  0
    0.8809   -1.7178    0.0000 N   0  0  0  0  0  0  0  0  0  0  0  0
   -0.0030   -1.2289    0.0000 C   0  0  0  0  0  0  0  0  0  0  0  0
    1.7648   -0.2508    0.0000 C   0  0  0  0  0  0  0  0  0  0  0  0
   -3.5389   -1.2289    0.0000 C   0  0  0  0  0  0  0  0  0  0  0  0
   -0.0124   -3.1942    0.0000 C   0  0  0  0  0  0  0  0  0  0  0  0
   -3.5389   -3.1909    0.0000 C   0  0  0  0  0  0  0  0  0  0  0  0
    2.6644    0.2318    0.0000 N   0  0  0  0  0  0  0  0  0  0  0  0
   -1.7615   -0.2321    0.0000 O   0  0  0  0  0  0  0  0  0  0  0  0
    1.7648   -1.2289    0.0000 C   0  0  0  0  0  0  0  0  0  0  0  0
    2.6644    1.2099    0.0000 C   0  0  0  0  0  0  0  0  0  0  0  0
    0.8809    0.2318    0.0000 O   0  0  0  0  0  0  0  0  0  0  0  0
    3.5419    1.6958    0.0000 C   0  0  0  0  0  0  0  0  0  0  0  0
    0.8809   -2.7146    0.0000 C   0  0  0  0  0  0  0  0  0  0  0  0
   -4.4071   -1.7178    0.0000 C   0  0  0  0  0  0  0  0  0  0  0  0
   -4.4071   -2.7050    0.0000 C   0  0  0  0  0  0  0  0  0  0  0  0
    3.5419    2.6736    0.0000 C   0  0  0  0  0  0  0  0  0  0  0  0
   -3.5389   -0.2321    0.0000 F   0  0  0  0  0  0  0  0  0  0  0  0
    4.4071    3.1909    0.0000 S   0  0  0  0  0  0  0  0  0  0  0  0
    1.7835    2.6736    0.0000 C   0  0  0  0  0  0  0  0  0  0  0  0
    1.7835    1.6958    0.0000 C   0  0  0  0  0  0  0  0  0  0  0  0
   -3.5389   -4.1814    0.0000 C   0  0  0  0  0  0  0  0  0  0  0  0
    2.6644    3.1625    0.0000 C   0  0  0  0  0  0  0  0  0  0  0  0
    4.3977    4.1814    0.0000 C   0  0  0  0  0  0  0  0  0  0  0  0
  1  2  1  0  0  0  0
  2  3  1  0  0  0  0
  3  5  1  0  0  0  0
  4  6  1  0  0  0  0
  4  5  1  0  0  0  0
  1  6  2  0  0  0  0
  7  8  1  0  0  0  0
  1  8  1  0  0  0  0
  9 15  1  0  0  0  0
  3 10  2  0  0  0  0
  6 11  1  0  0  0  0
 11 19  1  0  0  0  0
  5 12  2  0  0  0  0
  9 13  1  0  0  0  0
  2 14  2  0  0  0  0
  7 15  1  0  0  0  0
 13 16  1  0  0  0  0
  9 17  2  0  0  0  0
 16 18  1  0  0  0  0
  7 19  1  0  0  0  0
 10 20  1  0  0  0  0
 20 21  2  0  0  0  0
 12 21  1  0  0  0  0
 18 22  2  0  0  0  0
 22 28  1  0  0  0  0
 10 23  1  0  0  0  0
 22 24  1  0  0  0  0
 25 26  1  0  0  0  0
 16 26  2  0  0  0  0
 12 27  1  0  0  0  0
 25 28  2  0  0  0  0
 24 29  1  0  0  0  0
M  END
> <IDNUMBER>
L489-1900

> <available>
80

> <H_acceptor>
6

> <H_donor>
2

> <B_rotN>
5

> <N_O>
5

> <logP>
4.0601

> <logD>
3.1631

> <logSw>
-4.1637

> <PSA>
48.811

> <pKa_ma>
6.5619

> <pKa_mb>
1.2894

> <N_Chirals>
0

> <Name>
2-(9-fluoro-6-methyl-10-oxo-3,4,5,10-tetrahydrobenzo[b][1,6]naphthyridin-2(1H)-yl)-N-[3-(methylsulfanyl)phenyl]acetamide

> <Smile>
Cc(c(NC1=C2CN(CC(Nc3cccc(SC)c3)=O)CC1)c1C2=O)ccc1F

> <Color>
YELLOW

> <Collection>
NC

> <InChI>
InChI=1S/C22H22FN3O2S/c1-13-6-7-17(23)20-21(13)25-18-8-9-26(11-16(18)22(20)28)12-19(27)24-14-4-3-5-15(10-14)29-2/h3-7,10H,8-9,11-12H2,1-2H3,(H,24,27)(H,25,28)

> <InChI Key>
WZIDHXQBBAMZPV-UHFFFAOYSA-N

> <PERCENTSP3>
27.3

> <Link>
https://www.chemdiv.com/catalog/screening-compounds/compound-L489-1900/

> <MFCDNUMBER>
MFCD27457666

> <CLNUMBER>
CL8213A

> <STEREO>
ACHIRAL

> <State>
Solid

> <Similarity score>
0.23

$$$$
1-(2-fluorophenyl)-3-(6-methoxy-1,3,4,9-tetrahydro-2H-pyrido[3,4-b]indol-2-yl)py
  -OEChem-04222410502D

 29 33  0     0  0  0  0  0  0999 V2000
    3.2231    0.2438    0.0000 N   0  0  0  0  0  0  0  0  0  0  0  0
    2.2439    0.4563    0.0000 C   0  0  0  0  0  0  0  0  0  0  0  0
    3.3273   -0.7521    0.0000 C   0  0  0  0  0  0  0  0  0  0  0  0
   -0.6395   -1.5522    0.0000 C   0  0  0  0  0  0  0  0  0  0  0  0
    1.7439   -0.4144    0.0000 C   0  0  3  0  0  0  0  0  0  0  0  0
   -1.2355   -0.7313    0.0000 C   0  0  0  0  0  0  0  0  0  0  0  0
    2.4148   -1.1563    0.0000 C   0  0  0  0  0  0  0  0  0  0  0  0
    0.7606   -0.5187    0.0000 N   0  0  3  0  0  0  0  0  0  0  0  0
   -1.2355   -2.3646    0.0000 N   0  0  0  0  0  0  0  0  0  0  0  0
   -2.1897   -1.0521    0.0000 C   0  0  0  0  0  0  0  0  0  0  0  0
   -2.1897   -2.0605    0.0000 C   0  0  0  0  0  0  0  0  0  0  0  0
    3.9646    0.9106    0.0000 C   0  0  0  0  0  0  0  0  0  0  0  0
    0.3564   -1.4480    0.0000 C   0  0  0  0  0  0  0  0  0  0  0  0
   -0.8313    0.1855    0.0000 C   0  0  0  0  0  0  0  0  0  0  0  0
    1.8439    1.3563    0.0000 O   0  0  0  0  0  0  0  0  0  0  0  0
    0.1647    0.2937    0.0000 C   0  0  0  0  0  0  0  0  0  0  0  0
    4.1982   -1.2396    0.0000 O   0  0  0  0  0  0  0  0  0  0  0  0
   -3.0606   -0.5602    0.0000 C   0  0  0  0  0  0  0  0  0  0  0  0
    4.9065    0.6063    0.0000 C   0  0  0  0  0  0  0  0  0  0  0  0
   -3.0606   -2.5563    0.0000 C   0  0  0  0  0  0  0  0  0  0  0  0
   -3.9230   -1.0521    0.0000 C   0  0  0  0  0  0  0  0  0  0  0  0
    5.1107   -0.3728    0.0000 F   0  0  0  0  0  0  0  0  0  0  0  0
   -3.9230   -2.0605    0.0000 C   0  0  0  0  0  0  0  0  0  0  0  0
    3.7523    1.8773    0.0000 C   0  0  0  0  0  0  0  0  0  0  0  0
   -4.7898   -0.5563    0.0000 O   0  0  0  0  0  0  0  0  0  0  0  0
    5.6481    1.2687    0.0000 C   0  0  0  0  0  0  0  0  0  0  0  0
   -5.6481   -1.0521    0.0000 C   0  0  0  0  0  0  0  0  0  0  0  0
    4.4814    2.5563    0.0000 C   0  0  0  0  0  0  0  0  0  0  0  0
    5.4358    2.2439    0.0000 C   0  0  0  0  0  0  0  0  0  0  0  0
  1  2  1  0  0  0  0
  1  3  1  0  0  0  0
  4 13  1  0  0  0  0
  4  6  2  0  0  0  0
  2  5  1  0  0  0  0
  5  7  1  0  0  0  0
  6 14  1  0  0  0  0
  3  7  1  0  0  0  0
  5  8  1  0  0  0  0
  4  9  1  0  0  0  0
  6 10  1  0  0  0  0
 10 11  1  0  0  0  0
  9 11  1  0  0  0  0
  1 12  1  0  0  0  0
  8 13  1  0  0  0  0
 14 16  1  0  0  0  0
  2 15  2  0  0  0  0
  8 16  1  0  0  0  0
  3 17  2  0  0  0  0
 10 18  2  0  0  0  0
 12 19  2  0  0  0  0
 11 20  2  0  0  0  0
 18 21  1  0  0  0  0
 21 23  2  0  0  0  0
 19 22  1  0  0  0  0
 20 23  1  0  0  0  0
 12 24  1  0  0  0  0
 21 25  1  0  0  0  0
 19 26  1  0  0  0  0
 26 29  2  0  0  0  0
 25 27  1  0  0  0  0
 24 28  2  0  0  0  0
 28 29  1  0  0  0  0
M  END
> <IDNUMBER>
Y020-3919

> <available>
23

> <H_acceptor>
6

> <H_donor>
1

> <B_rotN>
3

> <N_O>
6

> <logP>
1.7409

> <logD>
1.7409

> <logSw>
-2.4204

> <PSA>
49.743

> <pKa_ma>
15.4632

> <pKa_mb>
1.6787

> <N_Chirals>
1

> <Name>
1-(2-fluorophenyl)-3-(6-methoxy-1,3,4,9-tetrahydro-2H-pyrido[3,4-b]indol-2-yl)pyrrolidine-2,5-dione

> <Smile>
COc(cc1)cc2c1[nH]c(C1)c2CCN1C(CC(N1c(cccc2)c2F)=O)C1=O

> <Color>
NOT COLORED

> <Collection>
DC

> <InChI>
InChI=1S/C22H20FN3O3/c1-29-13-6-7-17-15(10-13)14-8-9-25(12-18(14)24-17)20-11-21(27)26(22(20)28)19-5-3-2-4-16(19)23/h2-7,10,20,24H,8-9,11-12H2,1H3/t20-/m1/s1

> <InChI Key>
IMEOERJGAHZYGL-HXUWFJFHSA-N

> <PERCENTSP3>
27.3

> <Link>
https://www.chemdiv.com/catalog/screening-compounds/compound-Y020-3919/

> <MFCDNUMBER>
MFCD13676884

> <CLNUMBER>
CL2165

> <STEREO>
RACEMIC MIXTURE

> <State>
Solid

> <Similarity score>
0.23

$$$$
7-[(2-chloro-4-fluorophenyl)methyl]-2-(morpholin-4-yl)-3,5,6,7,8,9-hexahydro-4H-
  -OEChem-04222410502D

 27 30  0     0  0  0  0  0  0999 V2000
    2.3792   -0.3742    0.0000 C   0  0  0  0  0  0  0  0  0  0  0  0
    2.1631    0.6031    0.0000 N   0  0  0  0  0  0  0  0  0  0  0  0
    0.4714    0.2116    0.0000 C   0  0  0  0  0  0  0  0  0  0  0  0
    1.6461   -1.0604    0.0000 N   0  0  0  0  0  0  0  0  0  0  0  0
    1.2045    0.8945    0.0000 C   0  0  0  0  0  0  0  0  0  0  0  0
    0.6937   -0.7660    0.0000 C   0  0  0  0  0  0  0  0  0  0  0  0
    3.3378   -0.6719    0.0000 N   0  0  0  0  0  0  0  0  0  0  0  0
   -3.2126   -0.2523    0.0000 C   0  0  0  0  0  0  0  0  0  0  0  0
   -1.5524   -0.7660    0.0000 N   0  0  0  0  0  0  0  0  0  0  0  0
   -0.4308    0.6500    0.0000 C   0  0  0  0  0  0  0  0  0  0  0  0
   -2.9211    0.7063    0.0000 C   0  0  0  0  0  0  0  0  0  0  0  0
    0.0738   -1.5397    0.0000 C   0  0  0  0  0  0  0  0  0  0  0  0
   -3.5883    1.4394    0.0000 C   0  0  0  0  0  0  0  0  0  0  0  0
   -2.5297   -0.9853    0.0000 C   0  0  0  0  0  0  0  0  0  0  0  0
    0.9757    1.8718    0.0000 O   0  0  0  0  0  0  0  0  0  0  0  0
   -4.1804   -0.4683    0.0000 C   0  0  0  0  0  0  0  0  0  0  0  0
   -1.3330    0.2116    0.0000 C   0  0  0  0  0  0  0  0  0  0  0  0
   -0.9383   -1.5397    0.0000 C   0  0  0  0  0  0  0  0  0  0  0  0
    5.2456   -1.2578    0.0000 O   0  0  0  0  0  0  0  0  0  0  0  0
   -4.5656    1.2171    0.0000 C   0  0  0  0  0  0  0  0  0  0  0  0
   -1.9438    0.9257    0.0000 Cl  0  0  0  0  0  0  0  0  0  0  0  0
   -4.8603    0.2647    0.0000 C   0  0  0  0  0  0  0  0  0  0  0  0
   -5.2456    1.9407    0.0000 F   0  0  0  0  0  0  0  0  0  0  0  0
    3.5539   -1.6430    0.0000 C   0  0  0  0  0  0  0  0  0  0  0  0
    4.0709    0.0110    0.0000 C   0  0  0  0  0  0  0  0  0  0  0  0
    5.0262   -0.2805    0.0000 C   0  0  0  0  0  0  0  0  0  0  0  0
    4.5125   -1.9407    0.0000 C   0  0  0  0  0  0  0  0  0  0  0  0
  1  2  1  0  0  0  0
  3  6  2  0  0  0  0
  3  5  1  0  0  0  0
  1  4  2  0  0  0  0
  2  5  1  0  0  0  0
  4  6  1  0  0  0  0
  1  7  1  0  0  0  0
  8 14  1  0  0  0  0
  9 18  1  0  0  0  0
  9 17  1  0  0  0  0
  3 10  1  0  0  0  0
  8 11  2  0  0  0  0
  6 12  1  0  0  0  0
 11 13  1  0  0  0  0
 13 20  2  0  0  0  0
  9 14  1  0  0  0  0
  5 15  2  0  0  0  0
  8 16  1  0  0  0  0
 10 17  1  0  0  0  0
 12 18  1  0  0  0  0
 19 26  1  0  0  0  0
 19 27  1  0  0  0  0
 20 22  1  0  0  0  0
 11 21  1  0  0  0  0
 16 22  2  0  0  0  0
 20 23  1  0  0  0  0
  7 24  1  0  0  0  0
  7 25  1  0  0  0  0
 25 26  1  0  0  0  0
 24 27  1  0  0  0  0
M  END
> <IDNUMBER>
S039-3196

> <available>
12

> <H_acceptor>
5

> <H_donor>
1

> <B_rotN>
3

> <N_O>
6

> <logP>
2.2399

> <logD>
2.1428

> <logSw>
-3.2675

> <PSA>
49.708

> <pKa_ma>
9.6889

> <pKa_mb>
6.7875

> <N_Chirals>
0

> <Name>
7-[(2-chloro-4-fluorophenyl)methyl]-2-(morpholin-4-yl)-3,5,6,7,8,9-hexahydro-4H-pyrimido[4,5-d]azepin-4-one

> <Smile>
O=C1NC(N2CCOCC2)=NC2=C1CCN(Cc(ccc(F)c1)c1Cl)CC2

> <Color>
NOT COLORED

> <Collection>
IC

> <InChI>
InChI=1S/C19H22ClFN4O2/c20-16-11-14(21)2-1-13(16)12-24-5-3-15-17(4-6-24)22-19(23-18(15)26)25-7-9-27-10-8-25/h1-2,11H,3-10,12H2,(H,22,23,26)

> <InChI Key>
JYKFASOOODUBCW-UHFFFAOYSA-N

> <PERCENTSP3>
47.4

> <Link>
https://www.chemdiv.com/catalog/screening-compounds/compound-S039-3196/

> <MFCDNUMBER>
MFCD28999092

> <CLNUMBER>
CM2417

> <STEREO>
ACHIRAL

> <State>
Solid

> <Similarity score>
0.23

$$$$
4-(azepan-1-yl)-2-(4-methoxyphenyl)-5,6,8,9-tetrahydrooxepino[4,5-d]pyrimidine
  -OEChem-04222410502D

 26 29  0     0  0  0  0  0  0999 V2000
   -0.1912    0.8384    0.0000 N   0  0  0  0  0  0  0  0  0  0  0  0
   -0.1160    1.8350    0.0000 C   0  0  0  0  0  0  0  0  0  0  0  0
   -0.9433    2.3992    0.0000 C   0  0  0  0  0  0  0  0  0  0  0  0
   -1.0939    0.4060    0.0000 C   0  0  0  0  0  0  0  0  0  0  0  0
   -1.9150    0.9668    0.0000 N   0  0  0  0  0  0  0  0  0  0  0  0
   -1.8398    1.9574    0.0000 C   0  0  0  0  0  0  0  0  0  0  0  0
    0.7774    2.2643    0.0000 N   0  0  0  0  0  0  0  0  0  0  0  0
   -1.1691   -0.5940    0.0000 C   0  0  0  0  0  0  0  0  0  0  0  0
   -2.3474    4.1481    0.0000 O   0  0  0  0  0  0  0  0  0  0  0  0
   -0.3416   -1.1581    0.0000 C   0  0  0  0  0  0  0  0  0  0  0  0
   -2.0750   -1.0264    0.0000 C   0  0  0  0  0  0  0  0  0  0  0  0
   -2.7488    2.3992    0.0000 C   0  0  0  0  0  0  0  0  0  0  0  0
   -0.7209    3.3740    0.0000 C   0  0  0  0  0  0  0  0  0  0  0  0
   -1.3195   -2.5874    0.0000 C   0  0  0  0  0  0  0  0  0  0  0  0
   -2.1470   -2.0232    0.0000 C   0  0  0  0  0  0  0  0  0  0  0  0
   -0.4168   -2.1547    0.0000 C   0  0  0  0  0  0  0  0  0  0  0  0
    0.7774    3.2705    0.0000 C   0  0  0  0  0  0  0  0  0  0  0  0
    1.5577    1.6439    0.0000 C   0  0  0  0  0  0  0  0  0  0  0  0
   -1.3947   -3.5840    0.0000 O   0  0  0  0  0  0  0  0  0  0  0  0
   -2.9681    3.3740    0.0000 C   0  0  0  0  0  0  0  0  0  0  0  0
   -1.3415    4.1481    0.0000 C   0  0  0  0  0  0  0  0  0  0  0  0
   -0.5674   -4.1481    0.0000 C   0  0  0  0  0  0  0  0  0  0  0  0
    1.5577    3.8912    0.0000 C   0  0  0  0  0  0  0  0  0  0  0  0
    2.5419    1.8695    0.0000 C   0  0  0  0  0  0  0  0  0  0  0  0
    2.5419    3.6685    0.0000 C   0  0  0  0  0  0  0  0  0  0  0  0
    2.9681    2.7629    0.0000 C   0  0  0  0  0  0  0  0  0  0  0  0
  1  2  2  0  0  0  0
  2  3  1  0  0  0  0
  1  4  1  0  0  0  0
  4  5  2  0  0  0  0
  5  6  1  0  0  0  0
  3  6  2  0  0  0  0
  2  7  1  0  0  0  0
  4  8  1  0  0  0  0
  9 21  1  0  0  0  0
  8 10  1  0  0  0  0
  8 11  2  0  0  0  0
  6 12  1  0  0  0  0
  3 13  1  0  0  0  0
 14 15  2  0  0  0  0
 11 15  1  0  0  0  0
 10 16  2  0  0  0  0
 14 16  1  0  0  0  0
  7 17  1  0  0  0  0
  7 18  1  0  0  0  0
 14 19  1  0  0  0  0
 12 20  1  0  0  0  0
  9 20  1  0  0  0  0
 13 21  1  0  0  0  0
 19 22  1  0  0  0  0
 17 23  1  0  0  0  0
 18 24  1  0  0  0  0
 23 25  1  0  0  0  0
 24 26  1  0  0  0  0
 25 26  1  0  0  0  0
M  END
> <IDNUMBER>
S896-0140

> <available>
65

> <H_acceptor>
4

> <H_donor>
0

> <B_rotN>
3

> <N_O>
5

> <logP>
5.2476

> <logD>
5.2419

> <logSw>
-5.0806

> <PSA>
39.459

> <pKa_ma>
19.7965

> <pKa_mb>
5.5159

> <N_Chirals>
0

> <Name>
4-(azepan-1-yl)-2-(4-methoxyphenyl)-5,6,8,9-tetrahydrooxepino[4,5-d]pyrimidine

> <Smile>
COc(cc1)ccc1-c1nc(CCOCC2)c2c(N2CCCCCC2)n1

> <Color>
BROWN

> <Collection>
IC

> <InChI>
InChI=1S/C21H27N3O2/c1-25-17-8-6-16(7-9-17)20-22-19-11-15-26-14-10-18(19)21(23-20)24-12-4-2-3-5-13-24/h6-9H,2-5,10-15H2,1H3

> <InChI Key>
IFLZROVYLCMPOH-UHFFFAOYSA-N

> <PERCENTSP3>
52.38

> <Link>
https://www.chemdiv.com/catalog/screening-compounds/compound-S896-0140/

> <MFCDNUMBER>
MFCD31956795

> <CLNUMBER>
CM3993

> <STEREO>
ACHIRAL

> <State>
Solid

> <Similarity score>
0.23

$$$$
N-[3-(3,4-dihydroquinolin-1(2H)-yl)propyl]-2-methyl-4-oxo-4,5,6,7,8,9-hexahydro-
  -OEChem-04222410502D

 29 32  0     0  0  0  0  0  0999 V2000
   -1.9225   -0.7227    0.0000 C   0  0  0  0  0  0  0  0  0  0  0  0
   -2.4221    0.1436    0.0000 C   0  0  0  0  0  0  0  0  0  0  0  0
   -2.4221   -1.5849    0.0000 C   0  0  0  0  0  0  0  0  0  0  0  0
   -3.4220   -1.5849    0.0000 N   0  0  0  0  0  0  0  0  0  0  0  0
   -3.4220    0.1436    0.0000 N   0  0  0  0  0  0  0  0  0  0  0  0
   -3.9220   -0.7227    0.0000 C   0  0  0  0  0  0  0  0  0  0  0  0
    3.1887    0.7518    0.0000 N   0  0  0  0  0  0  0  0  0  0  0  0
   -0.9309   -0.5727    0.0000 C   0  0  0  0  0  0  0  0  0  0  0  0
    3.1887    1.7516    0.0000 C   0  0  0  0  0  0  0  0  0  0  0  0
    0.5893   -2.7473    0.0000 C   0  0  0  0  0  0  0  0  0  0  0  0
   -1.9225    1.0101    0.0000 O   0  0  0  0  0  0  0  0  0  0  0  0
   -2.0556   -2.5181    0.0000 C   0  0  0  0  0  0  0  0  0  0  0  0
   -0.2728   -2.2514    0.0000 C   0  0  3  0  0  0  0  0  0  0  0  0
    0.5893   -3.7509    0.0000 O   0  0  0  0  0  0  0  0  0  0  0  0
   -0.1978   -1.2517    0.0000 C   0  0  0  0  0  0  0  0  0  0  0  0
    4.0552    2.2514    0.0000 C   0  0  0  0  0  0  0  0  0  0  0  0
   -1.1016   -2.8139    0.0000 C   0  0  0  0  0  0  0  0  0  0  0  0
    1.4558   -2.2514    0.0000 N   0  0  0  0  0  0  0  0  0  0  0  0
    2.3222    0.2521    0.0000 C   0  0  0  0  0  0  0  0  0  0  0  0
    4.0552    0.2521    0.0000 C   0  0  0  0  0  0  0  0  0  0  0  0
    2.3222   -0.7519    0.0000 C   0  0  0  0  0  0  0  0  0  0  0  0
   -4.9215   -0.7227    0.0000 C   0  0  0  0  0  0  0  0  0  0  0  0
    4.9215    0.7518    0.0000 C   0  0  0  0  0  0  0  0  0  0  0  0
    2.3222    2.2514    0.0000 C   0  0  0  0  0  0  0  0  0  0  0  0
    1.4558   -1.2478    0.0000 C   0  0  0  0  0  0  0  0  0  0  0  0
    4.9215    1.7516    0.0000 C   0  0  0  0  0  0  0  0  0  0  0  0
    4.0552    3.2470    0.0000 C   0  0  0  0  0  0  0  0  0  0  0  0
    2.3222    3.2470    0.0000 C   0  0  0  0  0  0  0  0  0  0  0  0
    3.1887    3.7509    0.0000 C   0  0  0  0  0  0  0  0  0  0  0  0
  1  2  1  0  0  0  0
  1  3  2  0  0  0  0
  3  4  1  0  0  0  0
  2  5  1  0  0  0  0
  5  6  1  0  0  0  0
  4  6  2  0  0  0  0
  7 19  1  0  0  0  0
  1  8  1  0  0  0  0
  7  9  1  0  0  0  0
 10 13  1  0  0  0  0
  2 11  2  0  0  0  0
  3 12  1  0  0  0  0
 13 15  1  0  0  0  0
 13 17  1  0  0  0  0
 10 14  2  0  0  0  0
  8 15  1  0  0  0  0
  9 16  1  0  0  0  0
 12 17  1  0  0  0  0
 10 18  1  0  0  0  0
 19 21  1  0  0  0  0
  7 20  1  0  0  0  0
 21 25  1  0  0  0  0
  6 22  1  0  0  0  0
 20 23  1  0  0  0  0
  9 24  2  0  0  0  0
 18 25  1  0  0  0  0
 23 26  1  0  0  0  0
 16 26  1  0  0  0  0
 16 27  2  0  0  0  0
 24 28  1  0  0  0  0
 28 29  2  0  0  0  0
 27 29  1  0  0  0  0
M  END
> <IDNUMBER>
SB25-0085

> <available>
36

> <H_acceptor>
5

> <H_donor>
2

> <B_rotN>
6

> <N_O>
6

> <logP>
2.2027

> <logD>
2.1448

> <logSw>
-2.732

> <PSA>
61.204

> <pKa_ma>
9.7494

> <pKa_mb>
7.7732

> <N_Chirals>
1

> <Name>
N-[3-(3,4-dihydroquinolin-1(2H)-yl)propyl]-2-methyl-4-oxo-4,5,6,7,8,9-hexahydro-3H-cyclohepta[d]pyrimidine-7-carboxamide

> <Smile>
CC(N1)=NC(CCC(CC2)C(NCCCN(CCC3)c4c3cccc4)=O)=C2C1=O

> <Color>
ORANGE

> <Collection>
IC

> <InChI>
InChI=1S/C23H30N4O2/c1-16-25-20-12-10-18(9-11-19(20)23(29)26-16)22(28)24-13-5-15-27-14-4-7-17-6-2-3-8-21(17)27/h2-3,6,8,18H,4-5,7,9-15H2,1H3,(H,24,28)(H,25,26,29)/t18-/m1/s1

> <InChI Key>
ZHHXQYMJZSDFMF-GOSISDBHSA-N

> <PERCENTSP3>
52.17

> <Link>
https://www.chemdiv.com/catalog/screening-compounds/compound-SB25-0085/

> <MFCDNUMBER>
MFCD32247259

> <CLNUMBER>
CM3995

> <STEREO>
RACEMIC MIXTURE

> <State>
Solid

> <Similarity score>
0.23

$$$$
N-(4-acetylphenyl)-1-amino-7-methyl-5-(morpholin-4-yl)-6,7,8,9-tetrahydrothieno[
  -OEChem-04222410502D

 33 37  0     0  0  0  0  0  0999 V2000
   -0.0771   -0.0065    0.0000 C   0  0  0  0  0  0  0  0  0  0  0  0
   -1.6019    0.4894    0.0000 C   0  0  0  0  0  0  0  0  0  0  0  0
   -0.6560    0.7978    0.0000 C   0  0  0  0  0  0  0  0  0  0  0  0
   -3.3305    0.4894    0.0000 C   0  0  0  0  0  0  0  0  0  0  0  0
   -1.6019   -0.5063    0.0000 C   0  0  0  0  0  0  0  0  0  0  0  0
   -3.3305   -0.5063    0.0000 C   0  0  0  0  0  0  0  0  0  0  0  0
   -2.4682   -1.0061    0.0000 N   0  0  0  0  0  0  0  0  0  0  0  0
   -0.6560   -0.8187    0.0000 S   0  0  0  0  0  0  0  0  0  0  0  0
   -2.4682    0.9896    0.0000 C   0  0  0  0  0  0  0  0  0  0  0  0
    0.9227   -0.0187    0.0000 C   0  0  0  0  0  0  0  0  0  0  0  0
   -4.2056   -1.0061    0.0000 N   0  0  0  0  0  0  0  0  0  0  0  0
    1.4227   -0.8812    0.0000 N   0  0  0  0  0  0  0  0  0  0  0  0
   -4.2056    0.9896    0.0000 C   0  0  0  0  0  0  0  0  0  0  0  0
   -4.2056    1.9933    0.0000 N   0  0  0  0  0  0  0  0  0  0  0  0
   -2.4682    1.9933    0.0000 C   0  0  0  0  0  0  0  0  0  0  0  0
    1.4227    0.8560    0.0000 O   0  0  0  0  0  0  0  0  0  0  0  0
   -0.3480    1.7518    0.0000 N   0  0  0  0  0  0  0  0  0  0  0  0
    5.4301   -0.8812    0.0000 C   0  0  0  0  0  0  0  0  0  0  0  0
    4.4303   -0.8812    0.0000 C   0  0  0  0  0  0  0  0  0  0  0  0
    5.9301   -0.0065    0.0000 O   0  0  0  0  0  0  0  0  0  0  0  0
   -3.3305    2.4932    0.0000 C   0  0  0  0  0  0  0  0  0  0  0  0
   -5.9301   -2.0142    0.0000 O   0  0  0  0  0  0  0  0  0  0  0  0
    2.4308   -0.8812    0.0000 C   0  0  0  0  0  0  0  0  0  0  0  0
    3.9304   -1.7475    0.0000 C   0  0  0  0  0  0  0  0  0  0  0  0
    3.9304   -0.0187    0.0000 C   0  0  0  0  0  0  0  0  0  0  0  0
    2.9306   -1.7475    0.0000 C   0  0  0  0  0  0  0  0  0  0  0  0
    2.9306   -0.0187    0.0000 C   0  0  0  0  0  0  0  0  0  0  0  0
   -5.0676   -0.5063    0.0000 C   0  0  0  0  0  0  0  0  0  0  0  0
   -4.2056   -2.0142    0.0000 C   0  0  0  0  0  0  0  0  0  0  0  0
   -5.0719    2.5016    0.0000 C   0  0  0  0  0  0  0  0  0  0  0  0
   -5.9301   -1.0061    0.0000 C   0  0  0  0  0  0  0  0  0  0  0  0
   -5.0676   -2.5016    0.0000 C   0  0  0  0  0  0  0  0  0  0  0  0
    5.9301   -1.7435    0.0000 C   0  0  0  0  0  0  0  0  0  0  0  0
  2  3  1  0  0  0  0
  2  5  2  0  0  0  0
  1  3  2  0  0  0  0
  4  9  2  0  0  0  0
  4  6  1  0  0  0  0
  5  8  1  0  0  0  0
  6  7  2  0  0  0  0
  5  7  1  0  0  0  0
  1  8  1  0  0  0  0
  2  9  1  0  0  0  0
  1 10  1  0  0  0  0
  6 11  1  0  0  0  0
 10 12  1  0  0  0  0
  4 13  1  0  0  0  0
 13 14  1  0  0  0  0
 14 21  1  0  0  0  0
  9 15  1  0  0  0  0
 10 16  2  0  0  0  0
  3 17  1  0  0  0  0
 18 19  1  0  0  0  0
 19 25  1  0  0  0  0
 18 20  2  0  0  0  0
 15 21  1  0  0  0  0
 22 32  1  0  0  0  0
 12 23  1  0  0  0  0
 24 26  1  0  0  0  0
 19 24  2  0  0  0  0
 25 27  2  0  0  0  0
 23 26  2  0  0  0  0
 23 27  1  0  0  0  0
 11 28  1  0  0  0  0
 11 29  1  0  0  0  0
 14 30  1  0  0  0  0
 28 31  1  0  0  0  0
 22 31  1  0  0  0  0
 29 32  1  0  0  0  0
 18 33  1  0  0  0  0
M  END
> <IDNUMBER>
IB06-0074

> <available>
50

> <H_acceptor>
7

> <H_donor>
3

> <B_rotN>
5

> <N_O>
8

> <logP>
2.64

> <logD>
1.41

> <logSw>
-3.37

> <PSA>
141.35

> <pKa_ma>
10.96

> <pKa_mb>
8.6

> <N_Chirals>
0

> <Name>
N-(4-acetylphenyl)-1-amino-7-methyl-5-(morpholin-4-yl)-6,7,8,9-tetrahydrothieno[2,3-c][2,7]naphthyridine-2-carboxamide

> <Smile>
CC(c(cc1)ccc1NC(c(sc1nc(N2CCOCC2)c(CN(C)CC2)c2c11)c1N)=O)=O

> <Color>
NOT COLORED

> <Collection>
DC

> <InChI>
InChI=1S/C24H27N5O3S/c1-14(30)15-3-5-16(6-4-15)26-23(31)21-20(25)19-17-7-8-28(2)13-18(17)22(27-24(19)33-21)29-9-11-32-12-10-29/h3-6H,7-13,25H2,1-2H3,(H,26,31)

> <InChI Key>
UAFFKEBBSSRUAV-UHFFFAOYSA-N

> <PERCENTSP3>
37.5

> <Link>
https://www.chemdiv.com/catalog/screening-compounds/compound-IB06-0074/

> <STEREO>
ACHIRAL

> <State>
Solid

> <Similarity score>
0.23

$$$$
3-(6-methoxy-1,3,4,9-tetrahydro-2H-pyrido[3,4-b]indol-2-yl)-1-methylpyrrolidine-
  -OEChem-04222410502D

 23 26  0     0  0  0  0  0  0999 V2000
    3.5270    0.8354    0.0000 N   0  0  0  0  0  0  0  0  0  0  0  0
    2.5476    1.0480    0.0000 C   0  0  0  0  0  0  0  0  0  0  0  0
   -0.3436   -0.9562    0.0000 C   0  0  0  0  0  0  0  0  0  0  0  0
    3.6186   -0.1479    0.0000 C   0  0  0  0  0  0  0  0  0  0  0  0
    2.0478    0.1770    0.0000 C   0  0  3  0  0  0  0  0  0  0  0  0
   -0.9437   -0.1396    0.0000 C   0  0  0  0  0  0  0  0  0  0  0  0
    1.0645    0.0895    0.0000 N   0  0  3  0  0  0  0  0  0  0  0  0
    2.7145   -0.5479    0.0000 C   0  0  0  0  0  0  0  0  0  0  0  0
   -0.9312   -1.7562    0.0000 N   0  0  0  0  0  0  0  0  0  0  0  0
   -1.8977   -0.4562    0.0000 C   0  0  0  0  0  0  0  0  0  0  0  0
   -1.8852   -1.4645    0.0000 C   0  0  0  0  0  0  0  0  0  0  0  0
    0.6522   -0.8479    0.0000 C   0  0  0  0  0  0  0  0  0  0  0  0
   -0.5354    0.7854    0.0000 C   0  0  0  0  0  0  0  0  0  0  0  0
    0.4730    0.8896    0.0000 C   0  0  0  0  0  0  0  0  0  0  0  0
    2.1395    1.9521    0.0000 O   0  0  0  0  0  0  0  0  0  0  0  0
    4.4976   -0.6522    0.0000 O   0  0  0  0  0  0  0  0  0  0  0  0
   -2.7601    0.0437    0.0000 C   0  0  0  0  0  0  0  0  0  0  0  0
   -2.7601   -1.9521    0.0000 C   0  0  0  0  0  0  0  0  0  0  0  0
    4.2560    1.5104    0.0000 C   0  0  0  0  0  0  0  0  0  0  0  0
   -3.6227   -0.4562    0.0000 C   0  0  0  0  0  0  0  0  0  0  0  0
   -3.6227   -1.4645    0.0000 C   0  0  0  0  0  0  0  0  0  0  0  0
   -4.4809    0.0437    0.0000 O   0  0  0  0  0  0  0  0  0  0  0  0
   -4.4976    1.0395    0.0000 C   0  0  0  0  0  0  0  0  0  0  0  0
  1  2  1  0  0  0  0
  3 12  1  0  0  0  0
  1  4  1  0  0  0  0
  2  5  1  0  0  0  0
  5  8  1  0  0  0  0
  6 13  1  0  0  0  0
  3  6  2  0  0  0  0
  5  7  1  0  0  0  0
  4  8  1  0  0  0  0
  3  9  1  0  0  0  0
  6 10  1  0  0  0  0
 10 11  1  0  0  0  0
  9 11  1  0  0  0  0
  7 12  1  0  0  0  0
 13 14  1  0  0  0  0
  7 14  1  0  0  0  0
  2 15  2  0  0  0  0
  4 16  2  0  0  0  0
 10 17  2  0  0  0  0
 11 18  2  0  0  0  0
  1 19  1  0  0  0  0
 17 20  1  0  0  0  0
 20 21  2  0  0  0  0
 18 21  1  0  0  0  0
 20 22  1  0  0  0  0
 22 23  1  0  0  0  0
M  END
> <IDNUMBER>
Y020-9705

> <available>
9

> <H_acceptor>
6

> <H_donor>
1

> <B_rotN>
2

> <N_O>
6

> <logP>
0.3181

> <logD>
0.3179

> <logSw>
-2.0622

> <PSA>
50.692

> <pKa_ma>
16.8486

> <pKa_mb>
3.9283

> <N_Chirals>
1

> <Name>
3-(6-methoxy-1,3,4,9-tetrahydro-2H-pyrido[3,4-b]indol-2-yl)-1-methylpyrrolidine-2,5-dione

> <Smile>
CN(C(CC1N(CC2)Cc3c2c(cc(cc2)OC)c2[nH]3)=O)C1=O

> <Color>
NOT COLORED

> <Collection>
DC

> <InChI>
InChI=1S/C17H19N3O3/c1-19-16(21)8-15(17(19)22)20-6-5-11-12-7-10(23-2)3-4-13(12)18-14(11)9-20/h3-4,7,15,18H,5-6,8-9H2,1-2H3/t15-/m0/s1

> <InChI Key>
BXRYGYIQEUOTHD-HNNXBMFYSA-N

> <PERCENTSP3>
41.2

> <Link>
https://www.chemdiv.com/catalog/screening-compounds/compound-Y020-9705/

> <MFCDNUMBER>
MFCD22574375

> <STEREO>
RACEMIC MIXTURE

> <State>
Solid

> <Similarity score>
0.23

$$$$
N-(3,5-dimethoxyphenyl)-2-(9-fluoro-6-methyl-10-oxo-3,4,5,10-tetrahydrobenzo[b][
  -OEChem-04222410502D

 31 34  0     0  0  0  0  0  0999 V2000
   -0.8901   -1.7128    0.0000 C   0  0  0  0  0  0  0  0  0  0  0  0
   -1.7611   -1.2143    0.0000 C   0  0  0  0  0  0  0  0  0  0  0  0
   -2.6448   -1.7128    0.0000 C   0  0  0  0  0  0  0  0  0  0  0  0
   -1.7801   -3.1888    0.0000 N   0  0  0  0  0  0  0  0  0  0  0  0
   -2.6448   -2.6904    0.0000 C   0  0  0  0  0  0  0  0  0  0  0  0
   -0.8901   -2.7094    0.0000 C   0  0  0  0  0  0  0  0  0  0  0  0
    0.8713   -1.7128    0.0000 N   0  0  0  0  0  0  0  0  0  0  0  0
    0.0063   -1.2240    0.0000 C   0  0  0  0  0  0  0  0  0  0  0  0
    1.7644   -0.2461    0.0000 C   0  0  0  0  0  0  0  0  0  0  0  0
    2.6638    1.2143    0.0000 C   0  0  0  0  0  0  0  0  0  0  0  0
   -3.5382   -1.2240    0.0000 C   0  0  0  0  0  0  0  0  0  0  0  0
   -0.0124   -3.1888    0.0000 C   0  0  0  0  0  0  0  0  0  0  0  0
    2.6638    0.2364    0.0000 N   0  0  0  0  0  0  0  0  0  0  0  0
   -3.5382   -3.1888    0.0000 C   0  0  0  0  0  0  0  0  0  0  0  0
   -1.7611   -0.2273    0.0000 O   0  0  0  0  0  0  0  0  0  0  0  0
    1.7831    1.7001    0.0000 C   0  0  0  0  0  0  0  0  0  0  0  0
    3.5412    1.7001    0.0000 C   0  0  0  0  0  0  0  0  0  0  0  0
    1.7644   -1.2240    0.0000 C   0  0  0  0  0  0  0  0  0  0  0  0
    3.5412    2.6777    0.0000 C   0  0  0  0  0  0  0  0  0  0  0  0
    1.7831    2.6777    0.0000 C   0  0  0  0  0  0  0  0  0  0  0  0
    2.6638    3.1665    0.0000 C   0  0  0  0  0  0  0  0  0  0  0  0
    0.8713    0.2364    0.0000 O   0  0  0  0  0  0  0  0  0  0  0  0
    0.8713   -2.7094    0.0000 C   0  0  0  0  0  0  0  0  0  0  0  0
   -4.4062   -1.7128    0.0000 C   0  0  0  0  0  0  0  0  0  0  0  0
   -4.4062   -2.6904    0.0000 C   0  0  0  0  0  0  0  0  0  0  0  0
   -3.5382   -0.2273    0.0000 F   0  0  0  0  0  0  0  0  0  0  0  0
    0.9181    3.1949    0.0000 O   0  0  0  0  0  0  0  0  0  0  0  0
    4.4062    3.1855    0.0000 O   0  0  0  0  0  0  0  0  0  0  0  0
   -3.5475   -4.1852    0.0000 C   0  0  0  0  0  0  0  0  0  0  0  0
    0.0628    2.6967    0.0000 C   0  0  0  0  0  0  0  0  0  0  0  0
    4.3875    4.1852    0.0000 C   0  0  0  0  0  0  0  0  0  0  0  0
  1  2  1  0  0  0  0
  2  3  1  0  0  0  0
  3  5  1  0  0  0  0
  4  6  1  0  0  0  0
  4  5  1  0  0  0  0
  1  6  2  0  0  0  0
  7  8  1  0  0  0  0
  1  8  1  0  0  0  0
  9 18  1  0  0  0  0
 10 13  1  0  0  0  0
  3 11  2  0  0  0  0
  6 12  1  0  0  0  0
 12 23  1  0  0  0  0
  9 13  1  0  0  0  0
  5 14  2  0  0  0  0
  2 15  2  0  0  0  0
 10 16  2  0  0  0  0
 10 17  1  0  0  0  0
  7 18  1  0  0  0  0
 17 19  2  0  0  0  0
 16 20  1  0  0  0  0
 20 21  2  0  0  0  0
 19 21  1  0  0  0  0
  9 22  2  0  0  0  0
  7 23  1  0  0  0  0
 11 24  1  0  0  0  0
 24 25  2  0  0  0  0
 14 25  1  0  0  0  0
 11 26  1  0  0  0  0
 20 27  1  0  0  0  0
 19 28  1  0  0  0  0
 14 29  1  0  0  0  0
 27 30  1  0  0  0  0
 28 31  1  0  0  0  0
M  END
> <IDNUMBER>
L489-1899

> <available>
50

> <H_acceptor>
7

> <H_donor>
2

> <B_rotN>
6

> <N_O>
7

> <logP>
3.7383

> <logD>
2.8413

> <logSw>
-4.2104

> <PSA>
63.899

> <pKa_ma>
6.5619

> <pKa_mb>
1.2894

> <N_Chirals>
0

> <Name>
N-(3,5-dimethoxyphenyl)-2-(9-fluoro-6-methyl-10-oxo-3,4,5,10-tetrahydrobenzo[b][1,6]naphthyridin-2(1H)-yl)acetamide

> <Smile>
Cc(ccc(F)c12)c2NC(CCN(CC(Nc2cc(OC)cc(OC)c2)=O)C2)=C2C1=O

> <Color>
YELLOW

> <Collection>
NC

> <InChI>
InChI=1S/C23H24FN3O4/c1-13-4-5-18(24)21-22(13)26-19-6-7-27(11-17(19)23(21)29)12-20(28)25-14-8-15(30-2)10-16(9-14)31-3/h4-5,8-10H,6-7,11-12H2,1-3H3,(H,25,28)(H,26,29)

> <InChI Key>
WWIIWEOHIYBQKU-UHFFFAOYSA-N

> <PERCENTSP3>
30.4

> <Link>
https://www.chemdiv.com/catalog/screening-compounds/compound-L489-1899/

> <MFCDNUMBER>
MFCD27457665

> <CLNUMBER>
CL8213A

> <STEREO>
ACHIRAL

> <State>
Solid

> <Similarity score>
0.23

$$$$
7-[(2-fluorophenyl)methyl]-2-(4-methylpiperazin-1-yl)-3,5,6,7,8,9-hexahydro-4H-p
  -OEChem-04222410502D

 27 30  0     0  0  0  0  0  0999 V2000
    1.3289    0.6236    0.0000 C   0  0  0  0  0  0  0  0  0  0  0  0
    1.1000    1.5922    0.0000 N   0  0  0  0  0  0  0  0  0  0  0  0
   -0.5893    1.2067    0.0000 C   0  0  0  0  0  0  0  0  0  0  0  0
    0.5954   -0.0594    0.0000 N   0  0  0  0  0  0  0  0  0  0  0  0
    0.1443    1.8868    0.0000 C   0  0  0  0  0  0  0  0  0  0  0  0
   -0.3636    0.2288    0.0000 C   0  0  0  0  0  0  0  0  0  0  0  0
    2.2879    0.3228    0.0000 N   0  0  0  0  0  0  0  0  0  0  0  0
   -2.6199    0.2288    0.0000 N   0  0  0  0  0  0  0  0  0  0  0  0
   -1.4854    1.6392    0.0000 C   0  0  0  0  0  0  0  0  0  0  0  0
   -3.8893   -0.9466    0.0000 C   0  0  0  0  0  0  0  0  0  0  0  0
   -0.9934   -0.5514    0.0000 C   0  0  0  0  0  0  0  0  0  0  0  0
    4.1932   -0.2665    0.0000 N   0  0  0  0  0  0  0  0  0  0  0  0
   -3.5882    0.0031    0.0000 C   0  0  0  0  0  0  0  0  0  0  0  0
   -0.0721    2.8645    0.0000 O   0  0  0  0  0  0  0  0  0  0  0  0
    3.0179    0.9997    0.0000 C   0  0  0  0  0  0  0  0  0  0  0  0
    2.5040   -0.6551    0.0000 C   0  0  0  0  0  0  0  0  0  0  0  0
   -3.2059   -1.6798    0.0000 C   0  0  0  0  0  0  0  0  0  0  0  0
   -2.3942    1.2067    0.0000 C   0  0  0  0  0  0  0  0  0  0  0  0
   -1.9900   -0.5514    0.0000 C   0  0  0  0  0  0  0  0  0  0  0  0
    3.9675    0.7021    0.0000 C   0  0  0  0  0  0  0  0  0  0  0  0
    3.4600   -0.9466    0.0000 C   0  0  0  0  0  0  0  0  0  0  0  0
   -2.2283   -1.4634    0.0000 F   0  0  0  0  0  0  0  0  0  0  0  0
    5.1522   -0.5611    0.0000 C   0  0  0  0  0  0  0  0  0  0  0  0
   -4.8575   -1.1720    0.0000 C   0  0  0  0  0  0  0  0  0  0  0  0
   -3.4945   -2.6355    0.0000 C   0  0  0  0  0  0  0  0  0  0  0  0
   -5.1522   -2.1309    0.0000 C   0  0  0  0  0  0  0  0  0  0  0  0
   -4.4721   -2.8645    0.0000 C   0  0  0  0  0  0  0  0  0  0  0  0
  1  2  1  0  0  0  0
  3  6  2  0  0  0  0
  3  5  1  0  0  0  0
  1  4  2  0  0  0  0
  2  5  1  0  0  0  0
  4  6  1  0  0  0  0
  1  7  1  0  0  0  0
  8 19  1  0  0  0  0
  8 18  1  0  0  0  0
  3  9  1  0  0  0  0
 10 13  1  0  0  0  0
  6 11  1  0  0  0  0
 12 21  1  0  0  0  0
 12 20  1  0  0  0  0
  8 13  1  0  0  0  0
  5 14  2  0  0  0  0
  7 15  1  0  0  0  0
  7 16  1  0  0  0  0
 10 17  2  0  0  0  0
  9 18  1  0  0  0  0
 11 19  1  0  0  0  0
 15 20  1  0  0  0  0
 16 21  1  0  0  0  0
 17 22  1  0  0  0  0
 12 23  1  0  0  0  0
 10 24  1  0  0  0  0
 17 25  1  0  0  0  0
 25 27  2  0  0  0  0
 24 26  2  0  0  0  0
 26 27  1  0  0  0  0
M  END
> <IDNUMBER>
S039-3657

> <available>
3

> <H_acceptor>
5

> <H_donor>
1

> <B_rotN>
3

> <N_O>
6

> <logP>
1.6322

> <logD>
0.4125

> <logSw>
-2.2418

> <PSA>
45.276

> <pKa_ma>
9.6889

> <pKa_mb>
8.5927

> <N_Chirals>
0

> <Name>
7-[(2-fluorophenyl)methyl]-2-(4-methylpiperazin-1-yl)-3,5,6,7,8,9-hexahydro-4H-pyrimido[4,5-d]azepin-4-one

> <Smile>
CN(CC1)CCN1C(N1)=NC(CCN(Cc(cccc2)c2F)CC2)=C2C1=O

> <Color>
NOT COLORED

> <Collection>
IC

> <InChI>
InChI=1S/C20H26FN5O/c1-24-10-12-26(13-11-24)20-22-18-7-9-25(8-6-16(18)19(27)23-20)14-15-4-2-3-5-17(15)21/h2-5H,6-14H2,1H3,(H,22,23,27)

> <InChI Key>
BDQFRDKMVNYFJC-UHFFFAOYSA-N

> <PERCENTSP3>
50

> <Link>
https://www.chemdiv.com/catalog/screening-compounds/compound-S039-3657/

> <MFCDNUMBER>
MFCD28999996

> <CLNUMBER>
CM2417

> <STEREO>
ACHIRAL

> <State>
Solid

> <Similarity score>
0.23

$$$$
2-(9-chloro-6-methoxy-10-oxo-3,4,5,10-tetrahydrobenzo[b][1,6]naphthyridin-2(1H)-
  -OEChem-04222410502D

 30 33  0     0  0  0  0  0  0999 V2000
   -0.8948   -1.4602    0.0000 C   0  0  0  0  0  0  0  0  0  0  0  0
   -1.7690   -0.9652    0.0000 C   0  0  0  0  0  0  0  0  0  0  0  0
   -2.6434   -1.4602    0.0000 C   0  0  0  0  0  0  0  0  0  0  0  0
   -1.7784   -2.9395    0.0000 N   0  0  0  0  0  0  0  0  0  0  0  0
   -2.6434   -2.4411    0.0000 C   0  0  0  0  0  0  0  0  0  0  0  0
   -0.8948   -2.4505    0.0000 C   0  0  0  0  0  0  0  0  0  0  0  0
    0.8790   -1.4602    0.0000 N   0  0  0  0  0  0  0  0  0  0  0  0
    0.0079   -0.9746    0.0000 C   0  0  0  0  0  0  0  0  0  0  0  0
    1.7659    0.0124    0.0000 C   0  0  0  0  0  0  0  0  0  0  0  0
   -3.5303   -0.9746    0.0000 C   0  0  0  0  0  0  0  0  0  0  0  0
   -0.0048   -2.9395    0.0000 C   0  0  0  0  0  0  0  0  0  0  0  0
    3.5428    2.9301    0.0000 C   0  0  0  0  0  0  0  0  0  0  0  0
    3.5428    1.9491    0.0000 C   0  0  0  0  0  0  0  0  0  0  0  0
   -3.5303   -2.9207    0.0000 C   0  0  0  0  0  0  0  0  0  0  0  0
    2.6683    0.4856    0.0000 N   0  0  0  0  0  0  0  0  0  0  0  0
   -1.7690    0.0158    0.0000 O   0  0  0  0  0  0  0  0  0  0  0  0
    2.6683    1.4696    0.0000 C   0  0  0  0  0  0  0  0  0  0  0  0
    2.6683    3.4157    0.0000 C   0  0  0  0  0  0  0  0  0  0  0  0
    1.7659   -0.9746    0.0000 C   0  0  0  0  0  0  0  0  0  0  0  0
    0.8790    0.4856    0.0000 O   0  0  0  0  0  0  0  0  0  0  0  0
    0.8790   -2.4505    0.0000 C   0  0  0  0  0  0  0  0  0  0  0  0
   -4.4045   -1.4602    0.0000 C   0  0  0  0  0  0  0  0  0  0  0  0
   -4.4045   -2.4411    0.0000 C   0  0  0  0  0  0  0  0  0  0  0  0
    1.7814    2.9301    0.0000 C   0  0  0  0  0  0  0  0  0  0  0  0
    4.4045    3.4439    0.0000 F   0  0  0  0  0  0  0  0  0  0  0  0
    1.7814    1.9491    0.0000 C   0  0  0  0  0  0  0  0  0  0  0  0
   -3.5397    0.0252    0.0000 Cl  0  0  0  0  0  0  0  0  0  0  0  0
    2.6683    4.4248    0.0000 F   0  0  0  0  0  0  0  0  0  0  0  0
   -3.5303   -3.9236    0.0000 O   0  0  0  0  0  0  0  0  0  0  0  0
   -2.6716   -4.4248    0.0000 C   0  0  0  0  0  0  0  0  0  0  0  0
  1  2  1  0  0  0  0
  2  3  1  0  0  0  0
  3  5  1  0  0  0  0
  4  6  1  0  0  0  0
  4  5  1  0  0  0  0
  1  6  2  0  0  0  0
  7  8  1  0  0  0  0
  1  8  1  0  0  0  0
  9 19  1  0  0  0  0
  3 10  2  0  0  0  0
  6 11  1  0  0  0  0
 11 21  1  0  0  0  0
 12 13  2  0  0  0  0
 12 18  1  0  0  0  0
 13 17  1  0  0  0  0
  5 14  2  0  0  0  0
  9 15  1  0  0  0  0
  2 16  2  0  0  0  0
 15 17  1  0  0  0  0
 18 24  2  0  0  0  0
  7 19  1  0  0  0  0
  9 20  2  0  0  0  0
  7 21  1  0  0  0  0
 10 22  1  0  0  0  0
 22 23  2  0  0  0  0
 14 23  1  0  0  0  0
 24 26  1  0  0  0  0
 12 25  1  0  0  0  0
 17 26  2  0  0  0  0
 10 27  1  0  0  0  0
 18 28  1  0  0  0  0
 14 29  1  0  0  0  0
 29 30  1  0  0  0  0
M  END
> <IDNUMBER>
L489-1792

> <available>
39

> <H_acceptor>
6

> <H_donor>
2

> <B_rotN>
5

> <N_O>
6

> <logP>
3.7481

> <logD>
1.6987

> <logSw>
-4.5264

> <PSA>
56.441

> <pKa_ma>
5.3545

> <pKa_mb>
1.1333

> <N_Chirals>
0

> <Name>
2-(9-chloro-6-methoxy-10-oxo-3,4,5,10-tetrahydrobenzo[b][1,6]naphthyridin-2(1H)-yl)-N-(3,4-difluorophenyl)acetamide

> <Smile>
COc(ccc(Cl)c12)c2NC(CCN(CC(Nc(cc2)cc(F)c2F)=O)C2)=C2C1=O

> <Color>
ORANGE

> <Collection>
NC

> <InChI>
InChI=1S/C21H18ClF2N3O3/c1-30-17-5-3-13(22)19-20(17)26-16-6-7-27(9-12(16)21(19)29)10-18(28)25-11-2-4-14(23)15(24)8-11/h2-5,8H,6-7,9-10H2,1H3,(H,25,28)(H,26,29)

> <InChI Key>
UGEQQUGXBLBONZ-UHFFFAOYSA-N

> <PERCENTSP3>
23.8

> <Link>
https://www.chemdiv.com/catalog/screening-compounds/compound-L489-1792/

> <MFCDNUMBER>
MFCD27457653

> <CLNUMBER>
CL8213A

> <STEREO>
ACHIRAL

> <State>
Solid

> <Similarity score>
0.23

$$$$
4-[(2,6-difluorophenyl)methyl]-5,8-difluoro-7-(pyrrolidin-1-yl)-3,4-dihydro-1lam
  -OEChem-04222410502D

 28 31  0     0  0  0  0  0  0999 V2000
    0.4207   -1.2199    0.0000 C   0  0  0  0  0  0  0  0  0  0  0  0
    1.2679   -1.7090    0.0000 S   0  0  0  0  0  0  0  0  0  0  0  0
   -0.4264   -1.7090    0.0000 C   0  0  0  0  0  0  0  0  0  0  0  0
    0.4207   -0.2475    0.0000 C   0  0  0  0  0  0  0  0  0  0  0  0
   -1.2738   -1.2199    0.0000 C   0  0  0  0  0  0  0  0  0  0  0  0
   -1.2738   -0.2475    0.0000 N   0  0  0  0  0  0  0  0  0  0  0  0
    1.2679    0.2416    0.0000 N   0  0  0  0  0  0  0  0  0  0  0  0
   -0.4264    0.2416    0.0000 C   0  0  0  0  0  0  0  0  0  0  0  0
    2.1151    1.7090    0.0000 C   0  0  0  0  0  0  0  0  0  0  0  0
    1.2679    1.2199    0.0000 C   0  0  0  0  0  0  0  0  0  0  0  0
    2.1151   -1.2199    0.0000 C   0  0  0  0  0  0  0  0  0  0  0  0
   -2.1210   -1.7090    0.0000 N   0  0  0  0  0  0  0  0  0  0  0  0
    2.1151   -0.2475    0.0000 C   0  0  0  0  0  0  0  0  0  0  0  0
    2.1151   -2.1980    0.0000 O   0  0  0  0  0  0  0  0  0  0  0  0
    0.4207   -2.1980    0.0000 O   0  0  0  0  0  0  0  0  0  0  0  0
    2.9626    1.2199    0.0000 C   0  0  0  0  0  0  0  0  0  0  0  0
    2.1151    2.6873    0.0000 C   0  0  0  0  0  0  0  0  0  0  0  0
   -0.4264   -2.6814    0.0000 F   0  0  0  0  0  0  0  0  0  0  0  0
   -0.4264    1.2199    0.0000 F   0  0  0  0  0  0  0  0  0  0  0  0
    1.2738    3.1764    0.0000 F   0  0  0  0  0  0  0  0  0  0  0  0
    2.9626    0.2475    0.0000 F   0  0  0  0  0  0  0  0  0  0  0  0
   -2.9682   -1.2199    0.0000 C   0  0  0  0  0  0  0  0  0  0  0  0
   -2.1210   -2.6873    0.0000 C   0  0  0  0  0  0  0  0  0  0  0  0
    3.8096    2.6873    0.0000 C   0  0  0  0  0  0  0  0  0  0  0  0
    2.9626    3.1764    0.0000 C   0  0  0  0  0  0  0  0  0  0  0  0
    3.8096    1.7090    0.0000 C   0  0  0  0  0  0  0  0  0  0  0  0
   -3.8096   -1.7090    0.0000 C   0  0  0  0  0  0  0  0  0  0  0  0
   -2.9682   -3.1764    0.0000 C   0  0  0  0  0  0  0  0  0  0  0  0
  1  2  1  0  0  0  0
  1  3  1  0  0  0  0
  1  4  2  0  0  0  0
  3  5  2  0  0  0  0
  6  8  2  0  0  0  0
  5  6  1  0  0  0  0
  4  7  1  0  0  0  0
  4  8  1  0  0  0  0
  9 10  1  0  0  0  0
  7 10  1  0  0  0  0
  2 11  1  0  0  0  0
  5 12  1  0  0  0  0
  7 13  1  0  0  0  0
 11 13  1  0  0  0  0
  2 14  2  0  0  0  0
  2 15  2  0  0  0  0
  9 16  2  0  0  0  0
  9 17  1  0  0  0  0
  3 18  1  0  0  0  0
  8 19  1  0  0  0  0
 17 20  1  0  0  0  0
 16 21  1  0  0  0  0
 12 22  1  0  0  0  0
 12 23  1  0  0  0  0
 24 25  1  0  0  0  0
 24 26  2  0  0  0  0
 17 25  2  0  0  0  0
 16 26  1  0  0  0  0
 22 27  1  0  0  0  0
 27 28  1  0  0  0  0
 23 28  1  0  0  0  0
M  END
> <IDNUMBER>
8610-0655

> <available>
89

> <H_acceptor>
5

> <H_donor>
0

> <B_rotN>
3

> <N_O>
5

> <logP>
3.3959

> <logD>
3.3959

> <logSw>
-3.709

> <PSA>
47.503

> <pKa_ma>
21.3867

> <pKa_mb>
-1.2133

> <N_Chirals>
0

> <Name>
4-[(2,6-difluorophenyl)methyl]-5,8-difluoro-7-(pyrrolidin-1-yl)-3,4-dihydro-1lambda~6~-pyrido[4,3-b][1,4]thiazine-1,1(2H)-dione

> <Smile>
O=S(CCN(Cc(c(F)ccc1)c1F)c1c(nc2N3CCCC3)F)(c1c2F)=O

> <Color>
YELLOW

> <Collection>
DC

> <InChI>
InChI=1S/C18H17F4N3O2S/c19-12-4-3-5-13(20)11(12)10-25-8-9-28(26,27)16-14(21)18(23-17(22)15(16)25)24-6-1-2-7-24/h3-5H,1-2,6-10H2

> <InChI Key>
BPVCAUPUYRTWHT-UHFFFAOYSA-N

> <PERCENTSP3>
38.9

> <Link>
https://www.chemdiv.com/catalog/screening-compounds/compound-8610-0655/

> <MFCDNUMBER>
MFCD08053450

> <STEREO>
ACHIRAL

> <State>
Solid

> <Similarity score>
0.23

$$$$
N-(2,5-difluorophenyl)-1-(2,5,6-trimethylfuro[2,3-d]pyrimidin-4-yl)piperidine-3-
  -OEChem-04222410502D

 29 32  0     0  0  0  0  0  0999 V2000
   -0.5669    2.2258    0.0000 C   0  0  0  0  0  0  0  0  0  0  0  0
   -1.3046    2.8969    0.0000 C   0  0  0  0  0  0  0  0  0  0  0  0
   -1.0962    3.8723    0.0000 C   0  0  0  0  0  0  0  0  0  0  0  0
   -0.7711    1.2462    0.0000 N   0  0  0  0  0  0  0  0  0  0  0  0
   -2.3050    2.7885    0.0000 C   0  0  0  0  0  0  0  0  0  0  0  0
    0.3835    2.5342    0.0000 N   0  0  0  0  0  0  0  0  0  0  0  0
   -0.1459    4.1723    0.0000 N   0  0  0  0  0  0  0  0  0  0  0  0
   -1.9673    4.3683    0.0000 O   0  0  0  0  0  0  0  0  0  0  0  0
   -2.7095    3.7056    0.0000 C   0  0  0  0  0  0  0  0  0  0  0  0
    0.5086   -1.0671    0.0000 C   0  0  0  0  0  0  0  0  0  0  0  0
   -0.2334   -0.4043    0.0000 C   0  0  3  0  0  0  0  0  0  0  0  0
    0.2960   -2.0508    0.0000 N   0  0  0  0  0  0  0  0  0  0  0  0
    0.5961    3.5096    0.0000 C   0  0  0  0  0  0  0  0  0  0  0  0
    1.0420   -2.7177    0.0000 C   0  0  0  0  0  0  0  0  0  0  0  0
   -0.0291    0.5753    0.0000 C   0  0  0  0  0  0  0  0  0  0  0  0
    1.9967   -2.4050    0.0000 C   0  0  0  0  0  0  0  0  0  0  0  0
    0.8337   -3.6930    0.0000 C   0  0  0  0  0  0  0  0  0  0  0  0
    1.4589   -0.7628    0.0000 O   0  0  0  0  0  0  0  0  0  0  0  0
    1.5798   -4.3683    0.0000 C   0  0  0  0  0  0  0  0  0  0  0  0
    2.7344   -3.0804    0.0000 C   0  0  0  0  0  0  0  0  0  0  0  0
   -1.7215    0.9378    0.0000 C   0  0  0  0  0  0  0  0  0  0  0  0
   -0.1166   -4.0058    0.0000 F   0  0  0  0  0  0  0  0  0  0  0  0
    2.5301   -4.0557    0.0000 C   0  0  0  0  0  0  0  0  0  0  0  0
   -2.8053    1.9215    0.0000 C   0  0  0  0  0  0  0  0  0  0  0  0
    3.6847   -2.7678    0.0000 F   0  0  0  0  0  0  0  0  0  0  0  0
   -3.6847    3.9098    0.0000 C   0  0  0  0  0  0  0  0  0  0  0  0
   -1.1921   -0.7127    0.0000 C   0  0  0  0  0  0  0  0  0  0  0  0
   -1.9299   -0.0418    0.0000 C   0  0  0  0  0  0  0  0  0  0  0  0
    1.5464    3.8223    0.0000 C   0  0  0  0  0  0  0  0  0  0  0  0
  1  2  1  0  0  0  0
  2  3  2  0  0  0  0
  3  7  1  0  0  0  0
  1  4  1  0  0  0  0
  2  5  1  0  0  0  0
  1  6  2  0  0  0  0
  7 13  2  0  0  0  0
  3  8  1  0  0  0  0
  5  9  2  0  0  0  0
  8  9  1  0  0  0  0
 10 11  1  0  0  0  0
 11 15  1  0  0  0  0
 11 27  1  0  0  0  0
 10 12  1  0  0  0  0
  6 13  1  0  0  0  0
 12 14  1  0  0  0  0
  4 15  1  0  0  0  0
 14 16  1  0  0  0  0
 14 17  2  0  0  0  0
 10 18  2  0  0  0  0
 17 19  1  0  0  0  0
 16 20  2  0  0  0  0
 20 23  1  0  0  0  0
  4 21  1  0  0  0  0
 17 22  1  0  0  0  0
 19 23  2  0  0  0  0
  5 24  1  0  0  0  0
 20 25  1  0  0  0  0
  9 26  1  0  0  0  0
 27 28  1  0  0  0  0
 21 28  1  0  0  0  0
 13 29  1  0  0  0  0
M  END
> <IDNUMBER>
F228-0942

> <available>
41

> <H_acceptor>
5

> <H_donor>
1

> <B_rotN>
4

> <N_O>
6

> <logP>
3.9456

> <logD>
3.6085

> <logSw>
-4.0995

> <PSA>
52.255

> <pKa_ma>
8.1045

> <pKa_mb>
7.4693

> <N_Chirals>
1

> <Name>
N-(2,5-difluorophenyl)-1-(2,5,6-trimethylfuro[2,3-d]pyrimidin-4-yl)piperidine-3-carboxamide

> <Smile>
Cc1c(C)oc2c1c(N(CCC1)CC1C(Nc(cc(cc1)F)c1F)=O)nc(C)n2

> <Color>
NOT COLORED

> <Collection>
DC

> <InChI>
InChI=1S/C21H22F2N4O2/c1-11-12(2)29-21-18(11)19(24-13(3)25-21)27-8-4-5-14(10-27)20(28)26-17-9-15(22)6-7-16(17)23/h6-7,9,14H,4-5,8,10H2,1-3H3,(H,26,28)/t14-/m0/s1

> <InChI Key>
RVJJUKPIRPJOEE-AWEZNQCLSA-N

> <PERCENTSP3>
38.1

> <Link>
https://www.chemdiv.com/catalog/screening-compounds/compound-F228-0942/

> <MFCDNUMBER>
MFCD14945744

> <CLNUMBER>
CL1321B

> <STEREO>
RACEMIC MIXTURE

> <State>
Solid

> <Similarity score>
0.23

$$$$
7-[(2,4-dimethoxyphenyl)methyl]-2-(4-methylpiperazin-1-yl)-3,5,6,7,8,9-hexahydro
  -OEChem-04222410502D

 30 33  0     0  0  0  0  0  0999 V2000
    2.3814   -0.2664    0.0000 C   0  0  0  0  0  0  0  0  0  0  0  0
    2.1620    0.7018    0.0000 N   0  0  0  0  0  0  0  0  0  0  0  0
    0.4827    0.3165    0.0000 C   0  0  0  0  0  0  0  0  0  0  0  0
    1.6482   -0.9464    0.0000 N   0  0  0  0  0  0  0  0  0  0  0  0
    1.2159    0.9996    0.0000 C   0  0  0  0  0  0  0  0  0  0  0  0
    0.6955   -0.6517    0.0000 C   0  0  0  0  0  0  0  0  0  0  0  0
    3.3403   -0.5608    0.0000 N   0  0  0  0  0  0  0  0  0  0  0  0
   -3.2117   -0.1441    0.0000 C   0  0  0  0  0  0  0  0  0  0  0  0
   -1.5418   -0.6517    0.0000 N   0  0  0  0  0  0  0  0  0  0  0  0
   -0.4229    0.7550    0.0000 C   0  0  0  0  0  0  0  0  0  0  0  0
   -4.1799   -0.3635    0.0000 C   0  0  0  0  0  0  0  0  0  0  0  0
    0.0691   -1.4350    0.0000 C   0  0  0  0  0  0  0  0  0  0  0  0
    5.2549   -1.1468    0.0000 N   0  0  0  0  0  0  0  0  0  0  0  0
   -2.5255   -0.8773    0.0000 C   0  0  0  0  0  0  0  0  0  0  0  0
   -4.8599    0.3697    0.0000 C   0  0  0  0  0  0  0  0  0  0  0  0
    0.9810    1.9864    0.0000 O   0  0  0  0  0  0  0  0  0  0  0  0
    4.0735    0.1192    0.0000 C   0  0  0  0  0  0  0  0  0  0  0  0
    3.5659   -1.5356    0.0000 C   0  0  0  0  0  0  0  0  0  0  0  0
   -2.9111    0.8148    0.0000 C   0  0  0  0  0  0  0  0  0  0  0  0
   -1.3317    0.3165    0.0000 C   0  0  0  0  0  0  0  0  0  0  0  0
   -0.9212   -1.4350    0.0000 C   0  0  0  0  0  0  0  0  0  0  0  0
    5.0323   -0.1755    0.0000 C   0  0  0  0  0  0  0  0  0  0  0  0
    4.5216   -1.8299    0.0000 C   0  0  0  0  0  0  0  0  0  0  0  0
   -4.5655    1.3224    0.0000 C   0  0  0  0  0  0  0  0  0  0  0  0
   -3.5974    1.5480    0.0000 C   0  0  0  0  0  0  0  0  0  0  0  0
   -4.4746   -1.3224    0.0000 O   0  0  0  0  0  0  0  0  0  0  0  0
   -5.2455    2.0556    0.0000 O   0  0  0  0  0  0  0  0  0  0  0  0
    6.2137   -1.4447    0.0000 C   0  0  0  0  0  0  0  0  0  0  0  0
   -3.7946   -2.0556    0.0000 C   0  0  0  0  0  0  0  0  0  0  0  0
   -6.2137    1.8362    0.0000 C   0  0  0  0  0  0  0  0  0  0  0  0
  1  2  1  0  0  0  0
  3  6  2  0  0  0  0
  3  5  1  0  0  0  0
  1  4  2  0  0  0  0
  2  5  1  0  0  0  0
  4  6  1  0  0  0  0
  1  7  1  0  0  0  0
  8 14  1  0  0  0  0
  9 21  1  0  0  0  0
  9 20  1  0  0  0  0
  3 10  1  0  0  0  0
  8 11  2  0  0  0  0
  6 12  1  0  0  0  0
 13 23  1  0  0  0  0
 13 22  1  0  0  0  0
  9 14  1  0  0  0  0
 11 15  1  0  0  0  0
 15 24  2  0  0  0  0
  5 16  2  0  0  0  0
  7 17  1  0  0  0  0
  7 18  1  0  0  0  0
  8 19  1  0  0  0  0
 10 20  1  0  0  0  0
 12 21  1  0  0  0  0
 17 22  1  0  0  0  0
 18 23  1  0  0  0  0
 24 25  1  0  0  0  0
 19 25  2  0  0  0  0
 11 26  1  0  0  0  0
 24 27  1  0  0  0  0
 13 28  1  0  0  0  0
 26 29  1  0  0  0  0
 27 30  1  0  0  0  0
M  END
> <IDNUMBER>
S039-3651

> <available>
20

> <H_acceptor>
7

> <H_donor>
1

> <B_rotN>
5

> <N_O>
8

> <logP>
1.4422

> <logD>
0.2225

> <logSw>
-2.36

> <PSA>
60.45

> <pKa_ma>
9.6889

> <pKa_mb>
8.5927

> <N_Chirals>
0

> <Name>
7-[(2,4-dimethoxyphenyl)methyl]-2-(4-methylpiperazin-1-yl)-3,5,6,7,8,9-hexahydro-4H-pyrimido[4,5-d]azepin-4-one

> <Smile>
CN(CC1)CCN1C(N1)=NC(CCN(Cc(ccc(OC)c2)c2OC)CC2)=C2C1=O

> <Color>
NOT COLORED

> <Collection>
IC

> <InChI>
InChI=1S/C22H31N5O3/c1-25-10-12-27(13-11-25)22-23-19-7-9-26(8-6-18(19)21(28)24-22)15-16-4-5-17(29-2)14-20(16)30-3/h4-5,14H,6-13,15H2,1-3H3,(H,23,24,28)

> <InChI Key>
QFHQJTRCEBJPGL-UHFFFAOYSA-N

> <PERCENTSP3>
54.5

> <Link>
https://www.chemdiv.com/catalog/screening-compounds/compound-S039-3651/

> <MFCDNUMBER>
MFCD28999054

> <CLNUMBER>
CM2417

> <STEREO>
ACHIRAL

> <State>
Solid

> <Similarity score>
0.23

$$$$
2-(9-fluoro-6-methyl-10-oxo-3,4,5,10-tetrahydrobenzo[b][1,6]naphthyridin-2(1H)-y
  -OEChem-04222410502D

 28 31  0     0  0  0  0  0  0999 V2000
   -0.8915   -1.2143    0.0000 C   0  0  0  0  0  0  0  0  0  0  0  0
   -1.7657   -0.7129    0.0000 C   0  0  0  0  0  0  0  0  0  0  0  0
   -2.6432   -1.2143    0.0000 C   0  0  0  0  0  0  0  0  0  0  0  0
   -1.7784   -2.6964    0.0000 N   0  0  0  0  0  0  0  0  0  0  0  0
   -2.6432   -2.1919    0.0000 C   0  0  0  0  0  0  0  0  0  0  0  0
   -0.8915   -2.2109    0.0000 C   0  0  0  0  0  0  0  0  0  0  0  0
    0.8758   -1.2143    0.0000 N   0  0  0  0  0  0  0  0  0  0  0  0
    0.0077   -0.7318    0.0000 C   0  0  0  0  0  0  0  0  0  0  0  0
    1.7690    0.2461    0.0000 C   0  0  0  0  0  0  0  0  0  0  0  0
   -3.5330   -0.7318    0.0000 C   0  0  0  0  0  0  0  0  0  0  0  0
   -0.0077   -2.6964    0.0000 C   0  0  0  0  0  0  0  0  0  0  0  0
   -3.5330   -2.6964    0.0000 C   0  0  0  0  0  0  0  0  0  0  0  0
    2.6682    0.7316    0.0000 N   0  0  0  0  0  0  0  0  0  0  0  0
   -1.7657    0.2617    0.0000 O   0  0  0  0  0  0  0  0  0  0  0  0
    1.7690   -0.7318    0.0000 C   0  0  0  0  0  0  0  0  0  0  0  0
    2.6682    1.7094    0.0000 C   0  0  0  0  0  0  0  0  0  0  0  0
    0.8758    0.7316    0.0000 O   0  0  0  0  0  0  0  0  0  0  0  0
    3.5457    2.1919    0.0000 C   0  0  0  0  0  0  0  0  0  0  0  0
    0.8758   -2.2109    0.0000 C   0  0  0  0  0  0  0  0  0  0  0  0
   -4.4012   -1.2143    0.0000 C   0  0  0  0  0  0  0  0  0  0  0  0
   -4.4012   -2.1919    0.0000 C   0  0  0  0  0  0  0  0  0  0  0  0
    3.5457    3.1792    0.0000 C   0  0  0  0  0  0  0  0  0  0  0  0
   -3.5330    0.2617    0.0000 F   0  0  0  0  0  0  0  0  0  0  0  0
    4.4012    3.6867    0.0000 F   0  0  0  0  0  0  0  0  0  0  0  0
    1.7784    3.1792    0.0000 C   0  0  0  0  0  0  0  0  0  0  0  0
    1.7784    2.1919    0.0000 C   0  0  0  0  0  0  0  0  0  0  0  0
   -3.5330   -3.6867    0.0000 C   0  0  0  0  0  0  0  0  0  0  0  0
    2.6682    3.6553    0.0000 C   0  0  0  0  0  0  0  0  0  0  0  0
  1  2  1  0  0  0  0
  2  3  1  0  0  0  0
  3  5  1  0  0  0  0
  4  6  1  0  0  0  0
  4  5  1  0  0  0  0
  1  6  2  0  0  0  0
  7  8  1  0  0  0  0
  1  8  1  0  0  0  0
  9 15  1  0  0  0  0
  3 10  2  0  0  0  0
  6 11  1  0  0  0  0
 11 19  1  0  0  0  0
  5 12  2  0  0  0  0
  9 13  1  0  0  0  0
  2 14  2  0  0  0  0
  7 15  1  0  0  0  0
 13 16  1  0  0  0  0
  9 17  2  0  0  0  0
 16 18  1  0  0  0  0
  7 19  1  0  0  0  0
 10 20  1  0  0  0  0
 20 21  2  0  0  0  0
 12 21  1  0  0  0  0
 18 22  2  0  0  0  0
 22 28  1  0  0  0  0
 10 23  1  0  0  0  0
 22 24  1  0  0  0  0
 25 26  1  0  0  0  0
 16 26  2  0  0  0  0
 12 27  1  0  0  0  0
 25 28  2  0  0  0  0
M  END
> <IDNUMBER>
L489-1907

> <available>
51

> <H_acceptor>
5

> <H_donor>
2

> <B_rotN>
4

> <N_O>
5

> <logP>
3.7526

> <logD>
2.8556

> <logSw>
-4.0472

> <PSA>
48.811

> <pKa_ma>
6.5619

> <pKa_mb>
1.2894

> <N_Chirals>
0

> <Name>
2-(9-fluoro-6-methyl-10-oxo-3,4,5,10-tetrahydrobenzo[b][1,6]naphthyridin-2(1H)-yl)-N-(3-fluorophenyl)acetamide

> <Smile>
Cc(ccc(F)c12)c2NC(CCN(CC(Nc2cc(F)ccc2)=O)C2)=C2C1=O

> <Color>
YELLOW

> <Collection>
NC

> <InChI>
InChI=1S/C21H19F2N3O2/c1-12-5-6-16(23)19-20(12)25-17-7-8-26(10-15(17)21(19)28)11-18(27)24-14-4-2-3-13(22)9-14/h2-6,9H,7-8,10-11H2,1H3,(H,24,27)(H,25,28)

> <InChI Key>
ZLNLCZYPFALVRG-UHFFFAOYSA-N

> <PERCENTSP3>
23.8

> <Link>
https://www.chemdiv.com/catalog/screening-compounds/compound-L489-1907/

> <MFCDNUMBER>
MFCD27457673

> <CLNUMBER>
CL8213A

> <STEREO>
ACHIRAL

> <State>
Solid

> <Similarity score>
0.23

$$$$
N-(3-chloro-4-fluorophenyl)-2-(9-fluoro-6-methyl-10-oxo-3,4,5,10-tetrahydrobenzo
  -OEChem-04222410502D

 29 32  0     0  0  0  0  0  0999 V2000
   -0.8902   -1.6955    0.0000 C   0  0  0  0  0  0  0  0  0  0  0  0
   -1.7613   -1.2036    0.0000 C   0  0  0  0  0  0  0  0  0  0  0  0
   -2.6451   -1.6955    0.0000 C   0  0  0  0  0  0  0  0  0  0  0  0
   -1.7803   -3.1781    0.0000 N   0  0  0  0  0  0  0  0  0  0  0  0
   -2.6451   -2.6735    0.0000 C   0  0  0  0  0  0  0  0  0  0  0  0
   -0.8902   -2.6922    0.0000 C   0  0  0  0  0  0  0  0  0  0  0  0
    0.8714   -1.6955    0.0000 N   0  0  0  0  0  0  0  0  0  0  0  0
   -0.0030   -1.2130    0.0000 C   0  0  0  0  0  0  0  0  0  0  0  0
    1.7646   -0.2289    0.0000 C   0  0  0  0  0  0  0  0  0  0  0  0
   -3.5386   -1.2130    0.0000 C   0  0  0  0  0  0  0  0  0  0  0  0
   -0.0157   -3.1781    0.0000 C   0  0  0  0  0  0  0  0  0  0  0  0
    3.5480    2.6955    0.0000 C   0  0  0  0  0  0  0  0  0  0  0  0
    3.5480    1.7175    0.0000 C   0  0  0  0  0  0  0  0  0  0  0  0
   -3.5386   -3.1781    0.0000 C   0  0  0  0  0  0  0  0  0  0  0  0
    2.6548    0.2506    0.0000 N   0  0  0  0  0  0  0  0  0  0  0  0
   -1.7613   -0.2162    0.0000 O   0  0  0  0  0  0  0  0  0  0  0  0
    2.6548    1.2317    0.0000 C   0  0  0  0  0  0  0  0  0  0  0  0
    2.6548    3.1844    0.0000 C   0  0  0  0  0  0  0  0  0  0  0  0
    1.7646   -1.2130    0.0000 C   0  0  0  0  0  0  0  0  0  0  0  0
    0.8714    0.2506    0.0000 O   0  0  0  0  0  0  0  0  0  0  0  0
    0.8714   -2.6922    0.0000 C   0  0  0  0  0  0  0  0  0  0  0  0
   -4.4067   -1.6955    0.0000 C   0  0  0  0  0  0  0  0  0  0  0  0
   -4.4067   -2.6735    0.0000 C   0  0  0  0  0  0  0  0  0  0  0  0
    1.7833    2.6955    0.0000 C   0  0  0  0  0  0  0  0  0  0  0  0
    4.4067    3.2064    0.0000 Cl  0  0  0  0  0  0  0  0  0  0  0  0
    1.7833    1.7175    0.0000 C   0  0  0  0  0  0  0  0  0  0  0  0
   -3.5386   -0.2162    0.0000 F   0  0  0  0  0  0  0  0  0  0  0  0
    2.6735    4.1748    0.0000 F   0  0  0  0  0  0  0  0  0  0  0  0
   -3.5386   -4.1748    0.0000 C   0  0  0  0  0  0  0  0  0  0  0  0
  1  2  1  0  0  0  0
  2  3  1  0  0  0  0
  3  5  1  0  0  0  0
  4  6  1  0  0  0  0
  4  5  1  0  0  0  0
  1  6  2  0  0  0  0
  7  8  1  0  0  0  0
  1  8  1  0  0  0  0
  9 19  1  0  0  0  0
  3 10  2  0  0  0  0
  6 11  1  0  0  0  0
 11 21  1  0  0  0  0
 12 13  2  0  0  0  0
 12 18  1  0  0  0  0
 13 17  1  0  0  0  0
  5 14  2  0  0  0  0
  9 15  1  0  0  0  0
  2 16  2  0  0  0  0
 15 17  1  0  0  0  0
 18 24  2  0  0  0  0
  7 19  1  0  0  0  0
  9 20  2  0  0  0  0
  7 21  1  0  0  0  0
 10 22  1  0  0  0  0
 22 23  2  0  0  0  0
 14 23  1  0  0  0  0
 24 26  1  0  0  0  0
 12 25  1  0  0  0  0
 17 26  2  0  0  0  0
 10 27  1  0  0  0  0
 18 28  1  0  0  0  0
 14 29  1  0  0  0  0
M  END
> <IDNUMBER>
L489-1897

> <available>
103

> <H_acceptor>
5

> <H_donor>
2

> <B_rotN>
4

> <N_O>
5

> <logP>
4.3294

> <logD>
3.4324

> <logSw>
-4.7301

> <PSA>
48.811

> <pKa_ma>
6.5619

> <pKa_mb>
1.2894

> <N_Chirals>
0

> <Name>
N-(3-chloro-4-fluorophenyl)-2-(9-fluoro-6-methyl-10-oxo-3,4,5,10-tetrahydrobenzo[b][1,6]naphthyridin-2(1H)-yl)acetamide

> <Smile>
Cc(c(NC1=C2CN(CC(Nc(cc3)cc(Cl)c3F)=O)CC1)c1C2=O)ccc1F

> <Color>
YELLOW

> <Collection>
NC

> <InChI>
InChI=1S/C21H18ClF2N3O2/c1-11-2-4-16(24)19-20(11)26-17-6-7-27(9-13(17)21(19)29)10-18(28)25-12-3-5-15(23)14(22)8-12/h2-5,8H,6-7,9-10H2,1H3,(H,25,28)(H,26,29)

> <InChI Key>
PLDSAXHUDBIULF-UHFFFAOYSA-N

> <PERCENTSP3>
23.8

> <Link>
https://www.chemdiv.com/catalog/screening-compounds/compound-L489-1897/

> <MFCDNUMBER>
MFCD27457663

> <CLNUMBER>
CL8213A

> <STEREO>
ACHIRAL

> <State>
Solid

> <Similarity score>
0.23

$$$$
N-(4-{2,5-dioxo-3-[8-(trifluoromethoxy)-1,3,4,5-tetrahydro-2H-pyrido[4,3-b]indol
  -OEChem-04222410502D

 35 39  0     0  0  0  0  0  0999 V2000
    0.8710   -0.2938    0.0000 N   0  0  0  0  0  0  0  0  0  0  0  0
    0.2375   -1.0607    0.0000 C   0  0  0  0  0  0  0  0  0  0  0  0
   -3.2798   -1.1897    0.0000 C   0  0  0  0  0  0  0  0  0  0  0  0
    0.3293    0.5480    0.0000 C   0  0  0  0  0  0  0  0  0  0  0  0
   -0.7001   -0.6895    0.0000 C   0  0  3  0  0  0  0  0  0  0  0  0
   -3.2798   -2.1858    0.0000 C   0  0  0  0  0  0  0  0  0  0  0  0
   -1.5586   -1.1897    0.0000 N   0  0  3  0  0  0  0  0  0  0  0  0
   -0.6376    0.2979    0.0000 C   0  0  0  0  0  0  0  0  0  0  0  0
   -4.2341   -2.4943    0.0000 N   0  0  0  0  0  0  0  0  0  0  0  0
   -4.2341   -0.8853    0.0000 C   0  0  0  0  0  0  0  0  0  0  0  0
   -2.4211   -0.6895    0.0000 C   0  0  0  0  0  0  0  0  0  0  0  0
   -4.8092   -1.6940    0.0000 C   0  0  0  0  0  0  0  0  0  0  0  0
   -5.4593    1.8692    0.0000 C   0  0  0  0  0  0  0  0  0  0  0  0
    1.8627   -0.3896    0.0000 C   0  0  0  0  0  0  0  0  0  0  0  0
   -2.4211   -2.6818    0.0000 C   0  0  0  0  0  0  0  0  0  0  0  0
    0.4918   -2.0274    0.0000 O   0  0  0  0  0  0  0  0  0  0  0  0
   -1.5586   -2.1858    0.0000 C   0  0  0  0  0  0  0  0  0  0  0  0
    0.6919    1.4900    0.0000 O   0  0  0  0  0  0  0  0  0  0  0  0
   -4.6383    0.0355    0.0000 C   0  0  0  0  0  0  0  0  0  0  0  0
    5.2758   -1.5899    0.0000 C   0  0  0  0  0  0  0  0  0  0  0  0
   -6.0469    1.0523    0.0000 O   0  0  0  0  0  0  0  0  0  0  0  0
    4.8509   -0.6854    0.0000 N   0  0  0  0  0  0  0  0  0  0  0  0
   -5.6384    0.1311    0.0000 C   0  0  0  0  0  0  0  0  0  0  0  0
   -5.8093   -1.5940    0.0000 C   0  0  0  0  0  0  0  0  0  0  0  0
    4.7008   -2.4068    0.0000 O   0  0  0  0  0  0  0  0  0  0  0  0
    2.2753   -1.3106    0.0000 C   0  0  0  0  0  0  0  0  0  0  0  0
    2.4421    0.4188    0.0000 C   0  0  0  0  0  0  0  0  0  0  0  0
   -4.8717    2.6818    0.0000 F   0  0  0  0  0  0  0  0  0  0  0  0
   -4.6467    1.2773    0.0000 F   0  0  0  0  0  0  0  0  0  0  0  0
   -6.2719    2.4568    0.0000 F   0  0  0  0  0  0  0  0  0  0  0  0
    3.8549   -0.5939    0.0000 C   0  0  0  0  0  0  0  0  0  0  0  0
   -6.2219   -0.6854    0.0000 C   0  0  0  0  0  0  0  0  0  0  0  0
    3.4382    0.3228    0.0000 C   0  0  0  0  0  0  0  0  0  0  0  0
    3.2714   -1.4106    0.0000 C   0  0  0  0  0  0  0  0  0  0  0  0
    6.2719   -1.6816    0.0000 C   0  0  0  0  0  0  0  0  0  0  0  0
  1  2  1  0  0  0  0
  3 11  1  0  0  0  0
  1  4  1  0  0  0  0
  2  5  1  0  0  0  0
  5  8  1  0  0  0  0
  6 15  1  0  0  0  0
  3  6  2  0  0  0  0
  5  7  1  0  0  0  0
  4  8  1  0  0  0  0
  6  9  1  0  0  0  0
  9 12  1  0  0  0  0
  3 10  1  0  0  0  0
  7 11  1  0  0  0  0
 10 12  2  0  0  0  0
 13 21  1  0  0  0  0
  1 14  1  0  0  0  0
 15 17  1  0  0  0  0
  2 16  2  0  0  0  0
  7 17  1  0  0  0  0
  4 18  2  0  0  0  0
 10 19  1  0  0  0  0
 20 22  1  0  0  0  0
 21 23  1  0  0  0  0
 22 31  1  0  0  0  0
 19 23  2  0  0  0  0
 12 24  1  0  0  0  0
 24 32  2  0  0  0  0
 20 25  2  0  0  0  0
 14 26  1  0  0  0  0
 14 27  2  0  0  0  0
 13 28  1  0  0  0  0
 13 29  1  0  0  0  0
 13 30  1  0  0  0  0
 31 33  2  0  0  0  0
 31 34  1  0  0  0  0
 23 32  1  0  0  0  0
 27 33  1  0  0  0  0
 26 34  2  0  0  0  0
 20 35  1  0  0  0  0
M  END
> <IDNUMBER>
IB07-8274

> <available>
50

> <H_acceptor>
8

> <H_donor>
2

> <B_rotN>
6

> <N_O>
8

> <logP>
2.21

> <logD>
2.21

> <logSw>
-3.02

> <PSA>
148.6

> <pKa_ma>
12.73

> <pKa_mb>
4.05

> <N_Chirals>
1

> <Name>
N-(4-{2,5-dioxo-3-[8-(trifluoromethoxy)-1,3,4,5-tetrahydro-2H-pyrido[4,3-b]indol-2-yl]pyrrolidin-1-yl}phenyl)acetamide

> <Smile>
CC(Nc(cc1)ccc1N(C(CC1N(CC2)Cc3c2[nH]c(cc2)c3cc2OC(F)(F)F)=O)C1=O)=O

> <Color>
NOT COLORED

> <Collection>
DC

> <InChI>
InChI=1S/C24H21F3N4O4/c1-13(32)28-14-2-4-15(5-3-14)31-22(33)11-21(23(31)34)30-9-8-20-18(12-30)17-10-16(35-24(25,26)27)6-7-19(17)29-20/h2-7,10,21,29H,8-9,11-12H2,1H3,(H,28,32)/t21-/m0/s1

> <InChI Key>
WTIQMIRHJQIOAJ-NRFANRHFSA-N

> <PERCENTSP3>
29.2

> <Link>
https://www.chemdiv.com/catalog/screening-compounds/compound-IB07-8274/

> <STEREO>
RACEMIC MIXTURE

> <State>
Solid

> <Similarity score>
0.23

$$$$
5-[(2,4-difluorophenyl)methyl]-2-[2-(3,4-dihydroisoquinolin-2(1H)-yl)ethyl]tetra
  -OEChem-04222410502D

 31 35  0     0  0  0  0  0  0999 V2000
    0.3959    1.2711    0.0000 N   0  0  0  0  0  0  0  0  0  0  0  0
    1.9839    0.9335    0.0000 C   0  0  1  0  0  0  0  0  0  0  0  0
    1.4836    0.0708    0.0000 C   0  0  2  0  0  0  0  0  0  0  0  0
    1.3170    1.6836    0.0000 C   0  0  0  0  0  0  0  0  0  0  0  0
    0.5041    0.2749    0.0000 C   0  0  0  0  0  0  0  0  0  0  0  0
    3.0674   -0.2668    0.0000 N   0  0  0  0  0  0  0  0  0  0  0  0
    2.1546   -0.6752    0.0000 C   0  0  0  0  0  0  0  0  0  0  0  0
    2.9591    0.7251    0.0000 C   0  0  0  0  0  0  0  0  0  0  0  0
    3.9344   -1.7671    0.0000 C   0  0  0  0  0  0  0  0  0  0  0  0
   -0.4668    1.7712    0.0000 C   0  0  0  0  0  0  0  0  0  0  0  0
   -1.3295    3.2716    0.0000 N   0  0  0  0  0  0  0  0  0  0  0  0
    3.0674   -2.2672    0.0000 C   0  0  0  0  0  0  0  0  0  0  0  0
    3.9344   -0.7668    0.0000 C   0  0  0  0  0  0  0  0  0  0  0  0
    3.0674   -3.2676    0.0000 C   0  0  0  0  0  0  0  0  0  0  0  0
    1.5211    2.6589    0.0000 O   0  0  0  0  0  0  0  0  0  0  0  0
   -0.2418   -0.3917    0.0000 O   0  0  0  0  0  0  0  0  0  0  0  0
   -3.0674    3.2716    0.0000 C   0  0  0  0  0  0  0  0  0  0  0  0
   -2.1965    2.7715    0.0000 C   0  0  0  0  0  0  0  0  0  0  0  0
   -3.0674    4.2678    0.0000 C   0  0  0  0  0  0  0  0  0  0  0  0
    4.7971   -2.2672    0.0000 C   0  0  0  0  0  0  0  0  0  0  0  0
   -0.4668    2.7715    0.0000 C   0  0  0  0  0  0  0  0  0  0  0  0
   -2.1965    4.7679    0.0000 C   0  0  0  0  0  0  0  0  0  0  0  0
    3.9344   -3.7677    0.0000 C   0  0  0  0  0  0  0  0  0  0  0  0
   -1.3295    4.2678    0.0000 C   0  0  0  0  0  0  0  0  0  0  0  0
    2.1963   -1.7671    0.0000 F   0  0  0  0  0  0  0  0  0  0  0  0
    4.7971   -3.2676    0.0000 C   0  0  0  0  0  0  0  0  0  0  0  0
    3.9344   -4.7679    0.0000 F   0  0  0  0  0  0  0  0  0  0  0  0
   -3.9302    2.7715    0.0000 C   0  0  0  0  0  0  0  0  0  0  0  0
   -3.9302    4.7679    0.0000 C   0  0  0  0  0  0  0  0  0  0  0  0
   -4.7971    3.2716    0.0000 C   0  0  0  0  0  0  0  0  0  0  0  0
   -4.7971    4.2678    0.0000 C   0  0  0  0  0  0  0  0  0  0  0  0
  2  4  1  0  0  0  0
  2  8  1  1  0  0  0
  2  3  1  0  0  0  0
  3  5  1  0  0  0  0
  3  7  1  1  0  0  0
  1  4  1  0  0  0  0
  1  5  1  0  0  0  0
  6  7  1  0  0  0  0
  6  8  1  0  0  0  0
  9 13  1  0  0  0  0
  1 10  1  0  0  0  0
 11 21  1  0  0  0  0
  9 12  2  0  0  0  0
  6 13  1  0  0  0  0
 12 14  1  0  0  0  0
 14 23  2  0  0  0  0
  4 15  2  0  0  0  0
  5 16  2  0  0  0  0
 17 18  1  0  0  0  0
 17 19  2  0  0  0  0
 11 18  1  0  0  0  0
 19 22  1  0  0  0  0
  9 20  1  0  0  0  0
 10 21  1  0  0  0  0
 22 24  1  0  0  0  0
 23 26  1  0  0  0  0
 11 24  1  0  0  0  0
 12 25  1  0  0  0  0
 20 26  2  0  0  0  0
 23 27  1  0  0  0  0
 17 28  1  0  0  0  0
 19 29  1  0  0  0  0
 28 30  2  0  0  0  0
 29 31  2  0  0  0  0
 30 31  1  0  0  0  0
M  END
> <IDNUMBER>
S296-2536

> <available>
15

> <H_acceptor>
6

> <H_donor>
0

> <B_rotN>
5

> <N_O>
5

> <logP>
2.6041

> <logD>
1.956

> <logSw>
-2.8415

> <PSA>
37.079

> <pKa_ma>
18.9296

> <pKa_mb>
7.9375

> <N_Chirals>
0

> <Name>
5-[(2,4-difluorophenyl)methyl]-2-[2-(3,4-dihydroisoquinolin-2(1H)-yl)ethyl]tetrahydropyrrolo[3,4-c]pyrrole-1,3(2H,3aH)-dione

> <Smile>
O=C([C@H]1[C@@H]2CN(Cc(ccc(F)c3)c3F)C1)N(CCN(CC1)Cc3c1cccc3)C2=O

> <Color>
NOT COLORED

> <Collection>
IC

> <InChI>
InChI=1S/C24H25F2N3O2/c25-19-6-5-18(22(26)11-19)13-28-14-20-21(15-28)24(31)29(23(20)30)10-9-27-8-7-16-3-1-2-4-17(16)12-27/h1-6,11,20-21H,7-10,12-15H2/t20-,21+

> <InChI Key>
KTNNDSLMMJTHTF-OYRHEFFESA-N

> <PERCENTSP3>
41.7

> <Link>
https://www.chemdiv.com/catalog/screening-compounds/compound-S296-2536/

> <CLNUMBER>
CM2464

> <STEREO>
ACHIRAL

> <State>
Solid

> <Similarity score>
0.23

$$$$
N-{4-[3-(6-chloro-1,3,4,9-tetrahydro-2H-pyrido[3,4-b]indol-2-yl)-2,5-dioxopyrrol
  -OEChem-04222410502D

 31 35  0     0  0  0  0  0  0999 V2000
    1.6799   -0.1209    0.0000 N   0  0  0  0  0  0  0  0  0  0  0  0
    0.7044    0.0916    0.0000 C   0  0  0  0  0  0  0  0  0  0  0  0
    1.7881   -1.1213    0.0000 C   0  0  0  0  0  0  0  0  0  0  0  0
   -2.1842   -1.9173    0.0000 C   0  0  0  0  0  0  0  0  0  0  0  0
    0.2042   -0.7837    0.0000 C   0  0  3  0  0  0  0  0  0  0  0  0
   -2.7760   -1.1047    0.0000 C   0  0  0  0  0  0  0  0  0  0  0  0
    0.8753   -1.5214    0.0000 C   0  0  0  0  0  0  0  0  0  0  0  0
   -0.7835   -0.8920    0.0000 N   0  0  3  0  0  0  0  0  0  0  0  0
   -2.7760   -2.7345    0.0000 N   0  0  0  0  0  0  0  0  0  0  0  0
   -3.7347   -1.4215    0.0000 C   0  0  0  0  0  0  0  0  0  0  0  0
   -3.7347   -2.4219    0.0000 C   0  0  0  0  0  0  0  0  0  0  0  0
   -1.1838   -1.8091    0.0000 C   0  0  0  0  0  0  0  0  0  0  0  0
    2.4260    0.5461    0.0000 C   0  0  0  0  0  0  0  0  0  0  0  0
   -2.3718   -0.1710    0.0000 C   0  0  0  0  0  0  0  0  0  0  0  0
    0.3002    0.9921    0.0000 O   0  0  0  0  0  0  0  0  0  0  0  0
   -1.3755   -0.0708    0.0000 C   0  0  0  0  0  0  0  0  0  0  0  0
    2.6551   -1.6090    0.0000 O   0  0  0  0  0  0  0  0  0  0  0  0
    5.5897    2.2426    0.0000 C   0  0  0  0  0  0  0  0  0  0  0  0
   -4.6142   -0.9337    0.0000 C   0  0  0  0  0  0  0  0  0  0  0  0
    4.6393    2.5552    0.0000 N   0  0  0  0  0  0  0  0  0  0  0  0
   -4.6142   -2.9094    0.0000 C   0  0  0  0  0  0  0  0  0  0  0  0
    5.8022    1.2671    0.0000 O   0  0  0  0  0  0  0  0  0  0  0  0
    2.2133    1.5089    0.0000 C   0  0  0  0  0  0  0  0  0  0  0  0
    3.3680    0.2335    0.0000 C   0  0  0  0  0  0  0  0  0  0  0  0
    3.8932    1.8882    0.0000 C   0  0  0  0  0  0  0  0  0  0  0  0
   -5.4688   -1.4298    0.0000 C   0  0  0  0  0  0  0  0  0  0  0  0
   -5.4688   -2.4219    0.0000 C   0  0  0  0  0  0  0  0  0  0  0  0
    4.1059    0.9088    0.0000 C   0  0  0  0  0  0  0  0  0  0  0  0
    2.9428    2.1925    0.0000 C   0  0  0  0  0  0  0  0  0  0  0  0
   -6.3316   -0.9337    0.0000 Cl  0  0  0  0  0  0  0  0  0  0  0  0
    6.3316    2.9094    0.0000 C   0  0  0  0  0  0  0  0  0  0  0  0
  1  2  1  0  0  0  0
  1  3  1  0  0  0  0
  4 12  1  0  0  0  0
  4  6  2  0  0  0  0
  2  5  1  0  0  0  0
  6 14  1  0  0  0  0
  3  7  1  0  0  0  0
  5  7  1  0  0  0  0
  5  8  1  0  0  0  0
  4  9  1  0  0  0  0
  6 10  1  0  0  0  0
  9 11  1  0  0  0  0
 10 11  1  0  0  0  0
  8 12  1  0  0  0  0
  1 13  1  0  0  0  0
 14 16  1  0  0  0  0
  2 15  2  0  0  0  0
  8 16  1  0  0  0  0
  3 17  2  0  0  0  0
 18 20  1  0  0  0  0
 10 19  2  0  0  0  0
 20 25  1  0  0  0  0
 11 21  2  0  0  0  0
 18 22  2  0  0  0  0
 13 23  1  0  0  0  0
 13 24  2  0  0  0  0
 25 28  2  0  0  0  0
 25 29  1  0  0  0  0
 19 26  1  0  0  0  0
 21 27  1  0  0  0  0
 26 27  2  0  0  0  0
 24 28  1  0  0  0  0
 23 29  2  0  0  0  0
 26 30  1  0  0  0  0
 18 31  1  0  0  0  0
M  END
> <IDNUMBER>
Y021-7844

> <available>
17

> <H_acceptor>
7

> <H_donor>
2

> <B_rotN>
4

> <N_O>
7

> <logP>
1.552

> <logD>
1.552

> <logSw>
-2.753

> <PSA>
65.76

> <pKa_ma>
12.73

> <pKa_mb>
2.076

> <N_Chirals>
1

> <Name>
N-{4-[3-(6-chloro-1,3,4,9-tetrahydro-2H-pyrido[3,4-b]indol-2-yl)-2,5-dioxopyrrolidin-1-yl]phenyl}acetamide

> <Smile>
N1(C(C(CC1=O)N1Cc2c(c3c([nH]2)ccc(c3)Cl)CC1)=O)c1ccc(NC(=O)C)cc1

> <Color>
ORANGE

> <Collection>
DC

> <InChI>
InChI=1S/C23H21ClN4O3/c1-13(29)25-15-3-5-16(6-4-15)28-22(30)11-21(23(28)31)27-9-8-17-18-10-14(24)2-7-19(18)26-20(17)12-27/h2-7,10,21,26H,8-9,11-12H2,1H3,(H,25,29)/t21-/m0/s1

> <InChI Key>
QXVVLHIUIKGRPY-NRFANRHFSA-N

> <PERCENTSP3>
26.1

> <Link>
https://www.chemdiv.com/catalog/screening-compounds/compound-Y021-7844/

> <MFCDNUMBER>
MFCD12216143

> <STEREO>
RACEMIC MIXTURE

> <State>
Solid

> <Similarity score>
0.23

$$$$
2-[4-(4-cyano-1-propyl-6,7-dihydro-5H-cyclopenta[c]pyridin-3-yl)piperazin-1-yl]-
  -OEChem-04222410502D

 34 38  0     0  0  0  0  0  0999 V2000
   -1.8237   -1.2630    0.0000 C   0  0  0  0  0  0  0  0  0  0  0  0
   -2.6866   -0.7628    0.0000 C   0  0  0  0  0  0  0  0  0  0  0  0
   -1.8237   -2.2635    0.0000 N   0  0  0  0  0  0  0  0  0  0  0  0
   -3.5536   -1.2630    0.0000 C   0  0  0  0  0  0  0  0  0  0  0  0
   -0.9609   -0.7628    0.0000 N   0  0  0  0  0  0  0  0  0  0  0  0
   -2.6866   -2.7637    0.0000 C   0  0  0  0  0  0  0  0  0  0  0  0
   -3.5618   -2.2635    0.0000 C   0  0  0  0  0  0  0  0  0  0  0  0
   -2.6866    0.2375    0.0000 C   0  0  0  0  0  0  0  0  0  0  0  0
    2.5074    2.2510    0.0000 N   0  0  0  0  0  0  0  0  0  0  0  0
    1.6446    1.7508    0.0000 C   0  0  0  0  0  0  0  0  0  0  0  0
    2.5074    3.2681    0.0000 C   0  0  0  0  0  0  0  0  0  0  0  0
   -2.6866    1.2380    0.0000 N   0  0  0  0  0  0  0  0  0  0  0  0
    0.7817    0.2375    0.0000 N   0  0  0  0  0  0  0  0  0  0  0  0
    3.3702    3.7640    0.0000 C   0  0  0  0  0  0  0  0  0  0  0  0
   -0.0981   -1.2630    0.0000 C   0  0  0  0  0  0  0  0  0  0  0  0
   -0.9609    0.2375    0.0000 C   0  0  0  0  0  0  0  0  0  0  0  0
    1.6446    0.7503    0.0000 C   0  0  0  0  0  0  0  0  0  0  0  0
    0.7817    2.2510    0.0000 O   0  0  0  0  0  0  0  0  0  0  0  0
    0.7817   -0.7628    0.0000 C   0  0  0  0  0  0  0  0  0  0  0  0
   -0.0981    0.7378    0.0000 C   0  0  0  0  0  0  0  0  0  0  0  0
    3.3702    4.7602    0.0000 C   0  0  0  0  0  0  0  0  0  0  0  0
   -4.4998   -0.9462    0.0000 C   0  0  0  0  0  0  0  0  0  0  0  0
   -4.5166   -2.5635    0.0000 C   0  0  0  0  0  0  0  0  0  0  0  0
    1.6446    3.7640    0.0000 C   0  0  0  0  0  0  0  0  0  0  0  0
   -2.6866   -3.7599    0.0000 C   0  0  0  0  0  0  0  0  0  0  0  0
   -5.0959   -1.7590    0.0000 C   0  0  0  0  0  0  0  0  0  0  0  0
    1.6446    4.7602    0.0000 C   0  0  0  0  0  0  0  0  0  0  0  0
    4.2330    3.2681    0.0000 C   0  0  0  0  0  0  0  0  0  0  0  0
    2.5074    5.2605    0.0000 C   0  0  0  0  0  0  0  0  0  0  0  0
    4.2330    5.2605    0.0000 C   0  0  0  0  0  0  0  0  0  0  0  0
   -3.5618   -4.2600    0.0000 C   0  0  0  0  0  0  0  0  0  0  0  0
    5.0959    3.7640    0.0000 C   0  0  0  0  0  0  0  0  0  0  0  0
   -3.5618   -5.2605    0.0000 C   0  0  0  0  0  0  0  0  0  0  0  0
    5.0959    4.7602    0.0000 C   0  0  0  0  0  0  0  0  0  0  0  0
  1  2  2  0  0  0  0
  1  3  1  0  0  0  0
  2  4  1  0  0  0  0
  1  5  1  0  0  0  0
  3  6  2  0  0  0  0
  6  7  1  0  0  0  0
  4  7  2  0  0  0  0
  2  8  1  0  0  0  0
  9 10  1  0  0  0  0
 10 17  1  0  0  0  0
  9 11  1  0  0  0  0
  8 12  3  0  0  0  0
 13 20  1  0  0  0  0
 11 14  2  0  0  0  0
  5 15  1  0  0  0  0
  5 16  1  0  0  0  0
 13 17  1  0  0  0  0
 10 18  2  0  0  0  0
 15 19  1  0  0  0  0
 13 19  1  0  0  0  0
 16 20  1  0  0  0  0
 14 21  1  0  0  0  0
 21 29  2  0  0  0  0
  4 22  1  0  0  0  0
  7 23  1  0  0  0  0
 11 24  1  0  0  0  0
  6 25  1  0  0  0  0
 22 26  1  0  0  0  0
 23 26  1  0  0  0  0
 24 27  2  0  0  0  0
 14 28  1  0  0  0  0
 27 29  1  0  0  0  0
 21 30  1  0  0  0  0
 25 31  1  0  0  0  0
 28 32  2  0  0  0  0
 31 33  1  0  0  0  0
 32 34  1  0  0  0  0
 30 34  2  0  0  0  0
M  END
> <IDNUMBER>
IB03-5462

> <available>
50

> <H_acceptor>
5

> <H_donor>
1

> <B_rotN>
8

> <N_O>
6

> <logP>
5.47

> <logD>
5.41

> <logSw>
-6.16

> <PSA>
90.12

> <pKa_ma>
11.87

> <pKa_mb>
6.57

> <N_Chirals>
0

> <Name>
2-[4-(4-cyano-1-propyl-6,7-dihydro-5H-cyclopenta[c]pyridin-3-yl)piperazin-1-yl]-N-(naphthalen-1-yl)acetamide

> <Smile>
CCCc(nc1N2CCN(CC(Nc3cccc4ccccc34)=O)CC2)c(CCC2)c2c1C#N

> <Color>
NOT COLORED

> <Collection>
DC

> <InChI>
InChI=1S/C28H31N5O/c1-2-7-25-23-12-6-11-22(23)24(18-29)28(31-25)33-16-14-32(15-17-33)19-27(34)30-26-13-5-9-20-8-3-4-10-21(20)26/h3-5,8-10,13H,2,6-7,11-12,14-17,19H2,1H3,(H,30,34)

> <InChI Key>
BECRNERIIXOMQG-UHFFFAOYSA-N

> <PERCENTSP3>
39.3

> <Link>
https://www.chemdiv.com/catalog/screening-compounds/compound-IB03-5462/

> <STEREO>
ACHIRAL

> <State>
Solid

> <Similarity score>
0.23

$$$$
3-(6-fluoro-1,3,4,5-tetrahydro-2H-pyrido[4,3-b]indol-2-yl)-1-(4-methoxyphenyl)py
  -OEChem-04222410502D

 29 33  0     0  0  0  0  0  0999 V2000
    1.4309    0.3061    0.0000 N   0  0  0  0  0  0  0  0  0  0  0  0
    0.7976   -0.4647    0.0000 C   0  0  0  0  0  0  0  0  0  0  0  0
   -2.7222   -0.5937    0.0000 C   0  0  0  0  0  0  0  0  0  0  0  0
    0.8894    1.1519    0.0000 C   0  0  0  0  0  0  0  0  0  0  0  0
   -3.6719   -1.8974    0.0000 N   0  0  0  0  0  0  0  0  0  0  0  0
   -0.1396   -0.0938    0.0000 C   0  0  3  0  0  0  0  0  0  0  0  0
   -2.7222   -1.5934    0.0000 C   0  0  0  0  0  0  0  0  0  0  0  0
   -0.9978   -0.5937    0.0000 N   0  0  3  0  0  0  0  0  0  0  0  0
   -0.0772    0.8978    0.0000 C   0  0  0  0  0  0  0  0  0  0  0  0
   -4.2510   -1.0977    0.0000 C   0  0  0  0  0  0  0  0  0  0  0  0
   -3.6719   -0.2811    0.0000 C   0  0  0  0  0  0  0  0  0  0  0  0
   -1.8600   -0.0938    0.0000 C   0  0  0  0  0  0  0  0  0  0  0  0
    2.4264    0.2062    0.0000 C   0  0  0  0  0  0  0  0  0  0  0  0
   -1.8600   -2.0891    0.0000 C   0  0  0  0  0  0  0  0  0  0  0  0
    1.0561   -1.4309    0.0000 O   0  0  0  0  0  0  0  0  0  0  0  0
   -0.9978   -1.5934    0.0000 C   0  0  0  0  0  0  0  0  0  0  0  0
    1.2517    2.0891    0.0000 O   0  0  0  0  0  0  0  0  0  0  0  0
   -5.2508   -0.9936    0.0000 C   0  0  0  0  0  0  0  0  0  0  0  0
    2.8387   -0.7062    0.0000 C   0  0  0  0  0  0  0  0  0  0  0  0
    3.0055    1.0186    0.0000 C   0  0  0  0  0  0  0  0  0  0  0  0
   -5.8380   -1.8100    0.0000 F   0  0  0  0  0  0  0  0  0  0  0  0
    4.4176    0.0060    0.0000 C   0  0  0  0  0  0  0  0  0  0  0  0
   -4.0802    0.6311    0.0000 C   0  0  0  0  0  0  0  0  0  0  0  0
    4.0009    0.9186    0.0000 C   0  0  0  0  0  0  0  0  0  0  0  0
    3.8343   -0.8102    0.0000 C   0  0  0  0  0  0  0  0  0  0  0  0
    5.4173   -0.0854    0.0000 O   0  0  0  0  0  0  0  0  0  0  0  0
   -5.0800    0.7310    0.0000 C   0  0  0  0  0  0  0  0  0  0  0  0
   -5.6673   -0.0854    0.0000 C   0  0  0  0  0  0  0  0  0  0  0  0
    5.8380   -0.9936    0.0000 C   0  0  0  0  0  0  0  0  0  0  0  0
  1  2  1  0  0  0  0
  3 12  1  0  0  0  0
  1  4  1  0  0  0  0
  5  7  1  0  0  0  0
  5 10  1  0  0  0  0
  2  6  1  0  0  0  0
  6  9  1  0  0  0  0
  7 14  1  0  0  0  0
  3  7  2  0  0  0  0
  6  8  1  0  0  0  0
  4  9  1  0  0  0  0
 10 11  2  0  0  0  0
  3 11  1  0  0  0  0
  8 12  1  0  0  0  0
  1 13  1  0  0  0  0
 14 16  1  0  0  0  0
  2 15  2  0  0  0  0
  8 16  1  0  0  0  0
  4 17  2  0  0  0  0
 10 18  1  0  0  0  0
 18 28  2  0  0  0  0
 13 19  2  0  0  0  0
 13 20  1  0  0  0  0
 18 21  1  0  0  0  0
 22 24  1  0  0  0  0
 22 25  2  0  0  0  0
 11 23  1  0  0  0  0
 20 24  2  0  0  0  0
 19 25  1  0  0  0  0
 22 26  1  0  0  0  0
 23 27  2  0  0  0  0
 27 28  1  0  0  0  0
 26 29  1  0  0  0  0
M  END
> <IDNUMBER>
IB04-1383

> <available>
50

> <H_acceptor>
6

> <H_donor>
1

> <B_rotN>
3

> <N_O>
6

> <logP>
2.11

> <logD>
2.11

> <logSw>
-3.01

> <PSA>
102.16

> <pKa_ma>
14

> <pKa_mb>
3.72

> <N_Chirals>
1

> <Name>
3-(6-fluoro-1,3,4,5-tetrahydro-2H-pyrido[4,3-b]indol-2-yl)-1-(4-methoxyphenyl)pyrrolidine-2,5-dione

> <Smile>
COc(cc1)ccc1N(C(CC1N(CC2)Cc(c3ccc4)c2[nH]c3c4F)=O)C1=O

> <Color>
NOT COLORED

> <Collection>
DC

> <InChI>
InChI=1S/C22H20FN3O3/c1-29-14-7-5-13(6-8-14)26-20(27)11-19(22(26)28)25-10-9-18-16(12-25)15-3-2-4-17(23)21(15)24-18/h2-8,19,24H,9-12H2,1H3/t19-/m0/s1

> <InChI Key>
WIMFBTHODGJQIA-IBGZPJMESA-N

> <PERCENTSP3>
27.3

> <Link>
https://www.chemdiv.com/catalog/screening-compounds/compound-IB04-1383/

> <STEREO>
RACEMIC MIXTURE

> <State>
Solid

> <Similarity score>
0.23

$$$$
N-(3-fluoro-4-methoxyphenyl)-2-(4-fluorophenyl)-4-oxo-4,5,6,7,8,9-hexahydro-3H-c
  -OEChem-04222410502D

 31 34  0     0  0  0  0  0  0999 V2000
    0.0415    0.4665    0.0000 C   0  0  0  0  0  0  0  0  0  0  0  0
   -1.6914    0.4333    0.0000 N   0  0  0  0  0  0  0  0  0  0  0  0
   -0.8457    1.9540    0.0000 N   0  0  0  0  0  0  0  0  0  0  0  0
    0.0209    1.4790    0.0000 C   0  0  0  0  0  0  0  0  0  0  0  0
   -1.7165    1.4416    0.0000 C   0  0  0  0  0  0  0  0  0  0  0  0
   -0.8164   -0.0540    0.0000 C   0  0  0  0  0  0  0  0  0  0  0  0
    1.2540   -2.5453    0.0000 C   0  0  0  0  0  0  0  0  0  0  0  0
    2.2539   -2.5453    0.0000 N   0  0  0  0  0  0  0  0  0  0  0  0
    0.9832    0.1292    0.0000 C   0  0  0  0  0  0  0  0  0  0  0  0
   -2.5954    1.9164    0.0000 C   0  0  0  0  0  0  0  0  0  0  0  0
    4.2328   -0.8331    0.0000 C   0  0  0  0  0  0  0  0  0  0  0  0
    3.7454   -1.6831    0.0000 C   0  0  0  0  0  0  0  0  0  0  0  0
    2.7581   -1.6831    0.0000 C   0  0  0  0  0  0  0  0  0  0  0  0
    0.8707    2.0289    0.0000 O   0  0  0  0  0  0  0  0  0  0  0  0
    0.7540   -1.6705    0.0000 C   0  0  3  0  0  0  0  0  0  0  0  0
   -0.9289   -1.0414    0.0000 C   0  0  0  0  0  0  0  0  0  0  0  0
    3.7411    0.0209    0.0000 C   0  0  0  0  0  0  0  0  0  0  0  0
    0.7582   -3.4162    0.0000 O   0  0  0  0  0  0  0  0  0  0  0  0
    1.2957   -0.8207    0.0000 C   0  0  0  0  0  0  0  0  0  0  0  0
   -0.2289   -1.7582    0.0000 C   0  0  0  0  0  0  0  0  0  0  0  0
   -3.4537    1.4040    0.0000 C   0  0  0  0  0  0  0  0  0  0  0  0
   -2.6165    2.9288    0.0000 C   0  0  0  0  0  0  0  0  0  0  0  0
    2.7581    0.0291    0.0000 C   0  0  0  0  0  0  0  0  0  0  0  0
    5.2326   -0.8290    0.0000 F   0  0  0  0  0  0  0  0  0  0  0  0
    2.2580   -0.8290    0.0000 C   0  0  0  0  0  0  0  0  0  0  0  0
   -4.3535    2.8954    0.0000 C   0  0  0  0  0  0  0  0  0  0  0  0
   -4.3411    1.8790    0.0000 C   0  0  0  0  0  0  0  0  0  0  0  0
   -3.4911    3.4162    0.0000 C   0  0  0  0  0  0  0  0  0  0  0  0
   -5.2326    3.3786    0.0000 F   0  0  0  0  0  0  0  0  0  0  0  0
    4.2410    0.8958    0.0000 O   0  0  0  0  0  0  0  0  0  0  0  0
    5.2326    0.9083    0.0000 C   0  0  0  0  0  0  0  0  0  0  0  0
  2  6  1  0  0  0  0
  3  4  1  0  0  0  0
  1  4  1  0  0  0  0
  2  5  2  0  0  0  0
  3  5  1  0  0  0  0
  1  6  2  0  0  0  0
  7 15  1  0  0  0  0
  7  8  1  0  0  0  0
  1  9  1  0  0  0  0
  5 10  1  0  0  0  0
 11 12  1  0  0  0  0
 11 17  2  0  0  0  0
 12 13  2  0  0  0  0
  8 13  1  0  0  0  0
  4 14  2  0  0  0  0
 15 19  1  0  0  0  0
  6 16  1  0  0  0  0
 17 23  1  0  0  0  0
  7 18  2  0  0  0  0
  9 19  1  0  0  0  0
 16 20  1  0  0  0  0
 15 20  1  0  0  0  0
 10 21  1  0  0  0  0
 10 22  2  0  0  0  0
 23 25  2  0  0  0  0
 11 24  1  0  0  0  0
 13 25  1  0  0  0  0
 26 28  2  0  0  0  0
 26 27  1  0  0  0  0
 21 27  2  0  0  0  0
 22 28  1  0  0  0  0
 26 29  1  0  0  0  0
 17 30  1  0  0  0  0
 30 31  1  0  0  0  0
M  END
> <IDNUMBER>
SB25-1067

> <available>
58

> <H_acceptor>
6

> <H_donor>
2

> <B_rotN>
5

> <N_O>
6

> <logP>
3.1619

> <logD>
2.0805

> <logSw>
-3.387

> <PSA>
65.914

> <pKa_ma>
6.3562

> <pKa_mb>
2.9607

> <N_Chirals>
1

> <Name>
N-(3-fluoro-4-methoxyphenyl)-2-(4-fluorophenyl)-4-oxo-4,5,6,7,8,9-hexahydro-3H-cyclohepta[d]pyrimidine-7-carboxamide

> <Smile>
COc(ccc(NC(C(CC1)CCC(N=C(c(cc2)ccc2F)N2)=C1C2=O)=O)c1)c1F

> <Color>
NOT COLORED

> <Collection>
IC

> <InChI>
InChI=1S/C23H21F2N3O3/c1-31-20-11-8-16(12-18(20)25)26-22(29)14-4-9-17-19(10-5-14)27-21(28-23(17)30)13-2-6-15(24)7-3-13/h2-3,6-8,11-12,14H,4-5,9-10H2,1H3,(H,26,29)(H,27,28,30)/t14-/m0/s1

> <InChI Key>
XQRHYXOOSVQXKC-AWEZNQCLSA-N

> <PERCENTSP3>
26.09

> <Link>
https://www.chemdiv.com/catalog/screening-compounds/compound-SB25-1067/

> <MFCDNUMBER>
MFCD32246931

> <CLNUMBER>
CM3995

> <STEREO>
RACEMIC MIXTURE

> <State>
Solid

> <Similarity score>
0.23

$$$$
N-(2,5-dimethylphenyl)-2-(9-fluoro-6-methyl-10-oxo-3,4,5,10-tetrahydrobenzo[b][1
  -OEChem-04222410502D

 29 32  0     0  0  0  0  0  0999 V2000
   -0.8899   -1.2158    0.0000 C   0  0  0  0  0  0  0  0  0  0  0  0
   -1.7641   -0.7207    0.0000 C   0  0  0  0  0  0  0  0  0  0  0  0
   -2.6443   -1.2158    0.0000 C   0  0  0  0  0  0  0  0  0  0  0  0
   -1.7798   -2.6946    0.0000 N   0  0  0  0  0  0  0  0  0  0  0  0
   -2.6443   -2.2026    0.0000 C   0  0  0  0  0  0  0  0  0  0  0  0
   -0.8899   -2.2119    0.0000 C   0  0  0  0  0  0  0  0  0  0  0  0
    0.8805   -1.2158    0.0000 N   0  0  0  0  0  0  0  0  0  0  0  0
    0.0063   -0.7301    0.0000 C   0  0  0  0  0  0  0  0  0  0  0  0
    2.6664    1.7138    0.0000 C   0  0  0  0  0  0  0  0  0  0  0  0
    2.6664    0.7301    0.0000 N   0  0  0  0  0  0  0  0  0  0  0  0
    1.7704    0.2477    0.0000 C   0  0  0  0  0  0  0  0  0  0  0  0
   -3.5375   -0.7301    0.0000 C   0  0  0  0  0  0  0  0  0  0  0  0
   -0.0124   -2.6946    0.0000 C   0  0  0  0  0  0  0  0  0  0  0  0
   -3.5375   -2.6852    0.0000 C   0  0  0  0  0  0  0  0  0  0  0  0
   -1.7641    0.2664    0.0000 O   0  0  0  0  0  0  0  0  0  0  0  0
    1.7704   -0.7301    0.0000 C   0  0  0  0  0  0  0  0  0  0  0  0
    3.5499    2.1935    0.0000 C   0  0  0  0  0  0  0  0  0  0  0  0
    1.7798    2.1935    0.0000 C   0  0  0  0  0  0  0  0  0  0  0  0
    0.8805    0.7301    0.0000 O   0  0  0  0  0  0  0  0  0  0  0  0
    0.8805   -2.2119    0.0000 C   0  0  0  0  0  0  0  0  0  0  0  0
   -4.4054   -1.2158    0.0000 C   0  0  0  0  0  0  0  0  0  0  0  0
   -4.4054   -2.2026    0.0000 C   0  0  0  0  0  0  0  0  0  0  0  0
    3.5499    3.1709    0.0000 C   0  0  0  0  0  0  0  0  0  0  0  0
    1.7798    3.1709    0.0000 C   0  0  0  0  0  0  0  0  0  0  0  0
   -3.5375    0.2664    0.0000 F   0  0  0  0  0  0  0  0  0  0  0  0
    2.6664    3.6596    0.0000 C   0  0  0  0  0  0  0  0  0  0  0  0
   -3.5375   -3.6815    0.0000 C   0  0  0  0  0  0  0  0  0  0  0  0
    4.4054    1.7045    0.0000 C   0  0  0  0  0  0  0  0  0  0  0  0
    0.9243    3.6815    0.0000 C   0  0  0  0  0  0  0  0  0  0  0  0
  1  2  1  0  0  0  0
  2  3  1  0  0  0  0
  3  5  1  0  0  0  0
  4  6  1  0  0  0  0
  4  5  1  0  0  0  0
  1  6  2  0  0  0  0
  7  8  1  0  0  0  0
  1  8  1  0  0  0  0
  9 10  1  0  0  0  0
 10 11  1  0  0  0  0
 11 16  1  0  0  0  0
  3 12  2  0  0  0  0
  6 13  1  0  0  0  0
 13 20  1  0  0  0  0
  5 14  2  0  0  0  0
  2 15  2  0  0  0  0
  7 16  1  0  0  0  0
  9 17  1  0  0  0  0
  9 18  2  0  0  0  0
 11 19  2  0  0  0  0
  7 20  1  0  0  0  0
 12 21  1  0  0  0  0
 21 22  2  0  0  0  0
 14 22  1  0  0  0  0
 17 23  2  0  0  0  0
 23 26  1  0  0  0  0
 18 24  1  0  0  0  0
 12 25  1  0  0  0  0
 24 26  2  0  0  0  0
 14 27  1  0  0  0  0
 17 28  1  0  0  0  0
 24 29  1  0  0  0  0
M  END
> <IDNUMBER>
L489-1902

> <available>
107

> <H_acceptor>
5

> <H_donor>
2

> <B_rotN>
4

> <N_O>
5

> <logP>
3.6404

> <logD>
2.7434

> <logSw>
-4.0285

> <PSA>
48.113

> <pKa_ma>
6.5619

> <pKa_mb>
2.0062

> <N_Chirals>
0

> <Name>
N-(2,5-dimethylphenyl)-2-(9-fluoro-6-methyl-10-oxo-3,4,5,10-tetrahydrobenzo[b][1,6]naphthyridin-2(1H)-yl)acetamide

> <Smile>
Cc1cc(NC(CN(CC2)CC3=C2Nc2c(C)ccc(F)c2C3=O)=O)c(C)cc1

> <Color>
NOT COLORED

> <Collection>
NC

> <InChI>
InChI=1S/C23H24FN3O2/c1-13-4-5-14(2)19(10-13)25-20(28)12-27-9-8-18-16(11-27)23(29)21-17(24)7-6-15(3)22(21)26-18/h4-7,10H,8-9,11-12H2,1-3H3,(H,25,28)(H,26,29)

> <InChI Key>
ZQQJMXRMCSQNEN-UHFFFAOYSA-N

> <PERCENTSP3>
30.4

> <Link>
https://www.chemdiv.com/catalog/screening-compounds/compound-L489-1902/

> <MFCDNUMBER>
MFCD27457668

> <CLNUMBER>
CL8213A

> <STEREO>
ACHIRAL

> <State>
Solid

> <Similarity score>
0.23

$$$$
1-(3-chloro-4-fluorophenyl)-3-(6-methoxy-1,3,4,9-tetrahydro-2H-pyrido[3,4-b]indo
  -OEChem-04222410502D

 30 34  0     0  0  0  0  0  0999 V2000
    2.3190    0.0562    0.0000 N   0  0  0  0  0  0  0  0  0  0  0  0
    1.3440    0.2687    0.0000 C   0  0  0  0  0  0  0  0  0  0  0  0
    2.4273   -0.9271    0.0000 C   0  0  0  0  0  0  0  0  0  0  0  0
   -1.5438   -1.7355    0.0000 C   0  0  0  0  0  0  0  0  0  0  0  0
    0.8438   -0.6022    0.0000 C   0  0  3  0  0  0  0  0  0  0  0  0
   -2.1357   -0.9189    0.0000 C   0  0  0  0  0  0  0  0  0  0  0  0
    1.5147   -1.3314    0.0000 C   0  0  0  0  0  0  0  0  0  0  0  0
   -0.1397   -0.6938    0.0000 N   0  0  3  0  0  0  0  0  0  0  0  0
   -2.1357   -2.5398    0.0000 N   0  0  0  0  0  0  0  0  0  0  0  0
    3.0649    0.7273    0.0000 C   0  0  0  0  0  0  0  0  0  0  0  0
   -3.0941   -1.2396    0.0000 C   0  0  0  0  0  0  0  0  0  0  0  0
   -3.0941   -2.2439    0.0000 C   0  0  0  0  0  0  0  0  0  0  0  0
   -0.5438   -1.6273    0.0000 C   0  0  0  0  0  0  0  0  0  0  0  0
    4.0025    0.4189    0.0000 C   0  0  0  0  0  0  0  0  0  0  0  0
   -1.7357    0.0062    0.0000 C   0  0  0  0  0  0  0  0  0  0  0  0
    4.7482    1.0897    0.0000 C   0  0  0  0  0  0  0  0  0  0  0  0
    0.9395    1.1730    0.0000 O   0  0  0  0  0  0  0  0  0  0  0  0
   -0.7354    0.1148    0.0000 C   0  0  0  0  0  0  0  0  0  0  0  0
    3.2980   -1.4273    0.0000 O   0  0  0  0  0  0  0  0  0  0  0  0
   -3.9608   -0.7354    0.0000 C   0  0  0  0  0  0  0  0  0  0  0  0
    2.8524    1.7065    0.0000 C   0  0  0  0  0  0  0  0  0  0  0  0
    4.5358    2.0649    0.0000 C   0  0  0  0  0  0  0  0  0  0  0  0
   -3.9608   -2.7314    0.0000 C   0  0  0  0  0  0  0  0  0  0  0  0
    3.5816    2.3690    0.0000 C   0  0  0  0  0  0  0  0  0  0  0  0
   -4.8274   -1.2396    0.0000 C   0  0  0  0  0  0  0  0  0  0  0  0
    5.6942    0.7773    0.0000 Cl  0  0  0  0  0  0  0  0  0  0  0  0
    5.2774    2.7314    0.0000 F   0  0  0  0  0  0  0  0  0  0  0  0
   -4.8274   -2.2439    0.0000 C   0  0  0  0  0  0  0  0  0  0  0  0
   -5.6942   -0.7354    0.0000 O   0  0  0  0  0  0  0  0  0  0  0  0
   -5.6942    0.2605    0.0000 C   0  0  0  0  0  0  0  0  0  0  0  0
  1  2  1  0  0  0  0
  1  3  1  0  0  0  0
  4 13  1  0  0  0  0
  2  5  1  0  0  0  0
  5  7  1  0  0  0  0
  6 15  1  0  0  0  0
  4  6  2  0  0  0  0
  3  7  1  0  0  0  0
  5  8  1  0  0  0  0
  4  9  1  0  0  0  0
  1 10  1  0  0  0  0
  6 11  1  0  0  0  0
 11 12  1  0  0  0  0
  9 12  1  0  0  0  0
  8 13  1  0  0  0  0
 10 14  2  0  0  0  0
 15 18  1  0  0  0  0
 14 16  1  0  0  0  0
 16 22  2  0  0  0  0
  2 17  2  0  0  0  0
  8 18  1  0  0  0  0
  3 19  2  0  0  0  0
 11 20  2  0  0  0  0
 10 21  1  0  0  0  0
 22 24  1  0  0  0  0
 12 23  2  0  0  0  0
 21 24  2  0  0  0  0
 20 25  1  0  0  0  0
 25 28  2  0  0  0  0
 16 26  1  0  0  0  0
 22 27  1  0  0  0  0
 23 28  1  0  0  0  0
 25 29  1  0  0  0  0
 29 30  1  0  0  0  0
M  END
> <IDNUMBER>
Y020-3922

> <available>
14

> <H_acceptor>
6

> <H_donor>
1

> <B_rotN>
3

> <N_O>
6

> <logP>
2.2933

> <logD>
2.2933

> <logSw>
-3.3929

> <PSA>
50.043

> <pKa_ma>
15.3072

> <pKa_mb>
2.076

> <N_Chirals>
1

> <Name>
1-(3-chloro-4-fluorophenyl)-3-(6-methoxy-1,3,4,9-tetrahydro-2H-pyrido[3,4-b]indol-2-yl)pyrrolidine-2,5-dione

> <Smile>
COc(cc1)cc2c1[nH]c(C1)c2CCN1C(CC(N1c(cc2)cc(Cl)c2F)=O)C1=O

> <Color>
NOT COLORED

> <Collection>
DC

> <InChI>
InChI=1S/C22H19ClFN3O3/c1-30-13-3-5-18-15(9-13)14-6-7-26(11-19(14)25-18)20-10-21(28)27(22(20)29)12-2-4-17(24)16(23)8-12/h2-5,8-9,20,25H,6-7,10-11H2,1H3/t20-/m1/s1

> <InChI Key>
WCEUJLYEPYEUSC-HXUWFJFHSA-N

> <PERCENTSP3>
27.3

> <Link>
https://www.chemdiv.com/catalog/screening-compounds/compound-Y020-3922/

> <MFCDNUMBER>
MFCD13757799

> <CLNUMBER>
CL2165

> <STEREO>
RACEMIC MIXTURE

> <State>
Solid

> <Similarity score>
0.23

$$$$
7-[(3-bromo-4-fluorophenyl)methyl]-2-(morpholin-4-yl)-3,5,6,7,8,9-hexahydro-4H-p
  -OEChem-04222410502D

 27 30  0     0  0  0  0  0  0999 V2000
    2.6727   -0.3792    0.0000 C   0  0  0  0  0  0  0  0  0  0  0  0
    2.4596    0.5984    0.0000 N   0  0  0  0  0  0  0  0  0  0  0  0
    0.7646    0.2066    0.0000 C   0  0  0  0  0  0  0  0  0  0  0  0
    1.9396   -1.0561    0.0000 N   0  0  0  0  0  0  0  0  0  0  0  0
    1.4976    0.8929    0.0000 C   0  0  0  0  0  0  0  0  0  0  0  0
    0.9838   -0.7710    0.0000 C   0  0  0  0  0  0  0  0  0  0  0  0
    3.6347   -0.6705    0.0000 N   0  0  0  0  0  0  0  0  0  0  0  0
   -0.1348    0.6390    0.0000 C   0  0  0  0  0  0  0  0  0  0  0  0
   -1.2627   -0.7710    0.0000 N   0  0  0  0  0  0  0  0  0  0  0  0
    0.3634   -1.5449    0.0000 C   0  0  0  0  0  0  0  0  0  0  0  0
   -4.5714    0.2506    0.0000 C   0  0  0  0  0  0  0  0  0  0  0  0
    1.2752    1.8580    0.0000 O   0  0  0  0  0  0  0  0  0  0  0  0
   -4.2707    1.2030    0.0000 C   0  0  0  0  0  0  0  0  0  0  0  0
   -3.8945   -0.4827    0.0000 C   0  0  0  0  0  0  0  0  0  0  0  0
   -2.9172   -0.2569    0.0000 C   0  0  0  0  0  0  0  0  0  0  0  0
   -2.2403   -0.9903    0.0000 C   0  0  0  0  0  0  0  0  0  0  0  0
   -1.0310    0.2066    0.0000 C   0  0  0  0  0  0  0  0  0  0  0  0
   -0.6329   -1.5449    0.0000 C   0  0  0  0  0  0  0  0  0  0  0  0
    5.5428   -1.2691    0.0000 O   0  0  0  0  0  0  0  0  0  0  0  0
   -3.2931    1.4382    0.0000 C   0  0  0  0  0  0  0  0  0  0  0  0
   -5.5428    0.0282    0.0000 Br  0  0  0  0  0  0  0  0  0  0  0  0
   -2.6162    0.7048    0.0000 C   0  0  0  0  0  0  0  0  0  0  0  0
   -4.9570    1.9457    0.0000 F   0  0  0  0  0  0  0  0  0  0  0  0
    3.8602   -1.6450    0.0000 C   0  0  0  0  0  0  0  0  0  0  0  0
    4.3677    0.0061    0.0000 C   0  0  0  0  0  0  0  0  0  0  0  0
    5.3235   -0.2915    0.0000 C   0  0  0  0  0  0  0  0  0  0  0  0
    4.8098   -1.9457    0.0000 C   0  0  0  0  0  0  0  0  0  0  0  0
  1  2  1  0  0  0  0
  3  6  2  0  0  0  0
  3  5  1  0  0  0  0
  1  4  2  0  0  0  0
  2  5  1  0  0  0  0
  4  6  1  0  0  0  0
  1  7  1  0  0  0  0
  3  8  1  0  0  0  0
  9 18  1  0  0  0  0
  9 17  1  0  0  0  0
  6 10  1  0  0  0  0
 11 14  1  0  0  0  0
 11 13  2  0  0  0  0
  5 12  2  0  0  0  0
 13 20  1  0  0  0  0
 14 15  2  0  0  0  0
 15 16  1  0  0  0  0
  9 16  1  0  0  0  0
  8 17  1  0  0  0  0
 10 18  1  0  0  0  0
 19 26  1  0  0  0  0
 19 27  1  0  0  0  0
 20 22  2  0  0  0  0
 11 21  1  0  0  0  0
 15 22  1  0  0  0  0
 13 23  1  0  0  0  0
  7 24  1  0  0  0  0
  7 25  1  0  0  0  0
 25 26  1  0  0  0  0
 24 27  1  0  0  0  0
M  END
> <IDNUMBER>
S039-3136

> <available>
20

> <H_acceptor>
5

> <H_donor>
1

> <B_rotN>
3

> <N_O>
6

> <logP>
2.0685

> <logD>
1.7938

> <logSw>
-2.9586

> <PSA>
49.708

> <pKa_ma>
9.6889

> <pKa_mb>
7.3409

> <N_Chirals>
0

> <Name>
7-[(3-bromo-4-fluorophenyl)methyl]-2-(morpholin-4-yl)-3,5,6,7,8,9-hexahydro-4H-pyrimido[4,5-d]azepin-4-one

> <Smile>
O=C1NC(N2CCOCC2)=NC2=C1CCN(Cc(cc1)cc(Br)c1F)CC2

> <Color>
NOT COLORED

> <Collection>
IC

> <InChI>
InChI=1S/C19H22BrFN4O2/c20-15-11-13(1-2-16(15)21)12-24-5-3-14-17(4-6-24)22-19(23-18(14)26)25-7-9-27-10-8-25/h1-2,11H,3-10,12H2,(H,22,23,26)

> <InChI Key>
URAPPDKXMXISOQ-UHFFFAOYSA-N

> <PERCENTSP3>
47.4

> <Link>
https://www.chemdiv.com/catalog/screening-compounds/compound-S039-3136/

> <MFCDNUMBER>
MFCD28999076

> <CLNUMBER>
CM2417

> <STEREO>
ACHIRAL

> <State>
Solid

> <Similarity score>
0.23

$$$$
2-(4-methoxyphenyl)-4-(4-methylpiperazin-1-yl)-5,6,8,9-tetrahydrooxepino[4,5-d]p
  -OEChem-04222410502D

 26 29  0     0  0  0  0  0  0999 V2000
   -0.3868    1.8344    0.0000 C   0  0  0  0  0  0  0  0  0  0  0  0
   -0.4620    0.8380    0.0000 N   0  0  0  0  0  0  0  0  0  0  0  0
   -1.2046    2.3981    0.0000 C   0  0  0  0  0  0  0  0  0  0  0  0
   -1.3550    0.4087    0.0000 C   0  0  0  0  0  0  0  0  0  0  0  0
   -2.1759    0.9635    0.0000 N   0  0  0  0  0  0  0  0  0  0  0  0
    0.5217    2.2668    0.0000 N   0  0  0  0  0  0  0  0  0  0  0  0
   -2.1006    1.9597    0.0000 C   0  0  0  0  0  0  0  0  0  0  0  0
    2.3201    3.1408    0.0000 N   0  0  0  0  0  0  0  0  0  0  0  0
   -1.4302   -0.5968    0.0000 C   0  0  0  0  0  0  0  0  0  0  0  0
    0.5969    3.2723    0.0000 C   0  0  0  0  0  0  0  0  0  0  0  0
    1.3519    1.7027    0.0000 C   0  0  0  0  0  0  0  0  0  0  0  0
   -2.6082    4.1497    0.0000 O   0  0  0  0  0  0  0  0  0  0  0  0
   -2.3325   -1.0291    0.0000 C   0  0  0  0  0  0  0  0  0  0  0  0
   -0.6062   -1.1609    0.0000 C   0  0  0  0  0  0  0  0  0  0  0  0
    1.5023    3.7049    0.0000 C   0  0  0  0  0  0  0  0  0  0  0  0
    2.2448    2.1446    0.0000 C   0  0  0  0  0  0  0  0  0  0  0  0
   -3.0092    2.3981    0.0000 C   0  0  0  0  0  0  0  0  0  0  0  0
   -0.9789    3.3695    0.0000 C   0  0  0  0  0  0  0  0  0  0  0  0
   -1.5806   -2.5894    0.0000 C   0  0  0  0  0  0  0  0  0  0  0  0
   -0.6815   -2.1569    0.0000 C   0  0  0  0  0  0  0  0  0  0  0  0
   -2.4077   -2.0256    0.0000 C   0  0  0  0  0  0  0  0  0  0  0  0
   -1.6558   -3.5858    0.0000 O   0  0  0  0  0  0  0  0  0  0  0  0
    3.2286    3.5731    0.0000 C   0  0  0  0  0  0  0  0  0  0  0  0
   -3.2286    3.3695    0.0000 C   0  0  0  0  0  0  0  0  0  0  0  0
   -1.6024    4.1497    0.0000 C   0  0  0  0  0  0  0  0  0  0  0  0
   -0.8225   -4.1497    0.0000 C   0  0  0  0  0  0  0  0  0  0  0  0
  1  2  2  0  0  0  0
  1  3  1  0  0  0  0
  2  4  1  0  0  0  0
  5  7  1  0  0  0  0
  4  5  2  0  0  0  0
  1  6  1  0  0  0  0
  3  7  2  0  0  0  0
  8 16  1  0  0  0  0
  4  9  1  0  0  0  0
  6 10  1  0  0  0  0
  6 11  1  0  0  0  0
 12 25  1  0  0  0  0
  9 13  2  0  0  0  0
  9 14  1  0  0  0  0
 10 15  1  0  0  0  0
  8 15  1  0  0  0  0
 11 16  1  0  0  0  0
  7 17  1  0  0  0  0
  3 18  1  0  0  0  0
 19 20  1  0  0  0  0
 14 20  2  0  0  0  0
 13 21  1  0  0  0  0
 19 21  2  0  0  0  0
 19 22  1  0  0  0  0
  8 23  1  0  0  0  0
 17 24  1  0  0  0  0
 12 24  1  0  0  0  0
 18 25  1  0  0  0  0
 22 26  1  0  0  0  0
M  END
> <IDNUMBER>
S896-0132

> <available>
49

> <H_acceptor>
5

> <H_donor>
0

> <B_rotN>
3

> <N_O>
6

> <logP>
3.5697

> <logD>
2.3895

> <logSw>
-3.5767

> <PSA>
42.605

> <pKa_ma>
19.7965

> <pKa_mb>
8.5506

> <N_Chirals>
0

> <Name>
2-(4-methoxyphenyl)-4-(4-methylpiperazin-1-yl)-5,6,8,9-tetrahydrooxepino[4,5-d]pyrimidine

> <Smile>
CN(CC1)CCN1c1nc(-c(cc2)ccc2OC)nc2c1CCOCC2

> <Color>
ORANGE

> <Collection>
IC

> <InChI>
InChI=1S/C20H26N4O2/c1-23-9-11-24(12-10-23)20-17-7-13-26-14-8-18(17)21-19(22-20)15-3-5-16(25-2)6-4-15/h3-6H,7-14H2,1-2H3

> <InChI Key>
UKJKLUVNYHPCKS-UHFFFAOYSA-N

> <PERCENTSP3>
50

> <Link>
https://www.chemdiv.com/catalog/screening-compounds/compound-S896-0132/

> <MFCDNUMBER>
MFCD31956717

> <CLNUMBER>
CM3993

> <STEREO>
ACHIRAL

> <State>
Solid

> <Similarity score>
0.23

$$$$
N-(3,5-difluorophenyl)-2-(9-fluoro-6-methyl-10-oxo-3,4,5,10-tetrahydrobenzo[b][1
  -OEChem-04222410502D

 29 32  0     0  0  0  0  0  0999 V2000
   -0.8943   -1.2106    0.0000 C   0  0  0  0  0  0  0  0  0  0  0  0
   -1.7619   -0.7125    0.0000 C   0  0  0  0  0  0  0  0  0  0  0  0
   -2.6421   -1.2106    0.0000 C   0  0  0  0  0  0  0  0  0  0  0  0
   -1.7808   -2.6953    0.0000 N   0  0  0  0  0  0  0  0  0  0  0  0
   -2.6421   -2.1879    0.0000 C   0  0  0  0  0  0  0  0  0  0  0  0
   -0.8943   -2.2067    0.0000 C   0  0  0  0  0  0  0  0  0  0  0  0
    0.8786   -1.2106    0.0000 N   0  0  0  0  0  0  0  0  0  0  0  0
    0.0080   -0.7315    0.0000 C   0  0  0  0  0  0  0  0  0  0  0  0
    1.7652    0.2459    0.0000 C   0  0  0  0  0  0  0  0  0  0  0  0
    2.6671    1.7119    0.0000 C   0  0  0  0  0  0  0  0  0  0  0  0
   -3.5350   -0.7315    0.0000 C   0  0  0  0  0  0  0  0  0  0  0  0
   -0.0110   -2.6953    0.0000 C   0  0  0  0  0  0  0  0  0  0  0  0
    2.6671    0.7345    0.0000 N   0  0  0  0  0  0  0  0  0  0  0  0
   -3.5350   -2.6953    0.0000 C   0  0  0  0  0  0  0  0  0  0  0  0
   -1.7619    0.2646    0.0000 O   0  0  0  0  0  0  0  0  0  0  0  0
    1.7745    2.1943    0.0000 C   0  0  0  0  0  0  0  0  0  0  0  0
    3.5474    2.1943    0.0000 C   0  0  0  0  0  0  0  0  0  0  0  0
    1.7652   -0.7315    0.0000 C   0  0  0  0  0  0  0  0  0  0  0  0
    3.5474    3.1777    0.0000 C   0  0  0  0  0  0  0  0  0  0  0  0
    1.7745    3.1777    0.0000 C   0  0  0  0  0  0  0  0  0  0  0  0
    2.6671    3.6570    0.0000 C   0  0  0  0  0  0  0  0  0  0  0  0
    0.8786    0.7345    0.0000 O   0  0  0  0  0  0  0  0  0  0  0  0
    0.8786   -2.2067    0.0000 C   0  0  0  0  0  0  0  0  0  0  0  0
   -4.4026   -1.2106    0.0000 C   0  0  0  0  0  0  0  0  0  0  0  0
   -4.4026   -2.1879    0.0000 C   0  0  0  0  0  0  0  0  0  0  0  0
   -3.5350    0.2646    0.0000 F   0  0  0  0  0  0  0  0  0  0  0  0
    0.9193    3.6757    0.0000 F   0  0  0  0  0  0  0  0  0  0  0  0
    4.4026    3.6884    0.0000 F   0  0  0  0  0  0  0  0  0  0  0  0
   -3.5350   -3.6884    0.0000 C   0  0  0  0  0  0  0  0  0  0  0  0
  1  2  1  0  0  0  0
  2  3  1  0  0  0  0
  3  5  1  0  0  0  0
  4  6  1  0  0  0  0
  4  5  1  0  0  0  0
  1  6  2  0  0  0  0
  7  8  1  0  0  0  0
  1  8  1  0  0  0  0
  9 18  1  0  0  0  0
 10 13  1  0  0  0  0
  3 11  2  0  0  0  0
  6 12  1  0  0  0  0
 12 23  1  0  0  0  0
  9 13  1  0  0  0  0
  5 14  2  0  0  0  0
  2 15  2  0  0  0  0
 10 16  2  0  0  0  0
 10 17  1  0  0  0  0
  7 18  1  0  0  0  0
 17 19  2  0  0  0  0
 16 20  1  0  0  0  0
 20 21  2  0  0  0  0
 19 21  1  0  0  0  0
  9 22  2  0  0  0  0
  7 23  1  0  0  0  0
 11 24  1  0  0  0  0
 24 25  2  0  0  0  0
 14 25  1  0  0  0  0
 11 26  1  0  0  0  0
 20 27  1  0  0  0  0
 19 28  1  0  0  0  0
 14 29  1  0  0  0  0
M  END
> <IDNUMBER>
L489-1912

> <available>
81

> <H_acceptor>
5

> <H_donor>
2

> <B_rotN>
4

> <N_O>
5

> <logP>
4.0616

> <logD>
3.1646

> <logSw>
-4.1841

> <PSA>
48.811

> <pKa_ma>
6.5619

> <pKa_mb>
1.2894

> <N_Chirals>
0

> <Name>
N-(3,5-difluorophenyl)-2-(9-fluoro-6-methyl-10-oxo-3,4,5,10-tetrahydrobenzo[b][1,6]naphthyridin-2(1H)-yl)acetamide

> <Smile>
Cc(ccc(F)c12)c2NC(CCN(CC(Nc2cc(F)cc(F)c2)=O)C2)=C2C1=O

> <Color>
YELLOW

> <Collection>
NC

> <InChI>
InChI=1S/C21H18F3N3O2/c1-11-2-3-16(24)19-20(11)26-17-4-5-27(9-15(17)21(19)29)10-18(28)25-14-7-12(22)6-13(23)8-14/h2-3,6-8H,4-5,9-10H2,1H3,(H,25,28)(H,26,29)

> <InChI Key>
LGVSCCPGSDADDY-UHFFFAOYSA-N

> <PERCENTSP3>
23.8

> <Link>
https://www.chemdiv.com/catalog/screening-compounds/compound-L489-1912/

> <MFCDNUMBER>
MFCD27457677

> <CLNUMBER>
CL8213A

> <STEREO>
ACHIRAL

> <State>
Solid

> <Similarity score>
0.23

$$$$
2-(4-methoxyphenyl)-4-(morpholin-4-yl)-5,6,8,9-tetrahydrooxepino[4,5-d]pyrimidin
  -OEChem-04222410502D

 25 28  0     0  0  0  0  0  0999 V2000
   -0.0078    0.8382    0.0000 N   0  0  0  0  0  0  0  0  0  0  0  0
    0.0675    1.8349    0.0000 C   0  0  0  0  0  0  0  0  0  0  0  0
   -0.7505    2.4019    0.0000 C   0  0  0  0  0  0  0  0  0  0  0  0
   -0.9010    0.4089    0.0000 C   0  0  0  0  0  0  0  0  0  0  0  0
   -1.7221    0.9638    0.0000 N   0  0  0  0  0  0  0  0  0  0  0  0
   -1.6468    1.9602    0.0000 C   0  0  0  0  0  0  0  0  0  0  0  0
    0.9762    2.2674    0.0000 N   0  0  0  0  0  0  0  0  0  0  0  0
   -0.9762   -0.5969    0.0000 C   0  0  0  0  0  0  0  0  0  0  0  0
   -2.1545    4.1508    0.0000 O   0  0  0  0  0  0  0  0  0  0  0  0
    2.7751    3.1417    0.0000 O   0  0  0  0  0  0  0  0  0  0  0  0
   -1.8788   -1.0294    0.0000 C   0  0  0  0  0  0  0  0  0  0  0  0
   -0.1520   -1.1612    0.0000 C   0  0  0  0  0  0  0  0  0  0  0  0
   -2.5556    2.4019    0.0000 C   0  0  0  0  0  0  0  0  0  0  0  0
   -0.5282    3.3705    0.0000 C   0  0  0  0  0  0  0  0  0  0  0  0
   -1.1267   -2.5901    0.0000 C   0  0  0  0  0  0  0  0  0  0  0  0
   -0.2241   -2.1577    0.0000 C   0  0  0  0  0  0  0  0  0  0  0  0
   -1.9540   -2.0261    0.0000 C   0  0  0  0  0  0  0  0  0  0  0  0
    1.8067    1.7030    0.0000 C   0  0  0  0  0  0  0  0  0  0  0  0
    1.0515    3.2732    0.0000 C   0  0  0  0  0  0  0  0  0  0  0  0
   -1.2019   -3.5868    0.0000 O   0  0  0  0  0  0  0  0  0  0  0  0
   -2.7751    3.3705    0.0000 C   0  0  0  0  0  0  0  0  0  0  0  0
   -1.1485    4.1508    0.0000 C   0  0  0  0  0  0  0  0  0  0  0  0
    1.9571    3.7058    0.0000 C   0  0  0  0  0  0  0  0  0  0  0  0
    2.6999    2.1452    0.0000 C   0  0  0  0  0  0  0  0  0  0  0  0
   -0.3684   -4.1508    0.0000 C   0  0  0  0  0  0  0  0  0  0  0  0
  1  2  2  0  0  0  0
  2  3  1  0  0  0  0
  1  4  1  0  0  0  0
  4  5  2  0  0  0  0
  5  6  1  0  0  0  0
  3  6  2  0  0  0  0
  2  7  1  0  0  0  0
  4  8  1  0  0  0  0
  9 22  1  0  0  0  0
 10 23  1  0  0  0  0
  8 11  2  0  0  0  0
  8 12  1  0  0  0  0
  6 13  1  0  0  0  0
  3 14  1  0  0  0  0
 15 16  1  0  0  0  0
 12 16  2  0  0  0  0
 11 17  1  0  0  0  0
 15 17  2  0  0  0  0
  7 18  1  0  0  0  0
  7 19  1  0  0  0  0
 15 20  1  0  0  0  0
 13 21  1  0  0  0  0
  9 21  1  0  0  0  0
 14 22  1  0  0  0  0
 19 23  1  0  0  0  0
 18 24  1  0  0  0  0
 10 24  1  0  0  0  0
 20 25  1  0  0  0  0
M  END
> <IDNUMBER>
S896-0159

> <available>
67

> <H_acceptor>
5

> <H_donor>
0

> <B_rotN>
3

> <N_O>
6

> <logP>
3.593

> <logD>
3.5874

> <logSw>
-3.5815

> <PSA>
47.037

> <pKa_ma>
19.7965

> <pKa_mb>
5.5159

> <N_Chirals>
0

> <Name>
2-(4-methoxyphenyl)-4-(morpholin-4-yl)-5,6,8,9-tetrahydrooxepino[4,5-d]pyrimidine

> <Smile>
COc(cc1)ccc1-c1nc(CCOCC2)c2c(N2CCOCC2)n1

> <Color>
BROWN

> <Collection>
IC

> <InChI>
InChI=1S/C19H23N3O3/c1-23-15-4-2-14(3-5-15)18-20-17-7-11-24-10-6-16(17)19(21-18)22-8-12-25-13-9-22/h2-5H,6-13H2,1H3

> <InChI Key>
OPRIETUOCJNYOL-UHFFFAOYSA-N

> <PERCENTSP3>
47.37

> <Link>
https://www.chemdiv.com/catalog/screening-compounds/compound-S896-0159/

> <MFCDNUMBER>
MFCD31956802

> <CLNUMBER>
CM3993

> <STEREO>
ACHIRAL

> <State>
Solid

> <Similarity score>
0.23

$$$$
7-[(2-chloro-4-fluorophenyl)methyl]-2-(4-methylpiperazin-1-yl)-3,5,6,7,8,9-hexah
  -OEChem-04222410502D

 28 31  0     0  0  0  0  0  0999 V2000
    1.5151    1.0982    0.0000 C   0  0  0  0  0  0  0  0  0  0  0  0
    1.3052    2.0696    0.0000 N   0  0  0  0  0  0  0  0  0  0  0  0
   -0.3932    1.6844    0.0000 C   0  0  0  0  0  0  0  0  0  0  0  0
    0.7911    0.4122    0.0000 N   0  0  0  0  0  0  0  0  0  0  0  0
    0.3401    2.3580    0.0000 C   0  0  0  0  0  0  0  0  0  0  0  0
   -0.1709    0.7037    0.0000 C   0  0  0  0  0  0  0  0  0  0  0  0
    2.4768    0.7975    0.0000 N   0  0  0  0  0  0  0  0  0  0  0  0
   -3.6895   -0.4717    0.0000 C   0  0  0  0  0  0  0  0  0  0  0  0
   -2.4144    0.7037    0.0000 N   0  0  0  0  0  0  0  0  0  0  0  0
   -1.2955    2.1136    0.0000 C   0  0  0  0  0  0  0  0  0  0  0  0
   -4.6609   -0.6970    0.0000 C   0  0  0  0  0  0  0  0  0  0  0  0
   -0.7881   -0.0674    0.0000 C   0  0  0  0  0  0  0  0  0  0  0  0
    4.3915    0.2083    0.0000 N   0  0  0  0  0  0  0  0  0  0  0  0
   -4.9616   -1.6466    0.0000 C   0  0  0  0  0  0  0  0  0  0  0  0
   -3.3858    0.4874    0.0000 C   0  0  0  0  0  0  0  0  0  0  0  0
    0.1145    3.3387    0.0000 O   0  0  0  0  0  0  0  0  0  0  0  0
    3.2072    1.4838    0.0000 C   0  0  0  0  0  0  0  0  0  0  0  0
    2.7058   -0.1769    0.0000 C   0  0  0  0  0  0  0  0  0  0  0  0
   -3.0159   -1.2017    0.0000 C   0  0  0  0  0  0  0  0  0  0  0  0
   -2.1887    1.6844    0.0000 C   0  0  0  0  0  0  0  0  0  0  0  0
   -1.7939   -0.0674    0.0000 C   0  0  0  0  0  0  0  0  0  0  0  0
   -4.2850   -2.3890    0.0000 C   0  0  0  0  0  0  0  0  0  0  0  0
    3.6551   -0.4717    0.0000 C   0  0  0  0  0  0  0  0  0  0  0  0
    4.1659    1.1830    0.0000 C   0  0  0  0  0  0  0  0  0  0  0  0
   -5.3408    0.0424    0.0000 Cl  0  0  0  0  0  0  0  0  0  0  0  0
   -3.3010   -2.1634    0.0000 C   0  0  0  0  0  0  0  0  0  0  0  0
   -4.5764   -3.3387    0.0000 F   0  0  0  0  0  0  0  0  0  0  0  0
    5.3408   -0.0861    0.0000 C   0  0  0  0  0  0  0  0  0  0  0  0
  1  2  1  0  0  0  0
  3  6  2  0  0  0  0
  3  5  1  0  0  0  0
  1  4  2  0  0  0  0
  2  5  1  0  0  0  0
  4  6  1  0  0  0  0
  1  7  1  0  0  0  0
  8 15  1  0  0  0  0
  9 21  1  0  0  0  0
  9 20  1  0  0  0  0
  3 10  1  0  0  0  0
  8 11  2  0  0  0  0
  6 12  1  0  0  0  0
 13 23  1  0  0  0  0
 13 24  1  0  0  0  0
 11 14  1  0  0  0  0
 14 22  2  0  0  0  0
  9 15  1  0  0  0  0
  5 16  2  0  0  0  0
  7 17  1  0  0  0  0
  7 18  1  0  0  0  0
  8 19  1  0  0  0  0
 10 20  1  0  0  0  0
 12 21  1  0  0  0  0
 22 26  1  0  0  0  0
 18 23  1  0  0  0  0
 17 24  1  0  0  0  0
 11 25  1  0  0  0  0
 19 26  2  0  0  0  0
 22 27  1  0  0  0  0
 13 28  1  0  0  0  0
M  END
> <IDNUMBER>
S039-3696

> <available>
21

> <H_acceptor>
5

> <H_donor>
1

> <B_rotN>
3

> <N_O>
6

> <logP>
2.2166

> <logD>
0.9969

> <logSw>
-3.2984

> <PSA>
45.276

> <pKa_ma>
9.6889

> <pKa_mb>
8.5927

> <N_Chirals>
0

> <Name>
7-[(2-chloro-4-fluorophenyl)methyl]-2-(4-methylpiperazin-1-yl)-3,5,6,7,8,9-hexahydro-4H-pyrimido[4,5-d]azepin-4-one

> <Smile>
CN(CC1)CCN1C(N1)=NC(CCN(Cc(ccc(F)c2)c2Cl)CC2)=C2C1=O

> <Color>
NOT COLORED

> <Collection>
IC

> <InChI>
InChI=1S/C20H25ClFN5O/c1-25-8-10-27(11-9-25)20-23-18-5-7-26(6-4-16(18)19(28)24-20)13-14-2-3-15(22)12-17(14)21/h2-3,12H,4-11,13H2,1H3,(H,23,24,28)

> <InChI Key>
GJCDSONDNLLSMS-UHFFFAOYSA-N

> <PERCENTSP3>
50

> <Link>
https://www.chemdiv.com/catalog/screening-compounds/compound-S039-3696/

> <MFCDNUMBER>
MFCD28999997

> <CLNUMBER>
CM2417

> <STEREO>
ACHIRAL

> <State>
Solid

> <Similarity score>
0.23

$$$$
7-[(4-ethoxy-3-methoxyphenyl)methyl]-2-(morpholin-4-yl)-3,5,6,7,8,9-hexahydro-4H
  -OEChem-04222410502D

 30 33  0     0  0  0  0  0  0999 V2000
    1.8033   -1.9348    0.0000 C   0  0  0  0  0  0  0  0  0  0  0  0
    1.5808   -2.9030    0.0000 N   0  0  0  0  0  0  0  0  0  0  0  0
   -0.1019   -2.5239    0.0000 C   0  0  0  0  0  0  0  0  0  0  0  0
    1.0731   -1.2487    0.0000 N   0  0  0  0  0  0  0  0  0  0  0  0
    0.6219   -3.2039    0.0000 C   0  0  0  0  0  0  0  0  0  0  0  0
    0.1113   -1.5495    0.0000 C   0  0  0  0  0  0  0  0  0  0  0  0
    2.7558   -1.6339    0.0000 N   0  0  0  0  0  0  0  0  0  0  0  0
   -1.0135   -2.9501    0.0000 C   0  0  0  0  0  0  0  0  0  0  0  0
   -2.1322   -1.5495    0.0000 N   0  0  0  0  0  0  0  0  0  0  0  0
   -0.5059   -0.7661    0.0000 C   0  0  0  0  0  0  0  0  0  0  0  0
   -3.0222    1.3176    0.0000 C   0  0  0  0  0  0  0  0  0  0  0  0
    0.4025   -4.1783    0.0000 O   0  0  0  0  0  0  0  0  0  0  0  0
   -3.9934    1.5431    0.0000 C   0  0  0  0  0  0  0  0  0  0  0  0
   -2.7243    0.3680    0.0000 C   0  0  0  0  0  0  0  0  0  0  0  0
   -3.4043   -0.3745    0.0000 C   0  0  0  0  0  0  0  0  0  0  0  0
   -3.1037   -1.3237    0.0000 C   0  0  0  0  0  0  0  0  0  0  0  0
   -1.9067   -2.5239    0.0000 C   0  0  0  0  0  0  0  0  0  0  0  0
   -1.5057   -0.7661    0.0000 C   0  0  0  0  0  0  0  0  0  0  0  0
    4.6734   -1.0419    0.0000 O   0  0  0  0  0  0  0  0  0  0  0  0
   -4.6734    0.8132    0.0000 C   0  0  0  0  0  0  0  0  0  0  0  0
   -4.3790   -0.1490    0.0000 C   0  0  0  0  0  0  0  0  0  0  0  0
   -2.3390    2.0601    0.0000 O   0  0  0  0  0  0  0  0  0  0  0  0
   -4.2942    2.4956    0.0000 O   0  0  0  0  0  0  0  0  0  0  0  0
    2.9813   -0.6627    0.0000 C   0  0  0  0  0  0  0  0  0  0  0  0
    3.4951   -2.3171    0.0000 C   0  0  0  0  0  0  0  0  0  0  0  0
    4.4479   -2.0288    0.0000 C   0  0  0  0  0  0  0  0  0  0  0  0
    3.9402   -0.3745    0.0000 C   0  0  0  0  0  0  0  0  0  0  0  0
   -3.6081    3.2351    0.0000 C   0  0  0  0  0  0  0  0  0  0  0  0
   -1.3646    1.8346    0.0000 C   0  0  0  0  0  0  0  0  0  0  0  0
   -3.9087    4.1783    0.0000 C   0  0  0  0  0  0  0  0  0  0  0  0
  1  2  1  0  0  0  0
  3  6  2  0  0  0  0
  3  5  1  0  0  0  0
  1  4  2  0  0  0  0
  2  5  1  0  0  0  0
  4  6  1  0  0  0  0
  1  7  1  0  0  0  0
  3  8  1  0  0  0  0
  9 18  1  0  0  0  0
  9 17  1  0  0  0  0
  6 10  1  0  0  0  0
 11 14  1  0  0  0  0
 11 13  2  0  0  0  0
  5 12  2  0  0  0  0
 13 20  1  0  0  0  0
 14 15  2  0  0  0  0
 15 16  1  0  0  0  0
  9 16  1  0  0  0  0
  8 17  1  0  0  0  0
 10 18  1  0  0  0  0
 19 26  1  0  0  0  0
 19 27  1  0  0  0  0
 20 21  2  0  0  0  0
 15 21  1  0  0  0  0
 11 22  1  0  0  0  0
 13 23  1  0  0  0  0
  7 24  1  0  0  0  0
  7 25  1  0  0  0  0
 25 26  1  0  0  0  0
 24 27  1  0  0  0  0
 23 28  1  0  0  0  0
 22 29  1  0  0  0  0
 28 30  1  0  0  0  0
M  END
> <IDNUMBER>
S039-3104

> <available>
31

> <H_acceptor>
7

> <H_donor>
1

> <B_rotN>
6

> <N_O>
8

> <logP>
1.2796

> <logD>
-0.2572

> <logSw>
-2.3106

> <PSA>
64.548

> <pKa_ma>
9.6889

> <pKa_mb>
8.924

> <N_Chirals>
0

> <Name>
7-[(4-ethoxy-3-methoxyphenyl)methyl]-2-(morpholin-4-yl)-3,5,6,7,8,9-hexahydro-4H-pyrimido[4,5-d]azepin-4-one

> <Smile>
CCOc(ccc(CN(CC1)CCC(N=C(N2)N3CCOCC3)=C1C2=O)c1)c1OC

> <Color>
NOT COLORED

> <Collection>
IC

> <InChI>
InChI=1S/C22H30N4O4/c1-3-30-19-5-4-16(14-20(19)28-2)15-25-8-6-17-18(7-9-25)23-22(24-21(17)27)26-10-12-29-13-11-26/h4-5,14H,3,6-13,15H2,1-2H3,(H,23,24,27)

> <InChI Key>
CBMKUZXVKYNYMU-UHFFFAOYSA-N

> <PERCENTSP3>
54.5

> <Link>
https://www.chemdiv.com/catalog/screening-compounds/compound-S039-3104/

> <MFCDNUMBER>
MFCD29000065

> <CLNUMBER>
CM2417

> <STEREO>
ACHIRAL

> <State>
Solid

> <Similarity score>
0.23

$$$$
N-(2,4-difluorophenyl)-2-({6-[(2-methoxyphenyl)methyl]-4-oxo-3,4,5,6,7,8-hexahyd
  -OEChem-04222410502D

 33 36  0     0  0  0  0  0  0999 V2000
   -1.6713    0.5303    0.0000 C   0  0  0  0  0  0  0  0  0  0  0  0
    0.0554    0.4900    0.0000 N   0  0  0  0  0  0  0  0  0  0  0  0
   -0.7978    1.0048    0.0000 C   0  0  0  0  0  0  0  0  0  0  0  0
   -1.7015   -0.4697    0.0000 C   0  0  0  0  0  0  0  0  0  0  0  0
    0.0354   -0.5152    0.0000 C   0  0  0  0  0  0  0  0  0  0  0  0
   -0.8532   -0.9951    0.0000 N   0  0  0  0  0  0  0  0  0  0  0  0
   -3.4034    0.5807    0.0000 N   0  0  0  0  0  0  0  0  0  0  0  0
   -2.5200    1.0602    0.0000 C   0  0  0  0  0  0  0  0  0  0  0  0
    3.4948   -0.6060    0.0000 N   0  0  0  0  0  0  0  0  0  0  0  0
   -5.1307    0.6364    0.0000 C   0  0  0  0  0  0  0  0  0  0  0  0
    4.3431   -1.1313    0.0000 C   0  0  0  0  0  0  0  0  0  0  0  0
    5.2062   -0.6514    0.0000 C   0  0  0  0  0  0  0  0  0  0  0  0
   -2.5806   -0.9496    0.0000 C   0  0  0  0  0  0  0  0  0  0  0  0
    2.6157   -1.0858    0.0000 C   0  0  0  0  0  0  0  0  0  0  0  0
   -4.2517    1.1057    0.0000 C   0  0  0  0  0  0  0  0  0  0  0  0
    6.0702   -1.1617    0.0000 C   0  0  0  0  0  0  0  0  0  0  0  0
    0.8739   -1.0304    0.0000 S   0  0  0  0  0  0  0  0  0  0  0  0
   -0.7776    2.0048    0.0000 O   0  0  0  0  0  0  0  0  0  0  0  0
   -5.9788    1.1667    0.0000 C   0  0  0  0  0  0  0  0  0  0  0  0
   -3.4338   -0.4193    0.0000 C   0  0  0  0  0  0  0  0  0  0  0  0
    2.5855   -2.0755    0.0000 O   0  0  0  0  0  0  0  0  0  0  0  0
    4.3127   -2.1212    0.0000 C   0  0  0  0  0  0  0  0  0  0  0  0
    6.0499   -2.1667    0.0000 C   0  0  0  0  0  0  0  0  0  0  0  0
    1.7524   -0.5607    0.0000 C   0  0  0  0  0  0  0  0  0  0  0  0
    5.2366    0.3481    0.0000 F   0  0  0  0  0  0  0  0  0  0  0  0
    5.1609   -2.6511    0.0000 C   0  0  0  0  0  0  0  0  0  0  0  0
    6.8982   -2.6965    0.0000 F   0  0  0  0  0  0  0  0  0  0  0  0
   -5.9437    2.1662    0.0000 O   0  0  0  0  0  0  0  0  0  0  0  0
   -5.1609   -0.3587    0.0000 C   0  0  0  0  0  0  0  0  0  0  0  0
   -6.8676    0.6967    0.0000 C   0  0  0  0  0  0  0  0  0  0  0  0
   -6.7917    2.6965    0.0000 C   0  0  0  0  0  0  0  0  0  0  0  0
   -6.0394   -0.8336    0.0000 C   0  0  0  0  0  0  0  0  0  0  0  0
   -6.8982   -0.3033    0.0000 C   0  0  0  0  0  0  0  0  0  0  0  0
  2  3  1  0  0  0  0
  2  5  1  0  0  0  0
  1  3  1  0  0  0  0
  1  4  2  0  0  0  0
  5  6  2  0  0  0  0
  4  6  1  0  0  0  0
  7  8  1  0  0  0  0
  1  8  1  0  0  0  0
  9 14  1  0  0  0  0
 10 15  1  0  0  0  0
  9 11  1  0  0  0  0
 11 12  1  0  0  0  0
  4 13  1  0  0  0  0
 13 20  1  0  0  0  0
 14 24  1  0  0  0  0
  7 15  1  0  0  0  0
 12 16  2  0  0  0  0
  5 17  1  0  0  0  0
  3 18  2  0  0  0  0
 10 19  2  0  0  0  0
  7 20  1  0  0  0  0
 14 21  2  0  0  0  0
 11 22  2  0  0  0  0
 23 26  2  0  0  0  0
 16 23  1  0  0  0  0
 17 24  1  0  0  0  0
 12 25  1  0  0  0  0
 22 26  1  0  0  0  0
 23 27  1  0  0  0  0
 19 28  1  0  0  0  0
 10 29  1  0  0  0  0
 19 30  1  0  0  0  0
 28 31  1  0  0  0  0
 29 32  2  0  0  0  0
 32 33  1  0  0  0  0
 30 33  2  0  0  0  0
M  END
> <IDNUMBER>
E140-0959

> <available>
71

> <H_acceptor>
8

> <H_donor>
2

> <B_rotN>
8

> <N_O>
7

> <logP>
2.5552

> <logD>
2.0058

> <logSw>
-2.958

> <PSA>
68.028

> <pKa_ma>
6.9946

> <pKa_mb>
4.9727

> <N_Chirals>
0

> <Name>
N-(2,4-difluorophenyl)-2-({6-[(2-methoxyphenyl)methyl]-4-oxo-3,4,5,6,7,8-hexahydropyrido[4,3-d]pyrimidin-2-yl}sulfanyl)acetamide

> <Smile>
COc1c(CN(CC2)CC(C(N3)=O)=C2N=C3SCC(Nc(ccc(F)c2)c2F)=O)cccc1

> <Color>
NOT COLORED

> <Collection>
DC

> <InChI>
InChI=1S/C23H22F2N4O3S/c1-32-20-5-3-2-4-14(20)11-29-9-8-18-16(12-29)22(31)28-23(27-18)33-13-21(30)26-19-7-6-15(24)10-17(19)25/h2-7,10H,8-9,11-13H2,1H3,(H,26,30)(H,27,28,31)

> <InChI Key>
CFKYUOQHLINCHX-UHFFFAOYSA-N

> <PERCENTSP3>
26.1

> <Link>
https://www.chemdiv.com/catalog/screening-compounds/compound-E140-0959/

> <MFCDNUMBER>
MFCD16640590

> <CLNUMBER>
CL4129

> <STEREO>
ACHIRAL

> <State>
Solid

> <Similarity score>
0.23

$$$$
2-(9-chloro-6-methoxy-10-oxo-3,4,5,10-tetrahydrobenzo[b][1,6]naphthyridin-2(1H)-
  -OEChem-04222410502D

 30 33  0     0  0  0  0  0  0999 V2000
   -0.8853   -1.4573    0.0000 C   0  0  0  0  0  0  0  0  0  0  0  0
   -1.7596   -0.9528    0.0000 C   0  0  0  0  0  0  0  0  0  0  0  0
   -2.6340   -1.4573    0.0000 C   0  0  0  0  0  0  0  0  0  0  0  0
   -1.7784   -2.9332    0.0000 N   0  0  0  0  0  0  0  0  0  0  0  0
   -2.6340   -2.4380    0.0000 C   0  0  0  0  0  0  0  0  0  0  0  0
   -0.8853   -2.4477    0.0000 C   0  0  0  0  0  0  0  0  0  0  0  0
    0.8822   -1.4573    0.0000 N   0  0  0  0  0  0  0  0  0  0  0  0
    0.0079   -0.9716    0.0000 C   0  0  0  0  0  0  0  0  0  0  0  0
    1.7754    0.0094    0.0000 C   0  0  0  0  0  0  0  0  0  0  0  0
    2.6685    0.4952    0.0000 N   0  0  0  0  0  0  0  0  0  0  0  0
    2.6685    1.4761    0.0000 C   0  0  0  0  0  0  0  0  0  0  0  0
    3.5522    1.9616    0.0000 C   0  0  0  0  0  0  0  0  0  0  0  0
   -3.5271   -0.9716    0.0000 C   0  0  0  0  0  0  0  0  0  0  0  0
   -0.0109   -2.9332    0.0000 C   0  0  0  0  0  0  0  0  0  0  0  0
   -3.5271   -2.9332    0.0000 C   0  0  0  0  0  0  0  0  0  0  0  0
    3.5522    2.9426    0.0000 C   0  0  0  0  0  0  0  0  0  0  0  0
   -1.7596    0.0282    0.0000 O   0  0  0  0  0  0  0  0  0  0  0  0
    1.7754   -0.9716    0.0000 C   0  0  0  0  0  0  0  0  0  0  0  0
    0.8822    0.4952    0.0000 O   0  0  0  0  0  0  0  0  0  0  0  0
    0.8822   -2.4477    0.0000 C   0  0  0  0  0  0  0  0  0  0  0  0
   -4.4015   -1.4573    0.0000 C   0  0  0  0  0  0  0  0  0  0  0  0
   -4.4015   -2.4380    0.0000 C   0  0  0  0  0  0  0  0  0  0  0  0
    1.7847    1.9616    0.0000 C   0  0  0  0  0  0  0  0  0  0  0  0
    2.6685    3.4220    0.0000 C   0  0  0  0  0  0  0  0  0  0  0  0
    4.4015    1.4446    0.0000 F   0  0  0  0  0  0  0  0  0  0  0  0
   -3.5271    0.0282    0.0000 Cl  0  0  0  0  0  0  0  0  0  0  0  0
    1.7847    2.9426    0.0000 C   0  0  0  0  0  0  0  0  0  0  0  0
    2.6685    4.4187    0.0000 F   0  0  0  0  0  0  0  0  0  0  0  0
   -3.5177   -3.9237    0.0000 O   0  0  0  0  0  0  0  0  0  0  0  0
   -2.6561   -4.4187    0.0000 C   0  0  0  0  0  0  0  0  0  0  0  0
  1  2  1  0  0  0  0
  2  3  1  0  0  0  0
  3  5  1  0  0  0  0
  4  6  1  0  0  0  0
  4  5  1  0  0  0  0
  1  6  2  0  0  0  0
  7  8  1  0  0  0  0
  1  8  1  0  0  0  0
  9 18  1  0  0  0  0
  9 10  1  0  0  0  0
 10 11  1  0  0  0  0
 11 12  1  0  0  0  0
  3 13  2  0  0  0  0
  6 14  1  0  0  0  0
 14 20  1  0  0  0  0
  5 15  2  0  0  0  0
 12 16  2  0  0  0  0
 16 24  1  0  0  0  0
  2 17  2  0  0  0  0
  7 18  1  0  0  0  0
  9 19  2  0  0  0  0
  7 20  1  0  0  0  0
 13 21  1  0  0  0  0
 21 22  2  0  0  0  0
 15 22  1  0  0  0  0
 11 23  2  0  0  0  0
 24 27  2  0  0  0  0
 12 25  1  0  0  0  0
 13 26  1  0  0  0  0
 23 27  1  0  0  0  0
 24 28  1  0  0  0  0
 15 29  1  0  0  0  0
 29 30  1  0  0  0  0
M  END
> <IDNUMBER>
L489-1778

> <available>
37

> <H_acceptor>
6

> <H_donor>
2

> <B_rotN>
5

> <N_O>
6

> <logP>
3.3074

> <logD>
1.258

> <logSw>
-3.9848

> <PSA>
55.744

> <pKa_ma>
5.3545

> <pKa_mb>
0.736

> <N_Chirals>
0

> <Name>
2-(9-chloro-6-methoxy-10-oxo-3,4,5,10-tetrahydrobenzo[b][1,6]naphthyridin-2(1H)-yl)-N-(2,4-difluorophenyl)acetamide

> <Smile>
COc(ccc(Cl)c12)c2NC(CCN(CC(Nc(ccc(F)c2)c2F)=O)C2)=C2C1=O

> <Color>
YELLOW

> <Collection>
NC

> <InChI>
InChI=1S/C21H18ClF2N3O3/c1-30-17-5-3-13(22)19-20(17)26-15-6-7-27(9-12(15)21(19)29)10-18(28)25-16-4-2-11(23)8-14(16)24/h2-5,8H,6-7,9-10H2,1H3,(H,25,28)(H,26,29)

> <InChI Key>
WKGAEZXGGCTZIZ-UHFFFAOYSA-N

> <PERCENTSP3>
23.8

> <Link>
https://www.chemdiv.com/catalog/screening-compounds/compound-L489-1778/

> <MFCDNUMBER>
MFCD27457645

> <CLNUMBER>
CL8213A

> <STEREO>
ACHIRAL

> <State>
Solid

> <Similarity score>
0.23

$$$$
2-(morpholin-4-yl)-7-[(3,4,5-trifluorophenyl)methyl]-3,5,6,7,8,9-hexahydro-4H-py
  -OEChem-04222410502D

 28 31  0     0  0  0  0  0  0999 V2000
    2.6672   -0.6000    0.0000 C   0  0  0  0  0  0  0  0  0  0  0  0
    2.4603    0.3713    0.0000 N   0  0  0  0  0  0  0  0  0  0  0  0
    0.7648   -0.0172    0.0000 C   0  0  0  0  0  0  0  0  0  0  0  0
    1.9402   -1.2771    0.0000 N   0  0  0  0  0  0  0  0  0  0  0  0
    1.4918    0.6724    0.0000 C   0  0  0  0  0  0  0  0  0  0  0  0
    0.9841   -0.9888    0.0000 C   0  0  0  0  0  0  0  0  0  0  0  0
    3.6357   -0.8918    0.0000 N   0  0  0  0  0  0  0  0  0  0  0  0
   -4.2719    0.9919    0.0000 C   0  0  0  0  0  0  0  0  0  0  0  0
   -4.5727    0.0296    0.0000 C   0  0  0  0  0  0  0  0  0  0  0  0
   -3.2940    1.2144    0.0000 C   0  0  0  0  0  0  0  0  0  0  0  0
   -0.1348    0.4278    0.0000 C   0  0  0  0  0  0  0  0  0  0  0  0
   -1.2662   -0.9888    0.0000 N   0  0  0  0  0  0  0  0  0  0  0  0
    0.3635   -1.7660    0.0000 C   0  0  0  0  0  0  0  0  0  0  0  0
   -2.9180   -0.4687    0.0000 C   0  0  0  0  0  0  0  0  0  0  0  0
   -2.6169    0.4843    0.0000 C   0  0  0  0  0  0  0  0  0  0  0  0
   -3.8956   -0.6911    0.0000 C   0  0  0  0  0  0  0  0  0  0  0  0
    1.2755    1.6472    0.0000 O   0  0  0  0  0  0  0  0  0  0  0  0
   -2.2409   -1.2113    0.0000 C   0  0  0  0  0  0  0  0  0  0  0  0
   -1.0312   -0.0172    0.0000 C   0  0  0  0  0  0  0  0  0  0  0  0
   -0.6331   -1.7660    0.0000 C   0  0  0  0  0  0  0  0  0  0  0  0
    5.5443   -1.4809    0.0000 O   0  0  0  0  0  0  0  0  0  0  0  0
   -4.9584    1.7255    0.0000 F   0  0  0  0  0  0  0  0  0  0  0  0
   -3.0057    2.1673    0.0000 F   0  0  0  0  0  0  0  0  0  0  0  0
   -5.5443   -0.1831    0.0000 F   0  0  0  0  0  0  0  0  0  0  0  0
    4.3689   -0.2147    0.0000 C   0  0  0  0  0  0  0  0  0  0  0  0
    3.8582   -1.8662    0.0000 C   0  0  0  0  0  0  0  0  0  0  0  0
    4.8111   -2.1673    0.0000 C   0  0  0  0  0  0  0  0  0  0  0  0
    5.3187   -0.5030    0.0000 C   0  0  0  0  0  0  0  0  0  0  0  0
  1  2  1  0  0  0  0
  3  6  2  0  0  0  0
  3  5  1  0  0  0  0
  1  4  2  0  0  0  0
  2  5  1  0  0  0  0
  4  6  1  0  0  0  0
  1  7  1  0  0  0  0
  8  9  2  0  0  0  0
  8 10  1  0  0  0  0
  9 16  1  0  0  0  0
 10 15  2  0  0  0  0
  3 11  1  0  0  0  0
 12 20  1  0  0  0  0
 12 19  1  0  0  0  0
  6 13  1  0  0  0  0
 14 18  1  0  0  0  0
 14 15  1  0  0  0  0
 14 16  2  0  0  0  0
  5 17  2  0  0  0  0
 12 18  1  0  0  0  0
 11 19  1  0  0  0  0
 13 20  1  0  0  0  0
 21 27  1  0  0  0  0
 21 28  1  0  0  0  0
  8 22  1  0  0  0  0
 10 23  1  0  0  0  0
  9 24  1  0  0  0  0
  7 25  1  0  0  0  0
  7 26  1  0  0  0  0
 26 27  1  0  0  0  0
 25 28  1  0  0  0  0
M  END
> <IDNUMBER>
S039-3175

> <available>
1

> <H_acceptor>
5

> <H_donor>
1

> <B_rotN>
3

> <N_O>
6

> <logP>
1.7158

> <logD>
1.6126

> <logSw>
-2.5303

> <PSA>
49.708

> <pKa_ma>
9.6889

> <pKa_mb>
6.8179

> <N_Chirals>
0

> <Name>
2-(morpholin-4-yl)-7-[(3,4,5-trifluorophenyl)methyl]-3,5,6,7,8,9-hexahydro-4H-pyrimido[4,5-d]azepin-4-one

> <Smile>
O=C1NC(N2CCOCC2)=NC2=C1CCN(Cc(cc1F)cc(F)c1F)CC2

> <Color>
NOT COLORED

> <Collection>
IC

> <InChI>
InChI=1S/C19H21F3N4O2/c20-14-9-12(10-15(21)17(14)22)11-25-3-1-13-16(2-4-25)23-19(24-18(13)27)26-5-7-28-8-6-26/h9-10H,1-8,11H2,(H,23,24,27)

> <InChI Key>
CKCNEYORBGYAEM-UHFFFAOYSA-N

> <PERCENTSP3>
47.368

> <Link>
https://www.chemdiv.com/catalog/screening-compounds/compound-S039-3175/

> <MFCDNUMBER>
MFCD28999088

> <CLNUMBER>
CM2417

> <STEREO>
ACHIRAL

> <State>
Solid

> <Similarity score>
0.23

$$$$
N-(4-chloro-3-fluorophenyl)-2-(9-fluoro-6-methyl-10-oxo-3,4,5,10-tetrahydrobenzo
  -OEChem-04222410502D

 29 32  0     0  0  0  0  0  0999 V2000
   -0.8916   -1.7001    0.0000 C   0  0  0  0  0  0  0  0  0  0  0  0
   -1.7598   -1.2113    0.0000 C   0  0  0  0  0  0  0  0  0  0  0  0
   -2.6404   -1.7001    0.0000 C   0  0  0  0  0  0  0  0  0  0  0  0
   -1.7785   -3.1824    0.0000 N   0  0  0  0  0  0  0  0  0  0  0  0
   -2.6404   -2.6875    0.0000 C   0  0  0  0  0  0  0  0  0  0  0  0
   -0.8916   -2.6968    0.0000 C   0  0  0  0  0  0  0  0  0  0  0  0
    0.8822   -1.7001    0.0000 N   0  0  0  0  0  0  0  0  0  0  0  0
    0.0077   -1.2176    0.0000 C   0  0  0  0  0  0  0  0  0  0  0  0
    1.7692   -0.2396    0.0000 C   0  0  0  0  0  0  0  0  0  0  0  0
   -3.5334   -1.2176    0.0000 C   0  0  0  0  0  0  0  0  0  0  0  0
   -0.0077   -3.1824    0.0000 C   0  0  0  0  0  0  0  0  0  0  0  0
    3.5461    2.6842    0.0000 C   0  0  0  0  0  0  0  0  0  0  0  0
    3.5461    1.7065    0.0000 C   0  0  0  0  0  0  0  0  0  0  0  0
   -3.5334   -3.1730    0.0000 C   0  0  0  0  0  0  0  0  0  0  0  0
    2.6685    0.2459    0.0000 N   0  0  0  0  0  0  0  0  0  0  0  0
   -1.7598   -0.2242    0.0000 O   0  0  0  0  0  0  0  0  0  0  0  0
    2.6685    1.2333    0.0000 C   0  0  0  0  0  0  0  0  0  0  0  0
    2.6685    3.1700    0.0000 C   0  0  0  0  0  0  0  0  0  0  0  0
    1.7692   -1.2176    0.0000 C   0  0  0  0  0  0  0  0  0  0  0  0
    0.8822    0.2459    0.0000 O   0  0  0  0  0  0  0  0  0  0  0  0
    0.8822   -2.6968    0.0000 C   0  0  0  0  0  0  0  0  0  0  0  0
   -4.4016   -1.7001    0.0000 C   0  0  0  0  0  0  0  0  0  0  0  0
   -4.4016   -2.6875    0.0000 C   0  0  0  0  0  0  0  0  0  0  0  0
    1.7785    2.6842    0.0000 C   0  0  0  0  0  0  0  0  0  0  0  0
    4.4016    3.2014    0.0000 F   0  0  0  0  0  0  0  0  0  0  0  0
    1.7785    1.7065    0.0000 C   0  0  0  0  0  0  0  0  0  0  0  0
   -3.5334   -0.2242    0.0000 F   0  0  0  0  0  0  0  0  0  0  0  0
    2.6685    4.1697    0.0000 Cl  0  0  0  0  0  0  0  0  0  0  0  0
   -3.5334   -4.1697    0.0000 C   0  0  0  0  0  0  0  0  0  0  0  0
  1  2  1  0  0  0  0
  2  3  1  0  0  0  0
  3  5  1  0  0  0  0
  4  6  1  0  0  0  0
  4  5  1  0  0  0  0
  1  6  2  0  0  0  0
  7  8  1  0  0  0  0
  1  8  1  0  0  0  0
  9 19  1  0  0  0  0
  3 10  2  0  0  0  0
  6 11  1  0  0  0  0
 11 21  1  0  0  0  0
 12 13  2  0  0  0  0
 12 18  1  0  0  0  0
 13 17  1  0  0  0  0
  5 14  2  0  0  0  0
  9 15  1  0  0  0  0
  2 16  2  0  0  0  0
 15 17  1  0  0  0  0
 18 24  2  0  0  0  0
  7 19  1  0  0  0  0
  9 20  2  0  0  0  0
  7 21  1  0  0  0  0
 10 22  1  0  0  0  0
 22 23  2  0  0  0  0
 14 23  1  0  0  0  0
 24 26  1  0  0  0  0
 12 25  1  0  0  0  0
 17 26  2  0  0  0  0
 10 27  1  0  0  0  0
 18 28  1  0  0  0  0
 14 29  1  0  0  0  0
M  END
> <IDNUMBER>
L489-1909

> <available>
91

> <H_acceptor>
5

> <H_donor>
2

> <B_rotN>
4

> <N_O>
5

> <logP>
4.3068

> <logD>
3.4098

> <logSw>
-4.7254

> <PSA>
48.811

> <pKa_ma>
6.5619

> <pKa_mb>
1.2894

> <N_Chirals>
0

> <Name>
N-(4-chloro-3-fluorophenyl)-2-(9-fluoro-6-methyl-10-oxo-3,4,5,10-tetrahydrobenzo[b][1,6]naphthyridin-2(1H)-yl)acetamide

> <Smile>
Cc(c(NC1=C2CN(CC(Nc(cc3)cc(F)c3Cl)=O)CC1)c1C2=O)ccc1F

> <Color>
YELLOW

> <Collection>
NC

> <InChI>
InChI=1S/C21H18ClF2N3O2/c1-11-2-5-15(23)19-20(11)26-17-6-7-27(9-13(17)21(19)29)10-18(28)25-12-3-4-14(22)16(24)8-12/h2-5,8H,6-7,9-10H2,1H3,(H,25,28)(H,26,29)

> <InChI Key>
CZWUOARBKRPLEL-UHFFFAOYSA-N

> <PERCENTSP3>
23.8

> <Link>
https://www.chemdiv.com/catalog/screening-compounds/compound-L489-1909/

> <MFCDNUMBER>
MFCD27457675

> <CLNUMBER>
CL8213A

> <STEREO>
ACHIRAL

> <State>
Solid

> <Similarity score>
0.23

$$$$
N-tert-butyl-4-{2-cyclopropyl-6-ethyl-5-[(4-fluorophenyl)methyl]pyrimidin-4-yl}p
  -OEChem-04222410502D

 32 35  0     0  0  0  0  0  0999 V2000
    1.2940   -0.7876    0.0000 C   0  0  0  0  0  0  0  0  0  0  0  0
    1.2940   -1.7877    0.0000 N   0  0  0  0  0  0  0  0  0  0  0  0
    2.1565   -0.2918    0.0000 C   0  0  0  0  0  0  0  0  0  0  0  0
    2.1565   -2.2919    0.0000 C   0  0  0  0  0  0  0  0  0  0  0  0
   -2.1648    1.2210    0.0000 C   0  0  0  0  0  0  0  0  0  0  0  0
    3.0191   -1.7877    0.0000 N   0  0  0  0  0  0  0  0  0  0  0  0
    0.4271   -0.2875    0.0000 N   0  0  0  0  0  0  0  0  0  0  0  0
   -1.2980    0.7251    0.0000 N   0  0  0  0  0  0  0  0  0  0  0  0
    3.0191   -0.7876    0.0000 C   0  0  0  0  0  0  0  0  0  0  0  0
    2.1565   -3.2921    0.0000 C   0  0  0  0  0  0  0  0  0  0  0  0
   -3.0276    0.7251    0.0000 N   0  0  0  0  0  0  0  0  0  0  0  0
    2.6567   -4.1547    0.0000 C   0  0  0  0  0  0  0  0  0  0  0  0
    1.6566   -4.1589    0.0000 C   0  0  0  0  0  0  0  0  0  0  0  0
    2.1565    0.7126    0.0000 C   0  0  0  0  0  0  0  0  0  0  0  0
   -2.1648    2.2252    0.0000 O   0  0  0  0  0  0  0  0  0  0  0  0
   -0.4354   -0.7876    0.0000 C   0  0  0  0  0  0  0  0  0  0  0  0
    0.4312    0.7168    0.0000 C   0  0  0  0  0  0  0  0  0  0  0  0
   -0.4271    1.2167    0.0000 C   0  0  0  0  0  0  0  0  0  0  0  0
   -1.3024   -0.2833    0.0000 C   0  0  0  0  0  0  0  0  0  0  0  0
   -3.8943    1.2210    0.0000 C   0  0  0  0  0  0  0  0  0  0  0  0
    2.6607    1.5751    0.0000 C   0  0  0  0  0  0  0  0  0  0  0  0
    3.6694    3.3046    0.0000 C   0  0  0  0  0  0  0  0  0  0  0  0
    4.1776    4.1589    0.0000 F   0  0  0  0  0  0  0  0  0  0  0  0
    3.6569    1.5710    0.0000 C   0  0  0  0  0  0  0  0  0  0  0  0
    2.1607    2.4503    0.0000 C   0  0  0  0  0  0  0  0  0  0  0  0
    4.1610    2.4336    0.0000 C   0  0  0  0  0  0  0  0  0  0  0  0
    2.6692    3.3130    0.0000 C   0  0  0  0  0  0  0  0  0  0  0  0
    3.8859   -0.2833    0.0000 C   0  0  0  0  0  0  0  0  0  0  0  0
   -4.7569    1.7294    0.0000 C   0  0  0  0  0  0  0  0  0  0  0  0
   -4.3984    0.3584    0.0000 C   0  0  0  0  0  0  0  0  0  0  0  0
   -3.3984    2.0920    0.0000 C   0  0  0  0  0  0  0  0  0  0  0  0
    4.7569   -0.7792    0.0000 C   0  0  0  0  0  0  0  0  0  0  0  0
  1  2  2  0  0  0  0
  1  3  1  0  0  0  0
  2  4  1  0  0  0  0
  4  6  2  0  0  0  0
  5  8  1  0  0  0  0
  6  9  1  0  0  0  0
  1  7  1  0  0  0  0
  8 18  1  0  0  0  0
  3  9  2  0  0  0  0
  4 10  1  0  0  0  0
  5 11  1  0  0  0  0
 10 12  1  0  0  0  0
 12 13  1  0  0  0  0
 10 13  1  0  0  0  0
  3 14  1  0  0  0  0
  5 15  2  0  0  0  0
  7 16  1  0  0  0  0
  7 17  1  0  0  0  0
 17 18  1  0  0  0  0
 16 19  1  0  0  0  0
  8 19  1  0  0  0  0
 11 20  1  0  0  0  0
 14 21  1  0  0  0  0
 22 27  1  0  0  0  0
 22 23  1  0  0  0  0
 21 24  2  0  0  0  0
 21 25  1  0  0  0  0
 24 26  1  0  0  0  0
 22 26  2  0  0  0  0
 25 27  2  0  0  0  0
  9 28  1  0  0  0  0
 20 29  1  0  0  0  0
 20 30  1  0  0  0  0
 20 31  1  0  0  0  0
 28 32  1  0  0  0  0
M  END
> <IDNUMBER>
V029-4980F

> <available>
5

> <H_acceptor>
4

> <H_donor>
1

> <B_rotN>
8

> <N_O>
6

> <logP>
5.595

> <logD>
4.5088

> <logSw>
-5.3791

> <PSA>
49.135

> <pKa_ma>
16.5759

> <pKa_mb>
8.449

> <N_Chirals>
0

> <Name>
N-tert-butyl-4-{2-cyclopropyl-6-ethyl-5-[(4-fluorophenyl)methyl]pyrimidin-4-yl}piperazine-1-carboxamide

> <Smile>
CCc1nc(C2CC2)nc(N(CC2)CCN2C(NC(C)(C)C)=O)c1Cc(cc1)ccc1F

> <Color>
NOT COLORED

> <Collection>
DC

> <InChI>
InChI=1S/C25H34FN5O/c1-5-21-20(16-17-6-10-19(26)11-7-17)23(28-22(27-21)18-8-9-18)30-12-14-31(15-13-30)24(32)29-25(2,3)4/h6-7,10-11,18H,5,8-9,12-16H2,1-4H3,(H,29,32)

> <InChI Key>
ATGZXSWRUOXSIQ-UHFFFAOYSA-N

> <PERCENTSP3>
56

> <Link>
https://www.chemdiv.com/catalog/screening-compounds/compound-V029-4980F/

> <MFCDNUMBER>
MFCD19790228

> <CLNUMBER>
CV0037

> <STEREO>
ACHIRAL

> <State>
Solid

> <Similarity score>
0.23

$$$$
3-(6-fluoro-1,3,4,9-tetrahydro-2H-pyrido[3,4-b]indol-2-yl)-1-(2-methoxyphenyl)py
  -OEChem-04222410502D

 29 33  0     0  0  0  0  0  0999 V2000
    2.5976    0.2437    0.0000 N   0  0  0  0  0  0  0  0  0  0  0  0
    1.6226    0.4562    0.0000 C   0  0  0  0  0  0  0  0  0  0  0  0
    2.6811   -0.7520    0.0000 C   0  0  0  0  0  0  0  0  0  0  0  0
   -1.2813   -1.5435    0.0000 C   0  0  0  0  0  0  0  0  0  0  0  0
    1.1143   -0.4145    0.0000 C   0  0  3  0  0  0  0  0  0  0  0  0
   -1.8769   -0.7311    0.0000 C   0  0  0  0  0  0  0  0  0  0  0  0
    1.7936   -1.1561    0.0000 C   0  0  0  0  0  0  0  0  0  0  0  0
    0.1395   -0.5186    0.0000 N   0  0  3  0  0  0  0  0  0  0  0  0
   -1.8561   -2.3643    0.0000 N   0  0  0  0  0  0  0  0  0  0  0  0
   -2.8311   -1.0478    0.0000 C   0  0  0  0  0  0  0  0  0  0  0  0
   -2.8102   -2.0520    0.0000 C   0  0  0  0  0  0  0  0  0  0  0  0
    3.3184    0.9145    0.0000 C   0  0  0  0  0  0  0  0  0  0  0  0
   -0.2855   -1.4394    0.0000 C   0  0  0  0  0  0  0  0  0  0  0  0
   -1.4728    0.1939    0.0000 C   0  0  0  0  0  0  0  0  0  0  0  0
    1.1976    1.3603    0.0000 O   0  0  0  0  0  0  0  0  0  0  0  0
   -0.4562    0.3022    0.0000 C   0  0  0  0  0  0  0  0  0  0  0  0
    3.5517   -1.2394    0.0000 O   0  0  0  0  0  0  0  0  0  0  0  0
   -3.6809   -0.5603    0.0000 C   0  0  0  0  0  0  0  0  0  0  0  0
    4.2725    0.6062    0.0000 C   0  0  0  0  0  0  0  0  0  0  0  0
   -3.6809   -2.5561    0.0000 C   0  0  0  0  0  0  0  0  0  0  0  0
   -4.5477   -1.0478    0.0000 C   0  0  0  0  0  0  0  0  0  0  0  0
   -4.5477   -2.0520    0.0000 C   0  0  0  0  0  0  0  0  0  0  0  0
   -5.4183   -0.5478    0.0000 F   0  0  0  0  0  0  0  0  0  0  0  0
    4.4850   -0.3728    0.0000 O   0  0  0  0  0  0  0  0  0  0  0  0
    3.1061    1.8769    0.0000 C   0  0  0  0  0  0  0  0  0  0  0  0
    5.0142    1.2770    0.0000 C   0  0  0  0  0  0  0  0  0  0  0  0
    5.4183   -0.6770    0.0000 C   0  0  0  0  0  0  0  0  0  0  0  0
    3.8475    2.5561    0.0000 C   0  0  0  0  0  0  0  0  0  0  0  0
    4.8015    2.2520    0.0000 C   0  0  0  0  0  0  0  0  0  0  0  0
  1  2  1  0  0  0  0
  1  3  1  0  0  0  0
  4 13  1  0  0  0  0
  2  5  1  0  0  0  0
  5  7  1  0  0  0  0
  6 14  1  0  0  0  0
  4  6  2  0  0  0  0
  3  7  1  0  0  0  0
  5  8  1  0  0  0  0
  4  9  1  0  0  0  0
  6 10  1  0  0  0  0
 10 11  1  0  0  0  0
  9 11  1  0  0  0  0
  1 12  1  0  0  0  0
  8 13  1  0  0  0  0
 14 16  1  0  0  0  0
  2 15  2  0  0  0  0
  8 16  1  0  0  0  0
  3 17  2  0  0  0  0
 10 18  2  0  0  0  0
 12 19  2  0  0  0  0
 11 20  2  0  0  0  0
 18 21  1  0  0  0  0
 21 22  2  0  0  0  0
 20 22  1  0  0  0  0
 21 23  1  0  0  0  0
 19 24  1  0  0  0  0
 12 25  1  0  0  0  0
 19 26  1  0  0  0  0
 26 29  2  0  0  0  0
 24 27  1  0  0  0  0
 25 28  2  0  0  0  0
 28 29  1  0  0  0  0
M  END
> <IDNUMBER>
Y020-3931

> <available>
32

> <H_acceptor>
6

> <H_donor>
1

> <B_rotN>
3

> <N_O>
6

> <logP>
1.59

> <logD>
1.59

> <logSw>
-2.3454

> <PSA>
49.829

> <pKa_ma>
15.696

> <pKa_mb>
1.8149

> <N_Chirals>
1

> <Name>
3-(6-fluoro-1,3,4,9-tetrahydro-2H-pyrido[3,4-b]indol-2-yl)-1-(2-methoxyphenyl)pyrrolidine-2,5-dione

> <Smile>
COc(cccc1)c1N(C(CC1N(CC2)Cc3c2c(cc(cc2)F)c2[nH]3)=O)C1=O

> <Color>
NOT COLORED

> <Collection>
DC

> <InChI>
InChI=1S/C22H20FN3O3/c1-29-20-5-3-2-4-18(20)26-21(27)11-19(22(26)28)25-9-8-14-15-10-13(23)6-7-16(15)24-17(14)12-25/h2-7,10,19,24H,8-9,11-12H2,1H3/t19-/m0/s1

> <InChI Key>
NBEJFSCBNZMQRH-IBGZPJMESA-N

> <PERCENTSP3>
27.3

> <Link>
https://www.chemdiv.com/catalog/screening-compounds/compound-Y020-3931/

> <MFCDNUMBER>
MFCD13677017

> <CLNUMBER>
CL2165

> <STEREO>
RACEMIC MIXTURE

> <State>
Solid

> <Similarity score>
0.23

$$$$
5-[(5-chloro-2-fluorophenyl)methyl]-2-[2-(3,4-dihydroisoquinolin-2(1H)-yl)ethyl]
  -OEChem-04222410502D

 31 35  0     0  0  0  0  0  0999 V2000
   -0.0353    0.7710    0.0000 N   0  0  0  0  0  0  0  0  0  0  0  0
    1.5441    0.4333    0.0000 C   0  0  1  0  0  0  0  0  0  0  0  0
    1.0440   -0.4292    0.0000 C   0  0  2  0  0  0  0  0  0  0  0  0
    0.8813    1.1837    0.0000 C   0  0  0  0  0  0  0  0  0  0  0  0
    0.0688   -0.2167    0.0000 C   0  0  0  0  0  0  0  0  0  0  0  0
    2.6319   -0.7669    0.0000 N   0  0  0  0  0  0  0  0  0  0  0  0
    3.4947   -2.2673    0.0000 C   0  0  0  0  0  0  0  0  0  0  0  0
    2.5278    0.2252    0.0000 C   0  0  0  0  0  0  0  0  0  0  0  0
    1.7192   -1.1754    0.0000 C   0  0  0  0  0  0  0  0  0  0  0  0
   -0.8982    1.2712    0.0000 C   0  0  0  0  0  0  0  0  0  0  0  0
   -1.7692    2.7716    0.0000 N   0  0  0  0  0  0  0  0  0  0  0  0
    3.4947   -1.2669    0.0000 C   0  0  0  0  0  0  0  0  0  0  0  0
    1.0898    2.1587    0.0000 O   0  0  0  0  0  0  0  0  0  0  0  0
   -0.6730   -0.8918    0.0000 O   0  0  0  0  0  0  0  0  0  0  0  0
   -3.4987    2.7716    0.0000 C   0  0  0  0  0  0  0  0  0  0  0  0
    4.3655   -2.7675    0.0000 C   0  0  0  0  0  0  0  0  0  0  0  0
   -2.6319    2.2714    0.0000 C   0  0  0  0  0  0  0  0  0  0  0  0
    2.6319   -2.7675    0.0000 C   0  0  0  0  0  0  0  0  0  0  0  0
   -3.4987    3.7717    0.0000 C   0  0  0  0  0  0  0  0  0  0  0  0
   -0.8982    2.2714    0.0000 C   0  0  0  0  0  0  0  0  0  0  0  0
   -2.6319    4.2678    0.0000 C   0  0  0  0  0  0  0  0  0  0  0  0
    4.3655   -3.7676    0.0000 C   0  0  0  0  0  0  0  0  0  0  0  0
   -1.7692    3.7717    0.0000 C   0  0  0  0  0  0  0  0  0  0  0  0
    2.6319   -3.7676    0.0000 C   0  0  0  0  0  0  0  0  0  0  0  0
    5.2325   -2.2673    0.0000 F   0  0  0  0  0  0  0  0  0  0  0  0
    3.4947   -4.2678    0.0000 C   0  0  0  0  0  0  0  0  0  0  0  0
    1.7650   -4.2678    0.0000 Cl  0  0  0  0  0  0  0  0  0  0  0  0
   -4.3698    2.2714    0.0000 C   0  0  0  0  0  0  0  0  0  0  0  0
   -4.3698    4.2678    0.0000 C   0  0  0  0  0  0  0  0  0  0  0  0
   -5.2325    2.7716    0.0000 C   0  0  0  0  0  0  0  0  0  0  0  0
   -5.2325    3.7717    0.0000 C   0  0  0  0  0  0  0  0  0  0  0  0
  2  4  1  0  0  0  0
  2  8  1  1  0  0  0
  2  3  1  0  0  0  0
  3  5  1  0  0  0  0
  3  9  1  1  0  0  0
  1  4  1  0  0  0  0
  1  5  1  0  0  0  0
  6  9  1  0  0  0  0
  6  8  1  0  0  0  0
  7 12  1  0  0  0  0
  1 10  1  0  0  0  0
 11 20  1  0  0  0  0
  6 12  1  0  0  0  0
  4 13  2  0  0  0  0
  5 14  2  0  0  0  0
 15 17  1  0  0  0  0
 15 19  2  0  0  0  0
  7 16  2  0  0  0  0
 11 17  1  0  0  0  0
  7 18  1  0  0  0  0
 19 21  1  0  0  0  0
 10 20  1  0  0  0  0
 21 23  1  0  0  0  0
 16 22  1  0  0  0  0
 11 23  1  0  0  0  0
 18 24  2  0  0  0  0
 16 25  1  0  0  0  0
 24 26  1  0  0  0  0
 22 26  2  0  0  0  0
 24 27  1  0  0  0  0
 15 28  1  0  0  0  0
 19 29  1  0  0  0  0
 28 30  2  0  0  0  0
 29 31  2  0  0  0  0
 30 31  1  0  0  0  0
M  END
> <IDNUMBER>
S296-2551

> <available>
10

> <H_acceptor>
6

> <H_donor>
0

> <B_rotN>
5

> <N_O>
5

> <logP>
3.1908

> <logD>
2.5211

> <logSw>
-3.4535

> <PSA>
37.079

> <pKa_ma>
18.9296

> <pKa_mb>
7.9651

> <N_Chirals>
0

> <Name>
5-[(5-chloro-2-fluorophenyl)methyl]-2-[2-(3,4-dihydroisoquinolin-2(1H)-yl)ethyl]tetrahydropyrrolo[3,4-c]pyrrole-1,3(2H,3aH)-dione

> <Smile>
O=C([C@H]1[C@@H]2CN(Cc(cc(cc3)Cl)c3F)C1)N(CCN(CC1)Cc3c1cccc3)C2=O

> <Color>
NOT COLORED

> <Collection>
IC

> <InChI>
InChI=1S/C24H25ClFN3O2/c25-19-5-6-22(26)18(11-19)13-28-14-20-21(15-28)24(31)29(23(20)30)10-9-27-8-7-16-3-1-2-4-17(16)12-27/h1-6,11,20-21H,7-10,12-15H2/t20-,21+

> <InChI Key>
XSGRYDBVWFFELZ-OYRHEFFESA-N

> <PERCENTSP3>
41.7

> <Link>
https://www.chemdiv.com/catalog/screening-compounds/compound-S296-2551/

> <CLNUMBER>
CM2464

> <STEREO>
ACHIRAL

> <State>
Solid

> <Similarity score>
0.23

$$$$
2-(4-methoxyphenyl)-4-[4-(propan-2-yl)piperazin-1-yl]-5,6,8,9-tetrahydrooxepino[
  -OEChem-04222410502D

 28 31  0     0  0  0  0  0  0999 V2000
   -0.7943    1.6311    0.0000 C   0  0  0  0  0  0  0  0  0  0  0  0
   -0.8665    0.6313    0.0000 N   0  0  0  0  0  0  0  0  0  0  0  0
   -1.6125    2.2015    0.0000 C   0  0  0  0  0  0  0  0  0  0  0  0
   -1.7724    0.1928    0.0000 C   0  0  0  0  0  0  0  0  0  0  0  0
   -2.5903    0.7631    0.0000 N   0  0  0  0  0  0  0  0  0  0  0  0
    0.1113    2.0699    0.0000 N   0  0  0  0  0  0  0  0  0  0  0  0
   -2.5213    1.7627    0.0000 C   0  0  0  0  0  0  0  0  0  0  0  0
    1.9164    2.9287    0.0000 N   0  0  0  0  0  0  0  0  0  0  0  0
   -1.8443   -0.7977    0.0000 C   0  0  0  0  0  0  0  0  0  0  0  0
    0.1834    3.0602    0.0000 C   0  0  0  0  0  0  0  0  0  0  0  0
    0.9387    1.4996    0.0000 C   0  0  0  0  0  0  0  0  0  0  0  0
    1.0890    3.4990    0.0000 C   0  0  0  0  0  0  0  0  0  0  0  0
    1.8380    1.9384    0.0000 C   0  0  0  0  0  0  0  0  0  0  0  0
   -3.0290    3.9503    0.0000 O   0  0  0  0  0  0  0  0  0  0  0  0
   -2.7469   -1.2362    0.0000 C   0  0  0  0  0  0  0  0  0  0  0  0
   -1.0201   -1.3585    0.0000 C   0  0  0  0  0  0  0  0  0  0  0  0
    2.8095    3.3674    0.0000 C   0  0  0  0  0  0  0  0  0  0  0  0
   -3.4269    2.2015    0.0000 C   0  0  0  0  0  0  0  0  0  0  0  0
   -1.3962    3.1730    0.0000 C   0  0  0  0  0  0  0  0  0  0  0  0
   -1.9979   -2.7971    0.0000 C   0  0  0  0  0  0  0  0  0  0  0  0
   -2.8158   -2.2268    0.0000 C   0  0  0  0  0  0  0  0  0  0  0  0
   -1.0920   -2.3583    0.0000 C   0  0  0  0  0  0  0  0  0  0  0  0
   -2.0701   -3.7874    0.0000 O   0  0  0  0  0  0  0  0  0  0  0  0
   -3.6432    3.1730    0.0000 C   0  0  0  0  0  0  0  0  0  0  0  0
   -2.0229    3.9503    0.0000 C   0  0  0  0  0  0  0  0  0  0  0  0
    2.8942    4.3577    0.0000 C   0  0  0  0  0  0  0  0  0  0  0  0
    3.6432    2.8064    0.0000 C   0  0  0  0  0  0  0  0  0  0  0  0
   -1.2426   -4.3577    0.0000 C   0  0  0  0  0  0  0  0  0  0  0  0
  1  2  2  0  0  0  0
  1  3  1  0  0  0  0
  2  4  1  0  0  0  0
  5  7  1  0  0  0  0
  4  5  2  0  0  0  0
  1  6  1  0  0  0  0
  3  7  2  0  0  0  0
  8 13  1  0  0  0  0
  4  9  1  0  0  0  0
  6 10  1  0  0  0  0
  6 11  1  0  0  0  0
 10 12  1  0  0  0  0
  8 12  1  0  0  0  0
 11 13  1  0  0  0  0
 14 25  1  0  0  0  0
  9 15  2  0  0  0  0
  9 16  1  0  0  0  0
  8 17  1  0  0  0  0
  7 18  1  0  0  0  0
  3 19  1  0  0  0  0
 20 22  1  0  0  0  0
 15 21  1  0  0  0  0
 20 21  2  0  0  0  0
 16 22  2  0  0  0  0
 20 23  1  0  0  0  0
 18 24  1  0  0  0  0
 14 24  1  0  0  0  0
 19 25  1  0  0  0  0
 17 26  1  0  0  0  0
 17 27  1  0  0  0  0
 23 28  1  0  0  0  0
M  END
> <IDNUMBER>
S896-0142

> <available>
123

> <H_acceptor>
5

> <H_donor>
0

> <B_rotN>
4

> <N_O>
6

> <logP>
4.4056

> <logD>
2.7295

> <logSw>
-4.321

> <PSA>
42.992

> <pKa_ma>
19.7965

> <pKa_mb>
9.0668

> <N_Chirals>
0

> <Name>
2-(4-methoxyphenyl)-4-[4-(propan-2-yl)piperazin-1-yl]-5,6,8,9-tetrahydrooxepino[4,5-d]pyrimidine

> <Smile>
CC(C)N(CC1)CCN1c1nc(-c(cc2)ccc2OC)nc2c1CCOCC2

> <Color>
BROWN

> <Collection>
IC

> <InChI>
InChI=1S/C22H30N4O2/c1-16(2)25-10-12-26(13-11-25)22-19-8-14-28-15-9-20(19)23-21(24-22)17-4-6-18(27-3)7-5-17/h4-7,16H,8-15H2,1-3H3

> <InChI Key>
SLBPAOIDZGTIBV-UHFFFAOYSA-N

> <PERCENTSP3>
54.54

> <Link>
https://www.chemdiv.com/catalog/screening-compounds/compound-S896-0142/

> <MFCDNUMBER>
MFCD31956796

> <CLNUMBER>
CM3993

> <STEREO>
ACHIRAL

> <State>
Solid

> <Similarity score>
0.23

$$$$
4-[(2,6-difluorophenyl)methyl]-5,8-difluoro-7-(piperidin-1-yl)-3,4-dihydro-1lamb
  -OEChem-04222410502D

 29 32  0     0  0  0  0  0  0999 V2000
    0.4307   -1.2488    0.0000 C   0  0  0  0  0  0  0  0  0  0  0  0
    1.2979   -1.7494    0.0000 S   0  0  0  0  0  0  0  0  0  0  0  0
   -0.4365   -1.7494    0.0000 C   0  0  0  0  0  0  0  0  0  0  0  0
    0.4307   -0.2534    0.0000 C   0  0  0  0  0  0  0  0  0  0  0  0
   -1.3040   -1.2488    0.0000 C   0  0  0  0  0  0  0  0  0  0  0  0
   -1.3040   -0.2534    0.0000 N   0  0  0  0  0  0  0  0  0  0  0  0
    1.2979    0.2473    0.0000 N   0  0  0  0  0  0  0  0  0  0  0  0
   -0.4365    0.2473    0.0000 C   0  0  0  0  0  0  0  0  0  0  0  0
    2.1651    1.7494    0.0000 C   0  0  0  0  0  0  0  0  0  0  0  0
    1.2979    1.2488    0.0000 C   0  0  0  0  0  0  0  0  0  0  0  0
    2.1651   -1.2488    0.0000 C   0  0  0  0  0  0  0  0  0  0  0  0
   -2.1712   -1.7494    0.0000 N   0  0  0  0  0  0  0  0  0  0  0  0
    2.1651   -0.2534    0.0000 C   0  0  0  0  0  0  0  0  0  0  0  0
    2.1651   -2.2501    0.0000 O   0  0  0  0  0  0  0  0  0  0  0  0
    0.4307   -2.2501    0.0000 O   0  0  0  0  0  0  0  0  0  0  0  0
    3.0326    1.2488    0.0000 C   0  0  0  0  0  0  0  0  0  0  0  0
    2.1651    2.7509    0.0000 C   0  0  0  0  0  0  0  0  0  0  0  0
   -0.4365   -2.7448    0.0000 F   0  0  0  0  0  0  0  0  0  0  0  0
   -0.4365    1.2488    0.0000 F   0  0  0  0  0  0  0  0  0  0  0  0
    1.3040    3.2516    0.0000 F   0  0  0  0  0  0  0  0  0  0  0  0
    3.0326    0.2534    0.0000 F   0  0  0  0  0  0  0  0  0  0  0  0
   -3.0384   -1.2488    0.0000 C   0  0  0  0  0  0  0  0  0  0  0  0
   -2.1712   -2.7509    0.0000 C   0  0  0  0  0  0  0  0  0  0  0  0
    3.8998    2.7509    0.0000 C   0  0  0  0  0  0  0  0  0  0  0  0
    3.0326    3.2516    0.0000 C   0  0  0  0  0  0  0  0  0  0  0  0
    3.8998    1.7494    0.0000 C   0  0  0  0  0  0  0  0  0  0  0  0
   -3.8998   -1.7494    0.0000 C   0  0  0  0  0  0  0  0  0  0  0  0
   -3.0384   -3.2516    0.0000 C   0  0  0  0  0  0  0  0  0  0  0  0
   -3.8998   -2.7509    0.0000 C   0  0  0  0  0  0  0  0  0  0  0  0
  1  2  1  0  0  0  0
  1  3  1  0  0  0  0
  1  4  2  0  0  0  0
  3  5  2  0  0  0  0
  6  8  2  0  0  0  0
  5  6  1  0  0  0  0
  4  7  1  0  0  0  0
  4  8  1  0  0  0  0
  9 10  1  0  0  0  0
  7 10  1  0  0  0  0
  2 11  1  0  0  0  0
  5 12  1  0  0  0  0
  7 13  1  0  0  0  0
 11 13  1  0  0  0  0
  2 14  2  0  0  0  0
  2 15  2  0  0  0  0
  9 16  2  0  0  0  0
  9 17  1  0  0  0  0
  3 18  1  0  0  0  0
  8 19  1  0  0  0  0
 17 20  1  0  0  0  0
 16 21  1  0  0  0  0
 12 22  1  0  0  0  0
 12 23  1  0  0  0  0
 24 25  1  0  0  0  0
 24 26  2  0  0  0  0
 17 25  2  0  0  0  0
 16 26  1  0  0  0  0
 22 27  1  0  0  0  0
 23 28  1  0  0  0  0
 28 29  1  0  0  0  0
 27 29  1  0  0  0  0
M  END
> <IDNUMBER>
8610-0654

> <available>
74

> <H_acceptor>
5

> <H_donor>
0

> <B_rotN>
3

> <N_O>
5

> <logP>
3.8125

> <logD>
3.8125

> <logSw>
-4.0223

> <PSA>
47.137

> <pKa_ma>
21.3867

> <pKa_mb>
0.527

> <N_Chirals>
0

> <Name>
4-[(2,6-difluorophenyl)methyl]-5,8-difluoro-7-(piperidin-1-yl)-3,4-dihydro-1lambda~6~-pyrido[4,3-b][1,4]thiazine-1,1(2H)-dione

> <Smile>
O=S(CCN(Cc(c(F)ccc1)c1F)c1c(nc2N3CCCCC3)F)(c1c2F)=O

> <Color>
NOT COLORED

> <Collection>
DC

> <InChI>
InChI=1S/C19H19F4N3O2S/c20-13-5-4-6-14(21)12(13)11-26-9-10-29(27,28)17-15(22)19(24-18(23)16(17)26)25-7-2-1-3-8-25/h4-6H,1-3,7-11H2

> <InChI Key>
KNTZNEPRCXQUQI-UHFFFAOYSA-N

> <PERCENTSP3>
42.1

> <Link>
https://www.chemdiv.com/catalog/screening-compounds/compound-8610-0654/

> <MFCDNUMBER>
MFCD08053449

> <STEREO>
ACHIRAL

> <State>
Solid

> <Similarity score>
0.23

$$$$
N-(4-ethylphenyl)-2-(9-fluoro-6-methyl-10-oxo-3,4,5,10-tetrahydrobenzo[b][1,6]na
  -OEChem-04222410502D

 29 32  0     0  0  0  0  0  0999 V2000
   -0.4731   -1.9516    0.0000 C   0  0  0  0  0  0  0  0  0  0  0  0
   -1.3281   -1.4595    0.0000 C   0  0  0  0  0  0  0  0  0  0  0  0
   -2.2115   -1.9516    0.0000 C   0  0  0  0  0  0  0  0  0  0  0  0
   -1.3563   -3.4423    0.0000 N   0  0  0  0  0  0  0  0  0  0  0  0
   -2.2115   -2.9381    0.0000 C   0  0  0  0  0  0  0  0  0  0  0  0
   -0.4731   -2.9569    0.0000 C   0  0  0  0  0  0  0  0  0  0  0  0
    1.3093   -1.9516    0.0000 N   0  0  0  0  0  0  0  0  0  0  0  0
    0.4385   -1.4783    0.0000 C   0  0  0  0  0  0  0  0  0  0  0  0
    2.1958   -0.4948    0.0000 C   0  0  0  0  0  0  0  0  0  0  0  0
   -3.0980   -1.4783    0.0000 C   0  0  0  0  0  0  0  0  0  0  0  0
    0.4258   -3.4423    0.0000 C   0  0  0  0  0  0  0  0  0  0  0  0
   -3.0980   -3.4235    0.0000 C   0  0  0  0  0  0  0  0  0  0  0  0
   -1.3281   -0.4760    0.0000 O   0  0  0  0  0  0  0  0  0  0  0  0
    3.0978   -0.0064    0.0000 N   0  0  0  0  0  0  0  0  0  0  0  0
    2.1958   -1.4783    0.0000 C   0  0  0  0  0  0  0  0  0  0  0  0
    1.3093   -0.0064    0.0000 O   0  0  0  0  0  0  0  0  0  0  0  0
    1.3093   -2.9569    0.0000 C   0  0  0  0  0  0  0  0  0  0  0  0
   -3.9718   -1.9516    0.0000 C   0  0  0  0  0  0  0  0  0  0  0  0
   -3.9718   -2.9381    0.0000 C   0  0  0  0  0  0  0  0  0  0  0  0
    3.0978    0.9741    0.0000 C   0  0  0  0  0  0  0  0  0  0  0  0
   -3.0980   -0.4666    0.0000 F   0  0  0  0  0  0  0  0  0  0  0  0
    3.0978    2.9193    0.0000 C   0  0  0  0  0  0  0  0  0  0  0  0
    3.9718    1.4501    0.0000 C   0  0  0  0  0  0  0  0  0  0  0  0
    2.2207    1.4501    0.0000 C   0  0  0  0  0  0  0  0  0  0  0  0
    2.2207    2.4370    0.0000 C   0  0  0  0  0  0  0  0  0  0  0  0
    3.9718    2.4370    0.0000 C   0  0  0  0  0  0  0  0  0  0  0  0
   -3.1074   -4.4228    0.0000 C   0  0  0  0  0  0  0  0  0  0  0  0
    3.0978    3.9217    0.0000 C   0  0  0  0  0  0  0  0  0  0  0  0
    3.9530    4.4228    0.0000 C   0  0  0  0  0  0  0  0  0  0  0  0
  1  2  1  0  0  0  0
  2  3  1  0  0  0  0
  3  5  1  0  0  0  0
  4  6  1  0  0  0  0
  4  5  1  0  0  0  0
  1  6  2  0  0  0  0
  7  8  1  0  0  0  0
  1  8  1  0  0  0  0
  9 15  1  0  0  0  0
  3 10  2  0  0  0  0
  6 11  1  0  0  0  0
 11 17  1  0  0  0  0
  5 12  2  0  0  0  0
  2 13  2  0  0  0  0
  9 14  1  0  0  0  0
  7 15  1  0  0  0  0
  9 16  2  0  0  0  0
  7 17  1  0  0  0  0
 10 18  1  0  0  0  0
 18 19  2  0  0  0  0
 12 19  1  0  0  0  0
 14 20  1  0  0  0  0
 10 21  1  0  0  0  0
 22 25  2  0  0  0  0
 22 26  1  0  0  0  0
 20 23  1  0  0  0  0
 20 24  2  0  0  0  0
 24 25  1  0  0  0  0
 23 26  2  0  0  0  0
 12 27  1  0  0  0  0
 22 28  1  0  0  0  0
 28 29  1  0  0  0  0
M  END
> <IDNUMBER>
L489-1875

> <available>
80

> <H_acceptor>
5

> <H_donor>
2

> <B_rotN>
5

> <N_O>
5

> <logP>
4.5299

> <logD>
3.6329

> <logSw>
-4.3129

> <PSA>
48.811

> <pKa_ma>
6.5619

> <pKa_mb>
1.3454

> <N_Chirals>
0

> <Name>
N-(4-ethylphenyl)-2-(9-fluoro-6-methyl-10-oxo-3,4,5,10-tetrahydrobenzo[b][1,6]naphthyridin-2(1H)-yl)acetamide

> <Smile>
CCc(cc1)ccc1NC(CN(CC1)CC2=C1Nc1c(C)ccc(F)c1C2=O)=O

> <Color>
YELLOW

> <Collection>
NC

> <InChI>
InChI=1S/C23H24FN3O2/c1-3-15-5-7-16(8-6-15)25-20(28)13-27-11-10-19-17(12-27)23(29)21-18(24)9-4-14(2)22(21)26-19/h4-9H,3,10-13H2,1-2H3,(H,25,28)(H,26,29)

> <InChI Key>
OTIAHRQWKFYHIZ-UHFFFAOYSA-N

> <PERCENTSP3>
30.4

> <Link>
https://www.chemdiv.com/catalog/screening-compounds/compound-L489-1875/

> <MFCDNUMBER>
MFCD27457661

> <CLNUMBER>
CL8213A

> <STEREO>
ACHIRAL

> <State>
Solid

> <Similarity score>
0.23

$$$$
2-{4-[4-cyano-1-(2-methylpropyl)-6,7-dihydro-5H-cyclopenta[c]pyridin-3-yl]pipera
  -OEChem-04222410502D

 35 39  0     0  0  0  0  0  0999 V2000
   -1.8237   -1.2631    0.0000 C   0  0  0  0  0  0  0  0  0  0  0  0
   -2.6867   -0.7628    0.0000 C   0  0  0  0  0  0  0  0  0  0  0  0
   -1.8237   -2.2637    0.0000 N   0  0  0  0  0  0  0  0  0  0  0  0
   -2.6867   -2.7639    0.0000 C   0  0  0  0  0  0  0  0  0  0  0  0
   -3.5541   -1.2631    0.0000 C   0  0  0  0  0  0  0  0  0  0  0  0
   -0.9608   -0.7628    0.0000 N   0  0  0  0  0  0  0  0  0  0  0  0
   -3.5621   -2.2637    0.0000 C   0  0  0  0  0  0  0  0  0  0  0  0
   -2.6867    0.2376    0.0000 C   0  0  0  0  0  0  0  0  0  0  0  0
    2.5075    2.2512    0.0000 N   0  0  0  0  0  0  0  0  0  0  0  0
    1.6445    1.7509    0.0000 C   0  0  0  0  0  0  0  0  0  0  0  0
    2.5075    3.2683    0.0000 C   0  0  0  0  0  0  0  0  0  0  0  0
   -2.6867    1.2381    0.0000 N   0  0  0  0  0  0  0  0  0  0  0  0
    0.7816    0.2376    0.0000 N   0  0  0  0  0  0  0  0  0  0  0  0
    3.3703    3.7643    0.0000 C   0  0  0  0  0  0  0  0  0  0  0  0
   -2.6867   -3.7602    0.0000 C   0  0  0  0  0  0  0  0  0  0  0  0
   -0.9608    0.2376    0.0000 C   0  0  0  0  0  0  0  0  0  0  0  0
   -0.0981   -1.2631    0.0000 C   0  0  0  0  0  0  0  0  0  0  0  0
    1.6445    0.7503    0.0000 C   0  0  0  0  0  0  0  0  0  0  0  0
    0.7816    2.2512    0.0000 O   0  0  0  0  0  0  0  0  0  0  0  0
    0.7816   -0.7628    0.0000 C   0  0  0  0  0  0  0  0  0  0  0  0
   -0.0981    0.7378    0.0000 C   0  0  0  0  0  0  0  0  0  0  0  0
    3.3703    4.7606    0.0000 C   0  0  0  0  0  0  0  0  0  0  0  0
   -4.5000   -0.9463    0.0000 C   0  0  0  0  0  0  0  0  0  0  0  0
   -4.5170   -2.5637    0.0000 C   0  0  0  0  0  0  0  0  0  0  0  0
    1.6445    3.7643    0.0000 C   0  0  0  0  0  0  0  0  0  0  0  0
   -5.0962   -1.7591    0.0000 C   0  0  0  0  0  0  0  0  0  0  0  0
    1.6445    4.7606    0.0000 C   0  0  0  0  0  0  0  0  0  0  0  0
   -3.5621   -4.2603    0.0000 C   0  0  0  0  0  0  0  0  0  0  0  0
    4.2334    3.2683    0.0000 C   0  0  0  0  0  0  0  0  0  0  0  0
    2.5075    5.2609    0.0000 C   0  0  0  0  0  0  0  0  0  0  0  0
    4.2334    5.2609    0.0000 C   0  0  0  0  0  0  0  0  0  0  0  0
   -4.4251   -3.7602    0.0000 C   0  0  0  0  0  0  0  0  0  0  0  0
   -3.5621   -5.2609    0.0000 C   0  0  0  0  0  0  0  0  0  0  0  0
    5.0962    3.7643    0.0000 C   0  0  0  0  0  0  0  0  0  0  0  0
    5.0962    4.7606    0.0000 C   0  0  0  0  0  0  0  0  0  0  0  0
  1  2  2  0  0  0  0
  1  3  1  0  0  0  0
  3  4  2  0  0  0  0
  2  5  1  0  0  0  0
  1  6  1  0  0  0  0
  4  7  1  0  0  0  0
  5  7  2  0  0  0  0
  2  8  1  0  0  0  0
  9 10  1  0  0  0  0
 10 18  1  0  0  0  0
  9 11  1  0  0  0  0
  8 12  3  0  0  0  0
 13 20  1  0  0  0  0
 13 21  1  0  0  0  0
 11 14  2  0  0  0  0
  4 15  1  0  0  0  0
  6 16  1  0  0  0  0
  6 17  1  0  0  0  0
 13 18  1  0  0  0  0
 10 19  2  0  0  0  0
 17 20  1  0  0  0  0
 16 21  1  0  0  0  0
 14 22  1  0  0  0  0
 22 30  2  0  0  0  0
  5 23  1  0  0  0  0
  7 24  1  0  0  0  0
 11 25  1  0  0  0  0
 23 26  1  0  0  0  0
 24 26  1  0  0  0  0
 25 27  2  0  0  0  0
 15 28  1  0  0  0  0
 14 29  1  0  0  0  0
 27 30  1  0  0  0  0
 22 31  1  0  0  0  0
 28 32  1  0  0  0  0
 28 33  1  0  0  0  0
 29 34  2  0  0  0  0
 34 35  1  0  0  0  0
 31 35  2  0  0  0  0
M  END
> <IDNUMBER>
IB07-8271

> <available>
50

> <H_acceptor>
5

> <H_donor>
1

> <B_rotN>
8

> <N_O>
6

> <logP>
5.83

> <logD>
5.75

> <logSw>
-6.5

> <PSA>
89.37

> <pKa_ma>
11.87

> <pKa_mb>
6.7

> <N_Chirals>
0

> <Name>
2-{4-[4-cyano-1-(2-methylpropyl)-6,7-dihydro-5H-cyclopenta[c]pyridin-3-yl]piperazin-1-yl}-N-(naphthalen-1-yl)acetamide

> <Smile>
CC(C)Cc(nc1N2CCN(CC(Nc3cccc4ccccc34)=O)CC2)c(CCC2)c2c1C#N

> <Color>
NOT COLORED

> <Collection>
DC

> <InChI>
InChI=1S/C29H33N5O/c1-20(2)17-27-24-11-6-10-23(24)25(18-30)29(32-27)34-15-13-33(14-16-34)19-28(35)31-26-12-5-8-21-7-3-4-9-22(21)26/h3-5,7-9,12,20H,6,10-11,13-17,19H2,1-2H3,(H,31,35)

> <InChI Key>
XFCMUFICBXEFGY-UHFFFAOYSA-N

> <PERCENTSP3>
41.4

> <Link>
https://www.chemdiv.com/catalog/screening-compounds/compound-IB07-8271/

> <STEREO>
ACHIRAL

> <State>
Solid

> <Similarity score>
0.23

$$$$
rel-(3R,4R)-N-cyclopropyl-1-[(2,6-difluorophenyl)methyl]-4-(methoxymethyl)pyrrol
  -OEChem-04222410502D

 23 25  0     0  0  0  0  0  0999 V2000
    0.2936    1.2353    0.0000 C   0  0  1  0  0  0  0  0  0  0  0  0
    0.2936    2.2434    0.0000 C   0  0  0  0  0  0  0  0  0  0  0  0
   -1.7683   -1.0186    0.0000 C   0  0  0  0  0  0  0  0  0  0  0  0
   -0.1937   -0.3062    0.0000 N   0  0  0  0  0  0  0  0  0  0  0  0
    1.1143    0.6561    0.0000 C   0  0  1  0  0  0  0  0  0  0  0  0
   -0.5812    2.7309    0.0000 N   0  0  0  0  0  0  0  0  0  0  0  0
   -0.7729   -1.1186    0.0000 C   0  0  0  0  0  0  0  0  0  0  0  0
   -0.5062    0.6438    0.0000 C   0  0  0  0  0  0  0  0  0  0  0  0
    0.8061   -0.2936    0.0000 C   0  0  0  0  0  0  0  0  0  0  0  0
   -1.4435    2.2309    0.0000 C   0  0  0  0  0  0  0  0  0  0  0  0
   -2.3559   -1.8310    0.0000 C   0  0  0  0  0  0  0  0  0  0  0  0
   -2.1810   -0.1062    0.0000 C   0  0  0  0  0  0  0  0  0  0  0  0
   -2.4434    2.2184    0.0000 C   0  0  0  0  0  0  0  0  0  0  0  0
   -1.9309    1.3560    0.0000 C   0  0  0  0  0  0  0  0  0  0  0  0
    1.1561    2.7433    0.0000 O   0  0  0  0  0  0  0  0  0  0  0  0
   -1.5977    0.7062    0.0000 F   0  0  0  0  0  0  0  0  0  0  0  0
   -1.9352   -2.7433    0.0000 F   0  0  0  0  0  0  0  0  0  0  0  0
    2.0559    0.9686    0.0000 C   0  0  0  0  0  0  0  0  0  0  0  0
    2.8057    0.3062    0.0000 O   0  0  0  0  0  0  0  0  0  0  0  0
   -3.7557   -0.8187    0.0000 C   0  0  0  0  0  0  0  0  0  0  0  0
   -3.3433   -1.7310    0.0000 C   0  0  0  0  0  0  0  0  0  0  0  0
   -3.1807   -0.0063    0.0000 C   0  0  0  0  0  0  0  0  0  0  0  0
    3.7557    0.6229    0.0000 C   0  0  0  0  0  0  0  0  0  0  0  0
  1  2  1  1  0  0  0
  3  7  1  0  0  0  0
  4  8  1  0  0  0  0
  4  9  1  0  0  0  0
  1  5  1  0  0  0  0
  5 18  1  6  0  0  0
  2  6  1  0  0  0  0
  4  7  1  0  0  0  0
  1  8  1  0  0  0  0
  5  9  1  0  0  0  0
  6 10  1  0  0  0  0
  3 11  1  0  0  0  0
  3 12  2  0  0  0  0
 10 13  1  0  0  0  0
 13 14  1  0  0  0  0
 10 14  1  0  0  0  0
  2 15  2  0  0  0  0
 12 16  1  0  0  0  0
 11 17  1  0  0  0  0
 18 19  1  0  0  0  0
 20 22  2  0  0  0  0
 11 21  2  0  0  0  0
 20 21  1  0  0  0  0
 12 22  1  0  0  0  0
 19 23  1  0  0  0  0
M  END
> <IDNUMBER>
S836-6181

> <available>
3

> <H_acceptor>
4

> <H_donor>
1

> <B_rotN>
7

> <N_O>
4

> <logP>
1.8092

> <logD>
0.0705

> <logSw>
-2.4649

> <PSA>
37.097

> <pKa_ma>
12.3863

> <pKa_mb>
9.1307

> <N_Chirals>
2

> <Name>
rel-(3R,4R)-N-cyclopropyl-1-[(2,6-difluorophenyl)methyl]-4-(methoxymethyl)pyrrolidine-3-carboxamide

> <Smile>
COC[C@@H](CN(Cc(c(F)ccc1)c1F)C1)[C@H]1C(NC1CC1)=O

> <Color>
NOT COLORED

> <Collection>
IC

> <InChI>
InChI=1S/C17H22F2N2O2/c1-23-10-11-7-21(8-13(11)17(22)20-12-5-6-12)9-14-15(18)3-2-4-16(14)19/h2-4,11-13H,5-10H2,1H3,(H,20,22)/t11-,13+/m0/s1

> <InChI Key>
ROOSJTJOESJGMV-WCQYABFASA-N

> <PERCENTSP3>
58.82

> <Link>
https://www.chemdiv.com/catalog/screening-compounds/compound-S836-6181/

> <CLNUMBER>
CM4497

> <STEREO>
RELATIVE

> <State>
Solid

> <Similarity score>
0.23

$$$$
2,2,2-trifluoroethyl 2-{[2-(5-fluoro-2-methyl-1H-indol-3-yl)ethyl]carbamoyl}cycl
  -OEChem-04222410502D

 30 32  0     0  0  0  0  0  0999 V2000
    4.2060    1.2993    0.0000 N   0  0  0  0  0  0  0  0  0  0  0  0
    2.5968    1.1289    0.0000 C   0  0  0  0  0  0  0  0  0  0  0  0
    3.3397    1.7995    0.0000 C   0  0  0  0  0  0  0  0  0  0  0  0
    3.0008    0.2157    0.0000 C   0  0  0  0  0  0  0  0  0  0  0  0
    3.9955    0.3208    0.0000 C   0  0  0  0  0  0  0  0  0  0  0  0
   -3.6313    0.6814    0.0000 C   0  0  0  0  0  0  0  0  0  0  0  0
   -2.0348   -1.4278    0.0000 C   0  0  0  0  0  0  0  0  0  0  0  0
   -1.0563   -1.6361    0.0000 C   0  0  3  0  0  0  0  0  0  0  0  0
   -0.3914   -0.8935    0.0000 C   0  0  3  0  0  0  0  0  0  0  0  0
   -0.7013    0.0599    0.0000 C   0  0  0  0  0  0  0  0  0  0  0  0
   -2.3447   -0.4802    0.0000 O   0  0  0  0  0  0  0  0  0  0  0  0
    2.5968   -0.7011    0.0000 C   0  0  0  0  0  0  0  0  0  0  0  0
   -2.7052   -2.1709    0.0000 O   0  0  0  0  0  0  0  0  0  0  0  0
   -1.6744    0.2645    0.0000 O   0  0  0  0  0  0  0  0  0  0  0  0
    4.5826   -0.4891    0.0000 C   0  0  0  0  0  0  0  0  0  0  0  0
   -3.3233   -0.2717    0.0000 C   0  0  0  0  0  0  0  0  0  0  0  0
   -0.0306    0.7992    0.0000 N   0  0  0  0  0  0  0  0  0  0  0  0
   -2.6835    0.9911    0.0000 F   0  0  0  0  0  0  0  0  0  0  0  0
   -3.9392    1.6344    0.0000 F   0  0  0  0  0  0  0  0  0  0  0  0
   -4.5826    0.3732    0.0000 F   0  0  0  0  0  0  0  0  0  0  0  0
    3.1838   -1.5111    0.0000 C   0  0  0  0  0  0  0  0  0  0  0  0
    1.6182    1.3391    0.0000 C   0  0  0  0  0  0  0  0  0  0  0  0
    4.1788   -1.4061    0.0000 C   0  0  0  0  0  0  0  0  0  0  0  0
    2.7743   -2.4226    0.0000 F   0  0  0  0  0  0  0  0  0  0  0  0
    3.2345    2.7960    0.0000 C   0  0  0  0  0  0  0  0  0  0  0  0
    0.9477    0.5945    0.0000 C   0  0  0  0  0  0  0  0  0  0  0  0
   -0.7518   -2.5875    0.0000 C   0  0  0  0  0  0  0  0  0  0  0  0
    0.5871   -1.1017    0.0000 C   0  0  0  0  0  0  0  0  0  0  0  0
    0.2266   -2.7960    0.0000 C   0  0  0  0  0  0  0  0  0  0  0  0
    0.8952   -2.0547    0.0000 C   0  0  0  0  0  0  0  0  0  0  0  0
  2  3  2  0  0  0  0
  2  4  1  0  0  0  0
  1  3  1  0  0  0  0
  4  5  2  0  0  0  0
  1  5  1  0  0  0  0
  6 16  1  0  0  0  0
  6 18  1  0  0  0  0
  7  8  1  0  0  0  0
  8  9  1  0  0  0  0
  9 10  1  0  0  0  0
 10 17  1  0  0  0  0
  7 11  1  0  0  0  0
  4 12  1  0  0  0  0
  7 13  2  0  0  0  0
 10 14  2  0  0  0  0
  5 15  1  0  0  0  0
 11 16  1  0  0  0  0
 17 26  1  0  0  0  0
  6 19  1  0  0  0  0
  6 20  1  0  0  0  0
 21 23  1  0  0  0  0
 12 21  2  0  0  0  0
  2 22  1  0  0  0  0
 15 23  2  0  0  0  0
 21 24  1  0  0  0  0
  3 25  1  0  0  0  0
 22 26  1  0  0  0  0
  8 27  1  0  0  0  0
  9 28  1  0  0  0  0
 29 30  1  0  0  0  0
 27 29  1  0  0  0  0
 28 30  1  0  0  0  0
M  END
> <IDNUMBER>
8015-2270

> <available>
18

> <H_acceptor>
5

> <H_donor>
2

> <B_rotN>
9

> <N_O>
5

> <logP>
4.3268

> <logD>
4.3268

> <logSw>
-4.393

> <PSA>
55.741

> <pKa_ma>
13.6013

> <pKa_mb>
-0.2259

> <N_Chirals>
2

> <Name>
2,2,2-trifluoroethyl 2-{[2-(5-fluoro-2-methyl-1H-indol-3-yl)ethyl]carbamoyl}cyclohexane-1-carboxylate

> <Smile>
Cc1c(CCNC(C(CCCC2)C2C(OCC(F)(F)F)=O)=O)c(cc(cc2)F)c2[nH]1

> <Color>
NOT COLORED

> <Collection>
DC

> <InChI>
InChI=1S/C21H24F4N2O3/c1-12-14(17-10-13(22)6-7-18(17)27-12)8-9-26-19(28)15-4-2-3-5-16(15)20(29)30-11-21(23,24)25/h6-7,10,15-16,27H,2-5,8-9,11H2,1H3,(H,26,28)

> <InChI Key>
HQXIZVJDSDFGJE-UHFFFAOYSA-N

> <PERCENTSP3>
52.38

> <Link>
https://www.chemdiv.com/catalog/screening-compounds/compound-8015-2270/

> <MFCDNUMBER>
MFCD03856136

> <CLNUMBER>
CL2171

> <STEREO>
MIXTURE OF STEREOISOMERS

> <State>
Solid

> <Similarity score>
0.22

$$$$
rel-(3R,4R)-N-cyclopropyl-1-[(2,5-difluorophenyl)methyl]-4-(methoxymethyl)pyrrol
  -OEChem-04222410502D

 23 25  0     0  0  0  0  0  0999 V2000
    0.2937    1.2352    0.0000 C   0  0  1  0  0  0  0  0  0  0  0  0
    0.2937    2.2433    0.0000 C   0  0  0  0  0  0  0  0  0  0  0  0
   -0.1936   -0.3062    0.0000 N   0  0  0  0  0  0  0  0  0  0  0  0
    1.1143    0.6561    0.0000 C   0  0  1  0  0  0  0  0  0  0  0  0
   -1.7682   -1.0185    0.0000 C   0  0  0  0  0  0  0  0  0  0  0  0
   -0.5812    2.7307    0.0000 N   0  0  0  0  0  0  0  0  0  0  0  0
   -0.5062    0.6437    0.0000 C   0  0  0  0  0  0  0  0  0  0  0  0
   -0.7728   -1.1185    0.0000 C   0  0  0  0  0  0  0  0  0  0  0  0
    0.8061   -0.2937    0.0000 C   0  0  0  0  0  0  0  0  0  0  0  0
   -1.4434    2.2306    0.0000 C   0  0  0  0  0  0  0  0  0  0  0  0
   -2.3557   -1.8309    0.0000 C   0  0  0  0  0  0  0  0  0  0  0  0
   -2.4433    2.2183    0.0000 C   0  0  0  0  0  0  0  0  0  0  0  0
   -1.9308    1.3558    0.0000 C   0  0  0  0  0  0  0  0  0  0  0  0
   -2.1807   -0.1062    0.0000 C   0  0  0  0  0  0  0  0  0  0  0  0
    1.1560    2.7431    0.0000 O   0  0  0  0  0  0  0  0  0  0  0  0
   -3.3430   -1.7309    0.0000 C   0  0  0  0  0  0  0  0  0  0  0  0
   -3.1805   -0.0063    0.0000 C   0  0  0  0  0  0  0  0  0  0  0  0
   -1.9351   -2.7431    0.0000 F   0  0  0  0  0  0  0  0  0  0  0  0
   -3.7554   -0.8186    0.0000 C   0  0  0  0  0  0  0  0  0  0  0  0
   -3.5929    0.9061    0.0000 F   0  0  0  0  0  0  0  0  0  0  0  0
    2.0557    0.9686    0.0000 C   0  0  0  0  0  0  0  0  0  0  0  0
    2.8057    0.3062    0.0000 O   0  0  0  0  0  0  0  0  0  0  0  0
    3.7554    0.6229    0.0000 C   0  0  0  0  0  0  0  0  0  0  0  0
  1  2  1  1  0  0  0
  3  7  1  0  0  0  0
  3  9  1  0  0  0  0
  1  4  1  0  0  0  0
  4 21  1  6  0  0  0
  5  8  1  0  0  0  0
  2  6  1  0  0  0  0
  1  7  1  0  0  0  0
  3  8  1  0  0  0  0
  4  9  1  0  0  0  0
  6 10  1  0  0  0  0
  5 11  2  0  0  0  0
 10 12  1  0  0  0  0
 10 13  1  0  0  0  0
 12 13  1  0  0  0  0
  5 14  1  0  0  0  0
  2 15  2  0  0  0  0
 11 16  1  0  0  0  0
 16 19  2  0  0  0  0
 14 17  2  0  0  0  0
 11 18  1  0  0  0  0
 17 19  1  0  0  0  0
 17 20  1  0  0  0  0
 21 22  1  0  0  0  0
 22 23  1  0  0  0  0
M  END
> <IDNUMBER>
S836-6179

> <available>
4

> <H_acceptor>
4

> <H_donor>
1

> <B_rotN>
7

> <N_O>
4

> <logP>
2.1307

> <logD>
0.2583

> <logSw>
-2.8274

> <PSA>
37.097

> <pKa_ma>
12.3863

> <pKa_mb>
9.2665

> <N_Chirals>
2

> <Name>
rel-(3R,4R)-N-cyclopropyl-1-[(2,5-difluorophenyl)methyl]-4-(methoxymethyl)pyrrolidine-3-carboxamide

> <Smile>
COC[C@@H](CN(Cc(cc(cc1)F)c1F)C1)[C@H]1C(NC1CC1)=O

> <Color>
NOT COLORED

> <Collection>
IC

> <InChI>
InChI=1S/C17H22F2N2O2/c1-23-10-12-8-21(7-11-6-13(18)2-5-16(11)19)9-15(12)17(22)20-14-3-4-14/h2,5-6,12,14-15H,3-4,7-10H2,1H3,(H,20,22)/t12-,15+/m0/s1

> <InChI Key>
VXFRMPUXGUWVHF-SWLSCSKDSA-N

> <PERCENTSP3>
58.82

> <Link>
https://www.chemdiv.com/catalog/screening-compounds/compound-S836-6179/

> <CLNUMBER>
CM4497

> <STEREO>
RELATIVE

> <State>
Solid

> <Similarity score>
0.22

$$$$
N-(4-chloro-2-fluorophenyl)-1-(2,5,6-trimethylfuro[2,3-d]pyrimidin-4-yl)piperidi
  -OEChem-04222410502D

 29 32  0     0  0  0  0  0  0999 V2000
   -0.3543    2.4093    0.0000 C   0  0  0  0  0  0  0  0  0  0  0  0
   -1.0963    3.0721    0.0000 C   0  0  0  0  0  0  0  0  0  0  0  0
   -0.8921    4.0435    0.0000 C   0  0  0  0  0  0  0  0  0  0  0  0
   -0.5670    1.4256    0.0000 N   0  0  0  0  0  0  0  0  0  0  0  0
   -2.0927    2.9722    0.0000 C   0  0  0  0  0  0  0  0  0  0  0  0
    0.5962    2.7139    0.0000 N   0  0  0  0  0  0  0  0  0  0  0  0
    0.0584    4.3561    0.0000 N   0  0  0  0  0  0  0  0  0  0  0  0
   -1.7550    4.5437    0.0000 O   0  0  0  0  0  0  0  0  0  0  0  0
   -2.5051    3.8850    0.0000 C   0  0  0  0  0  0  0  0  0  0  0  0
    0.7171   -0.8921    0.0000 C   0  0  0  0  0  0  0  0  0  0  0  0
   -0.0293   -0.2168    0.0000 C   0  0  3  0  0  0  0  0  0  0  0  0
    0.8047    3.6974    0.0000 C   0  0  0  0  0  0  0  0  0  0  0  0
    0.5088   -1.8675    0.0000 N   0  0  0  0  0  0  0  0  0  0  0  0
    0.1793    0.7587    0.0000 C   0  0  0  0  0  0  0  0  0  0  0  0
    1.2465   -2.5387    0.0000 C   0  0  0  0  0  0  0  0  0  0  0  0
    2.2009   -2.2303    0.0000 C   0  0  0  0  0  0  0  0  0  0  0  0
    2.9473   -2.9013    0.0000 C   0  0  0  0  0  0  0  0  0  0  0  0
    1.6675   -0.5795    0.0000 O   0  0  0  0  0  0  0  0  0  0  0  0
    1.0422   -3.5183    0.0000 C   0  0  0  0  0  0  0  0  0  0  0  0
    2.7346   -3.8768    0.0000 C   0  0  0  0  0  0  0  0  0  0  0  0
    2.4094   -1.2505    0.0000 F   0  0  0  0  0  0  0  0  0  0  0  0
   -1.5173    1.1213    0.0000 C   0  0  0  0  0  0  0  0  0  0  0  0
    1.7843   -4.1893    0.0000 C   0  0  0  0  0  0  0  0  0  0  0  0
   -2.5928    2.1009    0.0000 C   0  0  0  0  0  0  0  0  0  0  0  0
    3.4808   -4.5437    0.0000 Cl  0  0  0  0  0  0  0  0  0  0  0  0
   -3.4808    4.0810    0.0000 C   0  0  0  0  0  0  0  0  0  0  0  0
   -0.9795   -0.5295    0.0000 C   0  0  0  0  0  0  0  0  0  0  0  0
   -1.7216    0.1376    0.0000 C   0  0  0  0  0  0  0  0  0  0  0  0
    1.7550    4.0019    0.0000 C   0  0  0  0  0  0  0  0  0  0  0  0
  1  2  1  0  0  0  0
  2  3  2  0  0  0  0
  3  7  1  0  0  0  0
  1  4  1  0  0  0  0
  2  5  1  0  0  0  0
  1  6  2  0  0  0  0
  7 12  2  0  0  0  0
  3  8  1  0  0  0  0
  5  9  2  0  0  0  0
  8  9  1  0  0  0  0
 10 11  1  0  0  0  0
 11 14  1  0  0  0  0
 11 27  1  0  0  0  0
  6 12  1  0  0  0  0
 10 13  1  0  0  0  0
  4 14  1  0  0  0  0
 13 15  1  0  0  0  0
 15 16  1  0  0  0  0
 16 17  2  0  0  0  0
 10 18  2  0  0  0  0
 15 19  2  0  0  0  0
 20 23  2  0  0  0  0
 17 20  1  0  0  0  0
 16 21  1  0  0  0  0
  4 22  1  0  0  0  0
 19 23  1  0  0  0  0
  5 24  1  0  0  0  0
 20 25  1  0  0  0  0
  9 26  1  0  0  0  0
 27 28  1  0  0  0  0
 22 28  1  0  0  0  0
 12 29  1  0  0  0  0
M  END
> <IDNUMBER>
F228-0952

> <available>
189

> <H_acceptor>
5

> <H_donor>
1

> <B_rotN>
4

> <N_O>
6

> <logP>
4.4002

> <logD>
4.0631

> <logSw>
-4.6591

> <PSA>
52.255

> <pKa_ma>
8.1865

> <pKa_mb>
7.4693

> <N_Chirals>
1

> <Name>
N-(4-chloro-2-fluorophenyl)-1-(2,5,6-trimethylfuro[2,3-d]pyrimidin-4-yl)piperidine-3-carboxamide

> <Smile>
Cc1c(C)oc2c1c(N(CCC1)CC1C(Nc(ccc(Cl)c1)c1F)=O)nc(C)n2

> <Color>
NOT COLORED

> <Collection>
NC

> <InChI>
InChI=1S/C21H22ClFN4O2/c1-11-12(2)29-21-18(11)19(24-13(3)25-21)27-8-4-5-14(10-27)20(28)26-17-7-6-15(22)9-16(17)23/h6-7,9,14H,4-5,8,10H2,1-3H3,(H,26,28)/t14-/m0/s1

> <InChI Key>
IZUZTPZCBTZNNN-AWEZNQCLSA-N

> <PERCENTSP3>
38.1

> <Link>
https://www.chemdiv.com/catalog/screening-compounds/compound-F228-0952/

> <MFCDNUMBER>
MFCD14945749

> <CLNUMBER>
CL1321B

> <STEREO>
RACEMIC MIXTURE

> <State>
Solid

> <Similarity score>
0.22

$$$$
N-[(2-chlorophenyl)methyl]-1-(2-methyl-5,6,8,9-tetrahydrooxepino[4,5-d]pyrimidin
  -OEChem-04222410502D

 29 32  0     0  0  0  0  0  0999 V2000
   -2.4274   -0.2525    0.0000 C   0  0  0  0  0  0  0  0  0  0  0  0
   -3.2863    0.2552    0.0000 C   0  0  0  0  0  0  0  0  0  0  0  0
   -2.4274   -1.2490    0.0000 N   0  0  0  0  0  0  0  0  0  0  0  0
   -1.5530    0.2552    0.0000 N   0  0  0  0  0  0  0  0  0  0  0  0
   -4.1573   -0.2525    0.0000 C   0  0  0  0  0  0  0  0  0  0  0  0
   -4.1573   -1.2490    0.0000 N   0  0  0  0  0  0  0  0  0  0  0  0
   -3.2863   -1.7473    0.0000 C   0  0  0  0  0  0  0  0  0  0  0  0
    1.0423    1.7503    0.0000 C   0  0  0  0  0  0  0  0  0  0  0  0
    1.9167    1.2551    0.0000 N   0  0  0  0  0  0  0  0  0  0  0  0
    3.6466    1.2456    0.0000 C   0  0  0  0  0  0  0  0  0  0  0  0
    0.1834    1.2551    0.0000 C   0  0  0  0  0  0  0  0  0  0  0  0
   -0.6910   -0.2525    0.0000 C   0  0  0  0  0  0  0  0  0  0  0  0
   -1.5530    1.2551    0.0000 C   0  0  0  0  0  0  0  0  0  0  0  0
    2.7722    1.7503    0.0000 C   0  0  0  0  0  0  0  0  0  0  0  0
    1.0423    2.7502    0.0000 O   0  0  0  0  0  0  0  0  0  0  0  0
    4.5085    1.7503    0.0000 C   0  0  0  0  0  0  0  0  0  0  0  0
    0.1675    0.2552    0.0000 C   0  0  0  0  0  0  0  0  0  0  0  0
   -0.6910    1.7503    0.0000 C   0  0  0  0  0  0  0  0  0  0  0  0
   -4.8157    1.9007    0.0000 O   0  0  0  0  0  0  0  0  0  0  0  0
   -5.0822    0.1236    0.0000 C   0  0  0  0  0  0  0  0  0  0  0  0
   -3.1450    1.2456    0.0000 C   0  0  0  0  0  0  0  0  0  0  0  0
    4.5085    2.7502    0.0000 Cl  0  0  0  0  0  0  0  0  0  0  0  0
   -3.2957   -2.7502    0.0000 C   0  0  0  0  0  0  0  0  0  0  0  0
   -5.3829    1.0828    0.0000 C   0  0  0  0  0  0  0  0  0  0  0  0
    3.6466    0.2461    0.0000 C   0  0  0  0  0  0  0  0  0  0  0  0
   -3.8283    1.9760    0.0000 C   0  0  0  0  0  0  0  0  0  0  0  0
    5.3829    1.2456    0.0000 C   0  0  0  0  0  0  0  0  0  0  0  0
    4.5085   -0.2525    0.0000 C   0  0  0  0  0  0  0  0  0  0  0  0
    5.3829    0.2461    0.0000 C   0  0  0  0  0  0  0  0  0  0  0  0
  1  2  1  0  0  0  0
  1  3  2  0  0  0  0
  1  4  1  0  0  0  0
  2  5  2  0  0  0  0
  6  7  2  0  0  0  0
  5  6  1  0  0  0  0
  3  7  1  0  0  0  0
  8 11  1  0  0  0  0
  8  9  1  0  0  0  0
 10 14  1  0  0  0  0
 11 18  1  0  0  0  0
  4 12  1  0  0  0  0
  4 13  1  0  0  0  0
  9 14  1  0  0  0  0
  8 15  2  0  0  0  0
 10 16  2  0  0  0  0
 12 17  1  0  0  0  0
 11 17  1  0  0  0  0
 13 18  1  0  0  0  0
 19 26  1  0  0  0  0
  5 20  1  0  0  0  0
  2 21  1  0  0  0  0
 16 22  1  0  0  0  0
  7 23  1  0  0  0  0
 20 24  1  0  0  0  0
 19 24  1  0  0  0  0
 10 25  1  0  0  0  0
 21 26  1  0  0  0  0
 16 27  1  0  0  0  0
 25 28  2  0  0  0  0
 28 29  1  0  0  0  0
 27 29  2  0  0  0  0
M  END
> <IDNUMBER>
S896-0387

> <available>
7

> <H_acceptor>
5

> <H_donor>
1

> <B_rotN>
5

> <N_O>
6

> <logP>
3.3222

> <logD>
3.3113

> <logSw>
-3.4819

> <PSA>
55.882

> <pKa_ma>
12.563

> <pKa_mb>
5.8035

> <N_Chirals>
0

> <Name>
N-[(2-chlorophenyl)methyl]-1-(2-methyl-5,6,8,9-tetrahydrooxepino[4,5-d]pyrimidin-4-yl)piperidine-4-carboxamide

> <Smile>
Cc1nc(CCOCC2)c2c(N(CC2)CCC2C(NCc(cccc2)c2Cl)=O)n1

> <Color>
NOT COLORED

> <Collection>
IC

> <InChI>
InChI=1S/C22H27ClN4O2/c1-15-25-20-9-13-29-12-8-18(20)21(26-15)27-10-6-16(7-11-27)22(28)24-14-17-4-2-3-5-19(17)23/h2-5,16H,6-14H2,1H3,(H,24,28)

> <InChI Key>
GOHYZUKKDQBUDH-UHFFFAOYSA-N

> <PERCENTSP3>
50

> <Link>
https://www.chemdiv.com/catalog/screening-compounds/compound-S896-0387/

> <MFCDNUMBER>
MFCD31957227

> <CLNUMBER>
CM3993

> <STEREO>
ACHIRAL

> <State>
Solid

> <Similarity score>
0.22

$$$$
rel-(2R,3S)-1-benzyl-2-(methoxymethyl)-N-(1-methyl-1,2,3,4-tetrahydroquinolin-7-
  -OEChem-04222410502D

 30 33  0     0  0  0  0  0  0999 V2000
   -0.2604   -0.4208    0.0000 C   0  0  1  0  0  0  0  0  0  0  0  0
    0.2313   -1.2834    0.0000 C   0  0  0  0  0  0  0  0  0  0  0  0
   -1.7604    0.4333    0.0000 N   0  0  0  0  0  0  0  0  0  0  0  0
   -1.2604   -0.4208    0.0000 C   0  0  2  0  0  0  0  0  0  0  0  0
    3.2312    0.4291    0.0000 C   0  0  0  0  0  0  0  0  0  0  0  0
    4.2439    0.4333    0.0000 N   0  0  0  0  0  0  0  0  0  0  0  0
    1.2313   -1.2834    0.0000 N   0  0  0  0  0  0  0  0  0  0  0  0
    2.7396   -0.4208    0.0000 C   0  0  0  0  0  0  0  0  0  0  0  0
   -2.7564    0.4291    0.0000 C   0  0  0  0  0  0  0  0  0  0  0  0
    1.7396   -0.4208    0.0000 C   0  0  0  0  0  0  0  0  0  0  0  0
    2.7312    1.3167    0.0000 C   0  0  0  0  0  0  0  0  0  0  0  0
   -0.2604   -2.1458    0.0000 O   0  0  0  0  0  0  0  0  0  0  0  0
    1.7313    1.3167    0.0000 C   0  0  0  0  0  0  0  0  0  0  0  0
   -1.2687    1.2959    0.0000 C   0  0  0  0  0  0  0  0  0  0  0  0
    1.2394    0.4416    0.0000 C   0  0  0  0  0  0  0  0  0  0  0  0
    0.2313    0.4333    0.0000 C   0  0  0  0  0  0  0  0  0  0  0  0
   -3.2605    1.2916    0.0000 C   0  0  0  0  0  0  0  0  0  0  0  0
    4.7562    1.3084    0.0000 C   0  0  0  0  0  0  0  0  0  0  0  0
   -1.7562   -1.2834    0.0000 C   0  0  0  0  0  0  0  0  0  0  0  0
    4.7312   -0.4333    0.0000 C   0  0  0  0  0  0  0  0  0  0  0  0
   -0.2604    1.3041    0.0000 C   0  0  0  0  0  0  0  0  0  0  0  0
    4.2439    2.1916    0.0000 C   0  0  0  0  0  0  0  0  0  0  0  0
   -1.2604   -2.1583    0.0000 O   0  0  0  0  0  0  0  0  0  0  0  0
    3.2312    2.1916    0.0000 C   0  0  0  0  0  0  0  0  0  0  0  0
   -2.7687    2.1543    0.0000 C   0  0  0  0  0  0  0  0  0  0  0  0
   -4.2562    1.2791    0.0000 C   0  0  0  0  0  0  0  0  0  0  0  0
   -1.7604   -3.0166    0.0000 C   0  0  0  0  0  0  0  0  0  0  0  0
   -4.7562    2.1416    0.0000 C   0  0  0  0  0  0  0  0  0  0  0  0
   -3.2687    3.0166    0.0000 C   0  0  0  0  0  0  0  0  0  0  0  0
   -4.2688    3.0166    0.0000 C   0  0  0  0  0  0  0  0  0  0  0  0
  1  2  1  1  0  0  0
  3  4  1  0  0  0  0
  1  4  1  0  0  0  0
  4 19  1  1  0  0  0
  5  8  2  0  0  0  0
  5 11  1  0  0  0  0
  5  6  1  0  0  0  0
  2  7  1  0  0  0  0
  8 10  1  0  0  0  0
  3  9  1  0  0  0  0
  7 10  1  0  0  0  0
 11 13  2  0  0  0  0
  2 12  2  0  0  0  0
 13 15  1  0  0  0  0
 14 21  1  0  0  0  0
  3 14  1  0  0  0  0
 10 15  2  0  0  0  0
  1 16  1  0  0  0  0
  9 17  1  0  0  0  0
  6 18  1  0  0  0  0
  6 20  1  0  0  0  0
 16 21  1  0  0  0  0
 22 24  1  0  0  0  0
 18 22  1  0  0  0  0
 19 23  1  0  0  0  0
 11 24  1  0  0  0  0
 17 25  2  0  0  0  0
 17 26  1  0  0  0  0
 23 27  1  0  0  0  0
 26 28  2  0  0  0  0
 25 29  1  0  0  0  0
 28 30  1  0  0  0  0
 29 30  2  0  0  0  0
M  END
> <IDNUMBER>
S761-0260

> <available>
14

> <H_acceptor>
4

> <H_donor>
1

> <B_rotN>
7

> <N_O>
5

> <logP>
3.213

> <logD>
3.1225

> <logSw>
-3.3738

> <PSA>
37.671

> <pKa_ma>
10.65

> <pKa_mb>
6.7634

> <N_Chirals>
2

> <Name>
rel-(2R,3S)-1-benzyl-2-(methoxymethyl)-N-(1-methyl-1,2,3,4-tetrahydroquinolin-7-yl)piperidine-3-carboxamide

> <Smile>
CN(CCC1)c2c1ccc(NC([C@@H]1[C@H](COC)N(Cc3ccccc3)CCC1)=O)c2

> <Color>
BROWN

> <Collection>
IC

> <InChI>
InChI=1S/C25H33N3O2/c1-27-14-6-10-20-12-13-21(16-23(20)27)26-25(29)22-11-7-15-28(24(22)18-30-2)17-19-8-4-3-5-9-19/h3-5,8-9,12-13,16,22,24H,6-7,10-11,14-15,17-18H2,1-2H3,(H,26,29)/t22-,24-/m0/s1

> <InChI Key>
LOAJKPBGYPNZQZ-UPVQGACJSA-N

> <PERCENTSP3>
48

> <Link>
https://www.chemdiv.com/catalog/screening-compounds/compound-S761-0260/

> <CLNUMBER>
CM4642

> <STEREO>
RELATIVE

> <State>
Liquid

> <Similarity score>
0.22

$$$$
3-(6-fluoro-1,3,4,5-tetrahydro-2H-pyrido[4,3-b]indol-2-yl)-1-(3-methoxyphenyl)py
  -OEChem-04222410502D

 29 33  0     0  0  0  0  0  0999 V2000
    1.7231    0.3063    0.0000 N   0  0  0  0  0  0  0  0  0  0  0  0
    1.0897   -0.4647    0.0000 C   0  0  0  0  0  0  0  0  0  0  0  0
   -2.4314   -0.5938    0.0000 C   0  0  0  0  0  0  0  0  0  0  0  0
    1.1773    1.1522    0.0000 C   0  0  0  0  0  0  0  0  0  0  0  0
   -3.3735   -1.8981    0.0000 N   0  0  0  0  0  0  0  0  0  0  0  0
    0.1603   -0.0937    0.0000 C   0  0  3  0  0  0  0  0  0  0  0  0
   -2.4314   -1.5899    0.0000 C   0  0  0  0  0  0  0  0  0  0  0  0
   -0.7022   -0.5938    0.0000 N   0  0  3  0  0  0  0  0  0  0  0  0
    0.2228    0.8980    0.0000 C   0  0  0  0  0  0  0  0  0  0  0  0
   -3.9609   -1.0980    0.0000 C   0  0  0  0  0  0  0  0  0  0  0  0
   -3.3735   -0.2814    0.0000 C   0  0  0  0  0  0  0  0  0  0  0  0
   -1.5731   -0.0937    0.0000 C   0  0  0  0  0  0  0  0  0  0  0  0
    2.7192    0.2064    0.0000 C   0  0  0  0  0  0  0  0  0  0  0  0
   -1.5731   -2.0898    0.0000 C   0  0  0  0  0  0  0  0  0  0  0  0
    3.1276   -0.7062    0.0000 C   0  0  0  0  0  0  0  0  0  0  0  0
    1.3440   -1.4315    0.0000 O   0  0  0  0  0  0  0  0  0  0  0  0
   -0.7022   -1.5899    0.0000 C   0  0  0  0  0  0  0  0  0  0  0  0
    1.5400    2.0898    0.0000 O   0  0  0  0  0  0  0  0  0  0  0  0
   -4.9570   -0.9939    0.0000 C   0  0  0  0  0  0  0  0  0  0  0  0
    4.1235   -0.8105    0.0000 C   0  0  0  0  0  0  0  0  0  0  0  0
   -5.5445   -1.8065    0.0000 F   0  0  0  0  0  0  0  0  0  0  0  0
   -3.7942    0.6314    0.0000 C   0  0  0  0  0  0  0  0  0  0  0  0
    3.3024    1.0188    0.0000 C   0  0  0  0  0  0  0  0  0  0  0  0
    4.5444   -1.7316    0.0000 O   0  0  0  0  0  0  0  0  0  0  0  0
   -4.7903    0.7314    0.0000 C   0  0  0  0  0  0  0  0  0  0  0  0
    4.3029    0.9147    0.0000 C   0  0  0  0  0  0  0  0  0  0  0  0
   -5.3693   -0.0854    0.0000 C   0  0  0  0  0  0  0  0  0  0  0  0
    4.7153    0.0062    0.0000 C   0  0  0  0  0  0  0  0  0  0  0  0
    5.5445   -1.8356    0.0000 C   0  0  0  0  0  0  0  0  0  0  0  0
  1  2  1  0  0  0  0
  3 12  1  0  0  0  0
  1  4  1  0  0  0  0
  5  7  1  0  0  0  0
  5 10  1  0  0  0  0
  2  6  1  0  0  0  0
  6  9  1  0  0  0  0
  7 14  1  0  0  0  0
  3  7  2  0  0  0  0
  6  8  1  0  0  0  0
  4  9  1  0  0  0  0
 10 11  2  0  0  0  0
  3 11  1  0  0  0  0
  8 12  1  0  0  0  0
  1 13  1  0  0  0  0
 14 17  1  0  0  0  0
 13 15  1  0  0  0  0
  2 16  2  0  0  0  0
  8 17  1  0  0  0  0
  4 18  2  0  0  0  0
 10 19  1  0  0  0  0
 19 27  2  0  0  0  0
 15 20  2  0  0  0  0
 19 21  1  0  0  0  0
 11 22  1  0  0  0  0
 13 23  2  0  0  0  0
 20 24  1  0  0  0  0
 22 25  2  0  0  0  0
 23 26  1  0  0  0  0
 25 27  1  0  0  0  0
 26 28  2  0  0  0  0
 20 28  1  0  0  0  0
 24 29  1  0  0  0  0
M  END
> <IDNUMBER>
IB03-9721

> <available>
50

> <H_acceptor>
6

> <H_donor>
1

> <B_rotN>
3

> <N_O>
6

> <logP>
2.29

> <logD>
2.29

> <logSw>
-3

> <PSA>
102.07

> <pKa_ma>
14

> <pKa_mb>
3.72

> <N_Chirals>
1

> <Name>
3-(6-fluoro-1,3,4,5-tetrahydro-2H-pyrido[4,3-b]indol-2-yl)-1-(3-methoxyphenyl)pyrrolidine-2,5-dione

> <Smile>
COc1cccc(N(C(CC2N(CC3)Cc(c4ccc5)c3[nH]c4c5F)=O)C2=O)c1

> <Color>
NOT COLORED

> <Collection>
DC

> <InChI>
InChI=1S/C22H20FN3O3/c1-29-14-5-2-4-13(10-14)26-20(27)11-19(22(26)28)25-9-8-18-16(12-25)15-6-3-7-17(23)21(15)24-18/h2-7,10,19,24H,8-9,11-12H2,1H3/t19-/m0/s1

> <InChI Key>
WJLATBUSRJQSHS-IBGZPJMESA-N

> <PERCENTSP3>
27.3

> <Link>
https://www.chemdiv.com/catalog/screening-compounds/compound-IB03-9721/

> <STEREO>
RACEMIC MIXTURE

> <State>
Solid

> <Similarity score>
0.22

$$$$
N-(3-chloro-4-fluorophenyl)-2-({6-[(2-methoxyphenyl)methyl]-4-oxo-3,4,5,6,7,8-he
  -OEChem-04222410502D

 33 36  0     0  0  0  0  0  0999 V2000
   -1.6987    0.5302    0.0000 C   0  0  0  0  0  0  0  0  0  0  0  0
    0.0251    0.4899    0.0000 N   0  0  0  0  0  0  0  0  0  0  0  0
   -0.8240    1.0021    0.0000 C   0  0  0  0  0  0  0  0  0  0  0  0
   -1.7288   -0.4750    0.0000 C   0  0  0  0  0  0  0  0  0  0  0  0
    0.0100   -0.5100    0.0000 C   0  0  0  0  0  0  0  0  0  0  0  0
   -0.8792   -0.9926    0.0000 N   0  0  0  0  0  0  0  0  0  0  0  0
   -3.4320    0.5804    0.0000 N   0  0  0  0  0  0  0  0  0  0  0  0
   -2.5528    1.0575    0.0000 C   0  0  0  0  0  0  0  0  0  0  0  0
   -5.1608    0.6358    0.0000 C   0  0  0  0  0  0  0  0  0  0  0  0
   -2.6130   -0.9476    0.0000 C   0  0  0  0  0  0  0  0  0  0  0  0
    6.0405   -1.1584    0.0000 C   0  0  0  0  0  0  0  0  0  0  0  0
    5.1909   -0.6457    0.0000 C   0  0  0  0  0  0  0  0  0  0  0  0
   -4.2766    1.1082    0.0000 C   0  0  0  0  0  0  0  0  0  0  0  0
    2.5879   -1.0831    0.0000 C   0  0  0  0  0  0  0  0  0  0  0  0
    0.8545   -1.0378    0.0000 S   0  0  0  0  0  0  0  0  0  0  0  0
    3.4625   -0.6107    0.0000 N   0  0  0  0  0  0  0  0  0  0  0  0
   -0.8039    2.0075    0.0000 O   0  0  0  0  0  0  0  0  0  0  0  0
    4.3167   -1.1283    0.0000 C   0  0  0  0  0  0  0  0  0  0  0  0
    6.0253   -2.1687    0.0000 C   0  0  0  0  0  0  0  0  0  0  0  0
   -6.0048    1.1683    0.0000 C   0  0  0  0  0  0  0  0  0  0  0  0
   -3.4621   -0.4198    0.0000 C   0  0  0  0  0  0  0  0  0  0  0  0
    2.5578   -2.0878    0.0000 O   0  0  0  0  0  0  0  0  0  0  0  0
    5.1357   -2.6457    0.0000 C   0  0  0  0  0  0  0  0  0  0  0  0
    1.7288   -0.5553    0.0000 C   0  0  0  0  0  0  0  0  0  0  0  0
    6.9247   -0.6860    0.0000 Cl  0  0  0  0  0  0  0  0  0  0  0  0
    4.2866   -2.1334    0.0000 C   0  0  0  0  0  0  0  0  0  0  0  0
    6.8693   -2.6909    0.0000 F   0  0  0  0  0  0  0  0  0  0  0  0
   -5.9747    2.1631    0.0000 O   0  0  0  0  0  0  0  0  0  0  0  0
   -5.1909   -0.3594    0.0000 C   0  0  0  0  0  0  0  0  0  0  0  0
   -6.8946    0.6959    0.0000 C   0  0  0  0  0  0  0  0  0  0  0  0
   -6.8191    2.6909    0.0000 C   0  0  0  0  0  0  0  0  0  0  0  0
   -6.0651   -0.8268    0.0000 C   0  0  0  0  0  0  0  0  0  0  0  0
   -6.9247   -0.2993    0.0000 C   0  0  0  0  0  0  0  0  0  0  0  0
  2  3  1  0  0  0  0
  2  5  1  0  0  0  0
  1  3  1  0  0  0  0
  1  4  2  0  0  0  0
  5  6  2  0  0  0  0
  4  6  1  0  0  0  0
  7  8  1  0  0  0  0
  1  8  1  0  0  0  0
  9 13  1  0  0  0  0
  4 10  1  0  0  0  0
 10 21  1  0  0  0  0
 11 12  2  0  0  0  0
 12 18  1  0  0  0  0
  7 13  1  0  0  0  0
 14 24  1  0  0  0  0
  5 15  1  0  0  0  0
 14 16  1  0  0  0  0
  3 17  2  0  0  0  0
 16 18  1  0  0  0  0
 19 23  2  0  0  0  0
 11 19  1  0  0  0  0
  9 20  2  0  0  0  0
  7 21  1  0  0  0  0
 14 22  2  0  0  0  0
 23 26  1  0  0  0  0
 15 24  1  0  0  0  0
 11 25  1  0  0  0  0
 18 26  2  0  0  0  0
 19 27  1  0  0  0  0
 20 28  1  0  0  0  0
  9 29  1  0  0  0  0
 20 30  1  0  0  0  0
 28 31  1  0  0  0  0
 29 32  2  0  0  0  0
 32 33  1  0  0  0  0
 30 33  2  0  0  0  0
M  END
> <IDNUMBER>
E140-0984

> <available>
72

> <H_acceptor>
8

> <H_donor>
2

> <B_rotN>
8

> <N_O>
7

> <logP>
3.3694

> <logD>
2.82

> <logSw>
-3.659

> <PSA>
68.726

> <pKa_ma>
6.9946

> <pKa_mb>
4.9727

> <N_Chirals>
0

> <Name>
N-(3-chloro-4-fluorophenyl)-2-({6-[(2-methoxyphenyl)methyl]-4-oxo-3,4,5,6,7,8-hexahydropyrido[4,3-d]pyrimidin-2-yl}sulfanyl)acetamide

> <Smile>
COc1c(CN(CC2)CC(C(N3)=O)=C2N=C3SCC(Nc(cc2)cc(Cl)c2F)=O)cccc1

> <Color>
NOT COLORED

> <Collection>
DC

> <InChI>
InChI=1S/C23H22ClFN4O3S/c1-32-20-5-3-2-4-14(20)11-29-9-8-19-16(12-29)22(31)28-23(27-19)33-13-21(30)26-15-6-7-18(25)17(24)10-15/h2-7,10H,8-9,11-13H2,1H3,(H,26,30)(H,27,28,31)

> <InChI Key>
KXWVQBIVQCGYNY-UHFFFAOYSA-N

> <PERCENTSP3>
26.1

> <Link>
https://www.chemdiv.com/catalog/screening-compounds/compound-E140-0984/

> <MFCDNUMBER>
MFCD27597682

> <CLNUMBER>
CL4129

> <STEREO>
ACHIRAL

> <State>
Solid

> <Similarity score>
0.22

$$$$
2-(9-chloro-6-methoxy-10-oxo-3,4,5,10-tetrahydrobenzo[b][1,6]naphthyridin-2(1H)-
  -OEChem-04222410502D

 30 33  0     0  0  0  0  0  0999 V2000
   -0.8871   -1.4512    0.0000 C   0  0  0  0  0  0  0  0  0  0  0  0
   -1.7615   -0.9560    0.0000 C   0  0  0  0  0  0  0  0  0  0  0  0
   -2.6362   -1.4512    0.0000 C   0  0  0  0  0  0  0  0  0  0  0  0
   -1.7803   -2.9308    0.0000 N   0  0  0  0  0  0  0  0  0  0  0  0
   -2.6362   -2.4324    0.0000 C   0  0  0  0  0  0  0  0  0  0  0  0
   -0.8871   -2.4418    0.0000 C   0  0  0  0  0  0  0  0  0  0  0  0
    0.8777   -1.4512    0.0000 N   0  0  0  0  0  0  0  0  0  0  0  0
   -0.0030   -0.9654    0.0000 C   0  0  0  0  0  0  0  0  0  0  0  0
    1.7709    0.0219    0.0000 C   0  0  0  0  0  0  0  0  0  0  0  0
   -3.5328   -0.9654    0.0000 C   0  0  0  0  0  0  0  0  0  0  0  0
   -0.0064   -2.9308    0.0000 C   0  0  0  0  0  0  0  0  0  0  0  0
   -3.5328   -2.9308    0.0000 C   0  0  0  0  0  0  0  0  0  0  0  0
    2.6675    0.4952    0.0000 N   0  0  0  0  0  0  0  0  0  0  0  0
   -1.7615    0.0252    0.0000 O   0  0  0  0  0  0  0  0  0  0  0  0
    3.5516    2.9496    0.0000 C   0  0  0  0  0  0  0  0  0  0  0  0
    1.7709   -0.9654    0.0000 C   0  0  0  0  0  0  0  0  0  0  0  0
    2.6675    3.4260    0.0000 C   0  0  0  0  0  0  0  0  0  0  0  0
    2.6675    1.4794    0.0000 C   0  0  0  0  0  0  0  0  0  0  0  0
    3.5516    1.9685    0.0000 C   0  0  0  0  0  0  0  0  0  0  0  0
    0.8777    0.4952    0.0000 O   0  0  0  0  0  0  0  0  0  0  0  0
    0.8777   -2.4418    0.0000 C   0  0  0  0  0  0  0  0  0  0  0  0
   -4.4072   -1.4512    0.0000 C   0  0  0  0  0  0  0  0  0  0  0  0
   -4.4072   -2.4324    0.0000 C   0  0  0  0  0  0  0  0  0  0  0  0
    1.7898    2.9496    0.0000 C   0  0  0  0  0  0  0  0  0  0  0  0
   -3.5422    0.0252    0.0000 Cl  0  0  0  0  0  0  0  0  0  0  0  0
    1.7898    1.9685    0.0000 C   0  0  0  0  0  0  0  0  0  0  0  0
    2.6769    4.4260    0.0000 F   0  0  0  0  0  0  0  0  0  0  0  0
   -3.5328   -3.9275    0.0000 O   0  0  0  0  0  0  0  0  0  0  0  0
    4.4072    3.4636    0.0000 C   0  0  0  0  0  0  0  0  0  0  0  0
   -2.6738   -4.4260    0.0000 C   0  0  0  0  0  0  0  0  0  0  0  0
  1  2  1  0  0  0  0
  2  3  1  0  0  0  0
  3  5  1  0  0  0  0
  4  6  1  0  0  0  0
  4  5  1  0  0  0  0
  1  6  2  0  0  0  0
  7  8  1  0  0  0  0
  1  8  1  0  0  0  0
  9 16  1  0  0  0  0
  3 10  2  0  0  0  0
  6 11  1  0  0  0  0
 11 21  1  0  0  0  0
  5 12  2  0  0  0  0
  9 13  1  0  0  0  0
  2 14  2  0  0  0  0
 15 19  2  0  0  0  0
 15 17  1  0  0  0  0
  7 16  1  0  0  0  0
 17 24  2  0  0  0  0
 13 18  1  0  0  0  0
 18 19  1  0  0  0  0
  9 20  2  0  0  0  0
  7 21  1  0  0  0  0
 10 22  1  0  0  0  0
 22 23  2  0  0  0  0
 12 23  1  0  0  0  0
 24 26  1  0  0  0  0
 10 25  1  0  0  0  0
 18 26  2  0  0  0  0
 17 27  1  0  0  0  0
 12 28  1  0  0  0  0
 15 29  1  0  0  0  0
 28 30  1  0  0  0  0
M  END
> <IDNUMBER>
L489-1798

> <available>
72

> <H_acceptor>
6

> <H_donor>
2

> <B_rotN>
5

> <N_O>
6

> <logP>
3.8493

> <logD>
1.8

> <logSw>
-4.5303

> <PSA>
56.441

> <pKa_ma>
5.3545

> <pKa_mb>
1.1333

> <N_Chirals>
0

> <Name>
2-(9-chloro-6-methoxy-10-oxo-3,4,5,10-tetrahydrobenzo[b][1,6]naphthyridin-2(1H)-yl)-N-(4-fluoro-3-methylphenyl)acetamide

> <Smile>
Cc(cc(cc1)NC(CN(CC2)CC(C(c3c(cc4)Cl)=O)=C2Nc3c4OC)=O)c1F

> <Color>
ORANGE

> <Collection>
NC

> <InChI>
InChI=1S/C22H21ClFN3O3/c1-12-9-13(3-5-16(12)24)25-19(28)11-27-8-7-17-14(10-27)22(29)20-15(23)4-6-18(30-2)21(20)26-17/h3-6,9H,7-8,10-11H2,1-2H3,(H,25,28)(H,26,29)

> <InChI Key>
YTLWIONGXFMGJR-UHFFFAOYSA-N

> <PERCENTSP3>
27.3

> <Link>
https://www.chemdiv.com/catalog/screening-compounds/compound-L489-1798/

> <MFCDNUMBER>
MFCD27457658

> <CLNUMBER>
CL8213A

> <STEREO>
ACHIRAL

> <State>
Solid

> <Similarity score>
0.22

$$$$
N-[2-(3,4-dimethoxyphenyl)ethyl]-1-(3-ethyl-6-methyl[1,2]oxazolo[5,4-d]pyrimidin
  -OEChem-04222410502D

 33 36  0     0  0  0  0  0  0999 V2000
   -1.9091    2.7510    0.0000 C   0  0  0  0  0  0  0  0  0  0  0  0
   -2.7802    3.2513    0.0000 C   0  0  0  0  0  0  0  0  0  0  0  0
   -2.7802    4.2516    0.0000 C   0  0  0  0  0  0  0  0  0  0  0  0
   -1.9091    1.7507    0.0000 N   0  0  0  0  0  0  0  0  0  0  0  0
   -1.0462    3.2513    0.0000 N   0  0  0  0  0  0  0  0  0  0  0  0
   -1.9091    4.7519    0.0000 N   0  0  0  0  0  0  0  0  0  0  0  0
   -4.3184    3.7516    0.0000 N   0  0  0  0  0  0  0  0  0  0  0  0
   -3.7306    4.5560    0.0000 O   0  0  0  0  0  0  0  0  0  0  0  0
   -1.0462    0.2500    0.0000 C   0  0  3  0  0  0  0  0  0  0  0  0
   -1.0462    4.2516    0.0000 C   0  0  0  0  0  0  0  0  0  0  0  0
   -3.7306    2.9471    0.0000 C   0  0  0  0  0  0  0  0  0  0  0  0
   -1.0462    1.2504    0.0000 C   0  0  0  0  0  0  0  0  0  0  0  0
   -0.1793   -0.2500    0.0000 C   0  0  0  0  0  0  0  0  0  0  0  0
    3.2847   -3.2513    0.0000 C   0  0  0  0  0  0  0  0  0  0  0  0
    3.2847   -4.2516    0.0000 C   0  0  0  0  0  0  0  0  0  0  0  0
    0.6836    0.2500    0.0000 O   0  0  0  0  0  0  0  0  0  0  0  0
    2.4218   -2.7510    0.0000 C   0  0  0  0  0  0  0  0  0  0  0  0
   -0.1793   -1.2504    0.0000 N   0  0  0  0  0  0  0  0  0  0  0  0
    2.4218   -4.7519    0.0000 C   0  0  0  0  0  0  0  0  0  0  0  0
   -2.7802    1.2504    0.0000 C   0  0  0  0  0  0  0  0  0  0  0  0
    1.5549   -3.2513    0.0000 C   0  0  0  0  0  0  0  0  0  0  0  0
    1.5549   -4.2516    0.0000 C   0  0  0  0  0  0  0  0  0  0  0  0
    4.1558   -2.7510    0.0000 O   0  0  0  0  0  0  0  0  0  0  0  0
   -1.9091   -0.2500    0.0000 C   0  0  0  0  0  0  0  0  0  0  0  0
    4.1558   -4.7519    0.0000 O   0  0  0  0  0  0  0  0  0  0  0  0
    0.6836   -1.7507    0.0000 C   0  0  0  0  0  0  0  0  0  0  0  0
   -2.7802    0.2500    0.0000 C   0  0  0  0  0  0  0  0  0  0  0  0
   -0.1793    4.7519    0.0000 C   0  0  0  0  0  0  0  0  0  0  0  0
   -4.0433    1.9967    0.0000 C   0  0  0  0  0  0  0  0  0  0  0  0
    0.6836   -2.7510    0.0000 C   0  0  0  0  0  0  0  0  0  0  0  0
    5.0187   -3.2513    0.0000 C   0  0  0  0  0  0  0  0  0  0  0  0
    5.0187   -4.2516    0.0000 C   0  0  0  0  0  0  0  0  0  0  0  0
   -5.0187    1.7840    0.0000 C   0  0  0  0  0  0  0  0  0  0  0  0
  1  2  1  0  0  0  0
  2  3  2  0  0  0  0
  3  6  1  0  0  0  0
  1  4  1  0  0  0  0
  1  5  2  0  0  0  0
  6 10  2  0  0  0  0
  7 11  2  0  0  0  0
  7  8  1  0  0  0  0
  3  8  1  0  0  0  0
  9 12  1  0  0  0  0
  9 24  1  0  0  0  0
  5 10  1  0  0  0  0
  2 11  1  0  0  0  0
  4 12  1  0  0  0  0
  9 13  1  0  0  0  0
 14 17  1  0  0  0  0
 15 19  1  0  0  0  0
 14 15  2  0  0  0  0
 13 16  2  0  0  0  0
 17 21  2  0  0  0  0
 13 18  1  0  0  0  0
 19 22  2  0  0  0  0
  4 20  1  0  0  0  0
 21 30  1  0  0  0  0
 21 22  1  0  0  0  0
 14 23  1  0  0  0  0
 24 27  1  0  0  0  0
 15 25  1  0  0  0  0
 18 26  1  0  0  0  0
 20 27  1  0  0  0  0
 10 28  1  0  0  0  0
 11 29  1  0  0  0  0
 26 30  1  0  0  0  0
 23 31  1  0  0  0  0
 25 32  1  0  0  0  0
 29 33  1  0  0  0  0
M  END
> <IDNUMBER>
E990-0823

> <available>
149

> <H_acceptor>
8

> <H_donor>
1

> <B_rotN>
9

> <N_O>
9

> <logP>
2.4733

> <logD>
2.473

> <logSw>
-2.9251

> <PSA>
84.125

> <pKa_ma>
13.7295

> <pKa_mb>
4.2171

> <N_Chirals>
1

> <Name>
N-[2-(3,4-dimethoxyphenyl)ethyl]-1-(3-ethyl-6-methyl[1,2]oxazolo[5,4-d]pyrimidin-4-yl)piperidine-3-carboxamide

> <Smile>
CCc1noc2c1c(N(CCC1)CC1C(NCCc(cc1)cc(OC)c1OC)=O)nc(C)n2

> <Color>
NOT COLORED

> <Collection>
DC

> <InChI>
InChI=1S/C24H31N5O4/c1-5-18-21-22(26-15(2)27-24(21)33-28-18)29-12-6-7-17(14-29)23(30)25-11-10-16-8-9-19(31-3)20(13-16)32-4/h8-9,13,17H,5-7,10-12,14H2,1-4H3,(H,25,30)/t17-/m0/s1

> <InChI Key>
IOVDUPIKCTWRBN-KRWDZBQOSA-N

> <PERCENTSP3>
50

> <Link>
https://www.chemdiv.com/catalog/screening-compounds/compound-E990-0823/

> <MFCDNUMBER>
MFCD14936792

> <CLNUMBER>
CL7467A

> <STEREO>
RACEMIC MIXTURE

> <State>
Solid

> <Similarity score>
0.22

$$$$
7-[(3-chloro-4-fluorophenyl)methyl]-2-(4-methylpiperazin-1-yl)-3,5,6,7,8,9-hexah
  -OEChem-04222410502D

 28 31  0     0  0  0  0  0  0999 V2000
    1.3270    1.0920    0.0000 C   0  0  0  0  0  0  0  0  0  0  0  0
    1.1015    2.0760    0.0000 N   0  0  0  0  0  0  0  0  0  0  0  0
   -0.5907    1.6811    0.0000 C   0  0  0  0  0  0  0  0  0  0  0  0
    0.5939    0.4121    0.0000 N   0  0  0  0  0  0  0  0  0  0  0  0
    0.1427    2.3610    0.0000 C   0  0  0  0  0  0  0  0  0  0  0  0
   -0.3649    0.7129    0.0000 C   0  0  0  0  0  0  0  0  0  0  0  0
    2.2861    0.7973    0.0000 N   0  0  0  0  0  0  0  0  0  0  0  0
   -1.4870    2.1137    0.0000 C   0  0  0  0  0  0  0  0  0  0  0  0
   -2.6214    0.7129    0.0000 N   0  0  0  0  0  0  0  0  0  0  0  0
   -0.9949   -0.0675    0.0000 C   0  0  0  0  0  0  0  0  0  0  0  0
    4.1944    0.2082    0.0000 N   0  0  0  0  0  0  0  0  0  0  0  0
   -3.4955   -2.1639    0.0000 C   0  0  0  0  0  0  0  0  0  0  0  0
   -0.0738    3.3388    0.0000 O   0  0  0  0  0  0  0  0  0  0  0  0
   -4.4734   -2.3800    0.0000 C   0  0  0  0  0  0  0  0  0  0  0  0
    3.0192    1.4743    0.0000 C   0  0  0  0  0  0  0  0  0  0  0  0
    2.5022   -0.1709    0.0000 C   0  0  0  0  0  0  0  0  0  0  0  0
   -3.2073   -1.2051    0.0000 C   0  0  0  0  0  0  0  0  0  0  0  0
   -3.8904   -0.4717    0.0000 C   0  0  0  0  0  0  0  0  0  0  0  0
   -3.5896    0.4871    0.0000 C   0  0  0  0  0  0  0  0  0  0  0  0
   -2.3956    1.6811    0.0000 C   0  0  0  0  0  0  0  0  0  0  0  0
   -1.9914   -0.0675    0.0000 C   0  0  0  0  0  0  0  0  0  0  0  0
   -5.1533   -1.6470    0.0000 C   0  0  0  0  0  0  0  0  0  0  0  0
    3.4611   -0.4717    0.0000 C   0  0  0  0  0  0  0  0  0  0  0  0
    3.9654    1.1861    0.0000 C   0  0  0  0  0  0  0  0  0  0  0  0
   -2.8188   -2.8941    0.0000 Cl  0  0  0  0  0  0  0  0  0  0  0  0
   -4.8586   -0.6878    0.0000 C   0  0  0  0  0  0  0  0  0  0  0  0
   -4.7742   -3.3388    0.0000 F   0  0  0  0  0  0  0  0  0  0  0  0
    5.1533   -0.0768    0.0000 C   0  0  0  0  0  0  0  0  0  0  0  0
  1  2  1  0  0  0  0
  3  6  2  0  0  0  0
  3  5  1  0  0  0  0
  1  4  2  0  0  0  0
  2  5  1  0  0  0  0
  4  6  1  0  0  0  0
  1  7  1  0  0  0  0
  3  8  1  0  0  0  0
  9 21  1  0  0  0  0
  9 20  1  0  0  0  0
  6 10  1  0  0  0  0
 11 23  1  0  0  0  0
 11 24  1  0  0  0  0
 12 17  1  0  0  0  0
 12 14  2  0  0  0  0
  5 13  2  0  0  0  0
 14 22  1  0  0  0  0
  7 15  1  0  0  0  0
  7 16  1  0  0  0  0
 17 18  2  0  0  0  0
 18 19  1  0  0  0  0
  9 19  1  0  0  0  0
  8 20  1  0  0  0  0
 10 21  1  0  0  0  0
 22 26  2  0  0  0  0
 16 23  1  0  0  0  0
 15 24  1  0  0  0  0
 12 25  1  0  0  0  0
 18 26  1  0  0  0  0
 14 27  1  0  0  0  0
 11 28  1  0  0  0  0
M  END
> <IDNUMBER>
S039-3676

> <available>
3

> <H_acceptor>
5

> <H_donor>
1

> <B_rotN>
3

> <N_O>
6

> <logP>
1.9108

> <logD>
0.691

> <logSw>
-3.0722

> <PSA>
45.276

> <pKa_ma>
9.6889

> <pKa_mb>
8.5927

> <N_Chirals>
0

> <Name>
7-[(3-chloro-4-fluorophenyl)methyl]-2-(4-methylpiperazin-1-yl)-3,5,6,7,8,9-hexahydro-4H-pyrimido[4,5-d]azepin-4-one

> <Smile>
CN(CC1)CCN1C(N1)=NC(CCN(Cc(cc2)cc(Cl)c2F)CC2)=C2C1=O

> <Color>
NOT COLORED

> <Collection>
IC

> <InChI>
InChI=1S/C20H25ClFN5O/c1-25-8-10-27(11-9-25)20-23-18-5-7-26(6-4-15(18)19(28)24-20)13-14-2-3-17(22)16(21)12-14/h2-3,12H,4-11,13H2,1H3,(H,23,24,28)

> <InChI Key>
NGIJKQIEVVMMNW-UHFFFAOYSA-N

> <PERCENTSP3>
50

> <Link>
https://www.chemdiv.com/catalog/screening-compounds/compound-S039-3676/

> <MFCDNUMBER>
MFCD28999064

> <CLNUMBER>
CM2417

> <STEREO>
ACHIRAL

> <State>
Solid

> <Similarity score>
0.22

$$$$
N-(2,5-difluorophenyl)-2-(9-fluoro-6-methyl-10-oxo-3,4,5,10-tetrahydrobenzo[b][1
  -OEChem-04222410502D

 29 32  0     0  0  0  0  0  0999 V2000
   -0.8802   -1.2138    0.0000 C   0  0  0  0  0  0  0  0  0  0  0  0
   -1.7638   -0.7157    0.0000 C   0  0  0  0  0  0  0  0  0  0  0  0
   -2.6317   -1.2138    0.0000 C   0  0  0  0  0  0  0  0  0  0  0  0
   -1.7825   -2.6895    0.0000 N   0  0  0  0  0  0  0  0  0  0  0  0
   -2.6317   -2.1977    0.0000 C   0  0  0  0  0  0  0  0  0  0  0  0
   -0.8802   -2.2071    0.0000 C   0  0  0  0  0  0  0  0  0  0  0  0
    0.8772   -1.2138    0.0000 N   0  0  0  0  0  0  0  0  0  0  0  0
    2.6723    1.7089    0.0000 C   0  0  0  0  0  0  0  0  0  0  0  0
    0.0220   -0.7253    0.0000 C   0  0  0  0  0  0  0  0  0  0  0  0
    2.6723    0.7314    0.0000 N   0  0  0  0  0  0  0  0  0  0  0  0
    1.7764    0.2522    0.0000 C   0  0  0  0  0  0  0  0  0  0  0  0
   -3.5306   -0.7253    0.0000 C   0  0  0  0  0  0  0  0  0  0  0  0
    0.0030   -2.6895    0.0000 C   0  0  0  0  0  0  0  0  0  0  0  0
    1.7858    2.1914    0.0000 C   0  0  0  0  0  0  0  0  0  0  0  0
   -3.5306   -2.6895    0.0000 C   0  0  0  0  0  0  0  0  0  0  0  0
   -1.7638    0.2649    0.0000 O   0  0  0  0  0  0  0  0  0  0  0  0
    3.5526    2.1914    0.0000 C   0  0  0  0  0  0  0  0  0  0  0  0
    1.7764   -0.7253    0.0000 C   0  0  0  0  0  0  0  0  0  0  0  0
    0.8772    0.7314    0.0000 O   0  0  0  0  0  0  0  0  0  0  0  0
    0.8772   -2.2071    0.0000 C   0  0  0  0  0  0  0  0  0  0  0  0
   -4.3985   -1.2138    0.0000 C   0  0  0  0  0  0  0  0  0  0  0  0
   -4.3985   -2.1977    0.0000 C   0  0  0  0  0  0  0  0  0  0  0  0
    3.5526    3.1783    0.0000 C   0  0  0  0  0  0  0  0  0  0  0  0
    1.7858    3.1783    0.0000 C   0  0  0  0  0  0  0  0  0  0  0  0
   -3.5306    0.2649    0.0000 F   0  0  0  0  0  0  0  0  0  0  0  0
    4.3985    1.6902    0.0000 F   0  0  0  0  0  0  0  0  0  0  0  0
    2.6723    3.6638    0.0000 C   0  0  0  0  0  0  0  0  0  0  0  0
    0.9209    3.6858    0.0000 F   0  0  0  0  0  0  0  0  0  0  0  0
   -3.5306   -3.6858    0.0000 C   0  0  0  0  0  0  0  0  0  0  0  0
  1  2  1  0  0  0  0
  2  3  1  0  0  0  0
  3  5  1  0  0  0  0
  4  6  1  0  0  0  0
  4  5  1  0  0  0  0
  1  6  2  0  0  0  0
  7  9  1  0  0  0  0
  8 10  1  0  0  0  0
  1  9  1  0  0  0  0
 10 11  1  0  0  0  0
 11 18  1  0  0  0  0
  3 12  2  0  0  0  0
  6 13  1  0  0  0  0
 13 20  1  0  0  0  0
  8 14  2  0  0  0  0
  5 15  2  0  0  0  0
  2 16  2  0  0  0  0
  8 17  1  0  0  0  0
  7 18  1  0  0  0  0
 11 19  2  0  0  0  0
  7 20  1  0  0  0  0
 12 21  1  0  0  0  0
 21 22  2  0  0  0  0
 15 22  1  0  0  0  0
 17 23  2  0  0  0  0
 14 24  1  0  0  0  0
 24 27  2  0  0  0  0
 12 25  1  0  0  0  0
 17 26  1  0  0  0  0
 23 27  1  0  0  0  0
 24 28  1  0  0  0  0
 15 29  1  0  0  0  0
M  END
> <IDNUMBER>
L489-1905

> <available>
71

> <H_acceptor>
5

> <H_donor>
2

> <B_rotN>
4

> <N_O>
5

> <logP>
3.7665

> <logD>
2.8695

> <logSw>
-4.07

> <PSA>
48.113

> <pKa_ma>
6.5619

> <pKa_mb>
0.8922

> <N_Chirals>
0

> <Name>
N-(2,5-difluorophenyl)-2-(9-fluoro-6-methyl-10-oxo-3,4,5,10-tetrahydrobenzo[b][1,6]naphthyridin-2(1H)-yl)acetamide

> <Smile>
Cc(ccc(F)c12)c2NC(CCN(CC(Nc(cc(cc2)F)c2F)=O)C2)=C2C1=O

> <Color>
NOT COLORED

> <Collection>
NC

> <InChI>
InChI=1S/C21H18F3N3O2/c1-11-2-4-15(24)19-20(11)26-16-6-7-27(9-13(16)21(19)29)10-18(28)25-17-8-12(22)3-5-14(17)23/h2-5,8H,6-7,9-10H2,1H3,(H,25,28)(H,26,29)

> <InChI Key>
SXOXSUDYYXRUMN-UHFFFAOYSA-N

> <PERCENTSP3>
23.8

> <Link>
https://www.chemdiv.com/catalog/screening-compounds/compound-L489-1905/

> <MFCDNUMBER>
MFCD27457671

> <CLNUMBER>
CL8213A

> <STEREO>
ACHIRAL

> <State>
Solid

> <Similarity score>
0.22

$$$$
methyl 4-[2-(9-fluoro-6-methyl-10-oxo-3,4,5,10-tetrahydrobenzo[b][1,6]naphthyrid
  -OEChem-04222410502D

 31 34  0     0  0  0  0  0  0999 V2000
   -0.8897   -1.9911    0.0000 C   0  0  0  0  0  0  0  0  0  0  0  0
   -1.7545   -1.4678    0.0000 C   0  0  0  0  0  0  0  0  0  0  0  0
   -2.6132   -1.9911    0.0000 C   0  0  0  0  0  0  0  0  0  0  0  0
   -1.7641   -3.4889    0.0000 N   0  0  0  0  0  0  0  0  0  0  0  0
   -2.6132   -2.9874    0.0000 C   0  0  0  0  0  0  0  0  0  0  0  0
   -0.8897   -3.0062    0.0000 C   0  0  0  0  0  0  0  0  0  0  0  0
    0.8491   -1.9911    0.0000 N   0  0  0  0  0  0  0  0  0  0  0  0
   -0.0095   -1.4868    0.0000 C   0  0  0  0  0  0  0  0  0  0  0  0
    1.7296   -0.4903    0.0000 C   0  0  0  0  0  0  0  0  0  0  0  0
    2.6067    3.9838    0.0000 C   0  0  0  0  0  0  0  0  0  0  0  0
   -3.4746   -1.4868    0.0000 C   0  0  0  0  0  0  0  0  0  0  0  0
   -0.0188   -3.4980    0.0000 C   0  0  0  0  0  0  0  0  0  0  0  0
   -3.4746   -3.4889    0.0000 C   0  0  0  0  0  0  0  0  0  0  0  0
   -1.7545   -0.4903    0.0000 O   0  0  0  0  0  0  0  0  0  0  0  0
    2.6067   -0.0078    0.0000 N   0  0  0  0  0  0  0  0  0  0  0  0
    2.6067    2.9874    0.0000 C   0  0  0  0  0  0  0  0  0  0  0  0
    1.7296   -1.4868    0.0000 C   0  0  0  0  0  0  0  0  0  0  0  0
    1.7296    4.4852    0.0000 O   0  0  0  0  0  0  0  0  0  0  0  0
    0.8491    0.0078    0.0000 O   0  0  0  0  0  0  0  0  0  0  0  0
    0.8491   -3.0062    0.0000 C   0  0  0  0  0  0  0  0  0  0  0  0
   -4.3332   -1.9911    0.0000 C   0  0  0  0  0  0  0  0  0  0  0  0
   -4.3332   -2.9874    0.0000 C   0  0  0  0  0  0  0  0  0  0  0  0
    1.7484    2.4893    0.0000 C   0  0  0  0  0  0  0  0  0  0  0  0
    3.4715    2.4893    0.0000 C   0  0  0  0  0  0  0  0  0  0  0  0
    2.6067    1.0041    0.0000 C   0  0  0  0  0  0  0  0  0  0  0  0
   -3.4654   -0.4810    0.0000 F   0  0  0  0  0  0  0  0  0  0  0  0
    3.4715    4.4852    0.0000 O   0  0  0  0  0  0  0  0  0  0  0  0
    1.7484    1.4930    0.0000 C   0  0  0  0  0  0  0  0  0  0  0  0
    3.4715    1.4930    0.0000 C   0  0  0  0  0  0  0  0  0  0  0  0
   -3.4746   -4.4852    0.0000 C   0  0  0  0  0  0  0  0  0  0  0  0
    4.3332    3.9838    0.0000 C   0  0  0  0  0  0  0  0  0  0  0  0
  1  2  1  0  0  0  0
  2  3  1  0  0  0  0
  3  5  1  0  0  0  0
  4  6  1  0  0  0  0
  4  5  1  0  0  0  0
  1  6  2  0  0  0  0
  7  8  1  0  0  0  0
  1  8  1  0  0  0  0
  9 17  1  0  0  0  0
 10 16  1  0  0  0  0
  3 11  2  0  0  0  0
  6 12  1  0  0  0  0
 12 20  1  0  0  0  0
  5 13  2  0  0  0  0
  2 14  2  0  0  0  0
  9 15  1  0  0  0  0
 16 24  1  0  0  0  0
 16 23  2  0  0  0  0
  7 17  1  0  0  0  0
 10 18  2  0  0  0  0
  9 19  2  0  0  0  0
  7 20  1  0  0  0  0
 11 21  1  0  0  0  0
 21 22  2  0  0  0  0
 13 22  1  0  0  0  0
 23 28  1  0  0  0  0
 24 29  2  0  0  0  0
 15 25  1  0  0  0  0
 11 26  1  0  0  0  0
 10 27  1  0  0  0  0
 25 28  2  0  0  0  0
 25 29  1  0  0  0  0
 13 30  1  0  0  0  0
 27 31  1  0  0  0  0
M  END
> <IDNUMBER>
L489-1911

> <available>
59

> <H_acceptor>
8

> <H_donor>
2

> <B_rotN>
6

> <N_O>
7

> <logP>
3.6899

> <logD>
2.7929

> <logSw>
-4.2378

> <PSA>
69.985

> <pKa_ma>
6.5619

> <pKa_mb>
1.2894

> <N_Chirals>
0

> <Name>
methyl 4-[2-(9-fluoro-6-methyl-10-oxo-3,4,5,10-tetrahydrobenzo[b][1,6]naphthyridin-2(1H)-yl)acetamido]benzoate

> <Smile>
Cc(ccc(F)c12)c2NC(CCN(CC(Nc(cc2)ccc2C(OC)=O)=O)C2)=C2C1=O

> <Color>
YELLOW

> <Collection>
NC

> <InChI>
InChI=1S/C23H22FN3O4/c1-13-3-8-17(24)20-21(13)26-18-9-10-27(11-16(18)22(20)29)12-19(28)25-15-6-4-14(5-7-15)23(30)31-2/h3-8H,9-12H2,1-2H3,(H,25,28)(H,26,29)

> <InChI Key>
FMJLAEBGIWJVRI-UHFFFAOYSA-N

> <PERCENTSP3>
26.1

> <Link>
https://www.chemdiv.com/catalog/screening-compounds/compound-L489-1911/

> <MFCDNUMBER>
MFCD27457676

> <CLNUMBER>
CL8213A

> <STEREO>
ACHIRAL

> <State>
Solid

> <Similarity score>
0.22

$$$$
1-(3-ethyl-6-methyl[1,2]oxazolo[5,4-d]pyrimidin-4-yl)-N-[(2-fluorophenyl)methyl]
  -OEChem-04222410502D

 29 32  0     0  0  0  0  0  0999 V2000
   -0.5324    2.7320    0.0000 C   0  0  0  0  0  0  0  0  0  0  0  0
   -1.3870    3.2370    0.0000 C   0  0  0  0  0  0  0  0  0  0  0  0
   -1.3870    4.2269    0.0000 C   0  0  0  0  0  0  0  0  0  0  0  0
   -0.5324    1.7370    0.0000 N   0  0  0  0  0  0  0  0  0  0  0  0
    0.3324    3.2370    0.0000 N   0  0  0  0  0  0  0  0  0  0  0  0
   -0.5324    4.7218    0.0000 N   0  0  0  0  0  0  0  0  0  0  0  0
   -2.9271    3.7320    0.0000 N   0  0  0  0  0  0  0  0  0  0  0  0
   -2.3373    4.5319    0.0000 O   0  0  0  0  0  0  0  0  0  0  0  0
    0.3324    0.2525    0.0000 C   0  0  3  0  0  0  0  0  0  0  0  0
    0.3324    4.2269    0.0000 C   0  0  0  0  0  0  0  0  0  0  0  0
   -2.3373    2.9221    0.0000 C   0  0  0  0  0  0  0  0  0  0  0  0
    1.1924   -0.2426    0.0000 C   0  0  0  0  0  0  0  0  0  0  0  0
    0.3324    1.2421    0.0000 C   0  0  0  0  0  0  0  0  0  0  0  0
    1.1924   -1.2426    0.0000 N   0  0  0  0  0  0  0  0  0  0  0  0
    2.0471   -2.7323    0.0000 C   0  0  0  0  0  0  0  0  0  0  0  0
    2.0471   -1.7425    0.0000 C   0  0  0  0  0  0  0  0  0  0  0  0
    2.0471    0.2525    0.0000 O   0  0  0  0  0  0  0  0  0  0  0  0
    2.9171   -3.2274    0.0000 C   0  0  0  0  0  0  0  0  0  0  0  0
   -1.3870    1.2421    0.0000 C   0  0  0  0  0  0  0  0  0  0  0  0
    3.7720   -2.7323    0.0000 F   0  0  0  0  0  0  0  0  0  0  0  0
   -0.5324   -0.2426    0.0000 C   0  0  0  0  0  0  0  0  0  0  0  0
   -1.3870    0.2525    0.0000 C   0  0  0  0  0  0  0  0  0  0  0  0
    1.1924    4.7218    0.0000 C   0  0  0  0  0  0  0  0  0  0  0  0
   -2.6470    1.9773    0.0000 C   0  0  0  0  0  0  0  0  0  0  0  0
    1.1924   -3.2274    0.0000 C   0  0  0  0  0  0  0  0  0  0  0  0
    2.9171   -4.2269    0.0000 C   0  0  0  0  0  0  0  0  0  0  0  0
   -3.7720    1.5771    0.0000 C   0  0  0  0  0  0  0  0  0  0  0  0
    1.1924   -4.2269    0.0000 C   0  0  0  0  0  0  0  0  0  0  0  0
    2.0471   -4.7218    0.0000 C   0  0  0  0  0  0  0  0  0  0  0  0
  1  2  1  0  0  0  0
  2  3  2  0  0  0  0
  3  6  1  0  0  0  0
  1  4  1  0  0  0  0
  1  5  2  0  0  0  0
  6 10  2  0  0  0  0
  7 11  2  0  0  0  0
  7  8  1  0  0  0  0
  3  8  1  0  0  0  0
  9 13  1  0  0  0  0
  9 21  1  0  0  0  0
  5 10  1  0  0  0  0
  2 11  1  0  0  0  0
  9 12  1  0  0  0  0
  4 13  1  0  0  0  0
 12 14  1  0  0  0  0
 15 16  1  0  0  0  0
 14 16  1  0  0  0  0
 12 17  2  0  0  0  0
 15 18  2  0  0  0  0
  4 19  1  0  0  0  0
 18 20  1  0  0  0  0
 21 22  1  0  0  0  0
 19 22  1  0  0  0  0
 10 23  1  0  0  0  0
 11 24  1  0  0  0  0
 15 25  1  0  0  0  0
 18 26  1  0  0  0  0
 24 27  1  0  0  0  0
 25 28  2  0  0  0  0
 28 29  1  0  0  0  0
 26 29  2  0  0  0  0
M  END
> <IDNUMBER>
E990-0930

> <available>
38

> <H_acceptor>
6

> <H_donor>
1

> <B_rotN>
6

> <N_O>
7

> <logP>
3.157

> <logD>
3.1567

> <logSw>
-3.2498

> <PSA>
69.022

> <pKa_ma>
12.356

> <pKa_mb>
4.2171

> <N_Chirals>
1

> <Name>
1-(3-ethyl-6-methyl[1,2]oxazolo[5,4-d]pyrimidin-4-yl)-N-[(2-fluorophenyl)methyl]piperidine-3-carboxamide

> <Smile>
CCc1noc2c1c(N(CCC1)CC1C(NCc(cccc1)c1F)=O)nc(C)n2

> <Color>
NOT COLORED

> <Collection>
NC

> <InChI>
InChI=1S/C21H24FN5O2/c1-3-17-18-19(24-13(2)25-21(18)29-26-17)27-10-6-8-15(12-27)20(28)23-11-14-7-4-5-9-16(14)22/h4-5,7,9,15H,3,6,8,10-12H2,1-2H3,(H,23,28)/t15-/m0/s1

> <InChI Key>
CGQSFOKZVAZAAF-HNNXBMFYSA-N

> <PERCENTSP3>
42.9

> <Link>
https://www.chemdiv.com/catalog/screening-compounds/compound-E990-0930/

> <MFCDNUMBER>
MFCD14936807

> <CLNUMBER>
CL7467A

> <STEREO>
RACEMIC MIXTURE

> <State>
Solid

> <Similarity score>
0.22

$$$$
N-(3,5-dimethylphenyl)-2-(9-fluoro-6-methyl-10-oxo-3,4,5,10-tetrahydrobenzo[b][1
  -OEChem-04222410502D

 29 32  0     0  0  0  0  0  0999 V2000
   -0.8943   -1.2154    0.0000 C   0  0  0  0  0  0  0  0  0  0  0  0
   -1.7619   -0.7204    0.0000 C   0  0  0  0  0  0  0  0  0  0  0  0
   -2.6422   -1.2154    0.0000 C   0  0  0  0  0  0  0  0  0  0  0  0
   -1.7809   -2.6939    0.0000 N   0  0  0  0  0  0  0  0  0  0  0  0
   -2.6422   -2.2022    0.0000 C   0  0  0  0  0  0  0  0  0  0  0  0
   -0.8943   -2.2052    0.0000 C   0  0  0  0  0  0  0  0  0  0  0  0
    0.8786   -1.2154    0.0000 N   0  0  0  0  0  0  0  0  0  0  0  0
    0.0080   -0.7300    0.0000 C   0  0  0  0  0  0  0  0  0  0  0  0
    1.7652    0.2474    0.0000 C   0  0  0  0  0  0  0  0  0  0  0  0
   -3.5352   -0.7300    0.0000 C   0  0  0  0  0  0  0  0  0  0  0  0
   -0.0110   -2.6939    0.0000 C   0  0  0  0  0  0  0  0  0  0  0  0
    2.6673    0.7361    0.0000 N   0  0  0  0  0  0  0  0  0  0  0  0
    2.6673    1.7135    0.0000 C   0  0  0  0  0  0  0  0  0  0  0  0
   -3.5352   -2.6846    0.0000 C   0  0  0  0  0  0  0  0  0  0  0  0
   -1.7619    0.2664    0.0000 O   0  0  0  0  0  0  0  0  0  0  0  0
    1.7652   -0.7300    0.0000 C   0  0  0  0  0  0  0  0  0  0  0  0
    0.8786    0.7361    0.0000 O   0  0  0  0  0  0  0  0  0  0  0  0
    0.8786   -2.2052    0.0000 C   0  0  0  0  0  0  0  0  0  0  0  0
   -4.4028   -1.2154    0.0000 C   0  0  0  0  0  0  0  0  0  0  0  0
   -4.4028   -2.2022    0.0000 C   0  0  0  0  0  0  0  0  0  0  0  0
    3.5475    3.1700    0.0000 C   0  0  0  0  0  0  0  0  0  0  0  0
    1.7746    3.1700    0.0000 C   0  0  0  0  0  0  0  0  0  0  0  0
    1.7746    2.1929    0.0000 C   0  0  0  0  0  0  0  0  0  0  0  0
    3.5475    2.1929    0.0000 C   0  0  0  0  0  0  0  0  0  0  0  0
    2.6673    3.6587    0.0000 C   0  0  0  0  0  0  0  0  0  0  0  0
   -3.5352    0.2664    0.0000 F   0  0  0  0  0  0  0  0  0  0  0  0
   -3.5352   -3.6807    0.0000 C   0  0  0  0  0  0  0  0  0  0  0  0
    0.9194    3.6807    0.0000 C   0  0  0  0  0  0  0  0  0  0  0  0
    4.4028    3.6807    0.0000 C   0  0  0  0  0  0  0  0  0  0  0  0
  1  2  1  0  0  0  0
  2  3  1  0  0  0  0
  3  5  1  0  0  0  0
  4  6  1  0  0  0  0
  4  5  1  0  0  0  0
  1  6  2  0  0  0  0
  7  8  1  0  0  0  0
  1  8  1  0  0  0  0
  9 16  1  0  0  0  0
  3 10  2  0  0  0  0
  6 11  1  0  0  0  0
 11 18  1  0  0  0  0
  9 12  1  0  0  0  0
 12 13  1  0  0  0  0
  5 14  2  0  0  0  0
  2 15  2  0  0  0  0
  7 16  1  0  0  0  0
  9 17  2  0  0  0  0
  7 18  1  0  0  0  0
 10 19  1  0  0  0  0
 19 20  2  0  0  0  0
 14 20  1  0  0  0  0
 21 24  2  0  0  0  0
 22 23  1  0  0  0  0
 22 25  2  0  0  0  0
 13 23  2  0  0  0  0
 13 24  1  0  0  0  0
 21 25  1  0  0  0  0
 10 26  1  0  0  0  0
 14 27  1  0  0  0  0
 22 28  1  0  0  0  0
 21 29  1  0  0  0  0
M  END
> <IDNUMBER>
L489-1898

> <available>
60

> <H_acceptor>
5

> <H_donor>
2

> <B_rotN>
4

> <N_O>
5

> <logP>
4.2922

> <logD>
3.3952

> <logSw>
-4.3231

> <PSA>
48.811

> <pKa_ma>
6.5619

> <pKa_mb>
1.2894

> <N_Chirals>
0

> <Name>
N-(3,5-dimethylphenyl)-2-(9-fluoro-6-methyl-10-oxo-3,4,5,10-tetrahydrobenzo[b][1,6]naphthyridin-2(1H)-yl)acetamide

> <Smile>
Cc1cc(NC(CN(CC2)CC3=C2Nc2c(C)ccc(F)c2C3=O)=O)cc(C)c1

> <Color>
YELLOW

> <Collection>
NC

> <InChI>
InChI=1S/C23H24FN3O2/c1-13-8-14(2)10-16(9-13)25-20(28)12-27-7-6-19-17(11-27)23(29)21-18(24)5-4-15(3)22(21)26-19/h4-5,8-10H,6-7,11-12H2,1-3H3,(H,25,28)(H,26,29)

> <InChI Key>
OOKGWXHUMHPKFD-UHFFFAOYSA-N

> <PERCENTSP3>
30.4

> <Link>
https://www.chemdiv.com/catalog/screening-compounds/compound-L489-1898/

> <MFCDNUMBER>
MFCD27457664

> <CLNUMBER>
CL8213A

> <STEREO>
ACHIRAL

> <State>
Solid

> <Similarity score>
0.22

$$$$
2-{4-[4-cyano-1-(2-methylpropyl)-6,7-dihydro-5H-cyclopenta[c]pyridin-3-yl]pipera
  -OEChem-04222410502D

 33 36  0     0  0  0  0  0  0999 V2000
   -0.9524   -2.0087    0.0000 C   0  0  0  0  0  0  0  0  0  0  0  0
   -1.8153   -1.5087    0.0000 C   0  0  0  0  0  0  0  0  0  0  0  0
   -0.9524   -3.0049    0.0000 N   0  0  0  0  0  0  0  0  0  0  0  0
   -1.8153   -3.5050    0.0000 C   0  0  0  0  0  0  0  0  0  0  0  0
   -2.6736   -2.0087    0.0000 C   0  0  0  0  0  0  0  0  0  0  0  0
   -0.0898   -1.5087    0.0000 N   0  0  0  0  0  0  0  0  0  0  0  0
   -2.6779   -3.0214    0.0000 C   0  0  0  0  0  0  0  0  0  0  0  0
   -1.8153   -0.5126    0.0000 C   0  0  0  0  0  0  0  0  0  0  0  0
    2.5066    1.0002    0.0000 C   0  0  0  0  0  0  0  0  0  0  0  0
   -1.8153    0.4876    0.0000 N   0  0  0  0  0  0  0  0  0  0  0  0
    1.6483   -0.5126    0.0000 N   0  0  0  0  0  0  0  0  0  0  0  0
    3.3695    1.4961    0.0000 N   0  0  0  0  0  0  0  0  0  0  0  0
   -1.8153   -4.5010    0.0000 C   0  0  0  0  0  0  0  0  0  0  0  0
   -0.0898   -0.5126    0.0000 C   0  0  0  0  0  0  0  0  0  0  0  0
    0.7689   -2.0212    0.0000 C   0  0  0  0  0  0  0  0  0  0  0  0
    2.5066   -0.0000    0.0000 C   0  0  0  0  0  0  0  0  0  0  0  0
    1.6483    1.4961    0.0000 O   0  0  0  0  0  0  0  0  0  0  0  0
    1.6483   -1.5087    0.0000 C   0  0  0  0  0  0  0  0  0  0  0  0
    0.7689   -0.0126    0.0000 C   0  0  0  0  0  0  0  0  0  0  0  0
    3.3695    2.4963    0.0000 C   0  0  0  0  0  0  0  0  0  0  0  0
    3.3695    4.5010    0.0000 C   0  0  0  0  0  0  0  0  0  0  0  0
   -3.6279   -1.6921    0.0000 C   0  0  0  0  0  0  0  0  0  0  0  0
    2.5066    2.9924    0.0000 C   0  0  0  0  0  0  0  0  0  0  0  0
    4.2323    2.9924    0.0000 C   0  0  0  0  0  0  0  0  0  0  0  0
   -3.6406   -3.3215    0.0000 C   0  0  0  0  0  0  0  0  0  0  0  0
    4.2323    4.0008    0.0000 C   0  0  0  0  0  0  0  0  0  0  0  0
    2.5066    4.0008    0.0000 C   0  0  0  0  0  0  0  0  0  0  0  0
    3.3695    5.4969    0.0000 O   0  0  0  0  0  0  0  0  0  0  0  0
   -4.2323   -2.5047    0.0000 C   0  0  0  0  0  0  0  0  0  0  0  0
   -2.6736   -5.0011    0.0000 C   0  0  0  0  0  0  0  0  0  0  0  0
    4.2323    5.9971    0.0000 C   0  0  0  0  0  0  0  0  0  0  0  0
   -3.5404   -4.4967    0.0000 C   0  0  0  0  0  0  0  0  0  0  0  0
   -2.6779   -5.9971    0.0000 C   0  0  0  0  0  0  0  0  0  0  0  0
  1  2  2  0  0  0  0
  1  3  1  0  0  0  0
  3  4  2  0  0  0  0
  2  5  1  0  0  0  0
  5  7  2  0  0  0  0
  1  6  1  0  0  0  0
  4  7  1  0  0  0  0
  2  8  1  0  0  0  0
  9 16  1  0  0  0  0
  8 10  3  0  0  0  0
 11 18  1  0  0  0  0
  9 12  1  0  0  0  0
  4 13  1  0  0  0  0
  6 14  1  0  0  0  0
  6 15  1  0  0  0  0
 11 16  1  0  0  0  0
  9 17  2  0  0  0  0
 15 18  1  0  0  0  0
 14 19  1  0  0  0  0
 11 19  1  0  0  0  0
 12 20  1  0  0  0  0
 21 26  2  0  0  0  0
 21 27  1  0  0  0  0
  5 22  1  0  0  0  0
 20 23  1  0  0  0  0
 20 24  2  0  0  0  0
  7 25  1  0  0  0  0
 25 29  1  0  0  0  0
 24 26  1  0  0  0  0
 23 27  2  0  0  0  0
 21 28  1  0  0  0  0
 22 29  1  0  0  0  0
 13 30  1  0  0  0  0
 28 31  1  0  0  0  0
 30 32  1  0  0  0  0
 30 33  1  0  0  0  0
M  END
> <IDNUMBER>
IB06-4186

> <available>
50

> <H_acceptor>
6

> <H_donor>
1

> <B_rotN>
9

> <N_O>
7

> <logP>
5.24

> <logD>
5.17

> <logSw>
-6.28

> <PSA>
100.62

> <pKa_ma>
12.26

> <pKa_mb>
6.7

> <N_Chirals>
0

> <Name>
2-{4-[4-cyano-1-(2-methylpropyl)-6,7-dihydro-5H-cyclopenta[c]pyridin-3-yl]piperazin-1-yl}-N-(4-methoxyphenyl)acetamide

> <Smile>
CC(C)Cc(nc1N2CCN(CC(Nc(cc3)ccc3OC)=O)CC2)c(CCC2)c2c1C#N

> <Color>
NOT COLORED

> <Collection>
DC

> <InChI>
InChI=1S/C26H33N5O2/c1-18(2)15-24-22-6-4-5-21(22)23(16-27)26(29-24)31-13-11-30(12-14-31)17-25(32)28-19-7-9-20(33-3)10-8-19/h7-10,18H,4-6,11-15,17H2,1-3H3,(H,28,32)

> <InChI Key>
GPIKTKHIYRHKRF-UHFFFAOYSA-N

> <PERCENTSP3>
50

> <Link>
https://www.chemdiv.com/catalog/screening-compounds/compound-IB06-4186/

> <STEREO>
ACHIRAL

> <State>
Solid

> <Similarity score>
0.22

$$$$
N-(3,4-difluorophenyl)-1-(5,6-dimethylfuro[2,3-d]pyrimidin-4-yl)piperidine-3-car
  -OEChem-04222410502D

 28 31  0     0  0  0  0  0  0999 V2000
   -3.4826   -0.0292    0.0000 C   0  0  0  0  0  0  0  0  0  0  0  0
   -4.3454    0.4710    0.0000 C   0  0  0  0  0  0  0  0  0  0  0  0
   -2.6196    0.4710    0.0000 C   0  0  0  0  0  0  0  0  0  0  0  0
   -3.6868   -1.0046    0.0000 C   0  0  0  0  0  0  0  0  0  0  0  0
   -1.7485   -0.0292    0.0000 N   0  0  0  0  0  0  0  0  0  0  0  0
   -5.0957   -0.1958    0.0000 O   0  0  0  0  0  0  0  0  0  0  0  0
   -4.6829   -1.1087    0.0000 C   0  0  0  0  0  0  0  0  0  0  0  0
    0.8525    0.4710    0.0000 C   0  0  0  0  0  0  0  0  0  0  0  0
   -0.0186   -0.0292    0.0000 C   0  0  3  0  0  0  0  0  0  0  0  0
   -4.3454    1.4714    0.0000 N   0  0  0  0  0  0  0  0  0  0  0  0
   -2.6196    1.4714    0.0000 N   0  0  0  0  0  0  0  0  0  0  0  0
   -0.8816    0.4710    0.0000 C   0  0  0  0  0  0  0  0  0  0  0  0
    1.7193   -0.0292    0.0000 N   0  0  0  0  0  0  0  0  0  0  0  0
    4.3161    0.4710    0.0000 C   0  0  0  0  0  0  0  0  0  0  0  0
    3.4450   -0.0292    0.0000 C   0  0  0  0  0  0  0  0  0  0  0  0
   -3.4826    1.9715    0.0000 C   0  0  0  0  0  0  0  0  0  0  0  0
    2.5820    0.4710    0.0000 C   0  0  0  0  0  0  0  0  0  0  0  0
    4.3161    1.4714    0.0000 C   0  0  0  0  0  0  0  0  0  0  0  0
    0.8525    1.4714    0.0000 O   0  0  0  0  0  0  0  0  0  0  0  0
    3.4450    1.9715    0.0000 C   0  0  0  0  0  0  0  0  0  0  0  0
    5.1831   -0.0292    0.0000 F   0  0  0  0  0  0  0  0  0  0  0  0
   -1.7485   -1.0295    0.0000 C   0  0  0  0  0  0  0  0  0  0  0  0
    2.5820    1.4714    0.0000 C   0  0  0  0  0  0  0  0  0  0  0  0
    5.1831    1.9715    0.0000 F   0  0  0  0  0  0  0  0  0  0  0  0
   -3.0198   -1.7465    0.0000 C   0  0  0  0  0  0  0  0  0  0  0  0
   -5.1831   -1.9715    0.0000 C   0  0  0  0  0  0  0  0  0  0  0  0
   -0.0186   -1.0295    0.0000 C   0  0  0  0  0  0  0  0  0  0  0  0
   -0.8816   -1.5297    0.0000 C   0  0  0  0  0  0  0  0  0  0  0  0
  1  2  2  0  0  0  0
  1  3  1  0  0  0  0
  1  4  1  0  0  0  0
  3  5  1  0  0  0  0
  2  6  1  0  0  0  0
  6  7  1  0  0  0  0
  4  7  2  0  0  0  0
  8  9  1  0  0  0  0
  9 12  1  0  0  0  0
  9 27  1  0  0  0  0
  2 10  1  0  0  0  0
  3 11  2  0  0  0  0
  5 12  1  0  0  0  0
  8 13  1  0  0  0  0
 14 15  1  0  0  0  0
 15 17  2  0  0  0  0
 11 16  1  0  0  0  0
 10 16  2  0  0  0  0
 13 17  1  0  0  0  0
 18 20  1  0  0  0  0
 14 18  2  0  0  0  0
  8 19  2  0  0  0  0
 20 23  2  0  0  0  0
 14 21  1  0  0  0  0
  5 22  1  0  0  0  0
 17 23  1  0  0  0  0
 18 24  1  0  0  0  0
  4 25  1  0  0  0  0
  7 26  1  0  0  0  0
 27 28  1  0  0  0  0
 22 28  1  0  0  0  0
M  END
> <IDNUMBER>
F228-0502

> <available>
53

> <H_acceptor>
5

> <H_donor>
1

> <B_rotN>
4

> <N_O>
6

> <logP>
3.6144

> <logD>
3.5334

> <logSw>
-3.9103

> <PSA>
54.579

> <pKa_ma>
8.1927

> <pKa_mb>
5.9759

> <N_Chirals>
1

> <Name>
N-(3,4-difluorophenyl)-1-(5,6-dimethylfuro[2,3-d]pyrimidin-4-yl)piperidine-3-carboxamide

> <Smile>
Cc1c(C)oc2c1c(N(CCC1)CC1C(Nc(cc1)cc(F)c1F)=O)ncn2

> <Color>
NOT COLORED

> <Collection>
DC

> <InChI>
InChI=1S/C20H20F2N4O2/c1-11-12(2)28-20-17(11)18(23-10-24-20)26-7-3-4-13(9-26)19(27)25-14-5-6-15(21)16(22)8-14/h5-6,8,10,13H,3-4,7,9H2,1-2H3,(H,25,27)/t13-/m0/s1

> <InChI Key>
LWCOEBJROCCYLB-ZDUSSCGKSA-N

> <PERCENTSP3>
35

> <Link>
https://www.chemdiv.com/catalog/screening-compounds/compound-F228-0502/

> <MFCDNUMBER>
MFCD14945552

> <CLNUMBER>
CL1321B

> <STEREO>
RACEMIC MIXTURE

> <State>
Solid

> <Similarity score>
0.22

$$$$
ethyl 4-[3-(6-methoxy-1,3,4,9-tetrahydro-2H-pyrido[3,4-b]indol-2-yl)-2,5-dioxopy
  -OEChem-04222410502D

 33 37  0     0  0  0  0  0  0999 V2000
    1.4674   -0.4315    0.0000 N   0  0  0  0  0  0  0  0  0  0  0  0
    0.4919   -0.2188    0.0000 C   0  0  0  0  0  0  0  0  0  0  0  0
    1.5715   -1.4155    0.0000 C   0  0  0  0  0  0  0  0  0  0  0  0
   -2.4011   -2.2240    0.0000 C   0  0  0  0  0  0  0  0  0  0  0  0
    0.0000   -1.0901    0.0000 C   0  0  3  0  0  0  0  0  0  0  0  0
   -2.9930   -1.4112    0.0000 C   0  0  0  0  0  0  0  0  0  0  0  0
    0.6586   -1.8196    0.0000 C   0  0  0  0  0  0  0  0  0  0  0  0
   -0.9962   -1.1817    0.0000 N   0  0  3  0  0  0  0  0  0  0  0  0
   -2.9930   -3.0329    0.0000 N   0  0  0  0  0  0  0  0  0  0  0  0
   -3.9518   -1.7278    0.0000 C   0  0  0  0  0  0  0  0  0  0  0  0
   -3.9518   -2.7324    0.0000 C   0  0  0  0  0  0  0  0  0  0  0  0
   -1.4006   -2.1158    0.0000 C   0  0  0  0  0  0  0  0  0  0  0  0
    2.2092    0.2397    0.0000 C   0  0  0  0  0  0  0  0  0  0  0  0
   -2.5886   -0.4816    0.0000 C   0  0  0  0  0  0  0  0  0  0  0  0
    4.4436    2.2446    0.0000 C   0  0  0  0  0  0  0  0  0  0  0  0
    0.0875    0.6858    0.0000 O   0  0  0  0  0  0  0  0  0  0  0  0
   -1.5924   -0.3771    0.0000 C   0  0  0  0  0  0  0  0  0  0  0  0
    2.4428   -1.9198    0.0000 O   0  0  0  0  0  0  0  0  0  0  0  0
    3.6975    1.5779    0.0000 C   0  0  0  0  0  0  0  0  0  0  0  0
   -4.8230   -1.2237    0.0000 C   0  0  0  0  0  0  0  0  0  0  0  0
    4.2311    3.2245    0.0000 O   0  0  0  0  0  0  0  0  0  0  0  0
   -4.8230   -3.2245    0.0000 C   0  0  0  0  0  0  0  0  0  0  0  0
    3.1682   -0.0687    0.0000 C   0  0  0  0  0  0  0  0  0  0  0  0
    2.0008    1.2194    0.0000 C   0  0  0  0  0  0  0  0  0  0  0  0
    2.7430    1.8820    0.0000 C   0  0  0  0  0  0  0  0  0  0  0  0
    3.9100    0.6023    0.0000 C   0  0  0  0  0  0  0  0  0  0  0  0
   -5.6693   -1.7278    0.0000 C   0  0  0  0  0  0  0  0  0  0  0  0
    5.3775    1.9403    0.0000 O   0  0  0  0  0  0  0  0  0  0  0  0
   -5.6693   -2.7324    0.0000 C   0  0  0  0  0  0  0  0  0  0  0  0
   -6.5363   -1.2237    0.0000 O   0  0  0  0  0  0  0  0  0  0  0  0
    5.5900    0.9649    0.0000 C   0  0  0  0  0  0  0  0  0  0  0  0
   -6.5447   -0.2272    0.0000 C   0  0  0  0  0  0  0  0  0  0  0  0
    6.5447    0.6649    0.0000 C   0  0  0  0  0  0  0  0  0  0  0  0
  1  2  1  0  0  0  0
  1  3  1  0  0  0  0
  4 12  1  0  0  0  0
  2  5  1  0  0  0  0
  5  7  1  0  0  0  0
  6 14  1  0  0  0  0
  4  6  2  0  0  0  0
  3  7  1  0  0  0  0
  5  8  1  0  0  0  0
  4  9  1  0  0  0  0
  6 10  1  0  0  0  0
 10 11  1  0  0  0  0
  9 11  1  0  0  0  0
  8 12  1  0  0  0  0
  1 13  1  0  0  0  0
 14 17  1  0  0  0  0
 15 19  1  0  0  0  0
  2 16  2  0  0  0  0
  8 17  1  0  0  0  0
  3 18  2  0  0  0  0
 19 25  1  0  0  0  0
 10 20  2  0  0  0  0
 15 21  2  0  0  0  0
 11 22  2  0  0  0  0
 13 23  2  0  0  0  0
 13 24  1  0  0  0  0
 24 25  2  0  0  0  0
 23 26  1  0  0  0  0
 19 26  2  0  0  0  0
 20 27  1  0  0  0  0
 27 29  2  0  0  0  0
 15 28  1  0  0  0  0
 22 29  1  0  0  0  0
 27 30  1  0  0  0  0
 28 31  1  0  0  0  0
 30 32  1  0  0  0  0
 31 33  1  0  0  0  0
M  END
> <IDNUMBER>
Y020-3913

> <available>
26

> <H_acceptor>
9

> <H_donor>
1

> <B_rotN>
6

> <N_O>
8

> <logP>
2.2999

> <logD>
2.2999

> <logSw>
-2.9455

> <PSA>
70.797

> <pKa_ma>
15.696

> <pKa_mb>
2.076

> <N_Chirals>
1

> <Name>
ethyl 4-[3-(6-methoxy-1,3,4,9-tetrahydro-2H-pyrido[3,4-b]indol-2-yl)-2,5-dioxopyrrolidin-1-yl]benzoate

> <Smile>
CCOC(c(cc1)ccc1N(C(CC1N(CC2)Cc3c2c(cc(cc2)OC)c2[nH]3)=O)C1=O)=O

> <Color>
NOT COLORED

> <Collection>
DC

> <InChI>
InChI=1S/C25H25N3O5/c1-3-33-25(31)15-4-6-16(7-5-15)28-23(29)13-22(24(28)30)27-11-10-18-19-12-17(32-2)8-9-20(19)26-21(18)14-27/h4-9,12,22,26H,3,10-11,13-14H2,1-2H3/t22-/m0/s1

> <InChI Key>
YKZPJWBLVJSWGG-QFIPXVFZSA-N

> <PERCENTSP3>
32

> <Link>
https://www.chemdiv.com/catalog/screening-compounds/compound-Y020-3913/

> <MFCDNUMBER>
MFCD13676886

> <CLNUMBER>
CL2165

> <STEREO>
RACEMIC MIXTURE

> <State>
Solid

> <Similarity score>
0.22

$$$$
7-[(4-chloro-3-fluorophenyl)methyl]-2-(morpholin-4-yl)-3,5,6,7,8,9-hexahydro-4H-
  -OEChem-04222410502D

 27 30  0     0  0  0  0  0  0999 V2000
    2.6727   -0.3792    0.0000 C   0  0  0  0  0  0  0  0  0  0  0  0
    2.4596    0.5984    0.0000 N   0  0  0  0  0  0  0  0  0  0  0  0
    0.7646    0.2066    0.0000 C   0  0  0  0  0  0  0  0  0  0  0  0
    1.9396   -1.0561    0.0000 N   0  0  0  0  0  0  0  0  0  0  0  0
    1.4976    0.8929    0.0000 C   0  0  0  0  0  0  0  0  0  0  0  0
    0.9838   -0.7710    0.0000 C   0  0  0  0  0  0  0  0  0  0  0  0
    3.6347   -0.6705    0.0000 N   0  0  0  0  0  0  0  0  0  0  0  0
   -0.1348    0.6390    0.0000 C   0  0  0  0  0  0  0  0  0  0  0  0
   -1.2627   -0.7710    0.0000 N   0  0  0  0  0  0  0  0  0  0  0  0
    0.3634   -1.5449    0.0000 C   0  0  0  0  0  0  0  0  0  0  0  0
   -4.5714    0.2506    0.0000 C   0  0  0  0  0  0  0  0  0  0  0  0
    1.2752    1.8580    0.0000 O   0  0  0  0  0  0  0  0  0  0  0  0
   -4.2707    1.2030    0.0000 C   0  0  0  0  0  0  0  0  0  0  0  0
   -3.8945   -0.4827    0.0000 C   0  0  0  0  0  0  0  0  0  0  0  0
   -2.9172   -0.2569    0.0000 C   0  0  0  0  0  0  0  0  0  0  0  0
   -2.2403   -0.9903    0.0000 C   0  0  0  0  0  0  0  0  0  0  0  0
   -1.0310    0.2066    0.0000 C   0  0  0  0  0  0  0  0  0  0  0  0
   -0.6329   -1.5449    0.0000 C   0  0  0  0  0  0  0  0  0  0  0  0
    5.5428   -1.2691    0.0000 O   0  0  0  0  0  0  0  0  0  0  0  0
   -3.2931    1.4382    0.0000 C   0  0  0  0  0  0  0  0  0  0  0  0
   -5.5428    0.0282    0.0000 F   0  0  0  0  0  0  0  0  0  0  0  0
   -2.6162    0.7048    0.0000 C   0  0  0  0  0  0  0  0  0  0  0  0
   -4.9570    1.9457    0.0000 Cl  0  0  0  0  0  0  0  0  0  0  0  0
    3.8602   -1.6450    0.0000 C   0  0  0  0  0  0  0  0  0  0  0  0
    4.3677    0.0061    0.0000 C   0  0  0  0  0  0  0  0  0  0  0  0
    5.3235   -0.2915    0.0000 C   0  0  0  0  0  0  0  0  0  0  0  0
    4.8098   -1.9457    0.0000 C   0  0  0  0  0  0  0  0  0  0  0  0
  1  2  1  0  0  0  0
  3  6  2  0  0  0  0
  3  5  1  0  0  0  0
  1  4  2  0  0  0  0
  2  5  1  0  0  0  0
  4  6  1  0  0  0  0
  1  7  1  0  0  0  0
  3  8  1  0  0  0  0
  9 18  1  0  0  0  0
  9 17  1  0  0  0  0
  6 10  1  0  0  0  0
 11 14  2  0  0  0  0
 11 13  1  0  0  0  0
  5 12  2  0  0  0  0
 13 20  2  0  0  0  0
 14 15  1  0  0  0  0
 15 16  1  0  0  0  0
  9 16  1  0  0  0  0
  8 17  1  0  0  0  0
 10 18  1  0  0  0  0
 19 26  1  0  0  0  0
 19 27  1  0  0  0  0
 20 22  1  0  0  0  0
 11 21  1  0  0  0  0
 15 22  2  0  0  0  0
 13 23  1  0  0  0  0
  7 24  1  0  0  0  0
  7 25  1  0  0  0  0
 25 26  1  0  0  0  0
 24 27  1  0  0  0  0
M  END
> <IDNUMBER>
S039-3191

> <available>
30

> <H_acceptor>
5

> <H_donor>
1

> <B_rotN>
3

> <N_O>
6

> <logP>
1.9374

> <logD>
1.8102

> <logSw>
-3.026

> <PSA>
49.708

> <pKa_ma>
9.6889

> <pKa_mb>
6.9233

> <N_Chirals>
0

> <Name>
7-[(4-chloro-3-fluorophenyl)methyl]-2-(morpholin-4-yl)-3,5,6,7,8,9-hexahydro-4H-pyrimido[4,5-d]azepin-4-one

> <Smile>
O=C1NC(N2CCOCC2)=NC2=C1CCN(Cc(cc1)cc(F)c1Cl)CC2

> <Color>
YELLOW

> <Collection>
IC

> <InChI>
InChI=1S/C19H22ClFN4O2/c20-15-2-1-13(11-16(15)21)12-24-5-3-14-17(4-6-24)22-19(23-18(14)26)25-7-9-27-10-8-25/h1-2,11H,3-10,12H2,(H,22,23,26)

> <InChI Key>
XQNHUTBJXXDVJX-UHFFFAOYSA-N

> <PERCENTSP3>
47.4

> <Link>
https://www.chemdiv.com/catalog/screening-compounds/compound-S039-3191/

> <MFCDNUMBER>
MFCD28999091

> <CLNUMBER>
CM2417

> <STEREO>
ACHIRAL

> <State>
Solid

> <Similarity score>
0.22

$$$$
