
  -OEChem-04222410502D

 29 32  0     0  0  0  0  0  0999 V2000
    1.8542   -2.8875    0.0000 C   0  0  0  0  0  0  0  0  0  0  0  0
    2.5750   -3.3000    0.0000 C   0  0  0  0  0  0  0  0  0  0  0  0
    1.1417   -3.3000    0.0000 N   0  0  0  0  0  0  0  0  0  0  0  0
    1.8667   -2.0625    0.0000 N   0  0  3  0  0  0  0  0  0  0  0  0
    1.8542   -4.5375    0.0000 N   0  0  0  0  0  0  0  0  0  0  0  0
    2.5667   -4.1292    0.0000 C   0  0  0  0  0  0  0  0  0  0  0  0
    1.1667    0.8250    0.0000 C   0  0  0  0  0  0  0  0  0  0  0  0
    1.1375   -4.1167    0.0000 C   0  0  0  0  0  0  0  0  0  0  0  0
    1.1667    1.6500    0.0000 C   0  0  0  0  0  0  0  0  0  0  0  0
    1.8750    0.4125    0.0000 N   0  0  0  0  0  0  0  0  0  0  0  0
    1.8875    2.8958    0.0000 C   0  0  0  0  0  0  0  0  0  0  0  0
    1.8875    2.0625    0.0000 C   0  0  0  0  0  0  0  0  0  0  0  0
    1.1542   -1.6500    0.0000 C   0  0  0  0  0  0  0  0  0  0  0  0
    2.5750   -1.6542    0.0000 C   0  0  0  0  0  0  0  0  0  0  0  0
    1.1667    3.3000    0.0000 C   0  0  0  0  0  0  0  0  0  0  0  0
    0.4500    0.4125    0.0000 O   0  0  0  0  0  0  0  0  0  0  0  0
    0.4542    2.0625    0.0000 C   0  0  0  0  0  0  0  0  0  0  0  0
    0.4542    2.8958    0.0000 C   0  0  0  0  0  0  0  0  0  0  0  0
    1.8750   -0.4125    0.0000 C   0  0  3  0  0  0  0  0  0  0  0  0
    2.5792   -0.8250    0.0000 C   0  0  0  0  0  0  0  0  0  0  0  0
    1.1542   -0.8250    0.0000 C   0  0  0  0  0  0  0  0  0  0  0  0
    2.5917    3.3000    0.0000 F   0  0  0  0  0  0  0  0  0  0  0  0
    3.3000   -2.9000    0.0000 C   0  0  0  0  0  0  0  0  0  0  0  0
    1.1667    4.1167    0.0000 O   0  0  0  0  0  0  0  0  0  0  0  0
    3.2792   -4.5500    0.0000 C   0  0  0  0  0  0  0  0  0  0  0  0
    0.4250   -4.5292    0.0000 C   0  0  0  0  0  0  0  0  0  0  0  0
    1.8750    4.5292    0.0000 C   0  0  0  0  0  0  0  0  0  0  0  0
    4.0000   -3.3167    0.0000 C   0  0  0  0  0  0  0  0  0  0  0  0
    3.9917   -4.1417    0.0000 C   0  0  0  0  0  0  0  0  0  0  0  0
  1  2  1  0  0  0  0
  1  3  2  0  0  0  0
  1  4  1  0  0  0  0
  5  8  2  0  0  0  0
  2  6  2  0  0  0  0
  7 10  1  0  0  0  0
  3  8  1  0  0  0  0
  7  9  1  0  0  0  0
 10 19  1  0  0  0  0
 11 12  1  0  0  0  0
  9 12  2  0  0  0  0
  4 13  1  0  0  0  0
  4 14  1  0  0  0  0
 15 18  1  0  0  0  0
  7 16  2  0  0  0  0
  9 17  1  0  0  0  0
 17 18  2  0  0  0  0
 19 20  1  0  0  0  0
 14 20  1  0  0  0  0
 13 21  1  0  0  0  0
 11 22  1  0  0  0  0
  2 23  1  0  0  0  0
 15 24  1  0  0  0  0
  6 25  1  0  0  0  0
  8 26  1  0  0  0  0
 24 27  1  0  0  0  0
 23 28  1  0  0  0  0
 28 29  1  0  0  0  0
  5  6  1  0  0  0  0
 19 21  1  0  0  0  0
 25 29  1  0  0  0  0
 11 15  2  0  0  0  0
M  END
> <MOLFORMULA>
C22 H27 F N4 O2

> <MOLWEIGHT>
3.984793000000000e+002

> <IDNUMBER>
AT-687/SK01695

> <PRICE>
EUR 80/10 mg

> <Similarity score>
0.26

$$$$

  -OEChem-04222410502D

 28 31  0     0  0  0  0  0  0999 V2000
    2.6250    2.3125    0.0000 C   0  0  0  0  0  0  0  0  0  0  0  0
    3.3375   -1.4000    0.0000 C   0  0  0  0  0  0  0  0  0  0  0  0
    1.9042    2.7250    0.0000 C   0  0  0  0  0  0  0  0  0  0  0  0
    3.3375    2.7250    0.0000 N   0  0  0  0  0  0  0  0  0  0  0  0
    3.3375   -2.2250    0.0000 C   0  0  0  0  0  0  0  0  0  0  0  0
    2.6250    1.4875    0.0000 N   0  0  3  0  0  0  0  0  0  0  0  0
    2.6250    3.9458    0.0000 N   0  0  0  0  0  0  0  0  0  0  0  0
    1.9042    3.5458    0.0000 C   0  0  0  0  0  0  0  0  0  0  0  0
    3.3375    3.5333    0.0000 C   0  0  0  0  0  0  0  0  0  0  0  0
    2.6292   -0.9875    0.0000 N   0  0  0  0  0  0  0  0  0  0  0  0
    4.0542   -0.9875    0.0000 O   0  0  0  0  0  0  0  0  0  0  0  0
    2.6292   -2.6375    0.0000 C   0  0  0  0  0  0  0  0  0  0  0  0
    4.0625   -2.6375    0.0000 C   0  0  0  0  0  0  0  0  0  0  0  0
    3.3375    1.0750    0.0000 C   0  0  0  0  0  0  0  0  0  0  0  0
    1.9042    1.0750    0.0000 C   0  0  0  0  0  0  0  0  0  0  0  0
    2.6292   -0.1542    0.0000 C   0  0  3  0  0  0  0  0  0  0  0  0
    1.9042    0.2500    0.0000 C   0  0  0  0  0  0  0  0  0  0  0  0
    3.3375    0.2500    0.0000 C   0  0  0  0  0  0  0  0  0  0  0  0
    1.9167   -2.2250    0.0000 F   0  0  0  0  0  0  0  0  0  0  0  0
    4.7750   -2.2250    0.0000 F   0  0  0  0  0  0  0  0  0  0  0  0
    1.1917    2.3125    0.0000 C   0  0  0  0  0  0  0  0  0  0  0  0
    1.2000    3.9583    0.0000 C   0  0  0  0  0  0  0  0  0  0  0  0
    4.0542    3.9458    0.0000 C   0  0  0  0  0  0  0  0  0  0  0  0
    3.3375   -3.8750    0.0000 C   0  0  0  0  0  0  0  0  0  0  0  0
    2.6292   -3.4625    0.0000 C   0  0  0  0  0  0  0  0  0  0  0  0
    4.0625   -3.4625    0.0000 C   0  0  0  0  0  0  0  0  0  0  0  0
    0.4792    2.7333    0.0000 C   0  0  0  0  0  0  0  0  0  0  0  0
    0.4875    3.5500    0.0000 C   0  0  0  0  0  0  0  0  0  0  0  0
  2 10  1  0  0  0  0
  1  3  1  0  0  0  0
  1  4  2  0  0  0  0
  2  5  1  0  0  0  0
  1  6  1  0  0  0  0
  7  9  2  0  0  0  0
  3  8  2  0  0  0  0
  4  9  1  0  0  0  0
 10 16  1  0  0  0  0
  2 11  2  0  0  0  0
  5 12  1  0  0  0  0
  5 13  2  0  0  0  0
  6 14  1  0  0  0  0
  6 15  1  0  0  0  0
 16 17  1  0  0  0  0
 15 17  1  0  0  0  0
 14 18  1  0  0  0  0
 12 19  1  0  0  0  0
 13 20  1  0  0  0  0
  3 21  1  0  0  0  0
  8 22  1  0  0  0  0
  9 23  1  0  0  0  0
 24 26  2  0  0  0  0
 12 25  2  0  0  0  0
 13 26  1  0  0  0  0
 21 27  1  0  0  0  0
 27 28  1  0  0  0  0
  7  8  1  0  0  0  0
 16 18  1  0  0  0  0
 22 28  1  0  0  0  0
 24 25  1  0  0  0  0
M  END
> <MOLFORMULA>
C21 H24 F2 N4 O

> <MOLWEIGHT>
3.864436000000000e+002

> <IDNUMBER>
AT-687/SK01679

> <PRICE>
EUR 80/10 mg

> <Similarity score>
0.25

$$$$

  -OEChem-04222410502D

 33 37  0     0  0  0  0  0  0999 V2000
    3.9917   -1.3792    0.0000 C   0  0  0  0  0  0  0  0  0  0  0  0
    7.5625    1.5083    0.0000 C   0  0  0  0  0  0  0  0  0  0  0  0
    3.2750   -0.9667    0.0000 C   0  0  0  0  0  0  0  0  0  0  0  0
    2.5625   -1.3792    0.0000 O   0  0  0  0  0  0  0  0  0  0  0  0
    7.5625    2.3333    0.0000 C   0  0  0  0  0  0  0  0  0  0  0  0
    3.9917   -2.2042    0.0000 C   0  0  0  0  0  0  0  0  0  0  0  0
    4.7042   -0.9667    0.0000 C   0  0  0  0  0  0  0  0  0  0  0  0
    8.2792    1.0958    0.0000 N   0  0  0  0  0  0  0  0  0  0  0  0
    6.8500    1.0958    0.0000 N   0  0  3  0  0  0  0  0  0  0  0  0
    2.5667   -2.2042    0.0000 C   0  0  0  0  0  0  0  0  0  0  0  0
    8.9875    2.3333    0.0000 N   0  0  0  0  0  0  0  0  0  0  0  0
    8.2792    2.7458    0.0000 C   0  0  0  0  0  0  0  0  0  0  0  0
    3.2750   -2.6167    0.0000 C   0  0  0  0  0  0  0  0  0  0  0  0
    8.9875    1.5083    0.0000 C   0  0  0  0  0  0  0  0  0  0  0  0
    4.7042   -0.1417    0.0000 N   0  0  0  0  0  0  0  0  0  0  0  0
    3.2750   -0.1417    0.0000 O   0  0  0  0  0  0  0  0  0  0  0  0
    5.4167   -1.3792    0.0000 O   0  0  0  0  0  0  0  0  0  0  0  0
    6.8500    0.2708    0.0000 C   0  0  0  0  0  0  0  0  0  0  0  0
    6.1292    1.5083    0.0000 C   0  0  0  0  0  0  0  0  0  0  0  0
    1.8542   -2.6167    0.0000 C   0  0  0  0  0  0  0  0  0  0  0  0
    5.4167    0.2708    0.0000 C   0  0  3  0  0  0  0  0  0  0  0  0
    6.1292   -0.1417    0.0000 C   0  0  0  0  0  0  0  0  0  0  0  0
    5.4167    1.0958    0.0000 C   0  0  0  0  0  0  0  0  0  0  0  0
    6.8500    2.7500    0.0000 C   0  0  0  0  0  0  0  0  0  0  0  0
    1.1292   -2.2125    0.0000 O   0  0  0  0  0  0  0  0  0  0  0  0
    3.2750   -3.4417    0.0000 C   0  0  0  0  0  0  0  0  0  0  0  0
    8.2792    3.5583    0.0000 C   0  0  0  0  0  0  0  0  0  0  0  0
    9.7042    1.0958    0.0000 C   0  0  0  0  0  0  0  0  0  0  0  0
    2.5750   -3.8542    0.0000 C   0  0  0  0  0  0  0  0  0  0  0  0
    1.8542   -3.4417    0.0000 C   0  0  0  0  0  0  0  0  0  0  0  0
    0.4250   -2.6167    0.0000 C   0  0  0  0  0  0  0  0  0  0  0  0
    6.8542    3.5708    0.0000 C   0  0  0  0  0  0  0  0  0  0  0  0
    7.5792    3.9833    0.0000 C   0  0  0  0  0  0  0  0  0  0  0  0
  2  9  1  0  0  0  0
  1  3  1  0  0  0  0
  3  4  1  0  0  0  0
  2  5  1  0  0  0  0
  1  6  2  0  0  0  0
  1  7  1  0  0  0  0
  2  8  2  0  0  0  0
  9 19  1  0  0  0  0
 10 13  2  0  0  0  0
 11 14  2  0  0  0  0
  5 12  2  0  0  0  0
  6 13  1  0  0  0  0
  8 14  1  0  0  0  0
  7 15  1  0  0  0  0
  3 16  2  0  0  0  0
  7 17  2  0  0  0  0
 18 22  1  0  0  0  0
 19 23  1  0  0  0  0
 10 20  1  0  0  0  0
 15 21  1  0  0  0  0
 21 22  1  0  0  0  0
 21 23  1  0  0  0  0
  5 24  1  0  0  0  0
 20 25  1  0  0  0  0
 13 26  1  0  0  0  0
 12 27  1  0  0  0  0
 14 28  1  0  0  0  0
 26 29  2  0  0  0  0
 29 30  1  0  0  0  0
 25 31  1  0  0  0  0
 24 32  1  0  0  0  0
 32 33  1  0  0  0  0
  4 10  1  0  0  0  0
  9 18  1  0  0  0  0
 20 30  2  0  0  0  0
 11 12  1  0  0  0  0
 27 33  1  0  0  0  0
M  END
> <MOLFORMULA>
C25 H28 N4 O4

> <MOLWEIGHT>
4.485202000000000e+002

> <IDNUMBER>
AT-687/SK01662

> <PRICE>
EUR 80/10 mg

> <Similarity score>
0.25

$$$$

  -OEChem-04222410502D

 29 32  0     0  0  0  0  0  0999 V2000
    6.1375    0.8583    0.0000 C   0  0  0  0  0  0  0  0  0  0  0  0
    6.1375    1.6833    0.0000 C   0  0  0  0  0  0  0  0  0  0  0  0
    6.8542    0.4458    0.0000 N   0  0  0  0  0  0  0  0  0  0  0  0
    5.4167    0.4458    0.0000 N   0  0  3  0  0  0  0  0  0  0  0  0
    3.2792   -1.6292    0.0000 C   0  0  0  0  0  0  0  0  0  0  0  0
    7.5667    1.6833    0.0000 N   0  0  0  0  0  0  0  0  0  0  0  0
    6.8542    2.0958    0.0000 C   0  0  0  0  0  0  0  0  0  0  0  0
    7.5667    0.8583    0.0000 C   0  0  0  0  0  0  0  0  0  0  0  0
    3.2792   -0.7917    0.0000 N   0  0  0  0  0  0  0  0  0  0  0  0
    2.5667   -2.0292    0.0000 C   0  0  3  0  0  0  0  0  0  0  0  0
    3.9917   -2.0417    0.0000 O   0  0  0  0  0  0  0  0  0  0  0  0
    4.7000    0.8583    0.0000 C   0  0  0  0  0  0  0  0  0  0  0  0
    5.4167   -0.3792    0.0000 C   0  0  0  0  0  0  0  0  0  0  0  0
    4.0000   -0.3792    0.0000 C   0  0  3  0  0  0  0  0  0  0  0  0
    4.7000   -0.7917    0.0000 C   0  0  0  0  0  0  0  0  0  0  0  0
    4.0000    0.4458    0.0000 C   0  0  0  0  0  0  0  0  0  0  0  0
    1.8542   -1.6167    0.0000 C   0  0  0  0  0  0  0  0  0  0  0  0
    5.4167    2.0958    0.0000 C   0  0  0  0  0  0  0  0  0  0  0  0
    6.8542    2.9083    0.0000 C   0  0  0  0  0  0  0  0  0  0  0  0
    8.2792    0.4458    0.0000 C   0  0  0  0  0  0  0  0  0  0  0  0
    2.5667   -2.8667    0.0000 C   0  0  0  0  0  0  0  0  0  0  0  0
    1.1375   -2.0292    0.0000 C   0  0  0  0  0  0  0  0  0  0  0  0
    1.8542   -0.7917    0.0000 C   0  0  0  0  0  0  0  0  0  0  0  0
    5.4292    2.9208    0.0000 C   0  0  0  0  0  0  0  0  0  0  0  0
    1.8542   -3.2667    0.0000 C   0  0  0  0  0  0  0  0  0  0  0  0
    6.1417    3.3208    0.0000 C   0  0  0  0  0  0  0  0  0  0  0  0
    0.4250   -1.6042    0.0000 C   0  0  0  0  0  0  0  0  0  0  0  0
    1.1417   -0.3792    0.0000 C   0  0  0  0  0  0  0  0  0  0  0  0
    0.4292   -0.7875    0.0000 C   0  0  0  0  0  0  0  0  0  0  0  0
  1  2  1  0  0  0  0
  1  3  2  0  0  0  0
  1  4  1  0  0  0  0
  5  9  1  0  0  0  0
  6  8  2  0  0  0  0
  2  7  2  0  0  0  0
  3  8  1  0  0  0  0
  9 14  1  0  0  0  0
  5 10  1  0  0  0  0
  5 11  2  0  0  0  0
  4 12  1  0  0  0  0
  4 13  1  0  0  0  0
 14 15  1  0  0  0  0
 13 15  1  0  0  0  0
 12 16  1  0  0  0  0
 10 17  1  0  0  0  0
  2 18  1  0  0  0  0
  7 19  1  0  0  0  0
  8 20  1  0  0  0  0
 10 21  1  0  0  0  0
 17 22  2  0  0  0  0
 17 23  1  0  0  0  0
 18 24  1  0  0  0  0
 21 25  1  0  0  0  0
 24 26  1  0  0  0  0
 22 27  1  0  0  0  0
 23 28  2  0  0  0  0
 28 29  1  0  0  0  0
  6  7  1  0  0  0  0
 14 16  1  0  0  0  0
 19 26  1  0  0  0  0
 27 29  2  0  0  0  0
M  END
> <MOLFORMULA>
C24 H32 N4 O

> <MOLWEIGHT>
3.925438000000000e+002

> <IDNUMBER>
AT-687/SK01690

> <PRICE>
EUR 80/10 mg

> <Similarity score>
0.24

$$$$

  -OEChem-04222410502D

 31 35  0     0  0  0  0  0  0999 V2000
    0.1667   -1.4583    0.0000 N   0  0  3  0  0  0  0  0  0  0  0  0
   -0.2417   -0.5458    0.0000 C   0  0  0  0  0  0  0  0  0  0  0  0
    1.1625   -1.3542    0.0000 C   0  0  0  0  0  0  0  0  0  0  0  0
   -0.6208    2.5208    0.0000 C   0  0  0  0  0  0  0  0  0  0  0  0
    0.5042    0.1250    0.0000 C   0  0  3  0  0  0  0  0  0  0  0  0
    0.1875    3.1083    0.0000 C   0  0  0  0  0  0  0  0  0  0  0  0
    1.3667   -0.3750    0.0000 C   0  0  0  0  0  0  0  0  0  0  0  0
    0.4000    1.1208    0.0000 N   0  0  3  0  0  0  0  0  0  0  0  0
   -1.4292    3.1083    0.0000 N   0  0  0  0  0  0  0  0  0  0  0  0
   -0.1208    4.0542    0.0000 C   0  0  0  0  0  0  0  0  0  0  0  0
   -1.1208    4.0542    0.0000 C   0  0  0  0  0  0  0  0  0  0  0  0
   -0.5167    1.5250    0.0000 C   0  0  0  0  0  0  0  0  0  0  0  0
   -0.3333   -2.3250    0.0000 C   0  0  0  0  0  0  0  0  0  0  0  0
    1.1042    2.7000    0.0000 C   0  0  0  0  0  0  0  0  0  0  0  0
   -1.2208   -0.3375    0.0000 O   0  0  0  0  0  0  0  0  0  0  0  0
    1.2083    1.7083    0.0000 C   0  0  0  0  0  0  0  0  0  0  0  0
    1.8292   -2.0958    0.0000 O   0  0  0  0  0  0  0  0  0  0  0  0
   -1.3333   -5.7875    0.0000 C   0  0  0  0  0  0  0  0  0  0  0  0
    0.3792    4.9208    0.0000 C   0  0  0  0  0  0  0  0  0  0  0  0
   -1.8333   -4.9208    0.0000 N   0  0  0  0  0  0  0  0  0  0  0  0
   -1.6208    4.9208    0.0000 C   0  0  0  0  0  0  0  0  0  0  0  0
   -1.8333   -6.6542    0.0000 O   0  0  0  0  0  0  0  0  0  0  0  0
    0.1667   -3.1917    0.0000 C   0  0  0  0  0  0  0  0  0  0  0  0
   -1.3333   -2.3250    0.0000 C   0  0  0  0  0  0  0  0  0  0  0  0
   -1.3333   -4.0542    0.0000 C   0  0  0  0  0  0  0  0  0  0  0  0
   -0.1208    5.7875    0.0000 C   0  0  0  0  0  0  0  0  0  0  0  0
   -1.1208    5.7875    0.0000 C   0  0  0  0  0  0  0  0  0  0  0  0
   -1.8333   -3.1917    0.0000 C   0  0  0  0  0  0  0  0  0  0  0  0
   -0.3333   -4.0542    0.0000 C   0  0  0  0  0  0  0  0  0  0  0  0
    0.3792    6.6542    0.0000 F   0  0  0  0  0  0  0  0  0  0  0  0
   -0.3333   -5.7875    0.0000 C   0  0  0  0  0  0  0  0  0  0  0  0
  1  2  1  0  0  0  0
  1  3  1  0  0  0  0
  4 12  1  0  0  0  0
  2  5  1  0  0  0  0
  6 14  1  0  0  0  0
  3  7  1  0  0  0  0
  5  8  1  0  0  0  0
  4  9  1  0  0  0  0
  6 10  1  0  0  0  0
  9 11  1  0  0  0  0
  8 12  1  0  0  0  0
  1 13  1  0  0  0  0
 14 16  1  0  0  0  0
  2 15  2  0  0  0  0
  8 16  1  0  0  0  0
  3 17  2  0  0  0  0
 18 20  1  0  0  0  0
 10 19  2  0  0  0  0
 20 25  1  0  0  0  0
 11 21  2  0  0  0  0
 18 22  2  0  0  0  0
 13 23  1  0  0  0  0
 13 24  2  0  0  0  0
 25 28  2  0  0  0  0
 19 26  1  0  0  0  0
 21 27  1  0  0  0  0
 24 28  1  0  0  0  0
 23 29  2  0  0  0  0
 26 30  1  0  0  0  0
 18 31  1  0  0  0  0
  5  7  1  0  0  0  0
 25 29  1  0  0  0  0
  4  6  2  0  0  0  0
 10 11  1  0  0  0  0
 26 27  2  0  0  0  0
M  END
> <MOLFORMULA>
C23 H21 F N4 O3

> <MOLWEIGHT>
4.204419000000000e+002

> <IDNUMBER>
AN-153/NB21468

> <PRICE>
EUR 130/10 mg

> <Similarity score>
0.24

$$$$

  -OEChem-04222410502D

 31 35  0     0  0  0  0  0  0999 V2000
    2.6125   -2.1250    0.0000 C   0  0  0  0  0  0  0  0  0  0  0  0
    4.7167    1.9625    0.0000 C   0  0  0  0  0  0  0  0  0  0  0  0
    2.9500   -2.8792    0.0000 C   0  0  0  0  0  0  0  0  0  0  0  0
    1.7917   -2.0292    0.0000 N   0  0  0  0  0  0  0  0  0  0  0  0
    5.5417    1.9625    0.0000 N   0  0  0  0  0  0  0  0  0  0  0  0
    3.1042   -1.4625    0.0000 N   0  0  3  0  0  0  0  0  0  0  0  0
    4.2292    1.2875    0.0000 C   0  0  0  0  0  0  0  0  0  0  0  0
    4.4542    2.7583    0.0000 C   0  0  0  0  0  0  0  0  0  0  0  0
    5.8000    2.7583    0.0000 C   0  0  0  0  0  0  0  0  0  0  0  0
    1.6417   -3.4542    0.0000 N   0  0  0  0  0  0  0  0  0  0  0  0
    2.4542   -3.5500    0.0000 C   0  0  0  0  0  0  0  0  0  0  0  0
    1.3042   -2.7042    0.0000 C   0  0  0  0  0  0  0  0  0  0  0  0
    5.1292    3.2333    0.0000 C   0  0  0  0  0  0  0  0  0  0  0  0
    4.5625    0.5375    0.0000 N   0  0  0  0  0  0  0  0  0  0  0  0
    6.5500    3.0875    0.0000 C   0  0  0  0  0  0  0  0  0  0  0  0
    3.9167   -1.5417    0.0000 C   0  0  0  0  0  0  0  0  0  0  0  0
    2.7667   -0.7000    0.0000 C   0  0  0  0  0  0  0  0  0  0  0  0
    3.4042    1.3750    0.0000 O   0  0  0  0  0  0  0  0  0  0  0  0
    5.2167    4.0417    0.0000 C   0  0  0  0  0  0  0  0  0  0  0  0
    4.0792   -0.1167    0.0000 C   0  0  3  0  0  0  0  0  0  0  0  0
    3.2542   -0.0292    0.0000 C   0  0  0  0  0  0  0  0  0  0  0  0
    4.4042   -0.8875    0.0000 C   0  0  0  0  0  0  0  0  0  0  0  0
    6.6417    3.9000    0.0000 C   0  0  0  0  0  0  0  0  0  0  0  0
    3.7667   -2.9792    0.0000 C   0  0  0  0  0  0  0  0  0  0  0  0
    5.9667    4.3792    0.0000 C   0  0  0  0  0  0  0  0  0  0  0  0
    7.3917    4.2292    0.0000 O   0  0  0  0  0  0  0  0  0  0  0  0
    2.7875   -4.3042    0.0000 C   0  0  0  0  0  0  0  0  0  0  0  0
    0.4875   -2.6125    0.0000 C   0  0  0  0  0  0  0  0  0  0  0  0
    8.0542    3.7583    0.0000 C   0  0  0  0  0  0  0  0  0  0  0  0
    4.1000   -3.7375    0.0000 C   0  0  0  0  0  0  0  0  0  0  0  0
    3.6042   -4.3917    0.0000 C   0  0  0  0  0  0  0  0  0  0  0  0
  2  7  1  0  0  0  0
  1  3  1  0  0  0  0
  1  4  2  0  0  0  0
  2  5  1  0  0  0  0
  1  6  1  0  0  0  0
  7 14  1  0  0  0  0
  2  8  2  0  0  0  0
  5  9  1  0  0  0  0
 10 12  2  0  0  0  0
  3 11  2  0  0  0  0
  4 12  1  0  0  0  0
  8 13  1  0  0  0  0
 14 20  1  0  0  0  0
  9 15  1  0  0  0  0
  6 16  1  0  0  0  0
  6 17  1  0  0  0  0
  7 18  2  0  0  0  0
 13 19  1  0  0  0  0
 20 21  1  0  0  0  0
 17 21  1  0  0  0  0
 16 22  1  0  0  0  0
 15 23  2  0  0  0  0
  3 24  1  0  0  0  0
 19 25  2  0  0  0  0
 23 26  1  0  0  0  0
 11 27  1  0  0  0  0
 12 28  1  0  0  0  0
 26 29  1  0  0  0  0
 24 30  1  0  0  0  0
 30 31  1  0  0  0  0
 10 11  1  0  0  0  0
 20 22  1  0  0  0  0
 27 31  1  0  0  0  0
  9 13  2  0  0  0  0
 23 25  1  0  0  0  0
M  END
> <MOLFORMULA>
C24 H29 N5 O2

> <MOLWEIGHT>
4.195261000000000e+002

> <IDNUMBER>
AT-687/SK01665

> <PRICE>
EUR 80/10 mg

> <Similarity score>
0.24

$$$$

  -OEChem-04222410502D

 29 33  0     0  0  0  0  0  0999 V2000
    2.3625    0.1250    0.0000 C   0  0  0  0  0  0  0  0  0  0  0  0
    1.8000   -0.4875    0.0000 C   0  0  0  0  0  0  0  0  0  0  0  0
    2.1042    0.9083    0.0000 N   0  0  0  0  0  0  0  0  0  0  0  0
    3.1667   -0.0542    0.0000 N   0  0  3  0  0  0  0  0  0  0  0  0
    0.7542    0.4833    0.0000 N   0  0  0  0  0  0  0  0  0  0  0  0
    0.9875   -0.3000    0.0000 C   0  0  0  0  0  0  0  0  0  0  0  0
    6.1375    0.0083    0.0000 C   0  0  0  0  0  0  0  0  0  0  0  0
    1.3125    1.0833    0.0000 C   0  0  0  0  0  0  0  0  0  0  0  0
    8.9667    0.7500    0.0000 N   0  0  0  0  0  0  0  0  0  0  0  0
    8.2917    0.2708    0.0000 C   0  0  0  0  0  0  0  0  0  0  0  0
    6.9375   -0.1542    0.0000 C   0  0  0  0  0  0  0  0  0  0  0  0
    9.6250    0.2708    0.0000 C   0  0  0  0  0  0  0  0  0  0  0  0
    5.5792   -0.5917    0.0000 N   0  0  0  0  0  0  0  0  0  0  0  0
    9.3792   -0.5167    0.0000 N   0  0  0  0  0  0  0  0  0  0  0  0
    7.4875    0.4458    0.0000 C   0  0  0  0  0  0  0  0  0  0  0  0
    8.5542   -0.5167    0.0000 C   0  0  0  0  0  0  0  0  0  0  0  0
    3.7250    0.5500    0.0000 C   0  0  0  0  0  0  0  0  0  0  0  0
    3.4042   -0.8417    0.0000 C   0  0  0  0  0  0  0  0  0  0  0  0
    5.8792    0.8083    0.0000 O   0  0  0  0  0  0  0  0  0  0  0  0
    7.1875   -0.9542    0.0000 C   0  0  0  0  0  0  0  0  0  0  0  0
    7.9917   -1.1292    0.0000 C   0  0  0  0  0  0  0  0  0  0  0  0
    4.7750   -0.4042    0.0000 C   0  0  3  0  0  0  0  0  0  0  0  0
    4.2167   -1.0167    0.0000 C   0  0  0  0  0  0  0  0  0  0  0  0
    4.5167    0.3750    0.0000 C   0  0  0  0  0  0  0  0  0  0  0  0
    2.0375   -1.2750    0.0000 C   0  0  0  0  0  0  0  0  0  0  0  0
    0.4292   -0.9042    0.0000 C   0  0  0  0  0  0  0  0  0  0  0  0
    1.0625    1.8833    0.0000 C   0  0  0  0  0  0  0  0  0  0  0  0
    1.4792   -1.8750    0.0000 C   0  0  0  0  0  0  0  0  0  0  0  0
    0.6667   -1.6875    0.0000 C   0  0  0  0  0  0  0  0  0  0  0  0
  1  2  1  0  0  0  0
  1  3  2  0  0  0  0
  1  4  1  0  0  0  0
  5  8  2  0  0  0  0
  2  6  2  0  0  0  0
  7 13  1  0  0  0  0
  3  8  1  0  0  0  0
  9 10  1  0  0  0  0
 10 15  1  0  0  0  0
  7 11  1  0  0  0  0
  9 12  2  0  0  0  0
 13 22  1  0  0  0  0
 14 16  1  0  0  0  0
 11 15  2  0  0  0  0
 16 21  1  0  0  0  0
  4 17  1  0  0  0  0
  4 18  1  0  0  0  0
  7 19  2  0  0  0  0
 11 20  1  0  0  0  0
 20 21  2  0  0  0  0
 22 23  1  0  0  0  0
 18 23  1  0  0  0  0
 17 24  1  0  0  0  0
  2 25  1  0  0  0  0
  6 26  1  0  0  0  0
  8 27  1  0  0  0  0
 25 28  1  0  0  0  0
 28 29  1  0  0  0  0
  5  6  1  0  0  0  0
 22 24  1  0  0  0  0
 26 29  1  0  0  0  0
 10 16  2  0  0  0  0
 12 14  1  0  0  0  0
M  END
> <MOLFORMULA>
C22 H26 N6 O

> <MOLWEIGHT>
3.904884000000000e+002

> <IDNUMBER>
AT-687/SK01696

> <PRICE>
EUR 80/10 mg

> <Similarity score>
0.24

$$$$

  -OEChem-04222410502D

 32 36  0     0  0  0  0  0  0999 V2000
    0.1667   -1.4583    0.0000 N   0  0  3  0  0  0  0  0  0  0  0  0
   -0.2417   -0.5458    0.0000 C   0  0  0  0  0  0  0  0  0  0  0  0
    1.1625   -1.3542    0.0000 C   0  0  0  0  0  0  0  0  0  0  0  0
   -0.6208    2.5208    0.0000 C   0  0  0  0  0  0  0  0  0  0  0  0
    0.5042    0.1250    0.0000 C   0  0  3  0  0  0  0  0  0  0  0  0
    0.1875    3.1083    0.0000 C   0  0  0  0  0  0  0  0  0  0  0  0
    1.3667   -0.3750    0.0000 C   0  0  0  0  0  0  0  0  0  0  0  0
    0.4000    1.1208    0.0000 N   0  0  3  0  0  0  0  0  0  0  0  0
   -1.4292    3.1083    0.0000 N   0  0  0  0  0  0  0  0  0  0  0  0
   -0.1208    4.0542    0.0000 C   0  0  0  0  0  0  0  0  0  0  0  0
   -1.1208    4.0542    0.0000 C   0  0  0  0  0  0  0  0  0  0  0  0
   -0.5167    1.5250    0.0000 C   0  0  0  0  0  0  0  0  0  0  0  0
   -0.3333   -2.3250    0.0000 C   0  0  0  0  0  0  0  0  0  0  0  0
    1.1042    2.7042    0.0000 C   0  0  0  0  0  0  0  0  0  0  0  0
   -1.2167   -0.3375    0.0000 O   0  0  0  0  0  0  0  0  0  0  0  0
    1.2083    1.7083    0.0000 C   0  0  0  0  0  0  0  0  0  0  0  0
    1.8292   -2.0958    0.0000 O   0  0  0  0  0  0  0  0  0  0  0  0
   -1.3333   -5.7875    0.0000 C   0  0  0  0  0  0  0  0  0  0  0  0
    0.3792    4.9208    0.0000 C   0  0  0  0  0  0  0  0  0  0  0  0
   -1.8333   -4.9208    0.0000 N   0  0  0  0  0  0  0  0  0  0  0  0
   -1.6208    4.9208    0.0000 C   0  0  0  0  0  0  0  0  0  0  0  0
   -0.3333   -5.7875    0.0000 O   0  0  0  0  0  0  0  0  0  0  0  0
   -1.3333   -2.3250    0.0000 C   0  0  0  0  0  0  0  0  0  0  0  0
    0.1667   -3.1875    0.0000 C   0  0  0  0  0  0  0  0  0  0  0  0
   -1.3333   -4.0542    0.0000 C   0  0  0  0  0  0  0  0  0  0  0  0
   -0.1208    5.7875    0.0000 C   0  0  0  0  0  0  0  0  0  0  0  0
   -1.1208    5.7875    0.0000 C   0  0  0  0  0  0  0  0  0  0  0  0
   -0.3333   -4.0542    0.0000 C   0  0  0  0  0  0  0  0  0  0  0  0
   -1.8333   -3.1875    0.0000 C   0  0  0  0  0  0  0  0  0  0  0  0
    0.3792    6.6542    0.0000 O   0  0  0  0  0  0  0  0  0  0  0  0
   -1.8333   -6.6542    0.0000 C   0  0  0  0  0  0  0  0  0  0  0  0
    1.3792    6.6542    0.0000 C   0  0  0  0  0  0  0  0  0  0  0  0
  1  2  1  0  0  0  0
  1  3  1  0  0  0  0
  4 12  1  0  0  0  0
  2  5  1  0  0  0  0
  6 14  1  0  0  0  0
  3  7  1  0  0  0  0
  5  8  1  0  0  0  0
  4  9  1  0  0  0  0
  6 10  1  0  0  0  0
  9 11  1  0  0  0  0
  8 12  1  0  0  0  0
  1 13  1  0  0  0  0
 14 16  1  0  0  0  0
  2 15  2  0  0  0  0
  8 16  1  0  0  0  0
  3 17  2  0  0  0  0
 18 20  1  0  0  0  0
 10 19  2  0  0  0  0
 20 25  1  0  0  0  0
 11 21  2  0  0  0  0
 18 22  2  0  0  0  0
 13 23  2  0  0  0  0
 13 24  1  0  0  0  0
 25 29  2  0  0  0  0
 19 26  1  0  0  0  0
 21 27  1  0  0  0  0
 24 28  2  0  0  0  0
 23 29  1  0  0  0  0
 26 30  1  0  0  0  0
 18 31  1  0  0  0  0
 30 32  1  0  0  0  0
  5  7  1  0  0  0  0
 25 28  1  0  0  0  0
  4  6  2  0  0  0  0
 10 11  1  0  0  0  0
 26 27  2  0  0  0  0
M  END
> <MOLFORMULA>
C24 H24 N4 O4

> <MOLWEIGHT>
4.324776000000000e+002

> <IDNUMBER>
AN-153/NB21451

> <PRICE>
EUR 130/10 mg

> <Similarity score>
0.24

$$$$

  -OEChem-04222410502D

 33 37  0     0  0  0  0  0  0999 V2000
    3.9417   -3.2000    0.0000 C   0  0  0  0  0  0  0  0  0  0  0  0
    1.4417    2.1708    0.0000 N   0  0  3  0  0  0  0  0  0  0  0  0
    3.6042   -3.9542    0.0000 C   0  0  0  0  0  0  0  0  0  0  0  0
    0.7750    1.6833    0.0000 C   0  0  0  0  0  0  0  0  0  0  0  0
    1.8542    0.8875    0.0000 C   0  0  3  0  0  0  0  0  0  0  0  0
    4.7667   -3.1125    0.0000 N   0  0  0  0  0  0  0  0  0  0  0  0
    3.4625   -2.5292    0.0000 N   0  0  3  0  0  0  0  0  0  0  0  0
    2.3417    0.2333    0.0000 C   0  0  0  0  0  0  0  0  0  0  0  0
    2.1167    1.6833    0.0000 C   0  0  0  0  0  0  0  0  0  0  0  0
    4.9125   -4.5375    0.0000 N   0  0  0  0  0  0  0  0  0  0  0  0
    4.1042   -4.6167    0.0000 C   0  0  0  0  0  0  0  0  0  0  0  0
    5.2500   -3.7792    0.0000 C   0  0  0  0  0  0  0  0  0  0  0  0
    1.0292    0.8875    0.0000 C   0  0  0  0  0  0  0  0  0  0  0  0
    2.0042   -0.5292    0.0000 N   0  0  0  0  0  0  0  0  0  0  0  0
    1.4417    2.9958    0.0000 C   0  0  0  0  0  0  0  0  0  0  0  0
    0.0000    1.9458    0.0000 O   0  0  0  0  0  0  0  0  0  0  0  0
    3.7917   -1.7792    0.0000 C   0  0  0  0  0  0  0  0  0  0  0  0
    2.6375   -2.6167    0.0000 C   0  0  0  0  0  0  0  0  0  0  0  0
    3.1625    0.3125    0.0000 O   0  0  0  0  0  0  0  0  0  0  0  0
    2.4917   -1.1917    0.0000 C   0  0  3  0  0  0  0  0  0  0  0  0
    2.1542   -1.9500    0.0000 C   0  0  0  0  0  0  0  0  0  0  0  0
    3.3125   -1.1125    0.0000 C   0  0  0  0  0  0  0  0  0  0  0  0
    0.7292    3.3833    0.0000 C   0  0  0  0  0  0  0  0  0  0  0  0
    2.1625    3.3833    0.0000 C   0  0  0  0  0  0  0  0  0  0  0  0
    2.7875   -4.0417    0.0000 C   0  0  0  0  0  0  0  0  0  0  0  0
    2.1625    4.2042    0.0000 C   0  0  0  0  0  0  0  0  0  0  0  0
    0.7292    4.2167    0.0000 C   0  0  0  0  0  0  0  0  0  0  0  0
    1.4417    4.6167    0.0000 C   0  0  0  0  0  0  0  0  0  0  0  0
    3.7667   -5.3750    0.0000 C   0  0  0  0  0  0  0  0  0  0  0  0
    6.0667   -3.6917    0.0000 C   0  0  0  0  0  0  0  0  0  0  0  0
    1.4500    5.4417    0.0000 C   0  0  0  0  0  0  0  0  0  0  0  0
    2.4542   -4.8042    0.0000 C   0  0  0  0  0  0  0  0  0  0  0  0
    2.9417   -5.4625    0.0000 C   0  0  0  0  0  0  0  0  0  0  0  0
  2  9  1  0  0  0  0
  1  3  1  0  0  0  0
  4 13  1  0  0  0  0
  5  8  1  0  0  0  0
  1  6  2  0  0  0  0
  1  7  1  0  0  0  0
  8 14  1  0  0  0  0
  5  9  1  0  0  0  0
 10 12  2  0  0  0  0
  3 11  2  0  0  0  0
  6 12  1  0  0  0  0
  5 13  1  0  0  0  0
 14 20  1  0  0  0  0
  2 15  1  0  0  0  0
  4 16  2  0  0  0  0
  7 17  1  0  0  0  0
  7 18  1  0  0  0  0
  8 19  2  0  0  0  0
 20 21  1  0  0  0  0
 18 21  1  0  0  0  0
 17 22  1  0  0  0  0
 15 23  1  0  0  0  0
 15 24  2  0  0  0  0
  3 25  1  0  0  0  0
 24 26  1  0  0  0  0
 23 27  2  0  0  0  0
 26 28  2  0  0  0  0
 11 29  1  0  0  0  0
 12 30  1  0  0  0  0
 28 31  1  0  0  0  0
 25 32  1  0  0  0  0
 32 33  1  0  0  0  0
 10 11  1  0  0  0  0
 20 22  1  0  0  0  0
 29 33  1  0  0  0  0
  2  4  1  0  0  0  0
 27 28  1  0  0  0  0
M  END
> <MOLFORMULA>
C26 H33 N5 O2

> <MOLWEIGHT>
4.475797000000000e+002

> <IDNUMBER>
AT-687/SK01650

> <PRICE>
EUR 80/10 mg

> <Similarity score>
0.24

$$$$

  -OEChem-04222410502D

 31 34  0     0  0  0  0  0  0999 V2000
    2.6375    0.4125    0.0000 C   0  0  0  0  0  0  0  0  0  0  0  0
    1.9167    0.0083    0.0000 C   0  0  0  0  0  0  0  0  0  0  0  0
    2.6375    1.2458    0.0000 N   0  0  0  0  0  0  0  0  0  0  0  0
    3.3417   -0.0000    0.0000 N   0  0  3  0  0  0  0  0  0  0  0  0
    1.2042    1.2458    0.0000 N   0  0  0  0  0  0  0  0  0  0  0  0
    1.2000    0.4208    0.0000 C   0  0  0  0  0  0  0  0  0  0  0  0
    6.1917   -0.8167    0.0000 C   0  0  0  0  0  0  0  0  0  0  0  0
    9.1167    0.0500    0.0000 C   0  0  3  0  0  0  0  0  0  0  0  0
    1.9167    1.6500    0.0000 C   0  0  0  0  0  0  0  0  0  0  0  0
    5.4875   -1.2292    0.0000 N   0  0  0  0  0  0  0  0  0  0  0  0
    6.9042   -1.2292    0.0000 C   0  0  0  0  0  0  0  0  0  0  0  0
    9.1167   -0.7750    0.0000 O   0  0  0  0  0  0  0  0  0  0  0  0
    4.0542    0.4125    0.0000 C   0  0  0  0  0  0  0  0  0  0  0  0
    3.3417   -0.8167    0.0000 C   0  0  0  0  0  0  0  0  0  0  0  0
    6.1917    0.0083    0.0000 O   0  0  0  0  0  0  0  0  0  0  0  0
    7.6250   -0.8167    0.0000 C   0  0  0  0  0  0  0  0  0  0  0  0
    8.3375   -1.2292    0.0000 C   0  0  0  0  0  0  0  0  0  0  0  0
    4.7750   -0.8167    0.0000 C   0  0  3  0  0  0  0  0  0  0  0  0
    4.0542   -1.2292    0.0000 C   0  0  0  0  0  0  0  0  0  0  0  0
    4.7750    0.0083    0.0000 C   0  0  0  0  0  0  0  0  0  0  0  0
    9.9417    0.0500    0.0000 F   0  0  0  0  0  0  0  0  0  0  0  0
    8.3000    0.0500    0.0000 F   0  0  0  0  0  0  0  0  0  0  0  0
    9.1167    0.8750    0.0000 F   0  0  0  0  0  0  0  0  0  0  0  0
    1.9042   -0.8167    0.0000 C   0  0  0  0  0  0  0  0  0  0  0  0
    0.4917    0.0125    0.0000 C   0  0  0  0  0  0  0  0  0  0  0  0
    6.9042   -2.0542    0.0000 C   0  0  0  0  0  0  0  0  0  0  0  0
    1.9167    2.4750    0.0000 C   0  0  0  0  0  0  0  0  0  0  0  0
    7.6250   -2.4667    0.0000 C   0  0  0  0  0  0  0  0  0  0  0  0
    8.3375   -2.0542    0.0000 C   0  0  0  0  0  0  0  0  0  0  0  0
    1.1917   -1.2292    0.0000 C   0  0  0  0  0  0  0  0  0  0  0  0
    0.4792   -0.8000    0.0000 C   0  0  0  0  0  0  0  0  0  0  0  0
  1  2  1  0  0  0  0
  1  3  2  0  0  0  0
  1  4  1  0  0  0  0
  5  9  2  0  0  0  0
  2  6  2  0  0  0  0
  7 10  1  0  0  0  0
  8 12  1  0  0  0  0
  3  9  1  0  0  0  0
 10 18  1  0  0  0  0
  7 11  1  0  0  0  0
 12 17  1  0  0  0  0
  4 13  1  0  0  0  0
  4 14  1  0  0  0  0
  7 15  2  0  0  0  0
 11 16  2  0  0  0  0
 16 17  1  0  0  0  0
 18 19  1  0  0  0  0
 14 19  1  0  0  0  0
 13 20  1  0  0  0  0
  8 21  1  0  0  0  0
  8 22  1  0  0  0  0
  8 23  1  0  0  0  0
  2 24  1  0  0  0  0
  6 25  1  0  0  0  0
 11 26  1  0  0  0  0
  9 27  1  0  0  0  0
 26 28  2  0  0  0  0
 28 29  1  0  0  0  0
 24 30  1  0  0  0  0
 30 31  1  0  0  0  0
  5  6  1  0  0  0  0
 18 20  1  0  0  0  0
 25 31  1  0  0  0  0
 17 29  2  0  0  0  0
M  END
> <MOLFORMULA>
C22 H25 F3 N4 O2

> <MOLWEIGHT>
4.344595000000000e+002

> <IDNUMBER>
AT-687/SK01699

> <PRICE>
EUR 80/10 mg

> <Similarity score>
0.24

$$$$

  -OEChem-04222410502D

 32 36  0     0  0  0  0  0  0999 V2000
   -1.9833    3.2583    0.0000 C   0  0  0  0  0  0  0  0  0  0  0  0
   -1.9833    4.2542    0.0000 N   0  0  3  0  0  0  0  0  0  0  0  0
   -1.1208    2.7708    0.0000 C   0  0  0  0  0  0  0  0  0  0  0  0
   -2.9375    4.5625    0.0000 N   0  0  0  0  0  0  0  0  0  0  0  0
   -2.9375    2.9375    0.0000 C   0  0  0  0  0  0  0  0  0  0  0  0
   -1.1208    1.7583    0.0000 N   0  0  3  0  0  0  0  0  0  0  0  0
   -3.5208    3.7583    0.0000 C   0  0  0  0  0  0  0  0  0  0  0  0
    0.6042   -0.2417    0.0000 C   0  0  0  0  0  0  0  0  0  0  0  0
   -0.2500    3.2583    0.0000 N   0  0  0  0  0  0  0  0  0  0  0  0
   -0.2583    0.2583    0.0000 C   0  0  3  0  0  0  0  0  0  0  0  0
   -0.2500    1.2625    0.0000 C   0  0  0  0  0  0  0  0  0  0  0  0
   -1.1208    4.7542    0.0000 C   0  0  0  0  0  0  0  0  0  0  0  0
    0.6042   -1.2500    0.0000 N   0  0  0  0  0  0  0  0  0  0  0  0
   -0.2500    4.2542    0.0000 C   0  0  0  0  0  0  0  0  0  0  0  0
    1.4542   -2.7417    0.0000 C   0  0  0  0  0  0  0  0  0  0  0  0
    2.3167   -3.2500    0.0000 C   0  0  0  0  0  0  0  0  0  0  0  0
    1.4667   -1.7417    0.0000 C   0  0  0  0  0  0  0  0  0  0  0  0
    1.4750    0.2500    0.0000 O   0  0  0  0  0  0  0  0  0  0  0  0
    3.2000   -2.7542    0.0000 C   0  0  0  0  0  0  0  0  0  0  0  0
    3.2000   -1.7625    0.0000 C   0  0  0  0  0  0  0  0  0  0  0  0
   -1.9833    1.2625    0.0000 C   0  0  0  0  0  0  0  0  0  0  0  0
   -3.3458    2.0333    0.0000 C   0  0  0  0  0  0  0  0  0  0  0  0
    2.3417   -1.2500    0.0000 C   0  0  0  0  0  0  0  0  0  0  0  0
    2.3125   -4.2542    0.0000 O   0  0  0  0  0  0  0  0  0  0  0  0
   -1.1250   -0.2292    0.0000 C   0  0  0  0  0  0  0  0  0  0  0  0
    4.0542   -3.2542    0.0000 O   0  0  0  0  0  0  0  0  0  0  0  0
   -4.5208    3.6500    0.0000 C   0  0  0  0  0  0  0  0  0  0  0  0
   -1.9833    0.2708    0.0000 C   0  0  0  0  0  0  0  0  0  0  0  0
    3.1667   -4.7542    0.0000 C   0  0  0  0  0  0  0  0  0  0  0  0
    4.9250   -2.7667    0.0000 C   0  0  0  0  0  0  0  0  0  0  0  0
   -4.3458    1.9333    0.0000 C   0  0  0  0  0  0  0  0  0  0  0  0
   -4.9333    2.7458    0.0000 C   0  0  0  0  0  0  0  0  0  0  0  0
  1  2  1  0  0  0  0
  1  3  1  0  0  0  0
  2  4  1  0  0  0  0
  1  5  2  0  0  0  0
  3  6  1  0  0  0  0
  5  7  1  0  0  0  0
  8 10  1  0  0  0  0
  3  9  2  0  0  0  0
 10 11  1  0  0  0  0
  6 11  1  0  0  0  0
  2 12  1  0  0  0  0
  8 13  1  0  0  0  0
  9 14  1  0  0  0  0
 15 17  1  0  0  0  0
 15 16  2  0  0  0  0
 13 17  1  0  0  0  0
  8 18  2  0  0  0  0
 19 20  2  0  0  0  0
 20 23  1  0  0  0  0
  6 21  1  0  0  0  0
  5 22  1  0  0  0  0
 17 23  2  0  0  0  0
 16 24  1  0  0  0  0
 25 28  1  0  0  0  0
 19 26  1  0  0  0  0
  7 27  1  0  0  0  0
 21 28  1  0  0  0  0
 24 29  1  0  0  0  0
 26 30  1  0  0  0  0
 22 31  1  0  0  0  0
 31 32  1  0  0  0  0
  4  7  2  0  0  0  0
 12 14  2  0  0  0  0
 27 32  1  0  0  0  0
 10 25  1  0  0  0  0
 16 19  1  0  0  0  0
M  END
> <MOLFORMULA>
C24 H29 N5 O3

> <MOLWEIGHT>
4.355251000000000e+002

> <IDNUMBER>
AT-687/PE21868

> <PRICE>
EUR 80/10 mg

> <Similarity score>
0.23

$$$$

  -OEChem-04222410502D

 29 32  0     0  0  0  0  0  0999 V2000
    3.5667    1.5083    0.0000 C   0  0  0  0  0  0  0  0  0  0  0  0
    3.5667    2.3333    0.0000 C   0  0  0  0  0  0  0  0  0  0  0  0
    4.2792    1.0958    0.0000 N   0  0  0  0  0  0  0  0  0  0  0  0
    2.8417    1.0958    0.0000 N   0  0  3  0  0  0  0  0  0  0  0  0
    4.9875    2.3333    0.0000 N   0  0  0  0  0  0  0  0  0  0  0  0
    4.2792    2.7458    0.0000 C   0  0  0  0  0  0  0  0  0  0  0  0
    4.9875    1.5083    0.0000 C   0  0  0  0  0  0  0  0  0  0  0  0
    0.7042   -0.9667    0.0000 C   0  0  0  0  0  0  0  0  0  0  0  0
    1.4167   -2.2042    0.0000 C   0  0  0  0  0  0  0  0  0  0  0  0
    0.7042   -0.1417    0.0000 N   0  0  0  0  0  0  0  0  0  0  0  0
    1.4167   -1.3792    0.0000 C   0  0  0  0  0  0  0  0  0  0  0  0
    2.1292    1.5083    0.0000 C   0  0  0  0  0  0  0  0  0  0  0  0
    2.8417    0.2708    0.0000 C   0  0  0  0  0  0  0  0  0  0  0  0
    0.0000   -1.3792    0.0000 O   0  0  0  0  0  0  0  0  0  0  0  0
    2.1292   -2.6250    0.0000 C   0  0  0  0  0  0  0  0  0  0  0  0
    2.1292   -0.1417    0.0000 C   0  0  0  0  0  0  0  0  0  0  0  0
    1.4167    1.0958    0.0000 C   0  0  0  0  0  0  0  0  0  0  0  0
    1.4167    0.2708    0.0000 C   0  0  3  0  0  0  0  0  0  0  0  0
    2.8500    2.7500    0.0000 C   0  0  0  0  0  0  0  0  0  0  0  0
    2.8417   -2.2167    0.0000 O   0  0  0  0  0  0  0  0  0  0  0  0
    4.2792    3.5625    0.0000 C   0  0  0  0  0  0  0  0  0  0  0  0
    5.7042    1.0958    0.0000 C   0  0  0  0  0  0  0  0  0  0  0  0
    0.7000   -2.6167    0.0000 C   0  0  0  0  0  0  0  0  0  0  0  0
    2.1292   -3.4417    0.0000 C   0  0  0  0  0  0  0  0  0  0  0  0
    3.5667   -2.6292    0.0000 C   0  0  0  0  0  0  0  0  0  0  0  0
    2.8542    3.5708    0.0000 C   0  0  0  0  0  0  0  0  0  0  0  0
    3.5750    3.9833    0.0000 C   0  0  0  0  0  0  0  0  0  0  0  0
    0.7000   -3.4500    0.0000 C   0  0  0  0  0  0  0  0  0  0  0  0
    1.4125   -3.8542    0.0000 C   0  0  0  0  0  0  0  0  0  0  0  0
  1  2  1  0  0  0  0
  1  3  2  0  0  0  0
  1  4  1  0  0  0  0
  5  7  2  0  0  0  0
  2  6  2  0  0  0  0
  3  7  1  0  0  0  0
  8 10  1  0  0  0  0
  9 11  1  0  0  0  0
 10 18  1  0  0  0  0
  8 11  1  0  0  0  0
  4 12  1  0  0  0  0
  4 13  1  0  0  0  0
  8 14  2  0  0  0  0
  9 15  2  0  0  0  0
 13 16  1  0  0  0  0
 12 17  1  0  0  0  0
 16 18  1  0  0  0  0
  2 19  1  0  0  0  0
 15 20  1  0  0  0  0
  6 21  1  0  0  0  0
  7 22  1  0  0  0  0
  9 23  1  0  0  0  0
 15 24  1  0  0  0  0
 20 25  1  0  0  0  0
 19 26  1  0  0  0  0
 26 27  1  0  0  0  0
 23 28  2  0  0  0  0
 28 29  1  0  0  0  0
  5  6  1  0  0  0  0
 17 18  1  0  0  0  0
 21 27  1  0  0  0  0
 24 29  2  0  0  0  0
M  END
> <MOLFORMULA>
C23 H30 N4 O2

> <MOLWEIGHT>
3.945160000000000e+002

> <IDNUMBER>
AT-687/SK01677

> <PRICE>
EUR 80/10 mg

> <Similarity score>
0.23

$$$$

  -OEChem-04222410502D

 30 34  0     0  0  0  0  0  0999 V2000
   -1.5500    2.5208    0.0000 C   0  0  0  0  0  0  0  0  0  0  0  0
   -1.5500    3.5083    0.0000 N   0  0  3  0  0  0  0  0  0  0  0  0
   -0.6875    2.0083    0.0000 C   0  0  0  0  0  0  0  0  0  0  0  0
   -2.5083    3.8208    0.0000 N   0  0  0  0  0  0  0  0  0  0  0  0
   -2.5083    2.1958    0.0000 C   0  0  0  0  0  0  0  0  0  0  0  0
   -0.6875    1.0000    0.0000 N   0  0  3  0  0  0  0  0  0  0  0  0
   -3.0958    3.0083    0.0000 C   0  0  0  0  0  0  0  0  0  0  0  0
    1.0417   -0.9917    0.0000 C   0  0  0  0  0  0  0  0  0  0  0  0
    0.1792    2.5208    0.0000 N   0  0  0  0  0  0  0  0  0  0  0  0
    0.1792   -0.4917    0.0000 C   0  0  3  0  0  0  0  0  0  0  0  0
    1.0417   -1.9917    0.0000 N   0  0  0  0  0  0  0  0  0  0  0  0
    0.1792    0.5208    0.0000 C   0  0  0  0  0  0  0  0  0  0  0  0
   -0.6875    4.0042    0.0000 C   0  0  0  0  0  0  0  0  0  0  0  0
    1.9042   -2.5000    0.0000 C   0  0  0  0  0  0  0  0  0  0  0  0
    0.1792    3.5083    0.0000 C   0  0  0  0  0  0  0  0  0  0  0  0
    2.7750   -2.0042    0.0000 C   0  0  0  0  0  0  0  0  0  0  0  0
    1.9125   -0.5000    0.0000 O   0  0  0  0  0  0  0  0  0  0  0  0
    3.6417   -2.5042    0.0000 C   0  0  0  0  0  0  0  0  0  0  0  0
    1.8917   -3.4917    0.0000 C   0  0  0  0  0  0  0  0  0  0  0  0
    2.7875   -1.0042    0.0000 F   0  0  0  0  0  0  0  0  0  0  0  0
   -1.5500    0.5208    0.0000 C   0  0  0  0  0  0  0  0  0  0  0  0
   -2.9083    1.2833    0.0000 C   0  0  0  0  0  0  0  0  0  0  0  0
    3.6292   -3.5042    0.0000 C   0  0  0  0  0  0  0  0  0  0  0  0
    2.7542   -4.0000    0.0000 C   0  0  0  0  0  0  0  0  0  0  0  0
   -0.6958   -0.9875    0.0000 C   0  0  0  0  0  0  0  0  0  0  0  0
   -4.0833    2.9000    0.0000 C   0  0  0  0  0  0  0  0  0  0  0  0
   -1.5500   -0.4792    0.0000 C   0  0  0  0  0  0  0  0  0  0  0  0
    4.4917   -4.0042    0.0000 C   0  0  0  0  0  0  0  0  0  0  0  0
   -3.9083    1.1833    0.0000 C   0  0  0  0  0  0  0  0  0  0  0  0
   -4.5000    1.9958    0.0000 C   0  0  0  0  0  0  0  0  0  0  0  0
  1  2  1  0  0  0  0
  1  3  1  0  0  0  0
  2  4  1  0  0  0  0
  1  5  2  0  0  0  0
  3  6  1  0  0  0  0
  5  7  1  0  0  0  0
  8 10  1  0  0  0  0
  3  9  2  0  0  0  0
 10 12  1  0  0  0  0
  8 11  1  0  0  0  0
  6 12  1  0  0  0  0
  2 13  1  0  0  0  0
 11 14  1  0  0  0  0
  9 15  1  0  0  0  0
 14 16  2  0  0  0  0
  8 17  2  0  0  0  0
 16 18  1  0  0  0  0
 14 19  1  0  0  0  0
 16 20  1  0  0  0  0
  6 21  1  0  0  0  0
  5 22  1  0  0  0  0
 23 24  1  0  0  0  0
 19 24  2  0  0  0  0
 25 27  1  0  0  0  0
  7 26  1  0  0  0  0
 21 27  1  0  0  0  0
 23 28  1  0  0  0  0
 22 29  1  0  0  0  0
 29 30  1  0  0  0  0
  4  7  2  0  0  0  0
 13 15  2  0  0  0  0
 26 30  1  0  0  0  0
 10 25  1  0  0  0  0
 18 23  2  0  0  0  0
M  END
> <MOLFORMULA>
C23 H26 F N5 O

> <MOLWEIGHT>
4.074904000000000e+002

> <IDNUMBER>
AT-687/PE21874

> <PRICE>
EUR 80/10 mg

> <Similarity score>
0.23

$$$$

  -OEChem-04222410502D

 25 28  0     0  0  0  0  0  0999 V2000
    3.6167   -1.3042    0.0000 C   0  0  0  0  0  0  0  0  0  0  0  0
    3.2792   -2.0625    0.0000 C   0  0  0  0  0  0  0  0  0  0  0  0
    4.4417   -1.2167    0.0000 N   0  0  0  0  0  0  0  0  0  0  0  0
    3.1375   -0.6375    0.0000 N   0  0  3  0  0  0  0  0  0  0  0  0
    4.5875   -2.6417    0.0000 N   0  0  0  0  0  0  0  0  0  0  0  0
    2.0167    2.1333    0.0000 C   0  0  0  0  0  0  0  0  0  0  0  0
    3.7667   -2.7292    0.0000 C   0  0  0  0  0  0  0  0  0  0  0  0
    4.9250   -1.8917    0.0000 C   0  0  0  0  0  0  0  0  0  0  0  0
    1.5250    2.7958    0.0000 C   0  0  3  0  0  0  0  0  0  0  0  0
    1.6792    1.3708    0.0000 N   0  0  0  0  0  0  0  0  0  0  0  0
    3.4667    0.1208    0.0000 C   0  0  0  0  0  0  0  0  0  0  0  0
    2.3125   -0.7167    0.0000 C   0  0  0  0  0  0  0  0  0  0  0  0
    2.8250    2.2125    0.0000 O   0  0  0  0  0  0  0  0  0  0  0  0
    2.1667    0.7083    0.0000 C   0  0  3  0  0  0  0  0  0  0  0  0
    1.8292   -0.0542    0.0000 C   0  0  0  0  0  0  0  0  0  0  0  0
    2.9792    0.7875    0.0000 C   0  0  0  0  0  0  0  0  0  0  0  0
    1.1125    4.0417    0.0000 O   0  0  0  0  0  0  0  0  0  0  0  0
    2.4625   -2.1542    0.0000 C   0  0  0  0  0  0  0  0  0  0  0  0
    1.7875    3.5833    0.0000 C   0  0  0  0  0  0  0  0  0  0  0  0
    3.4417   -3.4792    0.0000 C   0  0  0  0  0  0  0  0  0  0  0  0
    0.7000    2.7958    0.0000 C   0  0  0  0  0  0  0  0  0  0  0  0
    5.7417   -1.8000    0.0000 C   0  0  0  0  0  0  0  0  0  0  0  0
    0.4417    3.5833    0.0000 C   0  0  0  0  0  0  0  0  0  0  0  0
    2.1250   -2.9042    0.0000 C   0  0  0  0  0  0  0  0  0  0  0  0
    2.6167   -3.5667    0.0000 C   0  0  0  0  0  0  0  0  0  0  0  0
  1  2  1  0  0  0  0
  1  3  2  0  0  0  0
  1  4  1  0  0  0  0
  5  8  2  0  0  0  0
  6 10  1  0  0  0  0
  2  7  2  0  0  0  0
  3  8  1  0  0  0  0
  6  9  1  0  0  0  0
 10 14  1  0  0  0  0
  4 11  1  0  0  0  0
  4 12  1  0  0  0  0
  6 13  2  0  0  0  0
 14 15  1  0  0  0  0
 12 15  1  0  0  0  0
 11 16  1  0  0  0  0
 17 19  1  0  0  0  0
  2 18  1  0  0  0  0
  9 19  1  0  0  0  0
  7 20  1  0  0  0  0
  9 21  1  0  0  0  0
  8 22  1  0  0  0  0
 21 23  1  0  0  0  0
 18 24  1  0  0  0  0
 24 25  1  0  0  0  0
  5  7  1  0  0  0  0
 14 16  1  0  0  0  0
 20 25  1  0  0  0  0
 17 23  1  0  0  0  0
M  END
> <MOLFORMULA>
C19 H28 N4 O2

> <MOLWEIGHT>
3.444562000000000e+002

> <IDNUMBER>
AT-687/SK01670

> <PRICE>
EUR 80/10 mg

> <Similarity score>
0.23

$$$$

  -OEChem-04222410502D

 32 36  0     0  0  0  0  0  0999 V2000
    5.0500   -1.2917    0.0000 C   0  0  0  0  0  0  0  0  0  0  0  0
    3.9667   -2.0750    0.0000 C   0  0  0  0  0  0  0  0  0  0  0  0
    3.7167   -1.2792    0.0000 C   0  0  0  0  0  0  0  0  0  0  0  0
    4.7917   -2.0750    0.0000 C   0  0  0  0  0  0  0  0  0  0  0  0
    4.3792   -0.8000    0.0000 S   0  0  0  0  0  0  0  0  0  0  0  0
    3.4167   -2.6750    0.0000 C   0  0  0  0  0  0  0  0  0  0  0  0
    2.9042   -1.1042    0.0000 N   0  0  0  0  0  0  0  0  0  0  0  0
    2.6042   -2.5000    0.0000 N   0  0  0  0  0  0  0  0  0  0  0  0
    5.8500   -1.0500    0.0000 C   0  0  0  0  0  0  0  0  0  0  0  0
    1.3000   -0.7542    0.0000 N   0  0  3  0  0  0  0  0  0  0  0  0
    2.3500   -1.7250    0.0000 C   0  0  0  0  0  0  0  0  0  0  0  0
    6.0417   -0.2667    0.0000 N   0  0  0  0  0  0  0  0  0  0  0  0
    0.5167   -0.5000    0.0000 C   0  0  0  0  0  0  0  0  0  0  0  0
    6.8250   -0.0250    0.0000 C   0  0  0  0  0  0  0  0  0  0  0  0
    1.5500   -1.5500    0.0000 C   0  0  0  0  0  0  0  0  0  0  0  0
    7.4250   -0.6000    0.0000 C   0  0  0  0  0  0  0  0  0  0  0  0
    1.7750   -0.0917    0.0000 C   0  0  0  0  0  0  0  0  0  0  0  0
    6.4500   -1.6250    0.0000 O   0  0  0  0  0  0  0  0  0  0  0  0
    0.5167    0.3250    0.0000 C   0  0  0  0  0  0  0  0  0  0  0  0
    8.2042   -0.3667    0.0000 C   0  0  0  0  0  0  0  0  0  0  0  0
    1.3000    0.5750    0.0000 C   0  0  0  0  0  0  0  0  0  0  0  0
    7.0167    0.7583    0.0000 C   0  0  0  0  0  0  0  0  0  0  0  0
    3.6667   -3.4667    0.0000 O   0  0  0  0  0  0  0  0  0  0  0  0
    5.2750   -2.7500    0.0000 C   0  0  0  0  0  0  0  0  0  0  0  0
    8.4000    0.4333    0.0000 C   0  0  0  0  0  0  0  0  0  0  0  0
    7.8000    1.0000    0.0000 C   0  0  0  0  0  0  0  0  0  0  0  0
   -0.2000   -0.9167    0.0000 C   0  0  0  0  0  0  0  0  0  0  0  0
    7.2500   -1.4042    0.0000 C   0  0  0  0  0  0  0  0  0  0  0  0
   -0.2000    0.7333    0.0000 C   0  0  0  0  0  0  0  0  0  0  0  0
    9.2000    0.6750    0.0000 C   0  0  0  0  0  0  0  0  0  0  0  0
   -0.9125   -0.5000    0.0000 C   0  0  0  0  0  0  0  0  0  0  0  0
   -0.9125    0.3250    0.0000 C   0  0  0  0  0  0  0  0  0  0  0  0
  2  4  1  0  0  0  0
  3  5  1  0  0  0  0
  1  4  2  0  0  0  0
  1  5  1  0  0  0  0
  2  6  1  0  0  0  0
  3  7  1  0  0  0  0
  6  8  2  0  0  0  0
  1  9  1  0  0  0  0
 10 15  1  0  0  0  0
  7 11  2  0  0  0  0
  9 12  1  0  0  0  0
 10 13  1  0  0  0  0
 12 14  1  0  0  0  0
 11 15  1  0  0  0  0
 14 16  2  0  0  0  0
 10 17  1  0  0  0  0
  9 18  2  0  0  0  0
 13 19  2  0  0  0  0
 16 20  1  0  0  0  0
 17 21  1  0  0  0  0
 14 22  1  0  0  0  0
  6 23  1  0  0  0  0
  4 24  1  0  0  0  0
 25 26  1  0  0  0  0
 22 26  2  0  0  0  0
 13 27  1  0  0  0  0
 16 28  1  0  0  0  0
 19 29  1  0  0  0  0
 25 30  1  0  0  0  0
 27 31  2  0  0  0  0
 31 32  1  0  0  0  0
  2  3  2  0  0  0  0
  8 11  1  0  0  0  0
 20 25  2  0  0  0  0
 19 21  1  0  0  0  0
 29 32  2  0  0  0  0
M  END
> <MOLFORMULA>
C25 H24 N4 O2 S

> <MOLWEIGHT>
4.445566000000000e+002

> <IDNUMBER>
AT-687/SK06282

> <PRICE>
EUR 80/10 mg

> <Similarity score>
0.23

$$$$

  -OEChem-04222410502D

 30 34  0     0  0  0  0  0  0999 V2000
   -1.5458    2.5208    0.0000 C   0  0  0  0  0  0  0  0  0  0  0  0
   -1.5458    3.5208    0.0000 N   0  0  3  0  0  0  0  0  0  0  0  0
   -0.6833    2.0083    0.0000 C   0  0  0  0  0  0  0  0  0  0  0  0
   -2.5000    3.8333    0.0000 N   0  0  0  0  0  0  0  0  0  0  0  0
   -2.5000    2.2083    0.0000 C   0  0  0  0  0  0  0  0  0  0  0  0
   -0.6833    1.0083    0.0000 N   0  0  3  0  0  0  0  0  0  0  0  0
   -3.0833    3.0083    0.0000 C   0  0  0  0  0  0  0  0  0  0  0  0
    1.0500   -0.9917    0.0000 C   0  0  0  0  0  0  0  0  0  0  0  0
    0.1875    2.5208    0.0000 N   0  0  0  0  0  0  0  0  0  0  0  0
    0.1792   -0.4875    0.0000 C   0  0  3  0  0  0  0  0  0  0  0  0
    1.0417   -1.9917    0.0000 N   0  0  0  0  0  0  0  0  0  0  0  0
    0.1875    0.5083    0.0000 C   0  0  0  0  0  0  0  0  0  0  0  0
   -0.6833    4.0042    0.0000 C   0  0  0  0  0  0  0  0  0  0  0  0
    1.9042   -2.4917    0.0000 C   0  0  0  0  0  0  0  0  0  0  0  0
    0.1875    3.5208    0.0000 C   0  0  0  0  0  0  0  0  0  0  0  0
    2.7750   -1.9917    0.0000 C   0  0  0  0  0  0  0  0  0  0  0  0
    1.9125   -0.4917    0.0000 O   0  0  0  0  0  0  0  0  0  0  0  0
    3.6375   -2.5042    0.0000 C   0  0  0  0  0  0  0  0  0  0  0  0
    1.8917   -3.4875    0.0000 C   0  0  0  0  0  0  0  0  0  0  0  0
    3.6375   -3.4917    0.0000 C   0  0  0  0  0  0  0  0  0  0  0  0
   -1.5458    0.5083    0.0000 C   0  0  0  0  0  0  0  0  0  0  0  0
   -2.9083    1.2833    0.0000 C   0  0  0  0  0  0  0  0  0  0  0  0
    2.7542   -4.0000    0.0000 C   0  0  0  0  0  0  0  0  0  0  0  0
    4.4917   -4.0042    0.0000 F   0  0  0  0  0  0  0  0  0  0  0  0
   -0.6833   -0.9792    0.0000 C   0  0  0  0  0  0  0  0  0  0  0  0
   -4.0833    2.9000    0.0000 C   0  0  0  0  0  0  0  0  0  0  0  0
   -1.5458   -0.4792    0.0000 C   0  0  0  0  0  0  0  0  0  0  0  0
    2.7792   -1.0000    0.0000 C   0  0  0  0  0  0  0  0  0  0  0  0
   -3.9000    1.1833    0.0000 C   0  0  0  0  0  0  0  0  0  0  0  0
   -4.4958    1.9958    0.0000 C   0  0  0  0  0  0  0  0  0  0  0  0
  1  2  1  0  0  0  0
  1  3  1  0  0  0  0
  2  4  1  0  0  0  0
  1  5  2  0  0  0  0
  3  6  1  0  0  0  0
  5  7  1  0  0  0  0
  8 10  1  0  0  0  0
  3  9  2  0  0  0  0
 10 12  1  0  0  0  0
  8 11  1  0  0  0  0
  6 12  1  0  0  0  0
  2 13  1  0  0  0  0
 11 14  1  0  0  0  0
  9 15  1  0  0  0  0
 14 16  2  0  0  0  0
  8 17  2  0  0  0  0
 16 18  1  0  0  0  0
 14 19  1  0  0  0  0
 20 23  1  0  0  0  0
  6 21  1  0  0  0  0
  5 22  1  0  0  0  0
 19 23  2  0  0  0  0
 20 24  1  0  0  0  0
 25 27  1  0  0  0  0
  7 26  1  0  0  0  0
 21 27  1  0  0  0  0
 16 28  1  0  0  0  0
 22 29  1  0  0  0  0
 29 30  1  0  0  0  0
  4  7  2  0  0  0  0
 13 15  2  0  0  0  0
 26 30  1  0  0  0  0
 10 25  1  0  0  0  0
 18 20  2  0  0  0  0
M  END
> <MOLFORMULA>
C23 H26 F N5 O

> <MOLWEIGHT>
4.074904000000000e+002

> <IDNUMBER>
AT-687/PE21875

> <PRICE>
EUR 80/10 mg

> <Similarity score>
0.23

$$$$

  -OEChem-04222410502D

 29 33  0     0  0  0  0  0  0999 V2000
    0.1667   -2.7583    0.0000 N   0  0  3  0  0  0  0  0  0  0  0  0
   -0.2417   -1.8417    0.0000 C   0  0  0  0  0  0  0  0  0  0  0  0
    1.1625   -2.6500    0.0000 C   0  0  0  0  0  0  0  0  0  0  0  0
   -0.6208    1.2208    0.0000 C   0  0  0  0  0  0  0  0  0  0  0  0
    0.5042   -1.1750    0.0000 C   0  0  3  0  0  0  0  0  0  0  0  0
    0.1875    1.8083    0.0000 C   0  0  0  0  0  0  0  0  0  0  0  0
    1.3667   -1.6750    0.0000 C   0  0  0  0  0  0  0  0  0  0  0  0
    0.4000   -0.1792    0.0000 N   0  0  3  0  0  0  0  0  0  0  0  0
   -1.4292    1.8083    0.0000 N   0  0  0  0  0  0  0  0  0  0  0  0
   -0.1208    2.7625    0.0000 C   0  0  0  0  0  0  0  0  0  0  0  0
   -1.1208    2.7625    0.0000 C   0  0  0  0  0  0  0  0  0  0  0  0
   -0.3333   -3.6208    0.0000 C   0  0  0  0  0  0  0  0  0  0  0  0
   -0.5167    0.2292    0.0000 C   0  0  0  0  0  0  0  0  0  0  0  0
    1.1042    1.4042    0.0000 C   0  0  0  0  0  0  0  0  0  0  0  0
   -1.2208   -1.6333    0.0000 O   0  0  0  0  0  0  0  0  0  0  0  0
    1.2083    0.4083    0.0000 C   0  0  0  0  0  0  0  0  0  0  0  0
    1.8292   -3.3958    0.0000 O   0  0  0  0  0  0  0  0  0  0  0  0
    0.3792    3.6250    0.0000 C   0  0  0  0  0  0  0  0  0  0  0  0
    0.1667   -4.4875    0.0000 C   0  0  0  0  0  0  0  0  0  0  0  0
   -1.6208    3.6250    0.0000 C   0  0  0  0  0  0  0  0  0  0  0  0
   -0.1208    4.4875    0.0000 C   0  0  0  0  0  0  0  0  0  0  0  0
    1.1667   -4.4875    0.0000 F   0  0  0  0  0  0  0  0  0  0  0  0
   -1.1208    4.4875    0.0000 C   0  0  0  0  0  0  0  0  0  0  0  0
   -1.3333   -3.6208    0.0000 C   0  0  0  0  0  0  0  0  0  0  0  0
    0.3792    5.3542    0.0000 O   0  0  0  0  0  0  0  0  0  0  0  0
   -0.3333   -5.3542    0.0000 C   0  0  0  0  0  0  0  0  0  0  0  0
    1.3792    5.3542    0.0000 C   0  0  0  0  0  0  0  0  0  0  0  0
   -1.8333   -4.4875    0.0000 C   0  0  0  0  0  0  0  0  0  0  0  0
   -1.3333   -5.3542    0.0000 C   0  0  0  0  0  0  0  0  0  0  0  0
  1  2  1  0  0  0  0
  1  3  1  0  0  0  0
  4 13  1  0  0  0  0
  2  5  1  0  0  0  0
  6 14  1  0  0  0  0
  3  7  1  0  0  0  0
  5  8  1  0  0  0  0
  4  9  1  0  0  0  0
  6 10  1  0  0  0  0
  9 11  1  0  0  0  0
  1 12  1  0  0  0  0
  8 13  1  0  0  0  0
 14 16  1  0  0  0  0
  2 15  2  0  0  0  0
  8 16  1  0  0  0  0
  3 17  2  0  0  0  0
 10 18  2  0  0  0  0
 12 19  2  0  0  0  0
 11 20  2  0  0  0  0
 18 21  1  0  0  0  0
 19 22  1  0  0  0  0
 20 23  1  0  0  0  0
 12 24  1  0  0  0  0
 21 25  1  0  0  0  0
 19 26  1  0  0  0  0
 25 27  1  0  0  0  0
 24 28  2  0  0  0  0
 28 29  1  0  0  0  0
  5  7  1  0  0  0  0
 26 29  2  0  0  0  0
  4  6  2  0  0  0  0
 10 11  1  0  0  0  0
 21 23  2  0  0  0  0
M  END
> <MOLFORMULA>
C22 H20 F N3 O3

> <MOLWEIGHT>
3.934160000000000e+002

> <IDNUMBER>
AN-153/NB21458

> <PRICE>
EUR 130/10 mg

> <Similarity score>
0.23

$$$$

  -OEChem-04222410502D

 23 26  0     0  0  0  0  0  0999 V2000
    0.0583   -3.6208    0.0000 N   0  0  3  0  0  0  0  0  0  0  0  0
   -0.3458   -2.7083    0.0000 C   0  0  0  0  0  0  0  0  0  0  0  0
   -0.7250    0.3542    0.0000 C   0  0  0  0  0  0  0  0  0  0  0  0
    1.0542   -3.5167    0.0000 C   0  0  0  0  0  0  0  0  0  0  0  0
    0.3958   -2.0417    0.0000 C   0  0  3  0  0  0  0  0  0  0  0  0
    0.0833    0.9417    0.0000 C   0  0  0  0  0  0  0  0  0  0  0  0
    0.2917   -1.0458    0.0000 N   0  0  3  0  0  0  0  0  0  0  0  0
    1.2625   -2.5417    0.0000 C   0  0  0  0  0  0  0  0  0  0  0  0
   -1.5375    0.9417    0.0000 N   0  0  0  0  0  0  0  0  0  0  0  0
   -0.2250    1.8958    0.0000 C   0  0  0  0  0  0  0  0  0  0  0  0
   -1.2292    1.8958    0.0000 C   0  0  0  0  0  0  0  0  0  0  0  0
   -0.6208   -0.6375    0.0000 C   0  0  0  0  0  0  0  0  0  0  0  0
    0.9958    0.5375    0.0000 C   0  0  0  0  0  0  0  0  0  0  0  0
    1.1000   -0.4583    0.0000 C   0  0  0  0  0  0  0  0  0  0  0  0
   -1.3250   -2.5000    0.0000 O   0  0  0  0  0  0  0  0  0  0  0  0
    1.7250   -4.2625    0.0000 O   0  0  0  0  0  0  0  0  0  0  0  0
    0.2750    2.7625    0.0000 C   0  0  0  0  0  0  0  0  0  0  0  0
   -1.7250    2.7625    0.0000 C   0  0  0  0  0  0  0  0  0  0  0  0
   -0.4417   -4.4875    0.0000 C   0  0  0  0  0  0  0  0  0  0  0  0
   -0.2250    3.6250    0.0000 C   0  0  0  0  0  0  0  0  0  0  0  0
   -1.2292    3.6250    0.0000 C   0  0  0  0  0  0  0  0  0  0  0  0
    0.2750    4.4875    0.0000 O   0  0  0  0  0  0  0  0  0  0  0  0
    1.2750    4.4875    0.0000 C   0  0  0  0  0  0  0  0  0  0  0  0
  1  2  1  0  0  0  0
  3 12  1  0  0  0  0
  1  4  1  0  0  0  0
  2  5  1  0  0  0  0
  6 13  1  0  0  0  0
  5  7  1  0  0  0  0
  4  8  1  0  0  0  0
  3  9  1  0  0  0  0
  6 10  1  0  0  0  0
  9 11  1  0  0  0  0
  7 12  1  0  0  0  0
 13 14  1  0  0  0  0
  7 14  1  0  0  0  0
  2 15  2  0  0  0  0
  4 16  2  0  0  0  0
 10 17  2  0  0  0  0
 11 18  2  0  0  0  0
  1 19  1  0  0  0  0
 17 20  1  0  0  0  0
 18 21  1  0  0  0  0
 20 22  1  0  0  0  0
 22 23  1  0  0  0  0
  5  8  1  0  0  0  0
  3  6  2  0  0  0  0
 10 11  1  0  0  0  0
 20 21  2  0  0  0  0
M  END
> <MOLFORMULA>
C17 H19 N3 O3

> <MOLWEIGHT>
3.133551000000000e+002

> <IDNUMBER>
AN-153/NB26453

> <PRICE>
EUR 130/10 mg

> <Similarity score>
0.23

$$$$

  -OEChem-04222410502D

 31 35  0     0  0  0  0  0  0999 V2000
   -1.5458    2.9875    0.0000 C   0  0  0  0  0  0  0  0  0  0  0  0
   -1.5458    3.9875    0.0000 N   0  0  3  0  0  0  0  0  0  0  0  0
   -0.6833    2.4958    0.0000 C   0  0  0  0  0  0  0  0  0  0  0  0
   -2.5083    4.2917    0.0000 N   0  0  0  0  0  0  0  0  0  0  0  0
   -2.5083    2.6833    0.0000 C   0  0  0  0  0  0  0  0  0  0  0  0
   -0.6833    1.4958    0.0000 N   0  0  3  0  0  0  0  0  0  0  0  0
   -3.0958    3.4958    0.0000 C   0  0  0  0  0  0  0  0  0  0  0  0
    0.1792    2.9875    0.0000 N   0  0  0  0  0  0  0  0  0  0  0  0
    0.1750   -0.0042    0.0000 C   0  0  3  0  0  0  0  0  0  0  0  0
    1.0417   -0.5125    0.0000 C   0  0  0  0  0  0  0  0  0  0  0  0
   -0.6833    4.4917    0.0000 C   0  0  0  0  0  0  0  0  0  0  0  0
    0.1792    1.0000    0.0000 C   0  0  0  0  0  0  0  0  0  0  0  0
    3.6167   -2.0125    0.0000 C   0  0  0  0  0  0  0  0  0  0  0  0
    0.1792    3.9875    0.0000 C   0  0  0  0  0  0  0  0  0  0  0  0
    2.7667   -1.5000    0.0000 C   0  0  0  0  0  0  0  0  0  0  0  0
    1.9042   -0.0042    0.0000 N   0  0  0  0  0  0  0  0  0  0  0  0
    3.6125   -3.0042    0.0000 C   0  0  0  0  0  0  0  0  0  0  0  0
    2.7750   -0.5125    0.0000 C   0  0  0  0  0  0  0  0  0  0  0  0
    1.0375   -1.5042    0.0000 O   0  0  0  0  0  0  0  0  0  0  0  0
    1.8917   -1.9875    0.0000 C   0  0  0  0  0  0  0  0  0  0  0  0
    2.7542   -3.5000    0.0000 C   0  0  0  0  0  0  0  0  0  0  0  0
    4.4917   -1.5042    0.0000 F   0  0  0  0  0  0  0  0  0  0  0  0
   -1.5458    1.0000    0.0000 C   0  0  0  0  0  0  0  0  0  0  0  0
   -2.9125    1.7708    0.0000 C   0  0  0  0  0  0  0  0  0  0  0  0
    1.8792   -2.9917    0.0000 C   0  0  0  0  0  0  0  0  0  0  0  0
    2.7292   -4.4917    0.0000 F   0  0  0  0  0  0  0  0  0  0  0  0
   -0.6958   -0.5000    0.0000 C   0  0  0  0  0  0  0  0  0  0  0  0
   -4.0833    3.3833    0.0000 C   0  0  0  0  0  0  0  0  0  0  0  0
   -1.5583   -0.0000    0.0000 C   0  0  0  0  0  0  0  0  0  0  0  0
   -3.9083    1.6708    0.0000 C   0  0  0  0  0  0  0  0  0  0  0  0
   -4.4958    2.4750    0.0000 C   0  0  0  0  0  0  0  0  0  0  0  0
  1  2  1  0  0  0  0
  1  3  1  0  0  0  0
  2  4  1  0  0  0  0
  1  5  2  0  0  0  0
  3  6  1  0  0  0  0
  5  7  1  0  0  0  0
  3  8  2  0  0  0  0
  9 12  1  0  0  0  0
  9 10  1  0  0  0  0
  2 11  1  0  0  0  0
  6 12  1  0  0  0  0
 13 15  2  0  0  0  0
  8 14  1  0  0  0  0
 15 18  1  0  0  0  0
 10 16  1  0  0  0  0
 13 17  1  0  0  0  0
 16 18  1  0  0  0  0
 10 19  2  0  0  0  0
 15 20  1  0  0  0  0
 21 25  1  0  0  0  0
 13 22  1  0  0  0  0
  6 23  1  0  0  0  0
  5 24  1  0  0  0  0
 20 25  2  0  0  0  0
 21 26  1  0  0  0  0
 27 29  1  0  0  0  0
  7 28  1  0  0  0  0
 23 29  1  0  0  0  0
 24 30  1  0  0  0  0
 30 31  1  0  0  0  0
  4  7  2  0  0  0  0
 11 14  2  0  0  0  0
 28 31  1  0  0  0  0
  9 27  1  0  0  0  0
 17 21  2  0  0  0  0
M  END
> <MOLFORMULA>
C23 H25 F2 N5 O

> <MOLWEIGHT>
4.254805000000000e+002

> <IDNUMBER>
AT-687/PE21892

> <PRICE>
EUR 80/10 mg

> <Similarity score>
0.23

$$$$

  -OEChem-04222410502D

 31 35  0     0  0  0  0  0  0999 V2000
    0.1667   -1.4583    0.0000 N   0  0  3  0  0  0  0  0  0  0  0  0
   -0.2417   -0.5458    0.0000 C   0  0  0  0  0  0  0  0  0  0  0  0
    1.1625   -1.3542    0.0000 C   0  0  0  0  0  0  0  0  0  0  0  0
   -0.6208    2.5208    0.0000 C   0  0  0  0  0  0  0  0  0  0  0  0
    0.5042    0.1250    0.0000 C   0  0  3  0  0  0  0  0  0  0  0  0
    0.1875    3.1083    0.0000 C   0  0  0  0  0  0  0  0  0  0  0  0
    1.3667   -0.3750    0.0000 C   0  0  0  0  0  0  0  0  0  0  0  0
    0.3958    1.1208    0.0000 N   0  0  3  0  0  0  0  0  0  0  0  0
   -1.4292    3.1083    0.0000 N   0  0  0  0  0  0  0  0  0  0  0  0
   -0.1208    4.0542    0.0000 C   0  0  0  0  0  0  0  0  0  0  0  0
   -1.1208    4.0542    0.0000 C   0  0  0  0  0  0  0  0  0  0  0  0
   -0.5167    1.5250    0.0000 C   0  0  0  0  0  0  0  0  0  0  0  0
   -0.3333   -2.3250    0.0000 C   0  0  0  0  0  0  0  0  0  0  0  0
    1.1042    2.7000    0.0000 C   0  0  0  0  0  0  0  0  0  0  0  0
   -1.2208   -0.3375    0.0000 O   0  0  0  0  0  0  0  0  0  0  0  0
    1.2083    1.7083    0.0000 C   0  0  0  0  0  0  0  0  0  0  0  0
    1.8292   -2.0958    0.0000 O   0  0  0  0  0  0  0  0  0  0  0  0
   -1.3333   -5.7875    0.0000 C   0  0  0  0  0  0  0  0  0  0  0  0
    0.3792    4.9208    0.0000 C   0  0  0  0  0  0  0  0  0  0  0  0
   -1.8333   -4.9208    0.0000 N   0  0  0  0  0  0  0  0  0  0  0  0
   -1.6208    4.9208    0.0000 C   0  0  0  0  0  0  0  0  0  0  0  0
   -1.8333   -6.6542    0.0000 O   0  0  0  0  0  0  0  0  0  0  0  0
    0.1667   -3.1917    0.0000 C   0  0  0  0  0  0  0  0  0  0  0  0
   -1.3333   -2.3250    0.0000 C   0  0  0  0  0  0  0  0  0  0  0  0
   -1.3333   -4.0542    0.0000 C   0  0  0  0  0  0  0  0  0  0  0  0
   -0.1208    5.7875    0.0000 C   0  0  0  0  0  0  0  0  0  0  0  0
   -1.1208    5.7875    0.0000 C   0  0  0  0  0  0  0  0  0  0  0  0
   -1.8333   -3.1917    0.0000 C   0  0  0  0  0  0  0  0  0  0  0  0
   -0.3333   -4.0542    0.0000 C   0  0  0  0  0  0  0  0  0  0  0  0
    0.3792    6.6542    0.0000 Cl  0  0  0  0  0  0  0  0  0  0  0  0
   -0.3333   -5.7875    0.0000 C   0  0  0  0  0  0  0  0  0  0  0  0
  1  2  1  0  0  0  0
  1  3  1  0  0  0  0
  4 12  1  0  0  0  0
  2  5  1  0  0  0  0
  6 14  1  0  0  0  0
  3  7  1  0  0  0  0
  5  8  1  0  0  0  0
  4  9  1  0  0  0  0
  6 10  1  0  0  0  0
  9 11  1  0  0  0  0
  8 12  1  0  0  0  0
  1 13  1  0  0  0  0
 14 16  1  0  0  0  0
  2 15  2  0  0  0  0
  8 16  1  0  0  0  0
  3 17  2  0  0  0  0
 18 20  1  0  0  0  0
 10 19  2  0  0  0  0
 20 25  1  0  0  0  0
 11 21  2  0  0  0  0
 18 22  2  0  0  0  0
 13 23  1  0  0  0  0
 13 24  2  0  0  0  0
 25 28  2  0  0  0  0
 19 26  1  0  0  0  0
 21 27  1  0  0  0  0
 24 28  1  0  0  0  0
 23 29  2  0  0  0  0
 26 30  1  0  0  0  0
 18 31  1  0  0  0  0
  5  7  1  0  0  0  0
 25 29  1  0  0  0  0
  4  6  2  0  0  0  0
 10 11  1  0  0  0  0
 26 27  2  0  0  0  0
M  END
> <MOLFORMULA>
C23 H21 Cl N4 O3

> <MOLWEIGHT>
4.368969000000000e+002

> <IDNUMBER>
AN-153/NB21472

> <PRICE>
EUR 130/10 mg

> <Similarity score>
0.23

$$$$

  -OEChem-04222410502D

 30 34  0     0  0  0  0  0  0999 V2000
    0.6667   -2.3250    0.0000 N   0  0  3  0  0  0  0  0  0  0  0  0
    0.2583   -1.4083    0.0000 C   0  0  0  0  0  0  0  0  0  0  0  0
    1.6625   -2.2208    0.0000 C   0  0  0  0  0  0  0  0  0  0  0  0
   -0.1208    1.6542    0.0000 C   0  0  0  0  0  0  0  0  0  0  0  0
    1.0042   -0.7417    0.0000 C   0  0  3  0  0  0  0  0  0  0  0  0
    0.6875    2.2417    0.0000 C   0  0  0  0  0  0  0  0  0  0  0  0
    1.8667   -1.2417    0.0000 C   0  0  0  0  0  0  0  0  0  0  0  0
    0.8958    0.2542    0.0000 N   0  0  3  0  0  0  0  0  0  0  0  0
   -0.9292    2.2417    0.0000 N   0  0  0  0  0  0  0  0  0  0  0  0
    0.1667   -3.1917    0.0000 C   0  0  0  0  0  0  0  0  0  0  0  0
    0.3792    3.1917    0.0000 C   0  0  0  0  0  0  0  0  0  0  0  0
   -0.6208    3.1917    0.0000 C   0  0  0  0  0  0  0  0  0  0  0  0
   -0.0167    0.6583    0.0000 C   0  0  0  0  0  0  0  0  0  0  0  0
   -0.8333   -3.1917    0.0000 C   0  0  0  0  0  0  0  0  0  0  0  0
    1.6042    1.8375    0.0000 C   0  0  0  0  0  0  0  0  0  0  0  0
   -1.3333   -4.0542    0.0000 C   0  0  0  0  0  0  0  0  0  0  0  0
   -0.7208   -1.2042    0.0000 O   0  0  0  0  0  0  0  0  0  0  0  0
    1.7083    0.8417    0.0000 C   0  0  0  0  0  0  0  0  0  0  0  0
    2.3292   -2.9625    0.0000 O   0  0  0  0  0  0  0  0  0  0  0  0
    0.8792    4.0542    0.0000 C   0  0  0  0  0  0  0  0  0  0  0  0
    0.6667   -4.0542    0.0000 C   0  0  0  0  0  0  0  0  0  0  0  0
   -0.8333   -4.9208    0.0000 C   0  0  0  0  0  0  0  0  0  0  0  0
   -1.1208    4.0542    0.0000 C   0  0  0  0  0  0  0  0  0  0  0  0
    0.1667   -4.9208    0.0000 C   0  0  0  0  0  0  0  0  0  0  0  0
    0.3792    4.9208    0.0000 C   0  0  0  0  0  0  0  0  0  0  0  0
   -2.3333   -4.0542    0.0000 Cl  0  0  0  0  0  0  0  0  0  0  0  0
   -1.3333   -5.7875    0.0000 F   0  0  0  0  0  0  0  0  0  0  0  0
   -0.6208    4.9208    0.0000 C   0  0  0  0  0  0  0  0  0  0  0  0
    0.8792    5.7875    0.0000 O   0  0  0  0  0  0  0  0  0  0  0  0
    1.8792    5.7875    0.0000 C   0  0  0  0  0  0  0  0  0  0  0  0
  1  2  1  0  0  0  0
  1  3  1  0  0  0  0
  4 13  1  0  0  0  0
  2  5  1  0  0  0  0
  6 15  1  0  0  0  0
  3  7  1  0  0  0  0
  5  8  1  0  0  0  0
  4  9  1  0  0  0  0
  1 10  1  0  0  0  0
  6 11  1  0  0  0  0
  9 12  1  0  0  0  0
  8 13  1  0  0  0  0
 10 14  2  0  0  0  0
 15 18  1  0  0  0  0
 14 16  1  0  0  0  0
  2 17  2  0  0  0  0
  8 18  1  0  0  0  0
  3 19  2  0  0  0  0
 11 20  2  0  0  0  0
 10 21  1  0  0  0  0
 22 24  1  0  0  0  0
 12 23  2  0  0  0  0
 21 24  2  0  0  0  0
 20 25  1  0  0  0  0
 16 26  1  0  0  0  0
 22 27  1  0  0  0  0
 23 28  1  0  0  0  0
 25 29  1  0  0  0  0
 29 30  1  0  0  0  0
  5  7  1  0  0  0  0
 16 22  2  0  0  0  0
  4  6  2  0  0  0  0
 11 12  1  0  0  0  0
 25 28  2  0  0  0  0
M  END
> <MOLFORMULA>
C22 H19 Cl F N3 O3

> <MOLWEIGHT>
4.278611000000000e+002

> <IDNUMBER>
AN-153/NB21461

> <PRICE>
EUR 130/10 mg

> <Similarity score>
0.23

$$$$

  -OEChem-04222410502D

 28 31  0     0  0  0  0  0  0999 V2000
    6.1375    1.5083    0.0000 C   0  0  0  0  0  0  0  0  0  0  0  0
    6.1375    2.3333    0.0000 C   0  0  0  0  0  0  0  0  0  0  0  0
    6.8542    1.0958    0.0000 N   0  0  0  0  0  0  0  0  0  0  0  0
    5.4167    1.0958    0.0000 N   0  0  3  0  0  0  0  0  0  0  0  0
    7.5667    2.3333    0.0000 N   0  0  0  0  0  0  0  0  0  0  0  0
    6.8542    2.7458    0.0000 C   0  0  0  0  0  0  0  0  0  0  0  0
    7.5667    1.5083    0.0000 C   0  0  0  0  0  0  0  0  0  0  0  0
    3.2792   -0.9667    0.0000 C   0  0  0  0  0  0  0  0  0  0  0  0
    3.2792   -0.1417    0.0000 N   0  0  0  0  0  0  0  0  0  0  0  0
    4.7042    1.5083    0.0000 C   0  0  0  0  0  0  0  0  0  0  0  0
    5.4167    0.2708    0.0000 C   0  0  0  0  0  0  0  0  0  0  0  0
    3.9917   -1.3875    0.0000 O   0  0  0  0  0  0  0  0  0  0  0  0
    2.5667   -1.3792    0.0000 O   0  0  0  0  0  0  0  0  0  0  0  0
    4.7042   -0.1417    0.0000 C   0  0  0  0  0  0  0  0  0  0  0  0
    4.0000    1.0958    0.0000 C   0  0  0  0  0  0  0  0  0  0  0  0
    4.0000    0.2708    0.0000 C   0  0  3  0  0  0  0  0  0  0  0  0
    5.4167    2.7500    0.0000 C   0  0  0  0  0  0  0  0  0  0  0  0
    2.5667   -2.2042    0.0000 C   0  0  0  0  0  0  0  0  0  0  0  0
    1.8542   -2.6167    0.0000 C   0  0  0  0  0  0  0  0  0  0  0  0
    6.8542    3.5583    0.0000 C   0  0  0  0  0  0  0  0  0  0  0  0
    8.2792    1.0958    0.0000 C   0  0  0  0  0  0  0  0  0  0  0  0
    1.8542   -3.4417    0.0000 C   0  0  0  0  0  0  0  0  0  0  0  0
    1.1292   -2.2042    0.0000 C   0  0  0  0  0  0  0  0  0  0  0  0
    5.4292    3.5625    0.0000 C   0  0  0  0  0  0  0  0  0  0  0  0
    6.1417    3.9833    0.0000 C   0  0  0  0  0  0  0  0  0  0  0  0
    0.4250   -2.6167    0.0000 C   0  0  0  0  0  0  0  0  0  0  0  0
    1.1292   -3.8542    0.0000 C   0  0  0  0  0  0  0  0  0  0  0  0
    0.4250   -3.4417    0.0000 C   0  0  0  0  0  0  0  0  0  0  0  0
  1  2  1  0  0  0  0
  1  3  2  0  0  0  0
  1  4  1  0  0  0  0
  5  7  2  0  0  0  0
  2  6  2  0  0  0  0
  3  7  1  0  0  0  0
  8  9  1  0  0  0  0
  9 16  1  0  0  0  0
  4 10  1  0  0  0  0
  4 11  1  0  0  0  0
  8 12  2  0  0  0  0
  8 13  1  0  0  0  0
 11 14  1  0  0  0  0
 10 15  1  0  0  0  0
 14 16  1  0  0  0  0
  2 17  1  0  0  0  0
 13 18  1  0  0  0  0
 18 19  1  0  0  0  0
  6 20  1  0  0  0  0
  7 21  1  0  0  0  0
 19 22  2  0  0  0  0
 19 23  1  0  0  0  0
 17 24  1  0  0  0  0
 24 25  1  0  0  0  0
 23 26  2  0  0  0  0
 22 27  1  0  0  0  0
 26 28  1  0  0  0  0
  5  6  1  0  0  0  0
 15 16  1  0  0  0  0
 20 25  1  0  0  0  0
 27 28  2  0  0  0  0
M  END
> <MOLFORMULA>
C22 H28 N4 O2

> <MOLWEIGHT>
3.804892000000000e+002

> <IDNUMBER>
AT-687/SK01669

> <PRICE>
EUR 80/10 mg

> <Similarity score>
0.23

$$$$

  -OEChem-04222410502D

 29 33  0     0  0  0  0  0  0999 V2000
    0.1667   -2.7583    0.0000 N   0  0  3  0  0  0  0  0  0  0  0  0
   -0.2417   -1.8417    0.0000 C   0  0  0  0  0  0  0  0  0  0  0  0
    1.1625   -2.6500    0.0000 C   0  0  0  0  0  0  0  0  0  0  0  0
   -0.6208    1.2208    0.0000 C   0  0  0  0  0  0  0  0  0  0  0  0
    0.5042   -1.1750    0.0000 C   0  0  3  0  0  0  0  0  0  0  0  0
    0.1875    1.8083    0.0000 C   0  0  0  0  0  0  0  0  0  0  0  0
    1.3667   -1.6750    0.0000 C   0  0  0  0  0  0  0  0  0  0  0  0
    0.3958   -0.1792    0.0000 N   0  0  3  0  0  0  0  0  0  0  0  0
   -1.4292    1.8083    0.0000 N   0  0  0  0  0  0  0  0  0  0  0  0
   -0.1208    2.7625    0.0000 C   0  0  0  0  0  0  0  0  0  0  0  0
   -1.1208    2.7625    0.0000 C   0  0  0  0  0  0  0  0  0  0  0  0
   -0.3333   -3.6208    0.0000 C   0  0  0  0  0  0  0  0  0  0  0  0
   -0.5167    0.2292    0.0000 C   0  0  0  0  0  0  0  0  0  0  0  0
    1.1042    1.4042    0.0000 C   0  0  0  0  0  0  0  0  0  0  0  0
   -1.2208   -1.6333    0.0000 O   0  0  0  0  0  0  0  0  0  0  0  0
    1.2083    0.4083    0.0000 C   0  0  0  0  0  0  0  0  0  0  0  0
    1.8292   -3.3958    0.0000 O   0  0  0  0  0  0  0  0  0  0  0  0
    0.3792    3.6250    0.0000 C   0  0  0  0  0  0  0  0  0  0  0  0
    0.1667   -4.4875    0.0000 C   0  0  0  0  0  0  0  0  0  0  0  0
   -1.6208    3.6250    0.0000 C   0  0  0  0  0  0  0  0  0  0  0  0
   -0.1208    4.4875    0.0000 C   0  0  0  0  0  0  0  0  0  0  0  0
   -1.1208    4.4875    0.0000 C   0  0  0  0  0  0  0  0  0  0  0  0
    0.3792    5.3542    0.0000 F   0  0  0  0  0  0  0  0  0  0  0  0
    1.1667   -4.4875    0.0000 O   0  0  0  0  0  0  0  0  0  0  0  0
   -1.3333   -3.6208    0.0000 C   0  0  0  0  0  0  0  0  0  0  0  0
   -0.3333   -5.3542    0.0000 C   0  0  0  0  0  0  0  0  0  0  0  0
    1.6667   -5.3542    0.0000 C   0  0  0  0  0  0  0  0  0  0  0  0
   -1.8333   -4.4875    0.0000 C   0  0  0  0  0  0  0  0  0  0  0  0
   -1.3333   -5.3542    0.0000 C   0  0  0  0  0  0  0  0  0  0  0  0
  1  2  1  0  0  0  0
  1  3  1  0  0  0  0
  4 13  1  0  0  0  0
  2  5  1  0  0  0  0
  6 14  1  0  0  0  0
  3  7  1  0  0  0  0
  5  8  1  0  0  0  0
  4  9  1  0  0  0  0
  6 10  1  0  0  0  0
  9 11  1  0  0  0  0
  1 12  1  0  0  0  0
  8 13  1  0  0  0  0
 14 16  1  0  0  0  0
  2 15  2  0  0  0  0
  8 16  1  0  0  0  0
  3 17  2  0  0  0  0
 10 18  2  0  0  0  0
 12 19  2  0  0  0  0
 11 20  2  0  0  0  0
 18 21  1  0  0  0  0
 20 22  1  0  0  0  0
 21 23  1  0  0  0  0
 19 24  1  0  0  0  0
 12 25  1  0  0  0  0
 19 26  1  0  0  0  0
 24 27  1  0  0  0  0
 25 28  2  0  0  0  0
 28 29  1  0  0  0  0
  5  7  1  0  0  0  0
 26 29  2  0  0  0  0
  4  6  2  0  0  0  0
 10 11  1  0  0  0  0
 21 22  2  0  0  0  0
M  END
> <MOLFORMULA>
C22 H20 F N3 O3

> <MOLWEIGHT>
3.934160000000000e+002

> <IDNUMBER>
AN-153/NB21470

> <PRICE>
EUR 130/10 mg

> <Similarity score>
0.23

$$$$

  -OEChem-04222410502D

 32 36  0     0  0  0  0  0  0999 V2000
   -1.9833    2.5083    0.0000 C   0  0  0  0  0  0  0  0  0  0  0  0
   -1.9833    3.5208    0.0000 N   0  0  3  0  0  0  0  0  0  0  0  0
   -1.1208    2.0208    0.0000 C   0  0  0  0  0  0  0  0  0  0  0  0
   -2.9375    3.8208    0.0000 N   0  0  0  0  0  0  0  0  0  0  0  0
   -2.9375    2.1958    0.0000 C   0  0  0  0  0  0  0  0  0  0  0  0
   -1.1208    1.0083    0.0000 N   0  0  3  0  0  0  0  0  0  0  0  0
   -3.5208    3.0083    0.0000 C   0  0  0  0  0  0  0  0  0  0  0  0
    0.6042   -0.9917    0.0000 C   0  0  0  0  0  0  0  0  0  0  0  0
   -0.2500    2.5083    0.0000 N   0  0  0  0  0  0  0  0  0  0  0  0
   -0.2583   -0.4917    0.0000 C   0  0  3  0  0  0  0  0  0  0  0  0
    0.6042   -2.0000    0.0000 N   0  0  0  0  0  0  0  0  0  0  0  0
   -0.2500    0.5125    0.0000 C   0  0  0  0  0  0  0  0  0  0  0  0
   -1.1208    4.0042    0.0000 C   0  0  0  0  0  0  0  0  0  0  0  0
    1.4667   -2.4917    0.0000 C   0  0  0  0  0  0  0  0  0  0  0  0
   -0.2500    3.5208    0.0000 C   0  0  0  0  0  0  0  0  0  0  0  0
    2.3417   -2.0000    0.0000 C   0  0  0  0  0  0  0  0  0  0  0  0
    3.2000   -2.5125    0.0000 C   0  0  0  0  0  0  0  0  0  0  0  0
    1.4750   -0.5000    0.0000 O   0  0  0  0  0  0  0  0  0  0  0  0
    1.4542   -3.4917    0.0000 C   0  0  0  0  0  0  0  0  0  0  0  0
    3.2000   -3.5042    0.0000 C   0  0  0  0  0  0  0  0  0  0  0  0
   -1.9833    0.5125    0.0000 C   0  0  0  0  0  0  0  0  0  0  0  0
   -3.3458    1.2833    0.0000 C   0  0  0  0  0  0  0  0  0  0  0  0
    2.3167   -4.0000    0.0000 C   0  0  0  0  0  0  0  0  0  0  0  0
    2.3542   -1.0042    0.0000 O   0  0  0  0  0  0  0  0  0  0  0  0
   -1.1250   -0.9792    0.0000 C   0  0  0  0  0  0  0  0  0  0  0  0
   -4.5208    2.9000    0.0000 C   0  0  0  0  0  0  0  0  0  0  0  0
    4.0542   -4.0042    0.0000 O   0  0  0  0  0  0  0  0  0  0  0  0
   -1.9833   -0.4792    0.0000 C   0  0  0  0  0  0  0  0  0  0  0  0
    3.2292   -0.5167    0.0000 C   0  0  0  0  0  0  0  0  0  0  0  0
    4.9250   -3.5167    0.0000 C   0  0  0  0  0  0  0  0  0  0  0  0
   -4.3458    1.1833    0.0000 C   0  0  0  0  0  0  0  0  0  0  0  0
   -4.9333    1.9958    0.0000 C   0  0  0  0  0  0  0  0  0  0  0  0
  1  2  1  0  0  0  0
  1  3  1  0  0  0  0
  2  4  1  0  0  0  0
  1  5  2  0  0  0  0
  3  6  1  0  0  0  0
  5  7  1  0  0  0  0
  8 10  1  0  0  0  0
  3  9  2  0  0  0  0
 10 12  1  0  0  0  0
  8 11  1  0  0  0  0
  6 12  1  0  0  0  0
  2 13  1  0  0  0  0
 11 14  1  0  0  0  0
  9 15  1  0  0  0  0
 14 16  2  0  0  0  0
 16 17  1  0  0  0  0
  8 18  2  0  0  0  0
 14 19  1  0  0  0  0
 20 23  1  0  0  0  0
  6 21  1  0  0  0  0
  5 22  1  0  0  0  0
 19 23  2  0  0  0  0
 16 24  1  0  0  0  0
 25 28  1  0  0  0  0
  7 26  1  0  0  0  0
 20 27  1  0  0  0  0
 21 28  1  0  0  0  0
 24 29  1  0  0  0  0
 27 30  1  0  0  0  0
 22 31  1  0  0  0  0
 31 32  1  0  0  0  0
  4  7  2  0  0  0  0
 13 15  2  0  0  0  0
 26 32  1  0  0  0  0
 10 25  1  0  0  0  0
 17 20  2  0  0  0  0
M  END
> <MOLFORMULA>
C24 H29 N5 O3

> <MOLWEIGHT>
4.355251000000000e+002

> <IDNUMBER>
AT-687/PE21866

> <PRICE>
EUR 80/10 mg

> <Similarity score>
0.23

$$$$

  -OEChem-04222410502D

 33 37  0     0  0  0  0  0  0999 V2000
    1.2500   -1.0333    0.0000 N   0  0  3  0  0  0  0  0  0  0  0  0
    0.5000   -0.3708    0.0000 C   0  0  0  0  0  0  0  0  0  0  0  0
    2.1125   -0.5208    0.0000 C   0  0  0  0  0  0  0  0  0  0  0  0
   -1.1208    2.2542    0.0000 C   0  0  0  0  0  0  0  0  0  0  0  0
    0.8958    0.5458    0.0000 C   0  0  3  0  0  0  0  0  0  0  0  0
   -0.6333    3.1250    0.0000 C   0  0  0  0  0  0  0  0  0  0  0  0
    1.8917    0.4542    0.0000 C   0  0  0  0  0  0  0  0  0  0  0  0
    0.3875    1.4083    0.0000 N   0  0  3  0  0  0  0  0  0  0  0  0
   -2.1042    2.4500    0.0000 N   0  0  0  0  0  0  0  0  0  0  0  0
   -1.3083    3.8625    0.0000 C   0  0  0  0  0  0  0  0  0  0  0  0
   -2.2208    3.4458    0.0000 C   0  0  0  0  0  0  0  0  0  0  0  0
   -0.6125    1.3958    0.0000 C   0  0  0  0  0  0  0  0  0  0  0  0
    1.1583   -2.0292    0.0000 C   0  0  0  0  0  0  0  0  0  0  0  0
    0.3667    3.1375    0.0000 C   0  0  0  0  0  0  0  0  0  0  0  0
    0.8792   -5.0167    0.0000 C   0  0  0  0  0  0  0  0  0  0  0  0
   -0.4750   -0.5917    0.0000 O   0  0  0  0  0  0  0  0  0  0  0  0
    0.8792    2.2792    0.0000 C   0  0  0  0  0  0  0  0  0  0  0  0
    3.0292   -0.9167    0.0000 O   0  0  0  0  0  0  0  0  0  0  0  0
    0.9708   -4.0208    0.0000 C   0  0  0  0  0  0  0  0  0  0  0  0
   -1.2167    4.8542    0.0000 C   0  0  0  0  0  0  0  0  0  0  0  0
    1.6958   -5.5917    0.0000 O   0  0  0  0  0  0  0  0  0  0  0  0
   -3.0333    4.0208    0.0000 C   0  0  0  0  0  0  0  0  0  0  0  0
    0.2500   -2.4458    0.0000 C   0  0  0  0  0  0  0  0  0  0  0  0
    1.9750   -2.6083    0.0000 C   0  0  0  0  0  0  0  0  0  0  0  0
    0.1583   -3.4417    0.0000 C   0  0  0  0  0  0  0  0  0  0  0  0
    1.8833   -3.6042    0.0000 C   0  0  0  0  0  0  0  0  0  0  0  0
   -2.0333    5.4333    0.0000 C   0  0  0  0  0  0  0  0  0  0  0  0
   -0.0292   -5.4333    0.0000 O   0  0  0  0  0  0  0  0  0  0  0  0
   -2.9417    5.0167    0.0000 C   0  0  0  0  0  0  0  0  0  0  0  0
   -1.9417    6.4292    0.0000 O   0  0  0  0  0  0  0  0  0  0  0  0
   -0.1208   -6.4292    0.0000 C   0  0  0  0  0  0  0  0  0  0  0  0
   -1.0292    6.8458    0.0000 C   0  0  0  0  0  0  0  0  0  0  0  0
   -1.0292   -6.8458    0.0000 C   0  0  0  0  0  0  0  0  0  0  0  0
  1  2  1  0  0  0  0
  1  3  1  0  0  0  0
  4 12  1  0  0  0  0
  2  5  1  0  0  0  0
  6 14  1  0  0  0  0
  3  7  1  0  0  0  0
  5  8  1  0  0  0  0
  4  9  1  0  0  0  0
  6 10  1  0  0  0  0
  9 11  1  0  0  0  0
  8 12  1  0  0  0  0
  1 13  1  0  0  0  0
 14 17  1  0  0  0  0
 15 19  1  0  0  0  0
  2 16  2  0  0  0  0
  8 17  1  0  0  0  0
  3 18  2  0  0  0  0
 19 26  1  0  0  0  0
 10 20  2  0  0  0  0
 15 21  2  0  0  0  0
 11 22  2  0  0  0  0
 13 23  2  0  0  0  0
 13 24  1  0  0  0  0
 23 25  1  0  0  0  0
 24 26  2  0  0  0  0
 20 27  1  0  0  0  0
 15 28  1  0  0  0  0
 22 29  1  0  0  0  0
 27 30  1  0  0  0  0
 28 31  1  0  0  0  0
 30 32  1  0  0  0  0
 31 33  1  0  0  0  0
  5  7  1  0  0  0  0
 19 25  2  0  0  0  0
  4  6  2  0  0  0  0
 10 11  1  0  0  0  0
 27 29  2  0  0  0  0
M  END
> <MOLFORMULA>
C25 H25 N3 O5

> <MOLWEIGHT>
4.474885000000000e+002

> <IDNUMBER>
AN-153/NB21450

> <PRICE>
EUR 130/10 mg

> <Similarity score>
0.22

$$$$

  -OEChem-04222410502D

 33 37  0     0  0  0  0  0  0999 V2000
    4.7125    1.3000    0.0000 C   0  0  0  0  0  0  0  0  0  0  0  0
    2.6042   -2.7792    0.0000 C   0  0  0  0  0  0  0  0  0  0  0  0
    2.9417   -3.5375    0.0000 C   0  0  0  0  0  0  0  0  0  0  0  0
    4.4542    2.0958    0.0000 C   0  0  0  0  0  0  0  0  0  0  0  0
    5.1250    2.5708    0.0000 C   0  0  0  0  0  0  0  0  0  0  0  0
    5.7917    2.0958    0.0000 N   0  0  0  0  0  0  0  0  0  0  0  0
    1.7917   -2.6917    0.0000 N   0  0  0  0  0  0  0  0  0  0  0  0
    5.5375    1.3000    0.0000 N   0  0  0  0  0  0  0  0  0  0  0  0
    4.2250    0.6333    0.0000 C   0  0  0  0  0  0  0  0  0  0  0  0
    3.1000   -2.1167    0.0000 N   0  0  3  0  0  0  0  0  0  0  0  0
    1.6417   -4.1042    0.0000 N   0  0  0  0  0  0  0  0  0  0  0  0
    2.4417   -4.2042    0.0000 C   0  0  0  0  0  0  0  0  0  0  0  0
    5.1250    3.3833    0.0000 C   0  0  0  0  0  0  0  0  0  0  0  0
    1.3042   -3.3542    0.0000 C   0  0  0  0  0  0  0  0  0  0  0  0
    4.5542   -0.1167    0.0000 N   0  0  0  0  0  0  0  0  0  0  0  0
    3.9167   -2.2042    0.0000 C   0  0  0  0  0  0  0  0  0  0  0  0
    5.8292    3.7958    0.0000 C   0  0  0  0  0  0  0  0  0  0  0  0
    2.7625   -1.3542    0.0000 C   0  0  0  0  0  0  0  0  0  0  0  0
    4.4125    3.7958    0.0000 C   0  0  0  0  0  0  0  0  0  0  0  0
    3.4000    0.7250    0.0000 O   0  0  0  0  0  0  0  0  0  0  0  0
    4.0750   -0.7792    0.0000 C   0  0  3  0  0  0  0  0  0  0  0  0
    3.2500   -0.7000    0.0000 C   0  0  0  0  0  0  0  0  0  0  0  0
    4.4042   -1.5375    0.0000 C   0  0  0  0  0  0  0  0  0  0  0  0
    5.8292    4.6167    0.0000 C   0  0  0  0  0  0  0  0  0  0  0  0
    4.4125    4.6167    0.0000 C   0  0  0  0  0  0  0  0  0  0  0  0
    3.7667   -3.6292    0.0000 C   0  0  0  0  0  0  0  0  0  0  0  0
    5.1250    5.0292    0.0000 C   0  0  0  0  0  0  0  0  0  0  0  0
    2.7792   -4.9542    0.0000 C   0  0  0  0  0  0  0  0  0  0  0  0
    0.4875   -3.2625    0.0000 C   0  0  0  0  0  0  0  0  0  0  0  0
    6.5542    3.3833    0.0000 C   0  0  0  0  0  0  0  0  0  0  0  0
    3.6917    5.0292    0.0000 C   0  0  0  0  0  0  0  0  0  0  0  0
    4.0917   -4.3917    0.0000 C   0  0  0  0  0  0  0  0  0  0  0  0
    3.6000   -5.0500    0.0000 C   0  0  0  0  0  0  0  0  0  0  0  0
  2 10  1  0  0  0  0
  2  3  1  0  0  0  0
  1  4  2  0  0  0  0
  4  5  1  0  0  0  0
  6  8  1  0  0  0  0
  2  7  2  0  0  0  0
  1  8  1  0  0  0  0
  1  9  1  0  0  0  0
 10 16  1  0  0  0  0
 11 14  2  0  0  0  0
  3 12  2  0  0  0  0
  5 13  1  0  0  0  0
  7 14  1  0  0  0  0
  9 15  1  0  0  0  0
 16 23  1  0  0  0  0
 13 17  2  0  0  0  0
 18 22  1  0  0  0  0
 13 19  1  0  0  0  0
  9 20  2  0  0  0  0
 15 21  1  0  0  0  0
 21 22  1  0  0  0  0
 21 23  1  0  0  0  0
 17 24  1  0  0  0  0
 19 25  2  0  0  0  0
  3 26  1  0  0  0  0
 25 27  1  0  0  0  0
 12 28  1  0  0  0  0
 14 29  1  0  0  0  0
 17 30  1  0  0  0  0
 25 31  1  0  0  0  0
 26 32  1  0  0  0  0
 32 33  1  0  0  0  0
  5  6  2  0  0  0  0
 10 18  1  0  0  0  0
 24 27  2  0  0  0  0
 11 12  1  0  0  0  0
 28 33  1  0  0  0  0
M  END
> <MOLFORMULA>
C26 H32 N6 O

> <MOLWEIGHT>
4.445798000000000e+002

> <IDNUMBER>
AT-687/SK01688

> <PRICE>
EUR 80/10 mg

> <Similarity score>
0.22

$$$$

  -OEChem-04222410502D

 34 38  0     0  0  0  0  0  0999 V2000
    0.9167   -1.8917    0.0000 N   0  0  3  0  0  0  0  0  0  0  0  0
    0.5083   -0.9750    0.0000 C   0  0  0  0  0  0  0  0  0  0  0  0
    1.9125   -1.7875    0.0000 C   0  0  0  0  0  0  0  0  0  0  0  0
    0.1292    2.0875    0.0000 C   0  0  0  0  0  0  0  0  0  0  0  0
    1.2542   -0.3083    0.0000 C   0  0  3  0  0  0  0  0  0  0  0  0
    0.9375    2.6750    0.0000 C   0  0  0  0  0  0  0  0  0  0  0  0
    2.1167   -0.8083    0.0000 C   0  0  0  0  0  0  0  0  0  0  0  0
    1.1500    0.6875    0.0000 N   0  0  3  0  0  0  0  0  0  0  0  0
    0.4167   -2.7583    0.0000 C   0  0  0  0  0  0  0  0  0  0  0  0
   -0.6792    2.6750    0.0000 N   0  0  0  0  0  0  0  0  0  0  0  0
    0.6292    3.6250    0.0000 C   0  0  0  0  0  0  0  0  0  0  0  0
   -0.3708    3.6250    0.0000 C   0  0  0  0  0  0  0  0  0  0  0  0
    0.2333    1.0917    0.0000 C   0  0  0  0  0  0  0  0  0  0  0  0
   -0.5833   -4.4875    0.0000 C   0  0  0  0  0  0  0  0  0  0  0  0
    0.9167   -3.6208    0.0000 C   0  0  0  0  0  0  0  0  0  0  0  0
   -0.5833   -2.7583    0.0000 C   0  0  0  0  0  0  0  0  0  0  0  0
   -1.0833   -3.6208    0.0000 C   0  0  0  0  0  0  0  0  0  0  0  0
    0.4167   -4.4875    0.0000 C   0  0  0  0  0  0  0  0  0  0  0  0
    1.8542    2.2708    0.0000 C   0  0  0  0  0  0  0  0  0  0  0  0
   -0.4708   -0.7708    0.0000 O   0  0  0  0  0  0  0  0  0  0  0  0
    1.9583    1.2750    0.0000 C   0  0  0  0  0  0  0  0  0  0  0  0
    2.5792   -2.5292    0.0000 O   0  0  0  0  0  0  0  0  0  0  0  0
    1.1292    4.4875    0.0000 C   0  0  0  0  0  0  0  0  0  0  0  0
   -0.8708    4.4875    0.0000 C   0  0  0  0  0  0  0  0  0  0  0  0
    0.6292    5.3542    0.0000 C   0  0  0  0  0  0  0  0  0  0  0  0
   -1.0833   -5.3542    0.0000 O   0  0  0  0  0  0  0  0  0  0  0  0
    0.9167   -5.3542    0.0000 O   0  0  0  0  0  0  0  0  0  0  0  0
   -2.0833   -3.6208    0.0000 O   0  0  0  0  0  0  0  0  0  0  0  0
   -0.3708    5.3542    0.0000 C   0  0  0  0  0  0  0  0  0  0  0  0
    1.1292    6.2208    0.0000 O   0  0  0  0  0  0  0  0  0  0  0  0
   -0.5833   -6.2208    0.0000 C   0  0  0  0  0  0  0  0  0  0  0  0
    1.9167   -5.3542    0.0000 C   0  0  0  0  0  0  0  0  0  0  0  0
   -2.5833   -4.4875    0.0000 C   0  0  0  0  0  0  0  0  0  0  0  0
    2.1292    6.2208    0.0000 C   0  0  0  0  0  0  0  0  0  0  0  0
  1  2  1  0  0  0  0
  1  3  1  0  0  0  0
  4 13  1  0  0  0  0
  2  5  1  0  0  0  0
  6 19  1  0  0  0  0
  3  7  1  0  0  0  0
  5  8  1  0  0  0  0
  1  9  1  0  0  0  0
  4 10  1  0  0  0  0
  6 11  1  0  0  0  0
 10 12  1  0  0  0  0
  8 13  1  0  0  0  0
 14 18  1  0  0  0  0
  9 15  1  0  0  0  0
  9 16  2  0  0  0  0
 16 17  1  0  0  0  0
 15 18  2  0  0  0  0
 19 21  1  0  0  0  0
  2 20  2  0  0  0  0
  8 21  1  0  0  0  0
  3 22  2  0  0  0  0
 11 23  2  0  0  0  0
 12 24  2  0  0  0  0
 23 25  1  0  0  0  0
 14 26  1  0  0  0  0
 18 27  1  0  0  0  0
 17 28  1  0  0  0  0
 24 29  1  0  0  0  0
 25 30  1  0  0  0  0
 26 31  1  0  0  0  0
 27 32  1  0  0  0  0
 28 33  1  0  0  0  0
 30 34  1  0  0  0  0
  5  7  1  0  0  0  0
 14 17  2  0  0  0  0
  4  6  2  0  0  0  0
 11 12  1  0  0  0  0
 25 29  2  0  0  0  0
M  END
> <MOLFORMULA>
C25 H27 N3 O6

> <MOLWEIGHT>
4.655033000000000e+002

> <IDNUMBER>
AN-153/NB21467

> <PRICE>
EUR 130/10 mg

> <Similarity score>
0.22

$$$$

  -OEChem-04222410502D

 30 34  0     0  0  0  0  0  0999 V2000
    0.1667   -1.8917    0.0000 N   0  0  3  0  0  0  0  0  0  0  0  0
   -0.2417   -0.9750    0.0000 C   0  0  0  0  0  0  0  0  0  0  0  0
    1.1625   -1.7875    0.0000 C   0  0  0  0  0  0  0  0  0  0  0  0
   -0.6208    2.0875    0.0000 C   0  0  0  0  0  0  0  0  0  0  0  0
    0.5042   -0.3083    0.0000 C   0  0  3  0  0  0  0  0  0  0  0  0
    0.1875    2.6750    0.0000 C   0  0  0  0  0  0  0  0  0  0  0  0
    1.3667   -0.8083    0.0000 C   0  0  0  0  0  0  0  0  0  0  0  0
    0.3958    0.6875    0.0000 N   0  0  3  0  0  0  0  0  0  0  0  0
   -1.4292    2.6750    0.0000 N   0  0  0  0  0  0  0  0  0  0  0  0
   -0.1208    3.6250    0.0000 C   0  0  0  0  0  0  0  0  0  0  0  0
   -1.1208    3.6250    0.0000 C   0  0  0  0  0  0  0  0  0  0  0  0
   -0.5167    1.0917    0.0000 C   0  0  0  0  0  0  0  0  0  0  0  0
   -0.3333   -2.7583    0.0000 C   0  0  0  0  0  0  0  0  0  0  0  0
    1.1042    2.2708    0.0000 C   0  0  0  0  0  0  0  0  0  0  0  0
   -1.2208   -0.7708    0.0000 O   0  0  0  0  0  0  0  0  0  0  0  0
    1.2083    1.2750    0.0000 C   0  0  0  0  0  0  0  0  0  0  0  0
    1.8292   -2.5292    0.0000 O   0  0  0  0  0  0  0  0  0  0  0  0
    0.3792    4.4875    0.0000 C   0  0  0  0  0  0  0  0  0  0  0  0
   -1.6208    4.4875    0.0000 C   0  0  0  0  0  0  0  0  0  0  0  0
   -1.3333   -2.7583    0.0000 C   0  0  0  0  0  0  0  0  0  0  0  0
    0.1667   -3.6208    0.0000 C   0  0  0  0  0  0  0  0  0  0  0  0
   -0.1208    5.3542    0.0000 C   0  0  0  0  0  0  0  0  0  0  0  0
   -1.3333   -4.4875    0.0000 C   0  0  0  0  0  0  0  0  0  0  0  0
   -1.1208    5.3542    0.0000 C   0  0  0  0  0  0  0  0  0  0  0  0
   -1.8333   -3.6208    0.0000 C   0  0  0  0  0  0  0  0  0  0  0  0
   -0.3333   -4.4875    0.0000 C   0  0  0  0  0  0  0  0  0  0  0  0
    0.3792    6.2208    0.0000 O   0  0  0  0  0  0  0  0  0  0  0  0
   -1.8333   -5.3542    0.0000 O   0  0  0  0  0  0  0  0  0  0  0  0
    1.3792    6.2208    0.0000 C   0  0  0  0  0  0  0  0  0  0  0  0
   -1.3333   -6.2208    0.0000 C   0  0  0  0  0  0  0  0  0  0  0  0
  1  2  1  0  0  0  0
  1  3  1  0  0  0  0
  4 12  1  0  0  0  0
  2  5  1  0  0  0  0
  6 14  1  0  0  0  0
  3  7  1  0  0  0  0
  5  8  1  0  0  0  0
  4  9  1  0  0  0  0
  6 10  1  0  0  0  0
  9 11  1  0  0  0  0
  8 12  1  0  0  0  0
  1 13  1  0  0  0  0
 14 16  1  0  0  0  0
  2 15  2  0  0  0  0
  8 16  1  0  0  0  0
  3 17  2  0  0  0  0
 10 18  2  0  0  0  0
 11 19  2  0  0  0  0
 13 20  1  0  0  0  0
 13 21  2  0  0  0  0
 18 22  1  0  0  0  0
 23 25  1  0  0  0  0
 19 24  1  0  0  0  0
 20 25  2  0  0  0  0
 21 26  1  0  0  0  0
 22 27  1  0  0  0  0
 23 28  1  0  0  0  0
 27 29  1  0  0  0  0
 28 30  1  0  0  0  0
  5  7  1  0  0  0  0
 23 26  2  0  0  0  0
  4  6  2  0  0  0  0
 10 11  1  0  0  0  0
 22 24  2  0  0  0  0
M  END
> <MOLFORMULA>
C23 H23 N3 O4

> <MOLWEIGHT>
4.054517000000000e+002

> <IDNUMBER>
AN-153/NB21448

> <PRICE>
EUR 130/10 mg

> <Similarity score>
0.22

$$$$

  -OEChem-04222410502D

 32 36  0     0  0  0  0  0  0999 V2000
   -1.1250    3.2583    0.0000 C   0  0  0  0  0  0  0  0  0  0  0  0
   -1.1250    4.2417    0.0000 N   0  0  3  0  0  0  0  0  0  0  0  0
   -0.2708    2.7583    0.0000 C   0  0  0  0  0  0  0  0  0  0  0  0
   -2.0875    4.5542    0.0000 N   0  0  0  0  0  0  0  0  0  0  0  0
   -2.0875    2.9458    0.0000 C   0  0  0  0  0  0  0  0  0  0  0  0
   -0.2708    1.7583    0.0000 N   0  0  3  0  0  0  0  0  0  0  0  0
   -2.6708    3.7583    0.0000 C   0  0  0  0  0  0  0  0  0  0  0  0
    1.4625   -0.2417    0.0000 C   0  0  0  0  0  0  0  0  0  0  0  0
    0.6042    3.2583    0.0000 N   0  0  0  0  0  0  0  0  0  0  0  0
    0.5917    0.2500    0.0000 C   0  0  3  0  0  0  0  0  0  0  0  0
    1.4625   -1.2417    0.0000 N   0  0  0  0  0  0  0  0  0  0  0  0
    2.3167   -1.7500    0.0000 C   0  0  0  0  0  0  0  0  0  0  0  0
    0.6042    1.2583    0.0000 C   0  0  0  0  0  0  0  0  0  0  0  0
   -0.2708    4.7542    0.0000 C   0  0  0  0  0  0  0  0  0  0  0  0
    0.6042    4.2417    0.0000 C   0  0  0  0  0  0  0  0  0  0  0  0
    2.3125   -2.7500    0.0000 C   0  0  0  0  0  0  0  0  0  0  0  0
    3.1917   -1.2542    0.0000 C   0  0  0  0  0  0  0  0  0  0  0  0
    2.3292    0.2500    0.0000 O   0  0  0  0  0  0  0  0  0  0  0  0
    4.0542   -1.7542    0.0000 C   0  0  0  0  0  0  0  0  0  0  0  0
    3.1792   -3.2542    0.0000 C   0  0  0  0  0  0  0  0  0  0  0  0
   -1.1250    1.2583    0.0000 C   0  0  0  0  0  0  0  0  0  0  0  0
   -2.4875    2.0333    0.0000 C   0  0  0  0  0  0  0  0  0  0  0  0
    4.0542   -2.7542    0.0000 C   0  0  0  0  0  0  0  0  0  0  0  0
   -0.2708   -0.2375    0.0000 C   0  0  0  0  0  0  0  0  0  0  0  0
    3.2042   -0.2625    0.0000 O   0  0  0  0  0  0  0  0  0  0  0  0
   -3.6708    3.6500    0.0000 C   0  0  0  0  0  0  0  0  0  0  0  0
    3.1667   -4.2542    0.0000 O   0  0  0  0  0  0  0  0  0  0  0  0
   -1.1333    0.2708    0.0000 C   0  0  0  0  0  0  0  0  0  0  0  0
    4.0750    0.2333    0.0000 C   0  0  0  0  0  0  0  0  0  0  0  0
    4.0250   -4.7542    0.0000 C   0  0  0  0  0  0  0  0  0  0  0  0
   -3.4875    1.9250    0.0000 C   0  0  0  0  0  0  0  0  0  0  0  0
   -4.0833    2.7333    0.0000 C   0  0  0  0  0  0  0  0  0  0  0  0
  1  2  1  0  0  0  0
  1  3  1  0  0  0  0
  2  4  1  0  0  0  0
  1  5  2  0  0  0  0
  3  6  1  0  0  0  0
  5  7  1  0  0  0  0
  8 10  1  0  0  0  0
  3  9  2  0  0  0  0
 10 13  1  0  0  0  0
  8 11  1  0  0  0  0
 11 12  1  0  0  0  0
  6 13  1  0  0  0  0
  2 14  1  0  0  0  0
  9 15  1  0  0  0  0
 12 16  1  0  0  0  0
 12 17  2  0  0  0  0
  8 18  2  0  0  0  0
 17 19  1  0  0  0  0
 16 20  2  0  0  0  0
  6 21  1  0  0  0  0
  5 22  1  0  0  0  0
 19 23  2  0  0  0  0
 24 28  1  0  0  0  0
 17 25  1  0  0  0  0
  7 26  1  0  0  0  0
 20 27  1  0  0  0  0
 21 28  1  0  0  0  0
 25 29  1  0  0  0  0
 27 30  1  0  0  0  0
 22 31  1  0  0  0  0
 31 32  1  0  0  0  0
  4  7  2  0  0  0  0
 14 15  2  0  0  0  0
 26 32  1  0  0  0  0
 10 24  1  0  0  0  0
 20 23  1  0  0  0  0
M  END
> <MOLFORMULA>
C24 H29 N5 O3

> <MOLWEIGHT>
4.355251000000000e+002

> <IDNUMBER>
AT-687/PE21867

> <PRICE>
EUR 80/10 mg

> <Similarity score>
0.22

$$$$

  -OEChem-04222410502D

 31 35  0     0  0  0  0  0  0999 V2000
    0.6667   -1.8917    0.0000 N   0  0  3  0  0  0  0  0  0  0  0  0
    0.2583   -0.9750    0.0000 C   0  0  0  0  0  0  0  0  0  0  0  0
    1.6625   -1.7875    0.0000 C   0  0  0  0  0  0  0  0  0  0  0  0
   -0.1208    2.0875    0.0000 C   0  0  0  0  0  0  0  0  0  0  0  0
    1.0042   -0.3083    0.0000 C   0  0  3  0  0  0  0  0  0  0  0  0
    0.6875    2.6750    0.0000 C   0  0  0  0  0  0  0  0  0  0  0  0
    1.8667   -0.8083    0.0000 C   0  0  0  0  0  0  0  0  0  0  0  0
    0.9000    0.6875    0.0000 N   0  0  3  0  0  0  0  0  0  0  0  0
   -0.9292    2.6750    0.0000 N   0  0  0  0  0  0  0  0  0  0  0  0
    0.3792    3.6250    0.0000 C   0  0  0  0  0  0  0  0  0  0  0  0
   -0.6208    3.6250    0.0000 C   0  0  0  0  0  0  0  0  0  0  0  0
   -0.0167    1.0917    0.0000 C   0  0  0  0  0  0  0  0  0  0  0  0
    0.1667   -2.7583    0.0000 C   0  0  0  0  0  0  0  0  0  0  0  0
    1.6042    2.2708    0.0000 C   0  0  0  0  0  0  0  0  0  0  0  0
   -0.7208   -0.7708    0.0000 O   0  0  0  0  0  0  0  0  0  0  0  0
    1.7083    1.2750    0.0000 C   0  0  0  0  0  0  0  0  0  0  0  0
    2.3292   -2.5292    0.0000 O   0  0  0  0  0  0  0  0  0  0  0  0
    0.8792    4.4875    0.0000 C   0  0  0  0  0  0  0  0  0  0  0  0
   -0.8333   -4.4875    0.0000 C   0  0  0  0  0  0  0  0  0  0  0  0
   -1.3333   -5.3542    0.0000 C   0  0  0  0  0  0  0  0  0  0  0  0
   -1.1208    4.4875    0.0000 C   0  0  0  0  0  0  0  0  0  0  0  0
    0.6667   -3.6208    0.0000 C   0  0  0  0  0  0  0  0  0  0  0  0
   -0.8333   -2.7583    0.0000 C   0  0  0  0  0  0  0  0  0  0  0  0
   -2.3333   -5.3542    0.0000 O   0  0  0  0  0  0  0  0  0  0  0  0
    0.1667   -4.4875    0.0000 C   0  0  0  0  0  0  0  0  0  0  0  0
   -1.3333   -3.6208    0.0000 C   0  0  0  0  0  0  0  0  0  0  0  0
    0.3792    5.3542    0.0000 C   0  0  0  0  0  0  0  0  0  0  0  0
   -0.6208    5.3542    0.0000 C   0  0  0  0  0  0  0  0  0  0  0  0
    0.8792    6.2208    0.0000 O   0  0  0  0  0  0  0  0  0  0  0  0
   -0.8333   -6.2208    0.0000 C   0  0  0  0  0  0  0  0  0  0  0  0
    1.8792    6.2208    0.0000 C   0  0  0  0  0  0  0  0  0  0  0  0
  1  2  1  0  0  0  0
  1  3  1  0  0  0  0
  4 12  1  0  0  0  0
  2  5  1  0  0  0  0
  6 14  1  0  0  0  0
  3  7  1  0  0  0  0
  5  8  1  0  0  0  0
  4  9  1  0  0  0  0
  6 10  1  0  0  0  0
  9 11  1  0  0  0  0
  8 12  1  0  0  0  0
  1 13  1  0  0  0  0
 14 16  1  0  0  0  0
  2 15  2  0  0  0  0
  8 16  1  0  0  0  0
  3 17  2  0  0  0  0
 10 18  2  0  0  0  0
 19 25  2  0  0  0  0
 19 20  1  0  0  0  0
 11 21  2  0  0  0  0
 13 22  2  0  0  0  0
 13 23  1  0  0  0  0
 20 24  2  0  0  0  0
 22 25  1  0  0  0  0
 23 26  2  0  0  0  0
 18 27  1  0  0  0  0
 21 28  1  0  0  0  0
 27 29  1  0  0  0  0
 20 30  1  0  0  0  0
 29 31  1  0  0  0  0
  5  7  1  0  0  0  0
 19 26  1  0  0  0  0
  4  6  2  0  0  0  0
 10 11  1  0  0  0  0
 27 28  2  0  0  0  0
M  END
> <MOLFORMULA>
C24 H23 N3 O4

> <MOLWEIGHT>
4.174627000000000e+002

> <IDNUMBER>
AN-153/NB21449

> <PRICE>
EUR 130/10 mg

> <Similarity score>
0.22

$$$$

  -OEChem-04222410502D

 33 37  0     0  0  0  0  0  0999 V2000
   -1.9708    3.2458    0.0000 C   0  0  0  0  0  0  0  0  0  0  0  0
   -1.9708    4.2417    0.0000 N   0  0  3  0  0  0  0  0  0  0  0  0
   -1.1208    2.7500    0.0000 C   0  0  0  0  0  0  0  0  0  0  0  0
   -2.9375    4.5542    0.0000 N   0  0  0  0  0  0  0  0  0  0  0  0
   -2.9375    2.9375    0.0000 C   0  0  0  0  0  0  0  0  0  0  0  0
   -1.1208    1.7458    0.0000 N   0  0  3  0  0  0  0  0  0  0  0  0
   -3.5208    3.7458    0.0000 C   0  0  0  0  0  0  0  0  0  0  0  0
   -0.2500    3.2458    0.0000 N   0  0  0  0  0  0  0  0  0  0  0  0
   -0.2500    0.2500    0.0000 C   0  0  3  0  0  0  0  0  0  0  0  0
    0.6167   -0.2625    0.0000 C   0  0  0  0  0  0  0  0  0  0  0  0
   -1.1208    4.7542    0.0000 C   0  0  0  0  0  0  0  0  0  0  0  0
   -0.2500    1.2583    0.0000 C   0  0  0  0  0  0  0  0  0  0  0  0
   -0.2500    4.2417    0.0000 C   0  0  0  0  0  0  0  0  0  0  0  0
    1.4792    0.2375    0.0000 N   0  0  0  0  0  0  0  0  0  0  0  0
    3.1875   -2.7542    0.0000 C   0  0  0  0  0  0  0  0  0  0  0  0
    2.3125   -3.2417    0.0000 C   0  0  0  0  0  0  0  0  0  0  0  0
    0.6167   -1.2542    0.0000 O   0  0  0  0  0  0  0  0  0  0  0  0
    3.1875   -1.7667    0.0000 C   0  0  0  0  0  0  0  0  0  0  0  0
    1.4542   -2.7375    0.0000 C   0  0  0  0  0  0  0  0  0  0  0  0
    2.3417   -1.2500    0.0000 C   0  0  0  0  0  0  0  0  0  0  0  0
    2.3500   -0.2625    0.0000 C   0  0  0  0  0  0  0  0  0  0  0  0
   -1.9708    1.2583    0.0000 C   0  0  0  0  0  0  0  0  0  0  0  0
   -3.3458    2.0208    0.0000 C   0  0  0  0  0  0  0  0  0  0  0  0
    1.4667   -1.7292    0.0000 C   0  0  0  0  0  0  0  0  0  0  0  0
    4.0417   -3.2667    0.0000 O   0  0  0  0  0  0  0  0  0  0  0  0
   -1.1208   -0.2542    0.0000 C   0  0  0  0  0  0  0  0  0  0  0  0
    2.3042   -4.2417    0.0000 O   0  0  0  0  0  0  0  0  0  0  0  0
   -4.5208    3.6458    0.0000 C   0  0  0  0  0  0  0  0  0  0  0  0
   -1.9833    0.2583    0.0000 C   0  0  0  0  0  0  0  0  0  0  0  0
    4.9167   -2.7750    0.0000 C   0  0  0  0  0  0  0  0  0  0  0  0
    3.1667   -4.7542    0.0000 C   0  0  0  0  0  0  0  0  0  0  0  0
   -4.3333    1.9208    0.0000 C   0  0  0  0  0  0  0  0  0  0  0  0
   -4.9250    2.7333    0.0000 C   0  0  0  0  0  0  0  0  0  0  0  0
  1  2  1  0  0  0  0
  1  3  1  0  0  0  0
  2  4  1  0  0  0  0
  1  5  2  0  0  0  0
  3  6  1  0  0  0  0
  5  7  1  0  0  0  0
  3  8  2  0  0  0  0
  9 12  1  0  0  0  0
  9 10  1  0  0  0  0
  2 11  1  0  0  0  0
  6 12  1  0  0  0  0
  8 13  1  0  0  0  0
 10 14  1  0  0  0  0
 15 18  1  0  0  0  0
 16 19  1  0  0  0  0
 10 17  2  0  0  0  0
 18 20  2  0  0  0  0
 19 24  2  0  0  0  0
 20 21  1  0  0  0  0
 14 21  1  0  0  0  0
  6 22  1  0  0  0  0
  5 23  1  0  0  0  0
 20 24  1  0  0  0  0
 15 25  1  0  0  0  0
 26 29  1  0  0  0  0
 16 27  1  0  0  0  0
  7 28  1  0  0  0  0
 22 29  1  0  0  0  0
 25 30  1  0  0  0  0
 27 31  1  0  0  0  0
 23 32  1  0  0  0  0
 32 33  1  0  0  0  0
  4  7  2  0  0  0  0
 11 13  2  0  0  0  0
 28 33  1  0  0  0  0
  9 26  1  0  0  0  0
 15 16  2  0  0  0  0
M  END
> <MOLFORMULA>
C25 H31 N5 O3

> <MOLWEIGHT>
4.495519000000000e+002

> <IDNUMBER>
AT-687/PE21889

> <PRICE>
EUR 80/10 mg

> <Similarity score>
0.22

$$$$

  -OEChem-04222410502D

 30 34  0     0  0  0  0  0  0999 V2000
    0.9167   -2.7583    0.0000 N   0  0  3  0  0  0  0  0  0  0  0  0
    0.5083   -1.8417    0.0000 C   0  0  0  0  0  0  0  0  0  0  0  0
    0.1292    1.2208    0.0000 C   0  0  0  0  0  0  0  0  0  0  0  0
    1.9125   -2.6500    0.0000 C   0  0  0  0  0  0  0  0  0  0  0  0
    1.2542   -1.1750    0.0000 C   0  0  3  0  0  0  0  0  0  0  0  0
    0.9375    1.8083    0.0000 C   0  0  0  0  0  0  0  0  0  0  0  0
    1.1500   -0.1792    0.0000 N   0  0  3  0  0  0  0  0  0  0  0  0
    2.1167   -1.6750    0.0000 C   0  0  0  0  0  0  0  0  0  0  0  0
   -0.6792    1.8083    0.0000 N   0  0  0  0  0  0  0  0  0  0  0  0
    0.6292    2.7625    0.0000 C   0  0  0  0  0  0  0  0  0  0  0  0
   -0.3708    2.7625    0.0000 C   0  0  0  0  0  0  0  0  0  0  0  0
    0.2333    0.2292    0.0000 C   0  0  0  0  0  0  0  0  0  0  0  0
    0.4167   -3.6208    0.0000 C   0  0  0  0  0  0  0  0  0  0  0  0
    1.8542    1.4042    0.0000 C   0  0  0  0  0  0  0  0  0  0  0  0
    1.9583    0.4083    0.0000 C   0  0  0  0  0  0  0  0  0  0  0  0
   -0.4708   -1.6333    0.0000 O   0  0  0  0  0  0  0  0  0  0  0  0
    2.5792   -3.3958    0.0000 O   0  0  0  0  0  0  0  0  0  0  0  0
    1.1292    3.6250    0.0000 C   0  0  0  0  0  0  0  0  0  0  0  0
   -0.8708    3.6250    0.0000 C   0  0  0  0  0  0  0  0  0  0  0  0
    0.6292    4.4875    0.0000 C   0  0  0  0  0  0  0  0  0  0  0  0
   -0.5833   -3.6208    0.0000 C   0  0  0  0  0  0  0  0  0  0  0  0
   -0.3708    4.4875    0.0000 C   0  0  0  0  0  0  0  0  0  0  0  0
   -1.0833   -4.4875    0.0000 C   0  0  0  0  0  0  0  0  0  0  0  0
    1.1292    5.3542    0.0000 O   0  0  0  0  0  0  0  0  0  0  0  0
   -2.0833   -4.4875    0.0000 C   0  0  0  0  0  0  0  0  0  0  0  0
   -0.5833   -5.3542    0.0000 C   0  0  0  0  0  0  0  0  0  0  0  0
    0.6292    6.2208    0.0000 C   0  0  0  0  0  0  0  0  0  0  0  0
   -1.0833   -6.2208    0.0000 C   0  0  0  0  0  0  0  0  0  0  0  0
   -2.5833   -5.3542    0.0000 C   0  0  0  0  0  0  0  0  0  0  0  0
   -2.0833   -6.2208    0.0000 C   0  0  0  0  0  0  0  0  0  0  0  0
  1  2  1  0  0  0  0
  3 12  1  0  0  0  0
  1  4  1  0  0  0  0
  2  5  1  0  0  0  0
  6 14  1  0  0  0  0
  5  7  1  0  0  0  0
  4  8  1  0  0  0  0
  3  9  1  0  0  0  0
  6 10  1  0  0  0  0
  9 11  1  0  0  0  0
  7 12  1  0  0  0  0
  1 13  1  0  0  0  0
 14 15  1  0  0  0  0
  7 15  1  0  0  0  0
  2 16  2  0  0  0  0
  4 17  2  0  0  0  0
 10 18  2  0  0  0  0
 11 19  2  0  0  0  0
 18 20  1  0  0  0  0
 13 21  1  0  0  0  0
 19 22  1  0  0  0  0
 21 23  1  0  0  0  0
 20 24  1  0  0  0  0
 23 25  2  0  0  0  0
 23 26  1  0  0  0  0
 24 27  1  0  0  0  0
 26 28  2  0  0  0  0
 25 29  1  0  0  0  0
 29 30  2  0  0  0  0
  5  8  1  0  0  0  0
 28 30  1  0  0  0  0
  3  6  2  0  0  0  0
 10 11  1  0  0  0  0
 20 22  2  0  0  0  0
M  END
> <MOLFORMULA>
C24 H25 N3 O3

> <MOLWEIGHT>
4.034795000000000e+002

> <IDNUMBER>
AN-153/NB21466

> <PRICE>
EUR 130/10 mg

> <Similarity score>
0.22

$$$$

  -OEChem-04222410502D

 31 35  0     0  0  0  0  0  0999 V2000
    0.6667   -1.8917    0.0000 N   0  0  3  0  0  0  0  0  0  0  0  0
    0.2583   -0.9750    0.0000 C   0  0  0  0  0  0  0  0  0  0  0  0
    1.6625   -1.7875    0.0000 C   0  0  0  0  0  0  0  0  0  0  0  0
   -0.1208    2.0875    0.0000 C   0  0  0  0  0  0  0  0  0  0  0  0
    1.0042   -0.3083    0.0000 C   0  0  3  0  0  0  0  0  0  0  0  0
    0.6875    2.6750    0.0000 C   0  0  0  0  0  0  0  0  0  0  0  0
    1.8667   -0.8083    0.0000 C   0  0  0  0  0  0  0  0  0  0  0  0
    0.9000    0.6875    0.0000 N   0  0  3  0  0  0  0  0  0  0  0  0
   -0.9292    2.6750    0.0000 N   0  0  0  0  0  0  0  0  0  0  0  0
    0.3792    3.6250    0.0000 C   0  0  0  0  0  0  0  0  0  0  0  0
   -0.6208    3.6250    0.0000 C   0  0  0  0  0  0  0  0  0  0  0  0
   -0.0167    1.0917    0.0000 C   0  0  0  0  0  0  0  0  0  0  0  0
    0.1667   -2.7583    0.0000 C   0  0  0  0  0  0  0  0  0  0  0  0
    1.6042    2.2708    0.0000 C   0  0  0  0  0  0  0  0  0  0  0  0
   -0.7167   -0.7708    0.0000 O   0  0  0  0  0  0  0  0  0  0  0  0
    1.7083    1.2750    0.0000 C   0  0  0  0  0  0  0  0  0  0  0  0
    2.3292   -2.5292    0.0000 O   0  0  0  0  0  0  0  0  0  0  0  0
    0.8792    4.4875    0.0000 C   0  0  0  0  0  0  0  0  0  0  0  0
   -0.8333   -4.4875    0.0000 C   0  0  0  0  0  0  0  0  0  0  0  0
   -1.1208    4.4875    0.0000 C   0  0  0  0  0  0  0  0  0  0  0  0
    0.6667   -3.6208    0.0000 C   0  0  0  0  0  0  0  0  0  0  0  0
   -0.8333   -2.7583    0.0000 C   0  0  0  0  0  0  0  0  0  0  0  0
   -1.3333   -3.6208    0.0000 C   0  0  0  0  0  0  0  0  0  0  0  0
    0.1667   -4.4875    0.0000 C   0  0  0  0  0  0  0  0  0  0  0  0
    0.3792    5.3542    0.0000 C   0  0  0  0  0  0  0  0  0  0  0  0
   -1.3333   -5.3542    0.0000 C   0  0  3  0  0  0  0  0  0  0  0  0
   -0.6208    5.3542    0.0000 C   0  0  0  0  0  0  0  0  0  0  0  0
    0.8792    6.2208    0.0000 O   0  0  0  0  0  0  0  0  0  0  0  0
   -0.8333   -6.2208    0.0000 C   0  0  0  0  0  0  0  0  0  0  0  0
   -2.3333   -5.3542    0.0000 C   0  0  0  0  0  0  0  0  0  0  0  0
    1.8792    6.2208    0.0000 C   0  0  0  0  0  0  0  0  0  0  0  0
  1  2  1  0  0  0  0
  1  3  1  0  0  0  0
  4 12  1  0  0  0  0
  2  5  1  0  0  0  0
  6 14  1  0  0  0  0
  3  7  1  0  0  0  0
  5  8  1  0  0  0  0
  4  9  1  0  0  0  0
  6 10  1  0  0  0  0
  9 11  1  0  0  0  0
  8 12  1  0  0  0  0
  1 13  1  0  0  0  0
 14 16  1  0  0  0  0
  2 15  2  0  0  0  0
  8 16  1  0  0  0  0
  3 17  2  0  0  0  0
 10 18  2  0  0  0  0
 19 24  1  0  0  0  0
 11 20  2  0  0  0  0
 13 21  1  0  0  0  0
 13 22  2  0  0  0  0
 22 23  1  0  0  0  0
 21 24  2  0  0  0  0
 18 25  1  0  0  0  0
 19 26  1  0  0  0  0
 20 27  1  0  0  0  0
 25 28  1  0  0  0  0
 26 29  1  0  0  0  0
 26 30  1  0  0  0  0
 28 31  1  0  0  0  0
  5  7  1  0  0  0  0
 19 23  2  0  0  0  0
  4  6  2  0  0  0  0
 10 11  1  0  0  0  0
 25 27  2  0  0  0  0
M  END
> <MOLFORMULA>
C25 H27 N3 O3

> <MOLWEIGHT>
4.175063000000000e+002

> <IDNUMBER>
AN-153/NB21446

> <PRICE>
EUR 130/10 mg

> <Similarity score>
0.22

$$$$

  -OEChem-04222410502D

 28 32  0     0  0  0  0  0  0999 V2000
    0.6667   -1.8917    0.0000 N   0  0  3  0  0  0  0  0  0  0  0  0
    0.2583   -0.9750    0.0000 C   0  0  0  0  0  0  0  0  0  0  0  0
    1.6625   -1.7875    0.0000 C   0  0  0  0  0  0  0  0  0  0  0  0
   -0.1208    2.0875    0.0000 C   0  0  0  0  0  0  0  0  0  0  0  0
    1.0042   -0.3083    0.0000 C   0  0  3  0  0  0  0  0  0  0  0  0
    1.8667   -0.8083    0.0000 C   0  0  0  0  0  0  0  0  0  0  0  0
    0.6875    2.6750    0.0000 C   0  0  0  0  0  0  0  0  0  0  0  0
    0.8958    0.6875    0.0000 N   0  0  3  0  0  0  0  0  0  0  0  0
   -0.9292    2.6750    0.0000 N   0  0  0  0  0  0  0  0  0  0  0  0
    0.1667   -2.7583    0.0000 C   0  0  0  0  0  0  0  0  0  0  0  0
    0.3792    3.6250    0.0000 C   0  0  0  0  0  0  0  0  0  0  0  0
   -0.6208    3.6250    0.0000 C   0  0  0  0  0  0  0  0  0  0  0  0
   -0.0167    1.0917    0.0000 C   0  0  0  0  0  0  0  0  0  0  0  0
   -0.8333   -2.7583    0.0000 C   0  0  0  0  0  0  0  0  0  0  0  0
    1.6042    2.2708    0.0000 C   0  0  0  0  0  0  0  0  0  0  0  0
   -1.3333   -3.6208    0.0000 C   0  0  0  0  0  0  0  0  0  0  0  0
   -0.7167   -0.7708    0.0000 O   0  0  0  0  0  0  0  0  0  0  0  0
    1.7083    1.2750    0.0000 C   0  0  0  0  0  0  0  0  0  0  0  0
    2.3292   -2.5292    0.0000 O   0  0  0  0  0  0  0  0  0  0  0  0
    0.6667   -3.6208    0.0000 C   0  0  0  0  0  0  0  0  0  0  0  0
   -0.8333   -4.4875    0.0000 C   0  0  0  0  0  0  0  0  0  0  0  0
    0.1667   -4.4875    0.0000 C   0  0  0  0  0  0  0  0  0  0  0  0
   -2.3333   -3.6208    0.0000 Cl  0  0  0  0  0  0  0  0  0  0  0  0
   -1.3333   -5.3542    0.0000 F   0  0  0  0  0  0  0  0  0  0  0  0
    0.8792    4.4875    0.0000 C   0  0  0  0  0  0  0  0  0  0  0  0
   -1.1208    4.4875    0.0000 C   0  0  0  0  0  0  0  0  0  0  0  0
    0.3792    5.3542    0.0000 C   0  0  0  0  0  0  0  0  0  0  0  0
   -0.6208    5.3542    0.0000 C   0  0  0  0  0  0  0  0  0  0  0  0
  1  2  1  0  0  0  0
  1  3  1  0  0  0  0
  4 13  1  0  0  0  0
  2  5  1  0  0  0  0
  3  6  1  0  0  0  0
  7 15  1  0  0  0  0
  5  8  1  0  0  0  0
  4  9  1  0  0  0  0
  1 10  1  0  0  0  0
  7 11  1  0  0  0  0
  9 12  1  0  0  0  0
  8 13  1  0  0  0  0
 10 14  2  0  0  0  0
 15 18  1  0  0  0  0
 14 16  1  0  0  0  0
  2 17  2  0  0  0  0
  8 18  1  0  0  0  0
  3 19  2  0  0  0  0
 10 20  1  0  0  0  0
 21 22  1  0  0  0  0
 20 22  2  0  0  0  0
 16 23  1  0  0  0  0
 21 24  1  0  0  0  0
 11 25  2  0  0  0  0
 12 26  2  0  0  0  0
 25 27  1  0  0  0  0
 26 28  1  0  0  0  0
  5  6  1  0  0  0  0
 16 21  2  0  0  0  0
  4  7  2  0  0  0  0
 11 12  1  0  0  0  0
 27 28  2  0  0  0  0
M  END
> <MOLFORMULA>
C21 H17 Cl F N3 O2

> <MOLWEIGHT>
3.978353000000000e+002

> <IDNUMBER>
AN-153/NB21438

> <PRICE>
EUR 130/10 mg

> <Similarity score>
0.22

$$$$

  -OEChem-04222410502D

 28 31  0     0  0  0  0  0  0999 V2000
    5.4167    1.3000    0.0000 C   0  0  0  0  0  0  0  0  0  0  0  0
    5.4167    2.1333    0.0000 C   0  0  0  0  0  0  0  0  0  0  0  0
    6.1417    0.8875    0.0000 N   0  0  0  0  0  0  0  0  0  0  0  0
    2.5667   -1.1750    0.0000 C   0  0  0  0  0  0  0  0  0  0  0  0
    4.7125    0.8875    0.0000 N   0  0  3  0  0  0  0  0  0  0  0  0
    1.8542   -1.5875    0.0000 C   0  0  0  0  0  0  0  0  0  0  0  0
    6.8542    2.1333    0.0000 N   0  0  0  0  0  0  0  0  0  0  0  0
    6.1417    2.5458    0.0000 C   0  0  0  0  0  0  0  0  0  0  0  0
    6.8542    1.3000    0.0000 C   0  0  0  0  0  0  0  0  0  0  0  0
    2.5667   -0.3500    0.0000 N   0  0  0  0  0  0  0  0  0  0  0  0
    3.2792   -1.5875    0.0000 O   0  0  0  0  0  0  0  0  0  0  0  0
    1.8542   -2.4125    0.0000 C   0  0  0  0  0  0  0  0  0  0  0  0
    4.7125    0.0625    0.0000 C   0  0  0  0  0  0  0  0  0  0  0  0
    3.9917    1.3000    0.0000 C   0  0  0  0  0  0  0  0  0  0  0  0
    3.2792    0.0625    0.0000 C   0  0  3  0  0  0  0  0  0  0  0  0
    3.2792    0.8875    0.0000 C   0  0  0  0  0  0  0  0  0  0  0  0
    3.9917   -0.3500    0.0000 C   0  0  0  0  0  0  0  0  0  0  0  0
    4.7125    2.5458    0.0000 C   0  0  0  0  0  0  0  0  0  0  0  0
    1.1375   -1.1750    0.0000 C   0  0  0  0  0  0  0  0  0  0  0  0
    2.5667   -2.8250    0.0000 O   0  0  0  0  0  0  0  0  0  0  0  0
    6.1417    3.3583    0.0000 C   0  0  0  0  0  0  0  0  0  0  0  0
    7.5667    0.8875    0.0000 C   0  0  0  0  0  0  0  0  0  0  0  0
    1.1375   -2.8250    0.0000 C   0  0  0  0  0  0  0  0  0  0  0  0
    2.5625   -3.6500    0.0000 C   0  0  0  0  0  0  0  0  0  0  0  0
    4.7167    3.3625    0.0000 C   0  0  0  0  0  0  0  0  0  0  0  0
    0.4250   -1.5875    0.0000 C   0  0  0  0  0  0  0  0  0  0  0  0
    5.4375    3.7708    0.0000 C   0  0  0  0  0  0  0  0  0  0  0  0
    0.4250   -2.4125    0.0000 C   0  0  0  0  0  0  0  0  0  0  0  0
  1  2  1  0  0  0  0
  1  3  2  0  0  0  0
  4 10  1  0  0  0  0
  1  5  1  0  0  0  0
  4  6  1  0  0  0  0
  7  9  2  0  0  0  0
  2  8  2  0  0  0  0
  3  9  1  0  0  0  0
 10 15  1  0  0  0  0
  4 11  2  0  0  0  0
  6 12  2  0  0  0  0
  5 13  1  0  0  0  0
  5 14  1  0  0  0  0
 15 16  1  0  0  0  0
 14 16  1  0  0  0  0
 13 17  1  0  0  0  0
  2 18  1  0  0  0  0
  6 19  1  0  0  0  0
 12 20  1  0  0  0  0
  8 21  1  0  0  0  0
  9 22  1  0  0  0  0
 12 23  1  0  0  0  0
 20 24  1  0  0  0  0
 18 25  1  0  0  0  0
 19 26  2  0  0  0  0
 25 27  1  0  0  0  0
 26 28  1  0  0  0  0
  7  8  1  0  0  0  0
 15 17  1  0  0  0  0
 21 27  1  0  0  0  0
 23 28  2  0  0  0  0
M  END
> <MOLFORMULA>
C22 H28 N4 O2

> <MOLWEIGHT>
3.804892000000000e+002

> <IDNUMBER>
AT-687/SK01685

> <PRICE>
EUR 80/10 mg

> <Similarity score>
0.22

$$$$

  -OEChem-04222410502D

 28 31  0     0  0  0  0  0  0999 V2000
    2.8500   -1.4167    0.0000 C   0  0  0  0  0  0  0  0  0  0  0  0
    2.0250   -1.4167    0.0000 C   0  0  0  0  0  0  0  0  0  0  0  0
    3.2625   -2.1417    0.0000 N   0  0  0  0  0  0  0  0  0  0  0  0
    3.2625   -0.7042    0.0000 N   0  0  3  0  0  0  0  0  0  0  0  0
    2.0167   -2.8417    0.0000 N   0  0  0  0  0  0  0  0  0  0  0  0
    1.6125   -2.1375    0.0000 C   0  0  0  0  0  0  0  0  0  0  0  0
    5.3292    1.4333    0.0000 C   0  0  0  0  0  0  0  0  0  0  0  0
    2.8417   -2.8417    0.0000 C   0  0  0  0  0  0  0  0  0  0  0  0
    8.6292    2.8583    0.0000 N   0  0  0  0  0  0  0  0  0  0  0  0
    4.5042    1.4333    0.0000 N   0  0  0  0  0  0  0  0  0  0  0  0
    5.7417    2.1458    0.0000 C   0  0  0  0  0  0  0  0  0  0  0  0
    7.8042    2.8583    0.0000 C   0  0  0  0  0  0  0  0  0  0  0  0
    4.0875   -0.7125    0.0000 C   0  0  0  0  0  0  0  0  0  0  0  0
    2.8542    0.0083    0.0000 C   0  0  0  0  0  0  0  0  0  0  0  0
    5.7417    0.7250    0.0000 O   0  0  0  0  0  0  0  0  0  0  0  0
    6.5750    2.1458    0.0000 C   0  0  0  0  0  0  0  0  0  0  0  0
    4.0917    0.7125    0.0000 C   0  0  3  0  0  0  0  0  0  0  0  0
    3.2667    0.7250    0.0000 C   0  0  0  0  0  0  0  0  0  0  0  0
    4.5042    0.0083    0.0000 C   0  0  0  0  0  0  0  0  0  0  0  0
    6.9792    2.8583    0.0000 C   0  0  0  0  0  0  0  0  0  0  0  0
    1.6042   -0.7042    0.0000 C   0  0  0  0  0  0  0  0  0  0  0  0
    0.7875   -2.1375    0.0000 C   0  0  0  0  0  0  0  0  0  0  0  0
    5.3292    2.8583    0.0000 C   0  0  0  0  0  0  0  0  0  0  0  0
    3.2542   -3.5542    0.0000 C   0  0  0  0  0  0  0  0  0  0  0  0
    5.7542    3.5708    0.0000 C   0  0  0  0  0  0  0  0  0  0  0  0
    6.5667    3.5625    0.0000 C   0  0  0  0  0  0  0  0  0  0  0  0
    0.7792   -0.7125    0.0000 C   0  0  0  0  0  0  0  0  0  0  0  0
    0.3667   -1.4292    0.0000 C   0  0  0  0  0  0  0  0  0  0  0  0
  1  2  1  0  0  0  0
  1  3  2  0  0  0  0
  1  4  1  0  0  0  0
  5  8  2  0  0  0  0
  2  6  2  0  0  0  0
  7 10  1  0  0  0  0
  3  8  1  0  0  0  0
  9 12  3  0  0  0  0
 10 17  1  0  0  0  0
  7 11  1  0  0  0  0
 12 20  1  0  0  0  0
  4 13  1  0  0  0  0
  4 14  1  0  0  0  0
  7 15  2  0  0  0  0
 11 16  2  0  0  0  0
 17 18  1  0  0  0  0
 14 18  1  0  0  0  0
 13 19  1  0  0  0  0
 16 20  1  0  0  0  0
  2 21  1  0  0  0  0
  6 22  1  0  0  0  0
 11 23  1  0  0  0  0
  8 24  1  0  0  0  0
 23 25  2  0  0  0  0
 25 26  1  0  0  0  0
 21 27  1  0  0  0  0
 27 28  1  0  0  0  0
  5  6  1  0  0  0  0
 17 19  1  0  0  0  0
 22 28  1  0  0  0  0
 20 26  2  0  0  0  0
M  END
> <MOLFORMULA>
C22 H25 N5 O

> <MOLWEIGHT>
3.754735000000000e+002

> <IDNUMBER>
AT-687/SK01691

> <PRICE>
EUR 80/10 mg

> <Similarity score>
0.22

$$$$

  -OEChem-04222410502D

 25 28  0     0  0  0  0  0  0999 V2000
    0.7042   -2.6250    0.0000 C   0  0  0  0  0  0  0  0  0  0  0  0
    1.6250   -3.0208    0.0000 C   0  0  0  0  0  0  0  0  0  0  0  0
    0.8000   -1.6292    0.0000 C   0  0  0  0  0  0  0  0  0  0  0  0
    2.2833   -2.2708    0.0000 O   0  0  0  0  0  0  0  0  0  0  0  0
    0.0417    1.7500    0.0000 C   0  0  0  0  0  0  0  0  0  0  0  0
    1.7750   -1.4083    0.0000 C   0  0  0  0  0  0  0  0  0  0  0  0
   -0.6333    2.4875    0.0000 C   0  0  3  0  0  0  0  0  0  0  0  0
   -0.3375    3.4417    0.0000 C   0  0  3  0  0  0  0  0  0  0  0  0
   -0.2583    0.7958    0.0000 N   0  0  0  0  0  0  0  0  0  0  0  0
    0.6375    3.6625    0.0000 C   0  0  0  0  0  0  0  0  0  0  0  0
    0.1208   -0.8917    0.0000 C   0  0  0  0  0  0  0  0  0  0  0  0
    0.4208    0.0625    0.0000 C   0  0  0  0  0  0  0  0  0  0  0  0
    1.0167    1.9708    0.0000 O   0  0  0  0  0  0  0  0  0  0  0  0
    1.3167    2.9250    0.0000 O   0  0  0  0  0  0  0  0  0  0  0  0
    2.0750   -0.4583    0.0000 C   0  0  0  0  0  0  0  0  0  0  0  0
    0.9375    4.6125    0.0000 O   0  0  0  0  0  0  0  0  0  0  0  0
    1.3958    0.2792    0.0000 C   0  0  0  0  0  0  0  0  0  0  0  0
   -0.0958   -3.2208    0.0000 C   0  0  0  0  0  0  0  0  0  0  0  0
    1.7375   -4.0167    0.0000 C   0  0  0  0  0  0  0  0  0  0  0  0
   -1.6125    2.2667    0.0000 C   0  0  0  0  0  0  0  0  0  0  0  0
   -1.0167    4.1708    0.0000 C   0  0  0  0  0  0  0  0  0  0  0  0
    0.0167   -4.2125    0.0000 C   0  0  0  0  0  0  0  0  0  0  0  0
    0.9375   -4.6125    0.0000 C   0  0  0  0  0  0  0  0  0  0  0  0
   -2.2875    3.0042    0.0000 C   0  0  0  0  0  0  0  0  0  0  0  0
   -1.9917    3.9583    0.0000 C   0  0  0  0  0  0  0  0  0  0  0  0
  1  2  2  0  0  0  0
  1  3  1  0  0  0  0
  2  4  1  0  0  0  0
  5  9  1  0  0  0  0
  3  6  1  0  0  0  0
  5  7  1  0  0  0  0
  7  8  1  0  0  0  0
  9 12  1  0  0  0  0
  8 10  1  0  0  0  0
  3 11  2  0  0  0  0
 11 12  1  0  0  0  0
  5 13  2  0  0  0  0
 10 14  2  0  0  0  0
  6 15  2  0  0  0  0
 10 16  1  0  0  0  0
 12 17  2  0  0  0  0
  1 18  1  0  0  0  0
  2 19  1  0  0  0  0
  7 20  1  0  0  0  0
  8 21  1  0  0  0  0
 18 22  1  0  0  0  0
 22 23  1  0  0  0  0
 20 24  1  0  0  0  0
 24 25  1  0  0  0  0
  4  6  1  0  0  0  0
 19 23  1  0  0  0  0
 15 17  1  0  0  0  0
 21 25  1  0  0  0  0
M  END
> <MOLFORMULA>
C20 H23 N O4

> <MOLWEIGHT>
3.414047000000000e+002

> <IDNUMBER>
AN-153/I294852

> <PRICE>
EUR 130/10 mg

> <Similarity score>
0.22

$$$$

  -OEChem-04222410502D

 34 38  0     0  0  0  0  0  0999 V2000
   -1.9833    3.2458    0.0000 C   0  0  0  0  0  0  0  0  0  0  0  0
   -1.9833    4.2292    0.0000 N   0  0  3  0  0  0  0  0  0  0  0  0
   -1.1208    2.7458    0.0000 C   0  0  0  0  0  0  0  0  0  0  0  0
   -2.9375    4.5417    0.0000 N   0  0  0  0  0  0  0  0  0  0  0  0
   -2.9375    2.9333    0.0000 C   0  0  0  0  0  0  0  0  0  0  0  0
   -1.1208    1.7375    0.0000 N   0  0  3  0  0  0  0  0  0  0  0  0
   -3.5208    3.7375    0.0000 C   0  0  0  0  0  0  0  0  0  0  0  0
    0.6042   -0.2625    0.0000 C   0  0  0  0  0  0  0  0  0  0  0  0
   -0.2500    3.2458    0.0000 N   0  0  0  0  0  0  0  0  0  0  0  0
   -0.2583    0.2375    0.0000 C   0  0  3  0  0  0  0  0  0  0  0  0
    1.4750    0.2375    0.0000 N   0  0  0  0  0  0  0  0  0  0  0  0
   -0.2500    1.2458    0.0000 C   0  0  0  0  0  0  0  0  0  0  0  0
   -1.1208    4.7417    0.0000 C   0  0  0  0  0  0  0  0  0  0  0  0
   -0.2500    4.2292    0.0000 C   0  0  0  0  0  0  0  0  0  0  0  0
    2.3417   -1.2500    0.0000 C   0  0  0  0  0  0  0  0  0  0  0  0
    3.1917   -1.7625    0.0000 C   0  0  0  0  0  0  0  0  0  0  0  0
    3.1917   -2.7417    0.0000 C   0  0  0  0  0  0  0  0  0  0  0  0
    2.3417   -0.2625    0.0000 C   0  0  3  0  0  0  0  0  0  0  0  0
    0.6042   -1.2542    0.0000 O   0  0  0  0  0  0  0  0  0  0  0  0
    2.3167   -3.2500    0.0000 C   0  0  0  0  0  0  0  0  0  0  0  0
    1.4667   -1.7417    0.0000 C   0  0  0  0  0  0  0  0  0  0  0  0
    1.4542   -2.7375    0.0000 C   0  0  0  0  0  0  0  0  0  0  0  0
   -1.9833    1.2458    0.0000 C   0  0  0  0  0  0  0  0  0  0  0  0
   -3.3458    2.0208    0.0000 C   0  0  0  0  0  0  0  0  0  0  0  0
    4.0542   -3.2542    0.0000 O   0  0  0  0  0  0  0  0  0  0  0  0
   -1.1250   -0.2542    0.0000 C   0  0  0  0  0  0  0  0  0  0  0  0
    2.3125   -4.2417    0.0000 O   0  0  0  0  0  0  0  0  0  0  0  0
   -4.5208    3.6458    0.0000 C   0  0  0  0  0  0  0  0  0  0  0  0
   -1.9833    0.2500    0.0000 C   0  0  0  0  0  0  0  0  0  0  0  0
    3.2042    0.2333    0.0000 C   0  0  0  0  0  0  0  0  0  0  0  0
    4.9250   -2.7542    0.0000 C   0  0  0  0  0  0  0  0  0  0  0  0
    3.1917   -4.7417    0.0000 C   0  0  0  0  0  0  0  0  0  0  0  0
   -4.3458    1.9125    0.0000 C   0  0  0  0  0  0  0  0  0  0  0  0
   -4.9333    2.7208    0.0000 C   0  0  0  0  0  0  0  0  0  0  0  0
  1  2  1  0  0  0  0
  1  3  1  0  0  0  0
  2  4  1  0  0  0  0
  1  5  2  0  0  0  0
  3  6  1  0  0  0  0
  5  7  1  0  0  0  0
  8 10  1  0  0  0  0
  3  9  2  0  0  0  0
 10 12  1  0  0  0  0
  8 11  1  0  0  0  0
  6 12  1  0  0  0  0
  2 13  1  0  0  0  0
  9 14  1  0  0  0  0
 15 18  1  0  0  0  0
 15 16  2  0  0  0  0
 16 17  1  0  0  0  0
 11 18  1  0  0  0  0
  8 19  2  0  0  0  0
 20 22  1  0  0  0  0
 15 21  1  0  0  0  0
 21 22  2  0  0  0  0
  6 23  1  0  0  0  0
  5 24  1  0  0  0  0
 17 25  1  0  0  0  0
 26 29  1  0  0  0  0
 20 27  1  0  0  0  0
  7 28  1  0  0  0  0
 23 29  1  0  0  0  0
 18 30  1  0  0  0  0
 25 31  1  0  0  0  0
 27 32  1  0  0  0  0
 24 33  1  0  0  0  0
 33 34  1  0  0  0  0
  4  7  2  0  0  0  0
 13 14  2  0  0  0  0
 28 34  1  0  0  0  0
 10 26  1  0  0  0  0
 17 20  2  0  0  0  0
M  END
> <MOLFORMULA>
C26 H33 N5 O3

> <MOLWEIGHT>
4.635787000000000e+002

> <IDNUMBER>
AT-687/PE21895

> <PRICE>
EUR 80/10 mg

> <Similarity score>
0.22

$$$$

  -OEChem-04222410502D

 33 37  0     0  0  0  0  0  0999 V2000
    1.3500   -2.3250    0.0000 N   0  0  3  0  0  0  0  0  0  0  0  0
    0.9417   -1.4083    0.0000 C   0  0  0  0  0  0  0  0  0  0  0  0
    2.3417   -2.2208    0.0000 C   0  0  0  0  0  0  0  0  0  0  0  0
    0.5625    1.6542    0.0000 C   0  0  0  0  0  0  0  0  0  0  0  0
    1.6875   -0.7417    0.0000 C   0  0  3  0  0  0  0  0  0  0  0  0
    1.3708    2.2417    0.0000 C   0  0  0  0  0  0  0  0  0  0  0  0
    2.5500   -1.2417    0.0000 C   0  0  0  0  0  0  0  0  0  0  0  0
    1.5792    0.2542    0.0000 N   0  0  3  0  0  0  0  0  0  0  0  0
   -0.2458    2.2417    0.0000 N   0  0  0  0  0  0  0  0  0  0  0  0
    1.0625    3.1917    0.0000 C   0  0  0  0  0  0  0  0  0  0  0  0
    0.8500   -3.1917    0.0000 C   0  0  0  0  0  0  0  0  0  0  0  0
    0.0625    3.1917    0.0000 C   0  0  0  0  0  0  0  0  0  0  0  0
    0.6667    0.6583    0.0000 C   0  0  0  0  0  0  0  0  0  0  0  0
   -2.1500   -4.9208    0.0000 C   0  0  3  0  0  0  0  0  0  0  0  0
    2.2875    1.8375    0.0000 C   0  0  0  0  0  0  0  0  0  0  0  0
   -0.1500   -3.1917    0.0000 C   0  0  0  0  0  0  0  0  0  0  0  0
   -0.0375   -1.2042    0.0000 O   0  0  0  0  0  0  0  0  0  0  0  0
    2.3917    0.8417    0.0000 C   0  0  0  0  0  0  0  0  0  0  0  0
    3.0125   -2.9625    0.0000 O   0  0  0  0  0  0  0  0  0  0  0  0
    1.5625    4.0542    0.0000 C   0  0  0  0  0  0  0  0  0  0  0  0
   -1.6500   -4.0542    0.0000 O   0  0  0  0  0  0  0  0  0  0  0  0
   -0.6500   -4.0542    0.0000 C   0  0  0  0  0  0  0  0  0  0  0  0
   -0.4375    4.0542    0.0000 C   0  0  0  0  0  0  0  0  0  0  0  0
   -1.2833   -5.4208    0.0000 F   0  0  0  0  0  0  0  0  0  0  0  0
   -2.6500   -5.7875    0.0000 F   0  0  0  0  0  0  0  0  0  0  0  0
   -3.0167   -4.4208    0.0000 F   0  0  0  0  0  0  0  0  0  0  0  0
    1.0625    4.9208    0.0000 C   0  0  0  0  0  0  0  0  0  0  0  0
    0.0625    4.9208    0.0000 C   0  0  0  0  0  0  0  0  0  0  0  0
    1.3500   -4.0542    0.0000 C   0  0  0  0  0  0  0  0  0  0  0  0
    1.5625    5.7875    0.0000 O   0  0  0  0  0  0  0  0  0  0  0  0
    0.8500   -4.9208    0.0000 C   0  0  0  0  0  0  0  0  0  0  0  0
   -0.1500   -4.9208    0.0000 C   0  0  0  0  0  0  0  0  0  0  0  0
    2.5625    5.7875    0.0000 C   0  0  0  0  0  0  0  0  0  0  0  0
  1  2  1  0  0  0  0
  1  3  1  0  0  0  0
  4 13  1  0  0  0  0
  2  5  1  0  0  0  0
  6 15  1  0  0  0  0
  3  7  1  0  0  0  0
  5  8  1  0  0  0  0
  4  9  1  0  0  0  0
  6 10  1  0  0  0  0
  1 11  1  0  0  0  0
  9 12  1  0  0  0  0
  8 13  1  0  0  0  0
 14 21  1  0  0  0  0
 15 18  1  0  0  0  0
 11 16  2  0  0  0  0
  2 17  2  0  0  0  0
  8 18  1  0  0  0  0
  3 19  2  0  0  0  0
 10 20  2  0  0  0  0
 21 22  1  0  0  0  0
 16 22  1  0  0  0  0
 12 23  2  0  0  0  0
 14 24  1  0  0  0  0
 14 25  1  0  0  0  0
 14 26  1  0  0  0  0
 20 27  1  0  0  0  0
 23 28  1  0  0  0  0
 11 29  1  0  0  0  0
 27 30  1  0  0  0  0
 29 31  2  0  0  0  0
 31 32  1  0  0  0  0
 30 33  1  0  0  0  0
  5  7  1  0  0  0  0
 22 32  2  0  0  0  0
  4  6  2  0  0  0  0
 10 12  1  0  0  0  0
 27 28  2  0  0  0  0
M  END
> <MOLFORMULA>
C23 H20 F3 N3 O4

> <MOLWEIGHT>
4.594220000000000e+002

> <IDNUMBER>
AN-153/NB21455

> <PRICE>
EUR 130/10 mg

> <Similarity score>
0.22

$$$$

  -OEChem-04222410502D

 34 38  0     0  0  0  0  0  0999 V2000
   -1.9833    3.2583    0.0000 C   0  0  0  0  0  0  0  0  0  0  0  0
   -1.9833    4.2542    0.0000 N   0  0  3  0  0  0  0  0  0  0  0  0
   -1.1208    2.7708    0.0000 C   0  0  0  0  0  0  0  0  0  0  0  0
   -2.9375    4.5625    0.0000 N   0  0  0  0  0  0  0  0  0  0  0  0
   -2.9375    2.9375    0.0000 C   0  0  0  0  0  0  0  0  0  0  0  0
   -1.1208    1.7583    0.0000 N   0  0  3  0  0  0  0  0  0  0  0  0
   -3.5208    3.7583    0.0000 C   0  0  0  0  0  0  0  0  0  0  0  0
    0.6042   -0.2417    0.0000 C   0  0  0  0  0  0  0  0  0  0  0  0
   -0.2500    3.2583    0.0000 N   0  0  0  0  0  0  0  0  0  0  0  0
   -0.2583    0.2583    0.0000 C   0  0  3  0  0  0  0  0  0  0  0  0
    3.2000   -2.7542    0.0000 C   0  0  0  0  0  0  0  0  0  0  0  0
   -0.2500    1.2625    0.0000 C   0  0  0  0  0  0  0  0  0  0  0  0
   -1.1208    4.7542    0.0000 C   0  0  0  0  0  0  0  0  0  0  0  0
    2.3167   -3.2500    0.0000 C   0  0  0  0  0  0  0  0  0  0  0  0
    3.2000   -1.7625    0.0000 C   0  0  0  0  0  0  0  0  0  0  0  0
    0.6042   -1.2500    0.0000 N   0  0  0  0  0  0  0  0  0  0  0  0
    1.4667   -1.7417    0.0000 C   0  0  0  0  0  0  0  0  0  0  0  0
    2.3417   -1.2500    0.0000 C   0  0  0  0  0  0  0  0  0  0  0  0
    1.4542   -2.7417    0.0000 C   0  0  0  0  0  0  0  0  0  0  0  0
   -0.2500    4.2542    0.0000 C   0  0  0  0  0  0  0  0  0  0  0  0
    1.4750    0.2500    0.0000 O   0  0  0  0  0  0  0  0  0  0  0  0
    4.0542   -3.2625    0.0000 O   0  0  0  0  0  0  0  0  0  0  0  0
   -1.9833    1.2625    0.0000 C   0  0  0  0  0  0  0  0  0  0  0  0
   -3.3458    2.0333    0.0000 C   0  0  0  0  0  0  0  0  0  0  0  0
    2.3125   -4.2542    0.0000 O   0  0  0  0  0  0  0  0  0  0  0  0
    4.0667   -1.2667    0.0000 O   0  0  0  0  0  0  0  0  0  0  0  0
   -1.1250   -0.2292    0.0000 C   0  0  0  0  0  0  0  0  0  0  0  0
   -4.5208    3.6500    0.0000 C   0  0  0  0  0  0  0  0  0  0  0  0
   -1.9833    0.2708    0.0000 C   0  0  0  0  0  0  0  0  0  0  0  0
    4.9250   -2.7667    0.0000 C   0  0  0  0  0  0  0  0  0  0  0  0
    3.1667   -4.7542    0.0000 C   0  0  0  0  0  0  0  0  0  0  0  0
    4.0792   -0.2750    0.0000 C   0  0  0  0  0  0  0  0  0  0  0  0
   -4.3458    1.9333    0.0000 C   0  0  0  0  0  0  0  0  0  0  0  0
   -4.9333    2.7458    0.0000 C   0  0  0  0  0  0  0  0  0  0  0  0
  1  2  1  0  0  0  0
  1  3  1  0  0  0  0
  2  4  1  0  0  0  0
  1  5  2  0  0  0  0
  3  6  1  0  0  0  0
  5  7  1  0  0  0  0
  8 10  1  0  0  0  0
  3  9  2  0  0  0  0
 10 12  1  0  0  0  0
 11 14  1  0  0  0  0
  6 12  1  0  0  0  0
  2 13  1  0  0  0  0
 14 19  2  0  0  0  0
 15 18  1  0  0  0  0
  8 16  1  0  0  0  0
 16 17  1  0  0  0  0
 17 18  2  0  0  0  0
 17 19  1  0  0  0  0
  9 20  1  0  0  0  0
  8 21  2  0  0  0  0
 11 22  1  0  0  0  0
  6 23  1  0  0  0  0
  5 24  1  0  0  0  0
 14 25  1  0  0  0  0
 15 26  1  0  0  0  0
 27 29  1  0  0  0  0
  7 28  1  0  0  0  0
 23 29  1  0  0  0  0
 22 30  1  0  0  0  0
 25 31  1  0  0  0  0
 26 32  1  0  0  0  0
 24 33  1  0  0  0  0
 33 34  1  0  0  0  0
  4  7  2  0  0  0  0
 13 20  2  0  0  0  0
 28 34  1  0  0  0  0
 10 27  1  0  0  0  0
 11 15  2  0  0  0  0
M  END
> <MOLFORMULA>
C25 H31 N5 O4

> <MOLWEIGHT>
4.655509000000000e+002

> <IDNUMBER>
AT-687/PE21869

> <PRICE>
EUR 80/10 mg

> <Similarity score>
0.22

$$$$

  -OEChem-04222410502D

 29 33  0     0  0  0  0  0  0999 V2000
    0.0583   -2.3250    0.0000 N   0  0  3  0  0  0  0  0  0  0  0  0
   -0.3458   -1.4083    0.0000 C   0  0  0  0  0  0  0  0  0  0  0  0
   -0.7250    1.6542    0.0000 C   0  0  0  0  0  0  0  0  0  0  0  0
    1.0542   -2.2208    0.0000 C   0  0  0  0  0  0  0  0  0  0  0  0
    0.3958   -0.7417    0.0000 C   0  0  3  0  0  0  0  0  0  0  0  0
    0.0833    2.2417    0.0000 C   0  0  0  0  0  0  0  0  0  0  0  0
    0.2917    0.2542    0.0000 N   0  0  3  0  0  0  0  0  0  0  0  0
    1.2625   -1.2417    0.0000 C   0  0  0  0  0  0  0  0  0  0  0  0
   -1.5375    2.2417    0.0000 N   0  0  0  0  0  0  0  0  0  0  0  0
   -0.2292    3.1958    0.0000 C   0  0  0  0  0  0  0  0  0  0  0  0
   -1.2250    3.1958    0.0000 C   0  0  0  0  0  0  0  0  0  0  0  0
   -0.6208    0.6625    0.0000 C   0  0  0  0  0  0  0  0  0  0  0  0
    0.9958    1.8375    0.0000 C   0  0  0  0  0  0  0  0  0  0  0  0
   -0.4417   -3.1917    0.0000 C   0  0  0  0  0  0  0  0  0  0  0  0
    1.1000    0.8417    0.0000 C   0  0  0  0  0  0  0  0  0  0  0  0
   -1.3250   -1.2000    0.0000 O   0  0  0  0  0  0  0  0  0  0  0  0
    1.7250   -2.9625    0.0000 O   0  0  0  0  0  0  0  0  0  0  0  0
    0.2708    4.0542    0.0000 C   0  0  0  0  0  0  0  0  0  0  0  0
   -1.7250    4.0542    0.0000 C   0  0  0  0  0  0  0  0  0  0  0  0
   -0.2292    4.9208    0.0000 C   0  0  0  0  0  0  0  0  0  0  0  0
    0.0583   -4.0542    0.0000 C   0  0  0  0  0  0  0  0  0  0  0  0
   -1.2250    4.9208    0.0000 C   0  0  0  0  0  0  0  0  0  0  0  0
    0.2708    5.7875    0.0000 O   0  0  0  0  0  0  0  0  0  0  0  0
   -0.4417   -4.9208    0.0000 C   0  0  0  0  0  0  0  0  0  0  0  0
    1.0583   -4.0542    0.0000 C   0  0  0  0  0  0  0  0  0  0  0  0
    1.2750    5.7875    0.0000 C   0  0  0  0  0  0  0  0  0  0  0  0
    0.0583   -5.7875    0.0000 C   0  0  0  0  0  0  0  0  0  0  0  0
    1.5583   -4.9208    0.0000 C   0  0  0  0  0  0  0  0  0  0  0  0
    1.0583   -5.7875    0.0000 C   0  0  0  0  0  0  0  0  0  0  0  0
  1  2  1  0  0  0  0
  3 12  1  0  0  0  0
  1  4  1  0  0  0  0
  2  5  1  0  0  0  0
  6 13  1  0  0  0  0
  5  7  1  0  0  0  0
  4  8  1  0  0  0  0
  3  9  1  0  0  0  0
  6 10  1  0  0  0  0
  9 11  1  0  0  0  0
  7 12  1  0  0  0  0
 13 15  1  0  0  0  0
  1 14  1  0  0  0  0
  7 15  1  0  0  0  0
  2 16  2  0  0  0  0
  4 17  2  0  0  0  0
 10 18  2  0  0  0  0
 11 19  2  0  0  0  0
 18 20  1  0  0  0  0
 14 21  1  0  0  0  0
 19 22  1  0  0  0  0
 20 23  1  0  0  0  0
 21 24  2  0  0  0  0
 21 25  1  0  0  0  0
 23 26  1  0  0  0  0
 24 27  1  0  0  0  0
 25 28  2  0  0  0  0
 27 29  2  0  0  0  0
  5  8  1  0  0  0  0
 28 29  1  0  0  0  0
  3  6  2  0  0  0  0
 10 11  1  0  0  0  0
 20 22  2  0  0  0  0
M  END
> <MOLFORMULA>
C23 H23 N3 O3

> <MOLWEIGHT>
3.894527000000000e+002

> <IDNUMBER>
AN-153/NB21465

> <PRICE>
EUR 130/10 mg

> <Similarity score>
0.22

$$$$

  -OEChem-04222410502D

 28 32  0     0  0  0  0  0  0999 V2000
    0.1667   -2.7583    0.0000 N   0  0  3  0  0  0  0  0  0  0  0  0
   -0.2417   -1.8417    0.0000 C   0  0  0  0  0  0  0  0  0  0  0  0
    1.1625   -2.6500    0.0000 C   0  0  0  0  0  0  0  0  0  0  0  0
   -0.6208    1.2208    0.0000 C   0  0  0  0  0  0  0  0  0  0  0  0
    0.5042   -1.1750    0.0000 C   0  0  3  0  0  0  0  0  0  0  0  0
    0.1875    1.8083    0.0000 C   0  0  0  0  0  0  0  0  0  0  0  0
    1.3667   -1.6750    0.0000 C   0  0  0  0  0  0  0  0  0  0  0  0
    0.4000   -0.1792    0.0000 N   0  0  3  0  0  0  0  0  0  0  0  0
   -1.4292    1.8083    0.0000 N   0  0  0  0  0  0  0  0  0  0  0  0
   -0.1208    2.7625    0.0000 C   0  0  0  0  0  0  0  0  0  0  0  0
   -1.1208    2.7625    0.0000 C   0  0  0  0  0  0  0  0  0  0  0  0
   -0.5167    0.2250    0.0000 C   0  0  0  0  0  0  0  0  0  0  0  0
    1.1042    1.4042    0.0000 C   0  0  0  0  0  0  0  0  0  0  0  0
   -1.2167   -1.6333    0.0000 O   0  0  0  0  0  0  0  0  0  0  0  0
    1.2083    0.4083    0.0000 C   0  0  0  0  0  0  0  0  0  0  0  0
   -0.3333   -3.6208    0.0000 C   0  0  0  0  0  0  0  0  0  0  0  0
    1.8292   -3.3958    0.0000 O   0  0  0  0  0  0  0  0  0  0  0  0
    0.3792    3.6250    0.0000 C   0  0  0  0  0  0  0  0  0  0  0  0
   -1.6208    3.6250    0.0000 C   0  0  0  0  0  0  0  0  0  0  0  0
   -0.1208    4.4875    0.0000 C   0  0  0  0  0  0  0  0  0  0  0  0
   -1.1208    4.4875    0.0000 C   0  0  0  0  0  0  0  0  0  0  0  0
    0.3792    5.3542    0.0000 O   0  0  0  0  0  0  0  0  0  0  0  0
   -1.3333   -3.6208    0.0000 C   0  0  0  0  0  0  0  0  0  0  0  0
    0.1667   -4.4875    0.0000 C   0  0  0  0  0  0  0  0  0  0  0  0
    1.3792    5.3542    0.0000 C   0  0  0  0  0  0  0  0  0  0  0  0
   -0.3333   -5.3542    0.0000 C   0  0  0  0  0  0  0  0  0  0  0  0
   -1.8333   -4.4875    0.0000 C   0  0  0  0  0  0  0  0  0  0  0  0
   -1.3333   -5.3542    0.0000 C   0  0  0  0  0  0  0  0  0  0  0  0
  1  2  1  0  0  0  0
  1  3  1  0  0  0  0
  4 12  1  0  0  0  0
  2  5  1  0  0  0  0
  6 13  1  0  0  0  0
  3  7  1  0  0  0  0
  5  8  1  0  0  0  0
  4  9  1  0  0  0  0
  6 10  1  0  0  0  0
  9 11  1  0  0  0  0
  8 12  1  0  0  0  0
 13 15  1  0  0  0  0
  2 14  2  0  0  0  0
  8 15  1  0  0  0  0
  1 16  1  0  0  0  0
  3 17  2  0  0  0  0
 10 18  2  0  0  0  0
 11 19  2  0  0  0  0
 18 20  1  0  0  0  0
 19 21  1  0  0  0  0
 20 22  1  0  0  0  0
 16 23  2  0  0  0  0
 16 24  1  0  0  0  0
 22 25  1  0  0  0  0
 24 26  2  0  0  0  0
 23 27  1  0  0  0  0
 27 28  2  0  0  0  0
  5  7  1  0  0  0  0
 26 28  1  0  0  0  0
  4  6  2  0  0  0  0
 10 11  1  0  0  0  0
 20 21  2  0  0  0  0
M  END
> <MOLFORMULA>
C22 H21 N3 O3

> <MOLWEIGHT>
3.754259000000000e+002

> <IDNUMBER>
AN-153/NB21445

> <PRICE>
EUR 130/10 mg

> <Similarity score>
0.22

$$$$

  -OEChem-04222410502D

 31 35  0     0  0  0  0  0  0999 V2000
    6.8542    1.0583    0.0000 C   0  0  0  0  0  0  0  0  0  0  0  0
    3.2792   -1.8292    0.0000 C   0  0  0  0  0  0  0  0  0  0  0  0
    6.8542    1.8833    0.0000 C   0  0  0  0  0  0  0  0  0  0  0  0
    7.5750    0.6458    0.0000 N   0  0  0  0  0  0  0  0  0  0  0  0
    3.2792   -2.6667    0.0000 C   0  0  0  0  0  0  0  0  0  0  0  0
    2.5667   -1.4167    0.0000 O   0  0  0  0  0  0  0  0  0  0  0  0
    2.5667   -3.0667    0.0000 C   0  0  0  0  0  0  0  0  0  0  0  0
    6.1417    0.6458    0.0000 N   0  0  3  0  0  0  0  0  0  0  0  0
    4.0000   -1.4167    0.0000 C   0  0  0  0  0  0  0  0  0  0  0  0
    8.2875    1.8833    0.0000 N   0  0  0  0  0  0  0  0  0  0  0  0
    7.5750    2.2958    0.0000 C   0  0  0  0  0  0  0  0  0  0  0  0
    1.8542   -2.6542    0.0000 C   0  0  0  0  0  0  0  0  0  0  0  0
    1.8542   -1.8417    0.0000 C   0  0  0  0  0  0  0  0  0  0  0  0
    8.2875    1.0583    0.0000 C   0  0  0  0  0  0  0  0  0  0  0  0
    4.0000   -0.5917    0.0000 N   0  0  0  0  0  0  0  0  0  0  0  0
    5.4167    1.0583    0.0000 C   0  0  0  0  0  0  0  0  0  0  0  0
    6.1417   -0.1792    0.0000 C   0  0  0  0  0  0  0  0  0  0  0  0
    2.5667   -3.8917    0.0000 O   0  0  0  0  0  0  0  0  0  0  0  0
    4.7125   -1.8292    0.0000 O   0  0  0  0  0  0  0  0  0  0  0  0
    4.7125   -0.1792    0.0000 C   0  0  3  0  0  0  0  0  0  0  0  0
    5.4167   -0.5917    0.0000 C   0  0  0  0  0  0  0  0  0  0  0  0
    4.7125    0.6458    0.0000 C   0  0  0  0  0  0  0  0  0  0  0  0
    6.1417    2.2958    0.0000 C   0  0  0  0  0  0  0  0  0  0  0  0
    1.1417   -3.0792    0.0000 C   0  0  0  0  0  0  0  0  0  0  0  0
    7.5750    3.1208    0.0000 C   0  0  0  0  0  0  0  0  0  0  0  0
    1.1292   -1.4292    0.0000 C   0  0  0  0  0  0  0  0  0  0  0  0
    9.0042    0.6458    0.0000 C   0  0  0  0  0  0  0  0  0  0  0  0
    6.1417    3.1208    0.0000 C   0  0  0  0  0  0  0  0  0  0  0  0
    0.4292   -2.6667    0.0000 C   0  0  0  0  0  0  0  0  0  0  0  0
    6.8667    3.5208    0.0000 C   0  0  0  0  0  0  0  0  0  0  0  0
    0.4250   -1.8417    0.0000 C   0  0  0  0  0  0  0  0  0  0  0  0
  2  9  1  0  0  0  0
  1  3  1  0  0  0  0
  1  4  2  0  0  0  0
  2  5  2  0  0  0  0
  2  6  1  0  0  0  0
  5  7  1  0  0  0  0
  1  8  1  0  0  0  0
  9 15  1  0  0  0  0
 10 14  2  0  0  0  0
  3 11  2  0  0  0  0
 12 13  2  0  0  0  0
  6 13  1  0  0  0  0
  4 14  1  0  0  0  0
 15 20  1  0  0  0  0
  8 16  1  0  0  0  0
  8 17  1  0  0  0  0
  7 18  2  0  0  0  0
  9 19  2  0  0  0  0
 20 21  1  0  0  0  0
 17 21  1  0  0  0  0
 16 22  1  0  0  0  0
  3 23  1  0  0  0  0
 12 24  1  0  0  0  0
 11 25  1  0  0  0  0
 13 26  1  0  0  0  0
 14 27  1  0  0  0  0
 23 28  1  0  0  0  0
 29 31  1  0  0  0  0
 28 30  1  0  0  0  0
 26 31  2  0  0  0  0
 10 11  1  0  0  0  0
 20 22  1  0  0  0  0
 25 30  1  0  0  0  0
  7 12  1  0  0  0  0
 24 29  2  0  0  0  0
M  END
> <MOLFORMULA>
C24 H26 N4 O3

> <MOLWEIGHT>
4.184944000000000e+002

> <IDNUMBER>
AT-687/SK01658

> <PRICE>
EUR 80/10 mg

> <Similarity score>
0.22

$$$$

  -OEChem-04222410502D

 30 33  0     0  0  0  0  0  0999 V2000
    2.5542   -0.9750    0.0000 C   0  0  0  0  0  0  0  0  0  0  0  0
    2.5542   -1.8000    0.0000 C   0  0  0  0  0  0  0  0  0  0  0  0
    1.8417   -0.5542    0.0000 N   0  0  0  0  0  0  0  0  0  0  0  0
    3.2792   -0.5667    0.0000 N   0  0  3  0  0  0  0  0  0  0  0  0
    8.2792    3.1458    0.0000 C   0  0  3  0  0  0  0  0  0  0  0  0
    5.4167    1.4875    0.0000 C   0  0  0  0  0  0  0  0  0  0  0  0
    1.1292   -1.7917    0.0000 N   0  0  0  0  0  0  0  0  0  0  0  0
    1.8292   -2.2042    0.0000 C   0  0  0  0  0  0  0  0  0  0  0  0
    6.1375    1.9000    0.0000 C   0  0  0  0  0  0  0  0  0  0  0  0
    1.1292   -0.9667    0.0000 C   0  0  0  0  0  0  0  0  0  0  0  0
    6.8417    3.1458    0.0000 N   0  0  0  0  0  0  0  0  0  0  0  0
    5.4167    0.6625    0.0000 N   0  0  0  0  0  0  0  0  0  0  0  0
    7.5667    2.7250    0.0000 C   0  0  0  0  0  0  0  0  0  0  0  0
    6.1375    2.7250    0.0000 C   0  0  0  0  0  0  0  0  0  0  0  0
    3.2792    0.2583    0.0000 C   0  0  0  0  0  0  0  0  0  0  0  0
    3.9792   -0.9792    0.0000 C   0  0  0  0  0  0  0  0  0  0  0  0
    4.7042    1.9000    0.0000 O   0  0  0  0  0  0  0  0  0  0  0  0
    6.8417    1.4875    0.0000 C   0  0  0  0  0  0  0  0  0  0  0  0
    7.5667    1.9000    0.0000 C   0  0  0  0  0  0  0  0  0  0  0  0
    8.6917    2.4208    0.0000 F   0  0  0  0  0  0  0  0  0  0  0  0
    7.8667    3.8375    0.0000 F   0  0  0  0  0  0  0  0  0  0  0  0
    8.9917    3.5458    0.0000 F   0  0  0  0  0  0  0  0  0  0  0  0
    4.7042    0.2500    0.0000 C   0  0  3  0  0  0  0  0  0  0  0  0
    4.7000   -0.5750    0.0000 C   0  0  0  0  0  0  0  0  0  0  0  0
    3.9917    0.6708    0.0000 C   0  0  0  0  0  0  0  0  0  0  0  0
    3.2667   -2.2250    0.0000 C   0  0  0  0  0  0  0  0  0  0  0  0
    1.8292   -3.0292    0.0000 C   0  0  0  0  0  0  0  0  0  0  0  0
    0.4250   -0.5542    0.0000 C   0  0  0  0  0  0  0  0  0  0  0  0
    3.2542   -3.0500    0.0000 C   0  0  0  0  0  0  0  0  0  0  0  0
    2.5292   -3.4542    0.0000 C   0  0  0  0  0  0  0  0  0  0  0  0
  1  2  1  0  0  0  0
  1  3  2  0  0  0  0
  1  4  1  0  0  0  0
  5 13  1  0  0  0  0
  6 12  1  0  0  0  0
  7 10  2  0  0  0  0
  2  8  2  0  0  0  0
  6  9  1  0  0  0  0
  3 10  1  0  0  0  0
 11 14  1  0  0  0  0
 12 23  1  0  0  0  0
 13 19  1  0  0  0  0
  9 14  2  0  0  0  0
  4 15  1  0  0  0  0
  4 16  1  0  0  0  0
  6 17  2  0  0  0  0
  9 18  1  0  0  0  0
 18 19  2  0  0  0  0
  5 20  1  0  0  0  0
  5 21  1  0  0  0  0
  5 22  1  0  0  0  0
 23 24  1  0  0  0  0
 16 24  1  0  0  0  0
 15 25  1  0  0  0  0
  2 26  1  0  0  0  0
  8 27  1  0  0  0  0
 10 28  1  0  0  0  0
 26 29  1  0  0  0  0
 29 30  1  0  0  0  0
  7  8  1  0  0  0  0
 23 25  1  0  0  0  0
 27 30  1  0  0  0  0
 11 13  2  0  0  0  0
M  END
> <MOLFORMULA>
C21 H24 F3 N5 O

> <MOLWEIGHT>
4.194486000000000e+002

> <IDNUMBER>
AT-687/SK01668

> <PRICE>
EUR 80/10 mg

> <Similarity score>
0.22

$$$$

  -OEChem-04222410502D

 29 33  0     0  0  0  0  0  0999 V2000
    0.1667   -2.3250    0.0000 N   0  0  3  0  0  0  0  0  0  0  0  0
   -0.2417   -1.4083    0.0000 C   0  0  0  0  0  0  0  0  0  0  0  0
    1.1625   -2.2208    0.0000 C   0  0  0  0  0  0  0  0  0  0  0  0
   -0.6208    1.6542    0.0000 C   0  0  0  0  0  0  0  0  0  0  0  0
    0.5042   -0.7417    0.0000 C   0  0  3  0  0  0  0  0  0  0  0  0
    0.1875    2.2417    0.0000 C   0  0  0  0  0  0  0  0  0  0  0  0
    1.3667   -1.2417    0.0000 C   0  0  0  0  0  0  0  0  0  0  0  0
    0.4000    0.2542    0.0000 N   0  0  3  0  0  0  0  0  0  0  0  0
   -1.4292    2.2417    0.0000 N   0  0  0  0  0  0  0  0  0  0  0  0
   -0.1208    3.1917    0.0000 C   0  0  0  0  0  0  0  0  0  0  0  0
   -1.1208    3.1917    0.0000 C   0  0  0  0  0  0  0  0  0  0  0  0
   -0.5167    0.6583    0.0000 C   0  0  0  0  0  0  0  0  0  0  0  0
   -0.3333   -3.1875    0.0000 C   0  0  0  0  0  0  0  0  0  0  0  0
    1.1042    1.8375    0.0000 C   0  0  0  0  0  0  0  0  0  0  0  0
   -1.2208   -1.2042    0.0000 O   0  0  0  0  0  0  0  0  0  0  0  0
    1.2083    0.8417    0.0000 C   0  0  0  0  0  0  0  0  0  0  0  0
    1.8292   -2.9625    0.0000 O   0  0  0  0  0  0  0  0  0  0  0  0
    0.3792    4.0542    0.0000 C   0  0  0  0  0  0  0  0  0  0  0  0
   -1.6208    4.0542    0.0000 C   0  0  0  0  0  0  0  0  0  0  0  0
   -1.3333   -3.1875    0.0000 C   0  0  0  0  0  0  0  0  0  0  0  0
    0.1667   -4.0542    0.0000 C   0  0  0  0  0  0  0  0  0  0  0  0
   -0.1208    4.9208    0.0000 C   0  0  0  0  0  0  0  0  0  0  0  0
   -1.3333   -4.9208    0.0000 C   0  0  0  0  0  0  0  0  0  0  0  0
   -1.1208    4.9208    0.0000 C   0  0  0  0  0  0  0  0  0  0  0  0
   -0.3333   -4.9208    0.0000 C   0  0  0  0  0  0  0  0  0  0  0  0
   -1.8333   -4.0542    0.0000 C   0  0  0  0  0  0  0  0  0  0  0  0
   -1.8333   -5.7875    0.0000 Br  0  0  0  0  0  0  0  0  0  0  0  0
    0.3792    5.7875    0.0000 O   0  0  0  0  0  0  0  0  0  0  0  0
    1.3792    5.7875    0.0000 C   0  0  0  0  0  0  0  0  0  0  0  0
  1  2  1  0  0  0  0
  1  3  1  0  0  0  0
  4 12  1  0  0  0  0
  2  5  1  0  0  0  0
  6 14  1  0  0  0  0
  3  7  1  0  0  0  0
  5  8  1  0  0  0  0
  4  9  1  0  0  0  0
  6 10  1  0  0  0  0
  9 11  1  0  0  0  0
  8 12  1  0  0  0  0
  1 13  1  0  0  0  0
 14 16  1  0  0  0  0
  2 15  2  0  0  0  0
  8 16  1  0  0  0  0
  3 17  2  0  0  0  0
 10 18  2  0  0  0  0
 11 19  2  0  0  0  0
 13 20  1  0  0  0  0
 13 21  2  0  0  0  0
 18 22  1  0  0  0  0
 23 26  1  0  0  0  0
 19 24  1  0  0  0  0
 21 25  1  0  0  0  0
 20 26  2  0  0  0  0
 23 27  1  0  0  0  0
 22 28  1  0  0  0  0
 28 29  1  0  0  0  0
  5  7  1  0  0  0  0
 23 25  2  0  0  0  0
  4  6  2  0  0  0  0
 10 11  1  0  0  0  0
 22 24  2  0  0  0  0
M  END
> <MOLFORMULA>
C22 H20 Br N3 O3

> <MOLWEIGHT>
4.543220000000000e+002

> <IDNUMBER>
AN-153/NB21447

> <PRICE>
EUR 130/10 mg

> <Similarity score>
0.22

$$$$

  -OEChem-04222410502D

 32 36  0     0  0  0  0  0  0999 V2000
    0.6667   -1.8917    0.0000 N   0  0  3  0  0  0  0  0  0  0  0  0
    0.2583   -0.9750    0.0000 C   0  0  0  0  0  0  0  0  0  0  0  0
    1.6625   -1.7875    0.0000 C   0  0  0  0  0  0  0  0  0  0  0  0
   -0.1208    2.0875    0.0000 C   0  0  0  0  0  0  0  0  0  0  0  0
    1.0042   -0.3083    0.0000 C   0  0  3  0  0  0  0  0  0  0  0  0
    0.6875    2.6750    0.0000 C   0  0  0  0  0  0  0  0  0  0  0  0
    1.8708   -0.8083    0.0000 C   0  0  0  0  0  0  0  0  0  0  0  0
    0.9000    0.6875    0.0000 N   0  0  3  0  0  0  0  0  0  0  0  0
   -0.9292    2.6750    0.0000 N   0  0  0  0  0  0  0  0  0  0  0  0
    0.1667   -2.7583    0.0000 C   0  0  0  0  0  0  0  0  0  0  0  0
    0.3792    3.6250    0.0000 C   0  0  0  0  0  0  0  0  0  0  0  0
   -0.6208    3.6250    0.0000 C   0  0  0  0  0  0  0  0  0  0  0  0
   -0.0167    1.0917    0.0000 C   0  0  0  0  0  0  0  0  0  0  0  0
   -0.8333   -2.7583    0.0000 C   0  0  0  0  0  0  0  0  0  0  0  0
    1.6042    2.2667    0.0000 C   0  0  0  0  0  0  0  0  0  0  0  0
   -1.3333   -3.6208    0.0000 C   0  0  0  0  0  0  0  0  0  0  0  0
   -0.7167   -0.7708    0.0000 O   0  0  0  0  0  0  0  0  0  0  0  0
    0.6667   -3.6208    0.0000 C   0  0  0  0  0  0  0  0  0  0  0  0
    1.7083    1.2750    0.0000 C   0  0  0  0  0  0  0  0  0  0  0  0
    2.3292   -2.5292    0.0000 O   0  0  0  0  0  0  0  0  0  0  0  0
    0.8792    4.4875    0.0000 C   0  0  0  0  0  0  0  0  0  0  0  0
   -1.1208    4.4875    0.0000 C   0  0  0  0  0  0  0  0  0  0  0  0
   -0.8333   -4.4875    0.0000 C   0  0  0  0  0  0  0  0  0  0  0  0
    0.3792    5.3542    0.0000 C   0  0  0  0  0  0  0  0  0  0  0  0
    0.1667   -4.4875    0.0000 C   0  0  0  0  0  0  0  0  0  0  0  0
   -1.3333   -1.8917    0.0000 O   0  0  0  0  0  0  0  0  0  0  0  0
   -0.6208    5.3542    0.0000 C   0  0  0  0  0  0  0  0  0  0  0  0
   -1.3333   -5.3542    0.0000 O   0  0  0  0  0  0  0  0  0  0  0  0
    0.8792    6.2208    0.0000 O   0  0  0  0  0  0  0  0  0  0  0  0
   -2.3333   -1.8917    0.0000 C   0  0  0  0  0  0  0  0  0  0  0  0
    1.8792    6.2208    0.0000 C   0  0  0  0  0  0  0  0  0  0  0  0
   -0.8333   -6.2208    0.0000 C   0  0  0  0  0  0  0  0  0  0  0  0
  1  2  1  0  0  0  0
  1  3  1  0  0  0  0
  4 13  1  0  0  0  0
  2  5  1  0  0  0  0
  6 15  1  0  0  0  0
  3  7  1  0  0  0  0
  5  8  1  0  0  0  0
  4  9  1  0  0  0  0
  1 10  1  0  0  0  0
  6 11  1  0  0  0  0
  9 12  1  0  0  0  0
  8 13  1  0  0  0  0
 10 14  1  0  0  0  0
 15 19  1  0  0  0  0
 14 16  2  0  0  0  0
  2 17  2  0  0  0  0
 10 18  2  0  0  0  0
  8 19  1  0  0  0  0
  3 20  2  0  0  0  0
 11 21  2  0  0  0  0
 12 22  2  0  0  0  0
 23 25  2  0  0  0  0
 21 24  1  0  0  0  0
 18 25  1  0  0  0  0
 14 26  1  0  0  0  0
 22 27  1  0  0  0  0
 23 28  1  0  0  0  0
 24 29  1  0  0  0  0
 26 30  1  0  0  0  0
 29 31  1  0  0  0  0
 28 32  1  0  0  0  0
  5  7  1  0  0  0  0
 16 23  1  0  0  0  0
  4  6  2  0  0  0  0
 11 12  1  0  0  0  0
 24 27  2  0  0  0  0
M  END
> <MOLFORMULA>
C24 H25 N3 O5

> <MOLWEIGHT>
4.354775000000000e+002

> <IDNUMBER>
AN-153/NB21464

> <PRICE>
EUR 130/10 mg

> <Similarity score>
0.22

$$$$

  -OEChem-04222410502D

 33 37  0     0  0  0  0  0  0999 V2000
   -1.9833    3.2458    0.0000 C   0  0  0  0  0  0  0  0  0  0  0  0
   -1.9833    4.2292    0.0000 N   0  0  3  0  0  0  0  0  0  0  0  0
   -1.1208    2.7458    0.0000 C   0  0  0  0  0  0  0  0  0  0  0  0
   -2.9375    4.5417    0.0000 N   0  0  0  0  0  0  0  0  0  0  0  0
   -2.9375    2.9333    0.0000 C   0  0  0  0  0  0  0  0  0  0  0  0
   -1.1208    1.7375    0.0000 N   0  0  3  0  0  0  0  0  0  0  0  0
   -3.5208    3.7375    0.0000 C   0  0  0  0  0  0  0  0  0  0  0  0
   -0.2500    3.2458    0.0000 N   0  0  0  0  0  0  0  0  0  0  0  0
   -0.2583    0.2375    0.0000 C   0  0  3  0  0  0  0  0  0  0  0  0
    0.6042   -0.2625    0.0000 C   0  0  0  0  0  0  0  0  0  0  0  0
   -1.1208    4.7417    0.0000 C   0  0  0  0  0  0  0  0  0  0  0  0
   -0.2500    1.2458    0.0000 C   0  0  0  0  0  0  0  0  0  0  0  0
   -0.2500    4.2292    0.0000 C   0  0  0  0  0  0  0  0  0  0  0  0
    1.4750    0.2375    0.0000 N   0  0  0  0  0  0  0  0  0  0  0  0
    2.3292   -1.2500    0.0000 C   0  0  0  0  0  0  0  0  0  0  0  0
    3.1917   -1.7625    0.0000 C   0  0  0  0  0  0  0  0  0  0  0  0
    3.1917   -2.7417    0.0000 C   0  0  0  0  0  0  0  0  0  0  0  0
    2.3417   -0.2625    0.0000 C   0  0  0  0  0  0  0  0  0  0  0  0
    0.6042   -1.2542    0.0000 O   0  0  0  0  0  0  0  0  0  0  0  0
    1.4667   -1.7417    0.0000 C   0  0  0  0  0  0  0  0  0  0  0  0
    2.3167   -3.2500    0.0000 C   0  0  0  0  0  0  0  0  0  0  0  0
   -1.9833    1.2458    0.0000 C   0  0  0  0  0  0  0  0  0  0  0  0
   -3.3458    2.0208    0.0000 C   0  0  0  0  0  0  0  0  0  0  0  0
    1.4542   -2.7417    0.0000 C   0  0  0  0  0  0  0  0  0  0  0  0
    4.0667   -1.2667    0.0000 O   0  0  0  0  0  0  0  0  0  0  0  0
   -1.1250   -0.2542    0.0000 C   0  0  0  0  0  0  0  0  0  0  0  0
   -4.5208    3.6458    0.0000 C   0  0  0  0  0  0  0  0  0  0  0  0
    2.3125   -4.2292    0.0000 O   0  0  0  0  0  0  0  0  0  0  0  0
   -1.9833    0.2500    0.0000 C   0  0  0  0  0  0  0  0  0  0  0  0
    4.9250   -1.7792    0.0000 C   0  0  0  0  0  0  0  0  0  0  0  0
    3.1917   -4.7417    0.0000 C   0  0  0  0  0  0  0  0  0  0  0  0
   -4.3458    1.9125    0.0000 C   0  0  0  0  0  0  0  0  0  0  0  0
   -4.9333    2.7208    0.0000 C   0  0  0  0  0  0  0  0  0  0  0  0
  1  2  1  0  0  0  0
  1  3  1  0  0  0  0
  2  4  1  0  0  0  0
  1  5  2  0  0  0  0
  3  6  1  0  0  0  0
  5  7  1  0  0  0  0
  3  8  2  0  0  0  0
  9 12  1  0  0  0  0
  9 10  1  0  0  0  0
  2 11  1  0  0  0  0
  6 12  1  0  0  0  0
  8 13  1  0  0  0  0
 10 14  1  0  0  0  0
 15 18  1  0  0  0  0
 15 16  2  0  0  0  0
 16 17  1  0  0  0  0
 14 18  1  0  0  0  0
 10 19  2  0  0  0  0
 15 20  1  0  0  0  0
 21 24  1  0  0  0  0
  6 22  1  0  0  0  0
  5 23  1  0  0  0  0
 20 24  2  0  0  0  0
 16 25  1  0  0  0  0
 26 29  1  0  0  0  0
  7 27  1  0  0  0  0
 21 28  1  0  0  0  0
 22 29  1  0  0  0  0
 25 30  1  0  0  0  0
 28 31  1  0  0  0  0
 23 32  1  0  0  0  0
 32 33  1  0  0  0  0
  4  7  2  0  0  0  0
 11 13  2  0  0  0  0
 27 33  1  0  0  0  0
  9 26  1  0  0  0  0
 17 21  2  0  0  0  0
M  END
> <MOLFORMULA>
C25 H31 N5 O3

> <MOLWEIGHT>
4.495519000000000e+002

> <IDNUMBER>
AT-687/PE21888

> <PRICE>
EUR 80/10 mg

> <Similarity score>
0.22

$$$$

  -OEChem-04222410502D

 30 34  0     0  0  0  0  0  0999 V2000
    0.1667   -1.0250    0.0000 N   0  0  3  0  0  0  0  0  0  0  0  0
   -0.2417   -0.1125    0.0000 C   0  0  0  0  0  0  0  0  0  0  0  0
    1.1625   -0.9208    0.0000 C   0  0  0  0  0  0  0  0  0  0  0  0
   -0.6208    2.9542    0.0000 C   0  0  0  0  0  0  0  0  0  0  0  0
    0.5042    0.5583    0.0000 C   0  0  3  0  0  0  0  0  0  0  0  0
    1.3708    0.0583    0.0000 C   0  0  0  0  0  0  0  0  0  0  0  0
    0.1875    3.5417    0.0000 C   0  0  0  0  0  0  0  0  0  0  0  0
    0.4000    1.5542    0.0000 N   0  0  3  0  0  0  0  0  0  0  0  0
   -1.4292    3.5417    0.0000 N   0  0  0  0  0  0  0  0  0  0  0  0
   -0.1208    4.4875    0.0000 C   0  0  0  0  0  0  0  0  0  0  0  0
   -1.1208    4.4875    0.0000 C   0  0  0  0  0  0  0  0  0  0  0  0
   -0.5167    1.9583    0.0000 C   0  0  0  0  0  0  0  0  0  0  0  0
   -0.3333   -1.8917    0.0000 C   0  0  0  0  0  0  0  0  0  0  0  0
    1.1042    3.1333    0.0000 C   0  0  0  0  0  0  0  0  0  0  0  0
   -1.2167    0.0958    0.0000 O   0  0  0  0  0  0  0  0  0  0  0  0
    1.2083    2.1417    0.0000 C   0  0  0  0  0  0  0  0  0  0  0  0
    1.8292   -1.6625    0.0000 O   0  0  0  0  0  0  0  0  0  0  0  0
   -1.3333   -5.3542    0.0000 C   0  0  0  0  0  0  0  0  0  0  0  0
   -1.8333   -4.4875    0.0000 N   0  0  0  0  0  0  0  0  0  0  0  0
   -0.3333   -5.3542    0.0000 O   0  0  0  0  0  0  0  0  0  0  0  0
   -1.3333   -1.8917    0.0000 C   0  0  0  0  0  0  0  0  0  0  0  0
    0.1667   -2.7583    0.0000 C   0  0  0  0  0  0  0  0  0  0  0  0
   -1.3333   -3.6208    0.0000 C   0  0  0  0  0  0  0  0  0  0  0  0
   -0.3333   -3.6208    0.0000 C   0  0  0  0  0  0  0  0  0  0  0  0
   -1.8333   -2.7583    0.0000 C   0  0  0  0  0  0  0  0  0  0  0  0
    0.3792    5.3542    0.0000 C   0  0  0  0  0  0  0  0  0  0  0  0
   -1.6208    5.3542    0.0000 C   0  0  0  0  0  0  0  0  0  0  0  0
   -1.8333   -6.2208    0.0000 C   0  0  0  0  0  0  0  0  0  0  0  0
   -0.1208    6.2208    0.0000 C   0  0  0  0  0  0  0  0  0  0  0  0
   -1.1208    6.2208    0.0000 C   0  0  0  0  0  0  0  0  0  0  0  0
  1  2  1  0  0  0  0
  1  3  1  0  0  0  0
  4 12  1  0  0  0  0
  2  5  1  0  0  0  0
  3  6  1  0  0  0  0
  7 14  1  0  0  0  0
  5  8  1  0  0  0  0
  4  9  1  0  0  0  0
  7 10  1  0  0  0  0
  9 11  1  0  0  0  0
  8 12  1  0  0  0  0
  1 13  1  0  0  0  0
 14 16  1  0  0  0  0
  2 15  2  0  0  0  0
  8 16  1  0  0  0  0
  3 17  2  0  0  0  0
 18 19  1  0  0  0  0
 19 23  1  0  0  0  0
 18 20  2  0  0  0  0
 13 21  2  0  0  0  0
 13 22  1  0  0  0  0
 23 25  2  0  0  0  0
 22 24  2  0  0  0  0
 21 25  1  0  0  0  0
 10 26  2  0  0  0  0
 11 27  2  0  0  0  0
 18 28  1  0  0  0  0
 26 29  1  0  0  0  0
 27 30  1  0  0  0  0
  5  6  1  0  0  0  0
 23 24  1  0  0  0  0
  4  7  2  0  0  0  0
 10 11  1  0  0  0  0
 29 30  2  0  0  0  0
M  END
> <MOLFORMULA>
C23 H22 N4 O3

> <MOLWEIGHT>
4.024518000000000e+002

> <IDNUMBER>
AN-153/NB21433

> <PRICE>
EUR 130/10 mg

> <Similarity score>
0.22

$$$$

  -OEChem-04222410502D

 25 28  0     0  0  0  0  0  0999 V2000
    0.7042   -2.6250    0.0000 C   0  0  0  0  0  0  0  0  0  0  0  0
    1.6250   -3.0208    0.0000 C   0  0  0  0  0  0  0  0  0  0  0  0
    0.8000   -1.6292    0.0000 C   0  0  0  0  0  0  0  0  0  0  0  0
    2.2833   -2.2708    0.0000 O   0  0  0  0  0  0  0  0  0  0  0  0
    0.0417    1.7500    0.0000 C   0  0  0  0  0  0  0  0  0  0  0  0
    1.7750   -1.4083    0.0000 C   0  0  0  0  0  0  0  0  0  0  0  0
   -0.6375    2.4875    0.0000 C   0  0  3  0  0  0  0  0  0  0  0  0
   -0.3375    3.4417    0.0000 C   0  0  3  0  0  0  0  0  0  0  0  0
   -0.2583    0.7958    0.0000 N   0  0  0  0  0  0  0  0  0  0  0  0
    0.6375    3.6583    0.0000 C   0  0  0  0  0  0  0  0  0  0  0  0
    0.1208   -0.8917    0.0000 C   0  0  0  0  0  0  0  0  0  0  0  0
    0.4208    0.0625    0.0000 C   0  0  0  0  0  0  0  0  0  0  0  0
    1.0167    1.9708    0.0000 O   0  0  0  0  0  0  0  0  0  0  0  0
    1.3167    2.9250    0.0000 O   0  0  0  0  0  0  0  0  0  0  0  0
    2.0750   -0.4542    0.0000 C   0  0  0  0  0  0  0  0  0  0  0  0
   -2.2875    3.0042    0.0000 C   0  0  0  0  0  0  0  0  0  0  0  0
   -1.9917    3.9583    0.0000 C   0  0  0  0  0  0  0  0  0  0  0  0
    0.9375    4.6083    0.0000 O   0  0  0  0  0  0  0  0  0  0  0  0
    1.3958    0.2792    0.0000 C   0  0  0  0  0  0  0  0  0  0  0  0
   -0.0958   -3.2208    0.0000 C   0  0  0  0  0  0  0  0  0  0  0  0
   -1.6125    2.2667    0.0000 C   0  0  0  0  0  0  0  0  0  0  0  0
   -1.0167    4.1750    0.0000 C   0  0  0  0  0  0  0  0  0  0  0  0
    1.7375   -4.0125    0.0000 C   0  0  0  0  0  0  0  0  0  0  0  0
    0.0208   -4.2125    0.0000 C   0  0  0  0  0  0  0  0  0  0  0  0
    0.9375   -4.6125    0.0000 C   0  0  0  0  0  0  0  0  0  0  0  0
  1  2  2  0  0  0  0
  1  3  1  0  0  0  0
  2  4  1  0  0  0  0
  5  9  1  0  0  0  0
  3  6  2  0  0  0  0
  5  7  1  0  0  0  0
  7  8  1  0  0  0  0
  9 12  1  0  0  0  0
  8 10  1  0  0  0  0
  3 11  1  0  0  0  0
 11 12  2  0  0  0  0
  5 13  2  0  0  0  0
 10 14  2  0  0  0  0
  6 15  1  0  0  0  0
 16 21  1  0  0  0  0
 16 17  2  0  0  0  0
 10 18  1  0  0  0  0
 12 19  1  0  0  0  0
  1 20  1  0  0  0  0
  7 21  1  0  0  0  0
  8 22  1  0  0  0  0
  2 23  1  0  0  0  0
 20 24  1  0  0  0  0
 24 25  1  0  0  0  0
  4  6  1  0  0  0  0
 23 25  1  0  0  0  0
 15 19  2  0  0  0  0
 17 22  1  0  0  0  0
M  END
> <MOLFORMULA>
C20 H21 N O4

> <MOLWEIGHT>
3.393889000000000e+002

> <IDNUMBER>
AN-153/I294657

> <PRICE>
EUR 130/10 mg

> <Similarity score>
0.22

$$$$

  -OEChem-04222410502D

 34 38  0     0  0  0  0  0  0999 V2000
   -2.8583    3.2500    0.0000 C   0  0  0  0  0  0  0  0  0  0  0  0
   -2.8583    4.2417    0.0000 N   0  0  3  0  0  0  0  0  0  0  0  0
   -1.9875    2.7500    0.0000 C   0  0  0  0  0  0  0  0  0  0  0  0
   -3.8125    4.5542    0.0000 N   0  0  0  0  0  0  0  0  0  0  0  0
   -3.8125    2.9333    0.0000 C   0  0  0  0  0  0  0  0  0  0  0  0
   -1.9875    1.7500    0.0000 N   0  0  3  0  0  0  0  0  0  0  0  0
   -4.4083    3.7458    0.0000 C   0  0  0  0  0  0  0  0  0  0  0  0
   -1.1333    3.2500    0.0000 N   0  0  0  0  0  0  0  0  0  0  0  0
   -1.1333    0.2500    0.0000 C   0  0  3  0  0  0  0  0  0  0  0  0
   -1.9875    4.7542    0.0000 C   0  0  0  0  0  0  0  0  0  0  0  0
   -1.1333    1.2500    0.0000 C   0  0  0  0  0  0  0  0  0  0  0  0
   -0.2583   -0.2542    0.0000 C   0  0  0  0  0  0  0  0  0  0  0  0
   -1.1333    4.2417    0.0000 C   0  0  0  0  0  0  0  0  0  0  0  0
    3.1917   -3.2417    0.0000 C   0  0  0  0  0  0  0  0  0  0  0  0
    4.0625   -2.7417    0.0000 C   0  0  0  0  0  0  0  0  0  0  0  0
   -0.2708   -1.2542    0.0000 O   0  0  0  0  0  0  0  0  0  0  0  0
    2.3292   -2.7542    0.0000 C   0  0  0  0  0  0  0  0  0  0  0  0
    0.6000    0.2458    0.0000 N   0  0  0  0  0  0  0  0  0  0  0  0
    4.0500   -1.7542    0.0000 C   0  0  0  0  0  0  0  0  0  0  0  0
   -2.8583    1.2500    0.0000 C   0  0  0  0  0  0  0  0  0  0  0  0
   -4.2208    2.0333    0.0000 C   0  0  0  0  0  0  0  0  0  0  0  0
    2.3292   -1.7542    0.0000 C   0  0  0  0  0  0  0  0  0  0  0  0
    3.1917   -1.2542    0.0000 C   0  0  0  0  0  0  0  0  0  0  0  0
    3.1917   -4.2542    0.0000 O   0  0  0  0  0  0  0  0  0  0  0  0
   -2.0000   -0.2417    0.0000 C   0  0  0  0  0  0  0  0  0  0  0  0
    4.9292   -3.2417    0.0000 O   0  0  0  0  0  0  0  0  0  0  0  0
   -5.3958    3.6458    0.0000 C   0  0  0  0  0  0  0  0  0  0  0  0
    1.4667   -0.2542    0.0000 C   0  0  0  0  0  0  0  0  0  0  0  0
   -2.8583    0.2625    0.0000 C   0  0  0  0  0  0  0  0  0  0  0  0
    1.4625   -1.2542    0.0000 C   0  0  0  0  0  0  0  0  0  0  0  0
    4.0625   -4.7542    0.0000 C   0  0  0  0  0  0  0  0  0  0  0  0
    5.8042   -2.7417    0.0000 C   0  0  0  0  0  0  0  0  0  0  0  0
   -5.2208    1.9250    0.0000 C   0  0  0  0  0  0  0  0  0  0  0  0
   -5.8083    2.7375    0.0000 C   0  0  0  0  0  0  0  0  0  0  0  0
  1  2  1  0  0  0  0
  1  3  1  0  0  0  0
  2  4  1  0  0  0  0
  1  5  2  0  0  0  0
  3  6  1  0  0  0  0
  5  7  1  0  0  0  0
  3  8  2  0  0  0  0
  9 11  1  0  0  0  0
  2 10  1  0  0  0  0
  6 11  1  0  0  0  0
  9 12  1  0  0  0  0
  8 13  1  0  0  0  0
 14 17  1  0  0  0  0
 15 19  1  0  0  0  0
 12 16  2  0  0  0  0
 17 22  2  0  0  0  0
 12 18  1  0  0  0  0
 19 23  2  0  0  0  0
  6 20  1  0  0  0  0
  5 21  1  0  0  0  0
 22 30  1  0  0  0  0
 22 23  1  0  0  0  0
 14 24  1  0  0  0  0
 25 29  1  0  0  0  0
 15 26  1  0  0  0  0
  7 27  1  0  0  0  0
 18 28  1  0  0  0  0
 20 29  1  0  0  0  0
 28 30  1  0  0  0  0
 24 31  1  0  0  0  0
 26 32  1  0  0  0  0
 21 33  1  0  0  0  0
 33 34  1  0  0  0  0
  4  7  2  0  0  0  0
 10 13  2  0  0  0  0
 27 34  1  0  0  0  0
  9 25  1  0  0  0  0
 14 15  2  0  0  0  0
M  END
> <MOLFORMULA>
C26 H33 N5 O3

> <MOLWEIGHT>
4.635787000000000e+002

> <IDNUMBER>
AT-687/PE21897

> <PRICE>
EUR 80/10 mg

> <Similarity score>
0.22

$$$$

  -OEChem-04222410502D

 26 29  0     0  0  0  0  0  0999 V2000
    5.4167    0.8875    0.0000 C   0  0  0  0  0  0  0  0  0  0  0  0
    5.4167    1.7125    0.0000 C   0  0  0  0  0  0  0  0  0  0  0  0
    6.1417    0.4750    0.0000 N   0  0  0  0  0  0  0  0  0  0  0  0
    4.7125    0.4750    0.0000 N   0  0  3  0  0  0  0  0  0  0  0  0
    6.8542    1.7125    0.0000 N   0  0  0  0  0  0  0  0  0  0  0  0
    6.1417    2.1250    0.0000 C   0  0  0  0  0  0  0  0  0  0  0  0
    2.5667   -1.5875    0.0000 C   0  0  0  0  0  0  0  0  0  0  0  0
    6.8542    0.8875    0.0000 C   0  0  0  0  0  0  0  0  0  0  0  0
    2.5667   -0.7625    0.0000 N   0  0  0  0  0  0  0  0  0  0  0  0
    3.9917    0.8875    0.0000 C   0  0  0  0  0  0  0  0  0  0  0  0
    4.7125   -0.3500    0.0000 C   0  0  0  0  0  0  0  0  0  0  0  0
    3.2792   -2.0000    0.0000 O   0  0  0  0  0  0  0  0  0  0  0  0
    1.8542   -2.0000    0.0000 C   0  0  0  0  0  0  0  0  0  0  0  0
    0.4250   -2.8250    0.0000 N   0  0  0  0  0  0  0  0  0  0  0  0
    3.2792   -0.3500    0.0000 C   0  0  3  0  0  0  0  0  0  0  0  0
    3.9917   -0.7625    0.0000 C   0  0  0  0  0  0  0  0  0  0  0  0
    3.2792    0.4750    0.0000 C   0  0  0  0  0  0  0  0  0  0  0  0
    4.7125    2.1333    0.0000 C   0  0  0  0  0  0  0  0  0  0  0  0
    6.1417    2.9583    0.0000 C   0  0  0  0  0  0  0  0  0  0  0  0
    7.5667    0.4750    0.0000 C   0  0  0  0  0  0  0  0  0  0  0  0
    0.4250   -2.0042    0.0000 C   0  0  0  0  0  0  0  0  0  0  0  0
    1.1375   -3.2375    0.0000 C   0  0  0  0  0  0  0  0  0  0  0  0
    1.1375   -1.5875    0.0000 C   0  0  0  0  0  0  0  0  0  0  0  0
    1.8542   -2.8292    0.0000 C   0  0  0  0  0  0  0  0  0  0  0  0
    4.7167    2.9583    0.0000 C   0  0  0  0  0  0  0  0  0  0  0  0
    5.4375    3.3583    0.0000 C   0  0  0  0  0  0  0  0  0  0  0  0
  1  2  1  0  0  0  0
  1  3  2  0  0  0  0
  1  4  1  0  0  0  0
  5  8  2  0  0  0  0
  2  6  2  0  0  0  0
  7  9  1  0  0  0  0
  3  8  1  0  0  0  0
  9 15  1  0  0  0  0
  4 10  1  0  0  0  0
  4 11  1  0  0  0  0
  7 12  2  0  0  0  0
  7 13  1  0  0  0  0
 14 22  1  0  0  0  0
 15 16  1  0  0  0  0
 11 16  1  0  0  0  0
 10 17  1  0  0  0  0
  2 18  1  0  0  0  0
  6 19  1  0  0  0  0
  8 20  1  0  0  0  0
 21 23  1  0  0  0  0
 22 24  2  0  0  0  0
 13 23  2  0  0  0  0
 13 24  1  0  0  0  0
 18 25  1  0  0  0  0
 25 26  1  0  0  0  0
  5  6  1  0  0  0  0
 15 17  1  0  0  0  0
 19 26  1  0  0  0  0
 14 21  2  0  0  0  0
M  END
> <MOLFORMULA>
C20 H25 N5 O

> <MOLWEIGHT>
3.514515000000000e+002

> <IDNUMBER>
AT-687/SK01680

> <PRICE>
EUR 80/10 mg

> <Similarity score>
0.22

$$$$

  -OEChem-04222410502D

 30 34  0     0  0  0  0  0  0999 V2000
    0.9167   -2.7583    0.0000 N   0  0  3  0  0  0  0  0  0  0  0  0
    0.5083   -1.8417    0.0000 C   0  0  0  0  0  0  0  0  0  0  0  0
    1.9125   -2.6542    0.0000 C   0  0  0  0  0  0  0  0  0  0  0  0
    0.1292    1.2208    0.0000 C   0  0  0  0  0  0  0  0  0  0  0  0
    1.2542   -1.1750    0.0000 C   0  0  3  0  0  0  0  0  0  0  0  0
    0.9375    1.8083    0.0000 C   0  0  0  0  0  0  0  0  0  0  0  0
    2.1167   -1.6750    0.0000 C   0  0  0  0  0  0  0  0  0  0  0  0
    1.1500   -0.1792    0.0000 N   0  0  3  0  0  0  0  0  0  0  0  0
   -0.6792    1.8083    0.0000 N   0  0  0  0  0  0  0  0  0  0  0  0
    0.6292    2.7625    0.0000 C   0  0  0  0  0  0  0  0  0  0  0  0
    0.4167   -3.6208    0.0000 C   0  0  0  0  0  0  0  0  0  0  0  0
   -0.3708    2.7625    0.0000 C   0  0  0  0  0  0  0  0  0  0  0  0
    0.2333    0.2292    0.0000 C   0  0  0  0  0  0  0  0  0  0  0  0
    1.8542    1.4042    0.0000 C   0  0  0  0  0  0  0  0  0  0  0  0
   -0.5833   -3.6208    0.0000 C   0  0  0  0  0  0  0  0  0  0  0  0
   -0.4667   -1.6333    0.0000 O   0  0  0  0  0  0  0  0  0  0  0  0
    1.9583    0.4083    0.0000 C   0  0  0  0  0  0  0  0  0  0  0  0
    2.5792   -3.3958    0.0000 O   0  0  0  0  0  0  0  0  0  0  0  0
    1.1292    3.6250    0.0000 C   0  0  0  0  0  0  0  0  0  0  0  0
   -0.8708    3.6250    0.0000 C   0  0  0  0  0  0  0  0  0  0  0  0
   -1.0833   -4.4875    0.0000 C   0  0  0  0  0  0  0  0  0  0  0  0
    0.6292    4.4875    0.0000 C   0  0  0  0  0  0  0  0  0  0  0  0
   -0.3708    4.4875    0.0000 C   0  0  0  0  0  0  0  0  0  0  0  0
    0.9167   -4.4875    0.0000 C   0  0  0  0  0  0  0  0  0  0  0  0
   -2.0833   -4.4875    0.0000 O   0  0  0  0  0  0  0  0  0  0  0  0
    1.1292    5.3542    0.0000 O   0  0  0  0  0  0  0  0  0  0  0  0
    0.4167   -5.3542    0.0000 C   0  0  0  0  0  0  0  0  0  0  0  0
   -0.5833   -5.3542    0.0000 C   0  0  0  0  0  0  0  0  0  0  0  0
    2.1292    5.3542    0.0000 C   0  0  0  0  0  0  0  0  0  0  0  0
   -2.5833   -5.3542    0.0000 C   0  0  0  0  0  0  0  0  0  0  0  0
  1  2  1  0  0  0  0
  1  3  1  0  0  0  0
  4 13  1  0  0  0  0
  2  5  1  0  0  0  0
  6 14  1  0  0  0  0
  3  7  1  0  0  0  0
  5  8  1  0  0  0  0
  4  9  1  0  0  0  0
  6 10  1  0  0  0  0
  1 11  1  0  0  0  0
  9 12  1  0  0  0  0
  8 13  1  0  0  0  0
 14 17  1  0  0  0  0
 11 15  2  0  0  0  0
  2 16  2  0  0  0  0
  8 17  1  0  0  0  0
  3 18  2  0  0  0  0
 10 19  2  0  0  0  0
 12 20  2  0  0  0  0
 15 21  1  0  0  0  0
 19 22  1  0  0  0  0
 20 23  1  0  0  0  0
 11 24  1  0  0  0  0
 21 25  1  0  0  0  0
 22 26  1  0  0  0  0
 24 27  2  0  0  0  0
 27 28  1  0  0  0  0
 26 29  1  0  0  0  0
 25 30  1  0  0  0  0
  5  7  1  0  0  0  0
 21 28  2  0  0  0  0
  4  6  2  0  0  0  0
 10 12  1  0  0  0  0
 22 23  2  0  0  0  0
M  END
> <MOLFORMULA>
C23 H23 N3 O4

> <MOLWEIGHT>
4.054517000000000e+002

> <IDNUMBER>
AN-153/NB21453

> <PRICE>
EUR 130/10 mg

> <Similarity score>
0.22

$$$$

  -OEChem-04222410502D

 30 34  0     0  0  0  0  0  0999 V2000
    0.6667   -1.4583    0.0000 N   0  0  3  0  0  0  0  0  0  0  0  0
    0.2583   -0.5458    0.0000 C   0  0  0  0  0  0  0  0  0  0  0  0
    1.6625   -1.3542    0.0000 C   0  0  0  0  0  0  0  0  0  0  0  0
   -0.1208    2.5208    0.0000 C   0  0  0  0  0  0  0  0  0  0  0  0
    1.0042    0.1250    0.0000 C   0  0  3  0  0  0  0  0  0  0  0  0
    1.8667   -0.3750    0.0000 C   0  0  0  0  0  0  0  0  0  0  0  0
    0.6875    3.1083    0.0000 C   0  0  0  0  0  0  0  0  0  0  0  0
    0.8958    1.1208    0.0000 N   0  0  3  0  0  0  0  0  0  0  0  0
   -0.9292    3.1083    0.0000 N   0  0  0  0  0  0  0  0  0  0  0  0
    0.1667   -2.3250    0.0000 C   0  0  0  0  0  0  0  0  0  0  0  0
    0.3792    4.0542    0.0000 C   0  0  0  0  0  0  0  0  0  0  0  0
   -0.6208    4.0542    0.0000 C   0  0  0  0  0  0  0  0  0  0  0  0
   -0.0167    1.5250    0.0000 C   0  0  0  0  0  0  0  0  0  0  0  0
   -0.8333   -2.3250    0.0000 C   0  0  0  0  0  0  0  0  0  0  0  0
    1.6042    2.7042    0.0000 C   0  0  0  0  0  0  0  0  0  0  0  0
   -1.3333   -3.1875    0.0000 C   0  0  0  0  0  0  0  0  0  0  0  0
   -0.7167   -0.3375    0.0000 O   0  0  0  0  0  0  0  0  0  0  0  0
    0.6667   -3.1875    0.0000 C   0  0  0  0  0  0  0  0  0  0  0  0
    1.7083    1.7083    0.0000 C   0  0  0  0  0  0  0  0  0  0  0  0
    2.3292   -2.0958    0.0000 O   0  0  0  0  0  0  0  0  0  0  0  0
   -0.8333   -4.0542    0.0000 C   0  0  0  0  0  0  0  0  0  0  0  0
    0.1667   -4.0542    0.0000 C   0  0  0  0  0  0  0  0  0  0  0  0
   -1.3333   -1.4583    0.0000 O   0  0  0  0  0  0  0  0  0  0  0  0
    0.8792    4.9208    0.0000 C   0  0  0  0  0  0  0  0  0  0  0  0
   -1.3333   -4.9208    0.0000 O   0  0  0  0  0  0  0  0  0  0  0  0
   -1.1208    4.9208    0.0000 C   0  0  0  0  0  0  0  0  0  0  0  0
   -2.3333   -1.4583    0.0000 C   0  0  0  0  0  0  0  0  0  0  0  0
   -0.8333   -5.7875    0.0000 C   0  0  0  0  0  0  0  0  0  0  0  0
    0.3792    5.7875    0.0000 C   0  0  0  0  0  0  0  0  0  0  0  0
   -0.6208    5.7875    0.0000 C   0  0  0  0  0  0  0  0  0  0  0  0
  1  2  1  0  0  0  0
  1  3  1  0  0  0  0
  4 13  1  0  0  0  0
  2  5  1  0  0  0  0
  3  6  1  0  0  0  0
  7 15  1  0  0  0  0
  5  8  1  0  0  0  0
  4  9  1  0  0  0  0
  1 10  1  0  0  0  0
  7 11  1  0  0  0  0
  9 12  1  0  0  0  0
  8 13  1  0  0  0  0
 10 14  1  0  0  0  0
 15 19  1  0  0  0  0
 14 16  2  0  0  0  0
  2 17  2  0  0  0  0
 10 18  2  0  0  0  0
  8 19  1  0  0  0  0
  3 20  2  0  0  0  0
 21 22  2  0  0  0  0
 18 22  1  0  0  0  0
 14 23  1  0  0  0  0
 11 24  2  0  0  0  0
 21 25  1  0  0  0  0
 12 26  2  0  0  0  0
 23 27  1  0  0  0  0
 25 28  1  0  0  0  0
 24 29  1  0  0  0  0
 26 30  1  0  0  0  0
  5  6  1  0  0  0  0
 16 21  1  0  0  0  0
  4  7  2  0  0  0  0
 11 12  1  0  0  0  0
 29 30  2  0  0  0  0
M  END
> <MOLFORMULA>
C23 H23 N3 O4

> <MOLWEIGHT>
4.054517000000000e+002

> <IDNUMBER>
AN-153/NB21441

> <PRICE>
EUR 130/10 mg

> <Similarity score>
0.22

$$$$

  -OEChem-04222410502D

 33 37  0     0  0  0  0  0  0999 V2000
    7.0042    0.1833    0.0000 C   0  0  0  0  0  0  0  0  0  0  0  0
    7.6667    0.6625    0.0000 N   0  0  3  0  0  0  0  0  0  0  0  0
    2.4667    0.9333    0.0000 C   0  0  0  0  0  0  0  0  0  0  0  0
    7.2542   -0.6167    0.0000 C   0  0  0  0  0  0  0  0  0  0  0  0
    8.3375    0.1833    0.0000 N   0  0  0  0  0  0  0  0  0  0  0  0
    1.8542    0.3833    0.0000 C   0  0  0  0  0  0  0  0  0  0  0  0
    6.2167    0.4333    0.0000 C   0  0  0  0  0  0  0  0  0  0  0  0
    8.0792   -0.6167    0.0000 C   0  0  0  0  0  0  0  0  0  0  0  0
    2.3042    1.7458    0.0000 N   0  0  0  0  0  0  0  0  0  0  0  0
    3.2542    0.6708    0.0000 N   0  0  3  0  0  0  0  0  0  0  0  0
    0.9042    1.4458    0.0000 N   0  0  0  0  0  0  0  0  0  0  0  0
    1.0667    0.6458    0.0000 C   0  0  0  0  0  0  0  0  0  0  0  0
    1.5250    2.0083    0.0000 C   0  0  0  0  0  0  0  0  0  0  0  0
    5.6042   -0.1042    0.0000 N   0  0  0  0  0  0  0  0  0  0  0  0
    8.5667   -1.2750    0.0000 C   0  0  0  0  0  0  0  0  0  0  0  0
    6.0417    1.2458    0.0000 O   0  0  0  0  0  0  0  0  0  0  0  0
    3.4167   -0.1375    0.0000 C   0  0  0  0  0  0  0  0  0  0  0  0
    3.8750    1.2208    0.0000 C   0  0  0  0  0  0  0  0  0  0  0  0
    4.8250    0.1458    0.0000 C   0  0  3  0  0  0  0  0  0  0  0  0
    4.2042   -0.3917    0.0000 C   0  0  0  0  0  0  0  0  0  0  0  0
    4.6500    0.9583    0.0000 C   0  0  0  0  0  0  0  0  0  0  0  0
    8.2292   -2.0292    0.0000 C   0  0  0  0  0  0  0  0  0  0  0  0
    9.3875   -1.1917    0.0000 C   0  0  0  0  0  0  0  0  0  0  0  0
    7.6667    1.4875    0.0000 C   0  0  0  0  0  0  0  0  0  0  0  0
    9.5417   -2.6042    0.0000 C   0  0  0  0  0  0  0  0  0  0  0  0
    2.0042   -0.4292    0.0000 C   0  0  0  0  0  0  0  0  0  0  0  0
    9.8750   -1.8542    0.0000 C   0  0  0  0  0  0  0  0  0  0  0  0
    8.7167   -2.7000    0.0000 C   0  0  0  0  0  0  0  0  0  0  0  0
   10.0292   -3.2750    0.0000 F   0  0  0  0  0  0  0  0  0  0  0  0
    0.4500    0.1083    0.0000 C   0  0  0  0  0  0  0  0  0  0  0  0
    1.3542    2.8083    0.0000 C   0  0  0  0  0  0  0  0  0  0  0  0
    1.3917   -0.9667    0.0000 C   0  0  0  0  0  0  0  0  0  0  0  0
    0.6167   -0.7042    0.0000 C   0  0  0  0  0  0  0  0  0  0  0  0
  1  2  1  0  0  0  0
  3 10  1  0  0  0  0
  1  4  2  0  0  0  0
  2  5  1  0  0  0  0
  3  6  1  0  0  0  0
  1  7  1  0  0  0  0
  4  8  1  0  0  0  0
  3  9  2  0  0  0  0
 10 18  1  0  0  0  0
 11 13  2  0  0  0  0
  6 12  2  0  0  0  0
  9 13  1  0  0  0  0
  7 14  1  0  0  0  0
  8 15  1  0  0  0  0
  7 16  2  0  0  0  0
 17 20  1  0  0  0  0
 18 21  1  0  0  0  0
 14 19  1  0  0  0  0
 19 20  1  0  0  0  0
 19 21  1  0  0  0  0
 15 22  1  0  0  0  0
 15 23  2  0  0  0  0
  2 24  1  0  0  0  0
 25 27  2  0  0  0  0
  6 26  1  0  0  0  0
 23 27  1  0  0  0  0
 22 28  2  0  0  0  0
 25 29  1  0  0  0  0
 12 30  1  0  0  0  0
 13 31  1  0  0  0  0
 26 32  1  0  0  0  0
 32 33  1  0  0  0  0
  5  8  2  0  0  0  0
 10 17  1  0  0  0  0
 25 28  1  0  0  0  0
 11 12  1  0  0  0  0
 30 33  1  0  0  0  0
M  END
> <MOLFORMULA>
C25 H29 F N6 O

> <MOLWEIGHT>
4.485431000000000e+002

> <IDNUMBER>
AT-687/SK01664

> <PRICE>
EUR 80/10 mg

> <Similarity score>
0.22

$$$$

  -OEChem-04222410502D

 32 36  0     0  0  0  0  0  0999 V2000
    0.6667   -2.3250    0.0000 N   0  0  3  0  0  0  0  0  0  0  0  0
    0.2583   -1.4083    0.0000 C   0  0  0  0  0  0  0  0  0  0  0  0
    1.6625   -2.2208    0.0000 C   0  0  0  0  0  0  0  0  0  0  0  0
   -0.1208    1.6542    0.0000 C   0  0  0  0  0  0  0  0  0  0  0  0
    1.0042   -0.7417    0.0000 C   0  0  3  0  0  0  0  0  0  0  0  0
    0.1667   -3.1875    0.0000 C   0  0  0  0  0  0  0  0  0  0  0  0
    0.6875    2.2417    0.0000 C   0  0  0  0  0  0  0  0  0  0  0  0
    1.8667   -1.2417    0.0000 C   0  0  0  0  0  0  0  0  0  0  0  0
    0.9000    0.2542    0.0000 N   0  0  3  0  0  0  0  0  0  0  0  0
   -0.9292    2.2417    0.0000 N   0  0  0  0  0  0  0  0  0  0  0  0
    0.3792    3.1958    0.0000 C   0  0  0  0  0  0  0  0  0  0  0  0
   -0.6208    3.1958    0.0000 C   0  0  0  0  0  0  0  0  0  0  0  0
   -0.0167    0.6625    0.0000 C   0  0  0  0  0  0  0  0  0  0  0  0
    0.6667   -4.0542    0.0000 C   0  0  0  0  0  0  0  0  0  0  0  0
    1.6042    1.8375    0.0000 C   0  0  0  0  0  0  0  0  0  0  0  0
   -0.7167   -1.2000    0.0000 O   0  0  0  0  0  0  0  0  0  0  0  0
   -0.8333   -3.1875    0.0000 C   0  0  0  0  0  0  0  0  0  0  0  0
    1.7083    0.8417    0.0000 C   0  0  0  0  0  0  0  0  0  0  0  0
    2.3292   -2.9625    0.0000 O   0  0  0  0  0  0  0  0  0  0  0  0
    0.8792    4.0542    0.0000 C   0  0  0  0  0  0  0  0  0  0  0  0
   -1.1208    4.0542    0.0000 C   0  0  0  0  0  0  0  0  0  0  0  0
   -1.3333   -4.0542    0.0000 C   0  0  0  0  0  0  0  0  0  0  0  0
    0.1667   -4.9208    0.0000 C   0  0  0  0  0  0  0  0  0  0  0  0
    0.3792    4.9208    0.0000 C   0  0  0  0  0  0  0  0  0  0  0  0
   -0.6208    4.9208    0.0000 C   0  0  0  0  0  0  0  0  0  0  0  0
   -0.8333   -4.9208    0.0000 C   0  0  0  0  0  0  0  0  0  0  0  0
   -1.3333   -2.3250    0.0000 O   0  0  0  0  0  0  0  0  0  0  0  0
    0.6667   -5.7875    0.0000 O   0  0  0  0  0  0  0  0  0  0  0  0
    0.8792    5.7875    0.0000 O   0  0  0  0  0  0  0  0  0  0  0  0
   -2.3333   -2.3250    0.0000 C   0  0  0  0  0  0  0  0  0  0  0  0
    1.6667   -5.7875    0.0000 C   0  0  0  0  0  0  0  0  0  0  0  0
    1.8792    5.7875    0.0000 C   0  0  0  0  0  0  0  0  0  0  0  0
  1  2  1  0  0  0  0
  1  3  1  0  0  0  0
  4 13  1  0  0  0  0
  2  5  1  0  0  0  0
  1  6  1  0  0  0  0
  7 15  1  0  0  0  0
  3  8  1  0  0  0  0
  5  9  1  0  0  0  0
  4 10  1  0  0  0  0
  7 11  1  0  0  0  0
 10 12  1  0  0  0  0
  9 13  1  0  0  0  0
  6 14  2  0  0  0  0
 15 18  1  0  0  0  0
  2 16  2  0  0  0  0
  6 17  1  0  0  0  0
  9 18  1  0  0  0  0
  3 19  2  0  0  0  0
 11 20  2  0  0  0  0
 12 21  2  0  0  0  0
 17 22  2  0  0  0  0
 14 23  1  0  0  0  0
 20 24  1  0  0  0  0
 21 25  1  0  0  0  0
 22 26  1  0  0  0  0
 17 27  1  0  0  0  0
 23 28  1  0  0  0  0
 24 29  1  0  0  0  0
 27 30  1  0  0  0  0
 28 31  1  0  0  0  0
 29 32  1  0  0  0  0
  5  8  1  0  0  0  0
 23 26  2  0  0  0  0
  4  7  2  0  0  0  0
 11 12  1  0  0  0  0
 24 25  2  0  0  0  0
M  END
> <MOLFORMULA>
C24 H25 N3 O5

> <MOLWEIGHT>
4.354775000000000e+002

> <IDNUMBER>
AN-153/NB21462

> <PRICE>
EUR 130/10 mg

> <Similarity score>
0.22

$$$$

  -OEChem-04222410502D

 30 34  0     0  0  0  0  0  0999 V2000
   -1.9833    2.5083    0.0000 C   0  0  0  0  0  0  0  0  0  0  0  0
   -1.9833    3.5083    0.0000 N   0  0  3  0  0  0  0  0  0  0  0  0
   -1.1208    2.0208    0.0000 C   0  0  0  0  0  0  0  0  0  0  0  0
   -2.9375    3.8208    0.0000 N   0  0  0  0  0  0  0  0  0  0  0  0
   -2.9375    2.1958    0.0000 C   0  0  0  0  0  0  0  0  0  0  0  0
   -1.1208    1.0083    0.0000 N   0  0  3  0  0  0  0  0  0  0  0  0
   -3.5208    3.0083    0.0000 C   0  0  0  0  0  0  0  0  0  0  0  0
    0.6042   -0.9917    0.0000 C   0  0  0  0  0  0  0  0  0  0  0  0
   -0.2500    2.5083    0.0000 N   0  0  0  0  0  0  0  0  0  0  0  0
   -0.2583   -0.4917    0.0000 C   0  0  3  0  0  0  0  0  0  0  0  0
   -0.2500    0.5125    0.0000 C   0  0  0  0  0  0  0  0  0  0  0  0
   -1.1208    4.0042    0.0000 C   0  0  0  0  0  0  0  0  0  0  0  0
    0.6042   -2.0000    0.0000 N   0  0  0  0  0  0  0  0  0  0  0  0
   -0.2500    3.5083    0.0000 C   0  0  0  0  0  0  0  0  0  0  0  0
    1.4750   -0.5000    0.0000 O   0  0  0  0  0  0  0  0  0  0  0  0
    1.4667   -2.4917    0.0000 C   0  0  0  0  0  0  0  0  0  0  0  0
   -1.9833    0.5125    0.0000 C   0  0  0  0  0  0  0  0  0  0  0  0
   -3.3458    1.2833    0.0000 C   0  0  0  0  0  0  0  0  0  0  0  0
    3.2000   -3.5042    0.0000 C   0  0  0  0  0  0  0  0  0  0  0  0
   -1.1250   -0.9792    0.0000 C   0  0  0  0  0  0  0  0  0  0  0  0
    2.3417   -2.0000    0.0000 C   0  0  0  0  0  0  0  0  0  0  0  0
    1.4542   -3.4917    0.0000 C   0  0  0  0  0  0  0  0  0  0  0  0
    3.2000   -2.5125    0.0000 C   0  0  0  0  0  0  0  0  0  0  0  0
    2.3167   -4.0000    0.0000 C   0  0  0  0  0  0  0  0  0  0  0  0
   -4.5208    2.9000    0.0000 C   0  0  0  0  0  0  0  0  0  0  0  0
    4.0542   -4.0042    0.0000 O   0  0  0  0  0  0  0  0  0  0  0  0
   -1.9833   -0.4792    0.0000 C   0  0  0  0  0  0  0  0  0  0  0  0
    4.9250   -3.5167    0.0000 C   0  0  0  0  0  0  0  0  0  0  0  0
   -4.3458    1.1833    0.0000 C   0  0  0  0  0  0  0  0  0  0  0  0
   -4.9333    1.9958    0.0000 C   0  0  0  0  0  0  0  0  0  0  0  0
  1  2  1  0  0  0  0
  1  3  1  0  0  0  0
  2  4  1  0  0  0  0
  1  5  2  0  0  0  0
  3  6  1  0  0  0  0
  5  7  1  0  0  0  0
  8 10  1  0  0  0  0
  3  9  2  0  0  0  0
 10 11  1  0  0  0  0
  6 11  1  0  0  0  0
  2 12  1  0  0  0  0
  8 13  1  0  0  0  0
  9 14  1  0  0  0  0
  8 15  2  0  0  0  0
 13 16  1  0  0  0  0
  6 17  1  0  0  0  0
  5 18  1  0  0  0  0
 19 24  1  0  0  0  0
 20 27  1  0  0  0  0
 16 21  2  0  0  0  0
 16 22  1  0  0  0  0
 21 23  1  0  0  0  0
 22 24  2  0  0  0  0
  7 25  1  0  0  0  0
 19 26  1  0  0  0  0
 17 27  1  0  0  0  0
 26 28  1  0  0  0  0
 18 29  1  0  0  0  0
 29 30  1  0  0  0  0
  4  7  2  0  0  0  0
 12 14  2  0  0  0  0
 25 30  1  0  0  0  0
 10 20  1  0  0  0  0
 19 23  2  0  0  0  0
M  END
> <MOLFORMULA>
C23 H27 N5 O2

> <MOLWEIGHT>
4.054993000000000e+002

> <IDNUMBER>
AT-687/PE21865

> <PRICE>
EUR 80/10 mg

> <Similarity score>
0.22

$$$$

  -OEChem-04222410502D

 32 36  0     0  0  0  0  0  0999 V2000
   -1.9833    3.2500    0.0000 C   0  0  0  0  0  0  0  0  0  0  0  0
   -1.9833    4.2417    0.0000 N   0  0  3  0  0  0  0  0  0  0  0  0
   -1.1208    2.7458    0.0000 C   0  0  0  0  0  0  0  0  0  0  0  0
   -2.9458    4.5542    0.0000 N   0  0  0  0  0  0  0  0  0  0  0  0
   -2.9458    2.9333    0.0000 C   0  0  0  0  0  0  0  0  0  0  0  0
   -1.1208    1.7375    0.0000 N   0  0  3  0  0  0  0  0  0  0  0  0
   -3.5250    3.7458    0.0000 C   0  0  0  0  0  0  0  0  0  0  0  0
   -0.2583    3.2500    0.0000 N   0  0  0  0  0  0  0  0  0  0  0  0
   -0.2583    0.2500    0.0000 C   0  0  3  0  0  0  0  0  0  0  0  0
    0.6042   -0.2542    0.0000 C   0  0  0  0  0  0  0  0  0  0  0  0
   -1.1208    4.7542    0.0000 C   0  0  0  0  0  0  0  0  0  0  0  0
   -0.2583    1.2458    0.0000 C   0  0  0  0  0  0  0  0  0  0  0  0
   -0.2583    4.2417    0.0000 C   0  0  0  0  0  0  0  0  0  0  0  0
    1.4792    0.2375    0.0000 N   0  0  0  0  0  0  0  0  0  0  0  0
    0.6000   -1.2625    0.0000 O   0  0  0  0  0  0  0  0  0  0  0  0
    2.3375   -0.2625    0.0000 C   0  0  0  0  0  0  0  0  0  0  0  0
   -1.9833    1.2458    0.0000 C   0  0  0  0  0  0  0  0  0  0  0  0
   -3.3458    2.0250    0.0000 C   0  0  0  0  0  0  0  0  0  0  0  0
    3.1792   -1.7542    0.0000 C   0  0  0  0  0  0  0  0  0  0  0  0
    2.3375   -1.2500    0.0000 C   0  0  0  0  0  0  0  0  0  0  0  0
    3.1917   -2.7500    0.0000 C   0  0  0  0  0  0  0  0  0  0  0  0
   -1.1250   -0.2417    0.0000 C   0  0  0  0  0  0  0  0  0  0  0  0
   -4.5208    3.6458    0.0000 C   0  0  0  0  0  0  0  0  0  0  0  0
    4.0625   -3.2417    0.0000 O   0  0  0  0  0  0  0  0  0  0  0  0
   -1.9833    0.2583    0.0000 C   0  0  0  0  0  0  0  0  0  0  0  0
    1.4542   -2.7292    0.0000 C   0  0  0  0  0  0  0  0  0  0  0  0
    1.4542   -1.7292    0.0000 C   0  0  0  0  0  0  0  0  0  0  0  0
    2.3167   -3.2542    0.0000 C   0  0  0  0  0  0  0  0  0  0  0  0
    4.0542   -4.2500    0.0000 C   0  0  0  0  0  0  0  0  0  0  0  0
   -4.3458    1.9208    0.0000 C   0  0  0  0  0  0  0  0  0  0  0  0
   -4.9333    2.7250    0.0000 C   0  0  0  0  0  0  0  0  0  0  0  0
    4.9292   -4.7542    0.0000 C   0  0  0  0  0  0  0  0  0  0  0  0
  1  2  1  0  0  0  0
  1  3  1  0  0  0  0
  2  4  1  0  0  0  0
  1  5  2  0  0  0  0
  3  6  1  0  0  0  0
  5  7  1  0  0  0  0
  3  8  2  0  0  0  0
  9 12  1  0  0  0  0
  9 10  1  0  0  0  0
  2 11  1  0  0  0  0
  6 12  1  0  0  0  0
  8 13  1  0  0  0  0
 10 14  1  0  0  0  0
 10 15  2  0  0  0  0
 14 16  1  0  0  0  0
  6 17  1  0  0  0  0
  5 18  1  0  0  0  0
 19 20  2  0  0  0  0
 16 20  1  0  0  0  0
 19 21  1  0  0  0  0
 22 25  1  0  0  0  0
  7 23  1  0  0  0  0
 21 24  1  0  0  0  0
 17 25  1  0  0  0  0
 26 27  2  0  0  0  0
 20 27  1  0  0  0  0
 26 28  1  0  0  0  0
 24 29  1  0  0  0  0
 18 30  1  0  0  0  0
 30 31  1  0  0  0  0
 29 32  1  0  0  0  0
  4  7  2  0  0  0  0
 11 13  2  0  0  0  0
 23 31  1  0  0  0  0
  9 22  1  0  0  0  0
 21 28  2  0  0  0  0
M  END
> <MOLFORMULA>
C25 H31 N5 O2

> <MOLWEIGHT>
4.335529000000000e+002

> <IDNUMBER>
AT-687/PE21887

> <PRICE>
EUR 80/10 mg

> <Similarity score>
0.21

$$$$

  -OEChem-04222410502D

 32 36  0     0  0  0  0  0  0999 V2000
    0.1667   -1.8917    0.0000 N   0  0  3  0  0  0  0  0  0  0  0  0
   -0.2417   -0.9750    0.0000 C   0  0  0  0  0  0  0  0  0  0  0  0
    1.1625   -1.7875    0.0000 C   0  0  0  0  0  0  0  0  0  0  0  0
   -0.6208    2.0875    0.0000 C   0  0  0  0  0  0  0  0  0  0  0  0
    0.5042   -0.3083    0.0000 C   0  0  3  0  0  0  0  0  0  0  0  0
    0.1875    2.6750    0.0000 C   0  0  0  0  0  0  0  0  0  0  0  0
    1.3667   -0.8083    0.0000 C   0  0  0  0  0  0  0  0  0  0  0  0
    0.4000    0.6875    0.0000 N   0  0  3  0  0  0  0  0  0  0  0  0
   -1.4292    2.6750    0.0000 N   0  0  0  0  0  0  0  0  0  0  0  0
   -0.1208    3.6250    0.0000 C   0  0  0  0  0  0  0  0  0  0  0  0
   -0.3333   -2.7583    0.0000 C   0  0  0  0  0  0  0  0  0  0  0  0
    0.1667   -5.3542    0.0000 C   0  0  3  0  0  0  0  0  0  0  0  0
   -1.1208    3.6250    0.0000 C   0  0  0  0  0  0  0  0  0  0  0  0
   -0.5167    1.0917    0.0000 C   0  0  0  0  0  0  0  0  0  0  0  0
   -0.3333   -4.4875    0.0000 C   0  0  0  0  0  0  0  0  0  0  0  0
    0.1667   -3.6208    0.0000 C   0  0  0  0  0  0  0  0  0  0  0  0
    1.1042    2.2708    0.0000 C   0  0  0  0  0  0  0  0  0  0  0  0
   -1.2208   -0.7708    0.0000 O   0  0  0  0  0  0  0  0  0  0  0  0
    1.2083    1.2750    0.0000 C   0  0  0  0  0  0  0  0  0  0  0  0
    1.8292   -2.5292    0.0000 O   0  0  0  0  0  0  0  0  0  0  0  0
    0.3792    4.4875    0.0000 C   0  0  0  0  0  0  0  0  0  0  0  0
   -1.6208    4.4875    0.0000 C   0  0  0  0  0  0  0  0  0  0  0  0
   -0.7000   -5.8542    0.0000 F   0  0  0  0  0  0  0  0  0  0  0  0
    1.0333   -4.8542    0.0000 F   0  0  0  0  0  0  0  0  0  0  0  0
    0.6667   -6.2208    0.0000 F   0  0  0  0  0  0  0  0  0  0  0  0
   -0.1208    5.3542    0.0000 C   0  0  0  0  0  0  0  0  0  0  0  0
   -1.1208    5.3542    0.0000 C   0  0  0  0  0  0  0  0  0  0  0  0
   -1.3333   -2.7583    0.0000 C   0  0  0  0  0  0  0  0  0  0  0  0
    0.3792    6.2208    0.0000 O   0  0  0  0  0  0  0  0  0  0  0  0
   -1.3333   -4.4875    0.0000 C   0  0  0  0  0  0  0  0  0  0  0  0
   -1.8333   -3.6208    0.0000 C   0  0  0  0  0  0  0  0  0  0  0  0
    1.3792    6.2208    0.0000 C   0  0  0  0  0  0  0  0  0  0  0  0
  1  2  1  0  0  0  0
  1  3  1  0  0  0  0
  4 14  1  0  0  0  0
  2  5  1  0  0  0  0
  6 17  1  0  0  0  0
  3  7  1  0  0  0  0
  5  8  1  0  0  0  0
  4  9  1  0  0  0  0
  6 10  1  0  0  0  0
  1 11  1  0  0  0  0
 12 15  1  0  0  0  0
  9 13  1  0  0  0  0
  8 14  1  0  0  0  0
 15 16  1  0  0  0  0
 11 16  2  0  0  0  0
 17 19  1  0  0  0  0
  2 18  2  0  0  0  0
  8 19  1  0  0  0  0
  3 20  2  0  0  0  0
 10 21  2  0  0  0  0
 13 22  2  0  0  0  0
 12 23  1  0  0  0  0
 12 24  1  0  0  0  0
 12 25  1  0  0  0  0
 21 26  1  0  0  0  0
 22 27  1  0  0  0  0
 11 28  1  0  0  0  0
 26 29  1  0  0  0  0
 30 31  1  0  0  0  0
 28 31  2  0  0  0  0
 29 32  1  0  0  0  0
  5  7  1  0  0  0  0
 15 30  2  0  0  0  0
  4  6  2  0  0  0  0
 10 13  1  0  0  0  0
 26 27  2  0  0  0  0
M  END
> <MOLFORMULA>
C23 H20 F3 N3 O3

> <MOLWEIGHT>
4.434230000000000e+002

> <IDNUMBER>
AN-153/NB21454

> <PRICE>
EUR 130/10 mg

> <Similarity score>
0.21

$$$$

  -OEChem-04222410502D

 31 34  0     0  0  0  0  0  0999 V2000
   -0.4208   -2.4042    0.0000 C   0  0  0  0  0  0  0  0  0  0  0  0
   -1.2833   -1.9042    0.0000 C   0  0  0  0  0  0  0  0  0  0  0  0
    1.2667   -1.7000    0.0000 C   0  0  0  0  0  0  0  0  0  0  0  0
   -2.1500   -2.4042    0.0000 N   0  0  0  0  0  0  0  0  0  0  0  0
    0.2792   -1.7000    0.0000 C   0  0  0  0  0  0  0  0  0  0  0  0
   -0.4208   -3.4125    0.0000 C   0  0  0  0  0  0  0  0  0  0  0  0
   -1.2833   -0.9000    0.0000 N   0  0  3  0  0  0  0  0  0  0  0  0
   -1.2833   -3.9042    0.0000 N   0  0  0  0  0  0  0  0  0  0  0  0
    1.9667   -2.4042    0.0000 C   0  0  0  0  0  0  0  0  0  0  0  0
   -1.2833    1.1000    0.0000 N   0  0  3  0  0  0  0  0  0  0  0  0
    1.6542   -0.7792    0.0000 C   0  0  0  0  0  0  0  0  0  0  0  0
   -2.1500   -3.4042    0.0000 C   0  0  0  0  0  0  0  0  0  0  0  0
    1.9667   -3.4042    0.0000 N   0  0  3  0  0  0  0  0  0  0  0  0
   -1.2833    2.1083    0.0000 C   0  0  0  0  0  0  0  0  0  0  0  0
    0.2792   -4.1042    0.0000 C   0  0  0  0  0  0  0  0  0  0  0  0
   -2.1458   -0.4042    0.0000 C   0  0  0  0  0  0  0  0  0  0  0  0
   -0.4125   -0.4042    0.0000 C   0  0  0  0  0  0  0  0  0  0  0  0
   -0.4125    0.6000    0.0000 C   0  0  0  0  0  0  0  0  0  0  0  0
   -2.1458    0.6000    0.0000 C   0  0  0  0  0  0  0  0  0  0  0  0
    1.0417    0.0208    0.0000 O   0  0  0  0  0  0  0  0  0  0  0  0
   -2.1458    2.6083    0.0000 C   0  0  0  0  0  0  0  0  0  0  0  0
    1.2667   -4.1042    0.0000 C   0  0  0  0  0  0  0  0  0  0  0  0
    2.6417   -0.6417    0.0000 O   0  0  0  0  0  0  0  0  0  0  0  0
   -3.0208    2.0958    0.0000 F   0  0  0  0  0  0  0  0  0  0  0  0
    2.8917   -3.8042    0.0000 C   0  0  0  0  0  0  0  0  0  0  0  0
   -3.0250   -3.9167    0.0000 C   0  0  0  0  0  0  0  0  0  0  0  0
   -0.4125    2.6083    0.0000 C   0  0  0  0  0  0  0  0  0  0  0  0
   -2.1458    3.6083    0.0000 C   0  0  0  0  0  0  0  0  0  0  0  0
    3.0167    0.2958    0.0000 C   0  0  0  0  0  0  0  0  0  0  0  0
   -0.4125    3.6083    0.0000 C   0  0  0  0  0  0  0  0  0  0  0  0
   -1.2750    4.1042    0.0000 C   0  0  0  0  0  0  0  0  0  0  0  0
  1  2  1  0  0  0  0
  3  5  1  0  0  0  0
  2  4  2  0  0  0  0
  1  5  1  0  0  0  0
  1  6  2  0  0  0  0
  2  7  1  0  0  0  0
  6  8  1  0  0  0  0
  3  9  2  0  0  0  0
 10 18  1  0  0  0  0
  3 11  1  0  0  0  0
  8 12  2  0  0  0  0
 13 22  1  0  0  0  0
 10 14  1  0  0  0  0
  6 15  1  0  0  0  0
  7 16  1  0  0  0  0
  7 17  1  0  0  0  0
 17 18  1  0  0  0  0
 16 19  1  0  0  0  0
 11 20  2  0  0  0  0
 14 21  1  0  0  0  0
 15 22  1  0  0  0  0
 11 23  1  0  0  0  0
 21 24  1  0  0  0  0
 13 25  1  0  0  0  0
 12 26  1  0  0  0  0
 14 27  2  0  0  0  0
 21 28  2  0  0  0  0
 23 29  1  0  0  0  0
 27 30  1  0  0  0  0
 30 31  2  0  0  0  0
  4 12  1  0  0  0  0
  9 13  1  0  0  0  0
 10 19  1  0  0  0  0
 28 31  1  0  0  0  0
M  END
> <MOLFORMULA>
C23 H28 F N5 O2

> <MOLWEIGHT>
4.255052000000000e+002

> <IDNUMBER>
AT-057/J152433

> <PRICE>
EUR 73.08/10 mg

> <Similarity score>
0.21

$$$$

  -OEChem-04222410502D

 24 27  0     0  0  0  0  0  0999 V2000
    2.8625    1.2375    0.0000 C   0  0  0  0  0  0  0  0  0  0  0  0
    2.8542    2.0458    0.0000 C   0  0  0  0  0  0  0  0  0  0  0  0
    2.1750    0.8333    0.0000 N   0  0  0  0  0  0  0  0  0  0  0  0
    1.4750    2.0375    0.0000 C   0  0  0  0  0  0  0  0  0  0  0  0
    1.4792    1.2333    0.0000 C   0  0  0  0  0  0  0  0  0  0  0  0
    4.2458    1.2458    0.0000 N   0  0  3  0  0  0  0  0  0  0  0  0
    3.5542    0.8458    0.0000 C   0  0  0  0  0  0  0  0  0  0  0  0
    3.5458    2.4500    0.0000 C   0  0  0  0  0  0  0  0  0  0  0  0
    0.7750    2.4333    0.0000 C   0  0  0  0  0  0  0  0  0  0  0  0
    0.7750    0.8250    0.0000 C   0  0  0  0  0  0  0  0  0  0  0  0
    4.2417    2.0500    0.0000 C   0  0  0  0  0  0  0  0  0  0  0  0
    4.9375    0.8500    0.0000 C   0  0  0  0  0  0  0  0  0  0  0  0
    0.0833    2.0333    0.0000 C   0  0  0  0  0  0  0  0  0  0  0  0
    0.0833    1.2250    0.0000 C   0  0  0  0  0  0  0  0  0  0  0  0
    4.9417    0.0500    0.0000 C   0  0  0  0  0  0  0  0  0  0  0  0
   -0.6292    2.4458    0.0000 C   0  0  0  0  0  0  0  0  0  0  0  0
    5.6375   -0.3417    0.0000 C   0  0  0  0  0  0  0  0  0  0  0  0
    4.2500   -0.3500    0.0000 C   0  0  0  0  0  0  0  0  0  0  0  0
   -0.6292    3.2708    0.0000 C   0  0  0  0  0  0  0  0  0  0  0  0
   -1.3458    3.6833    0.0000 C   0  0  0  0  0  0  0  0  0  0  0  0
   -1.3458    4.5042    0.0000 C   0  0  0  0  0  0  0  0  0  0  0  0
    5.6458   -1.1417    0.0000 C   0  0  0  0  0  0  0  0  0  0  0  0
    4.2542   -1.1500    0.0000 C   0  0  0  0  0  0  0  0  0  0  0  0
    4.9500   -1.5500    0.0000 C   0  0  0  0  0  0  0  0  0  0  0  0
  1  2  2  0  0  0  0
  1  3  1  0  0  0  0
  2  4  1  0  0  0  0
  3  5  1  0  0  0  0
  6  7  1  0  0  0  0
  1  7  1  0  0  0  0
  2  8  1  0  0  0  0
  4  9  2  0  0  0  0
  5 10  2  0  0  0  0
  8 11  1  0  0  0  0
  6 12  1  0  0  0  0
  9 13  1  0  0  0  0
 10 14  1  0  0  0  0
 12 15  1  0  0  0  0
 13 16  1  0  0  0  0
 15 17  1  0  0  0  0
 15 18  2  0  0  0  0
 16 19  1  0  0  0  0
 19 20  1  0  0  0  0
 20 21  1  0  0  0  0
 17 22  2  0  0  0  0
 18 23  1  0  0  0  0
 22 24  1  0  0  0  0
  4  5  1  0  0  0  0
  6 11  1  0  0  0  0
 13 14  2  0  0  0  0
 23 24  2  0  0  0  0
M  END
> <MOLFORMULA>
C22 H26 N2

> <MOLWEIGHT>
3.184614000000000e+002

> <IDNUMBER>
AT-819/OC11984

> <PRICE>
EUR 192/10 mg

> <Similarity score>
0.21

$$$$

  -OEChem-04222410502D

 30 34  0     0  0  0  0  0  0999 V2000
    6.4792    0.0833    0.0000 C   0  0  0  0  0  0  0  0  0  0  0  0
    6.9667   -0.5750    0.0000 C   0  0  0  0  0  0  0  0  0  0  0  0
    1.5500   -0.4292    0.0000 N   0  0  3  0  0  0  0  0  0  0  0  0
    6.8167    0.8500    0.0000 N   0  0  0  0  0  0  0  0  0  0  0  0
    5.6625   -0.0000    0.0000 N   0  0  3  0  0  0  0  0  0  0  0  0
    8.1250    0.2625    0.0000 N   0  0  0  0  0  0  0  0  0  0  0  0
    7.7917   -0.4875    0.0000 C   0  0  0  0  0  0  0  0  0  0  0  0
    0.7167   -0.4292    0.0000 C   0  0  0  0  0  0  0  0  0  0  0  0
    7.6417    0.9333    0.0000 C   0  0  0  0  0  0  0  0  0  0  0  0
    1.8042    0.3583    0.0000 C   0  0  0  0  0  0  0  0  0  0  0  0
    2.8542   -1.0167    0.0000 C   0  0  0  0  0  0  0  0  0  0  0  0
    0.4667    0.3583    0.0000 C   0  0  0  0  0  0  0  0  0  0  0  0
    2.0375   -1.1042    0.0000 C   0  0  0  0  0  0  0  0  0  0  0  0
    1.1292    0.8375    0.0000 C   0  0  0  0  0  0  0  0  0  0  0  0
    3.1917   -0.2667    0.0000 N   0  0  0  0  0  0  0  0  0  0  0  0
    5.1750    0.6625    0.0000 C   0  0  0  0  0  0  0  0  0  0  0  0
    5.3292   -0.7542    0.0000 C   0  0  0  0  0  0  0  0  0  0  0  0
    3.3417   -1.6875    0.0000 O   0  0  0  0  0  0  0  0  0  0  0  0
    4.5042   -0.8417    0.0000 C   0  0  0  0  0  0  0  0  0  0  0  0
    4.3625    0.5833    0.0000 C   0  0  0  0  0  0  0  0  0  0  0  0
    4.0250   -0.1792    0.0000 C   0  0  3  0  0  0  0  0  0  0  0  0
    6.6500   -1.3417    0.0000 C   0  0  0  0  0  0  0  0  0  0  0  0
    8.2792   -1.1542    0.0000 C   0  0  0  0  0  0  0  0  0  0  0  0
    7.9667    1.6875    0.0000 C   0  0  0  0  0  0  0  0  0  0  0  0
    2.5625    0.6958    0.0000 C   0  0  0  0  0  0  0  0  0  0  0  0
    1.2167    1.6625    0.0000 C   0  0  0  0  0  0  0  0  0  0  0  0
    7.1292   -2.0042    0.0000 C   0  0  0  0  0  0  0  0  0  0  0  0
    7.9542   -1.9125    0.0000 C   0  0  0  0  0  0  0  0  0  0  0  0
    2.6417    1.5125    0.0000 C   0  0  0  0  0  0  0  0  0  0  0  0
    1.9625    1.9958    0.0000 C   0  0  0  0  0  0  0  0  0  0  0  0
  1  2  1  0  0  0  0
  3 13  1  0  0  0  0
  1  4  2  0  0  0  0
  1  5  1  0  0  0  0
  6  9  2  0  0  0  0
  2  7  2  0  0  0  0
  3  8  1  0  0  0  0
  4  9  1  0  0  0  0
  3 10  1  0  0  0  0
 11 15  1  0  0  0  0
  8 12  2  0  0  0  0
 11 13  1  0  0  0  0
 10 14  2  0  0  0  0
 15 21  1  0  0  0  0
  5 16  1  0  0  0  0
  5 17  1  0  0  0  0
 11 18  2  0  0  0  0
 17 19  1  0  0  0  0
 16 20  1  0  0  0  0
 19 21  1  0  0  0  0
  2 22  1  0  0  0  0
  7 23  1  0  0  0  0
  9 24  1  0  0  0  0
 10 25  1  0  0  0  0
 14 26  1  0  0  0  0
 22 27  1  0  0  0  0
 27 28  1  0  0  0  0
 25 29  2  0  0  0  0
 29 30  1  0  0  0  0
  6  7  1  0  0  0  0
 20 21  1  0  0  0  0
 23 28  1  0  0  0  0
 12 14  1  0  0  0  0
 26 30  2  0  0  0  0
M  END
> <MOLFORMULA>
C24 H29 N5 O

> <MOLWEIGHT>
4.035271000000000e+002

> <IDNUMBER>
AT-687/SK01653

> <PRICE>
EUR 80/10 mg

> <Similarity score>
0.21

$$$$

  -OEChem-04222410502D

 31 36  0     0  0  0  0  0  0999 V2000
    0.7083   -2.3833    0.0000 N   0  0  3  0  0  0  0  0  0  0  0  0
    0.3000   -1.4708    0.0000 C   0  0  0  0  0  0  0  0  0  0  0  0
    1.7000   -2.2792    0.0000 C   0  0  0  0  0  0  0  0  0  0  0  0
   -0.0792    1.5917    0.0000 C   0  0  0  0  0  0  0  0  0  0  0  0
    1.0458   -0.8042    0.0000 C   0  0  3  0  0  0  0  0  0  0  0  0
    0.7292    2.1792    0.0000 C   0  0  0  0  0  0  0  0  0  0  0  0
    1.9083   -1.3042    0.0000 C   0  0  0  0  0  0  0  0  0  0  0  0
    0.9375    0.1917    0.0000 N   0  0  3  0  0  0  0  0  0  0  0  0
   -0.8875    2.1792    0.0000 N   0  0  0  0  0  0  0  0  0  0  0  0
    0.2083   -3.2500    0.0000 C   0  0  0  0  0  0  0  0  0  0  0  0
    0.4208    3.1333    0.0000 C   0  0  0  0  0  0  0  0  0  0  0  0
   -0.5792    3.1333    0.0000 C   0  0  0  0  0  0  0  0  0  0  0  0
    0.0250    0.6000    0.0000 C   0  0  0  0  0  0  0  0  0  0  0  0
   -0.7917   -3.2500    0.0000 C   0  0  0  0  0  0  0  0  0  0  0  0
   -1.2917   -4.1167    0.0000 C   0  0  0  0  0  0  0  0  0  0  0  0
    1.6458    1.7750    0.0000 C   0  0  0  0  0  0  0  0  0  0  0  0
   -0.6792   -1.2625    0.0000 O   0  0  0  0  0  0  0  0  0  0  0  0
    1.7500    0.7792    0.0000 C   0  0  0  0  0  0  0  0  0  0  0  0
    2.3708   -3.0250    0.0000 O   0  0  0  0  0  0  0  0  0  0  0  0
   -0.7917   -4.9833    0.0000 C   0  0  0  0  0  0  0  0  0  0  0  0
   -2.2708   -4.3250    0.0000 O   0  0  0  0  0  0  0  0  0  0  0  0
    0.9208    4.0000    0.0000 C   0  0  0  0  0  0  0  0  0  0  0  0
   -1.4625   -5.7250    0.0000 O   0  0  0  0  0  0  0  0  0  0  0  0
    0.7083   -4.1167    0.0000 C   0  0  0  0  0  0  0  0  0  0  0  0
   -2.3750   -5.3208    0.0000 C   0  0  0  0  0  0  0  0  0  0  0  0
   -1.0792    4.0000    0.0000 C   0  0  0  0  0  0  0  0  0  0  0  0
    0.2083   -4.9833    0.0000 C   0  0  0  0  0  0  0  0  0  0  0  0
    0.4208    4.8583    0.0000 C   0  0  0  0  0  0  0  0  0  0  0  0
   -0.5792    4.8583    0.0000 C   0  0  0  0  0  0  0  0  0  0  0  0
    0.9208    5.7250    0.0000 O   0  0  0  0  0  0  0  0  0  0  0  0
    1.9208    5.7250    0.0000 C   0  0  0  0  0  0  0  0  0  0  0  0
  1  2  1  0  0  0  0
  1  3  1  0  0  0  0
  4 13  1  0  0  0  0
  2  5  1  0  0  0  0
  6 16  1  0  0  0  0
  3  7  1  0  0  0  0
  5  8  1  0  0  0  0
  4  9  1  0  0  0  0
  1 10  1  0  0  0  0
  6 11  1  0  0  0  0
  9 12  1  0  0  0  0
  8 13  1  0  0  0  0
 10 14  2  0  0  0  0
 14 15  1  0  0  0  0
 16 18  1  0  0  0  0
  2 17  2  0  0  0  0
  8 18  1  0  0  0  0
  3 19  2  0  0  0  0
 20 27  1  0  0  0  0
 15 21  1  0  0  0  0
 11 22  2  0  0  0  0
 20 23  1  0  0  0  0
 10 24  1  0  0  0  0
 21 25  1  0  0  0  0
 12 26  2  0  0  0  0
 24 27  2  0  0  0  0
 22 28  1  0  0  0  0
 26 29  1  0  0  0  0
 28 30  1  0  0  0  0
 30 31  1  0  0  0  0
  5  7  1  0  0  0  0
 15 20  2  0  0  0  0
 23 25  1  0  0  0  0
  4  6  2  0  0  0  0
 11 12  1  0  0  0  0
 28 29  2  0  0  0  0
M  END
> <MOLFORMULA>
C23 H21 N3 O5

> <MOLWEIGHT>
4.194349000000000e+002

> <IDNUMBER>
AN-153/NB21460

> <PRICE>
EUR 130/10 mg

> <Similarity score>
0.21

$$$$

  -OEChem-04222410502D

 29 33  0     0  0  0  0  0  0999 V2000
    0.1667   -2.7583    0.0000 N   0  0  3  0  0  0  0  0  0  0  0  0
   -0.2417   -1.8417    0.0000 C   0  0  0  0  0  0  0  0  0  0  0  0
    1.1625   -2.6500    0.0000 C   0  0  0  0  0  0  0  0  0  0  0  0
   -0.6208    1.2208    0.0000 C   0  0  0  0  0  0  0  0  0  0  0  0
    0.5042   -1.1750    0.0000 C   0  0  3  0  0  0  0  0  0  0  0  0
    0.1875    1.8083    0.0000 C   0  0  0  0  0  0  0  0  0  0  0  0
    1.3667   -1.6750    0.0000 C   0  0  0  0  0  0  0  0  0  0  0  0
    0.4000   -0.1792    0.0000 N   0  0  3  0  0  0  0  0  0  0  0  0
   -1.4292    1.8083    0.0000 N   0  0  0  0  0  0  0  0  0  0  0  0
   -0.1208    2.7625    0.0000 C   0  0  0  0  0  0  0  0  0  0  0  0
   -1.1208    2.7625    0.0000 C   0  0  0  0  0  0  0  0  0  0  0  0
   -0.3333   -3.6208    0.0000 C   0  0  0  0  0  0  0  0  0  0  0  0
   -0.5167    0.2292    0.0000 C   0  0  0  0  0  0  0  0  0  0  0  0
    1.1042    1.4042    0.0000 C   0  0  0  0  0  0  0  0  0  0  0  0
   -1.2208   -1.6333    0.0000 O   0  0  0  0  0  0  0  0  0  0  0  0
    1.2083    0.4083    0.0000 C   0  0  0  0  0  0  0  0  0  0  0  0
    1.8292   -3.3958    0.0000 O   0  0  0  0  0  0  0  0  0  0  0  0
    0.3792    3.6250    0.0000 C   0  0  0  0  0  0  0  0  0  0  0  0
    0.1667   -4.4875    0.0000 C   0  0  0  0  0  0  0  0  0  0  0  0
   -1.6208    3.6250    0.0000 C   0  0  0  0  0  0  0  0  0  0  0  0
   -0.1208    4.4875    0.0000 C   0  0  0  0  0  0  0  0  0  0  0  0
    1.1667   -4.4875    0.0000 Cl  0  0  0  0  0  0  0  0  0  0  0  0
   -1.1208    4.4875    0.0000 C   0  0  0  0  0  0  0  0  0  0  0  0
   -1.3333   -3.6208    0.0000 C   0  0  0  0  0  0  0  0  0  0  0  0
    0.3792    5.3542    0.0000 O   0  0  0  0  0  0  0  0  0  0  0  0
   -0.3333   -5.3542    0.0000 C   0  0  0  0  0  0  0  0  0  0  0  0
    1.3792    5.3542    0.0000 C   0  0  0  0  0  0  0  0  0  0  0  0
   -1.8333   -4.4875    0.0000 C   0  0  0  0  0  0  0  0  0  0  0  0
   -1.3333   -5.3542    0.0000 C   0  0  0  0  0  0  0  0  0  0  0  0
  1  2  1  0  0  0  0
  1  3  1  0  0  0  0
  4 13  1  0  0  0  0
  2  5  1  0  0  0  0
  6 14  1  0  0  0  0
  3  7  1  0  0  0  0
  5  8  1  0  0  0  0
  4  9  1  0  0  0  0
  6 10  1  0  0  0  0
  9 11  1  0  0  0  0
  1 12  1  0  0  0  0
  8 13  1  0  0  0  0
 14 16  1  0  0  0  0
  2 15  2  0  0  0  0
  8 16  1  0  0  0  0
  3 17  2  0  0  0  0
 10 18  2  0  0  0  0
 12 19  2  0  0  0  0
 11 20  2  0  0  0  0
 18 21  1  0  0  0  0
 19 22  1  0  0  0  0
 20 23  1  0  0  0  0
 12 24  1  0  0  0  0
 21 25  1  0  0  0  0
 19 26  1  0  0  0  0
 25 27  1  0  0  0  0
 24 28  2  0  0  0  0
 28 29  1  0  0  0  0
  5  7  1  0  0  0  0
 26 29  2  0  0  0  0
  4  6  2  0  0  0  0
 10 11  1  0  0  0  0
 21 23  2  0  0  0  0
M  END
> <MOLFORMULA>
C22 H20 Cl N3 O3

> <MOLWEIGHT>
4.098710000000000e+002

> <IDNUMBER>
AN-153/NB21456

> <PRICE>
EUR 130/10 mg

> <Similarity score>
0.21

$$$$

  -OEChem-04222410502D

 28 32  0     0  0  0  0  0  0999 V2000
    0.6667   -2.7583    0.0000 N   0  0  3  0  0  0  0  0  0  0  0  0
    0.2583   -1.8417    0.0000 C   0  0  0  0  0  0  0  0  0  0  0  0
    1.6625   -2.6500    0.0000 C   0  0  0  0  0  0  0  0  0  0  0  0
   -0.1208    1.2208    0.0000 C   0  0  0  0  0  0  0  0  0  0  0  0
    1.0042   -1.1750    0.0000 C   0  0  3  0  0  0  0  0  0  0  0  0
    0.6875    1.8083    0.0000 C   0  0  0  0  0  0  0  0  0  0  0  0
    1.8667   -1.6750    0.0000 C   0  0  0  0  0  0  0  0  0  0  0  0
    0.9000   -0.1792    0.0000 N   0  0  3  0  0  0  0  0  0  0  0  0
   -0.9292    1.8083    0.0000 N   0  0  0  0  0  0  0  0  0  0  0  0
    0.3792    2.7625    0.0000 C   0  0  0  0  0  0  0  0  0  0  0  0
    0.1667   -3.6208    0.0000 C   0  0  0  0  0  0  0  0  0  0  0  0
   -0.6208    2.7625    0.0000 C   0  0  0  0  0  0  0  0  0  0  0  0
   -0.0167    0.2292    0.0000 C   0  0  0  0  0  0  0  0  0  0  0  0
    1.6042    1.4042    0.0000 C   0  0  0  0  0  0  0  0  0  0  0  0
   -0.8333   -3.6208    0.0000 C   0  0  0  0  0  0  0  0  0  0  0  0
   -0.7208   -1.6333    0.0000 O   0  0  0  0  0  0  0  0  0  0  0  0
    1.7083    0.4083    0.0000 C   0  0  0  0  0  0  0  0  0  0  0  0
    2.3292   -3.3958    0.0000 O   0  0  0  0  0  0  0  0  0  0  0  0
    0.8792    3.6250    0.0000 C   0  0  0  0  0  0  0  0  0  0  0  0
   -1.1208    3.6250    0.0000 C   0  0  0  0  0  0  0  0  0  0  0  0
   -1.3333   -4.4875    0.0000 C   0  0  0  0  0  0  0  0  0  0  0  0
    0.3792    4.4875    0.0000 C   0  0  0  0  0  0  0  0  0  0  0  0
   -0.6208    4.4875    0.0000 C   0  0  0  0  0  0  0  0  0  0  0  0
    0.6667   -4.4875    0.0000 C   0  0  0  0  0  0  0  0  0  0  0  0
   -2.3333   -4.4875    0.0000 Cl  0  0  0  0  0  0  0  0  0  0  0  0
    0.8792    5.3542    0.0000 F   0  0  0  0  0  0  0  0  0  0  0  0
    0.1667   -5.3542    0.0000 C   0  0  0  0  0  0  0  0  0  0  0  0
   -0.8333   -5.3542    0.0000 C   0  0  0  0  0  0  0  0  0  0  0  0
  1  2  1  0  0  0  0
  1  3  1  0  0  0  0
  4 13  1  0  0  0  0
  2  5  1  0  0  0  0
  6 14  1  0  0  0  0
  3  7  1  0  0  0  0
  5  8  1  0  0  0  0
  4  9  1  0  0  0  0
  6 10  1  0  0  0  0
  1 11  1  0  0  0  0
  9 12  1  0  0  0  0
  8 13  1  0  0  0  0
 14 17  1  0  0  0  0
 11 15  2  0  0  0  0
  2 16  2  0  0  0  0
  8 17  1  0  0  0  0
  3 18  2  0  0  0  0
 10 19  2  0  0  0  0
 12 20  2  0  0  0  0
 15 21  1  0  0  0  0
 19 22  1  0  0  0  0
 20 23  1  0  0  0  0
 11 24  1  0  0  0  0
 21 25  1  0  0  0  0
 22 26  1  0  0  0  0
 24 27  2  0  0  0  0
 27 28  1  0  0  0  0
  5  7  1  0  0  0  0
 21 28  2  0  0  0  0
  4  6  2  0  0  0  0
 10 12  1  0  0  0  0
 22 23  2  0  0  0  0
M  END
> <MOLFORMULA>
C21 H17 Cl F N3 O2

> <MOLWEIGHT>
3.978353000000000e+002

> <IDNUMBER>
AN-153/NB21469

> <PRICE>
EUR 130/10 mg

> <Similarity score>
0.21

$$$$

  -OEChem-04222410502D

 29 33  0     0  0  0  0  0  0999 V2000
   -1.1208    2.5000    0.0000 C   0  0  0  0  0  0  0  0  0  0  0  0
   -1.1208    3.5000    0.0000 N   0  0  3  0  0  0  0  0  0  0  0  0
   -0.2583    2.0083    0.0000 C   0  0  0  0  0  0  0  0  0  0  0  0
   -2.0750    3.8208    0.0000 N   0  0  0  0  0  0  0  0  0  0  0  0
   -2.0750    2.1875    0.0000 C   0  0  0  0  0  0  0  0  0  0  0  0
   -0.2583    1.0083    0.0000 N   0  0  3  0  0  0  0  0  0  0  0  0
   -2.6625    3.0083    0.0000 C   0  0  0  0  0  0  0  0  0  0  0  0
    1.4667   -1.0042    0.0000 C   0  0  0  0  0  0  0  0  0  0  0  0
    0.6042    2.5000    0.0000 N   0  0  0  0  0  0  0  0  0  0  0  0
    0.6042   -0.5000    0.0000 C   0  0  3  0  0  0  0  0  0  0  0  0
    1.4667   -2.0000    0.0000 N   0  0  0  0  0  0  0  0  0  0  0  0
    0.6042    0.5083    0.0000 C   0  0  0  0  0  0  0  0  0  0  0  0
   -0.2583    4.0042    0.0000 C   0  0  0  0  0  0  0  0  0  0  0  0
    0.6042    3.5000    0.0000 C   0  0  0  0  0  0  0  0  0  0  0  0
    2.3292   -2.5042    0.0000 C   0  0  0  0  0  0  0  0  0  0  0  0
    2.3417   -0.5000    0.0000 O   0  0  0  0  0  0  0  0  0  0  0  0
    3.2000   -2.0042    0.0000 C   0  0  0  0  0  0  0  0  0  0  0  0
   -1.1208    0.5083    0.0000 C   0  0  0  0  0  0  0  0  0  0  0  0
   -2.4833    1.2833    0.0000 C   0  0  0  0  0  0  0  0  0  0  0  0
    3.2042   -1.0042    0.0000 F   0  0  0  0  0  0  0  0  0  0  0  0
   -0.2625   -0.9917    0.0000 C   0  0  0  0  0  0  0  0  0  0  0  0
   -3.6583    2.8958    0.0000 C   0  0  0  0  0  0  0  0  0  0  0  0
   -1.1250   -0.4875    0.0000 C   0  0  0  0  0  0  0  0  0  0  0  0
    2.3167   -3.4917    0.0000 C   0  0  0  0  0  0  0  0  0  0  0  0
    4.0625   -2.5125    0.0000 C   0  0  0  0  0  0  0  0  0  0  0  0
   -3.4750    1.1750    0.0000 C   0  0  0  0  0  0  0  0  0  0  0  0
   -4.0708    1.9875    0.0000 C   0  0  0  0  0  0  0  0  0  0  0  0
    3.1792   -4.0042    0.0000 C   0  0  0  0  0  0  0  0  0  0  0  0
    4.0542   -3.5125    0.0000 C   0  0  0  0  0  0  0  0  0  0  0  0
  1  2  1  0  0  0  0
  1  3  1  0  0  0  0
  2  4  1  0  0  0  0
  1  5  2  0  0  0  0
  3  6  1  0  0  0  0
  5  7  1  0  0  0  0
  8 10  1  0  0  0  0
  3  9  2  0  0  0  0
 10 12  1  0  0  0  0
  8 11  1  0  0  0  0
  6 12  1  0  0  0  0
  2 13  1  0  0  0  0
  9 14  1  0  0  0  0
 11 15  1  0  0  0  0
  8 16  2  0  0  0  0
 15 17  2  0  0  0  0
  6 18  1  0  0  0  0
  5 19  1  0  0  0  0
 17 20  1  0  0  0  0
 21 23  1  0  0  0  0
  7 22  1  0  0  0  0
 18 23  1  0  0  0  0
 15 24  1  0  0  0  0
 17 25  1  0  0  0  0
 19 26  1  0  0  0  0
 26 27  1  0  0  0  0
 24 28  2  0  0  0  0
 28 29  1  0  0  0  0
  4  7  2  0  0  0  0
 13 14  2  0  0  0  0
 22 27  1  0  0  0  0
 10 21  1  0  0  0  0
 25 29  2  0  0  0  0
M  END
> <MOLFORMULA>
C22 H24 F N5 O

> <MOLWEIGHT>
3.934636000000000e+002

> <IDNUMBER>
AT-687/PE21873

> <PRICE>
EUR 80/10 mg

> <Similarity score>
0.21

$$$$

  -OEChem-04222410502D

 36 40  0     0  0  0  0  0  0999 V2000
    0.3042   -2.6375    0.0000 C   0  0  0  0  0  0  0  0  0  0  0  0
   -0.4125   -3.0542    0.0000 N   0  3  0  0  0  0  0  0  0  0  0  0
    0.3042   -1.8125    0.0000 C   0  0  0  0  0  0  0  0  0  0  0  0
   -0.4125   -1.3917    0.0000 N   0  0  3  0  0  0  0  0  0  0  0  0
    1.0167   -1.3917    0.0000 C   0  0  0  0  0  0  0  0  0  0  0  0
    4.5875   -0.1542    0.0000 C   0  0  0  0  0  0  0  0  0  0  0  0
    3.8750   -0.5667    0.0000 N   0  0  3  0  0  0  0  0  0  0  0  0
    2.4417   -1.3917    0.0000 N   0  0  3  0  0  0  0  0  0  0  0  0
    1.7292   -1.8042    0.0000 C   0  0  0  0  0  0  0  0  0  0  0  0
   -0.4125   -0.5667    0.0000 C   0  0  0  0  0  0  0  0  0  0  0  0
    1.0167   -3.0500    0.0000 C   0  0  0  0  0  0  0  0  0  0  0  0
   -1.1208   -0.1542    0.0000 C   0  0  0  0  0  0  0  0  0  0  0  0
   -1.1333   -2.6417    0.0000 O   0  5  0  0  0  0  0  0  0  0  0  0
    4.5875    0.6708    0.0000 C   0  0  0  0  0  0  0  0  0  0  0  0
   -0.4125   -3.8792    0.0000 O   0  0  0  0  0  0  0  0  0  0  0  0
   -1.1250   -1.8042    0.0000 C   0  0  0  0  0  0  0  0  0  0  0  0
    3.8750   -1.3917    0.0000 C   0  0  0  0  0  0  0  0  0  0  0  0
    3.1542   -0.1542    0.0000 C   0  0  0  0  0  0  0  0  0  0  0  0
    3.1625   -1.8042    0.0000 C   0  0  0  0  0  0  0  0  0  0  0  0
    2.4417   -0.5667    0.0000 C   0  0  0  0  0  0  0  0  0  0  0  0
    5.3000   -0.5667    0.0000 O   0  0  0  0  0  0  0  0  0  0  0  0
    1.7292   -2.6375    0.0000 C   0  0  0  0  0  0  0  0  0  0  0  0
   -1.8458   -0.5667    0.0000 C   0  0  0  0  0  0  0  0  0  0  0  0
   -1.8458   -1.3917    0.0000 C   0  0  0  0  0  0  0  0  0  0  0  0
    3.8750    1.0750    0.0000 C   0  0  0  0  0  0  0  0  0  0  0  0
    5.3042    1.0833    0.0000 C   0  0  0  0  0  0  0  0  0  0  0  0
    4.5875    2.3208    0.0000 C   0  0  0  0  0  0  0  0  0  0  0  0
    5.3042    1.9083    0.0000 C   0  0  0  0  0  0  0  0  0  0  0  0
    3.8667    1.9000    0.0000 C   0  0  0  0  0  0  0  0  0  0  0  0
    4.5875    3.1458    0.0000 O   0  0  0  0  0  0  0  0  0  0  0  0
   -1.1208    0.6625    0.0000 C   0  0  0  0  0  0  0  0  0  0  0  0
   -2.5458   -0.1500    0.0000 C   0  0  0  0  0  0  0  0  0  0  0  0
    5.3000    3.5583    0.0000 C   0  0  0  0  0  0  0  0  0  0  0  0
    5.3000    4.3750    0.0000 C   0  0  0  0  0  0  0  0  0  0  0  0
   -1.8250    1.0833    0.0000 C   0  0  0  0  0  0  0  0  0  0  0  0
   -2.5458    0.6708    0.0000 C   0  0  0  0  0  0  0  0  0  0  0  0
  1  2  1  0  0  0  0
  1  3  2  0  0  0  0
  3  4  1  0  0  0  0
  3  5  1  0  0  0  0
  6  7  1  0  0  0  0
  7 18  1  0  0  0  0
  8  9  1  0  0  0  0
  9 22  1  0  0  0  0
  4 10  1  0  0  0  0
  1 11  1  0  0  0  0
 10 12  1  0  0  0  0
  2 13  1  0  0  0  0
  6 14  1  0  0  0  0
  2 15  2  0  0  0  0
  4 16  1  0  0  0  0
 17 19  1  0  0  0  0
 18 20  1  0  0  0  0
  8 19  1  0  0  0  0
  8 20  1  0  0  0  0
  6 21  2  0  0  0  0
 11 22  2  0  0  0  0
 23 24  1  0  0  0  0
 16 24  1  0  0  0  0
 14 25  1  0  0  0  0
 14 26  2  0  0  0  0
 27 28  2  0  0  0  0
 26 28  1  0  0  0  0
 25 29  2  0  0  0  0
 27 30  1  0  0  0  0
 12 31  1  0  0  0  0
 23 32  1  0  0  0  0
 30 33  1  0  0  0  0
 33 34  1  0  0  0  0
 31 35  2  0  0  0  0
 32 36  2  0  0  0  0
  5  9  2  0  0  0  0
 12 23  2  0  0  0  0
  7 17  1  0  0  0  0
 35 36  1  0  0  0  0
 27 29  1  0  0  0  0
M  CHG  2   2   1  13  -1
M  END
> <MOLFORMULA>
C28 H30 N4 O4

> <MOLWEIGHT>
4.865690000000000e+002

> <IDNUMBER>
AM-879/J185840

> <PRICE>
EUR 55.00/10 mg

> <Similarity score>
0.21

$$$$

  -OEChem-04222410502D

 24 27  0     0  0  0  0  0  0999 V2000
   -0.0125    0.1167    0.0000 C   0  0  0  0  0  0  0  0  0  0  0  0
   -0.6083    0.9208    0.0000 N   0  0  0  0  0  0  0  0  0  0  0  0
    0.9792    0.2333    0.0000 C   0  0  0  0  0  0  0  0  0  0  0  0
   -0.2125    1.8375    0.0000 C   0  0  0  0  0  0  0  0  0  0  0  0
    0.7833    1.9500    0.0000 N   0  0  0  0  0  0  0  0  0  0  0  0
   -0.4083   -0.8000    0.0000 N   0  0  3  0  0  0  0  0  0  0  0  0
    1.3792    1.1500    0.0000 C   0  0  0  0  0  0  0  0  0  0  0  0
   -1.6042   -3.5542    0.0000 C   0  0  0  0  0  0  0  0  0  0  0  0
   -1.4042   -0.9167    0.0000 C   0  0  0  0  0  0  0  0  0  0  0  0
    0.1875   -1.6042    0.0000 C   0  0  0  0  0  0  0  0  0  0  0  0
   -1.2042   -2.6375    0.0000 C   0  0  3  0  0  0  0  0  0  0  0  0
   -0.8083    2.6417    0.0000 C   0  0  0  0  0  0  0  0  0  0  0  0
   -2.5958   -3.6667    0.0000 O   0  0  0  0  0  0  0  0  0  0  0  0
   -1.8000   -1.8333    0.0000 C   0  0  0  0  0  0  0  0  0  0  0  0
   -0.2125   -2.5208    0.0000 C   0  0  0  0  0  0  0  0  0  0  0  0
   -1.0042   -4.3583    0.0000 N   0  0  0  0  0  0  0  0  0  0  0  0
    1.7292   -0.4292    0.0000 C   0  0  0  0  0  0  0  0  0  0  0  0
    2.3750    1.0542    0.0000 C   0  0  0  0  0  0  0  0  0  0  0  0
    2.5917    0.0792    0.0000 C   0  0  0  0  0  0  0  0  0  0  0  0
   -0.4083    3.5583    0.0000 C   0  0  0  0  0  0  0  0  0  0  0  0
   -1.8000    2.5250    0.0000 C   0  0  0  0  0  0  0  0  0  0  0  0
   -2.3958    3.3292    0.0000 C   0  0  0  0  0  0  0  0  0  0  0  0
   -1.0042    4.3583    0.0000 C   0  0  0  0  0  0  0  0  0  0  0  0
   -2.0000    4.2417    0.0000 C   0  0  0  0  0  0  0  0  0  0  0  0
  1  2  1  0  0  0  0
  1  3  2  0  0  0  0
  2  4  2  0  0  0  0
  5  7  2  0  0  0  0
  1  6  1  0  0  0  0
  3  7  1  0  0  0  0
  8 11  1  0  0  0  0
  6  9  1  0  0  0  0
  6 10  1  0  0  0  0
 11 15  1  0  0  0  0
  4 12  1  0  0  0  0
  8 13  2  0  0  0  0
  9 14  1  0  0  0  0
 10 15  1  0  0  0  0
  8 16  1  0  0  0  0
  3 17  1  0  0  0  0
  7 18  1  0  0  0  0
 17 19  1  0  0  0  0
 12 20  2  0  0  0  0
 12 21  1  0  0  0  0
 21 22  2  0  0  0  0
 20 23  1  0  0  0  0
 22 24  1  0  0  0  0
 11 14  1  0  0  0  0
 18 19  1  0  0  0  0
  4  5  1  0  0  0  0
 23 24  2  0  0  0  0
M  END
> <MOLFORMULA>
C19 H22 N4 O

> <MOLWEIGHT>
3.224098000000000e+002

> <IDNUMBER>
AN-153/I280425

> <PRICE>
EUR 130/10 mg

> <Similarity score>
0.21

$$$$

  -OEChem-04222410502D

 30 34  0     0  0  0  0  0  0999 V2000
    2.3542    1.9625    0.0000 C   0  0  0  0  0  0  0  0  0  0  0  0
    4.4500   -2.1375    0.0000 C   0  0  0  0  0  0  0  0  0  0  0  0
    2.6125    2.7583    0.0000 O   0  0  0  0  0  0  0  0  0  0  0  0
    4.1042   -2.8875    0.0000 C   0  0  0  0  0  0  0  0  0  0  0  0
    2.8417    1.2958    0.0000 C   0  0  0  0  0  0  0  0  0  0  0  0
    1.9417    3.2333    0.0000 C   0  0  0  0  0  0  0  0  0  0  0  0
    3.9625   -1.4625    0.0000 N   0  0  3  0  0  0  0  0  0  0  0  0
    1.5292    1.9625    0.0000 C   0  0  0  0  0  0  0  0  0  0  0  0
    1.2792    2.7583    0.0000 C   0  0  0  0  0  0  0  0  0  0  0  0
    5.2750   -2.0500    0.0000 N   0  0  0  0  0  0  0  0  0  0  0  0
    2.5042    0.5375    0.0000 N   0  0  0  0  0  0  0  0  0  0  0  0
    4.6000   -3.5625    0.0000 C   0  0  0  0  0  0  0  0  0  0  0  0
    5.4167   -3.4667    0.0000 N   0  0  0  0  0  0  0  0  0  0  0  0
    5.7500   -2.7167    0.0000 C   0  0  0  0  0  0  0  0  0  0  0  0
    3.1292   -1.5417    0.0000 C   0  0  0  0  0  0  0  0  0  0  0  0
    4.2917   -0.7125    0.0000 C   0  0  0  0  0  0  0  0  0  0  0  0
    3.6542    1.3833    0.0000 O   0  0  0  0  0  0  0  0  0  0  0  0
    1.8667    4.0417    0.0000 C   0  0  0  0  0  0  0  0  0  0  0  0
    2.9917   -0.1167    0.0000 C   0  0  3  0  0  0  0  0  0  0  0  0
    3.8042   -0.0292    0.0000 C   0  0  0  0  0  0  0  0  0  0  0  0
    2.6542   -0.8875    0.0000 C   0  0  0  0  0  0  0  0  0  0  0  0
    3.2917   -2.9792    0.0000 C   0  0  0  0  0  0  0  0  0  0  0  0
    2.5375    4.5167    0.0000 O   0  0  0  0  0  0  0  0  0  0  0  0
    0.5167    3.0958    0.0000 C   0  0  0  0  0  0  0  0  0  0  0  0
    0.4417    3.9083    0.0000 C   0  0  0  0  0  0  0  0  0  0  0  0
    1.1167    4.3875    0.0000 C   0  0  0  0  0  0  0  0  0  0  0  0
    4.2625   -4.3125    0.0000 C   0  0  0  0  0  0  0  0  0  0  0  0
    3.2917    4.1667    0.0000 C   0  0  0  0  0  0  0  0  0  0  0  0
    2.9542   -3.7292    0.0000 C   0  0  0  0  0  0  0  0  0  0  0  0
    3.4417   -4.4000    0.0000 C   0  0  0  0  0  0  0  0  0  0  0  0
  2  7  1  0  0  0  0
  1  3  1  0  0  0  0
  2  4  1  0  0  0  0
  1  5  1  0  0  0  0
  3  6  1  0  0  0  0
  7 15  1  0  0  0  0
  1  8  2  0  0  0  0
  8  9  1  0  0  0  0
  2 10  2  0  0  0  0
  5 11  1  0  0  0  0
  4 12  2  0  0  0  0
 13 14  2  0  0  0  0
 10 14  1  0  0  0  0
 15 21  1  0  0  0  0
 16 20  1  0  0  0  0
  5 17  2  0  0  0  0
  6 18  1  0  0  0  0
 11 19  1  0  0  0  0
 19 20  1  0  0  0  0
 19 21  1  0  0  0  0
  4 22  1  0  0  0  0
 18 23  1  0  0  0  0
  9 24  1  0  0  0  0
 24 25  2  0  0  0  0
 18 26  2  0  0  0  0
 12 27  1  0  0  0  0
 23 28  1  0  0  0  0
 22 29  1  0  0  0  0
 29 30  1  0  0  0  0
  6  9  2  0  0  0  0
 25 26  1  0  0  0  0
  7 16  1  0  0  0  0
 12 13  1  0  0  0  0
 27 30  1  0  0  0  0
M  END
> <MOLFORMULA>
C23 H26 N4 O3

> <MOLWEIGHT>
4.064834000000000e+002

> <IDNUMBER>
AT-687/SK01581

> <PRICE>
EUR 80/10 mg

> <Similarity score>
0.21

$$$$

  -OEChem-04222410502D

 30 34  0     0  0  0  0  0  0999 V2000
   -1.5500    2.4958    0.0000 C   0  0  0  0  0  0  0  0  0  0  0  0
   -1.5500    3.4958    0.0000 N   0  0  3  0  0  0  0  0  0  0  0  0
   -0.6875    1.9958    0.0000 C   0  0  0  0  0  0  0  0  0  0  0  0
   -2.5125    3.8083    0.0000 N   0  0  0  0  0  0  0  0  0  0  0  0
   -2.5125    2.1833    0.0000 C   0  0  0  0  0  0  0  0  0  0  0  0
   -0.6875    0.9958    0.0000 N   0  0  3  0  0  0  0  0  0  0  0  0
   -3.0958    2.9875    0.0000 C   0  0  0  0  0  0  0  0  0  0  0  0
    0.1792    2.4958    0.0000 N   0  0  0  0  0  0  0  0  0  0  0  0
    0.1792   -0.5125    0.0000 C   0  0  3  0  0  0  0  0  0  0  0  0
    1.0417   -1.0125    0.0000 C   0  0  0  0  0  0  0  0  0  0  0  0
   -0.6875    4.0000    0.0000 C   0  0  0  0  0  0  0  0  0  0  0  0
    0.1792    0.4958    0.0000 C   0  0  0  0  0  0  0  0  0  0  0  0
    0.1792    3.4958    0.0000 C   0  0  0  0  0  0  0  0  0  0  0  0
    1.9042   -0.5125    0.0000 N   0  0  0  0  0  0  0  0  0  0  0  0
    2.7667   -1.9917    0.0000 C   0  0  0  0  0  0  0  0  0  0  0  0
    2.7667   -1.0125    0.0000 C   0  0  0  0  0  0  0  0  0  0  0  0
    1.0292   -2.0125    0.0000 O   0  0  0  0  0  0  0  0  0  0  0  0
    3.6125   -2.5167    0.0000 C   0  0  0  0  0  0  0  0  0  0  0  0
   -1.5500    0.4958    0.0000 C   0  0  0  0  0  0  0  0  0  0  0  0
   -2.9083    1.2708    0.0000 C   0  0  0  0  0  0  0  0  0  0  0  0
    4.4917   -2.0125    0.0000 F   0  0  0  0  0  0  0  0  0  0  0  0
   -0.6958   -0.9917    0.0000 C   0  0  0  0  0  0  0  0  0  0  0  0
   -4.0958    2.8958    0.0000 C   0  0  0  0  0  0  0  0  0  0  0  0
   -1.5583   -0.4917    0.0000 C   0  0  0  0  0  0  0  0  0  0  0  0
    1.8917   -2.4875    0.0000 C   0  0  0  0  0  0  0  0  0  0  0  0
    3.6125   -3.5042    0.0000 C   0  0  0  0  0  0  0  0  0  0  0  0
   -3.9083    1.1708    0.0000 C   0  0  0  0  0  0  0  0  0  0  0  0
   -4.5000    1.9708    0.0000 C   0  0  0  0  0  0  0  0  0  0  0  0
    1.8792   -3.4917    0.0000 C   0  0  0  0  0  0  0  0  0  0  0  0
    2.7500   -4.0000    0.0000 C   0  0  0  0  0  0  0  0  0  0  0  0
  1  2  1  0  0  0  0
  1  3  1  0  0  0  0
  2  4  1  0  0  0  0
  1  5  2  0  0  0  0
  3  6  1  0  0  0  0
  5  7  1  0  0  0  0
  3  8  2  0  0  0  0
  9 12  1  0  0  0  0
  9 10  1  0  0  0  0
  2 11  1  0  0  0  0
  6 12  1  0  0  0  0
  8 13  1  0  0  0  0
 10 14  1  0  0  0  0
 15 16  1  0  0  0  0
 14 16  1  0  0  0  0
 10 17  2  0  0  0  0
 15 18  2  0  0  0  0
  6 19  1  0  0  0  0
  5 20  1  0  0  0  0
 18 21  1  0  0  0  0
 22 24  1  0  0  0  0
  7 23  1  0  0  0  0
 19 24  1  0  0  0  0
 15 25  1  0  0  0  0
 18 26  1  0  0  0  0
 20 27  1  0  0  0  0
 27 28  1  0  0  0  0
 25 29  2  0  0  0  0
 29 30  1  0  0  0  0
  4  7  2  0  0  0  0
 11 13  2  0  0  0  0
 23 28  1  0  0  0  0
  9 22  1  0  0  0  0
 26 30  2  0  0  0  0
M  END
> <MOLFORMULA>
C23 H26 F N5 O

> <MOLWEIGHT>
4.074904000000000e+002

> <IDNUMBER>
AT-687/PE21890

> <PRICE>
EUR 80/10 mg

> <Similarity score>
0.21

$$$$

  -OEChem-04222410502D

 25 28  0     0  0  0  0  0  0999 V2000
    3.6292   -1.3042    0.0000 C   0  0  0  0  0  0  0  0  0  0  0  0
    3.3000   -2.0625    0.0000 C   0  0  0  0  0  0  0  0  0  0  0  0
    4.4542   -1.2167    0.0000 N   0  0  0  0  0  0  0  0  0  0  0  0
    1.5417    2.7958    0.0000 C   0  0  0  0  0  0  0  0  0  0  0  0
    3.1500   -0.6375    0.0000 N   0  0  3  0  0  0  0  0  0  0  0  0
    2.0375    2.1333    0.0000 C   0  0  0  0  0  0  0  0  0  0  0  0
    4.6042   -2.6417    0.0000 N   0  0  0  0  0  0  0  0  0  0  0  0
    3.7917   -2.7292    0.0000 C   0  0  0  0  0  0  0  0  0  0  0  0
    4.9417   -1.8917    0.0000 C   0  0  0  0  0  0  0  0  0  0  0  0
    1.6917    1.3708    0.0000 N   0  0  0  0  0  0  0  0  0  0  0  0
    1.8000    3.5833    0.0000 C   0  0  0  0  0  0  0  0  0  0  0  0
    0.7167    2.7958    0.0000 C   0  0  0  0  0  0  0  0  0  0  0  0
    1.1292    4.0417    0.0000 O   0  0  0  0  0  0  0  0  0  0  0  0
    2.3292   -0.7167    0.0000 C   0  0  0  0  0  0  0  0  0  0  0  0
    3.4875    0.1208    0.0000 C   0  0  0  0  0  0  0  0  0  0  0  0
    2.8417    2.2125    0.0000 O   0  0  0  0  0  0  0  0  0  0  0  0
    0.4667    3.5833    0.0000 C   0  0  0  0  0  0  0  0  0  0  0  0
    2.1875    0.7083    0.0000 C   0  0  3  0  0  0  0  0  0  0  0  0
    3.0000    0.7875    0.0000 C   0  0  0  0  0  0  0  0  0  0  0  0
    1.8500   -0.0542    0.0000 C   0  0  0  0  0  0  0  0  0  0  0  0
    2.4750   -2.1542    0.0000 C   0  0  0  0  0  0  0  0  0  0  0  0
    3.4542   -3.4792    0.0000 C   0  0  0  0  0  0  0  0  0  0  0  0
    5.7542   -1.8000    0.0000 C   0  0  0  0  0  0  0  0  0  0  0  0
    2.1417   -2.9042    0.0000 C   0  0  0  0  0  0  0  0  0  0  0  0
    2.6417   -3.5667    0.0000 C   0  0  0  0  0  0  0  0  0  0  0  0
  1  2  1  0  0  0  0
  1  3  2  0  0  0  0
  4  6  1  0  0  0  0
  1  5  1  0  0  0  0
  6 10  1  0  0  0  0
  7  9  2  0  0  0  0
  2  8  2  0  0  0  0
  3  9  1  0  0  0  0
 10 18  1  0  0  0  0
  4 11  2  0  0  0  0
  4 12  1  0  0  0  0
 11 13  1  0  0  0  0
  5 14  1  0  0  0  0
  5 15  1  0  0  0  0
  6 16  2  0  0  0  0
 12 17  2  0  0  0  0
 18 19  1  0  0  0  0
 15 19  1  0  0  0  0
 14 20  1  0  0  0  0
  2 21  1  0  0  0  0
  8 22  1  0  0  0  0
  9 23  1  0  0  0  0
 21 24  1  0  0  0  0
 24 25  1  0  0  0  0
  7  8  1  0  0  0  0
 18 20  1  0  0  0  0
 22 25  1  0  0  0  0
 13 17  1  0  0  0  0
M  END
> <MOLFORMULA>
C19 H24 N4 O2

> <MOLWEIGHT>
3.404246000000000e+002

> <IDNUMBER>
AT-687/SK01694

> <PRICE>
EUR 80/10 mg

> <Similarity score>
0.21

$$$$

  -OEChem-04222410502D

 27 30  0     0  0  0  0  0  0999 V2000
    3.5667    1.5083    0.0000 C   0  0  0  0  0  0  0  0  0  0  0  0
    3.5667    2.3333    0.0000 C   0  0  0  0  0  0  0  0  0  0  0  0
    4.2792    1.0958    0.0000 N   0  0  0  0  0  0  0  0  0  0  0  0
    2.8417    1.0958    0.0000 N   0  0  3  0  0  0  0  0  0  0  0  0
    4.9875    2.3333    0.0000 N   0  0  0  0  0  0  0  0  0  0  0  0
    4.2792    2.7458    0.0000 C   0  0  0  0  0  0  0  0  0  0  0  0
    4.9875    1.5083    0.0000 C   0  0  0  0  0  0  0  0  0  0  0  0
    0.7042   -0.9667    0.0000 C   0  0  0  0  0  0  0  0  0  0  0  0
    0.7042   -0.1417    0.0000 N   0  0  0  0  0  0  0  0  0  0  0  0
    2.1292    1.5083    0.0000 C   0  0  0  0  0  0  0  0  0  0  0  0
    2.8417    0.2708    0.0000 C   0  0  0  0  0  0  0  0  0  0  0  0
    0.0000   -1.3792    0.0000 O   0  0  0  0  0  0  0  0  0  0  0  0
    2.1292   -3.4417    0.0000 N   0  0  0  0  0  0  0  0  0  0  0  0
    2.1292   -0.1417    0.0000 C   0  0  0  0  0  0  0  0  0  0  0  0
    1.4167    1.0958    0.0000 C   0  0  0  0  0  0  0  0  0  0  0  0
    1.4167   -1.3792    0.0000 C   0  0  0  0  0  0  0  0  0  0  0  0
    1.4167    0.2708    0.0000 C   0  0  3  0  0  0  0  0  0  0  0  0
    2.8500    2.7500    0.0000 C   0  0  0  0  0  0  0  0  0  0  0  0
    1.4167   -2.2042    0.0000 C   0  0  0  0  0  0  0  0  0  0  0  0
    4.2792    3.5625    0.0000 C   0  0  0  0  0  0  0  0  0  0  0  0
    2.1292   -2.6250    0.0000 C   0  0  0  0  0  0  0  0  0  0  0  0
    5.7042    1.0958    0.0000 C   0  0  0  0  0  0  0  0  0  0  0  0
    1.4125   -3.8542    0.0000 C   0  0  0  0  0  0  0  0  0  0  0  0
    0.7000   -2.6167    0.0000 C   0  0  0  0  0  0  0  0  0  0  0  0
    2.8542    3.5708    0.0000 C   0  0  0  0  0  0  0  0  0  0  0  0
    0.7000   -3.4500    0.0000 C   0  0  0  0  0  0  0  0  0  0  0  0
    3.5750    3.9833    0.0000 C   0  0  0  0  0  0  0  0  0  0  0  0
  1  2  1  0  0  0  0
  1  3  2  0  0  0  0
  1  4  1  0  0  0  0
  5  7  2  0  0  0  0
  2  6  2  0  0  0  0
  3  7  1  0  0  0  0
  8  9  1  0  0  0  0
  9 17  1  0  0  0  0
  4 10  1  0  0  0  0
  4 11  1  0  0  0  0
  8 12  2  0  0  0  0
 13 21  1  0  0  0  0
 11 14  1  0  0  0  0
 10 15  1  0  0  0  0
  8 16  1  0  0  0  0
 14 17  1  0  0  0  0
  2 18  1  0  0  0  0
 16 19  1  0  0  0  0
  6 20  1  0  0  0  0
 19 21  2  0  0  0  0
  7 22  1  0  0  0  0
 23 26  1  0  0  0  0
 19 24  1  0  0  0  0
 18 25  1  0  0  0  0
 24 26  2  0  0  0  0
 25 27  1  0  0  0  0
  5  6  1  0  0  0  0
 15 17  1  0  0  0  0
 20 27  1  0  0  0  0
 13 23  2  0  0  0  0
M  END
> <MOLFORMULA>
C21 H27 N5 O

> <MOLWEIGHT>
3.654783000000000e+002

> <IDNUMBER>
AT-687/SK01678

> <PRICE>
EUR 80/10 mg

> <Similarity score>
0.21

$$$$

  -OEChem-04222410502D

 30 34  0     0  0  0  0  0  0999 V2000
    0.1667   -2.3250    0.0000 N   0  0  3  0  0  0  0  0  0  0  0  0
   -0.2417   -1.4083    0.0000 C   0  0  0  0  0  0  0  0  0  0  0  0
    1.1625   -2.2208    0.0000 C   0  0  0  0  0  0  0  0  0  0  0  0
   -0.6208    1.6542    0.0000 C   0  0  0  0  0  0  0  0  0  0  0  0
    0.5042   -0.7417    0.0000 C   0  0  3  0  0  0  0  0  0  0  0  0
    0.1875    2.2417    0.0000 C   0  0  0  0  0  0  0  0  0  0  0  0
    1.3667   -1.2417    0.0000 C   0  0  0  0  0  0  0  0  0  0  0  0
    0.3958    0.2542    0.0000 N   0  0  3  0  0  0  0  0  0  0  0  0
   -1.4292    2.2417    0.0000 N   0  0  0  0  0  0  0  0  0  0  0  0
   -0.3333   -3.1875    0.0000 C   0  0  0  0  0  0  0  0  0  0  0  0
   -0.1208    3.1917    0.0000 C   0  0  0  0  0  0  0  0  0  0  0  0
   -1.1208    3.1917    0.0000 C   0  0  0  0  0  0  0  0  0  0  0  0
   -0.5167    0.6583    0.0000 C   0  0  0  0  0  0  0  0  0  0  0  0
   -1.3333   -3.1875    0.0000 C   0  0  0  0  0  0  0  0  0  0  0  0
    1.1042    1.8375    0.0000 C   0  0  0  0  0  0  0  0  0  0  0  0
   -1.8333   -4.0542    0.0000 C   0  0  0  0  0  0  0  0  0  0  0  0
   -1.2167   -1.2042    0.0000 O   0  0  0  0  0  0  0  0  0  0  0  0
    0.1667   -4.0542    0.0000 C   0  0  0  0  0  0  0  0  0  0  0  0
    1.2083    0.8417    0.0000 C   0  0  0  0  0  0  0  0  0  0  0  0
    1.8292   -2.9625    0.0000 O   0  0  0  0  0  0  0  0  0  0  0  0
    0.3792    4.0542    0.0000 C   0  0  0  0  0  0  0  0  0  0  0  0
   -1.6208    4.0542    0.0000 C   0  0  0  0  0  0  0  0  0  0  0  0
   -1.3333   -4.9208    0.0000 C   0  0  0  0  0  0  0  0  0  0  0  0
   -1.8333   -2.3250    0.0000 Cl  0  0  0  0  0  0  0  0  0  0  0  0
   -0.1208    4.9208    0.0000 C   0  0  0  0  0  0  0  0  0  0  0  0
   -0.3333   -4.9208    0.0000 C   0  0  0  0  0  0  0  0  0  0  0  0
   -1.1208    4.9208    0.0000 C   0  0  0  0  0  0  0  0  0  0  0  0
   -1.8333   -5.7875    0.0000 Cl  0  0  0  0  0  0  0  0  0  0  0  0
    0.3792    5.7875    0.0000 O   0  0  0  0  0  0  0  0  0  0  0  0
    1.3792    5.7875    0.0000 C   0  0  0  0  0  0  0  0  0  0  0  0
  1  2  1  0  0  0  0
  1  3  1  0  0  0  0
  4 13  1  0  0  0  0
  2  5  1  0  0  0  0
  6 15  1  0  0  0  0
  3  7  1  0  0  0  0
  5  8  1  0  0  0  0
  4  9  1  0  0  0  0
  1 10  1  0  0  0  0
  6 11  1  0  0  0  0
  9 12  1  0  0  0  0
  8 13  1  0  0  0  0
 10 14  1  0  0  0  0
 15 19  1  0  0  0  0
 14 16  2  0  0  0  0
  2 17  2  0  0  0  0
 10 18  2  0  0  0  0
  8 19  1  0  0  0  0
  3 20  2  0  0  0  0
 11 21  2  0  0  0  0
 12 22  2  0  0  0  0
 23 26  2  0  0  0  0
 14 24  1  0  0  0  0
 21 25  1  0  0  0  0
 18 26  1  0  0  0  0
 22 27  1  0  0  0  0
 23 28  1  0  0  0  0
 25 29  1  0  0  0  0
 29 30  1  0  0  0  0
  5  7  1  0  0  0  0
 16 23  1  0  0  0  0
  4  6  2  0  0  0  0
 11 12  1  0  0  0  0
 25 27  2  0  0  0  0
M  END
> <MOLFORMULA>
C22 H19 Cl2 N3 O3

> <MOLWEIGHT>
4.443161000000000e+002

> <IDNUMBER>
AN-153/NB21463

> <PRICE>
EUR 130/10 mg

> <Similarity score>
0.21

$$$$

  -OEChem-04222410502D

 32 37  0     0  0  0  0  0  0999 V2000
    0.9167   -2.3250    0.0000 N   0  0  3  0  0  0  0  0  0  0  0  0
    0.5083   -1.4083    0.0000 C   0  0  0  0  0  0  0  0  0  0  0  0
    1.9125   -2.2208    0.0000 C   0  0  0  0  0  0  0  0  0  0  0  0
    0.1292    1.6542    0.0000 C   0  0  0  0  0  0  0  0  0  0  0  0
    1.2542   -0.7417    0.0000 C   0  0  3  0  0  0  0  0  0  0  0  0
    0.9375    2.2417    0.0000 C   0  0  0  0  0  0  0  0  0  0  0  0
    2.1167   -1.2417    0.0000 C   0  0  0  0  0  0  0  0  0  0  0  0
    1.1500    0.2542    0.0000 N   0  0  3  0  0  0  0  0  0  0  0  0
   -0.6792    2.2417    0.0000 N   0  0  0  0  0  0  0  0  0  0  0  0
    0.4167   -3.1875    0.0000 C   0  0  0  0  0  0  0  0  0  0  0  0
    0.6292    3.1917    0.0000 C   0  0  0  0  0  0  0  0  0  0  0  0
   -0.3708    3.1917    0.0000 C   0  0  0  0  0  0  0  0  0  0  0  0
    0.2333    0.6625    0.0000 C   0  0  0  0  0  0  0  0  0  0  0  0
   -0.5833   -3.1875    0.0000 C   0  0  0  0  0  0  0  0  0  0  0  0
   -1.0833   -4.0542    0.0000 C   0  0  0  0  0  0  0  0  0  0  0  0
    1.8542    1.8375    0.0000 C   0  0  0  0  0  0  0  0  0  0  0  0
   -0.4667   -1.2042    0.0000 O   0  0  0  0  0  0  0  0  0  0  0  0
    1.9583    0.8417    0.0000 C   0  0  0  0  0  0  0  0  0  0  0  0
    2.5792   -2.9625    0.0000 O   0  0  0  0  0  0  0  0  0  0  0  0
   -0.5833   -4.9208    0.0000 C   0  0  0  0  0  0  0  0  0  0  0  0
    1.1292    4.0542    0.0000 C   0  0  0  0  0  0  0  0  0  0  0  0
    0.9167   -4.0542    0.0000 C   0  0  0  0  0  0  0  0  0  0  0  0
   -2.0833   -4.0542    0.0000 O   0  0  0  0  0  0  0  0  0  0  0  0
   -1.0833   -5.7875    0.0000 O   0  0  0  0  0  0  0  0  0  0  0  0
   -0.8708    4.0542    0.0000 C   0  0  0  0  0  0  0  0  0  0  0  0
    0.4167   -4.9208    0.0000 C   0  0  0  0  0  0  0  0  0  0  0  0
    0.6292    4.9208    0.0000 C   0  0  0  0  0  0  0  0  0  0  0  0
   -0.3708    4.9208    0.0000 C   0  0  0  0  0  0  0  0  0  0  0  0
    1.1292    5.7875    0.0000 O   0  0  0  0  0  0  0  0  0  0  0  0
   -2.5833   -4.9208    0.0000 C   0  0  0  0  0  0  0  0  0  0  0  0
   -2.0833   -5.7875    0.0000 C   0  0  0  0  0  0  0  0  0  0  0  0
    2.1292    5.7875    0.0000 C   0  0  0  0  0  0  0  0  0  0  0  0
  1  2  1  0  0  0  0
  1  3  1  0  0  0  0
  4 13  1  0  0  0  0
  2  5  1  0  0  0  0
  6 16  1  0  0  0  0
  3  7  1  0  0  0  0
  5  8  1  0  0  0  0
  4  9  1  0  0  0  0
  1 10  1  0  0  0  0
  6 11  1  0  0  0  0
  9 12  1  0  0  0  0
  8 13  1  0  0  0  0
 10 14  2  0  0  0  0
 14 15  1  0  0  0  0
 16 18  1  0  0  0  0
  2 17  2  0  0  0  0
  8 18  1  0  0  0  0
  3 19  2  0  0  0  0
 20 26  1  0  0  0  0
 11 21  2  0  0  0  0
 10 22  1  0  0  0  0
 15 23  1  0  0  0  0
 20 24  1  0  0  0  0
 12 25  2  0  0  0  0
 22 26  2  0  0  0  0
 21 27  1  0  0  0  0
 25 28  1  0  0  0  0
 27 29  1  0  0  0  0
 23 30  1  0  0  0  0
 24 31  1  0  0  0  0
 29 32  1  0  0  0  0
  5  7  1  0  0  0  0
 15 20  2  0  0  0  0
 30 31  1  0  0  0  0
  4  6  2  0  0  0  0
 11 12  1  0  0  0  0
 27 28  2  0  0  0  0
M  END
> <MOLFORMULA>
C24 H23 N3 O5

> <MOLWEIGHT>
4.334617000000000e+002

> <IDNUMBER>
AN-153/NB21459

> <PRICE>
EUR 130/10 mg

> <Similarity score>
0.21

$$$$

  -OEChem-04222410502D

 32 36  0     0  0  0  0  0  0999 V2000
    0.9167   -1.4583    0.0000 N   0  0  3  0  0  0  0  0  0  0  0  0
    0.5083   -0.5458    0.0000 C   0  0  0  0  0  0  0  0  0  0  0  0
    1.9125   -1.3542    0.0000 C   0  0  0  0  0  0  0  0  0  0  0  0
    0.1292    2.5208    0.0000 C   0  0  0  0  0  0  0  0  0  0  0  0
    1.2542    0.1250    0.0000 C   0  0  3  0  0  0  0  0  0  0  0  0
    2.1167   -0.3750    0.0000 C   0  0  0  0  0  0  0  0  0  0  0  0
    0.9375    3.1083    0.0000 C   0  0  0  0  0  0  0  0  0  0  0  0
    1.1500    1.1208    0.0000 N   0  0  3  0  0  0  0  0  0  0  0  0
    0.4167   -2.3250    0.0000 C   0  0  0  0  0  0  0  0  0  0  0  0
   -0.6792    3.1083    0.0000 N   0  0  0  0  0  0  0  0  0  0  0  0
    0.6292    4.0542    0.0000 C   0  0  0  0  0  0  0  0  0  0  0  0
   -0.3708    4.0542    0.0000 C   0  0  0  0  0  0  0  0  0  0  0  0
    0.2333    1.5250    0.0000 C   0  0  0  0  0  0  0  0  0  0  0  0
   -0.5833   -4.0542    0.0000 C   0  0  0  0  0  0  0  0  0  0  0  0
    0.9167   -3.1875    0.0000 C   0  0  0  0  0  0  0  0  0  0  0  0
   -0.5833   -2.3250    0.0000 C   0  0  0  0  0  0  0  0  0  0  0  0
   -1.0833   -3.1875    0.0000 C   0  0  0  0  0  0  0  0  0  0  0  0
    0.4167   -4.0542    0.0000 C   0  0  0  0  0  0  0  0  0  0  0  0
    1.8542    2.7000    0.0000 C   0  0  0  0  0  0  0  0  0  0  0  0
   -0.4708   -0.3375    0.0000 O   0  0  0  0  0  0  0  0  0  0  0  0
    1.9583    1.7083    0.0000 C   0  0  0  0  0  0  0  0  0  0  0  0
    2.5792   -2.0958    0.0000 O   0  0  0  0  0  0  0  0  0  0  0  0
   -1.0833   -4.9208    0.0000 O   0  0  0  0  0  0  0  0  0  0  0  0
   -2.0833   -3.1875    0.0000 O   0  0  0  0  0  0  0  0  0  0  0  0
    0.9167   -4.9208    0.0000 O   0  0  0  0  0  0  0  0  0  0  0  0
    1.1292    4.9208    0.0000 C   0  0  0  0  0  0  0  0  0  0  0  0
   -0.8708    4.9208    0.0000 C   0  0  0  0  0  0  0  0  0  0  0  0
   -0.5833   -5.7875    0.0000 C   0  0  0  0  0  0  0  0  0  0  0  0
   -2.5833   -4.0542    0.0000 C   0  0  0  0  0  0  0  0  0  0  0  0
    1.9167   -4.9208    0.0000 C   0  0  0  0  0  0  0  0  0  0  0  0
    0.6292    5.7875    0.0000 C   0  0  0  0  0  0  0  0  0  0  0  0
   -0.3708    5.7875    0.0000 C   0  0  0  0  0  0  0  0  0  0  0  0
  1  2  1  0  0  0  0
  1  3  1  0  0  0  0
  4 13  1  0  0  0  0
  2  5  1  0  0  0  0
  3  6  1  0  0  0  0
  7 19  1  0  0  0  0
  5  8  1  0  0  0  0
  1  9  1  0  0  0  0
  4 10  1  0  0  0  0
  7 11  1  0  0  0  0
 10 12  1  0  0  0  0
  8 13  1  0  0  0  0
 14 18  1  0  0  0  0
  9 15  1  0  0  0  0
  9 16  2  0  0  0  0
 16 17  1  0  0  0  0
 15 18  2  0  0  0  0
 19 21  1  0  0  0  0
  2 20  2  0  0  0  0
  8 21  1  0  0  0  0
  3 22  2  0  0  0  0
 14 23  1  0  0  0  0
 17 24  1  0  0  0  0
 18 25  1  0  0  0  0
 11 26  2  0  0  0  0
 12 27  2  0  0  0  0
 23 28  1  0  0  0  0
 24 29  1  0  0  0  0
 25 30  1  0  0  0  0
 26 31  1  0  0  0  0
 27 32  1  0  0  0  0
  5  6  1  0  0  0  0
 14 17  2  0  0  0  0
  4  7  2  0  0  0  0
 11 12  1  0  0  0  0
 31 32  2  0  0  0  0
M  END
> <MOLFORMULA>
C24 H25 N3 O5

> <MOLWEIGHT>
4.354775000000000e+002

> <IDNUMBER>
AN-153/NB21444

> <PRICE>
EUR 130/10 mg

> <Similarity score>
0.21

$$$$

  -OEChem-04222410502D

 29 33  0     0  0  0  0  0  0999 V2000
    0.6667   -2.7583    0.0000 N   0  0  3  0  0  0  0  0  0  0  0  0
    0.2583   -1.8417    0.0000 C   0  0  0  0  0  0  0  0  0  0  0  0
    1.6625   -2.6542    0.0000 C   0  0  0  0  0  0  0  0  0  0  0  0
   -0.1208    1.2208    0.0000 C   0  0  0  0  0  0  0  0  0  0  0  0
    1.0042   -1.1750    0.0000 C   0  0  3  0  0  0  0  0  0  0  0  0
    0.6875    1.8083    0.0000 C   0  0  0  0  0  0  0  0  0  0  0  0
    1.8667   -1.6750    0.0000 C   0  0  0  0  0  0  0  0  0  0  0  0
    0.9000   -0.1792    0.0000 N   0  0  3  0  0  0  0  0  0  0  0  0
   -0.9292    1.8083    0.0000 N   0  0  0  0  0  0  0  0  0  0  0  0
    0.3792    2.7625    0.0000 C   0  0  0  0  0  0  0  0  0  0  0  0
    0.1667   -3.6208    0.0000 C   0  0  0  0  0  0  0  0  0  0  0  0
   -0.6208    2.7625    0.0000 C   0  0  0  0  0  0  0  0  0  0  0  0
   -0.0167    0.2292    0.0000 C   0  0  0  0  0  0  0  0  0  0  0  0
    1.6042    1.4042    0.0000 C   0  0  0  0  0  0  0  0  0  0  0  0
   -0.8333   -3.6208    0.0000 C   0  0  0  0  0  0  0  0  0  0  0  0
   -0.7167   -1.6333    0.0000 O   0  0  0  0  0  0  0  0  0  0  0  0
    1.7083    0.4083    0.0000 C   0  0  0  0  0  0  0  0  0  0  0  0
    2.3292   -3.3958    0.0000 O   0  0  0  0  0  0  0  0  0  0  0  0
    0.8792    3.6250    0.0000 C   0  0  0  0  0  0  0  0  0  0  0  0
   -1.1208    3.6250    0.0000 C   0  0  0  0  0  0  0  0  0  0  0  0
   -1.3333   -4.4875    0.0000 C   0  0  0  0  0  0  0  0  0  0  0  0
    0.3792    4.4875    0.0000 C   0  0  0  0  0  0  0  0  0  0  0  0
   -0.6208    4.4875    0.0000 C   0  0  0  0  0  0  0  0  0  0  0  0
    0.6667   -4.4875    0.0000 C   0  0  0  0  0  0  0  0  0  0  0  0
   -2.3333   -4.4875    0.0000 Cl  0  0  0  0  0  0  0  0  0  0  0  0
    0.8792    5.3542    0.0000 O   0  0  0  0  0  0  0  0  0  0  0  0
    0.1667   -5.3542    0.0000 C   0  0  0  0  0  0  0  0  0  0  0  0
   -0.8333   -5.3542    0.0000 C   0  0  0  0  0  0  0  0  0  0  0  0
    1.8792    5.3542    0.0000 C   0  0  0  0  0  0  0  0  0  0  0  0
  1  2  1  0  0  0  0
  1  3  1  0  0  0  0
  4 13  1  0  0  0  0
  2  5  1  0  0  0  0
  6 14  1  0  0  0  0
  3  7  1  0  0  0  0
  5  8  1  0  0  0  0
  4  9  1  0  0  0  0
  6 10  1  0  0  0  0
  1 11  1  0  0  0  0
  9 12  1  0  0  0  0
  8 13  1  0  0  0  0
 14 17  1  0  0  0  0
 11 15  2  0  0  0  0
  2 16  2  0  0  0  0
  8 17  1  0  0  0  0
  3 18  2  0  0  0  0
 10 19  2  0  0  0  0
 12 20  2  0  0  0  0
 15 21  1  0  0  0  0
 19 22  1  0  0  0  0
 20 23  1  0  0  0  0
 11 24  1  0  0  0  0
 21 25  1  0  0  0  0
 22 26  1  0  0  0  0
 24 27  2  0  0  0  0
 27 28  1  0  0  0  0
 26 29  1  0  0  0  0
  5  7  1  0  0  0  0
 21 28  2  0  0  0  0
  4  6  2  0  0  0  0
 10 12  1  0  0  0  0
 22 23  2  0  0  0  0
M  END
> <MOLFORMULA>
C22 H20 Cl N3 O3

> <MOLWEIGHT>
4.098710000000000e+002

> <IDNUMBER>
AN-153/NB21452

> <PRICE>
EUR 130/10 mg

> <Similarity score>
0.21

$$$$

  -OEChem-04222410502D

 27 30  0     0  0  0  0  0  0999 V2000
    1.8542   -2.3000    0.0000 C   0  0  0  0  0  0  0  0  0  0  0  0
    2.5750   -2.7167    0.0000 C   0  0  0  0  0  0  0  0  0  0  0  0
    1.1417   -2.7125    0.0000 N   0  0  0  0  0  0  0  0  0  0  0  0
    1.8667   -1.4750    0.0000 N   0  0  3  0  0  0  0  0  0  0  0  0
    1.1667    1.4125    0.0000 C   0  0  0  0  0  0  0  0  0  0  0  0
    1.8542   -3.9500    0.0000 N   0  0  0  0  0  0  0  0  0  0  0  0
    1.1667    2.2375    0.0000 C   0  0  0  0  0  0  0  0  0  0  0  0
    2.5667   -3.5417    0.0000 C   0  0  0  0  0  0  0  0  0  0  0  0
    1.1375   -3.5250    0.0000 C   0  0  0  0  0  0  0  0  0  0  0  0
    1.8750    1.0000    0.0000 N   0  0  0  0  0  0  0  0  0  0  0  0
    0.4542    3.4708    0.0000 N   0  0  0  0  0  0  0  0  0  0  0  0
    1.8875    2.6500    0.0000 C   0  0  0  0  0  0  0  0  0  0  0  0
    1.1542   -1.0542    0.0000 C   0  0  0  0  0  0  0  0  0  0  0  0
    2.5750   -1.0667    0.0000 C   0  0  0  0  0  0  0  0  0  0  0  0
    0.4500    1.0000    0.0000 O   0  0  0  0  0  0  0  0  0  0  0  0
    1.8750    0.1750    0.0000 C   0  0  3  0  0  0  0  0  0  0  0  0
    2.5792   -0.2375    0.0000 C   0  0  0  0  0  0  0  0  0  0  0  0
    1.1542   -0.2375    0.0000 C   0  0  0  0  0  0  0  0  0  0  0  0
    0.4542    2.6500    0.0000 C   0  0  0  0  0  0  0  0  0  0  0  0
    1.8875    3.4708    0.0000 C   0  0  0  0  0  0  0  0  0  0  0  0
    3.3000   -2.3042    0.0000 C   0  0  0  0  0  0  0  0  0  0  0  0
    2.5917    3.8833    0.0000 Br  0  0  0  0  0  0  0  0  0  0  0  0
    1.1667    3.8833    0.0000 C   0  0  0  0  0  0  0  0  0  0  0  0
    3.2792   -3.9542    0.0000 C   0  0  0  0  0  0  0  0  0  0  0  0
    0.4250   -3.9375    0.0000 C   0  0  0  0  0  0  0  0  0  0  0  0
    4.0000   -2.7292    0.0000 C   0  0  0  0  0  0  0  0  0  0  0  0
    3.9917   -3.5542    0.0000 C   0  0  0  0  0  0  0  0  0  0  0  0
  1  2  1  0  0  0  0
  1  3  2  0  0  0  0
  1  4  1  0  0  0  0
  5 10  1  0  0  0  0
  6  9  2  0  0  0  0
  5  7  1  0  0  0  0
  2  8  2  0  0  0  0
  3  9  1  0  0  0  0
 10 16  1  0  0  0  0
 11 19  2  0  0  0  0
  7 12  2  0  0  0  0
  4 13  1  0  0  0  0
  4 14  1  0  0  0  0
  5 15  2  0  0  0  0
 16 17  1  0  0  0  0
 14 17  1  0  0  0  0
 13 18  1  0  0  0  0
  7 19  1  0  0  0  0
 12 20  1  0  0  0  0
  2 21  1  0  0  0  0
 20 22  1  0  0  0  0
 11 23  1  0  0  0  0
  8 24  1  0  0  0  0
  9 25  1  0  0  0  0
 21 26  1  0  0  0  0
 26 27  1  0  0  0  0
  6  8  1  0  0  0  0
 16 18  1  0  0  0  0
 24 27  1  0  0  0  0
 20 23  2  0  0  0  0
M  END
> <MOLFORMULA>
C20 H24 Br N5 O

> <MOLWEIGHT>
4.303476000000000e+002

> <IDNUMBER>
AT-687/SK01687

> <PRICE>
EUR 80/10 mg

> <Similarity score>
0.21

$$$$

  -OEChem-04222410502D

 32 36  0     0  0  0  0  0  0999 V2000
   -1.9708    3.2583    0.0000 C   0  0  0  0  0  0  0  0  0  0  0  0
   -1.9708    4.2542    0.0000 N   0  0  3  0  0  0  0  0  0  0  0  0
   -1.1208    2.7583    0.0000 C   0  0  0  0  0  0  0  0  0  0  0  0
   -2.9375    4.5625    0.0000 N   0  0  0  0  0  0  0  0  0  0  0  0
   -2.9375    2.9458    0.0000 C   0  0  0  0  0  0  0  0  0  0  0  0
   -1.1208    1.7583    0.0000 N   0  0  3  0  0  0  0  0  0  0  0  0
   -3.5208    3.7583    0.0000 C   0  0  0  0  0  0  0  0  0  0  0  0
    0.6167   -0.2500    0.0000 C   0  0  0  0  0  0  0  0  0  0  0  0
   -0.2500    3.2583    0.0000 N   0  0  0  0  0  0  0  0  0  0  0  0
   -0.2500    0.2583    0.0000 C   0  0  3  0  0  0  0  0  0  0  0  0
   -0.2500    1.2583    0.0000 C   0  0  0  0  0  0  0  0  0  0  0  0
   -1.1208    4.7542    0.0000 C   0  0  0  0  0  0  0  0  0  0  0  0
    0.6042   -1.2417    0.0000 N   0  0  0  0  0  0  0  0  0  0  0  0
   -0.2500    4.2542    0.0000 C   0  0  0  0  0  0  0  0  0  0  0  0
    4.0542   -4.2542    0.0000 C   0  0  0  0  0  0  0  0  0  0  0  0
    4.0667   -3.2542    0.0000 N   0  0  0  0  0  0  0  0  0  0  0  0
    1.4792    0.2583    0.0000 O   0  0  0  0  0  0  0  0  0  0  0  0
    3.1875   -4.7500    0.0000 O   0  0  0  0  0  0  0  0  0  0  0  0
    1.4750   -1.7417    0.0000 C   0  0  0  0  0  0  0  0  0  0  0  0
    3.2000   -2.7500    0.0000 C   0  0  0  0  0  0  0  0  0  0  0  0
   -1.9708    1.2583    0.0000 C   0  0  0  0  0  0  0  0  0  0  0  0
   -3.3458    2.0333    0.0000 C   0  0  0  0  0  0  0  0  0  0  0  0
   -1.1208   -0.2375    0.0000 C   0  0  0  0  0  0  0  0  0  0  0  0
    1.4667   -2.7417    0.0000 C   0  0  0  0  0  0  0  0  0  0  0  0
    2.3417   -1.2542    0.0000 C   0  0  0  0  0  0  0  0  0  0  0  0
    2.3167   -3.2542    0.0000 C   0  0  0  0  0  0  0  0  0  0  0  0
    3.2042   -1.7542    0.0000 C   0  0  0  0  0  0  0  0  0  0  0  0
   -4.5208    3.6500    0.0000 C   0  0  0  0  0  0  0  0  0  0  0  0
   -1.9833    0.2708    0.0000 C   0  0  0  0  0  0  0  0  0  0  0  0
    4.9167   -4.7542    0.0000 C   0  0  0  0  0  0  0  0  0  0  0  0
   -4.3333    1.9250    0.0000 C   0  0  0  0  0  0  0  0  0  0  0  0
   -4.9250    2.7333    0.0000 C   0  0  0  0  0  0  0  0  0  0  0  0
  1  2  1  0  0  0  0
  1  3  1  0  0  0  0
  2  4  1  0  0  0  0
  1  5  2  0  0  0  0
  3  6  1  0  0  0  0
  5  7  1  0  0  0  0
  8 10  1  0  0  0  0
  3  9  2  0  0  0  0
 10 11  1  0  0  0  0
  6 11  1  0  0  0  0
  2 12  1  0  0  0  0
  8 13  1  0  0  0  0
  9 14  1  0  0  0  0
 15 16  1  0  0  0  0
 16 20  1  0  0  0  0
  8 17  2  0  0  0  0
 15 18  2  0  0  0  0
 13 19  1  0  0  0  0
 20 27  2  0  0  0  0
  6 21  1  0  0  0  0
  5 22  1  0  0  0  0
 23 29  1  0  0  0  0
 19 24  1  0  0  0  0
 19 25  2  0  0  0  0
 24 26  2  0  0  0  0
 25 27  1  0  0  0  0
  7 28  1  0  0  0  0
 21 29  1  0  0  0  0
 15 30  1  0  0  0  0
 22 31  1  0  0  0  0
 31 32  1  0  0  0  0
  4  7  2  0  0  0  0
 12 14  2  0  0  0  0
 28 32  1  0  0  0  0
 10 23  1  0  0  0  0
 20 26  1  0  0  0  0
M  END
> <MOLFORMULA>
C24 H28 N6 O2

> <MOLWEIGHT>
4.325252000000000e+002

> <IDNUMBER>
AT-687/PE21872

> <PRICE>
EUR 80/10 mg

> <Similarity score>
0.21

$$$$

  -OEChem-04222410502D

 29 34  0     0  0  0  0  0  0999 V2000
    0.7083   -1.9500    0.0000 N   0  0  3  0  0  0  0  0  0  0  0  0
    0.3000   -1.0375    0.0000 C   0  0  0  0  0  0  0  0  0  0  0  0
    1.7000   -1.8458    0.0000 C   0  0  0  0  0  0  0  0  0  0  0  0
   -0.0792    2.0250    0.0000 C   0  0  0  0  0  0  0  0  0  0  0  0
    1.0458   -0.3708    0.0000 C   0  0  3  0  0  0  0  0  0  0  0  0
    1.9083   -0.8708    0.0000 C   0  0  0  0  0  0  0  0  0  0  0  0
    0.7292    2.6125    0.0000 C   0  0  0  0  0  0  0  0  0  0  0  0
    0.9375    0.6250    0.0000 N   0  0  3  0  0  0  0  0  0  0  0  0
   -0.8875    2.6125    0.0000 N   0  0  0  0  0  0  0  0  0  0  0  0
    0.2083   -2.8167    0.0000 C   0  0  0  0  0  0  0  0  0  0  0  0
    0.4208    3.5667    0.0000 C   0  0  0  0  0  0  0  0  0  0  0  0
   -0.5792    3.5667    0.0000 C   0  0  0  0  0  0  0  0  0  0  0  0
    0.0250    1.0333    0.0000 C   0  0  0  0  0  0  0  0  0  0  0  0
   -0.7917   -2.8167    0.0000 C   0  0  0  0  0  0  0  0  0  0  0  0
   -1.2917   -3.6833    0.0000 C   0  0  0  0  0  0  0  0  0  0  0  0
    1.6458    2.2083    0.0000 C   0  0  0  0  0  0  0  0  0  0  0  0
   -0.6792   -0.8292    0.0000 O   0  0  0  0  0  0  0  0  0  0  0  0
    1.7500    1.2125    0.0000 C   0  0  0  0  0  0  0  0  0  0  0  0
    2.3708   -2.5917    0.0000 O   0  0  0  0  0  0  0  0  0  0  0  0
   -0.7917   -4.5500    0.0000 C   0  0  0  0  0  0  0  0  0  0  0  0
   -2.2708   -3.8917    0.0000 O   0  0  0  0  0  0  0  0  0  0  0  0
   -1.4625   -5.2917    0.0000 O   0  0  0  0  0  0  0  0  0  0  0  0
    0.7083   -3.6833    0.0000 C   0  0  0  0  0  0  0  0  0  0  0  0
   -2.3750   -4.8875    0.0000 C   0  0  0  0  0  0  0  0  0  0  0  0
    0.2083   -4.5500    0.0000 C   0  0  0  0  0  0  0  0  0  0  0  0
    0.9208    4.4250    0.0000 C   0  0  0  0  0  0  0  0  0  0  0  0
   -1.0792    4.4250    0.0000 C   0  0  0  0  0  0  0  0  0  0  0  0
    0.4208    5.2917    0.0000 C   0  0  0  0  0  0  0  0  0  0  0  0
   -0.5792    5.2917    0.0000 C   0  0  0  0  0  0  0  0  0  0  0  0
  1  2  1  0  0  0  0
  1  3  1  0  0  0  0
  4 13  1  0  0  0  0
  2  5  1  0  0  0  0
  3  6  1  0  0  0  0
  7 16  1  0  0  0  0
  5  8  1  0  0  0  0
  4  9  1  0  0  0  0
  1 10  1  0  0  0  0
  7 11  1  0  0  0  0
  9 12  1  0  0  0  0
  8 13  1  0  0  0  0
 10 14  2  0  0  0  0
 14 15  1  0  0  0  0
 16 18  1  0  0  0  0
  2 17  2  0  0  0  0
  8 18  1  0  0  0  0
  3 19  2  0  0  0  0
 20 25  1  0  0  0  0
 15 21  1  0  0  0  0
 20 22  1  0  0  0  0
 10 23  1  0  0  0  0
 21 24  1  0  0  0  0
 23 25  2  0  0  0  0
 11 26  2  0  0  0  0
 12 27  2  0  0  0  0
 26 28  1  0  0  0  0
 27 29  1  0  0  0  0
  5  6  1  0  0  0  0
 15 20  2  0  0  0  0
 22 24  1  0  0  0  0
  4  7  2  0  0  0  0
 11 12  1  0  0  0  0
 28 29  2  0  0  0  0
M  END
> <MOLFORMULA>
C22 H19 N3 O4

> <MOLWEIGHT>
3.894091000000000e+002

> <IDNUMBER>
AN-153/NB21437

> <PRICE>
EUR 130/10 mg

> <Similarity score>
0.21

$$$$

  -OEChem-04222410502D

 27 30  0     0  0  0  0  0  0999 V2000
    1.8250   -2.4750    0.0000 C   0  0  0  0  0  0  0  0  0  0  0  0
    2.5292   -2.8917    0.0000 C   0  0  0  0  0  0  0  0  0  0  0  0
    1.8292   -1.6500    0.0000 N   0  0  3  0  0  0  0  0  0  0  0  0
    1.1292    1.2375    0.0000 C   0  0  0  0  0  0  0  0  0  0  0  0
    1.1125   -2.8875    0.0000 N   0  0  0  0  0  0  0  0  0  0  0  0
    1.1292    2.0625    0.0000 C   0  0  0  0  0  0  0  0  0  0  0  0
    1.8417    0.8250    0.0000 N   0  0  0  0  0  0  0  0  0  0  0  0
    2.5292   -3.7250    0.0000 C   0  0  0  0  0  0  0  0  0  0  0  0
    1.8542    3.3000    0.0000 C   0  0  0  0  0  0  0  0  0  0  0  0
    1.8542    2.4750    0.0000 C   0  0  0  0  0  0  0  0  0  0  0  0
    1.8125   -4.1250    0.0000 N   0  0  0  0  0  0  0  0  0  0  0  0
    1.1042   -3.7125    0.0000 C   0  0  0  0  0  0  0  0  0  0  0  0
    1.1167   -1.2375    0.0000 C   0  0  0  0  0  0  0  0  0  0  0  0
    2.5500   -1.2500    0.0000 C   0  0  0  0  0  0  0  0  0  0  0  0
    1.1292    3.6958    0.0000 C   0  0  0  0  0  0  0  0  0  0  0  0
    0.4125    0.8250    0.0000 O   0  0  0  0  0  0  0  0  0  0  0  0
    0.4250    2.4750    0.0000 C   0  0  0  0  0  0  0  0  0  0  0  0
    0.4250    3.3000    0.0000 C   0  0  0  0  0  0  0  0  0  0  0  0
    1.8292   -0.0000    0.0000 C   0  0  3  0  0  0  0  0  0  0  0  0
    2.5500   -0.4167    0.0000 C   0  0  0  0  0  0  0  0  0  0  0  0
    1.1167   -0.4125    0.0000 C   0  0  0  0  0  0  0  0  0  0  0  0
    2.5625    3.6958    0.0000 F   0  0  0  0  0  0  0  0  0  0  0  0
    1.1292    4.5167    0.0000 F   0  0  0  0  0  0  0  0  0  0  0  0
    3.2542   -2.4917    0.0000 C   0  0  0  0  0  0  0  0  0  0  0  0
    3.2375   -4.1292    0.0000 C   0  0  0  0  0  0  0  0  0  0  0  0
    3.9667   -2.9042    0.0000 C   0  0  0  0  0  0  0  0  0  0  0  0
    3.9542   -3.7375    0.0000 C   0  0  0  0  0  0  0  0  0  0  0  0
  1  2  1  0  0  0  0
  1  3  1  0  0  0  0
  4  7  1  0  0  0  0
  1  5  2  0  0  0  0
  4  6  1  0  0  0  0
  7 19  1  0  0  0  0
  2  8  2  0  0  0  0
  9 10  1  0  0  0  0
  6 10  2  0  0  0  0
 11 12  2  0  0  0  0
  5 12  1  0  0  0  0
  3 13  1  0  0  0  0
  3 14  1  0  0  0  0
 15 18  1  0  0  0  0
  4 16  2  0  0  0  0
  6 17  1  0  0  0  0
 17 18  2  0  0  0  0
 19 20  1  0  0  0  0
 14 20  1  0  0  0  0
 13 21  1  0  0  0  0
  9 22  1  0  0  0  0
 15 23  1  0  0  0  0
  2 24  1  0  0  0  0
  8 25  1  0  0  0  0
 24 26  1  0  0  0  0
 26 27  1  0  0  0  0
  8 11  1  0  0  0  0
 19 21  1  0  0  0  0
 25 27  1  0  0  0  0
  9 15  2  0  0  0  0
M  END
> <MOLFORMULA>
C20 H22 F2 N4 O

> <MOLWEIGHT>
3.724168000000000e+002

> <IDNUMBER>
AT-687/SK01629

> <PRICE>
EUR 80/10 mg

> <Similarity score>
0.21

$$$$

  -OEChem-04222410502D

 33 37  0     0  0  0  0  0  0999 V2000
    7.0042    0.1833    0.0000 C   0  0  0  0  0  0  0  0  0  0  0  0
    8.3375    0.1833    0.0000 N   0  0  0  0  0  0  0  0  0  0  0  0
    8.0792   -0.6167    0.0000 N   0  0  3  0  0  0  0  0  0  0  0  0
    7.6667    0.6625    0.0000 N   0  0  0  0  0  0  0  0  0  0  0  0
    7.2542   -0.6167    0.0000 C   0  0  0  0  0  0  0  0  0  0  0  0
    2.4667    0.9333    0.0000 C   0  0  0  0  0  0  0  0  0  0  0  0
    1.8542    0.3833    0.0000 C   0  0  0  0  0  0  0  0  0  0  0  0
    6.2167    0.4333    0.0000 C   0  0  0  0  0  0  0  0  0  0  0  0
    2.3042    1.7458    0.0000 N   0  0  0  0  0  0  0  0  0  0  0  0
    3.2542    0.6708    0.0000 N   0  0  3  0  0  0  0  0  0  0  0  0
    0.9042    1.4458    0.0000 N   0  0  0  0  0  0  0  0  0  0  0  0
    1.0667    0.6458    0.0000 C   0  0  0  0  0  0  0  0  0  0  0  0
    1.5250    2.0083    0.0000 C   0  0  0  0  0  0  0  0  0  0  0  0
    5.6042   -0.1042    0.0000 N   0  0  0  0  0  0  0  0  0  0  0  0
    8.5667   -1.2750    0.0000 C   0  0  0  0  0  0  0  0  0  0  0  0
    6.0417    1.2458    0.0000 O   0  0  0  0  0  0  0  0  0  0  0  0
    3.4167   -0.1375    0.0000 C   0  0  0  0  0  0  0  0  0  0  0  0
    3.8750    1.2208    0.0000 C   0  0  0  0  0  0  0  0  0  0  0  0
    4.8250    0.1458    0.0000 C   0  0  3  0  0  0  0  0  0  0  0  0
    4.2042   -0.3917    0.0000 C   0  0  0  0  0  0  0  0  0  0  0  0
    4.6500    0.9583    0.0000 C   0  0  0  0  0  0  0  0  0  0  0  0
    8.2292   -2.0292    0.0000 C   0  0  0  0  0  0  0  0  0  0  0  0
    9.3875   -1.1917    0.0000 C   0  0  0  0  0  0  0  0  0  0  0  0
    6.7667   -1.2750    0.0000 C   0  0  0  0  0  0  0  0  0  0  0  0
    9.5417   -2.6042    0.0000 C   0  0  0  0  0  0  0  0  0  0  0  0
    2.0042   -0.4292    0.0000 C   0  0  0  0  0  0  0  0  0  0  0  0
    8.7167   -2.7000    0.0000 C   0  0  0  0  0  0  0  0  0  0  0  0
    9.8750   -1.8542    0.0000 C   0  0  0  0  0  0  0  0  0  0  0  0
   10.0292   -3.2750    0.0000 F   0  0  0  0  0  0  0  0  0  0  0  0
    0.4500    0.1083    0.0000 C   0  0  0  0  0  0  0  0  0  0  0  0
    1.3542    2.8083    0.0000 C   0  0  0  0  0  0  0  0  0  0  0  0
    1.3917   -0.9667    0.0000 C   0  0  0  0  0  0  0  0  0  0  0  0
    0.6167   -0.7042    0.0000 C   0  0  0  0  0  0  0  0  0  0  0  0
  2  4  2  0  0  0  0
  3  5  1  0  0  0  0
  1  4  1  0  0  0  0
  1  5  2  0  0  0  0
  6 10  1  0  0  0  0
  6  7  1  0  0  0  0
  1  8  1  0  0  0  0
  6  9  2  0  0  0  0
 10 18  1  0  0  0  0
 11 13  2  0  0  0  0
  7 12  2  0  0  0  0
  9 13  1  0  0  0  0
  8 14  1  0  0  0  0
  3 15  1  0  0  0  0
  8 16  2  0  0  0  0
 17 20  1  0  0  0  0
 18 21  1  0  0  0  0
 14 19  1  0  0  0  0
 19 20  1  0  0  0  0
 19 21  1  0  0  0  0
 15 22  1  0  0  0  0
 15 23  2  0  0  0  0
  5 24  1  0  0  0  0
 25 28  2  0  0  0  0
  7 26  1  0  0  0  0
 22 27  2  0  0  0  0
 23 28  1  0  0  0  0
 25 29  1  0  0  0  0
 12 30  1  0  0  0  0
 13 31  1  0  0  0  0
 26 32  1  0  0  0  0
 32 33  1  0  0  0  0
  2  3  1  0  0  0  0
 10 17  1  0  0  0  0
 25 27  1  0  0  0  0
 11 12  1  0  0  0  0
 30 33  1  0  0  0  0
M  END
> <MOLFORMULA>
C24 H28 F N7 O

> <MOLWEIGHT>
4.495312000000000e+002

> <IDNUMBER>
AT-687/SK01649

> <PRICE>
EUR 80/10 mg

> <Similarity score>
0.21

$$$$

  -OEChem-04222410502D

 28 31  0     0  0  0  0  0  0999 V2000
    1.8417   -0.1917    0.0000 C   0  0  0  0  0  0  0  0  0  0  0  0
    1.8417    0.6333    0.0000 C   0  0  0  0  0  0  0  0  0  0  0  0
    2.5667   -0.6042    0.0000 N   0  0  3  0  0  0  0  0  0  0  0  0
    7.1375   -1.4167    0.0000 C   0  0  0  0  0  0  0  0  0  0  0  0
    1.1292   -0.6042    0.0000 N   0  0  0  0  0  0  0  0  0  0  0  0
    5.4167   -1.4167    0.0000 C   0  0  0  0  0  0  0  0  0  0  0  0
    1.1250    1.0458    0.0000 C   0  0  0  0  0  0  0  0  0  0  0  0
    6.2875   -1.9167    0.0000 C   0  0  0  0  0  0  0  0  0  0  0  0
    0.4167    0.6208    0.0000 N   0  0  0  0  0  0  0  0  0  0  0  0
    0.4250   -0.2042    0.0000 C   0  0  0  0  0  0  0  0  0  0  0  0
    4.7042   -1.8292    0.0000 N   0  0  0  0  0  0  0  0  0  0  0  0
    7.8542   -1.8250    0.0000 C   0  0  0  0  0  0  0  0  0  0  0  0
    7.1292   -0.5917    0.0000 C   0  0  0  0  0  0  0  0  0  0  0  0
    2.5667   -1.4292    0.0000 C   0  0  0  0  0  0  0  0  0  0  0  0
    3.2750   -0.1792    0.0000 C   0  0  0  0  0  0  0  0  0  0  0  0
    5.4167   -0.5917    0.0000 O   0  0  0  0  0  0  0  0  0  0  0  0
    3.9917   -0.5917    0.0000 C   0  0  0  0  0  0  0  0  0  0  0  0
    3.2750   -1.8292    0.0000 C   0  0  0  0  0  0  0  0  0  0  0  0
    3.9917   -1.4167    0.0000 C   0  0  3  0  0  0  0  0  0  0  0  0
    6.4250   -0.1792    0.0000 Cl  0  0  0  0  0  0  0  0  0  0  0  0
    7.8542   -2.6500    0.0000 F   0  0  0  0  0  0  0  0  0  0  0  0
    2.5542    1.0583    0.0000 C   0  0  0  0  0  0  0  0  0  0  0  0
    8.5542   -0.5875    0.0000 C   0  0  0  0  0  0  0  0  0  0  0  0
    7.8417   -0.1750    0.0000 C   0  0  0  0  0  0  0  0  0  0  0  0
    8.5667   -1.4125    0.0000 C   0  0  0  0  0  0  0  0  0  0  0  0
    1.1167    1.8625    0.0000 C   0  0  0  0  0  0  0  0  0  0  0  0
    2.5417    1.8833    0.0000 C   0  0  0  0  0  0  0  0  0  0  0  0
    1.8250    2.2958    0.0000 C   0  0  0  0  0  0  0  0  0  0  0  0
  1  2  1  0  0  0  0
  1  3  1  0  0  0  0
  4  8  1  0  0  0  0
  1  5  2  0  0  0  0
  6 11  1  0  0  0  0
  2  7  2  0  0  0  0
  6  8  1  0  0  0  0
  9 10  2  0  0  0  0
  5 10  1  0  0  0  0
 11 19  1  0  0  0  0
  4 12  2  0  0  0  0
  4 13  1  0  0  0  0
  3 14  1  0  0  0  0
  3 15  1  0  0  0  0
  6 16  2  0  0  0  0
 15 17  1  0  0  0  0
 14 18  1  0  0  0  0
 17 19  1  0  0  0  0
 13 20  1  0  0  0  0
 12 21  1  0  0  0  0
  2 22  1  0  0  0  0
 23 24  1  0  0  0  0
 13 24  2  0  0  0  0
 12 25  1  0  0  0  0
  7 26  1  0  0  0  0
 22 27  1  0  0  0  0
 27 28  1  0  0  0  0
  7  9  1  0  0  0  0
 18 19  1  0  0  0  0
 26 28  1  0  0  0  0
 23 25  2  0  0  0  0
M  END
> <MOLFORMULA>
C21 H24 Cl F N4 O

> <MOLWEIGHT>
4.028986000000000e+002

> <IDNUMBER>
AT-687/SK01643

> <PRICE>
EUR 80/10 mg

> <Similarity score>
0.21

$$$$

  -OEChem-04222410502D

 25 28  0     0  0  0  0  0  0999 V2000
    5.8792    0.2208    0.0000 C   0  0  0  0  0  0  0  0  0  0  0  0
    6.0500    1.0208    0.0000 C   0  0  0  0  0  0  0  0  0  0  0  0
    6.5000   -0.3292    0.0000 N   0  0  0  0  0  0  0  0  0  0  0  0
    5.0917   -0.0292    0.0000 N   0  0  3  0  0  0  0  0  0  0  0  0
    7.4417    0.7333    0.0000 N   0  0  0  0  0  0  0  0  0  0  0  0
    2.5792   -1.6125    0.0000 C   0  0  0  0  0  0  0  0  0  0  0  0
    6.8417    1.2833    0.0000 C   0  0  0  0  0  0  0  0  0  0  0  0
    1.8000   -1.8750    0.0000 C   0  0  0  0  0  0  0  0  0  0  0  0
    7.2750   -0.0750    0.0000 C   0  0  0  0  0  0  0  0  0  0  0  0
    2.7542   -0.8042    0.0000 N   0  0  0  0  0  0  0  0  0  0  0  0
    1.5417   -2.6542    0.0000 N   0  0  0  0  0  0  0  0  0  0  0  0
    4.9250   -0.8417    0.0000 C   0  0  0  0  0  0  0  0  0  0  0  0
    4.4917    0.5083    0.0000 C   0  0  0  0  0  0  0  0  0  0  0  0
    1.1292   -1.3917    0.0000 C   0  0  0  0  0  0  0  0  0  0  0  0
    3.2000   -2.1625    0.0000 O   0  0  0  0  0  0  0  0  0  0  0  0
    0.7167   -2.6542    0.0000 C   0  0  0  0  0  0  0  0  0  0  0  0
    0.4667   -1.8750    0.0000 C   0  0  0  0  0  0  0  0  0  0  0  0
    3.5375   -0.5542    0.0000 C   0  0  3  0  0  0  0  0  0  0  0  0
    3.7000    0.2583    0.0000 C   0  0  0  0  0  0  0  0  0  0  0  0
    4.1500   -1.1042    0.0000 C   0  0  0  0  0  0  0  0  0  0  0  0
    5.4417    1.5833    0.0000 C   0  0  0  0  0  0  0  0  0  0  0  0
    7.0042    2.0833    0.0000 C   0  0  0  0  0  0  0  0  0  0  0  0
    7.8917   -0.6292    0.0000 C   0  0  0  0  0  0  0  0  0  0  0  0
    5.6167    2.3958    0.0000 C   0  0  0  0  0  0  0  0  0  0  0  0
    6.4042    2.6458    0.0000 C   0  0  0  0  0  0  0  0  0  0  0  0
  1  2  1  0  0  0  0
  1  3  2  0  0  0  0
  1  4  1  0  0  0  0
  5  9  2  0  0  0  0
  6 10  1  0  0  0  0
  2  7  2  0  0  0  0
  6  8  1  0  0  0  0
  3  9  1  0  0  0  0
 10 18  1  0  0  0  0
  8 11  1  0  0  0  0
  4 12  1  0  0  0  0
  4 13  1  0  0  0  0
  8 14  2  0  0  0  0
  6 15  2  0  0  0  0
 11 16  1  0  0  0  0
 14 17  1  0  0  0  0
 18 19  1  0  0  0  0
 13 19  1  0  0  0  0
 12 20  1  0  0  0  0
  2 21  1  0  0  0  0
  7 22  1  0  0  0  0
  9 23  1  0  0  0  0
 21 24  1  0  0  0  0
 24 25  1  0  0  0  0
  5  7  1  0  0  0  0
 18 20  1  0  0  0  0
 22 25  1  0  0  0  0
 16 17  2  0  0  0  0
M  END
> <MOLFORMULA>
C19 H25 N5 O

> <MOLWEIGHT>
3.394405000000000e+002

> <IDNUMBER>
AT-687/SK01692

> <PRICE>
EUR 80/10 mg

> <Similarity score>
0.21

$$$$

  -OEChem-04222410502D

 32 36  0     0  0  0  0  0  0999 V2000
    7.0042   -0.9250    0.0000 C   0  0  0  0  0  0  0  0  0  0  0  0
    2.4750   -0.1750    0.0000 C   0  0  0  0  0  0  0  0  0  0  0  0
    7.6667   -0.4417    0.0000 C   0  0  0  0  0  0  0  0  0  0  0  0
    1.8542   -0.7167    0.0000 C   0  0  0  0  0  0  0  0  0  0  0  0
    6.2167   -0.6667    0.0000 C   0  0  0  0  0  0  0  0  0  0  0  0
    2.3042    0.6458    0.0000 N   0  0  0  0  0  0  0  0  0  0  0  0
    3.2542   -0.4292    0.0000 N   0  0  3  0  0  0  0  0  0  0  0  0
    0.9042    0.3583    0.0000 N   0  0  0  0  0  0  0  0  0  0  0  0
    8.3375   -0.9250    0.0000 N   0  0  0  0  0  0  0  0  0  0  0  0
    1.0667   -0.4542    0.0000 C   0  0  0  0  0  0  0  0  0  0  0  0
    1.5250    0.8958    0.0000 C   0  0  0  0  0  0  0  0  0  0  0  0
    8.0792   -1.7167    0.0000 N   0  0  0  0  0  0  0  0  0  0  0  0
    7.6667    0.3833    0.0000 C   0  0  0  0  0  0  0  0  0  0  0  0
    5.6042   -1.2167    0.0000 N   0  0  0  0  0  0  0  0  0  0  0  0
    7.2542   -1.7167    0.0000 C   0  0  0  0  0  0  0  0  0  0  0  0
    6.0500    0.1458    0.0000 O   0  0  0  0  0  0  0  0  0  0  0  0
    3.4167   -1.2375    0.0000 C   0  0  0  0  0  0  0  0  0  0  0  0
    3.8750    0.1125    0.0000 C   0  0  0  0  0  0  0  0  0  0  0  0
    8.3875    0.7958    0.0000 C   0  0  0  0  0  0  0  0  0  0  0  0
    4.8250   -0.9542    0.0000 C   0  0  3  0  0  0  0  0  0  0  0  0
    4.2042   -1.5042    0.0000 C   0  0  0  0  0  0  0  0  0  0  0  0
    4.6542   -0.1417    0.0000 C   0  0  0  0  0  0  0  0  0  0  0  0
    2.0042   -1.5292    0.0000 C   0  0  0  0  0  0  0  0  0  0  0  0
    8.3875    1.6208    0.0000 C   0  0  0  0  0  0  0  0  0  0  0  0
    6.9542    0.7958    0.0000 C   0  0  0  0  0  0  0  0  0  0  0  0
    0.4500   -1.0000    0.0000 C   0  0  0  0  0  0  0  0  0  0  0  0
    1.3542    1.7000    0.0000 C   0  0  0  0  0  0  0  0  0  0  0  0
    6.9625    1.6208    0.0000 C   0  0  0  0  0  0  0  0  0  0  0  0
    7.6667    2.0333    0.0000 C   0  0  0  0  0  0  0  0  0  0  0  0
    9.0917    2.0333    0.0000 C   0  0  0  0  0  0  0  0  0  0  0  0
    1.3917   -2.0750    0.0000 C   0  0  0  0  0  0  0  0  0  0  0  0
    0.6167   -1.8042    0.0000 C   0  0  0  0  0  0  0  0  0  0  0  0
  2  7  1  0  0  0  0
  1  3  1  0  0  0  0
  2  4  1  0  0  0  0
  1  5  1  0  0  0  0
  2  6  2  0  0  0  0
  7 18  1  0  0  0  0
  8 11  2  0  0  0  0
  3  9  2  0  0  0  0
  4 10  2  0  0  0  0
  6 11  1  0  0  0  0
 12 15  1  0  0  0  0
  3 13  1  0  0  0  0
  5 14  1  0  0  0  0
  1 15  2  0  0  0  0
  5 16  2  0  0  0  0
 17 21  1  0  0  0  0
 18 22  1  0  0  0  0
 13 19  2  0  0  0  0
 14 20  1  0  0  0  0
 20 21  1  0  0  0  0
 20 22  1  0  0  0  0
  4 23  1  0  0  0  0
 19 24  1  0  0  0  0
 13 25  1  0  0  0  0
 10 26  1  0  0  0  0
 11 27  1  0  0  0  0
 25 28  2  0  0  0  0
 28 29  1  0  0  0  0
 24 30  1  0  0  0  0
 23 31  1  0  0  0  0
 31 32  1  0  0  0  0
  9 12  1  0  0  0  0
  7 17  1  0  0  0  0
 24 29  2  0  0  0  0
  8 10  1  0  0  0  0
 26 32  1  0  0  0  0
M  END
> <MOLFORMULA>
C25 H30 N6 O

> <MOLWEIGHT>
4.305530000000000e+002

> <IDNUMBER>
AT-687/SK01648

> <PRICE>
EUR 80/10 mg

> <Similarity score>
0.21

$$$$

  -OEChem-04222410502D

 30 35  0     0  0  0  0  0  0999 V2000
    0.7083   -2.3833    0.0000 N   0  0  3  0  0  0  0  0  0  0  0  0
    0.3000   -1.4708    0.0000 C   0  0  0  0  0  0  0  0  0  0  0  0
    1.7000   -2.2792    0.0000 C   0  0  0  0  0  0  0  0  0  0  0  0
   -0.0792    1.5917    0.0000 C   0  0  0  0  0  0  0  0  0  0  0  0
    1.0417   -0.8042    0.0000 C   0  0  3  0  0  0  0  0  0  0  0  0
    0.7292    2.1833    0.0000 C   0  0  0  0  0  0  0  0  0  0  0  0
    1.9083   -1.3042    0.0000 C   0  0  0  0  0  0  0  0  0  0  0  0
    0.9375    0.1917    0.0000 N   0  0  3  0  0  0  0  0  0  0  0  0
   -0.8875    2.1833    0.0000 N   0  0  0  0  0  0  0  0  0  0  0  0
    0.2083   -3.2500    0.0000 C   0  0  0  0  0  0  0  0  0  0  0  0
    0.4208    3.1333    0.0000 C   0  0  0  0  0  0  0  0  0  0  0  0
   -0.5792    3.1333    0.0000 C   0  0  0  0  0  0  0  0  0  0  0  0
    0.0250    0.6000    0.0000 C   0  0  0  0  0  0  0  0  0  0  0  0
   -0.7917   -3.2500    0.0000 C   0  0  0  0  0  0  0  0  0  0  0  0
   -1.2917   -4.1167    0.0000 C   0  0  0  0  0  0  0  0  0  0  0  0
    1.6417    1.7750    0.0000 C   0  0  0  0  0  0  0  0  0  0  0  0
   -0.6792   -1.2625    0.0000 O   0  0  0  0  0  0  0  0  0  0  0  0
    1.7500    0.7792    0.0000 C   0  0  0  0  0  0  0  0  0  0  0  0
    2.3708   -3.0250    0.0000 O   0  0  0  0  0  0  0  0  0  0  0  0
   -0.7917   -4.9833    0.0000 C   0  0  0  0  0  0  0  0  0  0  0  0
   -2.2708   -4.3250    0.0000 O   0  0  0  0  0  0  0  0  0  0  0  0
    0.9208    4.0000    0.0000 C   0  0  0  0  0  0  0  0  0  0  0  0
   -1.4625   -5.7250    0.0000 O   0  0  0  0  0  0  0  0  0  0  0  0
    0.7083   -4.1167    0.0000 C   0  0  0  0  0  0  0  0  0  0  0  0
   -2.3750   -5.3208    0.0000 C   0  0  0  0  0  0  0  0  0  0  0  0
   -1.0792    4.0000    0.0000 C   0  0  0  0  0  0  0  0  0  0  0  0
    0.2083   -4.9833    0.0000 C   0  0  0  0  0  0  0  0  0  0  0  0
    0.4208    4.8583    0.0000 C   0  0  0  0  0  0  0  0  0  0  0  0
   -0.5792    4.8583    0.0000 C   0  0  0  0  0  0  0  0  0  0  0  0
    0.9208    5.7250    0.0000 Cl  0  0  0  0  0  0  0  0  0  0  0  0
  1  2  1  0  0  0  0
  1  3  1  0  0  0  0
  4 13  1  0  0  0  0
  2  5  1  0  0  0  0
  6 16  1  0  0  0  0
  3  7  1  0  0  0  0
  5  8  1  0  0  0  0
  4  9  1  0  0  0  0
  1 10  1  0  0  0  0
  6 11  1  0  0  0  0
  9 12  1  0  0  0  0
  8 13  1  0  0  0  0
 10 14  2  0  0  0  0
 14 15  1  0  0  0  0
 16 18  1  0  0  0  0
  2 17  2  0  0  0  0
  8 18  1  0  0  0  0
  3 19  2  0  0  0  0
 20 27  1  0  0  0  0
 15 21  1  0  0  0  0
 11 22  2  0  0  0  0
 20 23  1  0  0  0  0
 10 24  1  0  0  0  0
 21 25  1  0  0  0  0
 12 26  2  0  0  0  0
 24 27  2  0  0  0  0
 22 28  1  0  0  0  0
 26 29  1  0  0  0  0
 28 30  1  0  0  0  0
  5  7  1  0  0  0  0
 15 20  2  0  0  0  0
 23 25  1  0  0  0  0
  4  6  2  0  0  0  0
 11 12  1  0  0  0  0
 28 29  2  0  0  0  0
M  END
> <MOLFORMULA>
C22 H18 Cl N3 O4

> <MOLWEIGHT>
4.238542000000000e+002

> <IDNUMBER>
AN-153/NB21473

> <PRICE>
EUR 130/10 mg

> <Similarity score>
0.21

$$$$

  -OEChem-04222410502D

 23 26  0     0  0  0  0  0  0999 V2000
    6.0292   -0.7000    0.0000 C   0  0  0  0  0  0  0  0  0  0  0  0
    6.0292    0.1083    0.0000 C   0  0  0  0  0  0  0  0  0  0  0  0
    5.3458   -1.1042    0.0000 N   0  0  0  0  0  0  0  0  0  0  0  0
    4.6458    0.1000    0.0000 C   0  0  0  0  0  0  0  0  0  0  0  0
    4.6500   -0.7042    0.0000 C   0  0  0  0  0  0  0  0  0  0  0  0
    7.4167   -0.6917    0.0000 N   0  0  3  0  0  0  0  0  0  0  0  0
    6.7250   -1.0917    0.0000 C   0  0  0  0  0  0  0  0  0  0  0  0
    6.7167    0.5125    0.0000 C   0  0  0  0  0  0  0  0  0  0  0  0
    3.9458    0.4958    0.0000 C   0  0  0  0  0  0  0  0  0  0  0  0
    3.9458   -1.1125    0.0000 C   0  0  0  0  0  0  0  0  0  0  0  0
    7.4125    0.1125    0.0000 C   0  0  0  0  0  0  0  0  0  0  0  0
    8.1083   -1.0875    0.0000 C   0  0  0  0  0  0  0  0  0  0  0  0
    3.2542    0.0958    0.0000 C   0  0  0  0  0  0  0  0  0  0  0  0
    3.2542   -0.7125    0.0000 C   0  0  0  0  0  0  0  0  0  0  0  0
    8.1125   -1.8875    0.0000 C   0  0  0  0  0  0  0  0  0  0  0  0
    1.8250    1.7458    0.0000 O   0  0  0  0  0  0  0  0  0  0  0  0
    2.5417    0.5083    0.0000 C   0  0  0  0  0  0  0  0  0  0  0  0
    2.5417    1.3333    0.0000 C   0  0  0  0  0  0  0  0  0  0  0  0
    8.8083   -2.2792    0.0000 C   0  0  0  0  0  0  0  0  0  0  0  0
    7.4208   -2.2875    0.0000 C   0  0  0  0  0  0  0  0  0  0  0  0
    7.4250   -3.0875    0.0000 C   0  0  0  0  0  0  0  0  0  0  0  0
    8.8167   -3.0792    0.0000 C   0  0  0  0  0  0  0  0  0  0  0  0
    8.1208   -3.4875    0.0000 C   0  0  0  0  0  0  0  0  0  0  0  0
  1  2  2  0  0  0  0
  1  3  1  0  0  0  0
  2  4  1  0  0  0  0
  3  5  1  0  0  0  0
  6  7  1  0  0  0  0
  1  7  1  0  0  0  0
  2  8  1  0  0  0  0
  4  9  2  0  0  0  0
  5 10  2  0  0  0  0
  8 11  1  0  0  0  0
  6 12  1  0  0  0  0
  9 13  1  0  0  0  0
 10 14  1  0  0  0  0
 12 15  1  0  0  0  0
 16 18  1  0  0  0  0
 13 17  1  0  0  0  0
 17 18  1  0  0  0  0
 15 19  1  0  0  0  0
 15 20  2  0  0  0  0
 20 21  1  0  0  0  0
 19 22  2  0  0  0  0
 22 23  1  0  0  0  0
  4  5  1  0  0  0  0
  6 11  1  0  0  0  0
 13 14  2  0  0  0  0
 21 23  2  0  0  0  0
M  END
> <MOLFORMULA>
C20 H22 N2 O

> <MOLWEIGHT>
3.064068000000000e+002

> <IDNUMBER>
AT-819/OC11982

> <PRICE>
EUR 192/10 mg

> <Similarity score>
0.21

$$$$

  -OEChem-04222410502D

 31 35  0     0  0  0  0  0  0999 V2000
    0.3500   -1.0250    0.0000 N   0  0  3  0  0  0  0  0  0  0  0  0
   -0.0583   -0.1125    0.0000 C   0  0  0  0  0  0  0  0  0  0  0  0
    1.3417   -0.9208    0.0000 C   0  0  0  0  0  0  0  0  0  0  0  0
   -0.4375    2.9542    0.0000 C   0  0  0  0  0  0  0  0  0  0  0  0
    0.6875    0.5583    0.0000 C   0  0  3  0  0  0  0  0  0  0  0  0
    1.5500    0.0583    0.0000 C   0  0  0  0  0  0  0  0  0  0  0  0
    0.3708    3.5417    0.0000 C   0  0  0  0  0  0  0  0  0  0  0  0
    0.5792    1.5542    0.0000 N   0  0  3  0  0  0  0  0  0  0  0  0
   -1.2458    3.5417    0.0000 N   0  0  0  0  0  0  0  0  0  0  0  0
    0.0625    4.4875    0.0000 C   0  0  0  0  0  0  0  0  0  0  0  0
   -0.9375    4.4875    0.0000 C   0  0  0  0  0  0  0  0  0  0  0  0
   -0.3333    1.9583    0.0000 C   0  0  0  0  0  0  0  0  0  0  0  0
   -1.1500   -5.3542    0.0000 C   0  0  3  0  0  0  0  0  0  0  0  0
   -0.1500   -1.8917    0.0000 C   0  0  0  0  0  0  0  0  0  0  0  0
    1.2875    3.1333    0.0000 C   0  0  0  0  0  0  0  0  0  0  0  0
   -1.0375    0.0958    0.0000 O   0  0  0  0  0  0  0  0  0  0  0  0
    1.3917    2.1417    0.0000 C   0  0  0  0  0  0  0  0  0  0  0  0
    2.0125   -1.6625    0.0000 O   0  0  0  0  0  0  0  0  0  0  0  0
   -1.6500   -4.4875    0.0000 O   0  0  0  0  0  0  0  0  0  0  0  0
    0.3500   -2.7583    0.0000 C   0  0  0  0  0  0  0  0  0  0  0  0
   -1.1500   -1.8917    0.0000 C   0  0  0  0  0  0  0  0  0  0  0  0
   -0.2833   -4.8542    0.0000 F   0  0  0  0  0  0  0  0  0  0  0  0
   -0.6500   -6.2208    0.0000 F   0  0  0  0  0  0  0  0  0  0  0  0
   -2.0167   -5.8542    0.0000 F   0  0  0  0  0  0  0  0  0  0  0  0
   -1.1500   -3.6208    0.0000 C   0  0  0  0  0  0  0  0  0  0  0  0
   -1.6500   -2.7583    0.0000 C   0  0  0  0  0  0  0  0  0  0  0  0
   -0.1500   -3.6208    0.0000 C   0  0  0  0  0  0  0  0  0  0  0  0
    0.5625    5.3542    0.0000 C   0  0  0  0  0  0  0  0  0  0  0  0
   -1.4375    5.3542    0.0000 C   0  0  0  0  0  0  0  0  0  0  0  0
    0.0625    6.2208    0.0000 C   0  0  0  0  0  0  0  0  0  0  0  0
   -0.9375    6.2208    0.0000 C   0  0  0  0  0  0  0  0  0  0  0  0
  1  2  1  0  0  0  0
  1  3  1  0  0  0  0
  4 12  1  0  0  0  0
  2  5  1  0  0  0  0
  3  6  1  0  0  0  0
  7 15  1  0  0  0  0
  5  8  1  0  0  0  0
  4  9  1  0  0  0  0
  7 10  1  0  0  0  0
  9 11  1  0  0  0  0
  8 12  1  0  0  0  0
 13 19  1  0  0  0  0
  1 14  1  0  0  0  0
 15 17  1  0  0  0  0
  2 16  2  0  0  0  0
  8 17  1  0  0  0  0
  3 18  2  0  0  0  0
 19 25  1  0  0  0  0
 14 20  2  0  0  0  0
 14 21  1  0  0  0  0
 13 22  1  0  0  0  0
 13 23  1  0  0  0  0
 13 24  1  0  0  0  0
 25 26  1  0  0  0  0
 21 26  2  0  0  0  0
 20 27  1  0  0  0  0
 10 28  2  0  0  0  0
 11 29  2  0  0  0  0
 28 30  1  0  0  0  0
 29 31  1  0  0  0  0
  5  6  1  0  0  0  0
 25 27  2  0  0  0  0
  4  7  2  0  0  0  0
 10 11  1  0  0  0  0
 30 31  2  0  0  0  0
M  END
> <MOLFORMULA>
C22 H18 F3 N3 O3

> <MOLWEIGHT>
4.293962000000000e+002

> <IDNUMBER>
AN-153/NB21474

> <PRICE>
EUR 130/10 mg

> <Similarity score>
0.21

$$$$

  -OEChem-04222410502D

 31 35  0     0  0  0  0  0  0999 V2000
    3.7417   -2.6542    0.0000 N   0  0  3  0  0  0  0  0  0  0  0  0
    4.0000   -1.8750    0.0000 N   0  0  0  0  0  0  0  0  0  0  0  0
    2.6250    3.1458    0.0000 C   0  0  0  0  0  0  0  0  0  0  0  0
    3.3292   -1.3917    0.0000 C   0  0  0  0  0  0  0  0  0  0  0  0
    1.9042    3.5458    0.0000 C   0  0  0  0  0  0  0  0  0  0  0  0
    2.9167   -2.6542    0.0000 N   0  0  0  0  0  0  0  0  0  0  0  0
    3.3375    3.5458    0.0000 N   0  0  0  0  0  0  0  0  0  0  0  0
    3.3292   -0.5667    0.0000 C   0  0  0  0  0  0  0  0  0  0  0  0
    2.6167    2.3208    0.0000 N   0  0  3  0  0  0  0  0  0  0  0  0
    2.6542   -1.8750    0.0000 C   0  0  0  0  0  0  0  0  0  0  0  0
    2.6292    4.7750    0.0000 N   0  0  0  0  0  0  0  0  0  0  0  0
    1.9167    4.3667    0.0000 C   0  0  0  0  0  0  0  0  0  0  0  0
    3.3375    4.3542    0.0000 C   0  0  0  0  0  0  0  0  0  0  0  0
    2.6167   -0.1542    0.0000 N   0  0  0  0  0  0  0  0  0  0  0  0
    4.2250   -3.3292    0.0000 C   0  0  0  0  0  0  0  0  0  0  0  0
    3.3375    1.9000    0.0000 C   0  0  0  0  0  0  0  0  0  0  0  0
    1.9042    1.9083    0.0000 C   0  0  0  0  0  0  0  0  0  0  0  0
    4.0417   -0.1542    0.0000 O   0  0  0  0  0  0  0  0  0  0  0  0
    2.6167    0.6708    0.0000 C   0  0  3  0  0  0  0  0  0  0  0  0
    1.9042    1.0833    0.0000 C   0  0  0  0  0  0  0  0  0  0  0  0
    3.3375    1.0833    0.0000 C   0  0  0  0  0  0  0  0  0  0  0  0
    1.1917    3.1458    0.0000 C   0  0  0  0  0  0  0  0  0  0  0  0
    1.2042    4.7792    0.0000 C   0  0  0  0  0  0  0  0  0  0  0  0
    4.0625    4.7750    0.0000 C   0  0  0  0  0  0  0  0  0  0  0  0
    3.8917   -4.0792    0.0000 C   0  0  0  0  0  0  0  0  0  0  0  0
    5.0500   -3.2417    0.0000 C   0  0  0  0  0  0  0  0  0  0  0  0
    0.4792    3.5625    0.0000 C   0  0  0  0  0  0  0  0  0  0  0  0
    0.4917    4.3792    0.0000 C   0  0  0  0  0  0  0  0  0  0  0  0
    5.5292   -3.9167    0.0000 C   0  0  0  0  0  0  0  0  0  0  0  0
    4.3792   -4.7500    0.0000 C   0  0  0  0  0  0  0  0  0  0  0  0
    5.1917   -4.6542    0.0000 C   0  0  0  0  0  0  0  0  0  0  0  0
  1  2  1  0  0  0  0
  3  9  1  0  0  0  0
  2  4  2  0  0  0  0
  3  5  1  0  0  0  0
  1  6  1  0  0  0  0
  3  7  2  0  0  0  0
  4  8  1  0  0  0  0
  9 16  1  0  0  0  0
  6 10  2  0  0  0  0
 11 13  2  0  0  0  0
  5 12  2  0  0  0  0
  7 13  1  0  0  0  0
  8 14  1  0  0  0  0
  1 15  1  0  0  0  0
 16 21  1  0  0  0  0
 17 20  1  0  0  0  0
  8 18  2  0  0  0  0
 14 19  1  0  0  0  0
 19 20  1  0  0  0  0
 19 21  1  0  0  0  0
  5 22  1  0  0  0  0
 12 23  1  0  0  0  0
 13 24  1  0  0  0  0
 15 25  2  0  0  0  0
 15 26  1  0  0  0  0
 22 27  1  0  0  0  0
 27 28  1  0  0  0  0
 26 29  2  0  0  0  0
 25 30  1  0  0  0  0
 29 31  1  0  0  0  0
  4 10  1  0  0  0  0
 30 31  2  0  0  0  0
  9 17  1  0  0  0  0
 11 12  1  0  0  0  0
 23 28  1  0  0  0  0
M  END
> <MOLFORMULA>
C23 H27 N7 O

> <MOLWEIGHT>
4.175143000000000e+002

> <IDNUMBER>
AT-687/SK01651

> <PRICE>
EUR 80/10 mg

> <Similarity score>
0.21

$$$$

  -OEChem-04222410502D

 33 37  0     0  0  0  0  0  0999 V2000
    4.7125    1.3000    0.0000 C   0  0  0  0  0  0  0  0  0  0  0  0
    2.6125   -2.7792    0.0000 C   0  0  0  0  0  0  0  0  0  0  0  0
    2.9417   -3.5375    0.0000 C   0  0  0  0  0  0  0  0  0  0  0  0
    4.4542    2.0958    0.0000 C   0  0  0  0  0  0  0  0  0  0  0  0
    5.1250    2.5708    0.0000 C   0  0  0  0  0  0  0  0  0  0  0  0
    5.7917    2.0958    0.0000 N   0  0  0  0  0  0  0  0  0  0  0  0
    1.7917   -2.6917    0.0000 N   0  0  0  0  0  0  0  0  0  0  0  0
    5.5375    1.3000    0.0000 N   0  0  0  0  0  0  0  0  0  0  0  0
    4.2250    0.6333    0.0000 C   0  0  0  0  0  0  0  0  0  0  0  0
    3.1000   -2.1167    0.0000 N   0  0  3  0  0  0  0  0  0  0  0  0
    1.6417   -4.1042    0.0000 N   0  0  0  0  0  0  0  0  0  0  0  0
    2.4542   -4.2042    0.0000 C   0  0  0  0  0  0  0  0  0  0  0  0
    1.3042   -3.3542    0.0000 C   0  0  0  0  0  0  0  0  0  0  0  0
    5.1250    3.3833    0.0000 C   0  0  0  0  0  0  0  0  0  0  0  0
    4.5542   -0.1167    0.0000 N   0  0  0  0  0  0  0  0  0  0  0  0
    2.7625   -1.3542    0.0000 C   0  0  0  0  0  0  0  0  0  0  0  0
    3.9167   -2.2042    0.0000 C   0  0  0  0  0  0  0  0  0  0  0  0
    3.4000    0.7250    0.0000 O   0  0  0  0  0  0  0  0  0  0  0  0
    5.8292    3.7958    0.0000 C   0  0  0  0  0  0  0  0  0  0  0  0
    4.0750   -0.7792    0.0000 C   0  0  3  0  0  0  0  0  0  0  0  0
    4.4042   -1.5375    0.0000 C   0  0  0  0  0  0  0  0  0  0  0  0
    3.2500   -0.7000    0.0000 C   0  0  0  0  0  0  0  0  0  0  0  0
    3.7667   -3.6292    0.0000 C   0  0  0  0  0  0  0  0  0  0  0  0
    6.5542    3.3833    0.0000 O   0  0  0  0  0  0  0  0  0  0  0  0
    4.4125    3.7958    0.0000 C   0  0  0  0  0  0  0  0  0  0  0  0
    2.7792   -4.9542    0.0000 C   0  0  0  0  0  0  0  0  0  0  0  0
    0.4875   -3.2625    0.0000 C   0  0  0  0  0  0  0  0  0  0  0  0
    5.8292    4.6167    0.0000 C   0  0  0  0  0  0  0  0  0  0  0  0
    7.2667    3.7958    0.0000 C   0  0  0  0  0  0  0  0  0  0  0  0
    4.0917   -4.3917    0.0000 C   0  0  0  0  0  0  0  0  0  0  0  0
    4.4125    4.6167    0.0000 C   0  0  0  0  0  0  0  0  0  0  0  0
    3.6000   -5.0500    0.0000 C   0  0  0  0  0  0  0  0  0  0  0  0
    5.1250    5.0292    0.0000 C   0  0  0  0  0  0  0  0  0  0  0  0
  2 10  1  0  0  0  0
  2  3  1  0  0  0  0
  1  4  2  0  0  0  0
  4  5  1  0  0  0  0
  6  8  1  0  0  0  0
  2  7  2  0  0  0  0
  1  8  1  0  0  0  0
  1  9  1  0  0  0  0
 10 16  1  0  0  0  0
 11 13  2  0  0  0  0
  3 12  2  0  0  0  0
  7 13  1  0  0  0  0
  5 14  1  0  0  0  0
  9 15  1  0  0  0  0
 16 22  1  0  0  0  0
 17 21  1  0  0  0  0
  9 18  2  0  0  0  0
 14 19  2  0  0  0  0
 15 20  1  0  0  0  0
 20 21  1  0  0  0  0
 20 22  1  0  0  0  0
  3 23  1  0  0  0  0
 19 24  1  0  0  0  0
 14 25  1  0  0  0  0
 12 26  1  0  0  0  0
 13 27  1  0  0  0  0
 19 28  1  0  0  0  0
 24 29  1  0  0  0  0
 23 30  1  0  0  0  0
 25 31  2  0  0  0  0
 30 32  1  0  0  0  0
 31 33  1  0  0  0  0
  5  6  2  0  0  0  0
 10 17  1  0  0  0  0
 28 33  2  0  0  0  0
 11 12  1  0  0  0  0
 26 32  1  0  0  0  0
M  END
> <MOLFORMULA>
C25 H30 N6 O2

> <MOLWEIGHT>
4.465520000000000e+002

> <IDNUMBER>
AT-687/SK01663

> <PRICE>
EUR 80/10 mg

> <Similarity score>
0.21

$$$$

  -OEChem-04222410502D

 27 30  0     0  0  0  0  0  0999 V2000
    2.6375    0.4125    0.0000 C   0  0  0  0  0  0  0  0  0  0  0  0
    1.9167    0.0083    0.0000 C   0  0  0  0  0  0  0  0  0  0  0  0
    2.6375    1.2458    0.0000 N   0  0  0  0  0  0  0  0  0  0  0  0
    3.3417   -0.0000    0.0000 N   0  0  3  0  0  0  0  0  0  0  0  0
    8.3375   -1.2292    0.0000 N   0  3  0  0  0  0  0  0  0  0  0  0
    6.1917   -0.8167    0.0000 C   0  0  0  0  0  0  0  0  0  0  0  0
    1.2042    1.2458    0.0000 N   0  0  0  0  0  0  0  0  0  0  0  0
    6.9042   -1.2292    0.0000 C   0  0  0  0  0  0  0  0  0  0  0  0
    1.2000    0.4208    0.0000 C   0  0  0  0  0  0  0  0  0  0  0  0
    1.9167    1.6500    0.0000 C   0  0  0  0  0  0  0  0  0  0  0  0
    5.4875   -1.2292    0.0000 N   0  0  0  0  0  0  0  0  0  0  0  0
    7.6250   -0.8167    0.0000 C   0  0  0  0  0  0  0  0  0  0  0  0
    9.0417   -0.8167    0.0000 O   0  5  0  0  0  0  0  0  0  0  0  0
    3.3417   -0.8167    0.0000 C   0  0  0  0  0  0  0  0  0  0  0  0
    4.0542    0.4125    0.0000 C   0  0  0  0  0  0  0  0  0  0  0  0
    6.1917    0.0083    0.0000 O   0  0  0  0  0  0  0  0  0  0  0  0
    4.7750   -0.8167    0.0000 C   0  0  3  0  0  0  0  0  0  0  0  0
    4.7750    0.0083    0.0000 C   0  0  0  0  0  0  0  0  0  0  0  0
    4.0542   -1.2292    0.0000 C   0  0  0  0  0  0  0  0  0  0  0  0
    8.3375   -2.0542    0.0000 C   0  0  0  0  0  0  0  0  0  0  0  0
    1.9042   -0.8167    0.0000 C   0  0  0  0  0  0  0  0  0  0  0  0
    6.9042   -2.0542    0.0000 C   0  0  0  0  0  0  0  0  0  0  0  0
    0.4917    0.0125    0.0000 C   0  0  0  0  0  0  0  0  0  0  0  0
    7.6250   -2.4667    0.0000 C   0  0  0  0  0  0  0  0  0  0  0  0
    1.9167    2.4750    0.0000 C   0  0  0  0  0  0  0  0  0  0  0  0
    1.1917   -1.2292    0.0000 C   0  0  0  0  0  0  0  0  0  0  0  0
    0.4792   -0.8000    0.0000 C   0  0  0  0  0  0  0  0  0  0  0  0
  1  2  1  0  0  0  0
  1  3  2  0  0  0  0
  1  4  1  0  0  0  0
  5 12  1  0  0  0  0
  6 11  1  0  0  0  0
  7 10  2  0  0  0  0
  6  8  1  0  0  0  0
  2  9  2  0  0  0  0
  3 10  1  0  0  0  0
 11 17  1  0  0  0  0
  8 12  2  0  0  0  0
  5 13  1  0  0  0  0
  4 14  1  0  0  0  0
  4 15  1  0  0  0  0
  6 16  2  0  0  0  0
 17 18  1  0  0  0  0
 15 18  1  0  0  0  0
 14 19  1  0  0  0  0
 20 24  1  0  0  0  0
  2 21  1  0  0  0  0
  8 22  1  0  0  0  0
  9 23  1  0  0  0  0
 22 24  2  0  0  0  0
 10 25  1  0  0  0  0
 21 26  1  0  0  0  0
 26 27  1  0  0  0  0
  7  9  1  0  0  0  0
 17 19  1  0  0  0  0
 23 27  1  0  0  0  0
  5 20  2  0  0  0  0
M  CHG  2   5   1  13  -1
M  END
> <MOLFORMULA>
C20 H25 N5 O2

> <MOLWEIGHT>
3.674505000000000e+002

> <IDNUMBER>
AT-687/SK01666

> <PRICE>
EUR 80/10 mg

> <Similarity score>
0.21

$$$$

  -OEChem-04222410502D

 37 43  0     0  0  0  0  0  0999 V2000
    2.4917   -0.0750    0.0000 N   0  0  0  0  0  0  0  0  0  0  0  0
    2.4917    0.7583    0.0000 C   0  0  0  0  0  0  0  0  0  0  0  0
    1.7792   -0.4917    0.0000 C   0  0  0  0  0  0  0  0  0  0  0  0
    3.2042    1.1750    0.0000 N   0  0  3  0  0  0  0  0  0  0  0  0
    1.7667    1.1708    0.0000 N   0  0  0  0  0  0  0  0  0  0  0  0
    1.0542   -0.0792    0.0000 C   0  0  0  0  0  0  0  0  0  0  0  0
    1.7667   -3.7875    0.0000 C   0  0  0  0  0  0  0  0  0  0  0  0
    1.7750   -1.3167    0.0000 N   0  0  3  0  0  0  0  0  0  0  0  0
    1.7667   -2.9667    0.0000 N   0  0  3  0  0  0  0  0  0  0  0  0
    1.0542   -4.1917    0.0000 C   0  0  0  0  0  0  0  0  0  0  0  0
    1.7667   -5.4375    0.0000 N   0  0  0  0  0  0  0  0  0  0  0  0
    1.0542    0.7500    0.0000 C   0  0  0  0  0  0  0  0  0  0  0  0
    1.0542   -5.0250    0.0000 C   0  0  0  0  0  0  0  0  0  0  0  0
    3.9250    0.7625    0.0000 C   0  0  0  0  0  0  0  0  0  0  0  0
    2.4792   -4.1917    0.0000 C   0  0  0  0  0  0  0  0  0  0  0  0
    4.6292    1.1750    0.0000 C   0  0  0  0  0  0  0  0  0  0  0  0
    2.4875   -5.0167    0.0000 C   0  0  0  0  0  0  0  0  0  0  0  0
    3.1917    1.9958    0.0000 C   0  0  0  0  0  0  0  0  0  0  0  0
    2.4917   -1.7292    0.0000 C   0  0  0  0  0  0  0  0  0  0  0  0
    1.0542   -1.7292    0.0000 C   0  0  0  0  0  0  0  0  0  0  0  0
    1.0542   -2.5542    0.0000 C   0  0  0  0  0  0  0  0  0  0  0  0
    2.4875   -2.5542    0.0000 C   0  0  0  0  0  0  0  0  0  0  0  0
    4.6292    2.0083    0.0000 C   0  0  0  0  0  0  0  0  0  0  0  0
    3.9125    2.4125    0.0000 C   0  0  0  0  0  0  0  0  0  0  0  0
    0.3375   -0.5000    0.0000 C   0  0  0  0  0  0  0  0  0  0  0  0
    0.3500   -3.7875    0.0000 C   0  0  0  0  0  0  0  0  0  0  0  0
    0.3375    1.1625    0.0000 C   0  0  0  0  0  0  0  0  0  0  0  0
    0.3417   -5.4292    0.0000 C   0  0  0  0  0  0  0  0  0  0  0  0
    5.3417    0.7625    0.0000 C   0  0  0  0  0  0  0  0  0  0  0  0
    3.2000   -5.4292    0.0000 C   0  0  0  0  0  0  0  0  0  0  0  0
    5.3417    2.4208    0.0000 C   0  0  0  0  0  0  0  0  0  0  0  0
   -0.3833   -0.0792    0.0000 C   0  0  0  0  0  0  0  0  0  0  0  0
   -0.3625   -4.1917    0.0000 C   0  0  0  0  0  0  0  0  0  0  0  0
   -0.3833    0.7500    0.0000 C   0  0  0  0  0  0  0  0  0  0  0  0
   -0.3625   -5.0167    0.0000 C   0  0  0  0  0  0  0  0  0  0  0  0
    6.0625    1.1750    0.0000 C   0  0  0  0  0  0  0  0  0  0  0  0
    6.0542    2.0083    0.0000 C   0  0  0  0  0  0  0  0  0  0  0  0
  1  2  1  0  0  0  0
  1  3  2  0  0  0  0
  2  4  1  0  0  0  0
  2  5  2  0  0  0  0
  3  6  1  0  0  0  0
  7  9  1  0  0  0  0
  3  8  1  0  0  0  0
  9 21  1  0  0  0  0
  7 10  2  0  0  0  0
 11 17  1  0  0  0  0
  6 12  1  0  0  0  0
 10 13  1  0  0  0  0
  4 14  1  0  0  0  0
  7 15  1  0  0  0  0
 14 16  1  0  0  0  0
 15 17  2  0  0  0  0
  4 18  1  0  0  0  0
  8 19  1  0  0  0  0
  8 20  1  0  0  0  0
 20 21  1  0  0  0  0
 19 22  1  0  0  0  0
 23 24  1  0  0  0  0
 18 24  1  0  0  0  0
  6 25  2  0  0  0  0
 10 26  1  0  0  0  0
 12 27  2  0  0  0  0
 13 28  1  0  0  0  0
 16 29  1  0  0  0  0
 17 30  1  0  0  0  0
 23 31  1  0  0  0  0
 25 32  1  0  0  0  0
 26 33  2  0  0  0  0
 32 34  2  0  0  0  0
 33 35  1  0  0  0  0
 29 36  2  0  0  0  0
 31 37  2  0  0  0  0
  5 12  1  0  0  0  0
  9 22  1  0  0  0  0
 27 34  1  0  0  0  0
 16 23  2  0  0  0  0
 36 37  1  0  0  0  0
 11 13  2  0  0  0  0
 28 35  2  0  0  0  0
M  END
> <MOLFORMULA>
C31 H30 N6

> <MOLWEIGHT>
4.866200000000000e+002

> <IDNUMBER>
AM-879/J184279

> <PRICE>
EUR 55.00/10 mg

> <Similarity score>
0.21

$$$$

  -OEChem-04222410502D

 29 33  0     0  0  0  0  0  0999 V2000
    3.3292   -2.1167    0.0000 C   0  0  0  0  0  0  0  0  0  0  0  0
    2.6250    2.4208    0.0000 C   0  0  0  0  0  0  0  0  0  0  0  0
    4.0000   -2.5917    0.0000 N   0  0  0  0  0  0  0  0  0  0  0  0
    1.9042    2.8333    0.0000 C   0  0  0  0  0  0  0  0  0  0  0  0
    3.3292   -1.2917    0.0000 C   0  0  0  0  0  0  0  0  0  0  0  0
    3.3375    2.8333    0.0000 N   0  0  0  0  0  0  0  0  0  0  0  0
    2.6542   -2.5917    0.0000 C   0  0  0  0  0  0  0  0  0  0  0  0
    2.6167    1.5958    0.0000 N   0  0  3  0  0  0  0  0  0  0  0  0
    3.7417   -3.3917    0.0000 N   0  0  0  0  0  0  0  0  0  0  0  0
    2.6292    4.0417    0.0000 N   0  0  0  0  0  0  0  0  0  0  0  0
    1.9167    3.6458    0.0000 C   0  0  0  0  0  0  0  0  0  0  0  0
    3.3375    3.6333    0.0000 C   0  0  0  0  0  0  0  0  0  0  0  0
    2.6167   -0.8792    0.0000 N   0  0  0  0  0  0  0  0  0  0  0  0
    2.9167   -3.3917    0.0000 C   0  0  0  0  0  0  0  0  0  0  0  0
    4.0417   -0.8792    0.0000 O   0  0  0  0  0  0  0  0  0  0  0  0
    1.9042    1.1833    0.0000 C   0  0  0  0  0  0  0  0  0  0  0  0
    3.3375    1.1833    0.0000 C   0  0  0  0  0  0  0  0  0  0  0  0
    2.6167   -0.0542    0.0000 C   0  0  3  0  0  0  0  0  0  0  0  0
    1.9042    0.3583    0.0000 C   0  0  0  0  0  0  0  0  0  0  0  0
    3.3375    0.3583    0.0000 C   0  0  0  0  0  0  0  0  0  0  0  0
    1.1917    2.4208    0.0000 C   0  0  0  0  0  0  0  0  0  0  0  0
    1.8542   -2.4292    0.0000 C   0  0  0  0  0  0  0  0  0  0  0  0
    1.2042    4.0542    0.0000 C   0  0  0  0  0  0  0  0  0  0  0  0
    4.0625    4.0417    0.0000 C   0  0  0  0  0  0  0  0  0  0  0  0
    2.3625   -4.0000    0.0000 C   0  0  0  0  0  0  0  0  0  0  0  0
    0.4792    2.8375    0.0000 C   0  0  0  0  0  0  0  0  0  0  0  0
    1.2917   -3.0375    0.0000 C   0  0  0  0  0  0  0  0  0  0  0  0
    0.4917    3.6583    0.0000 C   0  0  0  0  0  0  0  0  0  0  0  0
    1.5500   -3.8292    0.0000 C   0  0  0  0  0  0  0  0  0  0  0  0
  2  8  1  0  0  0  0
  1  3  2  0  0  0  0
  2  4  1  0  0  0  0
  1  5  1  0  0  0  0
  2  6  2  0  0  0  0
  1  7  1  0  0  0  0
  8 17  1  0  0  0  0
  3  9  1  0  0  0  0
 10 12  2  0  0  0  0
  4 11  2  0  0  0  0
  6 12  1  0  0  0  0
  5 13  1  0  0  0  0
  7 14  2  0  0  0  0
  5 15  2  0  0  0  0
 16 19  1  0  0  0  0
 17 20  1  0  0  0  0
 13 18  1  0  0  0  0
 18 19  1  0  0  0  0
 18 20  1  0  0  0  0
  4 21  1  0  0  0  0
  7 22  1  0  0  0  0
 11 23  1  0  0  0  0
 12 24  1  0  0  0  0
 14 25  1  0  0  0  0
 21 26  1  0  0  0  0
 22 27  2  0  0  0  0
 26 28  1  0  0  0  0
 27 29  1  0  0  0  0
  9 14  1  0  0  0  0
 25 29  2  0  0  0  0
  8 16  1  0  0  0  0
 10 11  1  0  0  0  0
 23 28  1  0  0  0  0
M  END
> <MOLFORMULA>
C22 H26 N6 O

> <MOLWEIGHT>
3.904884000000000e+002

> <IDNUMBER>
AT-687/SK01693

> <PRICE>
EUR 80/10 mg

> <Similarity score>
0.21

$$$$

  -OEChem-04222410502D

 28 31  0     0  0  0  0  0  0999 V2000
    2.6250    2.3125    0.0000 C   0  0  0  0  0  0  0  0  0  0  0  0
    1.9042    2.7250    0.0000 C   0  0  0  0  0  0  0  0  0  0  0  0
    3.3375    2.7250    0.0000 N   0  0  0  0  0  0  0  0  0  0  0  0
    3.3375   -1.4000    0.0000 C   0  0  0  0  0  0  0  0  0  0  0  0
    2.6250    1.4875    0.0000 N   0  0  3  0  0  0  0  0  0  0  0  0
    3.3375   -2.2250    0.0000 C   0  0  0  0  0  0  0  0  0  0  0  0
    2.6250    3.9458    0.0000 N   0  0  0  0  0  0  0  0  0  0  0  0
    1.9042    3.5458    0.0000 C   0  0  0  0  0  0  0  0  0  0  0  0
    3.3375    3.5333    0.0000 C   0  0  0  0  0  0  0  0  0  0  0  0
    2.6292   -0.9875    0.0000 N   0  0  0  0  0  0  0  0  0  0  0  0
    4.0625   -2.6375    0.0000 C   0  0  0  0  0  0  0  0  0  0  0  0
    4.0542   -0.9875    0.0000 O   0  0  0  0  0  0  0  0  0  0  0  0
    3.3375    1.0750    0.0000 C   0  0  0  0  0  0  0  0  0  0  0  0
    1.9042    1.0750    0.0000 C   0  0  0  0  0  0  0  0  0  0  0  0
    2.6292   -0.1542    0.0000 C   0  0  3  0  0  0  0  0  0  0  0  0
    1.9042    0.2500    0.0000 C   0  0  0  0  0  0  0  0  0  0  0  0
    3.3375    0.2500    0.0000 C   0  0  0  0  0  0  0  0  0  0  0  0
    4.7750   -2.2250    0.0000 S   0  0  0  0  0  0  0  0  0  0  0  0
    1.1917    2.3125    0.0000 C   0  0  0  0  0  0  0  0  0  0  0  0
    2.6292   -2.6375    0.0000 C   0  0  0  0  0  0  0  0  0  0  0  0
    1.2000    3.9583    0.0000 C   0  0  0  0  0  0  0  0  0  0  0  0
    4.0542    3.9458    0.0000 C   0  0  0  0  0  0  0  0  0  0  0  0
    4.0625   -3.4625    0.0000 C   0  0  0  0  0  0  0  0  0  0  0  0
    5.4792   -2.6375    0.0000 C   0  0  0  0  0  0  0  0  0  0  0  0
    0.4792    2.7333    0.0000 C   0  0  0  0  0  0  0  0  0  0  0  0
    2.6292   -3.4625    0.0000 C   0  0  0  0  0  0  0  0  0  0  0  0
    0.4875    3.5500    0.0000 C   0  0  0  0  0  0  0  0  0  0  0  0
    3.3375   -3.8750    0.0000 C   0  0  0  0  0  0  0  0  0  0  0  0
  1  2  1  0  0  0  0
  1  3  2  0  0  0  0
  4 10  1  0  0  0  0
  1  5  1  0  0  0  0
  4  6  1  0  0  0  0
  7  9  2  0  0  0  0
  2  8  2  0  0  0  0
  3  9  1  0  0  0  0
 10 15  1  0  0  0  0
  6 11  2  0  0  0  0
  4 12  2  0  0  0  0
  5 13  1  0  0  0  0
  5 14  1  0  0  0  0
 15 16  1  0  0  0  0
 14 16  1  0  0  0  0
 13 17  1  0  0  0  0
 11 18  1  0  0  0  0
  2 19  1  0  0  0  0
  6 20  1  0  0  0  0
  8 21  1  0  0  0  0
  9 22  1  0  0  0  0
 11 23  1  0  0  0  0
 18 24  1  0  0  0  0
 19 25  1  0  0  0  0
 20 26  2  0  0  0  0
 25 27  1  0  0  0  0
 26 28  1  0  0  0  0
  7  8  1  0  0  0  0
 15 17  1  0  0  0  0
 21 27  1  0  0  0  0
 23 28  2  0  0  0  0
M  END
> <MOLFORMULA>
C22 H28 N4 O S

> <MOLWEIGHT>
3.965562000000000e+002

> <IDNUMBER>
AT-687/SK01657

> <PRICE>
EUR 80/10 mg

> <Similarity score>
0.21

$$$$

  -OEChem-04222410502D

 25 27  0     0  0  0  0  0  0999 V2000
    5.4167    1.4708    0.0000 C   0  0  0  0  0  0  0  0  0  0  0  0
    5.4167    2.2958    0.0000 C   0  0  0  0  0  0  0  0  0  0  0  0
    6.1292    1.0583    0.0000 N   0  0  0  0  0  0  0  0  0  0  0  0
    4.7042    1.0583    0.0000 N   0  0  3  0  0  0  0  0  0  0  0  0
    6.8417    2.2958    0.0000 N   0  0  0  0  0  0  0  0  0  0  0  0
    6.1292    2.7083    0.0000 C   0  0  0  0  0  0  0  0  0  0  0  0
    6.8417    1.4708    0.0000 C   0  0  0  0  0  0  0  0  0  0  0  0
    2.5625   -1.0000    0.0000 C   0  0  0  0  0  0  0  0  0  0  0  0
    2.5667   -0.1750    0.0000 N   0  0  0  0  0  0  0  0  0  0  0  0
    3.9917    1.4708    0.0000 C   0  0  0  0  0  0  0  0  0  0  0  0
    4.7042    0.2375    0.0000 C   0  0  0  0  0  0  0  0  0  0  0  0
    3.2750   -1.4167    0.0000 O   0  0  0  0  0  0  0  0  0  0  0  0
    3.9917   -0.1750    0.0000 C   0  0  0  0  0  0  0  0  0  0  0  0
    3.2750    1.0583    0.0000 C   0  0  0  0  0  0  0  0  0  0  0  0
    1.8542   -1.4125    0.0000 N   0  0  0  0  0  0  0  0  0  0  0  0
    3.2750    0.2375    0.0000 C   0  0  3  0  0  0  0  0  0  0  0  0
    4.7042    2.7250    0.0000 C   0  0  0  0  0  0  0  0  0  0  0  0
    6.1417    3.5333    0.0000 C   0  0  0  0  0  0  0  0  0  0  0  0
    7.5625    1.0583    0.0000 C   0  0  0  0  0  0  0  0  0  0  0  0
    1.1292   -3.4750    0.0000 O   0  0  0  0  0  0  0  0  0  0  0  0
    1.8542   -2.2375    0.0000 C   0  0  0  0  0  0  0  0  0  0  0  0
    1.1375   -2.6500    0.0000 C   0  0  0  0  0  0  0  0  0  0  0  0
    0.4250   -3.8875    0.0000 C   0  0  0  0  0  0  0  0  0  0  0  0
    4.7125    3.5333    0.0000 C   0  0  0  0  0  0  0  0  0  0  0  0
    5.4292    3.9375    0.0000 C   0  0  0  0  0  0  0  0  0  0  0  0
  1  2  1  0  0  0  0
  1  3  2  0  0  0  0
  1  4  1  0  0  0  0
  5  7  2  0  0  0  0
  2  6  2  0  0  0  0
  3  7  1  0  0  0  0
  8  9  1  0  0  0  0
  9 16  1  0  0  0  0
  4 10  1  0  0  0  0
  4 11  1  0  0  0  0
  8 12  2  0  0  0  0
 11 13  1  0  0  0  0
 10 14  1  0  0  0  0
  8 15  1  0  0  0  0
 13 16  1  0  0  0  0
  2 17  1  0  0  0  0
  6 18  1  0  0  0  0
  7 19  1  0  0  0  0
 20 22  1  0  0  0  0
 15 21  1  0  0  0  0
 21 22  1  0  0  0  0
 20 23  1  0  0  0  0
 17 24  1  0  0  0  0
 24 25  1  0  0  0  0
  5  6  1  0  0  0  0
 14 16  1  0  0  0  0
 18 25  1  0  0  0  0
M  END
> <MOLFORMULA>
C18 H29 N5 O2

> <MOLWEIGHT>
3.474601000000000e+002

> <IDNUMBER>
AT-687/SK01686

> <PRICE>
EUR 80/10 mg

> <Similarity score>
0.21

$$$$

  -OEChem-04222410502D

 28 32  0     0  0  0  0  0  0999 V2000
    0.1667   -1.4583    0.0000 N   0  0  3  0  0  0  0  0  0  0  0  0
   -0.2417   -0.5458    0.0000 C   0  0  0  0  0  0  0  0  0  0  0  0
    1.1625   -1.3542    0.0000 C   0  0  0  0  0  0  0  0  0  0  0  0
   -0.6208    2.5208    0.0000 C   0  0  0  0  0  0  0  0  0  0  0  0
    0.5042    0.1250    0.0000 C   0  0  3  0  0  0  0  0  0  0  0  0
    1.3667   -0.3750    0.0000 C   0  0  0  0  0  0  0  0  0  0  0  0
    0.1875    3.1083    0.0000 C   0  0  0  0  0  0  0  0  0  0  0  0
    0.4000    1.1208    0.0000 N   0  0  3  0  0  0  0  0  0  0  0  0
   -1.4292    3.1083    0.0000 N   0  0  0  0  0  0  0  0  0  0  0  0
   -0.1208    4.0542    0.0000 C   0  0  0  0  0  0  0  0  0  0  0  0
   -1.1208    4.0542    0.0000 C   0  0  0  0  0  0  0  0  0  0  0  0
   -0.5167    1.5250    0.0000 C   0  0  0  0  0  0  0  0  0  0  0  0
   -0.3333   -2.3250    0.0000 C   0  0  0  0  0  0  0  0  0  0  0  0
    1.1042    2.7000    0.0000 C   0  0  0  0  0  0  0  0  0  0  0  0
   -1.2208   -0.3375    0.0000 O   0  0  0  0  0  0  0  0  0  0  0  0
    1.2083    1.7083    0.0000 C   0  0  0  0  0  0  0  0  0  0  0  0
    1.8292   -2.0958    0.0000 O   0  0  0  0  0  0  0  0  0  0  0  0
   -1.3333   -2.3250    0.0000 C   0  0  0  0  0  0  0  0  0  0  0  0
    0.1667   -3.1917    0.0000 C   0  0  0  0  0  0  0  0  0  0  0  0
   -1.3333   -4.0542    0.0000 C   0  0  0  0  0  0  0  0  0  0  0  0
   -0.3333   -4.0542    0.0000 C   0  0  0  0  0  0  0  0  0  0  0  0
   -1.8333   -3.1917    0.0000 C   0  0  0  0  0  0  0  0  0  0  0  0
    0.3792    4.9208    0.0000 C   0  0  0  0  0  0  0  0  0  0  0  0
   -1.8333   -4.9208    0.0000 O   0  0  0  0  0  0  0  0  0  0  0  0
   -1.6208    4.9208    0.0000 C   0  0  0  0  0  0  0  0  0  0  0  0
   -1.3333   -5.7875    0.0000 C   0  0  0  0  0  0  0  0  0  0  0  0
   -0.1208    5.7875    0.0000 C   0  0  0  0  0  0  0  0  0  0  0  0
   -1.1208    5.7875    0.0000 C   0  0  0  0  0  0  0  0  0  0  0  0
  1  2  1  0  0  0  0
  1  3  1  0  0  0  0
  4 12  1  0  0  0  0
  2  5  1  0  0  0  0
  3  6  1  0  0  0  0
  7 14  1  0  0  0  0
  5  8  1  0  0  0  0
  4  9  1  0  0  0  0
  7 10  1  0  0  0  0
  9 11  1  0  0  0  0
  8 12  1  0  0  0  0
  1 13  1  0  0  0  0
 14 16  1  0  0  0  0
  2 15  2  0  0  0  0
  8 16  1  0  0  0  0
  3 17  2  0  0  0  0
 13 18  1  0  0  0  0
 13 19  2  0  0  0  0
 20 22  1  0  0  0  0
 19 21  1  0  0  0  0
 18 22  2  0  0  0  0
 10 23  2  0  0  0  0
 20 24  1  0  0  0  0
 11 25  2  0  0  0  0
 24 26  1  0  0  0  0
 23 27  1  0  0  0  0
 25 28  1  0  0  0  0
  5  6  1  0  0  0  0
 20 21  2  0  0  0  0
  4  7  2  0  0  0  0
 10 11  1  0  0  0  0
 27 28  2  0  0  0  0
M  END
> <MOLFORMULA>
C22 H21 N3 O3

> <MOLWEIGHT>
3.754259000000000e+002

> <IDNUMBER>
AN-153/NB21430

> <PRICE>
EUR 130/10 mg

> <Similarity score>
0.21

$$$$

  -OEChem-04222410502D

 27 31  0     0  0  0  0  0  0999 V2000
    0.1667   -2.7583    0.0000 N   0  0  3  0  0  0  0  0  0  0  0  0
   -0.2417   -1.8417    0.0000 C   0  0  0  0  0  0  0  0  0  0  0  0
    1.1625   -2.6500    0.0000 C   0  0  0  0  0  0  0  0  0  0  0  0
   -0.6208    1.2208    0.0000 C   0  0  0  0  0  0  0  0  0  0  0  0
    0.5042   -1.1750    0.0000 C   0  0  3  0  0  0  0  0  0  0  0  0
    0.1875    1.8083    0.0000 C   0  0  0  0  0  0  0  0  0  0  0  0
    1.3667   -1.6750    0.0000 C   0  0  0  0  0  0  0  0  0  0  0  0
    0.4000   -0.1792    0.0000 N   0  0  3  0  0  0  0  0  0  0  0  0
   -1.4292    1.8083    0.0000 N   0  0  0  0  0  0  0  0  0  0  0  0
   -0.1208    2.7625    0.0000 C   0  0  0  0  0  0  0  0  0  0  0  0
   -1.1208    2.7625    0.0000 C   0  0  0  0  0  0  0  0  0  0  0  0
   -0.5167    0.2292    0.0000 C   0  0  0  0  0  0  0  0  0  0  0  0
    1.1042    1.4042    0.0000 C   0  0  0  0  0  0  0  0  0  0  0  0
   -1.2208   -1.6333    0.0000 O   0  0  0  0  0  0  0  0  0  0  0  0
    1.2083    0.4083    0.0000 C   0  0  0  0  0  0  0  0  0  0  0  0
   -0.3333   -3.6208    0.0000 C   0  0  0  0  0  0  0  0  0  0  0  0
    1.8292   -3.3958    0.0000 O   0  0  0  0  0  0  0  0  0  0  0  0
    0.3792    3.6250    0.0000 C   0  0  0  0  0  0  0  0  0  0  0  0
   -1.6208    3.6250    0.0000 C   0  0  0  0  0  0  0  0  0  0  0  0
   -0.1208    4.4875    0.0000 C   0  0  0  0  0  0  0  0  0  0  0  0
   -1.1208    4.4875    0.0000 C   0  0  0  0  0  0  0  0  0  0  0  0
    0.3792    5.3542    0.0000 Cl  0  0  0  0  0  0  0  0  0  0  0  0
   -1.3333   -3.6208    0.0000 C   0  0  0  0  0  0  0  0  0  0  0  0
    0.1667   -4.4875    0.0000 C   0  0  0  0  0  0  0  0  0  0  0  0
   -0.3333   -5.3542    0.0000 C   0  0  0  0  0  0  0  0  0  0  0  0
   -1.8333   -4.4875    0.0000 C   0  0  0  0  0  0  0  0  0  0  0  0
   -1.3333   -5.3542    0.0000 C   0  0  0  0  0  0  0  0  0  0  0  0
  1  2  1  0  0  0  0
  1  3  1  0  0  0  0
  4 12  1  0  0  0  0
  2  5  1  0  0  0  0
  6 13  1  0  0  0  0
  3  7  1  0  0  0  0
  5  8  1  0  0  0  0
  4  9  1  0  0  0  0
  6 10  1  0  0  0  0
  9 11  1  0  0  0  0
  8 12  1  0  0  0  0
 13 15  1  0  0  0  0
  2 14  2  0  0  0  0
  8 15  1  0  0  0  0
  1 16  1  0  0  0  0
  3 17  2  0  0  0  0
 10 18  2  0  0  0  0
 11 19  2  0  0  0  0
 18 20  1  0  0  0  0
 19 21  1  0  0  0  0
 20 22  1  0  0  0  0
 16 23  2  0  0  0  0
 16 24  1  0  0  0  0
 24 25  2  0  0  0  0
 23 26  1  0  0  0  0
 26 27  2  0  0  0  0
  5  7  1  0  0  0  0
 25 27  1  0  0  0  0
  4  6  2  0  0  0  0
 10 11  1  0  0  0  0
 20 21  2  0  0  0  0
M  END
> <MOLFORMULA>
C21 H18 Cl N3 O2

> <MOLWEIGHT>
3.798452000000000e+002

> <IDNUMBER>
AN-153/NB21471

> <PRICE>
EUR 130/10 mg

> <Similarity score>
0.21

$$$$

  -OEChem-04222410502D

 27 30  0     0  0  0  0  0  0999 V2000
    1.8417   -1.0292    0.0000 C   0  0  0  0  0  0  0  0  0  0  0  0
    1.8417   -1.8542    0.0000 C   0  0  0  0  0  0  0  0  0  0  0  0
    2.5667   -0.6167    0.0000 N   0  0  3  0  0  0  0  0  0  0  0  0
    4.7125    1.4333    0.0000 C   0  0  0  0  0  0  0  0  0  0  0  0
    1.1292   -0.6167    0.0000 N   0  0  0  0  0  0  0  0  0  0  0  0
    5.4167    1.8375    0.0000 C   0  0  0  0  0  0  0  0  0  0  0  0
    4.7125    0.6083    0.0000 N   0  0  0  0  0  0  0  0  0  0  0  0
    1.1250   -2.2667    0.0000 C   0  0  0  0  0  0  0  0  0  0  0  0
    6.1375    3.0833    0.0000 C   0  0  0  0  0  0  0  0  0  0  0  0
    5.4167    2.6708    0.0000 C   0  0  0  0  0  0  0  0  0  0  0  0
    0.4167   -1.8417    0.0000 N   0  0  0  0  0  0  0  0  0  0  0  0
    0.4250   -1.0167    0.0000 C   0  0  0  0  0  0  0  0  0  0  0  0
    2.5667    0.2083    0.0000 C   0  0  0  0  0  0  0  0  0  0  0  0
    3.2792   -1.0375    0.0000 C   0  0  0  0  0  0  0  0  0  0  0  0
    6.8500    2.6708    0.0000 C   0  0  0  0  0  0  0  0  0  0  0  0
    4.0000    1.8458    0.0000 O   0  0  0  0  0  0  0  0  0  0  0  0
    6.1375    1.4250    0.0000 C   0  0  0  0  0  0  0  0  0  0  0  0
    6.8500    1.8375    0.0000 C   0  0  0  0  0  0  0  0  0  0  0  0
    3.9917    0.1958    0.0000 C   0  0  3  0  0  0  0  0  0  0  0  0
    3.9917   -0.6292    0.0000 C   0  0  0  0  0  0  0  0  0  0  0  0
    3.2792    0.6125    0.0000 C   0  0  0  0  0  0  0  0  0  0  0  0
    6.1375    3.8958    0.0000 Cl  0  0  0  0  0  0  0  0  0  0  0  0
    7.5667    3.0833    0.0000 F   0  0  0  0  0  0  0  0  0  0  0  0
    2.5542   -2.2792    0.0000 C   0  0  0  0  0  0  0  0  0  0  0  0
    1.1167   -3.0917    0.0000 C   0  0  0  0  0  0  0  0  0  0  0  0
    2.5500   -3.1042    0.0000 C   0  0  0  0  0  0  0  0  0  0  0  0
    1.8250   -3.5042    0.0000 C   0  0  0  0  0  0  0  0  0  0  0  0
  1  2  1  0  0  0  0
  1  3  1  0  0  0  0
  4  7  1  0  0  0  0
  1  5  2  0  0  0  0
  4  6  1  0  0  0  0
  7 19  1  0  0  0  0
  2  8  2  0  0  0  0
  9 10  1  0  0  0  0
  6 10  2  0  0  0  0
 11 12  2  0  0  0  0
  5 12  1  0  0  0  0
  3 13  1  0  0  0  0
  3 14  1  0  0  0  0
 15 18  1  0  0  0  0
  4 16  2  0  0  0  0
  6 17  1  0  0  0  0
 17 18  2  0  0  0  0
 19 20  1  0  0  0  0
 14 20  1  0  0  0  0
 13 21  1  0  0  0  0
  9 22  1  0  0  0  0
 15 23  1  0  0  0  0
  2 24  1  0  0  0  0
  8 25  1  0  0  0  0
 24 26  1  0  0  0  0
 26 27  1  0  0  0  0
  8 11  1  0  0  0  0
 19 21  1  0  0  0  0
 25 27  1  0  0  0  0
  9 15  2  0  0  0  0
M  END
> <MOLFORMULA>
C20 H22 Cl F N4 O

> <MOLWEIGHT>
3.888718000000000e+002

> <IDNUMBER>
AT-687/SK01631

> <PRICE>
EUR 80/10 mg

> <Similarity score>
0.21

$$$$

  -OEChem-04222410502D

 31 35  0     0  0  0  0  0  0999 V2000
   -1.5500    3.0083    0.0000 C   0  0  0  0  0  0  0  0  0  0  0  0
   -1.5500    3.9958    0.0000 N   0  0  3  0  0  0  0  0  0  0  0  0
   -0.6833    2.5000    0.0000 C   0  0  0  0  0  0  0  0  0  0  0  0
   -2.5083    4.3042    0.0000 N   0  0  0  0  0  0  0  0  0  0  0  0
   -2.5083    2.6958    0.0000 C   0  0  0  0  0  0  0  0  0  0  0  0
   -0.6833    1.5000    0.0000 N   0  0  3  0  0  0  0  0  0  0  0  0
   -3.0958    3.5000    0.0000 C   0  0  0  0  0  0  0  0  0  0  0  0
    0.1792    3.0083    0.0000 N   0  0  0  0  0  0  0  0  0  0  0  0
    0.1792   -0.0000    0.0000 C   0  0  3  0  0  0  0  0  0  0  0  0
    1.0500   -0.5042    0.0000 C   0  0  0  0  0  0  0  0  0  0  0  0
   -0.6833    4.5042    0.0000 C   0  0  0  0  0  0  0  0  0  0  0  0
    0.1792    1.0083    0.0000 C   0  0  0  0  0  0  0  0  0  0  0  0
    0.1792    3.9958    0.0000 C   0  0  0  0  0  0  0  0  0  0  0  0
    1.9125   -0.0042    0.0000 N   0  0  0  0  0  0  0  0  0  0  0  0
    1.0417   -1.5042    0.0000 O   0  0  0  0  0  0  0  0  0  0  0  0
    2.7792   -0.5125    0.0000 C   0  0  0  0  0  0  0  0  0  0  0  0
   -1.5500    1.0083    0.0000 C   0  0  0  0  0  0  0  0  0  0  0  0
   -2.9125    1.7833    0.0000 C   0  0  0  0  0  0  0  0  0  0  0  0
    3.6292   -2.0042    0.0000 C   0  0  0  0  0  0  0  0  0  0  0  0
    2.7667   -1.4917    0.0000 C   0  0  0  0  0  0  0  0  0  0  0  0
    3.6292   -3.0000    0.0000 C   0  0  0  0  0  0  0  0  0  0  0  0
   -0.6958   -0.4917    0.0000 C   0  0  0  0  0  0  0  0  0  0  0  0
   -4.0833    3.3958    0.0000 C   0  0  0  0  0  0  0  0  0  0  0  0
    4.4917   -3.5042    0.0000 O   0  0  0  0  0  0  0  0  0  0  0  0
   -1.5500    0.0125    0.0000 C   0  0  0  0  0  0  0  0  0  0  0  0
    1.8875   -2.9917    0.0000 C   0  0  0  0  0  0  0  0  0  0  0  0
    1.9042   -1.9792    0.0000 C   0  0  0  0  0  0  0  0  0  0  0  0
    2.7625   -3.4917    0.0000 C   0  0  0  0  0  0  0  0  0  0  0  0
    4.4917   -4.5042    0.0000 C   0  0  0  0  0  0  0  0  0  0  0  0
   -3.9125    1.6833    0.0000 C   0  0  0  0  0  0  0  0  0  0  0  0
   -4.5000    2.4833    0.0000 C   0  0  0  0  0  0  0  0  0  0  0  0
  1  2  1  0  0  0  0
  1  3  1  0  0  0  0
  2  4  1  0  0  0  0
  1  5  2  0  0  0  0
  3  6  1  0  0  0  0
  5  7  1  0  0  0  0
  3  8  2  0  0  0  0
  9 12  1  0  0  0  0
  9 10  1  0  0  0  0
  2 11  1  0  0  0  0
  6 12  1  0  0  0  0
  8 13  1  0  0  0  0
 10 14  1  0  0  0  0
 10 15  2  0  0  0  0
 14 16  1  0  0  0  0
  6 17  1  0  0  0  0
  5 18  1  0  0  0  0
 19 20  2  0  0  0  0
 16 20  1  0  0  0  0
 19 21  1  0  0  0  0
 22 25  1  0  0  0  0
  7 23  1  0  0  0  0
 21 24  1  0  0  0  0
 17 25  1  0  0  0  0
 26 27  2  0  0  0  0
 20 27  1  0  0  0  0
 26 28  1  0  0  0  0
 24 29  1  0  0  0  0
 18 30  1  0  0  0  0
 30 31  1  0  0  0  0
  4  7  2  0  0  0  0
 11 13  2  0  0  0  0
 23 31  1  0  0  0  0
  9 22  1  0  0  0  0
 21 28  2  0  0  0  0
M  END
> <MOLFORMULA>
C24 H29 N5 O2

> <MOLWEIGHT>
4.195261000000000e+002

> <IDNUMBER>
AT-687/PE21885

> <PRICE>
EUR 80/10 mg

> <Similarity score>
0.21

$$$$

  -OEChem-04222410502D

 30 34  0     0  0  0  0  0  0999 V2000
   -1.1250    2.5000    0.0000 C   0  0  0  0  0  0  0  0  0  0  0  0
   -1.1250    3.5083    0.0000 N   0  0  3  0  0  0  0  0  0  0  0  0
   -0.2625    2.0083    0.0000 C   0  0  0  0  0  0  0  0  0  0  0  0
   -2.0875    3.8125    0.0000 N   0  0  0  0  0  0  0  0  0  0  0  0
   -2.0875    2.1958    0.0000 C   0  0  0  0  0  0  0  0  0  0  0  0
   -0.2625    1.0000    0.0000 N   0  0  3  0  0  0  0  0  0  0  0  0
   -2.6708    3.0083    0.0000 C   0  0  0  0  0  0  0  0  0  0  0  0
    1.4667   -0.9917    0.0000 C   0  0  0  0  0  0  0  0  0  0  0  0
    0.6000    2.5000    0.0000 N   0  0  0  0  0  0  0  0  0  0  0  0
    0.5917   -0.5000    0.0000 C   0  0  3  0  0  0  0  0  0  0  0  0
    1.4542   -2.0000    0.0000 N   0  0  0  0  0  0  0  0  0  0  0  0
    0.6000    0.5083    0.0000 C   0  0  0  0  0  0  0  0  0  0  0  0
   -0.2625    4.0042    0.0000 C   0  0  0  0  0  0  0  0  0  0  0  0
    0.6000    3.5083    0.0000 C   0  0  0  0  0  0  0  0  0  0  0  0
    2.3167   -2.4917    0.0000 C   0  0  0  0  0  0  0  0  0  0  0  0
    2.3292   -0.5000    0.0000 O   0  0  0  0  0  0  0  0  0  0  0  0
    3.1917   -2.0000    0.0000 C   0  0  0  0  0  0  0  0  0  0  0  0
   -1.1250    0.5083    0.0000 C   0  0  0  0  0  0  0  0  0  0  0  0
   -2.4875    1.2833    0.0000 C   0  0  0  0  0  0  0  0  0  0  0  0
   -0.2708   -0.9875    0.0000 C   0  0  0  0  0  0  0  0  0  0  0  0
   -3.6625    2.9000    0.0000 C   0  0  0  0  0  0  0  0  0  0  0  0
    3.2000   -1.0125    0.0000 O   0  0  0  0  0  0  0  0  0  0  0  0
   -1.1333   -0.4792    0.0000 C   0  0  0  0  0  0  0  0  0  0  0  0
    2.3125   -3.5000    0.0000 C   0  0  0  0  0  0  0  0  0  0  0  0
    4.0542   -2.5125    0.0000 C   0  0  0  0  0  0  0  0  0  0  0  0
    4.0750   -0.5250    0.0000 C   0  0  0  0  0  0  0  0  0  0  0  0
   -3.4958    1.1833    0.0000 C   0  0  0  0  0  0  0  0  0  0  0  0
   -4.0833    1.9875    0.0000 C   0  0  0  0  0  0  0  0  0  0  0  0
    3.1667   -4.0042    0.0000 C   0  0  0  0  0  0  0  0  0  0  0  0
    4.0500   -3.5042    0.0000 C   0  0  0  0  0  0  0  0  0  0  0  0
  1  2  1  0  0  0  0
  1  3  1  0  0  0  0
  2  4  1  0  0  0  0
  1  5  2  0  0  0  0
  3  6  1  0  0  0  0
  5  7  1  0  0  0  0
  8 10  1  0  0  0  0
  3  9  2  0  0  0  0
 10 12  1  0  0  0  0
  8 11  1  0  0  0  0
  6 12  1  0  0  0  0
  2 13  1  0  0  0  0
  9 14  1  0  0  0  0
 11 15  1  0  0  0  0
  8 16  2  0  0  0  0
 15 17  2  0  0  0  0
  6 18  1  0  0  0  0
  5 19  1  0  0  0  0
 20 23  1  0  0  0  0
  7 21  1  0  0  0  0
 17 22  1  0  0  0  0
 18 23  1  0  0  0  0
 15 24  1  0  0  0  0
 17 25  1  0  0  0  0
 22 26  1  0  0  0  0
 19 27  1  0  0  0  0
 27 28  1  0  0  0  0
 24 29  2  0  0  0  0
 29 30  1  0  0  0  0
  4  7  2  0  0  0  0
 13 14  2  0  0  0  0
 21 28  1  0  0  0  0
 10 20  1  0  0  0  0
 25 30  2  0  0  0  0
M  END
> <MOLFORMULA>
C23 H27 N5 O2

> <MOLWEIGHT>
4.054993000000000e+002

> <IDNUMBER>
AT-687/PE21864

> <PRICE>
EUR 80/10 mg

> <Similarity score>
0.21

$$$$

  -OEChem-04222410502D

 31 35  0     0  0  0  0  0  0999 V2000
    6.9125   -0.6167    0.0000 C   0  0  0  0  0  0  0  0  0  0  0  0
    2.6375    1.0333    0.0000 C   0  0  0  0  0  0  0  0  0  0  0  0
    7.6250   -0.2042    0.0000 N   0  0  0  0  0  0  0  0  0  0  0  0
    1.9167    0.6333    0.0000 C   0  0  0  0  0  0  0  0  0  0  0  0
    6.1917   -0.2042    0.0000 C   0  0  0  0  0  0  0  0  0  0  0  0
    2.6375    1.8625    0.0000 N   0  0  0  0  0  0  0  0  0  0  0  0
    6.9125   -1.4417    0.0000 C   0  0  0  0  0  0  0  0  0  0  0  0
    8.3417   -0.6167    0.0000 N   0  0  0  0  0  0  0  0  0  0  0  0
    3.3417    0.6208    0.0000 N   0  0  3  0  0  0  0  0  0  0  0  0
    8.3417   -1.4417    0.0000 C   0  0  0  0  0  0  0  0  0  0  0  0
    1.2042    1.8625    0.0000 N   0  0  0  0  0  0  0  0  0  0  0  0
    1.2000    1.0458    0.0000 C   0  0  0  0  0  0  0  0  0  0  0  0
    7.6250   -1.8542    0.0000 C   0  0  0  0  0  0  0  0  0  0  0  0
    1.9167    2.2708    0.0000 C   0  0  0  0  0  0  0  0  0  0  0  0
    5.4875   -0.6167    0.0000 N   0  0  0  0  0  0  0  0  0  0  0  0
    6.1917    0.6333    0.0000 O   0  0  0  0  0  0  0  0  0  0  0  0
    3.3417   -0.1917    0.0000 C   0  0  0  0  0  0  0  0  0  0  0  0
    4.0542    1.0333    0.0000 C   0  0  0  0  0  0  0  0  0  0  0  0
    9.0417   -1.8542    0.0000 O   0  0  0  0  0  0  0  0  0  0  0  0
    4.7750   -0.2042    0.0000 C   0  0  3  0  0  0  0  0  0  0  0  0
    4.0542   -0.6167    0.0000 C   0  0  0  0  0  0  0  0  0  0  0  0
    4.7750    0.6333    0.0000 C   0  0  0  0  0  0  0  0  0  0  0  0
    1.9042   -0.2042    0.0000 C   0  0  0  0  0  0  0  0  0  0  0  0
    6.1917   -1.8417    0.0000 C   0  0  0  0  0  0  0  0  0  0  0  0
    7.6167   -2.6792    0.0000 C   0  0  0  0  0  0  0  0  0  0  0  0
    0.4917    0.6333    0.0000 C   0  0  0  0  0  0  0  0  0  0  0  0
    1.9167    3.0958    0.0000 C   0  0  0  0  0  0  0  0  0  0  0  0
    1.1917   -0.6042    0.0000 C   0  0  0  0  0  0  0  0  0  0  0  0
    6.1875   -2.6625    0.0000 C   0  0  0  0  0  0  0  0  0  0  0  0
    6.9042   -3.0792    0.0000 C   0  0  0  0  0  0  0  0  0  0  0  0
    0.4792   -0.1792    0.0000 C   0  0  0  0  0  0  0  0  0  0  0  0
  2  9  1  0  0  0  0
  1  3  2  0  0  0  0
  2  4  1  0  0  0  0
  1  5  1  0  0  0  0
  2  6  2  0  0  0  0
  1  7  1  0  0  0  0
  3  8  1  0  0  0  0
  9 18  1  0  0  0  0
 10 13  1  0  0  0  0
 11 14  2  0  0  0  0
  4 12  2  0  0  0  0
  7 13  2  0  0  0  0
  6 14  1  0  0  0  0
  5 15  1  0  0  0  0
  5 16  2  0  0  0  0
 17 21  1  0  0  0  0
 18 22  1  0  0  0  0
 10 19  2  0  0  0  0
 15 20  1  0  0  0  0
 20 21  1  0  0  0  0
 20 22  1  0  0  0  0
  4 23  1  0  0  0  0
  7 24  1  0  0  0  0
 13 25  1  0  0  0  0
 12 26  1  0  0  0  0
 14 27  1  0  0  0  0
 23 28  1  0  0  0  0
 24 29  2  0  0  0  0
 29 30  1  0  0  0  0
 28 31  1  0  0  0  0
  8 10  1  0  0  0  0
 25 30  2  0  0  0  0
  9 17  1  0  0  0  0
 11 12  1  0  0  0  0
 26 31  1  0  0  0  0
M  END
> <MOLFORMULA>
C23 H26 N6 O2

> <MOLWEIGHT>
4.184984000000000e+002

> <IDNUMBER>
AT-687/SK01689

> <PRICE>
EUR 80/10 mg

> <Similarity score>
0.21

$$$$

  -OEChem-04222410502D

 32 36  0     0  0  0  0  0  0999 V2000
   -1.1208    3.7583    0.0000 C   0  0  0  0  0  0  0  0  0  0  0  0
   -1.1208    4.7542    0.0000 N   0  0  3  0  0  0  0  0  0  0  0  0
   -0.2583    3.2583    0.0000 C   0  0  0  0  0  0  0  0  0  0  0  0
   -2.0833    5.0542    0.0000 N   0  0  0  0  0  0  0  0  0  0  0  0
   -2.0833    3.4458    0.0000 C   0  0  0  0  0  0  0  0  0  0  0  0
   -0.2583    2.2583    0.0000 N   0  0  3  0  0  0  0  0  0  0  0  0
   -2.6583    4.2500    0.0000 C   0  0  0  0  0  0  0  0  0  0  0  0
    1.4750    0.2583    0.0000 C   0  0  0  0  0  0  0  0  0  0  0  0
    0.6125    3.7583    0.0000 N   0  0  0  0  0  0  0  0  0  0  0  0
    0.6042    0.7583    0.0000 C   0  0  3  0  0  0  0  0  0  0  0  0
    0.6125    1.7583    0.0000 C   0  0  0  0  0  0  0  0  0  0  0  0
   -0.2583    5.2542    0.0000 C   0  0  0  0  0  0  0  0  0  0  0  0
    1.4667   -0.7417    0.0000 N   0  0  0  0  0  0  0  0  0  0  0  0
    3.1792   -3.7542    0.0000 C   0  0  0  0  0  0  0  0  0  0  0  0
    0.6125    4.7542    0.0000 C   0  0  0  0  0  0  0  0  0  0  0  0
    3.1792   -2.7542    0.0000 C   0  0  0  0  0  0  0  0  0  0  0  0
    2.3292   -1.2500    0.0000 C   0  0  0  0  0  0  0  0  0  0  0  0
    2.3375    0.7500    0.0000 O   0  0  0  0  0  0  0  0  0  0  0  0
    2.3167   -2.2375    0.0000 C   0  0  0  0  0  0  0  0  0  0  0  0
    2.3042   -4.2500    0.0000 O   0  0  0  0  0  0  0  0  0  0  0  0
   -1.1208    1.7583    0.0000 C   0  0  0  0  0  0  0  0  0  0  0  0
   -2.4833    2.5333    0.0000 C   0  0  0  0  0  0  0  0  0  0  0  0
    4.0292   -4.2542    0.0000 O   0  0  0  0  0  0  0  0  0  0  0  0
   -0.2583    0.2708    0.0000 C   0  0  0  0  0  0  0  0  0  0  0  0
   -3.6583    4.1417    0.0000 C   0  0  0  0  0  0  0  0  0  0  0  0
   -1.1208    0.7708    0.0000 C   0  0  0  0  0  0  0  0  0  0  0  0
    4.0542   -2.2500    0.0000 C   0  0  0  0  0  0  0  0  0  0  0  0
    4.0667   -1.2625    0.0000 C   0  0  0  0  0  0  0  0  0  0  0  0
    3.2000   -0.7542    0.0000 C   0  0  0  0  0  0  0  0  0  0  0  0
    4.0292   -5.2542    0.0000 C   0  0  0  0  0  0  0  0  0  0  0  0
   -3.4833    2.4333    0.0000 C   0  0  0  0  0  0  0  0  0  0  0  0
   -4.0708    3.2333    0.0000 C   0  0  0  0  0  0  0  0  0  0  0  0
  1  2  1  0  0  0  0
  1  3  1  0  0  0  0
  2  4  1  0  0  0  0
  1  5  2  0  0  0  0
  3  6  1  0  0  0  0
  5  7  1  0  0  0  0
  8 10  1  0  0  0  0
  3  9  2  0  0  0  0
 10 11  1  0  0  0  0
  6 11  1  0  0  0  0
  2 12  1  0  0  0  0
  8 13  1  0  0  0  0
 14 16  1  0  0  0  0
  9 15  1  0  0  0  0
 16 19  2  0  0  0  0
 13 17  1  0  0  0  0
  8 18  2  0  0  0  0
 17 19  1  0  0  0  0
 14 20  2  0  0  0  0
  6 21  1  0  0  0  0
  5 22  1  0  0  0  0
 14 23  1  0  0  0  0
 24 26  1  0  0  0  0
  7 25  1  0  0  0  0
 21 26  1  0  0  0  0
 27 28  2  0  0  0  0
 28 29  1  0  0  0  0
 17 29  2  0  0  0  0
 23 30  1  0  0  0  0
 22 31  1  0  0  0  0
 31 32  1  0  0  0  0
  4  7  2  0  0  0  0
 12 15  2  0  0  0  0
 25 32  1  0  0  0  0
 10 24  1  0  0  0  0
 16 27  1  0  0  0  0
M  END
> <MOLFORMULA>
C24 H27 N5 O3

> <MOLWEIGHT>
4.335093000000000e+002

> <IDNUMBER>
AT-687/PE21871

> <PRICE>
EUR 80/10 mg

> <Similarity score>
0.21

$$$$
