5-[(2,4-dimethoxyphenyl)methyl]-N,N-dimethyl-4,5,6,7-tetrahydropyrazolo[1,5-a]py
  -OEChem-04222410502D

 25 27  0     0  0  0  0  0  0999 V2000
    2.6322   -1.4277    0.0000 C   0  0  0  0  0  0  0  0  0  0  0  0
    3.0407   -0.5106    0.0000 N   0  0  0  0  0  0  0  0  0  0  0  0
    2.2946    0.1564    0.0000 N   0  0  0  0  0  0  0  0  0  0  0  0
    1.4319   -0.3439    0.0000 C   0  0  0  0  0  0  0  0  0  0  0  0
    1.6401   -1.3192    0.0000 C   0  0  0  0  0  0  0  0  0  0  0  0
    3.1325   -2.2904    0.0000 C   0  0  0  0  0  0  0  0  0  0  0  0
    0.5646    1.1566    0.0000 N   0  0  0  0  0  0  0  0  0  0  0  0
   -1.1692    1.1566    0.0000 C   0  0  0  0  0  0  0  0  0  0  0  0
    0.5646    0.1564    0.0000 C   0  0  0  0  0  0  0  0  0  0  0  0
   -2.0362    1.6569    0.0000 C   0  0  0  0  0  0  0  0  0  0  0  0
    2.2946    1.1566    0.0000 C   0  0  0  0  0  0  0  0  0  0  0  0
   -0.3023    1.6569    0.0000 C   0  0  0  0  0  0  0  0  0  0  0  0
   -2.9033    1.1566    0.0000 C   0  0  0  0  0  0  0  0  0  0  0  0
    4.1326   -2.2904    0.0000 N   0  0  0  0  0  0  0  0  0  0  0  0
    2.6322   -3.1575    0.0000 O   0  0  0  0  0  0  0  0  0  0  0  0
   -1.1692    0.1564    0.0000 C   0  0  0  0  0  0  0  0  0  0  0  0
    1.4319    1.6569    0.0000 C   0  0  0  0  0  0  0  0  0  0  0  0
   -2.9033    0.1564    0.0000 C   0  0  0  0  0  0  0  0  0  0  0  0
   -2.0362   -0.3439    0.0000 C   0  0  0  0  0  0  0  0  0  0  0  0
   -2.0362    2.6573    0.0000 O   0  0  0  0  0  0  0  0  0  0  0  0
   -3.7660   -0.3439    0.0000 O   0  0  0  0  0  0  0  0  0  0  0  0
    4.6329   -1.4277    0.0000 C   0  0  0  0  0  0  0  0  0  0  0  0
    4.6329   -3.1575    0.0000 C   0  0  0  0  0  0  0  0  0  0  0  0
   -1.1692    3.1575    0.0000 C   0  0  0  0  0  0  0  0  0  0  0  0
   -4.6329    0.1564    0.0000 C   0  0  0  0  0  0  0  0  0  0  0  0
  1  2  2  0  0  0  0
  2  3  1  0  0  0  0
  4  5  2  0  0  0  0
  3  4  1  0  0  0  0
  1  5  1  0  0  0  0
  1  6  1  0  0  0  0
  7  9  1  0  0  0  0
  8 12  1  0  0  0  0
  4  9  1  0  0  0  0
  8 10  2  0  0  0  0
  3 11  1  0  0  0  0
  7 12  1  0  0  0  0
 10 13  1  0  0  0  0
 13 18  2  0  0  0  0
  6 14  1  0  0  0  0
  6 15  2  0  0  0  0
  8 16  1  0  0  0  0
 11 17  1  0  0  0  0
  7 17  1  0  0  0  0
 18 19  1  0  0  0  0
 16 19  2  0  0  0  0
 10 20  1  0  0  0  0
 18 21  1  0  0  0  0
 14 22  1  0  0  0  0
 14 23  1  0  0  0  0
 20 24  1  0  0  0  0
 21 25  1  0  0  0  0
M  END
> <IDNUMBER>
SB71-0078

> <available>
52

> <H_acceptor>
6

> <H_donor>
0

> <B_rotN>
6

> <N_O>
7

> <logP>
0.6815

> <logD>
0.6681

> <logSw>
-1.7173

> <PSA>
48.617

> <pKa_ma>
26.5144

> <pKa_mb>
5.8954

> <N_Chirals>
0

> <Name>
5-[(2,4-dimethoxyphenyl)methyl]-N,N-dimethyl-4,5,6,7-tetrahydropyrazolo[1,5-a]pyrazine-2-carboxamide

> <Smile>
CN(C)C(c1nn(CCN(Cc(ccc(OC)c2)c2OC)C2)c2c1)=O

> <Color>
ORANGE

> <Collection>
IC

> <InChI>
InChI=1S/C18H24N4O3/c1-20(2)18(23)16-9-14-12-21(7-8-22(14)19-16)11-13-5-6-15(24-3)10-17(13)25-4/h5-6,9-10H,7-8,11-12H2,1-4H3

> <InChI Key>
HXXYGZFOWJIEBO-UHFFFAOYSA-N

> <PERCENTSP3>
44.44

> <Link>
https://www.chemdiv.com/catalog/screening-compounds/compound-SB71-0078/

> <MFCDNUMBER>
MFCD32249252

> <CLNUMBER>
CM5543

> <STEREO>
ACHIRAL

> <State>
Solid

> <Similarity score>
0.33

$$$$
5-(2,3-dihydro-1H-indene-5-sulfonyl)-N,N-dimethyl-4,5,6,7-tetrahydropyrazolo[1,5
  -OEChem-04222410502D

 26 29  0     0  0  0  0  0  0999 V2000
   -0.8646   -1.1020    0.0000 S   0  0  0  0  0  0  0  0  0  0  0  0
    3.2145    0.1022    0.0000 C   0  0  0  0  0  0  0  0  0  0  0  0
    3.1103   -0.8938    0.0000 N   0  0  0  0  0  0  0  0  0  0  0  0
    0.1354   -1.1020    0.0000 N   0  0  0  0  0  0  0  0  0  0  0  0
    1.6354   -0.2353    0.0000 C   0  0  0  0  0  0  0  0  0  0  0  0
    2.1353   -1.1020    0.0000 N   0  0  0  0  0  0  0  0  0  0  0  0
    2.3021    0.5062    0.0000 C   0  0  0  0  0  0  0  0  0  0  0  0
    4.0811    0.6021    0.0000 C   0  0  0  0  0  0  0  0  0  0  0  0
    0.6353   -0.2353    0.0000 C   0  0  0  0  0  0  0  0  0  0  0  0
   -1.8645   -1.1020    0.0000 C   0  0  0  0  0  0  0  0  0  0  0  0
    0.6353   -1.9687    0.0000 C   0  0  0  0  0  0  0  0  0  0  0  0
    1.6354   -1.9687    0.0000 C   0  0  0  0  0  0  0  0  0  0  0  0
   -2.3646   -0.2353    0.0000 C   0  0  0  0  0  0  0  0  0  0  0  0
   -0.8646   -0.1020    0.0000 O   0  0  0  0  0  0  0  0  0  0  0  0
   -0.8646   -2.1020    0.0000 O   0  0  0  0  0  0  0  0  0  0  0  0
   -3.3646   -0.2353    0.0000 C   0  0  0  0  0  0  0  0  0  0  0  0
    4.0811    1.6021    0.0000 N   0  0  0  0  0  0  0  0  0  0  0  0
    4.9477    0.1022    0.0000 O   0  0  0  0  0  0  0  0  0  0  0  0
   -3.8645   -1.1020    0.0000 C   0  0  0  0  0  0  0  0  0  0  0  0
   -2.3646   -1.9687    0.0000 C   0  0  0  0  0  0  0  0  0  0  0  0
   -3.3646   -1.9687    0.0000 C   0  0  0  0  0  0  0  0  0  0  0  0
   -4.0352    0.5062    0.0000 C   0  0  0  0  0  0  0  0  0  0  0  0
   -4.9477    0.1022    0.0000 C   0  0  0  0  0  0  0  0  0  0  0  0
   -4.8434   -0.8938    0.0000 C   0  0  0  0  0  0  0  0  0  0  0  0
    3.2145    2.1020    0.0000 C   0  0  0  0  0  0  0  0  0  0  0  0
    4.9477    2.1020    0.0000 C   0  0  0  0  0  0  0  0  0  0  0  0
  2  7  1  0  0  0  0
  2  3  2  0  0  0  0
  3  6  1  0  0  0  0
  1  4  1  0  0  0  0
  5  9  1  0  0  0  0
  5  6  1  0  0  0  0
  6 12  1  0  0  0  0
  5  7  2  0  0  0  0
  2  8  1  0  0  0  0
  4  9  1  0  0  0  0
  1 10  1  0  0  0  0
  4 11  1  0  0  0  0
 11 12  1  0  0  0  0
 10 13  2  0  0  0  0
  1 14  2  0  0  0  0
  1 15  2  0  0  0  0
 13 16  1  0  0  0  0
  8 17  1  0  0  0  0
  8 18  2  0  0  0  0
 19 21  1  0  0  0  0
 16 19  2  0  0  0  0
 10 20  1  0  0  0  0
 20 21  2  0  0  0  0
 16 22  1  0  0  0  0
 22 23  1  0  0  0  0
 23 24  1  0  0  0  0
 19 24  1  0  0  0  0
 17 25  1  0  0  0  0
 17 26  1  0  0  0  0
M  END
> <IDNUMBER>
SB71-0055

> <available>
48

> <H_acceptor>
8

> <H_donor>
0

> <B_rotN>
4

> <N_O>
7

> <logP>
1.2302

> <logD>
1.2302

> <logSw>
-2.3928

> <PSA>
61.707

> <pKa_ma>
20.7697

> <pKa_mb>
-3.0085

> <N_Chirals>
0

> <Name>
5-(2,3-dihydro-1H-indene-5-sulfonyl)-N,N-dimethyl-4,5,6,7-tetrahydropyrazolo[1,5-a]pyrazine-2-carboxamide

> <Smile>
CN(C)C(c1nn(CCN(C2)S(c3cc(CCC4)c4cc3)(=O)=O)c2c1)=O

> <Color>
NOT COLORED

> <Collection>
IC

> <InChI>
InChI=1S/C18H22N4O3S/c1-20(2)18(23)17-11-15-12-21(8-9-22(15)19-17)26(24,25)16-7-6-13-4-3-5-14(13)10-16/h6-7,10-11H,3-5,8-9,12H2,1-2H3

> <InChI Key>
VRVMKUZDEIKUDW-UHFFFAOYSA-N

> <PERCENTSP3>
44.44

> <Link>
https://www.chemdiv.com/catalog/screening-compounds/compound-SB71-0055/

> <MFCDNUMBER>
MFCD32249219

> <CLNUMBER>
CM5543

> <STEREO>
ACHIRAL

> <State>
Solid

> <Similarity score>
0.31

$$$$
{5-[(2,4-dimethoxyphenyl)methyl]-4,5,6,7-tetrahydropyrazolo[1,5-a]pyrazin-2-yl}(
  -OEChem-04222410502D

 28 31  0     0  0  0  0  0  0999 V2000
    1.8818   -1.4274    0.0000 C   0  0  0  0  0  0  0  0  0  0  0  0
    2.2902   -0.5103    0.0000 N   0  0  0  0  0  0  0  0  0  0  0  0
    1.5484    0.1563    0.0000 N   0  0  0  0  0  0  0  0  0  0  0  0
    0.6812   -0.3438    0.0000 C   0  0  0  0  0  0  0  0  0  0  0  0
    0.8898   -1.3191    0.0000 C   0  0  0  0  0  0  0  0  0  0  0  0
    2.3818   -2.2902    0.0000 C   0  0  0  0  0  0  0  0  0  0  0  0
   -0.1855    1.1564    0.0000 N   0  0  0  0  0  0  0  0  0  0  0  0
    3.3820   -2.2902    0.0000 N   0  0  0  0  0  0  0  0  0  0  0  0
   -1.9193    1.1564    0.0000 C   0  0  0  0  0  0  0  0  0  0  0  0
   -0.1855    0.1563    0.0000 C   0  0  0  0  0  0  0  0  0  0  0  0
   -2.7862    1.6567    0.0000 C   0  0  0  0  0  0  0  0  0  0  0  0
    1.5484    1.1564    0.0000 C   0  0  0  0  0  0  0  0  0  0  0  0
   -1.0523    1.6567    0.0000 C   0  0  0  0  0  0  0  0  0  0  0  0
   -3.6532    1.1564    0.0000 C   0  0  0  0  0  0  0  0  0  0  0  0
    1.8818   -3.1571    0.0000 O   0  0  0  0  0  0  0  0  0  0  0  0
   -1.9193    0.1563    0.0000 C   0  0  0  0  0  0  0  0  0  0  0  0
    0.6812    1.6567    0.0000 C   0  0  0  0  0  0  0  0  0  0  0  0
    5.3827   -2.2902    0.0000 O   0  0  0  0  0  0  0  0  0  0  0  0
   -3.6532    0.1563    0.0000 C   0  0  0  0  0  0  0  0  0  0  0  0
   -2.7862   -0.3438    0.0000 C   0  0  0  0  0  0  0  0  0  0  0  0
   -2.7862    2.6570    0.0000 O   0  0  0  0  0  0  0  0  0  0  0  0
    3.8823   -3.1571    0.0000 C   0  0  0  0  0  0  0  0  0  0  0  0
    3.8823   -1.4274    0.0000 C   0  0  0  0  0  0  0  0  0  0  0  0
   -4.5159   -0.3438    0.0000 O   0  0  0  0  0  0  0  0  0  0  0  0
    4.8824   -3.1571    0.0000 C   0  0  0  0  0  0  0  0  0  0  0  0
    4.8824   -1.4274    0.0000 C   0  0  0  0  0  0  0  0  0  0  0  0
   -3.6532    3.1571    0.0000 C   0  0  0  0  0  0  0  0  0  0  0  0
   -5.3827    0.1563    0.0000 C   0  0  0  0  0  0  0  0  0  0  0  0
  1  2  2  0  0  0  0
  2  3  1  0  0  0  0
  4  5  2  0  0  0  0
  3  4  1  0  0  0  0
  1  5  1  0  0  0  0
  1  6  1  0  0  0  0
  7 10  1  0  0  0  0
  6  8  1  0  0  0  0
  9 13  1  0  0  0  0
  4 10  1  0  0  0  0
  9 11  2  0  0  0  0
  3 12  1  0  0  0  0
  7 13  1  0  0  0  0
 11 14  1  0  0  0  0
 14 19  2  0  0  0  0
  6 15  2  0  0  0  0
  9 16  1  0  0  0  0
 12 17  1  0  0  0  0
  7 17  1  0  0  0  0
 18 26  1  0  0  0  0
 18 25  1  0  0  0  0
 19 20  1  0  0  0  0
 16 20  2  0  0  0  0
 11 21  1  0  0  0  0
  8 22  1  0  0  0  0
  8 23  1  0  0  0  0
 19 24  1  0  0  0  0
 22 25  1  0  0  0  0
 23 26  1  0  0  0  0
 21 27  1  0  0  0  0
 24 28  1  0  0  0  0
M  END
> <IDNUMBER>
SB71-0256

> <available>
45

> <H_acceptor>
7

> <H_donor>
0

> <B_rotN>
6

> <N_O>
8

> <logP>
0.9984

> <logD>
0.985

> <logSw>
-2.1271

> <PSA>
57.173

> <pKa_ma>
26.5144

> <pKa_mb>
5.8954

> <N_Chirals>
0

> <Name>
{5-[(2,4-dimethoxyphenyl)methyl]-4,5,6,7-tetrahydropyrazolo[1,5-a]pyrazin-2-yl}(morpholin-4-yl)methanone

> <Smile>
COc1cc(OC)c(CN2Cc3cc(C(N4CCOCC4)=O)nn3CC2)cc1

> <Color>
ORANGE

> <Collection>
IC

> <InChI>
InChI=1S/C20H26N4O4/c1-26-17-4-3-15(19(12-17)27-2)13-22-5-6-24-16(14-22)11-18(21-24)20(25)23-7-9-28-10-8-23/h3-4,11-12H,5-10,13-14H2,1-2H3

> <InChI Key>
JKHZXKHQJCZELZ-UHFFFAOYSA-N

> <PERCENTSP3>
50

> <Link>
https://www.chemdiv.com/catalog/screening-compounds/compound-SB71-0256/

> <MFCDNUMBER>
MFCD32249201

> <CLNUMBER>
CM5543

> <STEREO>
ACHIRAL

> <State>
Oil

> <Similarity score>
0.30

$$$$
5-(4-fluoro-3-methylbenzene-1-sulfonyl)-N,N-dimethyl-4,5,6,7-tetrahydropyrazolo[
  -OEChem-04222410502D

 25 27  0     0  0  0  0  0  0999 V2000
   -0.9063   -1.1021    0.0000 S   0  0  0  0  0  0  0  0  0  0  0  0
    3.1773    0.1021    0.0000 C   0  0  0  0  0  0  0  0  0  0  0  0
    3.0691   -0.8938    0.0000 N   0  0  0  0  0  0  0  0  0  0  0  0
    0.0938   -1.1021    0.0000 N   0  0  0  0  0  0  0  0  0  0  0  0
    1.5939   -0.2354    0.0000 C   0  0  0  0  0  0  0  0  0  0  0  0
    2.0939   -1.1021    0.0000 N   0  0  0  0  0  0  0  0  0  0  0  0
    2.2606    0.5063    0.0000 C   0  0  0  0  0  0  0  0  0  0  0  0
    4.0400    0.6021    0.0000 C   0  0  0  0  0  0  0  0  0  0  0  0
    0.5939   -0.2354    0.0000 C   0  0  0  0  0  0  0  0  0  0  0  0
   -1.9064   -1.1021    0.0000 C   0  0  0  0  0  0  0  0  0  0  0  0
    0.5939   -1.9689    0.0000 C   0  0  0  0  0  0  0  0  0  0  0  0
    1.5939   -1.9689    0.0000 C   0  0  0  0  0  0  0  0  0  0  0  0
   -0.9063   -0.1021    0.0000 O   0  0  0  0  0  0  0  0  0  0  0  0
   -0.9063   -2.1022    0.0000 O   0  0  0  0  0  0  0  0  0  0  0  0
   -2.4064   -0.2354    0.0000 C   0  0  0  0  0  0  0  0  0  0  0  0
   -3.4066   -0.2354    0.0000 C   0  0  0  0  0  0  0  0  0  0  0  0
    4.0400    1.6023    0.0000 N   0  0  0  0  0  0  0  0  0  0  0  0
    4.9066    0.1021    0.0000 O   0  0  0  0  0  0  0  0  0  0  0  0
   -3.9066   -1.1021    0.0000 C   0  0  0  0  0  0  0  0  0  0  0  0
   -2.4064   -1.9689    0.0000 C   0  0  0  0  0  0  0  0  0  0  0  0
   -3.4066   -1.9689    0.0000 C   0  0  0  0  0  0  0  0  0  0  0  0
   -4.9066   -1.1021    0.0000 F   0  0  0  0  0  0  0  0  0  0  0  0
   -3.9066    0.6313    0.0000 C   0  0  0  0  0  0  0  0  0  0  0  0
    3.1773    2.1022    0.0000 C   0  0  0  0  0  0  0  0  0  0  0  0
    4.9066    2.1022    0.0000 C   0  0  0  0  0  0  0  0  0  0  0  0
  2  7  1  0  0  0  0
  2  3  2  0  0  0  0
  3  6  1  0  0  0  0
  1  4  1  0  0  0  0
  5  9  1  0  0  0  0
  5  6  1  0  0  0  0
  6 12  1  0  0  0  0
  5  7  2  0  0  0  0
  2  8  1  0  0  0  0
  4  9  1  0  0  0  0
  1 10  1  0  0  0  0
  4 11  1  0  0  0  0
 11 12  1  0  0  0  0
  1 13  2  0  0  0  0
  1 14  2  0  0  0  0
 10 15  2  0  0  0  0
 15 16  1  0  0  0  0
  8 17  1  0  0  0  0
  8 18  2  0  0  0  0
 19 21  1  0  0  0  0
 16 19  2  0  0  0  0
 10 20  1  0  0  0  0
 20 21  2  0  0  0  0
 19 22  1  0  0  0  0
 16 23  1  0  0  0  0
 17 24  1  0  0  0  0
 17 25  1  0  0  0  0
M  END
> <IDNUMBER>
SB71-0035

> <available>
67

> <H_acceptor>
8

> <H_donor>
0

> <B_rotN>
4

> <N_O>
7

> <logP>
0.7859

> <logD>
0.7859

> <logSw>
-2.2885

> <PSA>
61.421

> <pKa_ma>
26.1583

> <pKa_mb>
-3.0085

> <N_Chirals>
0

> <Name>
5-(4-fluoro-3-methylbenzene-1-sulfonyl)-N,N-dimethyl-4,5,6,7-tetrahydropyrazolo[1,5-a]pyrazine-2-carboxamide

> <Smile>
Cc(cc(cc1)S(N2Cc3cc(C(N(C)C)=O)nn3CC2)(=O)=O)c1F

> <Color>
YELLOW

> <Collection>
IC

> <InChI>
InChI=1S/C16H19FN4O3S/c1-11-8-13(4-5-14(11)17)25(23,24)20-6-7-21-12(10-20)9-15(18-21)16(22)19(2)3/h4-5,8-9H,6-7,10H2,1-3H3

> <InChI Key>
NVDMUQZCOWTSCF-UHFFFAOYSA-N

> <PERCENTSP3>
37.5

> <Link>
https://www.chemdiv.com/catalog/screening-compounds/compound-SB71-0035/

> <MFCDNUMBER>
MFCD32249189

> <CLNUMBER>
CM5543

> <STEREO>
ACHIRAL

> <State>
Solid

> <Similarity score>
0.30

$$$$
(3,4-dihydroisoquinolin-2(1H)-yl){5-[(2,4-dimethoxyphenyl)methyl]-4,5,6,7-tetrah
  -OEChem-04222410502D

 32 36  0     0  0  0  0  0  0999 V2000
    1.1293    0.9939    0.0000 C   0  0  0  0  0  0  0  0  0  0  0  0
    1.5377    0.0770    0.0000 N   0  0  0  0  0  0  0  0  0  0  0  0
    0.7960   -0.5897    0.0000 N   0  0  0  0  0  0  0  0  0  0  0  0
   -0.0709   -0.0897    0.0000 C   0  0  0  0  0  0  0  0  0  0  0  0
    0.1375    0.8897    0.0000 C   0  0  0  0  0  0  0  0  0  0  0  0
    1.6295    1.8565    0.0000 C   0  0  0  0  0  0  0  0  0  0  0  0
    2.6297    1.8565    0.0000 N   0  0  0  0  0  0  0  0  0  0  0  0
   -0.9377   -1.5898    0.0000 N   0  0  0  0  0  0  0  0  0  0  0  0
   -2.6713   -1.5898    0.0000 C   0  0  0  0  0  0  0  0  0  0  0  0
    3.1297    2.7234    0.0000 C   0  0  0  0  0  0  0  0  0  0  0  0
   -0.9377   -0.5897    0.0000 C   0  0  0  0  0  0  0  0  0  0  0  0
   -3.5381   -2.0900    0.0000 C   0  0  0  0  0  0  0  0  0  0  0  0
    0.7960   -1.5898    0.0000 C   0  0  0  0  0  0  0  0  0  0  0  0
   -1.8046   -2.0900    0.0000 C   0  0  0  0  0  0  0  0  0  0  0  0
    4.1299    2.7234    0.0000 C   0  0  0  0  0  0  0  0  0  0  0  0
   -4.4050   -1.5898    0.0000 C   0  0  0  0  0  0  0  0  0  0  0  0
    3.1297    0.9939    0.0000 C   0  0  0  0  0  0  0  0  0  0  0  0
    1.1293    2.7234    0.0000 O   0  0  0  0  0  0  0  0  0  0  0  0
    4.6301    1.8565    0.0000 C   0  0  0  0  0  0  0  0  0  0  0  0
   -2.6713   -0.5897    0.0000 C   0  0  0  0  0  0  0  0  0  0  0  0
   -0.0709   -2.0900    0.0000 C   0  0  0  0  0  0  0  0  0  0  0  0
    4.1299    0.9939    0.0000 C   0  0  0  0  0  0  0  0  0  0  0  0
   -4.4050   -0.5897    0.0000 C   0  0  0  0  0  0  0  0  0  0  0  0
   -3.5381   -0.0897    0.0000 C   0  0  0  0  0  0  0  0  0  0  0  0
   -3.5381   -3.0902    0.0000 O   0  0  0  0  0  0  0  0  0  0  0  0
   -5.2676   -0.0897    0.0000 O   0  0  0  0  0  0  0  0  0  0  0  0
    4.6301    3.5902    0.0000 C   0  0  0  0  0  0  0  0  0  0  0  0
    5.6303    1.8565    0.0000 C   0  0  0  0  0  0  0  0  0  0  0  0
   -4.4050   -3.5902    0.0000 C   0  0  0  0  0  0  0  0  0  0  0  0
   -6.1303   -0.5897    0.0000 C   0  0  0  0  0  0  0  0  0  0  0  0
    5.6303    3.5902    0.0000 C   0  0  0  0  0  0  0  0  0  0  0  0
    6.1303    2.7234    0.0000 C   0  0  0  0  0  0  0  0  0  0  0  0
  1  2  2  0  0  0  0
  2  3  1  0  0  0  0
  4  5  2  0  0  0  0
  3  4  1  0  0  0  0
  1  5  1  0  0  0  0
  1  6  1  0  0  0  0
  6  7  1  0  0  0  0
  8 11  1  0  0  0  0
  9 14  1  0  0  0  0
  7 10  1  0  0  0  0
  4 11  1  0  0  0  0
  9 12  2  0  0  0  0
  3 13  1  0  0  0  0
  8 14  1  0  0  0  0
 10 15  1  0  0  0  0
 12 16  1  0  0  0  0
 16 23  2  0  0  0  0
  7 17  1  0  0  0  0
  6 18  2  0  0  0  0
 19 22  1  0  0  0  0
 15 19  2  0  0  0  0
  9 20  1  0  0  0  0
 13 21  1  0  0  0  0
  8 21  1  0  0  0  0
 17 22  1  0  0  0  0
 23 24  1  0  0  0  0
 20 24  2  0  0  0  0
 12 25  1  0  0  0  0
 23 26  1  0  0  0  0
 15 27  1  0  0  0  0
 19 28  1  0  0  0  0
 25 29  1  0  0  0  0
 26 30  1  0  0  0  0
 27 31  2  0  0  0  0
 28 32  2  0  0  0  0
 31 32  1  0  0  0  0
M  END
> <IDNUMBER>
SB71-0446

> <available>
8

> <H_acceptor>
6

> <H_donor>
0

> <B_rotN>
6

> <N_O>
7

> <logP>
3.0264

> <logD>
3.013

> <logSw>
-3.2279

> <PSA>
48.926

> <pKa_ma>
25.6071

> <pKa_mb>
5.8954

> <N_Chirals>
0

> <Name>
(3,4-dihydroisoquinolin-2(1H)-yl){5-[(2,4-dimethoxyphenyl)methyl]-4,5,6,7-tetrahydropyrazolo[1,5-a]pyrazin-2-yl}methanone

> <Smile>
COc1cc(OC)c(CN2Cc3cc(C(N(CC4)Cc5c4cccc5)=O)nn3CC2)cc1

> <Color>
YELLOW

> <Collection>
IC

> <InChI>
InChI=1S/C25H28N4O3/c1-31-22-8-7-20(24(14-22)32-2)15-27-11-12-29-21(17-27)13-23(26-29)25(30)28-10-9-18-5-3-4-6-19(18)16-28/h3-8,13-14H,9-12,15-17H2,1-2H3

> <InChI Key>
OOKYVALBAPKVRN-UHFFFAOYSA-N

> <PERCENTSP3>
36

> <Link>
https://www.chemdiv.com/catalog/screening-compounds/compound-SB71-0446/

> <MFCDNUMBER>
MFCD32249643

> <CLNUMBER>
CM5543

> <STEREO>
ACHIRAL

> <State>
Solid

> <Similarity score>
0.30

$$$$
{5-[(3,4-difluorophenyl)methyl]-4,5,6,7-tetrahydropyrazolo[1,5-a]pyrazin-2-yl}(m
  -OEChem-04222410502D

 26 29  0     0  0  0  0  0  0999 V2000
    1.4484   -0.6772    0.0000 C   0  0  0  0  0  0  0  0  0  0  0  0
    1.8567    0.2397    0.0000 N   0  0  0  0  0  0  0  0  0  0  0  0
    1.1148    0.9064    0.0000 N   0  0  0  0  0  0  0  0  0  0  0  0
    0.2479    0.4064    0.0000 C   0  0  0  0  0  0  0  0  0  0  0  0
    0.4562   -0.5730    0.0000 C   0  0  0  0  0  0  0  0  0  0  0  0
    1.9484   -1.5399    0.0000 C   0  0  0  0  0  0  0  0  0  0  0  0
    2.9487   -1.5399    0.0000 N   0  0  0  0  0  0  0  0  0  0  0  0
   -0.6188    1.9065    0.0000 N   0  0  0  0  0  0  0  0  0  0  0  0
   -0.6188    0.9064    0.0000 C   0  0  0  0  0  0  0  0  0  0  0  0
    1.1148    1.9065    0.0000 C   0  0  0  0  0  0  0  0  0  0  0  0
   -3.2194    0.4064    0.0000 C   0  0  0  0  0  0  0  0  0  0  0  0
    1.4484   -2.4068    0.0000 O   0  0  0  0  0  0  0  0  0  0  0  0
   -4.0864    0.9064    0.0000 C   0  0  0  0  0  0  0  0  0  0  0  0
   -2.3527    0.9064    0.0000 C   0  0  0  0  0  0  0  0  0  0  0  0
   -2.3527    1.9065    0.0000 C   0  0  0  0  0  0  0  0  0  0  0  0
   -1.4856    2.4068    0.0000 C   0  0  0  0  0  0  0  0  0  0  0  0
    0.2479    2.4068    0.0000 C   0  0  0  0  0  0  0  0  0  0  0  0
    4.9490   -1.5399    0.0000 O   0  0  0  0  0  0  0  0  0  0  0  0
   -4.0864    1.9065    0.0000 C   0  0  0  0  0  0  0  0  0  0  0  0
   -3.2194   -0.5939    0.0000 F   0  0  0  0  0  0  0  0  0  0  0  0
   -3.2194    2.4068    0.0000 C   0  0  0  0  0  0  0  0  0  0  0  0
   -4.9490    0.4064    0.0000 F   0  0  0  0  0  0  0  0  0  0  0  0
    3.4487   -2.4068    0.0000 C   0  0  0  0  0  0  0  0  0  0  0  0
    3.4487   -0.6772    0.0000 C   0  0  0  0  0  0  0  0  0  0  0  0
    4.4489   -0.6772    0.0000 C   0  0  0  0  0  0  0  0  0  0  0  0
    4.4489   -2.4068    0.0000 C   0  0  0  0  0  0  0  0  0  0  0  0
  1  2  2  0  0  0  0
  2  3  1  0  0  0  0
  4  5  2  0  0  0  0
  3  4  1  0  0  0  0
  1  5  1  0  0  0  0
  1  6  1  0  0  0  0
  6  7  1  0  0  0  0
  8  9  1  0  0  0  0
  4  9  1  0  0  0  0
  3 10  1  0  0  0  0
 11 14  1  0  0  0  0
 11 13  2  0  0  0  0
  6 12  2  0  0  0  0
 13 19  1  0  0  0  0
 14 15  2  0  0  0  0
 15 16  1  0  0  0  0
  8 16  1  0  0  0  0
 10 17  1  0  0  0  0
  8 17  1  0  0  0  0
 18 25  1  0  0  0  0
 18 26  1  0  0  0  0
 19 21  2  0  0  0  0
 11 20  1  0  0  0  0
 15 21  1  0  0  0  0
 13 22  1  0  0  0  0
  7 23  1  0  0  0  0
  7 24  1  0  0  0  0
 24 25  1  0  0  0  0
 23 26  1  0  0  0  0
M  END
> <IDNUMBER>
SB71-0231

> <available>
8

> <H_acceptor>
5

> <H_donor>
0

> <B_rotN>
4

> <N_O>
6

> <logP>
1.1195

> <logD>
1.1144

> <logSw>
-1.9699

> <PSA>
41.999

> <pKa_ma>
26.5144

> <pKa_mb>
5.473

> <N_Chirals>
0

> <Name>
{5-[(3,4-difluorophenyl)methyl]-4,5,6,7-tetrahydropyrazolo[1,5-a]pyrazin-2-yl}(morpholin-4-yl)methanone

> <Smile>
O=C(c1nn(CCN(Cc(cc2)cc(F)c2F)C2)c2c1)N1CCOCC1

> <Color>
ORANGE

> <Collection>
IC

> <InChI>
InChI=1S/C18H20F2N4O2/c19-15-2-1-13(9-16(15)20)11-22-3-4-24-14(12-22)10-17(21-24)18(25)23-5-7-26-8-6-23/h1-2,9-10H,3-8,11-12H2

> <InChI Key>
AZPUVJUNRUEQDP-UHFFFAOYSA-N

> <PERCENTSP3>
44.44

> <Link>
https://www.chemdiv.com/catalog/screening-compounds/compound-SB71-0231/

> <MFCDNUMBER>
MFCD32249637

> <CLNUMBER>
CM5543

> <STEREO>
ACHIRAL

> <State>
Solid

> <Similarity score>
0.30

$$$$
5-(5-fluoro-2-methoxybenzene-1-sulfonyl)-N,N-dimethyl-4,5,6,7-tetrahydropyrazolo
  -OEChem-04222410502D

 26 28  0     0  0  0  0  0  0999 V2000
    1.4063   -0.7354    0.0000 S   0  0  0  0  0  0  0  0  0  0  0  0
   -2.6771    0.4689    0.0000 C   0  0  0  0  0  0  0  0  0  0  0  0
    0.4063   -0.7354    0.0000 N   0  0  0  0  0  0  0  0  0  0  0  0
    2.4063   -0.7354    0.0000 C   0  0  0  0  0  0  0  0  0  0  0  0
   -2.5689   -0.5271    0.0000 N   0  0  0  0  0  0  0  0  0  0  0  0
   -1.0937    0.1314    0.0000 C   0  0  0  0  0  0  0  0  0  0  0  0
   -1.5937   -0.7354    0.0000 N   0  0  0  0  0  0  0  0  0  0  0  0
   -1.7605    0.8730    0.0000 C   0  0  0  0  0  0  0  0  0  0  0  0
   -3.5396    0.9688    0.0000 C   0  0  0  0  0  0  0  0  0  0  0  0
   -0.0936    0.1314    0.0000 C   0  0  0  0  0  0  0  0  0  0  0  0
   -0.0936   -1.6021    0.0000 C   0  0  0  0  0  0  0  0  0  0  0  0
    2.9064   -1.6021    0.0000 C   0  0  0  0  0  0  0  0  0  0  0  0
   -1.0937   -1.6021    0.0000 C   0  0  0  0  0  0  0  0  0  0  0  0
    1.4063    0.2647    0.0000 O   0  0  0  0  0  0  0  0  0  0  0  0
    1.4063   -1.7354    0.0000 O   0  0  0  0  0  0  0  0  0  0  0  0
    2.9064    0.1314    0.0000 C   0  0  0  0  0  0  0  0  0  0  0  0
   -3.5396    1.9688    0.0000 N   0  0  0  0  0  0  0  0  0  0  0  0
   -4.4063    0.4689    0.0000 O   0  0  0  0  0  0  0  0  0  0  0  0
    3.9065    0.1314    0.0000 C   0  0  0  0  0  0  0  0  0  0  0  0
    3.9065   -1.6021    0.0000 C   0  0  0  0  0  0  0  0  0  0  0  0
    4.4063   -0.7354    0.0000 C   0  0  0  0  0  0  0  0  0  0  0  0
    4.4063   -2.4689    0.0000 F   0  0  0  0  0  0  0  0  0  0  0  0
    2.4063    0.9980    0.0000 O   0  0  0  0  0  0  0  0  0  0  0  0
   -2.6771    2.4689    0.0000 C   0  0  0  0  0  0  0  0  0  0  0  0
   -4.4063    2.4689    0.0000 C   0  0  0  0  0  0  0  0  0  0  0  0
    2.9064    1.8646    0.0000 C   0  0  0  0  0  0  0  0  0  0  0  0
  2  8  1  0  0  0  0
  2  5  2  0  0  0  0
  1  3  1  0  0  0  0
  1  4  1  0  0  0  0
  5  7  1  0  0  0  0
  6 10  1  0  0  0  0
  6  7  1  0  0  0  0
  7 13  1  0  0  0  0
  6  8  2  0  0  0  0
  2  9  1  0  0  0  0
  3 10  1  0  0  0  0
  3 11  1  0  0  0  0
  4 12  2  0  0  0  0
 11 13  1  0  0  0  0
  1 14  2  0  0  0  0
  1 15  2  0  0  0  0
  4 16  1  0  0  0  0
  9 17  1  0  0  0  0
  9 18  2  0  0  0  0
 16 19  2  0  0  0  0
 12 20  1  0  0  0  0
 19 21  1  0  0  0  0
 20 21  2  0  0  0  0
 20 22  1  0  0  0  0
 16 23  1  0  0  0  0
 17 24  1  0  0  0  0
 17 25  1  0  0  0  0
 23 26  1  0  0  0  0
M  END
> <IDNUMBER>
SB71-0033

> <available>
136

> <H_acceptor>
9

> <H_donor>
0

> <B_rotN>
5

> <N_O>
8

> <logP>
0.1468

> <logD>
0.1468

> <logSw>
-2.2062

> <PSA>
69.051

> <pKa_ma>
26.1583

> <pKa_mb>
-3.0085

> <N_Chirals>
0

> <Name>
5-(5-fluoro-2-methoxybenzene-1-sulfonyl)-N,N-dimethyl-4,5,6,7-tetrahydropyrazolo[1,5-a]pyrazine-2-carboxamide

> <Smile>
CN(C)C(c1nn(CCN(C2)S(c(cc(cc3)F)c3OC)(=O)=O)c2c1)=O

> <Color>
YELLOW

> <Collection>
IC

> <InChI>
InChI=1S/C16H19FN4O4S/c1-19(2)16(22)13-9-12-10-20(6-7-21(12)18-13)26(23,24)15-8-11(17)4-5-14(15)25-3/h4-5,8-9H,6-7,10H2,1-3H3

> <InChI Key>
FTPAUIANHBOYND-UHFFFAOYSA-N

> <PERCENTSP3>
37.5

> <Link>
https://www.chemdiv.com/catalog/screening-compounds/compound-SB71-0033/

> <MFCDNUMBER>
MFCD32249187

> <CLNUMBER>
CM5543

> <STEREO>
ACHIRAL

> <State>
Solid

> <Similarity score>
0.30

$$$$
N,N-dimethyl-5-{[4-(propan-2-yl)phenyl]methyl}-4,5,6,7-tetrahydropyrazolo[1,5-a]
  -OEChem-04222410502D

 24 26  0     0  0  0  0  0  0999 V2000
    2.6319    0.6773    0.0000 C   0  0  0  0  0  0  0  0  0  0  0  0
    3.0402   -0.2394    0.0000 N   0  0  0  0  0  0  0  0  0  0  0  0
    2.2984   -0.9065    0.0000 N   0  0  0  0  0  0  0  0  0  0  0  0
    1.4315   -0.4063    0.0000 C   0  0  0  0  0  0  0  0  0  0  0  0
    1.6398    0.5689    0.0000 C   0  0  0  0  0  0  0  0  0  0  0  0
    3.1319    1.5401    0.0000 C   0  0  0  0  0  0  0  0  0  0  0  0
    0.5647   -1.9066    0.0000 N   0  0  0  0  0  0  0  0  0  0  0  0
    0.5647   -0.9065    0.0000 C   0  0  0  0  0  0  0  0  0  0  0  0
    2.2984   -1.9066    0.0000 C   0  0  0  0  0  0  0  0  0  0  0  0
    4.1322    1.5401    0.0000 N   0  0  0  0  0  0  0  0  0  0  0  0
    2.6319    2.4069    0.0000 O   0  0  0  0  0  0  0  0  0  0  0  0
   -2.9029   -0.9065    0.0000 C   0  0  0  0  0  0  0  0  0  0  0  0
    1.4315   -2.4069    0.0000 C   0  0  0  0  0  0  0  0  0  0  0  0
   -0.3023   -2.4069    0.0000 C   0  0  0  0  0  0  0  0  0  0  0  0
   -2.9029   -1.9066    0.0000 C   0  0  0  0  0  0  0  0  0  0  0  0
   -2.0359   -0.4063    0.0000 C   0  0  0  0  0  0  0  0  0  0  0  0
   -1.1689   -1.9066    0.0000 C   0  0  0  0  0  0  0  0  0  0  0  0
   -3.7655   -0.4063    0.0000 C   0  0  0  0  0  0  0  0  0  0  0  0
   -2.0359   -2.4069    0.0000 C   0  0  0  0  0  0  0  0  0  0  0  0
   -1.1689   -0.9065    0.0000 C   0  0  0  0  0  0  0  0  0  0  0  0
    4.6323    0.6773    0.0000 C   0  0  0  0  0  0  0  0  0  0  0  0
    4.6323    2.4069    0.0000 C   0  0  0  0  0  0  0  0  0  0  0  0
   -3.7655    0.5940    0.0000 C   0  0  0  0  0  0  0  0  0  0  0  0
   -4.6323   -0.9065    0.0000 C   0  0  0  0  0  0  0  0  0  0  0  0
  1  2  2  0  0  0  0
  2  3  1  0  0  0  0
  4  5  2  0  0  0  0
  3  4  1  0  0  0  0
  1  5  1  0  0  0  0
  1  6  1  0  0  0  0
  7  8  1  0  0  0  0
  4  8  1  0  0  0  0
  3  9  1  0  0  0  0
  6 10  1  0  0  0  0
  6 11  2  0  0  0  0
 12 16  1  0  0  0  0
 12 15  2  0  0  0  0
  9 13  1  0  0  0  0
  7 13  1  0  0  0  0
  7 14  1  0  0  0  0
 15 19  1  0  0  0  0
 16 20  2  0  0  0  0
 14 17  1  0  0  0  0
 12 18  1  0  0  0  0
 17 19  2  0  0  0  0
 17 20  1  0  0  0  0
 10 21  1  0  0  0  0
 10 22  1  0  0  0  0
 18 23  1  0  0  0  0
 18 24  1  0  0  0  0
M  END
> <IDNUMBER>
SB71-0051

> <available>
17

> <H_acceptor>
4

> <H_donor>
0

> <B_rotN>
5

> <N_O>
5

> <logP>
1.9153

> <logD>
1.8408

> <logSw>
-2.5264

> <PSA>
33.442

> <pKa_ma>
24.078

> <pKa_mb>
6.6724

> <N_Chirals>
0

> <Name>
N,N-dimethyl-5-{[4-(propan-2-yl)phenyl]methyl}-4,5,6,7-tetrahydropyrazolo[1,5-a]pyrazine-2-carboxamide

> <Smile>
CC(C)c1ccc(CN2Cc3cc(C(N(C)C)=O)nn3CC2)cc1

> <Color>
ORANGE

> <Collection>
IC

> <InChI>
InChI=1S/C19H26N4O/c1-14(2)16-7-5-15(6-8-16)12-22-9-10-23-17(13-22)11-18(20-23)19(24)21(3)4/h5-8,11,14H,9-10,12-13H2,1-4H3

> <InChI Key>
BNJNKIDOGJGSCU-UHFFFAOYSA-N

> <PERCENTSP3>
47.37

> <Link>
https://www.chemdiv.com/catalog/screening-compounds/compound-SB71-0051/

> <MFCDNUMBER>
MFCD32249194

> <CLNUMBER>
CM5543

> <STEREO>
ACHIRAL

> <State>
Solid

> <Similarity score>
0.30

$$$$
5-[(4-chlorophenyl)methyl]-N,N-dimethyl-4,5,6,7-tetrahydropyrazolo[1,5-a]pyrazin
  -OEChem-04222410502D

 22 24  0     0  0  0  0  0  0999 V2000
    2.1986    0.6774    0.0000 C   0  0  0  0  0  0  0  0  0  0  0  0
    2.6071   -0.2397    0.0000 N   0  0  0  0  0  0  0  0  0  0  0  0
    1.8651   -0.9065    0.0000 N   0  0  0  0  0  0  0  0  0  0  0  0
    0.9982   -0.4064    0.0000 C   0  0  0  0  0  0  0  0  0  0  0  0
    1.2067    0.5689    0.0000 C   0  0  0  0  0  0  0  0  0  0  0  0
    2.6986    1.5402    0.0000 C   0  0  0  0  0  0  0  0  0  0  0  0
    0.1314   -1.9068    0.0000 N   0  0  0  0  0  0  0  0  0  0  0  0
    0.1314   -0.9065    0.0000 C   0  0  0  0  0  0  0  0  0  0  0  0
    1.8651   -1.9068    0.0000 C   0  0  0  0  0  0  0  0  0  0  0  0
    3.6989    1.5402    0.0000 N   0  0  0  0  0  0  0  0  0  0  0  0
    2.1986    2.4070    0.0000 O   0  0  0  0  0  0  0  0  0  0  0  0
    0.9982   -2.4070    0.0000 C   0  0  0  0  0  0  0  0  0  0  0  0
   -0.7356   -2.4070    0.0000 C   0  0  0  0  0  0  0  0  0  0  0  0
   -1.6025   -1.9068    0.0000 C   0  0  0  0  0  0  0  0  0  0  0  0
   -3.3365   -0.9065    0.0000 C   0  0  0  0  0  0  0  0  0  0  0  0
   -4.1991   -0.4064    0.0000 Cl  0  0  0  0  0  0  0  0  0  0  0  0
   -2.4695   -0.4064    0.0000 C   0  0  0  0  0  0  0  0  0  0  0  0
   -3.3365   -1.9068    0.0000 C   0  0  0  0  0  0  0  0  0  0  0  0
   -2.4695   -2.4070    0.0000 C   0  0  0  0  0  0  0  0  0  0  0  0
   -1.6025   -0.9065    0.0000 C   0  0  0  0  0  0  0  0  0  0  0  0
    4.1991    0.6774    0.0000 C   0  0  0  0  0  0  0  0  0  0  0  0
    4.1991    2.4070    0.0000 C   0  0  0  0  0  0  0  0  0  0  0  0
  1  2  2  0  0  0  0
  2  3  1  0  0  0  0
  4  5  2  0  0  0  0
  3  4  1  0  0  0  0
  1  5  1  0  0  0  0
  1  6  1  0  0  0  0
  7  8  1  0  0  0  0
  4  8  1  0  0  0  0
  3  9  1  0  0  0  0
  6 10  1  0  0  0  0
  6 11  2  0  0  0  0
  9 12  1  0  0  0  0
  7 12  1  0  0  0  0
  7 13  1  0  0  0  0
 13 14  1  0  0  0  0
 15 17  1  0  0  0  0
 15 16  1  0  0  0  0
 17 20  2  0  0  0  0
 18 19  1  0  0  0  0
 15 18  2  0  0  0  0
 14 19  2  0  0  0  0
 14 20  1  0  0  0  0
 10 21  1  0  0  0  0
 10 22  1  0  0  0  0
M  END
> <IDNUMBER>
SB71-0087

> <available>
100

> <H_acceptor>
4

> <H_donor>
0

> <B_rotN>
4

> <N_O>
5

> <logP>
1.1719

> <logD>
1.1654

> <logSw>
-2.5502

> <PSA>
33.442

> <pKa_ma>
26.5144

> <pKa_mb>
5.5784

> <N_Chirals>
0

> <Name>
5-[(4-chlorophenyl)methyl]-N,N-dimethyl-4,5,6,7-tetrahydropyrazolo[1,5-a]pyrazine-2-carboxamide

> <Smile>
CN(C)C(c1nn(CCN(Cc(cc2)ccc2Cl)C2)c2c1)=O

> <Color>
ORANGE

> <Collection>
IC

> <InChI>
InChI=1S/C16H19ClN4O/c1-19(2)16(22)15-9-14-11-20(7-8-21(14)18-15)10-12-3-5-13(17)6-4-12/h3-6,9H,7-8,10-11H2,1-2H3

> <InChI Key>
KOLMIYJNYJLXOW-UHFFFAOYSA-N

> <PERCENTSP3>
37.5

> <Link>
https://www.chemdiv.com/catalog/screening-compounds/compound-SB71-0087/

> <MFCDNUMBER>
MFCD32249256

> <CLNUMBER>
CM5543

> <STEREO>
ACHIRAL

> <State>
Solid

> <Similarity score>
0.29

$$$$
5-(2,5-dimethoxybenzene-1-sulfonyl)-N,N-dimethyl-4,5,6,7-tetrahydropyrazolo[1,5-
  -OEChem-04222410502D

 27 29  0     0  0  0  0  0  0999 V2000
    0.9062   -0.7353    0.0000 S   0  0  0  0  0  0  0  0  0  0  0  0
   -3.1770    0.4687    0.0000 C   0  0  0  0  0  0  0  0  0  0  0  0
   -0.0938   -0.7353    0.0000 N   0  0  0  0  0  0  0  0  0  0  0  0
    1.9062   -0.7353    0.0000 C   0  0  0  0  0  0  0  0  0  0  0  0
   -3.0727   -0.5271    0.0000 N   0  0  0  0  0  0  0  0  0  0  0  0
   -1.5936    0.1312    0.0000 C   0  0  0  0  0  0  0  0  0  0  0  0
   -2.0936   -0.7353    0.0000 N   0  0  0  0  0  0  0  0  0  0  0  0
   -2.2603    0.8729    0.0000 C   0  0  0  0  0  0  0  0  0  0  0  0
   -4.0393    0.9686    0.0000 C   0  0  0  0  0  0  0  0  0  0  0  0
   -0.5936    0.1312    0.0000 C   0  0  0  0  0  0  0  0  0  0  0  0
   -0.5936   -1.6019    0.0000 C   0  0  0  0  0  0  0  0  0  0  0  0
    2.4060   -1.6019    0.0000 C   0  0  0  0  0  0  0  0  0  0  0  0
   -1.5936   -1.6019    0.0000 C   0  0  0  0  0  0  0  0  0  0  0  0
    0.9062    0.2646    0.0000 O   0  0  0  0  0  0  0  0  0  0  0  0
    0.9062   -1.7353    0.0000 O   0  0  0  0  0  0  0  0  0  0  0  0
    2.4060    0.1312    0.0000 C   0  0  0  0  0  0  0  0  0  0  0  0
   -4.0393    1.9686    0.0000 N   0  0  0  0  0  0  0  0  0  0  0  0
   -4.9058    0.4687    0.0000 O   0  0  0  0  0  0  0  0  0  0  0  0
    3.4060    0.1312    0.0000 C   0  0  0  0  0  0  0  0  0  0  0  0
    3.4060   -1.6019    0.0000 C   0  0  0  0  0  0  0  0  0  0  0  0
    3.9059   -0.7353    0.0000 C   0  0  0  0  0  0  0  0  0  0  0  0
    1.9062    0.9979    0.0000 O   0  0  0  0  0  0  0  0  0  0  0  0
    3.9059   -2.4685    0.0000 O   0  0  0  0  0  0  0  0  0  0  0  0
   -3.1770    2.4685    0.0000 C   0  0  0  0  0  0  0  0  0  0  0  0
   -4.9058    2.4685    0.0000 C   0  0  0  0  0  0  0  0  0  0  0  0
    2.4060    1.8645    0.0000 C   0  0  0  0  0  0  0  0  0  0  0  0
    4.9058   -2.4685    0.0000 C   0  0  0  0  0  0  0  0  0  0  0  0
  2  8  1  0  0  0  0
  2  5  2  0  0  0  0
  1  3  1  0  0  0  0
  1  4  1  0  0  0  0
  5  7  1  0  0  0  0
  6 10  1  0  0  0  0
  6  7  1  0  0  0  0
  7 13  1  0  0  0  0
  6  8  2  0  0  0  0
  2  9  1  0  0  0  0
  3 10  1  0  0  0  0
  3 11  1  0  0  0  0
  4 12  1  0  0  0  0
 11 13  1  0  0  0  0
  1 14  2  0  0  0  0
  1 15  2  0  0  0  0
  4 16  2  0  0  0  0
  9 17  1  0  0  0  0
  9 18  2  0  0  0  0
 16 19  1  0  0  0  0
 12 20  2  0  0  0  0
 19 21  2  0  0  0  0
 20 21  1  0  0  0  0
 16 22  1  0  0  0  0
 20 23  1  0  0  0  0
 17 24  1  0  0  0  0
 17 25  1  0  0  0  0
 22 26  1  0  0  0  0
 23 27  1  0  0  0  0
M  END
> <IDNUMBER>
SB71-0037

> <available>
118

> <H_acceptor>
10

> <H_donor>
0

> <B_rotN>
6

> <N_O>
9

> <logP>
0.1113

> <logD>
0.1113

> <logSw>
-2.2276

> <PSA>
76.595

> <pKa_ma>
26.1583

> <pKa_mb>
-3.0085

> <N_Chirals>
0

> <Name>
5-(2,5-dimethoxybenzene-1-sulfonyl)-N,N-dimethyl-4,5,6,7-tetrahydropyrazolo[1,5-a]pyrazine-2-carboxamide

> <Smile>
CN(C)C(c1nn(CCN(C2)S(c(cc(cc3)OC)c3OC)(=O)=O)c2c1)=O

> <Color>
YELLOW

> <Collection>
IC

> <InChI>
InChI=1S/C17H22N4O5S/c1-19(2)17(22)14-9-12-11-20(7-8-21(12)18-14)27(23,24)16-10-13(25-3)5-6-15(16)26-4/h5-6,9-10H,7-8,11H2,1-4H3

> <InChI Key>
CPGFQDOAYBWHGY-UHFFFAOYSA-N

> <PERCENTSP3>
41.18

> <Link>
https://www.chemdiv.com/catalog/screening-compounds/compound-SB71-0037/

> <MFCDNUMBER>
MFCD32249190

> <CLNUMBER>
CM5543

> <STEREO>
ACHIRAL

> <State>
Solid

> <Similarity score>
0.29

$$$$
N,N-dimethyl-5-[(thiophen-2-yl)methyl]-4,5,6,7-tetrahydropyrazolo[1,5-a]pyrazine
  -OEChem-04222410502D

 20 22  0     0  0  0  0  0  0999 V2000
    1.6948    0.6774    0.0000 C   0  0  0  0  0  0  0  0  0  0  0  0
    2.0992   -0.2397    0.0000 N   0  0  0  0  0  0  0  0  0  0  0  0
    1.3571   -0.9068    0.0000 N   0  0  0  0  0  0  0  0  0  0  0  0
    0.4899   -0.4064    0.0000 C   0  0  0  0  0  0  0  0  0  0  0  0
    0.6983    0.5733    0.0000 C   0  0  0  0  0  0  0  0  0  0  0  0
    2.1908    1.5407    0.0000 C   0  0  0  0  0  0  0  0  0  0  0  0
   -0.3774   -1.9074    0.0000 N   0  0  0  0  0  0  0  0  0  0  0  0
   -0.3774   -0.9068    0.0000 C   0  0  0  0  0  0  0  0  0  0  0  0
    1.3571   -1.9074    0.0000 C   0  0  0  0  0  0  0  0  0  0  0  0
   -3.0247   -2.3159    0.0000 S   0  0  0  0  0  0  0  0  0  0  0  0
   -2.1117   -1.9074    0.0000 C   0  0  0  0  0  0  0  0  0  0  0  0
    3.1914    1.5407    0.0000 N   0  0  0  0  0  0  0  0  0  0  0  0
    1.6948    2.4077    0.0000 O   0  0  0  0  0  0  0  0  0  0  0  0
   -1.2445   -2.4077    0.0000 C   0  0  0  0  0  0  0  0  0  0  0  0
   -3.6918   -1.5696    0.0000 C   0  0  0  0  0  0  0  0  0  0  0  0
   -2.2160   -0.9151    0.0000 C   0  0  0  0  0  0  0  0  0  0  0  0
    0.4899   -2.4077    0.0000 C   0  0  0  0  0  0  0  0  0  0  0  0
   -3.1914   -0.7066    0.0000 C   0  0  0  0  0  0  0  0  0  0  0  0
    3.6918    0.6774    0.0000 C   0  0  0  0  0  0  0  0  0  0  0  0
    3.6918    2.4077    0.0000 C   0  0  0  0  0  0  0  0  0  0  0  0
  1  2  2  0  0  0  0
  2  3  1  0  0  0  0
  4  5  2  0  0  0  0
  3  4  1  0  0  0  0
  1  5  1  0  0  0  0
  1  6  1  0  0  0  0
  7  8  1  0  0  0  0
  4  8  1  0  0  0  0
  3  9  1  0  0  0  0
 10 11  1  0  0  0  0
 11 14  1  0  0  0  0
  6 12  1  0  0  0  0
  6 13  2  0  0  0  0
  7 14  1  0  0  0  0
 10 15  1  0  0  0  0
 15 18  2  0  0  0  0
 11 16  2  0  0  0  0
  9 17  1  0  0  0  0
  7 17  1  0  0  0  0
 16 18  1  0  0  0  0
 12 19  1  0  0  0  0
 12 20  1  0  0  0  0
M  END
> <IDNUMBER>
SB71-0052

> <available>
23

> <H_acceptor>
4

> <H_donor>
0

> <B_rotN>
4

> <N_O>
5

> <logP>
0.4059

> <logD>
0.3911

> <logSw>
-1.8927

> <PSA>
34.461

> <pKa_ma>
26.9104

> <pKa_mb>
5.9402

> <N_Chirals>
0

> <Name>
N,N-dimethyl-5-[(thiophen-2-yl)methyl]-4,5,6,7-tetrahydropyrazolo[1,5-a]pyrazine-2-carboxamide

> <Smile>
CN(C)C(c1nn(CCN(Cc2cccs2)C2)c2c1)=O

> <Color>
ORANGE

> <Collection>
IC

> <InChI>
InChI=1S/C14H18N4OS/c1-16(2)14(19)13-8-11-9-17(5-6-18(11)15-13)10-12-4-3-7-20-12/h3-4,7-8H,5-6,9-10H2,1-2H3

> <InChI Key>
RAMRRVYHYINKPE-UHFFFAOYSA-N

> <PERCENTSP3>
42.86

> <Link>
https://www.chemdiv.com/catalog/screening-compounds/compound-SB71-0052/

> <MFCDNUMBER>
MFCD32249218

> <CLNUMBER>
CM5543

> <STEREO>
ACHIRAL

> <State>
Solid

> <Similarity score>
0.28

$$$$
5-(4-methoxybenzene-1-sulfonyl)-N,N-dimethyl-4,5,6,7-tetrahydropyrazolo[1,5-a]py
  -OEChem-04222410502D

 25 27  0     0  0  0  0  0  0999 V2000
   -0.6562   -1.1020    0.0000 S   0  0  0  0  0  0  0  0  0  0  0  0
    3.4267    0.1020    0.0000 C   0  0  0  0  0  0  0  0  0  0  0  0
    3.3224   -0.8937    0.0000 N   0  0  0  0  0  0  0  0  0  0  0  0
    0.3437   -1.1020    0.0000 N   0  0  0  0  0  0  0  0  0  0  0  0
    1.8435   -0.2352    0.0000 C   0  0  0  0  0  0  0  0  0  0  0  0
    2.3435   -1.1020    0.0000 N   0  0  0  0  0  0  0  0  0  0  0  0
    2.5101    0.5061    0.0000 C   0  0  0  0  0  0  0  0  0  0  0  0
    4.2891    0.6019    0.0000 C   0  0  0  0  0  0  0  0  0  0  0  0
    0.8438   -0.2352    0.0000 C   0  0  0  0  0  0  0  0  0  0  0  0
   -1.6561   -1.1020    0.0000 C   0  0  0  0  0  0  0  0  0  0  0  0
    0.8438   -1.9687    0.0000 C   0  0  0  0  0  0  0  0  0  0  0  0
    1.8435   -1.9687    0.0000 C   0  0  0  0  0  0  0  0  0  0  0  0
   -0.6562   -0.1020    0.0000 O   0  0  0  0  0  0  0  0  0  0  0  0
   -0.6562   -2.1019    0.0000 O   0  0  0  0  0  0  0  0  0  0  0  0
    4.2891    1.6020    0.0000 N   0  0  0  0  0  0  0  0  0  0  0  0
    5.1558    0.1020    0.0000 O   0  0  0  0  0  0  0  0  0  0  0  0
   -2.1561   -1.9687    0.0000 C   0  0  0  0  0  0  0  0  0  0  0  0
   -2.1561   -0.2352    0.0000 C   0  0  0  0  0  0  0  0  0  0  0  0
   -3.6559   -1.1020    0.0000 C   0  0  0  0  0  0  0  0  0  0  0  0
   -3.1560   -1.9687    0.0000 C   0  0  0  0  0  0  0  0  0  0  0  0
   -3.1560   -0.2352    0.0000 C   0  0  0  0  0  0  0  0  0  0  0  0
   -4.6558   -1.1020    0.0000 O   0  0  0  0  0  0  0  0  0  0  0  0
    3.4267    2.1019    0.0000 C   0  0  0  0  0  0  0  0  0  0  0  0
    5.1558    2.1019    0.0000 C   0  0  0  0  0  0  0  0  0  0  0  0
   -5.1558   -0.2352    0.0000 C   0  0  0  0  0  0  0  0  0  0  0  0
  2  7  1  0  0  0  0
  2  3  2  0  0  0  0
  3  6  1  0  0  0  0
  1  4  1  0  0  0  0
  5  9  1  0  0  0  0
  5  6  1  0  0  0  0
  6 12  1  0  0  0  0
  5  7  2  0  0  0  0
  2  8  1  0  0  0  0
  4  9  1  0  0  0  0
  1 10  1  0  0  0  0
  4 11  1  0  0  0  0
 11 12  1  0  0  0  0
  1 13  2  0  0  0  0
  1 14  2  0  0  0  0
  8 15  1  0  0  0  0
  8 16  2  0  0  0  0
 10 17  1  0  0  0  0
 10 18  2  0  0  0  0
 19 21  2  0  0  0  0
 17 20  2  0  0  0  0
 19 20  1  0  0  0  0
 18 21  1  0  0  0  0
 19 22  1  0  0  0  0
 15 23  1  0  0  0  0
 15 24  1  0  0  0  0
 22 25  1  0  0  0  0
M  END
> <IDNUMBER>
SB71-0062

> <available>
50

> <H_acceptor>
9

> <H_donor>
0

> <B_rotN>
5

> <N_O>
8

> <logP>
0.2729

> <logD>
0.2729

> <logSw>
-2.2949

> <PSA>
68.965

> <pKa_ma>
26.1583

> <pKa_mb>
-3.0085

> <N_Chirals>
0

> <Name>
5-(4-methoxybenzene-1-sulfonyl)-N,N-dimethyl-4,5,6,7-tetrahydropyrazolo[1,5-a]pyrazine-2-carboxamide

> <Smile>
CN(C)C(c1nn(CCN(C2)S(c(cc3)ccc3OC)(=O)=O)c2c1)=O

> <Color>
NOT COLORED

> <Collection>
IC

> <InChI>
InChI=1S/C16H20N4O4S/c1-18(2)16(21)15-10-12-11-19(8-9-20(12)17-15)25(22,23)14-6-4-13(24-3)5-7-14/h4-7,10H,8-9,11H2,1-3H3

> <InChI Key>
ICQPWTYDCFLZDD-UHFFFAOYSA-N

> <PERCENTSP3>
37.5

> <Link>
https://www.chemdiv.com/catalog/screening-compounds/compound-SB71-0062/

> <MFCDNUMBER>
MFCD32249222

> <CLNUMBER>
CM5543

> <STEREO>
ACHIRAL

> <State>
Solid

> <Similarity score>
0.28

$$$$
(5-{[3-(4-fluorophenyl)-1H-pyrazol-4-yl]methyl}-4,5,6,7-tetrahydropyrazolo[1,5-a
  -OEChem-04222410502D

 30 34  0     0  0  0  0  0  0999 V2000
    2.3935    0.8520    0.0000 C   0  0  0  0  0  0  0  0  0  0  0  0
    2.2893   -0.1437    0.0000 N   0  0  0  0  0  0  0  0  0  0  0  0
    1.3102   -0.3520    0.0000 N   0  0  0  0  0  0  0  0  0  0  0  0
    0.8103    0.5146    0.0000 C   0  0  0  0  0  0  0  0  0  0  0  0
   -2.1894    0.5146    0.0000 C   0  0  0  0  0  0  0  0  0  0  0  0
    1.4811    1.2602    0.0000 C   0  0  0  0  0  0  0  0  0  0  0  0
    3.2601    1.3520    0.0000 C   0  0  0  0  0  0  0  0  0  0  0  0
   -3.1809    0.6188    0.0000 C   0  0  0  0  0  0  0  0  0  0  0  0
   -3.3892    1.5975    0.0000 N   0  0  0  0  0  0  0  0  0  0  0  0
   -0.6896   -0.3520    0.0000 N   0  0  0  0  0  0  0  0  0  0  0  0
    4.1268    0.8520    0.0000 N   0  0  0  0  0  0  0  0  0  0  0  0
   -2.5226    2.0976    0.0000 N   0  0  0  0  0  0  0  0  0  0  0  0
   -1.6894   -0.3520    0.0000 C   0  0  0  0  0  0  0  0  0  0  0  0
   -0.1895    0.5146    0.0000 C   0  0  0  0  0  0  0  0  0  0  0  0
   -1.7810    1.4269    0.0000 C   0  0  0  0  0  0  0  0  0  0  0  0
    0.8103   -1.2144    0.0000 C   0  0  0  0  0  0  0  0  0  0  0  0
   -3.8517   -0.1229    0.0000 C   0  0  0  0  0  0  0  0  0  0  0  0
    3.2601    2.3518    0.0000 O   0  0  0  0  0  0  0  0  0  0  0  0
   -0.1895   -1.2144    0.0000 C   0  0  0  0  0  0  0  0  0  0  0  0
    5.8598   -0.1480    0.0000 O   0  0  0  0  0  0  0  0  0  0  0  0
   -4.8307    0.0855    0.0000 C   0  0  0  0  0  0  0  0  0  0  0  0
   -3.5432   -1.0727    0.0000 C   0  0  0  0  0  0  0  0  0  0  0  0
   -5.1888   -1.6103    0.0000 C   0  0  0  0  0  0  0  0  0  0  0  0
   -4.2101   -1.8185    0.0000 C   0  0  0  0  0  0  0  0  0  0  0  0
   -5.4972   -0.6563    0.0000 C   0  0  0  0  0  0  0  0  0  0  0  0
   -5.8598   -2.3518    0.0000 F   0  0  0  0  0  0  0  0  0  0  0  0
    4.9933    1.3520    0.0000 C   0  0  0  0  0  0  0  0  0  0  0  0
    4.1268   -0.1480    0.0000 C   0  0  0  0  0  0  0  0  0  0  0  0
    4.9933   -0.6479    0.0000 C   0  0  0  0  0  0  0  0  0  0  0  0
    5.8598    0.8520    0.0000 C   0  0  0  0  0  0  0  0  0  0  0  0
  1  2  2  0  0  0  0
  2  3  1  0  0  0  0
  4  6  2  0  0  0  0
  3  4  1  0  0  0  0
  5 13  1  0  0  0  0
  1  6  1  0  0  0  0
  1  7  1  0  0  0  0
  5  8  1  0  0  0  0
  8  9  2  0  0  0  0
  9 12  1  0  0  0  0
 10 14  1  0  0  0  0
  7 11  1  0  0  0  0
 12 15  1  0  0  0  0
 10 13  1  0  0  0  0
  4 14  1  0  0  0  0
  5 15  2  0  0  0  0
  3 16  1  0  0  0  0
  8 17  1  0  0  0  0
  7 18  2  0  0  0  0
 16 19  1  0  0  0  0
 10 19  1  0  0  0  0
 20 29  1  0  0  0  0
 20 30  1  0  0  0  0
 17 21  2  0  0  0  0
 17 22  1  0  0  0  0
 23 24  1  0  0  0  0
 23 25  2  0  0  0  0
 22 24  2  0  0  0  0
 21 25  1  0  0  0  0
 23 26  1  0  0  0  0
 11 27  1  0  0  0  0
 11 28  1  0  0  0  0
 28 29  1  0  0  0  0
 27 30  1  0  0  0  0
M  END
> <IDNUMBER>
SB71-0205

> <available>
35

> <H_acceptor>
6

> <H_donor>
1

> <B_rotN>
5

> <N_O>
8

> <logP>
1.0536

> <logD>
0.6167

> <logSw>
-2.1435

> <PSA>
66.189

> <pKa_ma>
11.6652

> <pKa_mb>
7.6393

> <N_Chirals>
0

> <Name>
(5-{[3-(4-fluorophenyl)-1H-pyrazol-4-yl]methyl}-4,5,6,7-tetrahydropyrazolo[1,5-a]pyrazin-2-yl)(morpholin-4-yl)methanone

> <Smile>
O=C(c1nn(CCN(Cc2c[nH]nc2-c(cc2)ccc2F)C2)c2c1)N1CCOCC1

> <Color>
YELLOW

> <Collection>
IC

> <InChI>
InChI=1S/C21H23FN6O2/c22-17-3-1-15(2-4-17)20-16(12-23-24-20)13-26-5-6-28-18(14-26)11-19(25-28)21(29)27-7-9-30-10-8-27/h1-4,11-12H,5-10,13-14H2,(H,23,24)

> <InChI Key>
QLXNIYYACATFMT-UHFFFAOYSA-N

> <PERCENTSP3>
38.1

> <Link>
https://www.chemdiv.com/catalog/screening-compounds/compound-SB71-0205/

> <MFCDNUMBER>
MFCD32249566

> <CLNUMBER>
CM5543

> <STEREO>
ACHIRAL

> <State>
Solid

> <Similarity score>
0.28

$$$$
[5-(2,3-dihydro-1H-indene-5-sulfonyl)-4,5,6,7-tetrahydropyrazolo[1,5-a]pyrazin-2
  -OEChem-04222410502D

 29 33  0     0  0  0  0  0  0999 V2000
   -0.8646   -1.8521    0.0000 S   0  0  0  0  0  0  0  0  0  0  0  0
    3.2144   -0.6478    0.0000 C   0  0  0  0  0  0  0  0  0  0  0  0
    3.1102   -1.6437    0.0000 N   0  0  0  0  0  0  0  0  0  0  0  0
    0.1354   -1.8521    0.0000 N   0  0  0  0  0  0  0  0  0  0  0  0
    1.6354   -0.9854    0.0000 C   0  0  0  0  0  0  0  0  0  0  0  0
    2.1352   -1.8521    0.0000 N   0  0  0  0  0  0  0  0  0  0  0  0
    2.3020   -0.2438    0.0000 C   0  0  0  0  0  0  0  0  0  0  0  0
    4.0810   -0.1480    0.0000 C   0  0  0  0  0  0  0  0  0  0  0  0
    0.6353   -0.9854    0.0000 C   0  0  0  0  0  0  0  0  0  0  0  0
   -1.8646   -1.8521    0.0000 C   0  0  0  0  0  0  0  0  0  0  0  0
    4.0810    0.8521    0.0000 N   0  0  0  0  0  0  0  0  0  0  0  0
    0.6353   -2.7187    0.0000 C   0  0  0  0  0  0  0  0  0  0  0  0
    1.6354   -2.7187    0.0000 C   0  0  0  0  0  0  0  0  0  0  0  0
   -2.3645   -0.9854    0.0000 C   0  0  0  0  0  0  0  0  0  0  0  0
   -0.8646   -0.8521    0.0000 O   0  0  0  0  0  0  0  0  0  0  0  0
   -0.8646   -2.8519    0.0000 O   0  0  0  0  0  0  0  0  0  0  0  0
   -3.3644   -0.9854    0.0000 C   0  0  0  0  0  0  0  0  0  0  0  0
    4.9476   -0.6478    0.0000 O   0  0  0  0  0  0  0  0  0  0  0  0
   -3.8644   -1.8521    0.0000 C   0  0  0  0  0  0  0  0  0  0  0  0
   -2.3645   -2.7187    0.0000 C   0  0  0  0  0  0  0  0  0  0  0  0
   -3.3644   -2.7187    0.0000 C   0  0  0  0  0  0  0  0  0  0  0  0
    4.0810    2.8519    0.0000 O   0  0  0  0  0  0  0  0  0  0  0  0
    4.9476    1.3519    0.0000 C   0  0  0  0  0  0  0  0  0  0  0  0
    3.2144    1.3519    0.0000 C   0  0  0  0  0  0  0  0  0  0  0  0
   -4.0351   -0.2438    0.0000 C   0  0  0  0  0  0  0  0  0  0  0  0
   -4.9476   -0.6478    0.0000 C   0  0  0  0  0  0  0  0  0  0  0  0
   -4.8433   -1.6437    0.0000 C   0  0  0  0  0  0  0  0  0  0  0  0
    4.9476    2.3520    0.0000 C   0  0  0  0  0  0  0  0  0  0  0  0
    3.2144    2.3520    0.0000 C   0  0  0  0  0  0  0  0  0  0  0  0
  2  7  1  0  0  0  0
  2  3  2  0  0  0  0
  3  6  1  0  0  0  0
  1  4  1  0  0  0  0
  5  9  1  0  0  0  0
  5  6  1  0  0  0  0
  6 13  1  0  0  0  0
  5  7  2  0  0  0  0
  2  8  1  0  0  0  0
  4  9  1  0  0  0  0
  1 10  1  0  0  0  0
  8 11  1  0  0  0  0
  4 12  1  0  0  0  0
 12 13  1  0  0  0  0
 10 14  2  0  0  0  0
  1 15  2  0  0  0  0
  1 16  2  0  0  0  0
 14 17  1  0  0  0  0
  8 18  2  0  0  0  0
 19 21  1  0  0  0  0
 17 19  2  0  0  0  0
 10 20  1  0  0  0  0
 20 21  2  0  0  0  0
 22 29  1  0  0  0  0
 22 28  1  0  0  0  0
 11 23  1  0  0  0  0
 11 24  1  0  0  0  0
 17 25  1  0  0  0  0
 25 26  1  0  0  0  0
 26 27  1  0  0  0  0
 19 27  1  0  0  0  0
 23 28  1  0  0  0  0
 24 29  1  0  0  0  0
M  END
> <IDNUMBER>
SB71-0218

> <available>
28

> <H_acceptor>
9

> <H_donor>
0

> <B_rotN>
4

> <N_O>
8

> <logP>
1.5471

> <logD>
1.5471

> <logSw>
-2.4224

> <PSA>
70.264

> <pKa_ma>
20.7697

> <pKa_mb>
-4.4541

> <N_Chirals>
0

> <Name>
[5-(2,3-dihydro-1H-indene-5-sulfonyl)-4,5,6,7-tetrahydropyrazolo[1,5-a]pyrazin-2-yl](morpholin-4-yl)methanone

> <Smile>
O=C(c1nn(CCN(C2)S(c3cc(CCC4)c4cc3)(=O)=O)c2c1)N1CCOCC1

> <Color>
YELLOW

> <Collection>
IC

> <InChI>
InChI=1S/C20H24N4O4S/c25-20(22-8-10-28-11-9-22)19-13-17-14-23(6-7-24(17)21-19)29(26,27)18-5-4-15-2-1-3-16(15)12-18/h4-5,12-13H,1-3,6-11,14H2

> <InChI Key>
RZPGQJIOWYYXPT-UHFFFAOYSA-N

> <PERCENTSP3>
50

> <Link>
https://www.chemdiv.com/catalog/screening-compounds/compound-SB71-0218/

> <MFCDNUMBER>
MFCD32249599

> <CLNUMBER>
CM5543

> <STEREO>
ACHIRAL

> <State>
Solid

> <Similarity score>
0.28

$$$$
5-(5-methoxy-1H-indole-2-carbonyl)-N,N-dimethyl-4,5,6,7-tetrahydropyrazolo[1,5-a
  -OEChem-04222410502D

 27 30  0     0  0  0  0  0  0999 V2000
    3.1937    1.1770    0.0000 C   0  0  0  0  0  0  0  0  0  0  0  0
    3.5978    0.2603    0.0000 N   0  0  0  0  0  0  0  0  0  0  0  0
   -0.6104   -1.4064    0.0000 C   0  0  0  0  0  0  0  0  0  0  0  0
    1.9897    0.0936    0.0000 C   0  0  0  0  0  0  0  0  0  0  0  0
    2.8564   -0.4062    0.0000 N   0  0  0  0  0  0  0  0  0  0  0  0
    2.1979    1.0728    0.0000 C   0  0  0  0  0  0  0  0  0  0  0  0
    1.1228   -1.4064    0.0000 N   0  0  0  0  0  0  0  0  0  0  0  0
    0.2563   -1.9063    0.0000 C   0  0  0  0  0  0  0  0  0  0  0  0
   -0.7146   -0.4147    0.0000 N   0  0  0  0  0  0  0  0  0  0  0  0
    3.6937    2.0437    0.0000 C   0  0  0  0  0  0  0  0  0  0  0  0
   -1.5229   -1.8146    0.0000 C   0  0  0  0  0  0  0  0  0  0  0  0
   -2.1939   -1.0728    0.0000 C   0  0  0  0  0  0  0  0  0  0  0  0
    1.1228   -0.4062    0.0000 C   0  0  0  0  0  0  0  0  0  0  0  0
   -1.6936   -0.2065    0.0000 C   0  0  0  0  0  0  0  0  0  0  0  0
    2.8564   -1.4064    0.0000 C   0  0  0  0  0  0  0  0  0  0  0  0
    1.9897   -1.9063    0.0000 C   0  0  0  0  0  0  0  0  0  0  0  0
    4.6937    2.0437    0.0000 N   0  0  0  0  0  0  0  0  0  0  0  0
    0.2563   -2.9062    0.0000 O   0  0  0  0  0  0  0  0  0  0  0  0
    3.1937    2.9062    0.0000 O   0  0  0  0  0  0  0  0  0  0  0  0
   -3.1937   -1.0728    0.0000 C   0  0  0  0  0  0  0  0  0  0  0  0
   -2.1939    0.6603    0.0000 C   0  0  0  0  0  0  0  0  0  0  0  0
   -3.6937   -0.2065    0.0000 C   0  0  0  0  0  0  0  0  0  0  0  0
   -3.1937    0.6603    0.0000 C   0  0  0  0  0  0  0  0  0  0  0  0
   -4.6938   -0.2065    0.0000 O   0  0  0  0  0  0  0  0  0  0  0  0
    5.1937    1.1770    0.0000 C   0  0  0  0  0  0  0  0  0  0  0  0
    5.1937    2.9062    0.0000 C   0  0  0  0  0  0  0  0  0  0  0  0
   -5.1937    0.6603    0.0000 C   0  0  0  0  0  0  0  0  0  0  0  0
  1  2  2  0  0  0  0
  3  8  1  0  0  0  0
  4  6  2  0  0  0  0
  4  5  1  0  0  0  0
  2  5  1  0  0  0  0
  1  6  1  0  0  0  0
  7 13  1  0  0  0  0
  7  8  1  0  0  0  0
  3  9  1  0  0  0  0
  1 10  1  0  0  0  0
  3 11  2  0  0  0  0
 11 12  1  0  0  0  0
 12 14  1  0  0  0  0
  4 13  1  0  0  0  0
  9 14  1  0  0  0  0
  5 15  1  0  0  0  0
 15 16  1  0  0  0  0
  7 16  1  0  0  0  0
 10 17  1  0  0  0  0
  8 18  2  0  0  0  0
 10 19  2  0  0  0  0
 12 20  2  0  0  0  0
 14 21  2  0  0  0  0
 20 22  1  0  0  0  0
 22 23  2  0  0  0  0
 21 23  1  0  0  0  0
 22 24  1  0  0  0  0
 17 25  1  0  0  0  0
 17 26  1  0  0  0  0
 24 27  1  0  0  0  0
M  END
> <IDNUMBER>
SB71-0072

> <available>
254

> <H_acceptor>
6

> <H_donor>
1

> <B_rotN>
5

> <N_O>
8

> <logP>
0.9141

> <logD>
0.9141

> <logSw>
-2.3831

> <PSA>
63.251

> <pKa_ma>
15.1542

> <pKa_mb>
-2.791

> <N_Chirals>
0

> <Name>
5-(5-methoxy-1H-indole-2-carbonyl)-N,N-dimethyl-4,5,6,7-tetrahydropyrazolo[1,5-a]pyrazine-2-carboxamide

> <Smile>
CN(C)C(c1nn(CCN(C2)C(c3cc(cc(cc4)OC)c4[nH]3)=O)c2c1)=O

> <Color>
BROWN

> <Collection>
IC

> <InChI>
InChI=1S/C19H21N5O3/c1-22(2)18(25)17-10-13-11-23(6-7-24(13)21-17)19(26)16-9-12-8-14(27-3)4-5-15(12)20-16/h4-5,8-10,20H,6-7,11H2,1-3H3

> <InChI Key>
GFRPNJFMBFCEDK-UHFFFAOYSA-N

> <PERCENTSP3>
31.58

> <Link>
https://www.chemdiv.com/catalog/screening-compounds/compound-SB71-0072/

> <MFCDNUMBER>
MFCD32249251

> <CLNUMBER>
CM5543

> <STEREO>
ACHIRAL

> <State>
Solid

> <Similarity score>
0.28

$$$$
(3,4-dihydroisoquinolin-2(1H)-yl){5-[(6-methoxypyridin-2-yl)methyl]-4,5,6,7-tetr
  -OEChem-04222410502D

 30 34  0     0  0  0  0  0  0999 V2000
    1.1295    0.2437    0.0000 C   0  0  0  0  0  0  0  0  0  0  0  0
    1.5380   -0.6731    0.0000 N   0  0  0  0  0  0  0  0  0  0  0  0
    0.7961   -1.3400    0.0000 N   0  0  0  0  0  0  0  0  0  0  0  0
   -0.0709   -0.8400    0.0000 C   0  0  0  0  0  0  0  0  0  0  0  0
    0.1376    0.1397    0.0000 C   0  0  0  0  0  0  0  0  0  0  0  0
    1.6297    1.1107    0.0000 C   0  0  0  0  0  0  0  0  0  0  0  0
    2.6301    1.1107    0.0000 N   0  0  0  0  0  0  0  0  0  0  0  0
   -0.9379   -2.3404    0.0000 N   0  0  0  0  0  0  0  0  0  0  0  0
    3.1302    1.9735    0.0000 C   0  0  0  0  0  0  0  0  0  0  0  0
   -3.5387   -2.8405    0.0000 N   0  0  0  0  0  0  0  0  0  0  0  0
   -0.9379   -1.3400    0.0000 C   0  0  0  0  0  0  0  0  0  0  0  0
    0.7961   -2.3404    0.0000 C   0  0  0  0  0  0  0  0  0  0  0  0
    4.1305    1.9735    0.0000 C   0  0  0  0  0  0  0  0  0  0  0  0
    3.1302    0.2437    0.0000 C   0  0  0  0  0  0  0  0  0  0  0  0
   -4.4056   -2.3404    0.0000 C   0  0  0  0  0  0  0  0  0  0  0  0
    1.1295    1.9735    0.0000 O   0  0  0  0  0  0  0  0  0  0  0  0
   -2.6717   -2.3404    0.0000 C   0  0  0  0  0  0  0  0  0  0  0  0
    4.6308    1.1107    0.0000 C   0  0  0  0  0  0  0  0  0  0  0  0
   -1.8049   -2.8405    0.0000 C   0  0  0  0  0  0  0  0  0  0  0  0
   -0.0709   -2.8405    0.0000 C   0  0  0  0  0  0  0  0  0  0  0  0
    4.1305    0.2437    0.0000 C   0  0  0  0  0  0  0  0  0  0  0  0
   -5.2684   -2.8405    0.0000 O   0  0  0  0  0  0  0  0  0  0  0  0
   -3.5387   -0.8400    0.0000 C   0  0  0  0  0  0  0  0  0  0  0  0
   -4.4056   -1.3400    0.0000 C   0  0  0  0  0  0  0  0  0  0  0  0
    4.6308    2.8405    0.0000 C   0  0  0  0  0  0  0  0  0  0  0  0
   -2.6717   -1.3400    0.0000 C   0  0  0  0  0  0  0  0  0  0  0  0
    5.6311    1.1107    0.0000 C   0  0  0  0  0  0  0  0  0  0  0  0
   -6.1312   -2.3404    0.0000 C   0  0  0  0  0  0  0  0  0  0  0  0
    5.6311    2.8405    0.0000 C   0  0  0  0  0  0  0  0  0  0  0  0
    6.1312    1.9735    0.0000 C   0  0  0  0  0  0  0  0  0  0  0  0
  1  2  2  0  0  0  0
  2  3  1  0  0  0  0
  4  5  2  0  0  0  0
  3  4  1  0  0  0  0
  1  5  1  0  0  0  0
  1  6  1  0  0  0  0
  6  7  1  0  0  0  0
  8 11  1  0  0  0  0
  7  9  1  0  0  0  0
 10 17  2  0  0  0  0
  4 11  1  0  0  0  0
  3 12  1  0  0  0  0
  9 13  1  0  0  0  0
  7 14  1  0  0  0  0
 10 15  1  0  0  0  0
 15 24  2  0  0  0  0
  6 16  2  0  0  0  0
 17 19  1  0  0  0  0
 18 21  1  0  0  0  0
 13 18  2  0  0  0  0
  8 19  1  0  0  0  0
 12 20  1  0  0  0  0
  8 20  1  0  0  0  0
 14 21  1  0  0  0  0
 15 22  1  0  0  0  0
 23 26  2  0  0  0  0
 23 24  1  0  0  0  0
 13 25  1  0  0  0  0
 17 26  1  0  0  0  0
 18 27  1  0  0  0  0
 22 28  1  0  0  0  0
 25 29  2  0  0  0  0
 27 30  2  0  0  0  0
 29 30  1  0  0  0  0
M  END
> <IDNUMBER>
SB71-0422

> <available>
25

> <H_acceptor>
6

> <H_donor>
0

> <B_rotN>
5

> <N_O>
7

> <logP>
2.63

> <logD>
2.5194

> <logSw>
-2.8174

> <PSA>
50.307

> <pKa_ma>
25.6071

> <pKa_mb>
6.8625

> <N_Chirals>
0

> <Name>
(3,4-dihydroisoquinolin-2(1H)-yl){5-[(6-methoxypyridin-2-yl)methyl]-4,5,6,7-tetrahydropyrazolo[1,5-a]pyrazin-2-yl}methanone

> <Smile>
COc1cccc(CN2Cc3cc(C(N(CC4)Cc5c4cccc5)=O)nn3CC2)n1

> <Color>
YELLOW

> <Collection>
IC

> <InChI>
InChI=1S/C23H25N5O2/c1-30-22-8-4-7-19(24-22)15-26-11-12-28-20(16-26)13-21(25-28)23(29)27-10-9-17-5-2-3-6-18(17)14-27/h2-8,13H,9-12,14-16H2,1H3

> <InChI Key>
VYSHKRCGYDIPJQ-UHFFFAOYSA-N

> <PERCENTSP3>
34.78

> <Link>
https://www.chemdiv.com/catalog/screening-compounds/compound-SB71-0422/

> <MFCDNUMBER>
MFCD32249601

> <CLNUMBER>
CM5543

> <STEREO>
ACHIRAL

> <State>
Oil

> <Similarity score>
0.28

$$$$
5-(3-fluoro-4-methoxybenzoyl)-N,N-dimethyl-4,5,6,7-tetrahydropyrazolo[1,5-a]pyra
  -OEChem-04222410502D

 25 27  0     0  0  0  0  0  0999 V2000
    2.6326   -1.1777    0.0000 C   0  0  0  0  0  0  0  0  0  0  0  0
    3.0411   -0.2605    0.0000 N   0  0  0  0  0  0  0  0  0  0  0  0
    1.4321   -0.0937    0.0000 C   0  0  0  0  0  0  0  0  0  0  0  0
    2.2949    0.4065    0.0000 N   0  0  0  0  0  0  0  0  0  0  0  0
    1.6403   -1.0692    0.0000 C   0  0  0  0  0  0  0  0  0  0  0  0
    0.5649    1.4069    0.0000 N   0  0  0  0  0  0  0  0  0  0  0  0
    3.1327   -2.0405    0.0000 C   0  0  0  0  0  0  0  0  0  0  0  0
   -0.3023    1.9073    0.0000 C   0  0  0  0  0  0  0  0  0  0  0  0
    0.5649    0.4065    0.0000 C   0  0  0  0  0  0  0  0  0  0  0  0
   -1.1693    1.4069    0.0000 C   0  0  0  0  0  0  0  0  0  0  0  0
    2.2949    1.4069    0.0000 C   0  0  0  0  0  0  0  0  0  0  0  0
   -2.0365    1.9073    0.0000 C   0  0  0  0  0  0  0  0  0  0  0  0
   -2.8993    1.4069    0.0000 C   0  0  0  0  0  0  0  0  0  0  0  0
    1.4321    1.9073    0.0000 C   0  0  0  0  0  0  0  0  0  0  0  0
    4.1332   -2.0405    0.0000 N   0  0  0  0  0  0  0  0  0  0  0  0
    2.6326   -2.9077    0.0000 O   0  0  0  0  0  0  0  0  0  0  0  0
   -0.3023    2.9077    0.0000 O   0  0  0  0  0  0  0  0  0  0  0  0
   -2.8993    0.4065    0.0000 C   0  0  0  0  0  0  0  0  0  0  0  0
   -1.1693    0.4065    0.0000 C   0  0  0  0  0  0  0  0  0  0  0  0
   -2.0365   -0.0937    0.0000 C   0  0  0  0  0  0  0  0  0  0  0  0
   -3.7665    1.9073    0.0000 F   0  0  0  0  0  0  0  0  0  0  0  0
   -3.7665   -0.0937    0.0000 O   0  0  0  0  0  0  0  0  0  0  0  0
    4.6336   -1.1777    0.0000 C   0  0  0  0  0  0  0  0  0  0  0  0
    4.6336   -2.9077    0.0000 C   0  0  0  0  0  0  0  0  0  0  0  0
   -4.6336    0.4065    0.0000 C   0  0  0  0  0  0  0  0  0  0  0  0
  1  2  2  0  0  0  0
  3  5  2  0  0  0  0
  3  4  1  0  0  0  0
  2  4  1  0  0  0  0
  1  5  1  0  0  0  0
  6  9  1  0  0  0  0
  1  7  1  0  0  0  0
  6  8  1  0  0  0  0
  3  9  1  0  0  0  0
  8 10  1  0  0  0  0
  4 11  1  0  0  0  0
 10 12  2  0  0  0  0
 12 13  1  0  0  0  0
 13 18  2  0  0  0  0
 11 14  1  0  0  0  0
  6 14  1  0  0  0  0
  7 15  1  0  0  0  0
  7 16  2  0  0  0  0
  8 17  2  0  0  0  0
 18 20  1  0  0  0  0
 10 19  1  0  0  0  0
 19 20  2  0  0  0  0
 13 21  1  0  0  0  0
 18 22  1  0  0  0  0
 15 23  1  0  0  0  0
 15 24  1  0  0  0  0
 22 25  1  0  0  0  0
M  END
> <IDNUMBER>
SB71-0099

> <available>
87

> <H_acceptor>
6

> <H_donor>
0

> <B_rotN>
5

> <N_O>
7

> <logP>
0.0726

> <logD>
0.0726

> <logSw>
-1.6289

> <PSA>
53.989

> <pKa_ma>
25.9791

> <pKa_mb>
-2.791

> <N_Chirals>
0

> <Name>
5-(3-fluoro-4-methoxybenzoyl)-N,N-dimethyl-4,5,6,7-tetrahydropyrazolo[1,5-a]pyrazine-2-carboxamide

> <Smile>
CN(C)C(c1nn(CCN(C2)C(c(cc3)cc(F)c3OC)=O)c2c1)=O

> <Color>
NOT COLORED

> <Collection>
IC

> <InChI>
InChI=1S/C17H19FN4O3/c1-20(2)17(24)14-9-12-10-21(6-7-22(12)19-14)16(23)11-4-5-15(25-3)13(18)8-11/h4-5,8-9H,6-7,10H2,1-3H3

> <InChI Key>
VOEUUTJFGGVTTP-UHFFFAOYSA-N

> <PERCENTSP3>
35.29

> <Link>
https://www.chemdiv.com/catalog/screening-compounds/compound-SB71-0099/

> <MFCDNUMBER>
MFCD32249287

> <CLNUMBER>
CM5543

> <STEREO>
ACHIRAL

> <State>
Solid

> <Similarity score>
0.28

$$$$
N,N-dimethyl-5-(quinoline-8-sulfonyl)-4,5,6,7-tetrahydropyrazolo[1,5-a]pyrazine-
  -OEChem-04222410502D

 27 30  0     0  0  0  0  0  0999 V2000
    1.4063   -1.1021    0.0000 S   0  0  0  0  0  0  0  0  0  0  0  0
   -2.6771    0.1020    0.0000 C   0  0  0  0  0  0  0  0  0  0  0  0
    0.4063   -1.1021    0.0000 N   0  0  0  0  0  0  0  0  0  0  0  0
   -2.5687   -0.8938    0.0000 N   0  0  0  0  0  0  0  0  0  0  0  0
    2.4062   -1.1021    0.0000 C   0  0  0  0  0  0  0  0  0  0  0  0
   -1.0937   -0.2355    0.0000 C   0  0  0  0  0  0  0  0  0  0  0  0
   -1.5938   -1.1021    0.0000 N   0  0  0  0  0  0  0  0  0  0  0  0
   -1.7604    0.5063    0.0000 C   0  0  0  0  0  0  0  0  0  0  0  0
   -3.5396    0.6021    0.0000 C   0  0  0  0  0  0  0  0  0  0  0  0
   -0.0936   -0.2355    0.0000 C   0  0  0  0  0  0  0  0  0  0  0  0
    2.9063   -0.2355    0.0000 C   0  0  0  0  0  0  0  0  0  0  0  0
   -0.0936   -1.9688    0.0000 C   0  0  0  0  0  0  0  0  0  0  0  0
   -1.0937   -1.9688    0.0000 C   0  0  0  0  0  0  0  0  0  0  0  0
    1.4063   -0.1020    0.0000 O   0  0  0  0  0  0  0  0  0  0  0  0
    1.4063   -2.1021    0.0000 O   0  0  0  0  0  0  0  0  0  0  0  0
   -3.5396    1.6022    0.0000 N   0  0  0  0  0  0  0  0  0  0  0  0
    2.4062    0.6312    0.0000 N   0  0  0  0  0  0  0  0  0  0  0  0
   -4.4063    0.1020    0.0000 O   0  0  0  0  0  0  0  0  0  0  0  0
    3.9064   -0.2355    0.0000 C   0  0  0  0  0  0  0  0  0  0  0  0
    2.9063   -1.9688    0.0000 C   0  0  0  0  0  0  0  0  0  0  0  0
    3.9064   -1.9688    0.0000 C   0  0  0  0  0  0  0  0  0  0  0  0
    2.9063    1.4980    0.0000 C   0  0  0  0  0  0  0  0  0  0  0  0
   -2.6771    2.1021    0.0000 C   0  0  0  0  0  0  0  0  0  0  0  0
   -4.4063    2.1021    0.0000 C   0  0  0  0  0  0  0  0  0  0  0  0
    4.4063   -1.1021    0.0000 C   0  0  0  0  0  0  0  0  0  0  0  0
    4.4063    0.6312    0.0000 C   0  0  0  0  0  0  0  0  0  0  0  0
    3.9064    1.4980    0.0000 C   0  0  0  0  0  0  0  0  0  0  0  0
  2  8  1  0  0  0  0
  2  4  2  0  0  0  0
  1  3  1  0  0  0  0
  4  7  1  0  0  0  0
  1  5  1  0  0  0  0
  6 10  1  0  0  0  0
  6  7  1  0  0  0  0
  7 13  1  0  0  0  0
  6  8  2  0  0  0  0
  2  9  1  0  0  0  0
  3 10  1  0  0  0  0
  5 11  2  0  0  0  0
  3 12  1  0  0  0  0
 12 13  1  0  0  0  0
  1 14  2  0  0  0  0
  1 15  2  0  0  0  0
  9 16  1  0  0  0  0
 11 17  1  0  0  0  0
  9 18  2  0  0  0  0
 11 19  1  0  0  0  0
  5 20  1  0  0  0  0
 20 21  2  0  0  0  0
 17 22  2  0  0  0  0
 16 23  1  0  0  0  0
 16 24  1  0  0  0  0
 21 25  1  0  0  0  0
 19 25  2  0  0  0  0
 19 26  1  0  0  0  0
 26 27  2  0  0  0  0
 22 27  1  0  0  0  0
M  END
> <IDNUMBER>
SB71-0012

> <available>
49

> <H_acceptor>
9

> <H_donor>
0

> <B_rotN>
4

> <N_O>
8

> <logP>
0.0151

> <logD>
0.0151

> <logSw>
-2.2109

> <PSA>
70.954

> <pKa_ma>
26.1583

> <pKa_mb>
-1.0439

> <N_Chirals>
0

> <Name>
N,N-dimethyl-5-(quinoline-8-sulfonyl)-4,5,6,7-tetrahydropyrazolo[1,5-a]pyrazine-2-carboxamide

> <Smile>
CN(C)C(c1nn(CCN(C2)S(c3cccc4cccnc34)(=O)=O)c2c1)=O

> <Color>
NOT COLORED

> <Collection>
IC

> <InChI>
InChI=1S/C18H19N5O3S/c1-21(2)18(24)15-11-14-12-22(9-10-23(14)20-15)27(25,26)16-7-3-5-13-6-4-8-19-17(13)16/h3-8,11H,9-10,12H2,1-2H3

> <InChI Key>
QEFTWXALMPTCDU-UHFFFAOYSA-N

> <PERCENTSP3>
27.78

> <Link>
https://www.chemdiv.com/catalog/screening-compounds/compound-SB71-0012/

> <MFCDNUMBER>
MFCD32249626

> <CLNUMBER>
CM5543

> <STEREO>
ACHIRAL

> <State>
Solid

> <Similarity score>
0.28

$$$$
5-[(5-methoxy-1H-indol-3-yl)methyl]-N-(propan-2-yl)-4,5,6,7-tetrahydropyrazolo[1
  -OEChem-04222410502D

 27 30  0     0  0  0  0  0  0999 V2000
    1.2144    0.2770    0.0000 C   0  0  0  0  0  0  0  0  0  0  0  0
    1.3186   -0.7187    0.0000 N   0  0  0  0  0  0  0  0  0  0  0  0
    0.4021   -1.1228    0.0000 N   0  0  0  0  0  0  0  0  0  0  0  0
   -0.2646   -0.3814    0.0000 C   0  0  0  0  0  0  0  0  0  0  0  0
    0.2353    0.4852    0.0000 C   0  0  0  0  0  0  0  0  0  0  0  0
   -3.1976   -1.0062    0.0000 C   0  0  0  0  0  0  0  0  0  0  0  0
    1.9561    0.9435    0.0000 C   0  0  0  0  0  0  0  0  0  0  0  0
   -2.9933   -0.0272    0.0000 C   0  0  0  0  0  0  0  0  0  0  0  0
   -4.6016   -0.1980    0.0000 N   0  0  0  0  0  0  0  0  0  0  0  0
   -4.1933   -1.1103    0.0000 C   0  0  0  0  0  0  0  0  0  0  0  0
   -1.5519   -1.5395    0.0000 N   0  0  0  0  0  0  0  0  0  0  0  0
   -1.2436   -0.5896    0.0000 C   0  0  0  0  0  0  0  0  0  0  0  0
   -2.5310   -1.7479    0.0000 C   0  0  0  0  0  0  0  0  0  0  0  0
   -3.8558    0.4727    0.0000 C   0  0  0  0  0  0  0  0  0  0  0  0
    2.9059    0.6353    0.0000 N   0  0  0  0  0  0  0  0  0  0  0  0
    0.0938   -2.0769    0.0000 C   0  0  0  0  0  0  0  0  0  0  0  0
   -2.1268    0.4727    0.0000 C   0  0  0  0  0  0  0  0  0  0  0  0
    1.7477    1.9226    0.0000 O   0  0  0  0  0  0  0  0  0  0  0  0
   -0.8811   -2.2851    0.0000 C   0  0  0  0  0  0  0  0  0  0  0  0
   -3.8558    1.4728    0.0000 C   0  0  0  0  0  0  0  0  0  0  0  0
   -2.1268    1.4728    0.0000 C   0  0  0  0  0  0  0  0  0  0  0  0
   -2.9933    1.9726    0.0000 C   0  0  0  0  0  0  0  0  0  0  0  0
    3.6516    1.3060    0.0000 C   0  0  0  0  0  0  0  0  0  0  0  0
   -1.2602    1.9726    0.0000 O   0  0  0  0  0  0  0  0  0  0  0  0
   -0.3937    1.4728    0.0000 C   0  0  0  0  0  0  0  0  0  0  0  0
    4.6016    0.9977    0.0000 C   0  0  0  0  0  0  0  0  0  0  0  0
    3.4434    2.2851    0.0000 C   0  0  0  0  0  0  0  0  0  0  0  0
  1  2  2  0  0  0  0
  2  3  1  0  0  0  0
  4  5  2  0  0  0  0
  3  4  1  0  0  0  0
  1  5  1  0  0  0  0
  6 13  1  0  0  0  0
  1  7  1  0  0  0  0
  6  8  1  0  0  0  0
  9 10  1  0  0  0  0
  6 10  2  0  0  0  0
 11 12  1  0  0  0  0
  4 12  1  0  0  0  0
 11 13  1  0  0  0  0
  8 14  2  0  0  0  0
  9 14  1  0  0  0  0
  7 15  1  0  0  0  0
  3 16  1  0  0  0  0
  8 17  1  0  0  0  0
  7 18  2  0  0  0  0
 16 19  1  0  0  0  0
 11 19  1  0  0  0  0
 14 20  1  0  0  0  0
 20 22  2  0  0  0  0
 17 21  2  0  0  0  0
 21 22  1  0  0  0  0
 15 23  1  0  0  0  0
 21 24  1  0  0  0  0
 24 25  1  0  0  0  0
 23 26  1  0  0  0  0
 23 27  1  0  0  0  0
M  END
> <IDNUMBER>
SB71-0618

> <available>
10

> <H_acceptor>
5

> <H_donor>
2

> <B_rotN>
6

> <N_O>
7

> <logP>
1.8615

> <logD>
1.6327

> <logSw>
-2.5773

> <PSA>
58.515

> <pKa_ma>
14.8713

> <pKa_mb>
7.241

> <N_Chirals>
0

> <Name>
5-[(5-methoxy-1H-indol-3-yl)methyl]-N-(propan-2-yl)-4,5,6,7-tetrahydropyrazolo[1,5-a]pyrazine-2-carboxamide

> <Smile>
CC(C)NC(c1nn(CCN(Cc2c[nH]c(cc3)c2cc3OC)C2)c2c1)=O

> <Color>
BROWN

> <Collection>
IC

> <InChI>
InChI=1S/C20H25N5O2/c1-13(2)22-20(26)19-8-15-12-24(6-7-25(15)23-19)11-14-10-21-18-5-4-16(27-3)9-17(14)18/h4-5,8-10,13,21H,6-7,11-12H2,1-3H3,(H,22,26)

> <InChI Key>
ZQQGDISQWMCCFW-UHFFFAOYSA-N

> <PERCENTSP3>
40

> <Link>
https://www.chemdiv.com/catalog/screening-compounds/compound-SB71-0618/

> <MFCDNUMBER>
MFCD32249304

> <CLNUMBER>
CM5543

> <STEREO>
ACHIRAL

> <State>
Solid

> <Similarity score>
0.28

$$$$
5-cyclohexyl-N,N-dimethyl-4,5,6,7-tetrahydropyrazolo[1,5-a]pyrazine-2-carboxamid
  -OEChem-04222410502D

 20 22  0     0  0  0  0  0  0999 V2000
    1.6854   -0.3855    0.0000 C   0  0  0  0  0  0  0  0  0  0  0  0
    1.0979   -1.1938    0.0000 N   0  0  0  0  0  0  0  0  0  0  0  0
    0.1437    0.1146    0.0000 C   0  0  0  0  0  0  0  0  0  0  0  0
    0.1437   -0.8854    0.0000 N   0  0  0  0  0  0  0  0  0  0  0  0
    1.0979    0.4229    0.0000 C   0  0  0  0  0  0  0  0  0  0  0  0
    2.6854   -0.3855    0.0000 C   0  0  0  0  0  0  0  0  0  0  0  0
   -1.5854    0.1146    0.0000 N   0  0  3  0  0  0  0  0  0  0  0  0
   -0.7187    0.6147    0.0000 C   0  0  0  0  0  0  0  0  0  0  0  0
   -0.7187   -1.3854    0.0000 C   0  0  0  0  0  0  0  0  0  0  0  0
    3.1854   -1.2479    0.0000 N   0  0  0  0  0  0  0  0  0  0  0  0
   -1.5854   -0.8854    0.0000 C   0  0  0  0  0  0  0  0  0  0  0  0
    3.1854    0.4812    0.0000 O   0  0  0  0  0  0  0  0  0  0  0  0
   -2.4520    0.6147    0.0000 C   0  0  0  0  0  0  0  0  0  0  0  0
    2.6854   -2.1146    0.0000 C   0  0  0  0  0  0  0  0  0  0  0  0
    4.1855   -1.2479    0.0000 C   0  0  0  0  0  0  0  0  0  0  0  0
   -2.4520    1.6145    0.0000 C   0  0  0  0  0  0  0  0  0  0  0  0
   -3.3188    0.1146    0.0000 C   0  0  0  0  0  0  0  0  0  0  0  0
   -4.1855    0.6147    0.0000 C   0  0  0  0  0  0  0  0  0  0  0  0
   -3.3188    2.1146    0.0000 C   0  0  0  0  0  0  0  0  0  0  0  0
   -4.1855    1.6145    0.0000 C   0  0  0  0  0  0  0  0  0  0  0  0
  1  2  2  0  0  0  0
  3  5  2  0  0  0  0
  3  4  1  0  0  0  0
  2  4  1  0  0  0  0
  1  5  1  0  0  0  0
  1  6  1  0  0  0  0
  7  8  1  0  0  0  0
  3  8  1  0  0  0  0
  4  9  1  0  0  0  0
  6 10  1  0  0  0  0
  9 11  1  0  0  0  0
  7 11  1  0  0  0  0
  6 12  2  0  0  0  0
  7 13  1  0  0  0  0
 10 14  1  0  0  0  0
 10 15  1  0  0  0  0
 13 16  1  0  0  0  0
 13 17  1  0  0  0  0
 17 18  1  0  0  0  0
 16 19  1  0  0  0  0
 18 20  1  0  0  0  0
 19 20  1  0  0  0  0
M  END
> <IDNUMBER>
SB71-0061

> <available>
18

> <H_acceptor>
4

> <H_donor>
0

> <B_rotN>
3

> <N_O>
5

> <logP>
0.7883

> <logD>
0.564

> <logSw>
-0.868

> <PSA>
32.995

> <pKa_ma>
27.6275

> <pKa_mb>
7.2301

> <N_Chirals>
0

> <Name>
5-cyclohexyl-N,N-dimethyl-4,5,6,7-tetrahydropyrazolo[1,5-a]pyrazine-2-carboxamide

> <Smile>
CN(C)C(c1nn(CCN(C2)C3CCCCC3)c2c1)=O

> <Color>
ORANGE

> <Collection>
IC

> <InChI>
InChI=1S/C15H24N4O/c1-17(2)15(20)14-10-13-11-18(8-9-19(13)16-14)12-6-4-3-5-7-12/h10,12H,3-9,11H2,1-2H3

> <InChI Key>
UVCRNWKEVNIYJH-UHFFFAOYSA-N

> <PERCENTSP3>
73.33

> <Link>
https://www.chemdiv.com/catalog/screening-compounds/compound-SB71-0061/

> <MFCDNUMBER>
MFCD32249221

> <CLNUMBER>
CM5543

> <STEREO>
ACHIRAL

> <State>
Solid

> <Similarity score>
0.28

$$$$
(pyrrolidin-1-yl)[5-(5,6,7,8-tetrahydronaphthalene-2-sulfonyl)-4,5,6,7-tetrahydr
  -OEChem-04222410502D

 29 33  0     0  0  0  0  0  0999 V2000
   -0.6566   -1.6193    0.0000 S   0  0  0  0  0  0  0  0  0  0  0  0
    3.4284   -0.4190    0.0000 C   0  0  0  0  0  0  0  0  0  0  0  0
    3.3241   -1.4152    0.0000 N   0  0  0  0  0  0  0  0  0  0  0  0
    0.3438   -1.6193    0.0000 N   0  0  0  0  0  0  0  0  0  0  0  0
    1.8444   -0.7567    0.0000 C   0  0  0  0  0  0  0  0  0  0  0  0
    2.3447   -1.6193    0.0000 N   0  0  0  0  0  0  0  0  0  0  0  0
    2.5112   -0.0102    0.0000 C   0  0  0  0  0  0  0  0  0  0  0  0
    4.2913    0.0814    0.0000 C   0  0  0  0  0  0  0  0  0  0  0  0
    0.8440   -0.7567    0.0000 C   0  0  0  0  0  0  0  0  0  0  0  0
   -1.6570   -1.6193    0.0000 C   0  0  0  0  0  0  0  0  0  0  0  0
    4.2913    1.0817    0.0000 N   0  0  0  0  0  0  0  0  0  0  0  0
    0.8440   -2.4862    0.0000 C   0  0  0  0  0  0  0  0  0  0  0  0
    1.8444   -2.4862    0.0000 C   0  0  0  0  0  0  0  0  0  0  0  0
   -2.1572   -0.7567    0.0000 C   0  0  0  0  0  0  0  0  0  0  0  0
   -0.6566   -0.6230    0.0000 O   0  0  0  0  0  0  0  0  0  0  0  0
   -0.6566   -2.6198    0.0000 O   0  0  0  0  0  0  0  0  0  0  0  0
   -3.1576   -0.7567    0.0000 C   0  0  0  0  0  0  0  0  0  0  0  0
    5.1584   -0.4190    0.0000 O   0  0  0  0  0  0  0  0  0  0  0  0
   -3.6579   -1.6193    0.0000 C   0  0  0  0  0  0  0  0  0  0  0  0
   -2.1572   -2.4862    0.0000 C   0  0  0  0  0  0  0  0  0  0  0  0
   -3.1576   -2.4862    0.0000 C   0  0  0  0  0  0  0  0  0  0  0  0
    3.4827    1.6694    0.0000 C   0  0  0  0  0  0  0  0  0  0  0  0
    5.1041    1.6694    0.0000 C   0  0  0  0  0  0  0  0  0  0  0  0
   -3.6579    0.1104    0.0000 C   0  0  0  0  0  0  0  0  0  0  0  0
   -4.6582   -1.6193    0.0000 C   0  0  0  0  0  0  0  0  0  0  0  0
    4.7915    2.6198    0.0000 C   0  0  0  0  0  0  0  0  0  0  0  0
    3.7911    2.6198    0.0000 C   0  0  0  0  0  0  0  0  0  0  0  0
   -4.6582    0.1104    0.0000 C   0  0  0  0  0  0  0  0  0  0  0  0
   -5.1584   -0.7567    0.0000 C   0  0  0  0  0  0  0  0  0  0  0  0
  2  7  1  0  0  0  0
  2  3  2  0  0  0  0
  3  6  1  0  0  0  0
  1  4  1  0  0  0  0
  5  9  1  0  0  0  0
  5  6  1  0  0  0  0
  6 13  1  0  0  0  0
  5  7  2  0  0  0  0
  2  8  1  0  0  0  0
  4  9  1  0  0  0  0
  1 10  1  0  0  0  0
  8 11  1  0  0  0  0
  4 12  1  0  0  0  0
 12 13  1  0  0  0  0
 10 14  2  0  0  0  0
  1 15  2  0  0  0  0
  1 16  2  0  0  0  0
 14 17  1  0  0  0  0
 17 19  2  0  0  0  0
  8 18  2  0  0  0  0
 19 21  1  0  0  0  0
 10 20  1  0  0  0  0
 20 21  2  0  0  0  0
 11 22  1  0  0  0  0
 11 23  1  0  0  0  0
 17 24  1  0  0  0  0
 19 25  1  0  0  0  0
 23 26  1  0  0  0  0
 22 27  1  0  0  0  0
 26 27  1  0  0  0  0
 24 28  1  0  0  0  0
 25 29  1  0  0  0  0
 28 29  1  0  0  0  0
M  END
> <IDNUMBER>
SB71-0966

> <available>
144

> <H_acceptor>
8

> <H_donor>
0

> <B_rotN>
4

> <N_O>
7

> <logP>
2.8199

> <logD>
2.8199

> <logSw>
-3.3036

> <PSA>
62.355

> <pKa_ma>
25.4764

> <pKa_mb>
-3.592

> <N_Chirals>
0

> <Name>
(pyrrolidin-1-yl)[5-(5,6,7,8-tetrahydronaphthalene-2-sulfonyl)-4,5,6,7-tetrahydropyrazolo[1,5-a]pyrazin-2-yl]methanone

> <Smile>
O=C(c1nn(CCN(C2)S(c3cc(CCCC4)c4cc3)(=O)=O)c2c1)N1CCCC1

> <Color>
YELLOW

> <Collection>
IC

> <InChI>
InChI=1S/C21H26N4O3S/c26-21(23-9-3-4-10-23)20-14-18-15-24(11-12-25(18)22-20)29(27,28)19-8-7-16-5-1-2-6-17(16)13-19/h7-8,13-14H,1-6,9-12,15H2

> <InChI Key>
GOBVLYHAEKXRME-UHFFFAOYSA-N

> <PERCENTSP3>
52.38

> <Link>
https://www.chemdiv.com/catalog/screening-compounds/compound-SB71-0966/

> <MFCDNUMBER>
MFCD32249462

> <CLNUMBER>
CM5543

> <STEREO>
ACHIRAL

> <State>
Solid

> <Similarity score>
0.27

$$$$
(3,4-dihydroisoquinolin-2(1H)-yl){5-[(1-methyl-1H-pyrazol-4-yl)methyl]-4,5,6,7-t
  -OEChem-04222410502D

 28 32  0     0  0  0  0  0  0999 V2000
   -0.7518   -0.2852    0.0000 C   0  0  0  0  0  0  0  0  0  0  0  0
   -0.6477    0.7102    0.0000 N   0  0  0  0  0  0  0  0  0  0  0  0
    0.3311    0.9185    0.0000 N   0  0  0  0  0  0  0  0  0  0  0  0
    0.8311    0.0520    0.0000 C   0  0  0  0  0  0  0  0  0  0  0  0
    0.1604   -0.6892    0.0000 C   0  0  0  0  0  0  0  0  0  0  0  0
   -1.6180   -0.7850    0.0000 C   0  0  0  0  0  0  0  0  0  0  0  0
   -2.4804   -0.2852    0.0000 N   0  0  0  0  0  0  0  0  0  0  0  0
    3.8301    0.0520    0.0000 C   0  0  0  0  0  0  0  0  0  0  0  0
    4.1673   -1.5307    0.0000 N   0  0  0  0  0  0  0  0  0  0  0  0
    5.0338   -1.0309    0.0000 N   0  0  0  0  0  0  0  0  0  0  0  0
    2.3306    0.9185    0.0000 N   0  0  0  0  0  0  0  0  0  0  0  0
    4.8257   -0.0520    0.0000 C   0  0  0  0  0  0  0  0  0  0  0  0
   -3.3468   -0.7850    0.0000 C   0  0  0  0  0  0  0  0  0  0  0  0
    1.8308    0.0520    0.0000 C   0  0  0  0  0  0  0  0  0  0  0  0
    3.4219   -0.8599    0.0000 C   0  0  0  0  0  0  0  0  0  0  0  0
    0.8311    1.7849    0.0000 C   0  0  0  0  0  0  0  0  0  0  0  0
   -4.2132   -0.2852    0.0000 C   0  0  0  0  0  0  0  0  0  0  0  0
    3.3303    0.9185    0.0000 C   0  0  0  0  0  0  0  0  0  0  0  0
   -2.4804    0.7144    0.0000 C   0  0  0  0  0  0  0  0  0  0  0  0
   -1.6180   -1.7849    0.0000 O   0  0  0  0  0  0  0  0  0  0  0  0
   -4.2132    0.7144    0.0000 C   0  0  0  0  0  0  0  0  0  0  0  0
    1.8308    1.7849    0.0000 C   0  0  0  0  0  0  0  0  0  0  0  0
   -3.3468    1.2143    0.0000 C   0  0  0  0  0  0  0  0  0  0  0  0
    5.9459   -1.4391    0.0000 C   0  0  0  0  0  0  0  0  0  0  0  0
   -5.0795   -0.7850    0.0000 C   0  0  0  0  0  0  0  0  0  0  0  0
   -5.0795    1.2143    0.0000 C   0  0  0  0  0  0  0  0  0  0  0  0
   -5.9459   -0.2852    0.0000 C   0  0  0  0  0  0  0  0  0  0  0  0
   -5.9459    0.7144    0.0000 C   0  0  0  0  0  0  0  0  0  0  0  0
  1  2  2  0  0  0  0
  2  3  1  0  0  0  0
  4  5  2  0  0  0  0
  3  4  1  0  0  0  0
  1  5  1  0  0  0  0
  1  6  1  0  0  0  0
  6  7  1  0  0  0  0
  8 18  1  0  0  0  0
  9 15  2  0  0  0  0
  9 10  1  0  0  0  0
 10 12  1  0  0  0  0
 11 14  1  0  0  0  0
  8 12  2  0  0  0  0
  7 13  1  0  0  0  0
  4 14  1  0  0  0  0
  8 15  1  0  0  0  0
  3 16  1  0  0  0  0
 13 17  1  0  0  0  0
 11 18  1  0  0  0  0
  7 19  1  0  0  0  0
  6 20  2  0  0  0  0
 21 23  1  0  0  0  0
 17 21  2  0  0  0  0
 16 22  1  0  0  0  0
 11 22  1  0  0  0  0
 19 23  1  0  0  0  0
 10 24  1  0  0  0  0
 17 25  1  0  0  0  0
 21 26  1  0  0  0  0
 25 27  2  0  0  0  0
 26 28  2  0  0  0  0
 27 28  1  0  0  0  0
M  END
> <IDNUMBER>
SB71-0486

> <available>
50

> <H_acceptor>
5

> <H_donor>
0

> <B_rotN>
4

> <N_O>
7

> <logP>
1.0196

> <logD>
-1.6409

> <logSw>
-1.9406

> <PSA>
48.561

> <pKa_ma>
24.5979

> <pKa_mb>
10.0595

> <N_Chirals>
0

> <Name>
(3,4-dihydroisoquinolin-2(1H)-yl){5-[(1-methyl-1H-pyrazol-4-yl)methyl]-4,5,6,7-tetrahydropyrazolo[1,5-a]pyrazin-2-yl}methanone

> <Smile>
Cn1ncc(CN2Cc3cc(C(N(CC4)Cc5c4cccc5)=O)nn3CC2)c1

> <Color>
YELLOW

> <Collection>
IC

> <InChI>
InChI=1S/C21H24N6O/c1-24-12-16(11-22-24)13-25-8-9-27-19(15-25)10-20(23-27)21(28)26-7-6-17-4-2-3-5-18(17)14-26/h2-5,10-12H,6-9,13-15H2,1H3

> <InChI Key>
KCBNNECTERGJIS-UHFFFAOYSA-N

> <PERCENTSP3>
38.1

> <Link>
https://www.chemdiv.com/catalog/screening-compounds/compound-SB71-0486/

> <MFCDNUMBER>
MFCD32249238

> <CLNUMBER>
CM5543

> <STEREO>
ACHIRAL

> <State>
Solid

> <Similarity score>
0.27

$$$$
(3,4-dihydroisoquinolin-2(1H)-yl){5-[(1-ethyl-3,5-dimethyl-1H-pyrazol-4-yl)methy
  -OEChem-04222410502D

 31 35  0     0  0  0  0  0  0999 V2000
    1.1543   -0.2856    0.0000 C   0  0  0  0  0  0  0  0  0  0  0  0
   -3.4298    0.0522    0.0000 C   0  0  0  0  0  0  0  0  0  0  0  0
    1.0501    0.7105    0.0000 N   0  0  0  0  0  0  0  0  0  0  0  0
   -3.7674   -1.5316    0.0000 N   0  0  0  0  0  0  0  0  0  0  0  0
    0.0709    0.9187    0.0000 N   0  0  0  0  0  0  0  0  0  0  0  0
   -0.4293    0.0522    0.0000 C   0  0  0  0  0  0  0  0  0  0  0  0
   -4.6299   -1.0315    0.0000 N   0  0  0  0  0  0  0  0  0  0  0  0
   -4.4257   -0.0522    0.0000 C   0  0  0  0  0  0  0  0  0  0  0  0
    0.2417   -0.6899    0.0000 C   0  0  0  0  0  0  0  0  0  0  0  0
    2.0212   -0.7854    0.0000 C   0  0  0  0  0  0  0  0  0  0  0  0
    2.8880   -0.2856    0.0000 N   0  0  0  0  0  0  0  0  0  0  0  0
   -3.0213   -0.8606    0.0000 C   0  0  0  0  0  0  0  0  0  0  0  0
   -1.9295    0.9187    0.0000 N   0  0  0  0  0  0  0  0  0  0  0  0
   -2.9296    0.9187    0.0000 C   0  0  0  0  0  0  0  0  0  0  0  0
    3.7549   -0.7854    0.0000 C   0  0  0  0  0  0  0  0  0  0  0  0
   -1.4294    0.0522    0.0000 C   0  0  0  0  0  0  0  0  0  0  0  0
   -0.4293    1.7856    0.0000 C   0  0  0  0  0  0  0  0  0  0  0  0
    4.6174   -0.2856    0.0000 C   0  0  0  0  0  0  0  0  0  0  0  0
    2.8880    0.7149    0.0000 C   0  0  0  0  0  0  0  0  0  0  0  0
    2.0212   -1.7856    0.0000 O   0  0  0  0  0  0  0  0  0  0  0  0
    4.6174    0.7149    0.0000 C   0  0  0  0  0  0  0  0  0  0  0  0
   -1.4294    1.7856    0.0000 C   0  0  0  0  0  0  0  0  0  0  0  0
    3.7549    1.2146    0.0000 C   0  0  0  0  0  0  0  0  0  0  0  0
   -5.5467   -1.4355    0.0000 C   0  0  0  0  0  0  0  0  0  0  0  0
   -5.0926    0.6899    0.0000 C   0  0  0  0  0  0  0  0  0  0  0  0
   -2.0462   -1.0688    0.0000 C   0  0  0  0  0  0  0  0  0  0  0  0
    5.4842   -0.7854    0.0000 C   0  0  0  0  0  0  0  0  0  0  0  0
    5.4842    1.2146    0.0000 C   0  0  0  0  0  0  0  0  0  0  0  0
   -6.3511   -0.8481    0.0000 C   0  0  0  0  0  0  0  0  0  0  0  0
    6.3511   -0.2856    0.0000 C   0  0  0  0  0  0  0  0  0  0  0  0
    6.3511    0.7149    0.0000 C   0  0  0  0  0  0  0  0  0  0  0  0
  2 14  1  0  0  0  0
  1  3  2  0  0  0  0
  4 12  2  0  0  0  0
  3  5  1  0  0  0  0
  6  9  2  0  0  0  0
  5  6  1  0  0  0  0
  7  8  1  0  0  0  0
  4  7  1  0  0  0  0
  2  8  2  0  0  0  0
  1  9  1  0  0  0  0
  1 10  1  0  0  0  0
 10 11  1  0  0  0  0
  2 12  1  0  0  0  0
 13 16  1  0  0  0  0
 13 14  1  0  0  0  0
 11 15  1  0  0  0  0
  6 16  1  0  0  0  0
  5 17  1  0  0  0  0
 15 18  1  0  0  0  0
 11 19  1  0  0  0  0
 10 20  2  0  0  0  0
 21 23  1  0  0  0  0
 18 21  2  0  0  0  0
 17 22  1  0  0  0  0
 13 22  1  0  0  0  0
 19 23  1  0  0  0  0
  7 24  1  0  0  0  0
  8 25  1  0  0  0  0
 12 26  1  0  0  0  0
 18 27  1  0  0  0  0
 21 28  1  0  0  0  0
 24 29  1  0  0  0  0
 27 30  2  0  0  0  0
 28 31  2  0  0  0  0
 30 31  1  0  0  0  0
M  END
> <IDNUMBER>
SB71-0483

> <available>
88

> <H_acceptor>
5

> <H_donor>
0

> <B_rotN>
5

> <N_O>
7

> <logP>
1.9863

> <logD>
-0.9585

> <logSw>
-2.3142

> <PSA>
48.03

> <pKa_ma>
23.8661

> <pKa_mb>
10.3443

> <N_Chirals>
0

> <Name>
(3,4-dihydroisoquinolin-2(1H)-yl){5-[(1-ethyl-3,5-dimethyl-1H-pyrazol-4-yl)methyl]-4,5,6,7-tetrahydropyrazolo[1,5-a]pyrazin-2-yl}methanone

> <Smile>
CCn1nc(C)c(CN2Cc3cc(C(N(CC4)Cc5c4cccc5)=O)nn3CC2)c1C

> <Color>
YELLOW

> <Collection>
IC

> <InChI>
InChI=1S/C24H30N6O/c1-4-29-18(3)22(17(2)25-29)16-27-11-12-30-21(15-27)13-23(26-30)24(31)28-10-9-19-7-5-6-8-20(19)14-28/h5-8,13H,4,9-12,14-16H2,1-3H3

> <InChI Key>
OFJUWOLVZXBRCT-UHFFFAOYSA-N

> <PERCENTSP3>
45.83

> <Link>
https://www.chemdiv.com/catalog/screening-compounds/compound-SB71-0483/

> <MFCDNUMBER>
MFCD32249236

> <CLNUMBER>
CM5543

> <STEREO>
ACHIRAL

> <State>
Solid

> <Similarity score>
0.27

$$$$
(5-{[3-(3-methoxyphenyl)-1H-pyrazol-4-yl]methyl}-4,5,6,7-tetrahydropyrazolo[1,5-
  -OEChem-04222410502D

 31 35  0     0  0  0  0  0  0999 V2000
    2.2153   -1.4315    0.0000 C   0  0  0  0  0  0  0  0  0  0  0  0
    2.1110   -0.4355    0.0000 N   0  0  0  0  0  0  0  0  0  0  0  0
    1.1316   -0.2312    0.0000 N   0  0  0  0  0  0  0  0  0  0  0  0
    0.6314   -1.0940    0.0000 C   0  0  0  0  0  0  0  0  0  0  0  0
   -2.3693   -1.0940    0.0000 C   0  0  0  0  0  0  0  0  0  0  0  0
    1.3025   -1.8400    0.0000 C   0  0  0  0  0  0  0  0  0  0  0  0
    3.0822   -1.9317    0.0000 C   0  0  0  0  0  0  0  0  0  0  0  0
   -3.3611   -1.1982    0.0000 C   0  0  0  0  0  0  0  0  0  0  0  0
   -3.5694   -2.1775    0.0000 N   0  0  0  0  0  0  0  0  0  0  0  0
   -0.8690   -0.2312    0.0000 N   0  0  0  0  0  0  0  0  0  0  0  0
    3.9488   -1.4315    0.0000 N   0  0  0  0  0  0  0  0  0  0  0  0
   -2.7068   -2.6777    0.0000 N   0  0  0  0  0  0  0  0  0  0  0  0
   -4.0321   -0.4562    0.0000 C   0  0  0  0  0  0  0  0  0  0  0  0
   -1.8691   -0.2312    0.0000 C   0  0  0  0  0  0  0  0  0  0  0  0
   -0.3687   -1.0940    0.0000 C   0  0  0  0  0  0  0  0  0  0  0  0
   -1.9608   -2.0107    0.0000 C   0  0  0  0  0  0  0  0  0  0  0  0
    0.6314    0.6356    0.0000 C   0  0  0  0  0  0  0  0  0  0  0  0
    3.0822   -2.9320    0.0000 O   0  0  0  0  0  0  0  0  0  0  0  0
   -3.7238    0.4938    0.0000 C   0  0  0  0  0  0  0  0  0  0  0  0
   -0.3687    0.6356    0.0000 C   0  0  0  0  0  0  0  0  0  0  0  0
    5.6784   -0.4314    0.0000 O   0  0  0  0  0  0  0  0  0  0  0  0
   -4.3905    1.2358    0.0000 C   0  0  0  0  0  0  0  0  0  0  0  0
    4.8157   -1.9317    0.0000 C   0  0  0  0  0  0  0  0  0  0  0  0
    3.9488   -0.4314    0.0000 C   0  0  0  0  0  0  0  0  0  0  0  0
   -5.0114   -0.6647    0.0000 C   0  0  0  0  0  0  0  0  0  0  0  0
   -4.0821    2.1901    0.0000 O   0  0  0  0  0  0  0  0  0  0  0  0
   -5.6784    0.0770    0.0000 C   0  0  0  0  0  0  0  0  0  0  0  0
    5.6784   -1.4315    0.0000 C   0  0  0  0  0  0  0  0  0  0  0  0
    4.8157    0.0689    0.0000 C   0  0  0  0  0  0  0  0  0  0  0  0
   -5.3699    1.0315    0.0000 C   0  0  0  0  0  0  0  0  0  0  0  0
   -4.7532    2.9320    0.0000 C   0  0  0  0  0  0  0  0  0  0  0  0
  1  2  2  0  0  0  0
  2  3  1  0  0  0  0
  4  6  2  0  0  0  0
  3  4  1  0  0  0  0
  5 14  1  0  0  0  0
  1  6  1  0  0  0  0
  1  7  1  0  0  0  0
  5  8  1  0  0  0  0
  8  9  2  0  0  0  0
  9 12  1  0  0  0  0
 10 15  1  0  0  0  0
  7 11  1  0  0  0  0
 12 16  1  0  0  0  0
  8 13  1  0  0  0  0
 10 14  1  0  0  0  0
  4 15  1  0  0  0  0
  5 16  2  0  0  0  0
  3 17  1  0  0  0  0
  7 18  2  0  0  0  0
 13 19  2  0  0  0  0
 17 20  1  0  0  0  0
 10 20  1  0  0  0  0
 21 29  1  0  0  0  0
 21 28  1  0  0  0  0
 19 22  1  0  0  0  0
 11 23  1  0  0  0  0
 11 24  1  0  0  0  0
 13 25  1  0  0  0  0
 22 26  1  0  0  0  0
 25 27  2  0  0  0  0
 23 28  1  0  0  0  0
 24 29  1  0  0  0  0
 27 30  1  0  0  0  0
 22 30  2  0  0  0  0
 26 31  1  0  0  0  0
M  END
> <IDNUMBER>
SB71-0204

> <available>
124

> <H_acceptor>
7

> <H_donor>
1

> <B_rotN>
6

> <N_O>
9

> <logP>
1.1732

> <logD>
0.7363

> <logSw>
-2.2074

> <PSA>
73.732

> <pKa_ma>
11.9692

> <pKa_mb>
7.6393

> <N_Chirals>
0

> <Name>
(5-{[3-(3-methoxyphenyl)-1H-pyrazol-4-yl]methyl}-4,5,6,7-tetrahydropyrazolo[1,5-a]pyrazin-2-yl)(morpholin-4-yl)methanone

> <Smile>
COc1cccc(-c2n[nH]cc2CN2Cc3cc(C(N4CCOCC4)=O)nn3CC2)c1

> <Color>
YELLOW

> <Collection>
IC

> <InChI>
InChI=1S/C22H26N6O3/c1-30-19-4-2-3-16(11-19)21-17(13-23-24-21)14-26-5-6-28-18(15-26)12-20(25-28)22(29)27-7-9-31-10-8-27/h2-4,11-13H,5-10,14-15H2,1H3,(H,23,24)

> <InChI Key>
BIZYPYUBCRTFKM-UHFFFAOYSA-N

> <PERCENTSP3>
40.91

> <Link>
https://www.chemdiv.com/catalog/screening-compounds/compound-SB71-0204/

> <MFCDNUMBER>
MFCD32249565

> <CLNUMBER>
CM5543

> <STEREO>
ACHIRAL

> <State>
Oil

> <Similarity score>
0.27

$$$$
(3,4-dihydroisoquinolin-2(1H)-yl){5-[(3,5-dimethyl-1,2-oxazol-4-yl)methyl]-4,5,6
  -OEChem-04222410502D

 29 33  0     0  0  0  0  0  0999 V2000
   -0.5271   -0.2854    0.0000 C   0  0  0  0  0  0  0  0  0  0  0  0
   -0.4188    0.7104    0.0000 N   0  0  0  0  0  0  0  0  0  0  0  0
    0.5561    0.9186    0.0000 N   0  0  0  0  0  0  0  0  0  0  0  0
    4.0557    0.0520    0.0000 C   0  0  0  0  0  0  0  0  0  0  0  0
    1.0561    0.0520    0.0000 C   0  0  0  0  0  0  0  0  0  0  0  0
    0.3895   -0.6895    0.0000 C   0  0  0  0  0  0  0  0  0  0  0  0
   -1.3896   -0.7852    0.0000 C   0  0  0  0  0  0  0  0  0  0  0  0
   -2.2559   -0.2854    0.0000 N   0  0  0  0  0  0  0  0  0  0  0  0
    4.3931   -1.5310    0.0000 N   0  0  0  0  0  0  0  0  0  0  0  0
    5.2596   -1.0312    0.0000 O   0  0  0  0  0  0  0  0  0  0  0  0
    5.0513   -0.0520    0.0000 C   0  0  0  0  0  0  0  0  0  0  0  0
    3.6516   -0.8601    0.0000 C   0  0  0  0  0  0  0  0  0  0  0  0
    2.5558    0.9186    0.0000 N   0  0  0  0  0  0  0  0  0  0  0  0
    3.5557    0.9186    0.0000 C   0  0  0  0  0  0  0  0  0  0  0  0
   -3.1225   -0.7852    0.0000 C   0  0  0  0  0  0  0  0  0  0  0  0
    2.0560    0.0520    0.0000 C   0  0  0  0  0  0  0  0  0  0  0  0
    1.0561    1.7851    0.0000 C   0  0  0  0  0  0  0  0  0  0  0  0
   -3.9890   -0.2854    0.0000 C   0  0  0  0  0  0  0  0  0  0  0  0
   -2.2559    0.7145    0.0000 C   0  0  0  0  0  0  0  0  0  0  0  0
   -1.3896   -1.7851    0.0000 O   0  0  0  0  0  0  0  0  0  0  0  0
   -3.9890    0.7145    0.0000 C   0  0  0  0  0  0  0  0  0  0  0  0
    2.0560    1.7851    0.0000 C   0  0  0  0  0  0  0  0  0  0  0  0
   -3.1225    1.2145    0.0000 C   0  0  0  0  0  0  0  0  0  0  0  0
    5.7221    0.6895    0.0000 C   0  0  0  0  0  0  0  0  0  0  0  0
    2.6724   -1.0684    0.0000 C   0  0  0  0  0  0  0  0  0  0  0  0
   -4.8555   -0.7852    0.0000 C   0  0  0  0  0  0  0  0  0  0  0  0
   -4.8555    1.2145    0.0000 C   0  0  0  0  0  0  0  0  0  0  0  0
   -5.7221   -0.2854    0.0000 C   0  0  0  0  0  0  0  0  0  0  0  0
   -5.7221    0.7145    0.0000 C   0  0  0  0  0  0  0  0  0  0  0  0
  1  2  2  0  0  0  0
  2  3  1  0  0  0  0
  4 14  1  0  0  0  0
  5  6  2  0  0  0  0
  3  5  1  0  0  0  0
  1  6  1  0  0  0  0
  1  7  1  0  0  0  0
  7  8  1  0  0  0  0
  9 12  2  0  0  0  0
 10 11  1  0  0  0  0
  9 10  1  0  0  0  0
  4 11  2  0  0  0  0
  4 12  1  0  0  0  0
 13 16  1  0  0  0  0
 13 14  1  0  0  0  0
  8 15  1  0  0  0  0
  5 16  1  0  0  0  0
  3 17  1  0  0  0  0
 15 18  1  0  0  0  0
  8 19  1  0  0  0  0
  7 20  2  0  0  0  0
 21 23  1  0  0  0  0
 18 21  2  0  0  0  0
 17 22  1  0  0  0  0
 13 22  1  0  0  0  0
 19 23  1  0  0  0  0
 11 24  1  0  0  0  0
 12 25  1  0  0  0  0
 18 26  1  0  0  0  0
 21 27  1  0  0  0  0
 26 28  2  0  0  0  0
 27 29  2  0  0  0  0
 28 29  1  0  0  0  0
M  END
> <IDNUMBER>
SB71-0461

> <available>
49

> <H_acceptor>
6

> <H_donor>
0

> <B_rotN>
4

> <N_O>
7

> <logP>
2.0467

> <logD>
1.5685

> <logSw>
-2.4212

> <PSA>
55.79

> <pKa_ma>
24.0053

> <pKa_mb>
7.7028

> <N_Chirals>
0

> <Name>
(3,4-dihydroisoquinolin-2(1H)-yl){5-[(3,5-dimethyl-1,2-oxazol-4-yl)methyl]-4,5,6,7-tetrahydropyrazolo[1,5-a]pyrazin-2-yl}methanone

> <Smile>
Cc1noc(C)c1CN1Cc2cc(C(N(CC3)Cc4c3cccc4)=O)nn2CC1

> <Color>
ORANGE

> <Collection>
IC

> <InChI>
InChI=1S/C22H25N5O2/c1-15-20(16(2)29-24-15)14-25-9-10-27-19(13-25)11-21(23-27)22(28)26-8-7-17-5-3-4-6-18(17)12-26/h3-6,11H,7-10,12-14H2,1-2H3

> <InChI Key>
IGHCZAYKLRACLO-UHFFFAOYSA-N

> <PERCENTSP3>
40.91

> <Link>
https://www.chemdiv.com/catalog/screening-compounds/compound-SB71-0461/

> <MFCDNUMBER>
MFCD32249177

> <CLNUMBER>
CM5543

> <STEREO>
ACHIRAL

> <State>
Solid

> <Similarity score>
0.27

$$$$
N-(propan-2-yl)-5-[(quinolin-8-yl)methyl]-4,5,6,7-tetrahydropyrazolo[1,5-a]pyraz
  -OEChem-04222410502D

 26 29  0     0  0  0  0  0  0999 V2000
    1.6986    0.9941    0.0000 C   0  0  0  0  0  0  0  0  0  0  0  0
    2.1070    0.0771    0.0000 N   0  0  0  0  0  0  0  0  0  0  0  0
    1.3650   -0.5898    0.0000 N   0  0  0  0  0  0  0  0  0  0  0  0
    0.4981   -0.0896    0.0000 C   0  0  0  0  0  0  0  0  0  0  0  0
    0.7067    0.8900    0.0000 C   0  0  0  0  0  0  0  0  0  0  0  0
    2.1986    1.8611    0.0000 C   0  0  0  0  0  0  0  0  0  0  0  0
   -0.3689   -1.5902    0.0000 N   0  0  0  0  0  0  0  0  0  0  0  0
   -2.1027   -1.5902    0.0000 C   0  0  0  0  0  0  0  0  0  0  0  0
   -0.3689   -0.5898    0.0000 C   0  0  0  0  0  0  0  0  0  0  0  0
   -2.9698   -2.0904    0.0000 C   0  0  0  0  0  0  0  0  0  0  0  0
    3.1992    1.8611    0.0000 N   0  0  0  0  0  0  0  0  0  0  0  0
    1.3650   -1.5902    0.0000 C   0  0  0  0  0  0  0  0  0  0  0  0
   -1.2360   -2.0904    0.0000 C   0  0  0  0  0  0  0  0  0  0  0  0
   -2.9698   -3.0906    0.0000 N   0  0  0  0  0  0  0  0  0  0  0  0
    1.6986    2.7238    0.0000 O   0  0  0  0  0  0  0  0  0  0  0  0
    0.4981   -2.0904    0.0000 C   0  0  0  0  0  0  0  0  0  0  0  0
   -3.8324   -1.5902    0.0000 C   0  0  0  0  0  0  0  0  0  0  0  0
   -2.1027   -0.5898    0.0000 C   0  0  0  0  0  0  0  0  0  0  0  0
    3.6992    2.7238    0.0000 C   0  0  0  0  0  0  0  0  0  0  0  0
   -2.9698   -0.0896    0.0000 C   0  0  0  0  0  0  0  0  0  0  0  0
   -3.8324   -3.5908    0.0000 C   0  0  0  0  0  0  0  0  0  0  0  0
   -3.8324   -0.5898    0.0000 C   0  0  0  0  0  0  0  0  0  0  0  0
   -4.6995   -2.0904    0.0000 C   0  0  0  0  0  0  0  0  0  0  0  0
    4.6995    2.7238    0.0000 C   0  0  0  0  0  0  0  0  0  0  0  0
    3.1992    3.5908    0.0000 C   0  0  0  0  0  0  0  0  0  0  0  0
   -4.6995   -3.0906    0.0000 C   0  0  0  0  0  0  0  0  0  0  0  0
  1  2  2  0  0  0  0
  2  3  1  0  0  0  0
  4  5  2  0  0  0  0
  3  4  1  0  0  0  0
  1  5  1  0  0  0  0
  1  6  1  0  0  0  0
  7  9  1  0  0  0  0
  8 13  1  0  0  0  0
  4  9  1  0  0  0  0
  8 10  1  0  0  0  0
  6 11  1  0  0  0  0
  3 12  1  0  0  0  0
  7 13  1  0  0  0  0
 10 14  1  0  0  0  0
  6 15  2  0  0  0  0
 12 16  1  0  0  0  0
  7 16  1  0  0  0  0
 10 17  2  0  0  0  0
 17 22  1  0  0  0  0
  8 18  2  0  0  0  0
 11 19  1  0  0  0  0
 18 20  1  0  0  0  0
 14 21  2  0  0  0  0
 20 22  2  0  0  0  0
 17 23  1  0  0  0  0
 19 24  1  0  0  0  0
 19 25  1  0  0  0  0
 23 26  2  0  0  0  0
 21 26  1  0  0  0  0
M  END
> <IDNUMBER>
SB71-0639

> <available>
25

> <H_acceptor>
5

> <H_donor>
1

> <B_rotN>
5

> <N_O>
6

> <logP>
1.9555

> <logD>
1.9526

> <logSw>
-2.6328

> <PSA>
50.634

> <pKa_ma>
14.8713

> <pKa_mb>
5.2337

> <N_Chirals>
0

> <Name>
N-(propan-2-yl)-5-[(quinolin-8-yl)methyl]-4,5,6,7-tetrahydropyrazolo[1,5-a]pyrazine-2-carboxamide

> <Smile>
CC(C)NC(c1nn(CCN(Cc2cccc3cccnc23)C2)c2c1)=O

> <Color>
ORANGE

> <Collection>
IC

> <InChI>
InChI=1S/C20H23N5O/c1-14(2)22-20(26)18-11-17-13-24(9-10-25(17)23-18)12-16-6-3-5-15-7-4-8-21-19(15)16/h3-8,11,14H,9-10,12-13H2,1-2H3,(H,22,26)

> <InChI Key>
CCECUINNUFICLZ-UHFFFAOYSA-N

> <PERCENTSP3>
35

> <Link>
https://www.chemdiv.com/catalog/screening-compounds/compound-SB71-0639/

> <MFCDNUMBER>
MFCD32249368

> <CLNUMBER>
CM5543

> <STEREO>
ACHIRAL

> <State>
Oil

> <Similarity score>
0.27

$$$$
[5-(4-fluoro-3-methylbenzene-1-sulfonyl)-4,5,6,7-tetrahydropyrazolo[1,5-a]pyrazi
  -OEChem-04222410502D

 28 31  0     0  0  0  0  0  0999 V2000
   -0.9063   -1.8522    0.0000 S   0  0  0  0  0  0  0  0  0  0  0  0
    3.1774   -0.6478    0.0000 C   0  0  0  0  0  0  0  0  0  0  0  0
    3.0730   -1.6438    0.0000 N   0  0  0  0  0  0  0  0  0  0  0  0
    0.0938   -1.8522    0.0000 N   0  0  0  0  0  0  0  0  0  0  0  0
    1.5939   -0.9856    0.0000 C   0  0  0  0  0  0  0  0  0  0  0  0
    2.0940   -1.8522    0.0000 N   0  0  0  0  0  0  0  0  0  0  0  0
    2.2605   -0.2438    0.0000 C   0  0  0  0  0  0  0  0  0  0  0  0
    4.0399   -0.1480    0.0000 C   0  0  0  0  0  0  0  0  0  0  0  0
    0.5938   -0.9856    0.0000 C   0  0  0  0  0  0  0  0  0  0  0  0
   -1.9063   -1.8522    0.0000 C   0  0  0  0  0  0  0  0  0  0  0  0
    4.0399    0.8522    0.0000 N   0  0  0  0  0  0  0  0  0  0  0  0
    0.5938   -2.7190    0.0000 C   0  0  0  0  0  0  0  0  0  0  0  0
    1.5939   -2.7190    0.0000 C   0  0  0  0  0  0  0  0  0  0  0  0
   -0.9063   -0.8522    0.0000 O   0  0  0  0  0  0  0  0  0  0  0  0
   -0.9063   -2.8522    0.0000 O   0  0  0  0  0  0  0  0  0  0  0  0
   -2.4063   -0.9856    0.0000 C   0  0  0  0  0  0  0  0  0  0  0  0
   -3.4065   -0.9856    0.0000 C   0  0  0  0  0  0  0  0  0  0  0  0
    4.9065   -0.6478    0.0000 O   0  0  0  0  0  0  0  0  0  0  0  0
   -3.9064   -1.8522    0.0000 C   0  0  0  0  0  0  0  0  0  0  0  0
   -2.4063   -2.7190    0.0000 C   0  0  0  0  0  0  0  0  0  0  0  0
   -3.4065   -2.7190    0.0000 C   0  0  0  0  0  0  0  0  0  0  0  0
    4.0399    2.8522    0.0000 O   0  0  0  0  0  0  0  0  0  0  0  0
   -4.9065   -1.8522    0.0000 F   0  0  0  0  0  0  0  0  0  0  0  0
    4.9065    1.3522    0.0000 C   0  0  0  0  0  0  0  0  0  0  0  0
    3.1774    1.3522    0.0000 C   0  0  0  0  0  0  0  0  0  0  0  0
   -3.9064   -0.1188    0.0000 C   0  0  0  0  0  0  0  0  0  0  0  0
    4.9065    2.3522    0.0000 C   0  0  0  0  0  0  0  0  0  0  0  0
    3.1774    2.3522    0.0000 C   0  0  0  0  0  0  0  0  0  0  0  0
  2  7  1  0  0  0  0
  2  3  2  0  0  0  0
  3  6  1  0  0  0  0
  1  4  1  0  0  0  0
  5  9  1  0  0  0  0
  5  6  1  0  0  0  0
  6 13  1  0  0  0  0
  5  7  2  0  0  0  0
  2  8  1  0  0  0  0
  4  9  1  0  0  0  0
  1 10  1  0  0  0  0
  8 11  1  0  0  0  0
  4 12  1  0  0  0  0
 12 13  1  0  0  0  0
  1 14  2  0  0  0  0
  1 15  2  0  0  0  0
 10 16  2  0  0  0  0
 16 17  1  0  0  0  0
  8 18  2  0  0  0  0
 19 21  1  0  0  0  0
 17 19  2  0  0  0  0
 10 20  1  0  0  0  0
 20 21  2  0  0  0  0
 22 28  1  0  0  0  0
 22 27  1  0  0  0  0
 19 23  1  0  0  0  0
 11 24  1  0  0  0  0
 11 25  1  0  0  0  0
 17 26  1  0  0  0  0
 24 27  1  0  0  0  0
 25 28  1  0  0  0  0
M  END
> <IDNUMBER>
SB71-0286

> <available>
38

> <H_acceptor>
9

> <H_donor>
0

> <B_rotN>
4

> <N_O>
8

> <logP>
1.1028

> <logD>
1.1028

> <logSw>
-2.4552

> <PSA>
69.977

> <pKa_ma>
26.1583

> <pKa_mb>
-4.4541

> <N_Chirals>
0

> <Name>
[5-(4-fluoro-3-methylbenzene-1-sulfonyl)-4,5,6,7-tetrahydropyrazolo[1,5-a]pyrazin-2-yl](morpholin-4-yl)methanone

> <Smile>
Cc(cc(cc1)S(N2Cc3cc(C(N4CCOCC4)=O)nn3CC2)(=O)=O)c1F

> <Color>
NOT COLORED

> <Collection>
IC

> <InChI>
InChI=1S/C18H21FN4O4S/c1-13-10-15(2-3-16(13)19)28(25,26)22-4-5-23-14(12-22)11-17(20-23)18(24)21-6-8-27-9-7-21/h2-3,10-11H,4-9,12H2,1H3

> <InChI Key>
IGWCUOIARKHPTC-UHFFFAOYSA-N

> <PERCENTSP3>
44.44

> <Link>
https://www.chemdiv.com/catalog/screening-compounds/compound-SB71-0286/

> <MFCDNUMBER>
MFCD32249296

> <CLNUMBER>
CM5543

> <STEREO>
ACHIRAL

> <State>
Solid

> <Similarity score>
0.27

$$$$
(3,4-dihydroisoquinolin-2(1H)-yl)[5-(3-methylbutyl)-4,5,6,7-tetrahydropyrazolo[1
  -OEChem-04222410502D

 26 29  0     0  0  0  0  0  0999 V2000
    0.4437    0.2855    0.0000 C   0  0  0  0  0  0  0  0  0  0  0  0
    0.3396   -0.7103    0.0000 N   0  0  0  0  0  0  0  0  0  0  0  0
   -0.6397   -0.9188    0.0000 N   0  0  0  0  0  0  0  0  0  0  0  0
   -1.1394   -0.0522    0.0000 C   0  0  0  0  0  0  0  0  0  0  0  0
   -0.4686    0.6896    0.0000 C   0  0  0  0  0  0  0  0  0  0  0  0
    1.3104    0.7854    0.0000 C   0  0  0  0  0  0  0  0  0  0  0  0
    2.1770    0.2855    0.0000 N   0  0  0  0  0  0  0  0  0  0  0  0
    3.0395    0.7854    0.0000 C   0  0  0  0  0  0  0  0  0  0  0  0
   -2.6394   -0.9188    0.0000 N   0  0  0  0  0  0  0  0  0  0  0  0
   -2.1393   -0.0522    0.0000 C   0  0  0  0  0  0  0  0  0  0  0  0
   -1.1394   -1.7853    0.0000 C   0  0  0  0  0  0  0  0  0  0  0  0
    3.9060    0.2855    0.0000 C   0  0  0  0  0  0  0  0  0  0  0  0
    2.1770   -0.7146    0.0000 C   0  0  0  0  0  0  0  0  0  0  0  0
    1.3104    1.7853    0.0000 O   0  0  0  0  0  0  0  0  0  0  0  0
    3.9060   -0.7146    0.0000 C   0  0  0  0  0  0  0  0  0  0  0  0
    3.0395   -1.2143    0.0000 C   0  0  0  0  0  0  0  0  0  0  0  0
   -2.1393   -1.7853    0.0000 C   0  0  0  0  0  0  0  0  0  0  0  0
   -3.6393   -0.9188    0.0000 C   0  0  0  0  0  0  0  0  0  0  0  0
   -4.1393   -0.0522    0.0000 C   0  0  0  0  0  0  0  0  0  0  0  0
    4.7724    0.7854    0.0000 C   0  0  0  0  0  0  0  0  0  0  0  0
    4.7724   -1.2143    0.0000 C   0  0  0  0  0  0  0  0  0  0  0  0
   -5.1392   -0.0522    0.0000 C   0  0  0  0  0  0  0  0  0  0  0  0
   -5.6391    0.8143    0.0000 C   0  0  0  0  0  0  0  0  0  0  0  0
   -5.6391   -0.9188    0.0000 C   0  0  0  0  0  0  0  0  0  0  0  0
    5.6391    0.2855    0.0000 C   0  0  0  0  0  0  0  0  0  0  0  0
    5.6391   -0.7146    0.0000 C   0  0  0  0  0  0  0  0  0  0  0  0
  1  2  2  0  0  0  0
  2  3  1  0  0  0  0
  4  5  2  0  0  0  0
  3  4  1  0  0  0  0
  1  5  1  0  0  0  0
  1  6  1  0  0  0  0
  6  7  1  0  0  0  0
  7  8  1  0  0  0  0
  9 10  1  0  0  0  0
  4 10  1  0  0  0  0
  3 11  1  0  0  0  0
  8 12  1  0  0  0  0
  7 13  1  0  0  0  0
  6 14  2  0  0  0  0
 15 16  1  0  0  0  0
 12 15  2  0  0  0  0
 13 16  1  0  0  0  0
 11 17  1  0  0  0  0
  9 17  1  0  0  0  0
  9 18  1  0  0  0  0
 18 19  1  0  0  0  0
 12 20  1  0  0  0  0
 15 21  1  0  0  0  0
 19 22  1  0  0  0  0
 22 23  1  0  0  0  0
 22 24  1  0  0  0  0
 20 25  2  0  0  0  0
 21 26  2  0  0  0  0
 25 26  1  0  0  0  0
M  END
> <IDNUMBER>
SB71-0442

> <available>
47

> <H_acceptor>
4

> <H_donor>
0

> <B_rotN>
5

> <N_O>
5

> <logP>
3.0639

> <logD>
2.8524

> <logSw>
-3.2403

> <PSA>
34.002

> <pKa_ma>
25.6071

> <pKa_mb>
7.1974

> <N_Chirals>
0

> <Name>
(3,4-dihydroisoquinolin-2(1H)-yl)[5-(3-methylbutyl)-4,5,6,7-tetrahydropyrazolo[1,5-a]pyrazin-2-yl]methanone

> <Smile>
CC(C)CCN1Cc2cc(C(N(CC3)Cc4c3cccc4)=O)nn2CC1

> <Color>
ORANGE

> <Collection>
IC

> <InChI>
InChI=1S/C21H28N4O/c1-16(2)7-9-23-11-12-25-19(15-23)13-20(22-25)21(26)24-10-8-17-5-3-4-6-18(17)14-24/h3-6,13,16H,7-12,14-15H2,1-2H3

> <InChI Key>
QSVSDYXUDPSRHB-UHFFFAOYSA-N

> <PERCENTSP3>
52.38

> <Link>
https://www.chemdiv.com/catalog/screening-compounds/compound-SB71-0442/

> <MFCDNUMBER>
MFCD32249640

> <CLNUMBER>
CM5543

> <STEREO>
ACHIRAL

> <State>
Liquid

> <Similarity score>
0.27

$$$$
(3,4-dihydroisoquinolin-2(1H)-yl){5-[(1-ethyl-5-methyl-1H-pyrazol-4-yl)methyl]-4
  -OEChem-04222410502D

 30 34  0     0  0  0  0  0  0999 V2000
    1.1540   -0.2853    0.0000 C   0  0  0  0  0  0  0  0  0  0  0  0
    1.0499    0.7106    0.0000 N   0  0  0  0  0  0  0  0  0  0  0  0
    0.0708    0.9187    0.0000 N   0  0  0  0  0  0  0  0  0  0  0  0
   -0.4292    0.0522    0.0000 C   0  0  0  0  0  0  0  0  0  0  0  0
   -3.4290    0.0522    0.0000 C   0  0  0  0  0  0  0  0  0  0  0  0
    0.2417   -0.6895    0.0000 C   0  0  0  0  0  0  0  0  0  0  0  0
    2.0208   -0.7854    0.0000 C   0  0  0  0  0  0  0  0  0  0  0  0
    2.8873   -0.2853    0.0000 N   0  0  0  0  0  0  0  0  0  0  0  0
   -3.7665   -1.5311    0.0000 N   0  0  0  0  0  0  0  0  0  0  0  0
   -4.4247   -0.0522    0.0000 C   0  0  0  0  0  0  0  0  0  0  0  0
   -4.6330   -1.0314    0.0000 N   0  0  0  0  0  0  0  0  0  0  0  0
   -3.0206   -0.8604    0.0000 C   0  0  0  0  0  0  0  0  0  0  0  0
   -1.9291    0.9187    0.0000 N   0  0  0  0  0  0  0  0  0  0  0  0
    3.7499   -0.7854    0.0000 C   0  0  0  0  0  0  0  0  0  0  0  0
   -2.9290    0.9187    0.0000 C   0  0  0  0  0  0  0  0  0  0  0  0
   -1.4291    0.0522    0.0000 C   0  0  0  0  0  0  0  0  0  0  0  0
   -0.4292    1.7852    0.0000 C   0  0  0  0  0  0  0  0  0  0  0  0
    4.6164   -0.2853    0.0000 C   0  0  0  0  0  0  0  0  0  0  0  0
    2.8873    0.7145    0.0000 C   0  0  0  0  0  0  0  0  0  0  0  0
    2.0208   -1.7852    0.0000 O   0  0  0  0  0  0  0  0  0  0  0  0
    4.6164    0.7145    0.0000 C   0  0  0  0  0  0  0  0  0  0  0  0
   -1.4291    1.7852    0.0000 C   0  0  0  0  0  0  0  0  0  0  0  0
    3.7499    1.2144    0.0000 C   0  0  0  0  0  0  0  0  0  0  0  0
   -5.5454   -1.4396    0.0000 C   0  0  0  0  0  0  0  0  0  0  0  0
   -5.0914    0.6895    0.0000 C   0  0  0  0  0  0  0  0  0  0  0  0
    5.4829   -0.7854    0.0000 C   0  0  0  0  0  0  0  0  0  0  0  0
    5.4829    1.2144    0.0000 C   0  0  0  0  0  0  0  0  0  0  0  0
   -6.3496   -0.8479    0.0000 C   0  0  0  0  0  0  0  0  0  0  0  0
    6.3496   -0.2853    0.0000 C   0  0  0  0  0  0  0  0  0  0  0  0
    6.3496    0.7145    0.0000 C   0  0  0  0  0  0  0  0  0  0  0  0
  1  2  2  0  0  0  0
  2  3  1  0  0  0  0
  4  6  2  0  0  0  0
  3  4  1  0  0  0  0
  5 15  1  0  0  0  0
  1  6  1  0  0  0  0
  1  7  1  0  0  0  0
  7  8  1  0  0  0  0
  9 12  2  0  0  0  0
  9 11  1  0  0  0  0
  5 10  2  0  0  0  0
 10 11  1  0  0  0  0
  5 12  1  0  0  0  0
 13 16  1  0  0  0  0
  8 14  1  0  0  0  0
 13 15  1  0  0  0  0
  4 16  1  0  0  0  0
  3 17  1  0  0  0  0
 14 18  1  0  0  0  0
  8 19  1  0  0  0  0
  7 20  2  0  0  0  0
 21 23  1  0  0  0  0
 18 21  2  0  0  0  0
 17 22  1  0  0  0  0
 13 22  1  0  0  0  0
 19 23  1  0  0  0  0
 11 24  1  0  0  0  0
 10 25  1  0  0  0  0
 18 26  1  0  0  0  0
 21 27  1  0  0  0  0
 24 28  1  0  0  0  0
 26 29  2  0  0  0  0
 27 30  2  0  0  0  0
 29 30  1  0  0  0  0
M  END
> <IDNUMBER>
SB71-0460

> <available>
39

> <H_acceptor>
5

> <H_donor>
0

> <B_rotN>
5

> <N_O>
7

> <logP>
1.8619

> <logD>
-1.2987

> <logSw>
-2.1226

> <PSA>
47.677

> <pKa_ma>
24.232

> <pKa_mb>
10.5603

> <N_Chirals>
0

> <Name>
(3,4-dihydroisoquinolin-2(1H)-yl){5-[(1-ethyl-5-methyl-1H-pyrazol-4-yl)methyl]-4,5,6,7-tetrahydropyrazolo[1,5-a]pyrazin-2-yl}methanone

> <Smile>
CCn1ncc(CN2Cc3cc(C(N(CC4)Cc5c4cccc5)=O)nn3CC2)c1C

> <Color>
YELLOW

> <Collection>
IC

> <InChI>
InChI=1S/C23H28N6O/c1-3-28-17(2)20(13-24-28)14-26-10-11-29-21(16-26)12-22(25-29)23(30)27-9-8-18-6-4-5-7-19(18)15-27/h4-7,12-13H,3,8-11,14-16H2,1-2H3

> <InChI Key>
DHKVHRWJYQLVMB-UHFFFAOYSA-N

> <PERCENTSP3>
43.48

> <Link>
https://www.chemdiv.com/catalog/screening-compounds/compound-SB71-0460/

> <MFCDNUMBER>
MFCD32249176

> <CLNUMBER>
CM5543

> <STEREO>
ACHIRAL

> <State>
Solid

> <Similarity score>
0.27

$$$$
(3,4-dihydroisoquinolin-2(1H)-yl){5-[(furan-3-yl)methyl]-4,5,6,7-tetrahydropyraz
  -OEChem-04222410502D

 27 31  0     0  0  0  0  0  0999 V2000
    0.2939    0.2853    0.0000 C   0  0  0  0  0  0  0  0  0  0  0  0
    0.1896   -0.7104    0.0000 N   0  0  0  0  0  0  0  0  0  0  0  0
   -0.7897   -0.9188    0.0000 N   0  0  0  0  0  0  0  0  0  0  0  0
   -1.2897   -0.0522    0.0000 C   0  0  0  0  0  0  0  0  0  0  0  0
   -0.6188    0.6896    0.0000 C   0  0  0  0  0  0  0  0  0  0  0  0
    1.1604    0.7854    0.0000 C   0  0  0  0  0  0  0  0  0  0  0  0
    2.0271    0.2853    0.0000 N   0  0  0  0  0  0  0  0  0  0  0  0
   -2.7896   -0.9188    0.0000 N   0  0  0  0  0  0  0  0  0  0  0  0
    2.8937    0.7854    0.0000 C   0  0  0  0  0  0  0  0  0  0  0  0
   -4.2897   -0.0522    0.0000 C   0  0  0  0  0  0  0  0  0  0  0  0
   -2.2897   -0.0522    0.0000 C   0  0  0  0  0  0  0  0  0  0  0  0
   -1.2897   -1.7853    0.0000 C   0  0  0  0  0  0  0  0  0  0  0  0
    3.7604    0.2853    0.0000 C   0  0  0  0  0  0  0  0  0  0  0  0
    2.0271   -0.7147    0.0000 C   0  0  0  0  0  0  0  0  0  0  0  0
   -4.6230    1.5313    0.0000 O   0  0  0  0  0  0  0  0  0  0  0  0
    1.1604    1.7853    0.0000 O   0  0  0  0  0  0  0  0  0  0  0  0
   -3.8812    0.8603    0.0000 C   0  0  0  0  0  0  0  0  0  0  0  0
   -3.7896   -0.9188    0.0000 C   0  0  0  0  0  0  0  0  0  0  0  0
   -5.2812    0.0522    0.0000 C   0  0  0  0  0  0  0  0  0  0  0  0
    3.7604   -0.7147    0.0000 C   0  0  0  0  0  0  0  0  0  0  0  0
   -5.4897    1.0310    0.0000 C   0  0  0  0  0  0  0  0  0  0  0  0
   -2.2897   -1.7853    0.0000 C   0  0  0  0  0  0  0  0  0  0  0  0
    2.8937   -1.2146    0.0000 C   0  0  0  0  0  0  0  0  0  0  0  0
    4.6228    0.7854    0.0000 C   0  0  0  0  0  0  0  0  0  0  0  0
    4.6228   -1.2146    0.0000 C   0  0  0  0  0  0  0  0  0  0  0  0
    5.4897    0.2853    0.0000 C   0  0  0  0  0  0  0  0  0  0  0  0
    5.4897   -0.7147    0.0000 C   0  0  0  0  0  0  0  0  0  0  0  0
  1  2  2  0  0  0  0
  2  3  1  0  0  0  0
  4  5  2  0  0  0  0
  3  4  1  0  0  0  0
  1  5  1  0  0  0  0
  1  6  1  0  0  0  0
  6  7  1  0  0  0  0
  8 11  1  0  0  0  0
  7  9  1  0  0  0  0
 10 18  1  0  0  0  0
  4 11  1  0  0  0  0
  3 12  1  0  0  0  0
  9 13  1  0  0  0  0
  7 14  1  0  0  0  0
 15 17  1  0  0  0  0
  6 16  2  0  0  0  0
 10 17  2  0  0  0  0
  8 18  1  0  0  0  0
 10 19  1  0  0  0  0
 20 23  1  0  0  0  0
 13 20  2  0  0  0  0
 19 21  2  0  0  0  0
 15 21  1  0  0  0  0
 12 22  1  0  0  0  0
  8 22  1  0  0  0  0
 14 23  1  0  0  0  0
 13 24  1  0  0  0  0
 20 25  1  0  0  0  0
 24 26  2  0  0  0  0
 25 27  2  0  0  0  0
 26 27  1  0  0  0  0
M  END
> <IDNUMBER>
SB71-0413

> <available>
89

> <H_acceptor>
5

> <H_donor>
0

> <B_rotN>
4

> <N_O>
6

> <logP>
2.0193

> <logD>
1.5216

> <logSw>
-2.3937

> <PSA>
41.555

> <pKa_ma>
25.6071

> <pKa_mb>
7.7315

> <N_Chirals>
0

> <Name>
(3,4-dihydroisoquinolin-2(1H)-yl){5-[(furan-3-yl)methyl]-4,5,6,7-tetrahydropyrazolo[1,5-a]pyrazin-2-yl}methanone

> <Smile>
O=C(c1nn(CCN(Cc2cocc2)C2)c2c1)N(CC1)Cc2c1cccc2

> <Color>
BROWN

> <Collection>
IC

> <InChI>
InChI=1S/C21H22N4O2/c26-21(24-7-5-17-3-1-2-4-18(17)13-24)20-11-19-14-23(8-9-25(19)22-20)12-16-6-10-27-15-16/h1-4,6,10-11,15H,5,7-9,12-14H2

> <InChI Key>
CLYOICYKLNHKDA-UHFFFAOYSA-N

> <PERCENTSP3>
33.33

> <Link>
https://www.chemdiv.com/catalog/screening-compounds/compound-SB71-0413/

> <MFCDNUMBER>
MFCD32249572

> <CLNUMBER>
CM5543

> <STEREO>
ACHIRAL

> <State>
Oil

> <Similarity score>
0.27

$$$$
(3,4-dihydroisoquinolin-2(1H)-yl){5-[(1,3-dimethyl-1H-pyrazol-5-yl)methyl]-4,5,6
  -OEChem-04222410502D

 29 33  0     0  0  0  0  0  0999 V2000
   -0.5271   -0.0855    0.0000 C   0  0  0  0  0  0  0  0  0  0  0  0
   -0.4185   -1.0810    0.0000 N   0  0  0  0  0  0  0  0  0  0  0  0
    0.5560   -1.2892    0.0000 N   0  0  0  0  0  0  0  0  0  0  0  0
    1.0559   -0.4227    0.0000 C   0  0  0  0  0  0  0  0  0  0  0  0
    4.0551   -0.4227    0.0000 C   0  0  0  0  0  0  0  0  0  0  0  0
    0.3896    0.3229    0.0000 C   0  0  0  0  0  0  0  0  0  0  0  0
   -1.3892    0.4144    0.0000 C   0  0  0  0  0  0  0  0  0  0  0  0
   -2.2556   -0.0855    0.0000 N   0  0  0  0  0  0  0  0  0  0  0  0
    5.0506   -0.3186    0.0000 N   0  0  0  0  0  0  0  0  0  0  0  0
    5.2587    0.6603    0.0000 N   0  0  0  0  0  0  0  0  0  0  0  0
    3.6510    0.4893    0.0000 C   0  0  0  0  0  0  0  0  0  0  0  0
    2.5556   -1.2892    0.0000 N   0  0  0  0  0  0  0  0  0  0  0  0
    4.3923    1.1602    0.0000 C   0  0  0  0  0  0  0  0  0  0  0  0
   -3.1220    0.4144    0.0000 C   0  0  0  0  0  0  0  0  0  0  0  0
    3.5552   -1.2892    0.0000 C   0  0  0  0  0  0  0  0  0  0  0  0
    2.0557   -0.4227    0.0000 C   0  0  0  0  0  0  0  0  0  0  0  0
    1.0559   -2.1557    0.0000 C   0  0  0  0  0  0  0  0  0  0  0  0
   -3.9884   -0.0855    0.0000 C   0  0  0  0  0  0  0  0  0  0  0  0
   -2.2556   -1.0851    0.0000 C   0  0  0  0  0  0  0  0  0  0  0  0
   -1.3892    1.4142    0.0000 O   0  0  0  0  0  0  0  0  0  0  0  0
   -3.9884   -1.0851    0.0000 C   0  0  0  0  0  0  0  0  0  0  0  0
    2.0557   -2.1557    0.0000 C   0  0  0  0  0  0  0  0  0  0  0  0
   -3.1220   -1.5850    0.0000 C   0  0  0  0  0  0  0  0  0  0  0  0
    5.7212   -1.0600    0.0000 C   0  0  0  0  0  0  0  0  0  0  0  0
    4.2883    2.1557    0.0000 C   0  0  0  0  0  0  0  0  0  0  0  0
   -4.8548    0.4144    0.0000 C   0  0  0  0  0  0  0  0  0  0  0  0
   -4.8548   -1.5850    0.0000 C   0  0  0  0  0  0  0  0  0  0  0  0
   -5.7212   -0.0855    0.0000 C   0  0  0  0  0  0  0  0  0  0  0  0
   -5.7212   -1.0851    0.0000 C   0  0  0  0  0  0  0  0  0  0  0  0
  1  2  2  0  0  0  0
  2  3  1  0  0  0  0
  4  6  2  0  0  0  0
  3  4  1  0  0  0  0
  5 15  1  0  0  0  0
  1  6  1  0  0  0  0
  1  7  1  0  0  0  0
  7  8  1  0  0  0  0
  5  9  1  0  0  0  0
  9 10  1  0  0  0  0
 10 13  2  0  0  0  0
  5 11  2  0  0  0  0
 12 16  1  0  0  0  0
 11 13  1  0  0  0  0
  8 14  1  0  0  0  0
 12 15  1  0  0  0  0
  4 16  1  0  0  0  0
  3 17  1  0  0  0  0
 14 18  1  0  0  0  0
  8 19  1  0  0  0  0
  7 20  2  0  0  0  0
 21 23  1  0  0  0  0
 18 21  2  0  0  0  0
 17 22  1  0  0  0  0
 12 22  1  0  0  0  0
 19 23  1  0  0  0  0
  9 24  1  0  0  0  0
 13 25  1  0  0  0  0
 18 26  1  0  0  0  0
 21 27  1  0  0  0  0
 26 28  2  0  0  0  0
 27 29  2  0  0  0  0
 28 29  1  0  0  0  0
M  END
> <IDNUMBER>
SB71-0415

> <available>
97

> <H_acceptor>
5

> <H_donor>
0

> <B_rotN>
4

> <N_O>
7

> <logP>
1.2224

> <logD>
1.0867

> <logSw>
-2.0042

> <PSA>
47.555

> <pKa_ma>
25.6071

> <pKa_mb>
6.9645

> <N_Chirals>
0

> <Name>
(3,4-dihydroisoquinolin-2(1H)-yl){5-[(1,3-dimethyl-1H-pyrazol-5-yl)methyl]-4,5,6,7-tetrahydropyrazolo[1,5-a]pyrazin-2-yl}methanone

> <Smile>
Cc1nn(C)c(CN2Cc3cc(C(N(CC4)Cc5c4cccc5)=O)nn3CC2)c1

> <Color>
ORANGE

> <Collection>
IC

> <InChI>
InChI=1S/C22H26N6O/c1-16-11-19(25(2)23-16)14-26-9-10-28-20(15-26)12-21(24-28)22(29)27-8-7-17-5-3-4-6-18(17)13-27/h3-6,11-12H,7-10,13-15H2,1-2H3

> <InChI Key>
CUZXTBIYPXDJKE-UHFFFAOYSA-N

> <PERCENTSP3>
40.91

> <Link>
https://www.chemdiv.com/catalog/screening-compounds/compound-SB71-0415/

> <MFCDNUMBER>
MFCD32249574

> <CLNUMBER>
CM5543

> <STEREO>
ACHIRAL

> <State>
Oil

> <Similarity score>
0.27

$$$$
(3,4-dihydroisoquinolin-2(1H)-yl)(5-{[1-(propan-2-yl)-1H-pyrazol-4-yl]methyl}-4,
  -OEChem-04222410502D

 30 34  0     0  0  0  0  0  0999 V2000
   -0.2940   -0.3815    0.0000 C   0  0  0  0  0  0  0  0  0  0  0  0
   -0.1896   -1.3734    0.0000 N   0  0  0  0  0  0  0  0  0  0  0  0
    0.7899   -1.5818    0.0000 N   0  0  0  0  0  0  0  0  0  0  0  0
    1.2900   -0.7191    0.0000 C   0  0  0  0  0  0  0  0  0  0  0  0
    0.6188    0.0271    0.0000 C   0  0  0  0  0  0  0  0  0  0  0  0
   -1.1610    0.1188    0.0000 C   0  0  0  0  0  0  0  0  0  0  0  0
   -2.0280   -0.3815    0.0000 N   0  0  0  0  0  0  0  0  0  0  0  0
    4.6245    0.8649    0.0000 N   0  0  0  0  0  0  0  0  0  0  0  0
    5.4916    0.3649    0.0000 N   0  0  0  0  0  0  0  0  0  0  0  0
    4.2912   -0.7191    0.0000 C   0  0  0  0  0  0  0  0  0  0  0  0
    3.8826    0.1979    0.0000 C   0  0  0  0  0  0  0  0  0  0  0  0
    2.7906   -1.5818    0.0000 N   0  0  0  0  0  0  0  0  0  0  0  0
   -2.8948    0.1188    0.0000 C   0  0  0  0  0  0  0  0  0  0  0  0
    2.2904   -0.7191    0.0000 C   0  0  0  0  0  0  0  0  0  0  0  0
    5.2833   -0.6108    0.0000 C   0  0  0  0  0  0  0  0  0  0  0  0
    1.2900   -2.4488    0.0000 C   0  0  0  0  0  0  0  0  0  0  0  0
   -3.7618   -0.3815    0.0000 C   0  0  0  0  0  0  0  0  0  0  0  0
    3.7910   -1.5818    0.0000 C   0  0  0  0  0  0  0  0  0  0  0  0
   -2.0280   -1.3818    0.0000 C   0  0  0  0  0  0  0  0  0  0  0  0
   -1.1610    1.1193    0.0000 O   0  0  0  0  0  0  0  0  0  0  0  0
   -3.7618   -1.3818    0.0000 C   0  0  0  0  0  0  0  0  0  0  0  0
    2.2904   -2.4488    0.0000 C   0  0  0  0  0  0  0  0  0  0  0  0
    4.5205    1.8612    0.0000 C   0  0  0  0  0  0  0  0  0  0  0  0
   -2.8948   -1.8819    0.0000 C   0  0  0  0  0  0  0  0  0  0  0  0
   -4.6247    0.1188    0.0000 C   0  0  0  0  0  0  0  0  0  0  0  0
   -4.6247   -1.8819    0.0000 C   0  0  0  0  0  0  0  0  0  0  0  0
    3.6077    2.2696    0.0000 C   0  0  0  0  0  0  0  0  0  0  0  0
    5.3291    2.4488    0.0000 C   0  0  0  0  0  0  0  0  0  0  0  0
   -5.4916   -0.3815    0.0000 C   0  0  0  0  0  0  0  0  0  0  0  0
   -5.4916   -1.3818    0.0000 C   0  0  0  0  0  0  0  0  0  0  0  0
  1  2  2  0  0  0  0
  2  3  1  0  0  0  0
  4  5  2  0  0  0  0
  3  4  1  0  0  0  0
  1  5  1  0  0  0  0
  1  6  1  0  0  0  0
  6  7  1  0  0  0  0
  8 11  1  0  0  0  0
  8  9  1  0  0  0  0
  9 15  2  0  0  0  0
 10 18  1  0  0  0  0
 10 11  2  0  0  0  0
 12 14  1  0  0  0  0
  7 13  1  0  0  0  0
  4 14  1  0  0  0  0
 10 15  1  0  0  0  0
  3 16  1  0  0  0  0
 13 17  1  0  0  0  0
 12 18  1  0  0  0  0
  7 19  1  0  0  0  0
  6 20  2  0  0  0  0
 21 24  1  0  0  0  0
 17 21  2  0  0  0  0
 16 22  1  0  0  0  0
 12 22  1  0  0  0  0
  8 23  1  0  0  0  0
 19 24  1  0  0  0  0
 17 25  1  0  0  0  0
 21 26  1  0  0  0  0
 23 27  1  0  0  0  0
 23 28  1  0  0  0  0
 25 29  2  0  0  0  0
 26 30  2  0  0  0  0
 29 30  1  0  0  0  0
M  END
> <IDNUMBER>
SB71-0414

> <available>
5

> <H_acceptor>
5

> <H_donor>
0

> <B_rotN>
5

> <N_O>
7

> <logP>
2.019

> <logD>
-2.0741

> <logSw>
-2.2867

> <PSA>
48.713

> <pKa_ma>
24.5979

> <pKa_mb>
11.493

> <N_Chirals>
0

> <Name>
(3,4-dihydroisoquinolin-2(1H)-yl)(5-{[1-(propan-2-yl)-1H-pyrazol-4-yl]methyl}-4,5,6,7-tetrahydropyrazolo[1,5-a]pyrazin-2-yl)methanone

> <Smile>
CC(C)n1ncc(CN2Cc3cc(C(N(CC4)Cc5c4cccc5)=O)nn3CC2)c1

> <Color>
ORANGE

> <Collection>
IC

> <InChI>
InChI=1S/C23H28N6O/c1-17(2)29-14-18(12-24-29)13-26-9-10-28-21(16-26)11-22(25-28)23(30)27-8-7-19-5-3-4-6-20(19)15-27/h3-6,11-12,14,17H,7-10,13,15-16H2,1-2H3

> <InChI Key>
RGIHGOMKEULLNE-UHFFFAOYSA-N

> <PERCENTSP3>
43.48

> <Link>
https://www.chemdiv.com/catalog/screening-compounds/compound-SB71-0414/

> <MFCDNUMBER>
MFCD32249573

> <CLNUMBER>
CM5543

> <STEREO>
ACHIRAL

> <State>
Oil

> <Similarity score>
0.27

$$$$
(3,4-dihydroisoquinolin-2(1H)-yl){5-[(furan-2-yl)methyl]-4,5,6,7-tetrahydropyraz
  -OEChem-04222410502D

 27 31  0     0  0  0  0  0  0999 V2000
    0.2939    0.2853    0.0000 C   0  0  0  0  0  0  0  0  0  0  0  0
    0.1896   -0.7104    0.0000 N   0  0  0  0  0  0  0  0  0  0  0  0
   -0.7897   -0.9188    0.0000 N   0  0  0  0  0  0  0  0  0  0  0  0
   -1.2897   -0.0522    0.0000 C   0  0  0  0  0  0  0  0  0  0  0  0
   -0.6188    0.6896    0.0000 C   0  0  0  0  0  0  0  0  0  0  0  0
    1.1604    0.7854    0.0000 C   0  0  0  0  0  0  0  0  0  0  0  0
    2.0271    0.2853    0.0000 N   0  0  0  0  0  0  0  0  0  0  0  0
   -2.7896   -0.9188    0.0000 N   0  0  0  0  0  0  0  0  0  0  0  0
    2.8937    0.7854    0.0000 C   0  0  0  0  0  0  0  0  0  0  0  0
   -2.2897   -0.0522    0.0000 C   0  0  0  0  0  0  0  0  0  0  0  0
   -1.2897   -1.7853    0.0000 C   0  0  0  0  0  0  0  0  0  0  0  0
    3.7604    0.2853    0.0000 C   0  0  0  0  0  0  0  0  0  0  0  0
   -4.2897   -0.0522    0.0000 C   0  0  0  0  0  0  0  0  0  0  0  0
    2.0271   -0.7147    0.0000 C   0  0  0  0  0  0  0  0  0  0  0  0
   -3.8812    0.8603    0.0000 O   0  0  0  0  0  0  0  0  0  0  0  0
    1.1604    1.7853    0.0000 O   0  0  0  0  0  0  0  0  0  0  0  0
    3.7604   -0.7147    0.0000 C   0  0  0  0  0  0  0  0  0  0  0  0
   -3.7896   -0.9188    0.0000 C   0  0  0  0  0  0  0  0  0  0  0  0
   -5.2812    0.0522    0.0000 C   0  0  0  0  0  0  0  0  0  0  0  0
   -4.6230    1.5313    0.0000 C   0  0  0  0  0  0  0  0  0  0  0  0
   -2.2897   -1.7853    0.0000 C   0  0  0  0  0  0  0  0  0  0  0  0
   -5.4897    1.0310    0.0000 C   0  0  0  0  0  0  0  0  0  0  0  0
    2.8937   -1.2146    0.0000 C   0  0  0  0  0  0  0  0  0  0  0  0
    4.6228    0.7854    0.0000 C   0  0  0  0  0  0  0  0  0  0  0  0
    4.6228   -1.2146    0.0000 C   0  0  0  0  0  0  0  0  0  0  0  0
    5.4897    0.2853    0.0000 C   0  0  0  0  0  0  0  0  0  0  0  0
    5.4897   -0.7147    0.0000 C   0  0  0  0  0  0  0  0  0  0  0  0
  1  2  2  0  0  0  0
  2  3  1  0  0  0  0
  4  5  2  0  0  0  0
  3  4  1  0  0  0  0
  1  5  1  0  0  0  0
  1  6  1  0  0  0  0
  6  7  1  0  0  0  0
  8 10  1  0  0  0  0
  7  9  1  0  0  0  0
  4 10  1  0  0  0  0
  3 11  1  0  0  0  0
  9 12  1  0  0  0  0
 13 18  1  0  0  0  0
  7 14  1  0  0  0  0
 13 15  1  0  0  0  0
  6 16  2  0  0  0  0
 17 23  1  0  0  0  0
 12 17  2  0  0  0  0
  8 18  1  0  0  0  0
 13 19  2  0  0  0  0
 15 20  1  0  0  0  0
 11 21  1  0  0  0  0
  8 21  1  0  0  0  0
 19 22  1  0  0  0  0
 20 22  2  0  0  0  0
 14 23  1  0  0  0  0
 12 24  1  0  0  0  0
 17 25  1  0  0  0  0
 24 26  2  0  0  0  0
 25 27  2  0  0  0  0
 26 27  1  0  0  0  0
M  END
> <IDNUMBER>
SB71-0491

> <available>
24

> <H_acceptor>
5

> <H_donor>
0

> <B_rotN>
4

> <N_O>
6

> <logP>
2.3295

> <logD>
2.3223

> <logSw>
-2.661

> <PSA>
41.501

> <pKa_ma>
25.6071

> <pKa_mb>
5.6229

> <N_Chirals>
0

> <Name>
(3,4-dihydroisoquinolin-2(1H)-yl){5-[(furan-2-yl)methyl]-4,5,6,7-tetrahydropyrazolo[1,5-a]pyrazin-2-yl}methanone

> <Smile>
O=C(c1nn(CCN(Cc2ccco2)C2)c2c1)N(CC1)Cc2c1cccc2

> <Color>
BROWN

> <Collection>
IC

> <InChI>
InChI=1S/C21H22N4O2/c26-21(24-8-7-16-4-1-2-5-17(16)13-24)20-12-18-14-23(9-10-25(18)22-20)15-19-6-3-11-27-19/h1-6,11-12H,7-10,13-15H2

> <InChI Key>
JCAJYKLKJIZRTG-UHFFFAOYSA-N

> <PERCENTSP3>
33.33

> <Link>
https://www.chemdiv.com/catalog/screening-compounds/compound-SB71-0491/

> <MFCDNUMBER>
MFCD32249241

> <CLNUMBER>
CM5543

> <STEREO>
ACHIRAL

> <State>
Solid

> <Similarity score>
0.27

$$$$
(3,4-dihydroisoquinolin-2(1H)-yl){5-[(4-methyl-1,3-thiazol-5-yl)methyl]-4,5,6,7-
  -OEChem-04222410502D

 28 32  0     0  0  0  0  0  0999 V2000
   -0.2939   -0.2855    0.0000 C   0  0  0  0  0  0  0  0  0  0  0  0
   -0.1896    0.7104    0.0000 N   0  0  0  0  0  0  0  0  0  0  0  0
    0.7896    0.9185    0.0000 N   0  0  0  0  0  0  0  0  0  0  0  0
    1.2895    0.0521    0.0000 C   0  0  0  0  0  0  0  0  0  0  0  0
    0.6186   -0.6896    0.0000 C   0  0  0  0  0  0  0  0  0  0  0  0
   -1.1603   -0.7853    0.0000 C   0  0  0  0  0  0  0  0  0  0  0  0
   -2.0270   -0.2855    0.0000 N   0  0  0  0  0  0  0  0  0  0  0  0
    4.2893    0.0521    0.0000 C   0  0  0  0  0  0  0  0  0  0  0  0
    2.7895    0.9185    0.0000 N   0  0  0  0  0  0  0  0  0  0  0  0
    4.6226   -1.5314    0.0000 N   0  0  0  0  0  0  0  0  0  0  0  0
    3.8812   -0.8605    0.0000 C   0  0  0  0  0  0  0  0  0  0  0  0
    5.2812   -0.0521    0.0000 S   0  0  0  0  0  0  0  0  0  0  0  0
   -2.8938   -0.7853    0.0000 C   0  0  0  0  0  0  0  0  0  0  0  0
    5.4895   -1.0313    0.0000 C   0  0  0  0  0  0  0  0  0  0  0  0
    2.2895    0.0521    0.0000 C   0  0  0  0  0  0  0  0  0  0  0  0
    3.7894    0.9185    0.0000 C   0  0  0  0  0  0  0  0  0  0  0  0
    1.2895    1.7853    0.0000 C   0  0  0  0  0  0  0  0  0  0  0  0
   -3.7603   -0.2855    0.0000 C   0  0  0  0  0  0  0  0  0  0  0  0
   -2.0270    0.7145    0.0000 C   0  0  0  0  0  0  0  0  0  0  0  0
   -1.1603   -1.7853    0.0000 O   0  0  0  0  0  0  0  0  0  0  0  0
   -3.7603    0.7145    0.0000 C   0  0  0  0  0  0  0  0  0  0  0  0
    2.2895    1.7853    0.0000 C   0  0  0  0  0  0  0  0  0  0  0  0
   -2.8938    1.2145    0.0000 C   0  0  0  0  0  0  0  0  0  0  0  0
    2.9019   -1.0689    0.0000 C   0  0  0  0  0  0  0  0  0  0  0  0
   -4.6228   -0.7853    0.0000 C   0  0  0  0  0  0  0  0  0  0  0  0
   -4.6228    1.2145    0.0000 C   0  0  0  0  0  0  0  0  0  0  0  0
   -5.4895   -0.2855    0.0000 C   0  0  0  0  0  0  0  0  0  0  0  0
   -5.4895    0.7145    0.0000 C   0  0  0  0  0  0  0  0  0  0  0  0
  1  2  2  0  0  0  0
  2  3  1  0  0  0  0
  4  5  2  0  0  0  0
  3  4  1  0  0  0  0
  1  5  1  0  0  0  0
  1  6  1  0  0  0  0
  6  7  1  0  0  0  0
  8 16  1  0  0  0  0
  9 15  1  0  0  0  0
 10 11  1  0  0  0  0
  8 11  2  0  0  0  0
  8 12  1  0  0  0  0
  7 13  1  0  0  0  0
 12 14  1  0  0  0  0
 10 14  2  0  0  0  0
  4 15  1  0  0  0  0
  9 16  1  0  0  0  0
  3 17  1  0  0  0  0
 13 18  1  0  0  0  0
  7 19  1  0  0  0  0
  6 20  2  0  0  0  0
 21 23  1  0  0  0  0
 18 21  2  0  0  0  0
 17 22  1  0  0  0  0
  9 22  1  0  0  0  0
 19 23  1  0  0  0  0
 11 24  1  0  0  0  0
 18 25  1  0  0  0  0
 21 26  1  0  0  0  0
 25 27  2  0  0  0  0
 26 28  2  0  0  0  0
 27 28  1  0  0  0  0
M  END
> <IDNUMBER>
SB71-0441

> <available>
12

> <H_acceptor>
5

> <H_donor>
0

> <B_rotN>
4

> <N_O>
6

> <logP>
2.2298

> <logD>
2.2072

> <logSw>
-2.6298

> <PSA>
43.957

> <pKa_ma>
25.6071

> <pKa_mb>
6.1274

> <N_Chirals>
0

> <Name>
(3,4-dihydroisoquinolin-2(1H)-yl){5-[(4-methyl-1,3-thiazol-5-yl)methyl]-4,5,6,7-tetrahydropyrazolo[1,5-a]pyrazin-2-yl}methanone

> <Smile>
Cc1c(CN2Cc3cc(C(N(CC4)Cc5c4cccc5)=O)nn3CC2)scn1

> <Color>
ORANGE

> <Collection>
IC

> <InChI>
InChI=1S/C21H23N5OS/c1-15-20(28-14-22-15)13-24-8-9-26-18(12-24)10-19(23-26)21(27)25-7-6-16-4-2-3-5-17(16)11-25/h2-5,10,14H,6-9,11-13H2,1H3

> <InChI Key>
QWSQEEZRHZOKIY-UHFFFAOYSA-N

> <PERCENTSP3>
38.1

> <Link>
https://www.chemdiv.com/catalog/screening-compounds/compound-SB71-0441/

> <MFCDNUMBER>
MFCD32249639

> <CLNUMBER>
CM5543

> <STEREO>
ACHIRAL

> <State>
Solid

> <Similarity score>
0.27

$$$$
(3,4-dihydroisoquinolin-2(1H)-yl){5-[(pyridin-3-yl)methyl]-4,5,6,7-tetrahydropyr
  -OEChem-04222410502D

 28 32  0     0  0  0  0  0  0999 V2000
   -0.2646    0.2437    0.0000 C   0  0  0  0  0  0  0  0  0  0  0  0
   -0.6731   -0.6732    0.0000 N   0  0  0  0  0  0  0  0  0  0  0  0
    0.0688   -1.3400    0.0000 N   0  0  0  0  0  0  0  0  0  0  0  0
    0.9359   -0.8399    0.0000 C   0  0  0  0  0  0  0  0  0  0  0  0
    0.7274    0.1395    0.0000 C   0  0  0  0  0  0  0  0  0  0  0  0
   -0.7647    1.1065    0.0000 C   0  0  0  0  0  0  0  0  0  0  0  0
   -1.7649    1.1065    0.0000 N   0  0  0  0  0  0  0  0  0  0  0  0
    1.8028   -2.3402    0.0000 N   0  0  0  0  0  0  0  0  0  0  0  0
   -2.2650    1.9734    0.0000 C   0  0  0  0  0  0  0  0  0  0  0  0
    1.8028   -1.3400    0.0000 C   0  0  0  0  0  0  0  0  0  0  0  0
    0.0688   -2.3402    0.0000 C   0  0  0  0  0  0  0  0  0  0  0  0
   -3.2654    1.9734    0.0000 C   0  0  0  0  0  0  0  0  0  0  0  0
   -2.2650    0.2437    0.0000 C   0  0  0  0  0  0  0  0  0  0  0  0
   -0.2646    1.9734    0.0000 O   0  0  0  0  0  0  0  0  0  0  0  0
   -3.7655    1.1065    0.0000 C   0  0  0  0  0  0  0  0  0  0  0  0
    2.6695   -2.8403    0.0000 C   0  0  0  0  0  0  0  0  0  0  0  0
    4.4033   -0.8399    0.0000 N   0  0  0  0  0  0  0  0  0  0  0  0
    0.9359   -2.8403    0.0000 C   0  0  0  0  0  0  0  0  0  0  0  0
   -3.2654    0.2437    0.0000 C   0  0  0  0  0  0  0  0  0  0  0  0
    3.5364   -2.3402    0.0000 C   0  0  0  0  0  0  0  0  0  0  0  0
    3.5364   -1.3400    0.0000 C   0  0  0  0  0  0  0  0  0  0  0  0
   -3.7655    2.8403    0.0000 C   0  0  0  0  0  0  0  0  0  0  0  0
    5.2660   -1.3400    0.0000 C   0  0  0  0  0  0  0  0  0  0  0  0
   -4.7657    1.1065    0.0000 C   0  0  0  0  0  0  0  0  0  0  0  0
    4.4033   -2.8403    0.0000 C   0  0  0  0  0  0  0  0  0  0  0  0
    5.2660   -2.3402    0.0000 C   0  0  0  0  0  0  0  0  0  0  0  0
   -4.7657    2.8403    0.0000 C   0  0  0  0  0  0  0  0  0  0  0  0
   -5.2660    1.9734    0.0000 C   0  0  0  0  0  0  0  0  0  0  0  0
  1  2  2  0  0  0  0
  2  3  1  0  0  0  0
  4  5  2  0  0  0  0
  3  4  1  0  0  0  0
  1  5  1  0  0  0  0
  1  6  1  0  0  0  0
  6  7  1  0  0  0  0
  8 10  1  0  0  0  0
  7  9  1  0  0  0  0
  4 10  1  0  0  0  0
  3 11  1  0  0  0  0
  9 12  1  0  0  0  0
  7 13  1  0  0  0  0
  6 14  2  0  0  0  0
 15 19  1  0  0  0  0
 12 15  2  0  0  0  0
  8 16  1  0  0  0  0
 17 21  2  0  0  0  0
 11 18  1  0  0  0  0
  8 18  1  0  0  0  0
 13 19  1  0  0  0  0
 16 20  1  0  0  0  0
 20 21  1  0  0  0  0
 12 22  1  0  0  0  0
 23 26  2  0  0  0  0
 17 23  1  0  0  0  0
 15 24  1  0  0  0  0
 20 25  2  0  0  0  0
 25 26  1  0  0  0  0
 22 27  2  0  0  0  0
 24 28  2  0  0  0  0
 27 28  1  0  0  0  0
M  END
> <IDNUMBER>
SB71-0399

> <available>
9

> <H_acceptor>
5

> <H_donor>
0

> <B_rotN>
4

> <N_O>
6

> <logP>
1.6088

> <logD>
1.6035

> <logSw>
-1.3811

> <PSA>
43.27

> <pKa_ma>
25.1741

> <pKa_mb>
5.4893

> <N_Chirals>
0

> <Name>
(3,4-dihydroisoquinolin-2(1H)-yl){5-[(pyridin-3-yl)methyl]-4,5,6,7-tetrahydropyrazolo[1,5-a]pyrazin-2-yl}methanone

> <Smile>
O=C(c1nn(CCN(Cc2cnccc2)C2)c2c1)N(CC1)Cc2c1cccc2

> <Color>
YELLOW

> <Collection>
IC

> <InChI>
InChI=1S/C22H23N5O/c28-22(26-9-7-18-5-1-2-6-19(18)15-26)21-12-20-16-25(10-11-27(20)24-21)14-17-4-3-8-23-13-17/h1-6,8,12-13H,7,9-11,14-16H2

> <InChI Key>
AEDLKAQRJNFZRJ-UHFFFAOYSA-N

> <PERCENTSP3>
31.82

> <Link>
https://www.chemdiv.com/catalog/screening-compounds/compound-SB71-0399/

> <MFCDNUMBER>
MFCD32249543

> <CLNUMBER>
CM5543

> <STEREO>
ACHIRAL

> <State>
Oil

> <Similarity score>
0.27

$$$$
(3,4-dihydroisoquinolin-2(1H)-yl)[5-(oxan-4-yl)-4,5,6,7-tetrahydropyrazolo[1,5-a
  -OEChem-04222410502D

 27 31  0     0  0  0  0  0  0999 V2000
    0.4437    0.2855    0.0000 C   0  0  0  0  0  0  0  0  0  0  0  0
    0.3396   -0.7103    0.0000 N   0  0  0  0  0  0  0  0  0  0  0  0
   -1.1394   -0.0522    0.0000 C   0  0  0  0  0  0  0  0  0  0  0  0
   -0.6397   -0.9188    0.0000 N   0  0  0  0  0  0  0  0  0  0  0  0
   -0.4686    0.6895    0.0000 C   0  0  0  0  0  0  0  0  0  0  0  0
    1.3104    0.7854    0.0000 C   0  0  0  0  0  0  0  0  0  0  0  0
    2.1770    0.2855    0.0000 N   0  0  0  0  0  0  0  0  0  0  0  0
   -2.6394   -0.9188    0.0000 N   0  0  3  0  0  0  0  0  0  0  0  0
   -2.1393   -0.0522    0.0000 C   0  0  0  0  0  0  0  0  0  0  0  0
    3.0394    0.7854    0.0000 C   0  0  0  0  0  0  0  0  0  0  0  0
   -1.1394   -1.7853    0.0000 C   0  0  0  0  0  0  0  0  0  0  0  0
    3.9059    0.2855    0.0000 C   0  0  0  0  0  0  0  0  0  0  0  0
   -2.1393   -1.7853    0.0000 C   0  0  0  0  0  0  0  0  0  0  0  0
    2.1770   -0.7146    0.0000 C   0  0  0  0  0  0  0  0  0  0  0  0
   -3.6393   -0.9188    0.0000 C   0  0  0  0  0  0  0  0  0  0  0  0
    1.3104    1.7853    0.0000 O   0  0  0  0  0  0  0  0  0  0  0  0
    3.9059   -0.7146    0.0000 C   0  0  0  0  0  0  0  0  0  0  0  0
    3.0394   -1.2143    0.0000 C   0  0  0  0  0  0  0  0  0  0  0  0
   -5.6390   -0.9188    0.0000 O   0  0  0  0  0  0  0  0  0  0  0  0
   -4.1392   -1.7853    0.0000 C   0  0  0  0  0  0  0  0  0  0  0  0
   -4.1392   -0.0522    0.0000 C   0  0  0  0  0  0  0  0  0  0  0  0
   -5.1391   -1.7853    0.0000 C   0  0  0  0  0  0  0  0  0  0  0  0
   -5.1391   -0.0522    0.0000 C   0  0  0  0  0  0  0  0  0  0  0  0
    4.7724    0.7854    0.0000 C   0  0  0  0  0  0  0  0  0  0  0  0
    4.7724   -1.2143    0.0000 C   0  0  0  0  0  0  0  0  0  0  0  0
    5.6390    0.2855    0.0000 C   0  0  0  0  0  0  0  0  0  0  0  0
    5.6390   -0.7146    0.0000 C   0  0  0  0  0  0  0  0  0  0  0  0
  1  2  2  0  0  0  0
  3  5  2  0  0  0  0
  3  4  1  0  0  0  0
  2  4  1  0  0  0  0
  1  5  1  0  0  0  0
  1  6  1  0  0  0  0
  6  7  1  0  0  0  0
  8  9  1  0  0  0  0
  3  9  1  0  0  0  0
  7 10  1  0  0  0  0
  4 11  1  0  0  0  0
 10 12  1  0  0  0  0
 11 13  1  0  0  0  0
  8 13  1  0  0  0  0
  7 14  1  0  0  0  0
  8 15  1  0  0  0  0
  6 16  2  0  0  0  0
 17 18  1  0  0  0  0
 12 17  2  0  0  0  0
 14 18  1  0  0  0  0
 19 23  1  0  0  0  0
 15 20  1  0  0  0  0
 15 21  1  0  0  0  0
 20 22  1  0  0  0  0
 19 22  1  0  0  0  0
 21 23  1  0  0  0  0
 12 24  1  0  0  0  0
 17 25  1  0  0  0  0
 24 26  2  0  0  0  0
 25 27  2  0  0  0  0
 26 27  1  0  0  0  0
M  END
> <IDNUMBER>
SB71-0400

> <available>
51

> <H_acceptor>
5

> <H_donor>
0

> <B_rotN>
3

> <N_O>
6

> <logP>
1.6584

> <logD>
1.3603

> <logSw>
-2.1152

> <PSA>
41.214

> <pKa_ma>
25.6071

> <pKa_mb>
7.3941

> <N_Chirals>
0

> <Name>
(3,4-dihydroisoquinolin-2(1H)-yl)[5-(oxan-4-yl)-4,5,6,7-tetrahydropyrazolo[1,5-a]pyrazin-2-yl]methanone

> <Smile>
O=C(c1nn(CCN(C2)C3CCOCC3)c2c1)N(CC1)Cc2c1cccc2

> <Color>
ORANGE

> <Collection>
IC

> <InChI>
InChI=1S/C21H26N4O2/c26-21(24-8-5-16-3-1-2-4-17(16)14-24)20-13-19-15-23(9-10-25(19)22-20)18-6-11-27-12-7-18/h1-4,13,18H,5-12,14-15H2

> <InChI Key>
CFBNVSKHCAUJAM-UHFFFAOYSA-N

> <PERCENTSP3>
52.38

> <Link>
https://www.chemdiv.com/catalog/screening-compounds/compound-SB71-0400/

> <MFCDNUMBER>
MFCD32249544

> <CLNUMBER>
CM5543

> <STEREO>
ACHIRAL

> <State>
Oil

> <Similarity score>
0.27

$$$$
(3,4-dihydroisoquinolin-2(1H)-yl){5-[(thiophen-2-yl)methyl]-4,5,6,7-tetrahydropy
  -OEChem-04222410502D

 27 31  0     0  0  0  0  0  0999 V2000
    0.2939    0.2853    0.0000 C   0  0  0  0  0  0  0  0  0  0  0  0
    0.1896   -0.7104    0.0000 N   0  0  0  0  0  0  0  0  0  0  0  0
   -0.7897   -0.9188    0.0000 N   0  0  0  0  0  0  0  0  0  0  0  0
   -1.2897   -0.0522    0.0000 C   0  0  0  0  0  0  0  0  0  0  0  0
   -0.6188    0.6896    0.0000 C   0  0  0  0  0  0  0  0  0  0  0  0
    1.1604    0.7854    0.0000 C   0  0  0  0  0  0  0  0  0  0  0  0
    2.0271    0.2853    0.0000 N   0  0  0  0  0  0  0  0  0  0  0  0
   -2.7896   -0.9188    0.0000 N   0  0  0  0  0  0  0  0  0  0  0  0
    2.8937    0.7854    0.0000 C   0  0  0  0  0  0  0  0  0  0  0  0
   -2.2897   -0.0522    0.0000 C   0  0  0  0  0  0  0  0  0  0  0  0
   -1.2897   -1.7853    0.0000 C   0  0  0  0  0  0  0  0  0  0  0  0
   -5.2812    0.0522    0.0000 S   0  0  0  0  0  0  0  0  0  0  0  0
   -4.2897   -0.0522    0.0000 C   0  0  0  0  0  0  0  0  0  0  0  0
    3.7604    0.2853    0.0000 C   0  0  0  0  0  0  0  0  0  0  0  0
    2.0271   -0.7147    0.0000 C   0  0  0  0  0  0  0  0  0  0  0  0
    1.1604    1.7853    0.0000 O   0  0  0  0  0  0  0  0  0  0  0  0
    3.7604   -0.7147    0.0000 C   0  0  0  0  0  0  0  0  0  0  0  0
   -3.7896   -0.9188    0.0000 C   0  0  0  0  0  0  0  0  0  0  0  0
   -5.4897    1.0310    0.0000 C   0  0  0  0  0  0  0  0  0  0  0  0
   -3.8812    0.8603    0.0000 C   0  0  0  0  0  0  0  0  0  0  0  0
   -2.2897   -1.7853    0.0000 C   0  0  0  0  0  0  0  0  0  0  0  0
   -4.6230    1.5313    0.0000 C   0  0  0  0  0  0  0  0  0  0  0  0
    2.8937   -1.2146    0.0000 C   0  0  0  0  0  0  0  0  0  0  0  0
    4.6228    0.7854    0.0000 C   0  0  0  0  0  0  0  0  0  0  0  0
    4.6228   -1.2146    0.0000 C   0  0  0  0  0  0  0  0  0  0  0  0
    5.4897    0.2853    0.0000 C   0  0  0  0  0  0  0  0  0  0  0  0
    5.4897   -0.7147    0.0000 C   0  0  0  0  0  0  0  0  0  0  0  0
  1  2  2  0  0  0  0
  2  3  1  0  0  0  0
  4  5  2  0  0  0  0
  3  4  1  0  0  0  0
  1  5  1  0  0  0  0
  1  6  1  0  0  0  0
  6  7  1  0  0  0  0
  8 10  1  0  0  0  0
  7  9  1  0  0  0  0
  4 10  1  0  0  0  0
  3 11  1  0  0  0  0
 12 13  1  0  0  0  0
 13 18  1  0  0  0  0
  9 14  1  0  0  0  0
  7 15  1  0  0  0  0
  6 16  2  0  0  0  0
 17 23  1  0  0  0  0
 14 17  2  0  0  0  0
  8 18  1  0  0  0  0
 12 19  1  0  0  0  0
 19 22  2  0  0  0  0
 13 20  2  0  0  0  0
 11 21  1  0  0  0  0
  8 21  1  0  0  0  0
 20 22  1  0  0  0  0
 15 23  1  0  0  0  0
 14 24  1  0  0  0  0
 17 25  1  0  0  0  0
 24 26  2  0  0  0  0
 25 27  2  0  0  0  0
 26 27  1  0  0  0  0
M  END
> <IDNUMBER>
SB71-0412

> <available>
107

> <H_acceptor>
4

> <H_donor>
0

> <B_rotN>
4

> <N_O>
5

> <logP>
2.7508

> <logD>
2.7359

> <logSw>
-2.9716

> <PSA>
34.77

> <pKa_ma>
25.6071

> <pKa_mb>
5.9402

> <N_Chirals>
0

> <Name>
(3,4-dihydroisoquinolin-2(1H)-yl){5-[(thiophen-2-yl)methyl]-4,5,6,7-tetrahydropyrazolo[1,5-a]pyrazin-2-yl}methanone

> <Smile>
O=C(c1nn(CCN(Cc2cccs2)C2)c2c1)N(CC1)Cc2c1cccc2

> <Color>
ORANGE

> <Collection>
IC

> <InChI>
InChI=1S/C21H22N4OS/c26-21(24-8-7-16-4-1-2-5-17(16)13-24)20-12-18-14-23(9-10-25(18)22-20)15-19-6-3-11-27-19/h1-6,11-12H,7-10,13-15H2

> <InChI Key>
ZEOYJWAINOUJGG-UHFFFAOYSA-N

> <PERCENTSP3>
33.33

> <Link>
https://www.chemdiv.com/catalog/screening-compounds/compound-SB71-0412/

> <MFCDNUMBER>
MFCD32249571

> <CLNUMBER>
CM5543

> <STEREO>
ACHIRAL

> <State>
Oil

> <Similarity score>
0.27

$$$$
(morpholin-4-yl)(5-{[4-(propan-2-yl)phenyl]methyl}-4,5,6,7-tetrahydropyrazolo[1,
  -OEChem-04222410502D

 27 30  0     0  0  0  0  0  0999 V2000
    1.8818   -0.6772    0.0000 C   0  0  0  0  0  0  0  0  0  0  0  0
    2.2902    0.2397    0.0000 N   0  0  0  0  0  0  0  0  0  0  0  0
    1.5482    0.9063    0.0000 N   0  0  0  0  0  0  0  0  0  0  0  0
    0.6814    0.4062    0.0000 C   0  0  0  0  0  0  0  0  0  0  0  0
    0.8898   -0.5691    0.0000 C   0  0  0  0  0  0  0  0  0  0  0  0
    2.3821   -1.5400    0.0000 C   0  0  0  0  0  0  0  0  0  0  0  0
    3.3823   -1.5400    0.0000 N   0  0  0  0  0  0  0  0  0  0  0  0
   -0.1855    1.9069    0.0000 N   0  0  0  0  0  0  0  0  0  0  0  0
   -0.1855    0.9063    0.0000 C   0  0  0  0  0  0  0  0  0  0  0  0
    1.5482    1.9069    0.0000 C   0  0  0  0  0  0  0  0  0  0  0  0
    1.8818   -2.4070    0.0000 O   0  0  0  0  0  0  0  0  0  0  0  0
   -3.6533    0.9063    0.0000 C   0  0  0  0  0  0  0  0  0  0  0  0
    0.6814    2.4070    0.0000 C   0  0  0  0  0  0  0  0  0  0  0  0
   -1.0523    2.4070    0.0000 C   0  0  0  0  0  0  0  0  0  0  0  0
    5.3828   -1.5400    0.0000 O   0  0  0  0  0  0  0  0  0  0  0  0
   -3.6533    1.9069    0.0000 C   0  0  0  0  0  0  0  0  0  0  0  0
   -2.7863    0.4062    0.0000 C   0  0  0  0  0  0  0  0  0  0  0  0
   -1.9195    1.9069    0.0000 C   0  0  0  0  0  0  0  0  0  0  0  0
   -4.5160    0.4062    0.0000 C   0  0  0  0  0  0  0  0  0  0  0  0
   -2.7863    2.4070    0.0000 C   0  0  0  0  0  0  0  0  0  0  0  0
   -1.9195    0.9063    0.0000 C   0  0  0  0  0  0  0  0  0  0  0  0
    3.8824   -2.4070    0.0000 C   0  0  0  0  0  0  0  0  0  0  0  0
    3.8824   -0.6772    0.0000 C   0  0  0  0  0  0  0  0  0  0  0  0
    4.8826   -0.6772    0.0000 C   0  0  0  0  0  0  0  0  0  0  0  0
    4.8826   -2.4070    0.0000 C   0  0  0  0  0  0  0  0  0  0  0  0
   -4.5160   -0.5940    0.0000 C   0  0  0  0  0  0  0  0  0  0  0  0
   -5.3828    0.9063    0.0000 C   0  0  0  0  0  0  0  0  0  0  0  0
  1  2  2  0  0  0  0
  2  3  1  0  0  0  0
  4  5  2  0  0  0  0
  3  4  1  0  0  0  0
  1  5  1  0  0  0  0
  1  6  1  0  0  0  0
  6  7  1  0  0  0  0
  8  9  1  0  0  0  0
  4  9  1  0  0  0  0
  3 10  1  0  0  0  0
  6 11  2  0  0  0  0
 12 17  1  0  0  0  0
 12 16  2  0  0  0  0
 10 13  1  0  0  0  0
  8 13  1  0  0  0  0
  8 14  1  0  0  0  0
 15 24  1  0  0  0  0
 15 25  1  0  0  0  0
 16 20  1  0  0  0  0
 17 21  2  0  0  0  0
 14 18  1  0  0  0  0
 12 19  1  0  0  0  0
 18 20  2  0  0  0  0
 18 21  1  0  0  0  0
  7 22  1  0  0  0  0
  7 23  1  0  0  0  0
 23 24  1  0  0  0  0
 22 25  1  0  0  0  0
 19 26  1  0  0  0  0
 19 27  1  0  0  0  0
M  END
> <IDNUMBER>
SB71-0215

> <available>
17

> <H_acceptor>
5

> <H_donor>
0

> <B_rotN>
5

> <N_O>
6

> <logP>
2.2322

> <logD>
2.1577

> <logSw>
-2.6572

> <PSA>
41.999

> <pKa_ma>
24.078

> <pKa_mb>
6.6724

> <N_Chirals>
0

> <Name>
(morpholin-4-yl)(5-{[4-(propan-2-yl)phenyl]methyl}-4,5,6,7-tetrahydropyrazolo[1,5-a]pyrazin-2-yl)methanone

> <Smile>
CC(C)c1ccc(CN2Cc3cc(C(N4CCOCC4)=O)nn3CC2)cc1

> <Color>
ORANGE

> <Collection>
IC

> <InChI>
InChI=1S/C21H28N4O2/c1-16(2)18-5-3-17(4-6-18)14-23-7-8-25-19(15-23)13-20(22-25)21(26)24-9-11-27-12-10-24/h3-6,13,16H,7-12,14-15H2,1-2H3

> <InChI Key>
PCNNAZZWJXJWMJ-UHFFFAOYSA-N

> <PERCENTSP3>
52.38

> <Link>
https://www.chemdiv.com/catalog/screening-compounds/compound-SB71-0215/

> <MFCDNUMBER>
MFCD32249596

> <CLNUMBER>
CM5543

> <STEREO>
ACHIRAL

> <State>
Solid

> <Similarity score>
0.27

$$$$
[2-(3,4-dihydroisoquinoline-2(1H)-carbonyl)-6,7-dihydropyrazolo[1,5-a]pyrazin-5(
  -OEChem-04222410502D

 32 36  0     0  0  0  0  0  0999 V2000
    1.1295    0.7440    0.0000 C   0  0  0  0  0  0  0  0  0  0  0  0
    1.5381   -0.1730    0.0000 N   0  0  0  0  0  0  0  0  0  0  0  0
   -0.0709   -0.3397    0.0000 C   0  0  0  0  0  0  0  0  0  0  0  0
    0.7961   -0.8400    0.0000 N   0  0  0  0  0  0  0  0  0  0  0  0
    0.1376    0.6356    0.0000 C   0  0  0  0  0  0  0  0  0  0  0  0
    1.6298    1.6068    0.0000 C   0  0  0  0  0  0  0  0  0  0  0  0
   -0.9379   -1.8402    0.0000 N   0  0  0  0  0  0  0  0  0  0  0  0
    2.6302    1.6068    0.0000 N   0  0  0  0  0  0  0  0  0  0  0  0
   -1.8050   -2.3405    0.0000 C   0  0  0  0  0  0  0  0  0  0  0  0
   -0.9379   -0.8400    0.0000 C   0  0  0  0  0  0  0  0  0  0  0  0
   -2.6718   -1.8402    0.0000 C   0  0  0  0  0  0  0  0  0  0  0  0
    3.1303    2.4739    0.0000 C   0  0  0  0  0  0  0  0  0  0  0  0
    0.7961   -1.8402    0.0000 C   0  0  0  0  0  0  0  0  0  0  0  0
   -3.5388   -2.3405    0.0000 C   0  0  0  0  0  0  0  0  0  0  0  0
   -4.4017   -1.8402    0.0000 C   0  0  0  0  0  0  0  0  0  0  0  0
    4.1307    2.4739    0.0000 C   0  0  0  0  0  0  0  0  0  0  0  0
   -0.0709   -2.3405    0.0000 C   0  0  0  0  0  0  0  0  0  0  0  0
    3.1303    0.7440    0.0000 C   0  0  0  0  0  0  0  0  0  0  0  0
    1.1295    2.4739    0.0000 O   0  0  0  0  0  0  0  0  0  0  0  0
   -1.8050   -3.3409    0.0000 O   0  0  0  0  0  0  0  0  0  0  0  0
   -4.4017   -0.8400    0.0000 C   0  0  0  0  0  0  0  0  0  0  0  0
    4.6310    1.6068    0.0000 C   0  0  0  0  0  0  0  0  0  0  0  0
   -2.6718   -0.8400    0.0000 C   0  0  0  0  0  0  0  0  0  0  0  0
    4.1307    0.7440    0.0000 C   0  0  0  0  0  0  0  0  0  0  0  0
   -3.5388   -0.3397    0.0000 C   0  0  0  0  0  0  0  0  0  0  0  0
   -5.2687   -2.3405    0.0000 F   0  0  0  0  0  0  0  0  0  0  0  0
   -5.2687   -0.3397    0.0000 O   0  0  0  0  0  0  0  0  0  0  0  0
    4.6310    3.3409    0.0000 C   0  0  0  0  0  0  0  0  0  0  0  0
    5.6314    1.6068    0.0000 C   0  0  0  0  0  0  0  0  0  0  0  0
   -6.1315   -0.8400    0.0000 C   0  0  0  0  0  0  0  0  0  0  0  0
    5.6314    3.3409    0.0000 C   0  0  0  0  0  0  0  0  0  0  0  0
    6.1315    2.4739    0.0000 C   0  0  0  0  0  0  0  0  0  0  0  0
  1  2  2  0  0  0  0
  3  5  2  0  0  0  0
  3  4  1  0  0  0  0
  2  4  1  0  0  0  0
  1  5  1  0  0  0  0
  1  6  1  0  0  0  0
  7 10  1  0  0  0  0
  6  8  1  0  0  0  0
  7  9  1  0  0  0  0
  3 10  1  0  0  0  0
  9 11  1  0  0  0  0
  8 12  1  0  0  0  0
  4 13  1  0  0  0  0
 11 14  2  0  0  0  0
 14 15  1  0  0  0  0
 15 21  2  0  0  0  0
 12 16  1  0  0  0  0
 13 17  1  0  0  0  0
  7 17  1  0  0  0  0
  8 18  1  0  0  0  0
  6 19  2  0  0  0  0
  9 20  2  0  0  0  0
 21 25  1  0  0  0  0
 22 24  1  0  0  0  0
 16 22  2  0  0  0  0
 11 23  1  0  0  0  0
 18 24  1  0  0  0  0
 23 25  2  0  0  0  0
 15 26  1  0  0  0  0
 21 27  1  0  0  0  0
 16 28  1  0  0  0  0
 22 29  1  0  0  0  0
 27 30  1  0  0  0  0
 28 31  2  0  0  0  0
 29 32  2  0  0  0  0
 31 32  1  0  0  0  0
M  END
> <IDNUMBER>
SB71-0436

> <available>
22

> <H_acceptor>
6

> <H_donor>
0

> <B_rotN>
5

> <N_O>
7

> <logP>
2.4175

> <logD>
2.4175

> <logSw>
-2.7692

> <PSA>
54.298

> <pKa_ma>
25.6071

> <pKa_mb>
-4.5639

> <N_Chirals>
0

> <Name>
[2-(3,4-dihydroisoquinoline-2(1H)-carbonyl)-6,7-dihydropyrazolo[1,5-a]pyrazin-5(4H)-yl](3-fluoro-4-methoxyphenyl)methanone

> <Smile>
COc(ccc(C(N1Cc2cc(C(N(CC3)Cc4c3cccc4)=O)nn2CC1)=O)c1)c1F

> <Color>
NOT COLORED

> <Collection>
IC

> <InChI>
InChI=1S/C24H23FN4O3/c1-32-22-7-6-17(12-20(22)25)23(30)28-10-11-29-19(15-28)13-21(26-29)24(31)27-9-8-16-4-2-3-5-18(16)14-27/h2-7,12-13H,8-11,14-15H2,1H3

> <InChI Key>
HLDAPYMLNCJRNF-UHFFFAOYSA-N

> <PERCENTSP3>
29.17

> <Link>
https://www.chemdiv.com/catalog/screening-compounds/compound-SB71-0436/

> <MFCDNUMBER>
MFCD32249604

> <CLNUMBER>
CM5543

> <STEREO>
ACHIRAL

> <State>
Solid

> <Similarity score>
0.27

$$$$
5-[(1H-indol-3-yl)methyl]-N-(2-methoxyethyl)-4,5,6,7-tetrahydropyrazolo[1,5-a]py
  -OEChem-04222410502D

 26 29  0     0  0  0  0  0  0999 V2000
    2.7684   -1.4437    0.0000 C   0  0  0  0  0  0  0  0  0  0  0  0
    2.4601   -2.3935    0.0000 N   0  0  0  0  0  0  0  0  0  0  0  0
    1.4601   -2.3935    0.0000 N   0  0  0  0  0  0  0  0  0  0  0  0
    1.1520   -1.4437    0.0000 C   0  0  0  0  0  0  0  0  0  0  0  0
    1.9603   -0.8563    0.0000 C   0  0  0  0  0  0  0  0  0  0  0  0
   -1.7810   -0.8189    0.0000 C   0  0  0  0  0  0  0  0  0  0  0  0
   -1.7810    0.7977    0.0000 N   0  0  0  0  0  0  0  0  0  0  0  0
   -1.1936   -0.0105    0.0000 C   0  0  0  0  0  0  0  0  0  0  0  0
    3.7224   -1.1353    0.0000 C   0  0  0  0  0  0  0  0  0  0  0  0
   -0.4936   -1.9769    0.0000 N   0  0  0  0  0  0  0  0  0  0  0  0
   -2.7309   -0.5104    0.0000 C   0  0  0  0  0  0  0  0  0  0  0  0
    0.1728   -1.2354    0.0000 C   0  0  0  0  0  0  0  0  0  0  0  0
   -1.4727   -1.7728    0.0000 C   0  0  0  0  0  0  0  0  0  0  0  0
    0.7938   -3.1392    0.0000 C   0  0  0  0  0  0  0  0  0  0  0  0
   -2.7309    0.4895    0.0000 C   0  0  0  0  0  0  0  0  0  0  0  0
    4.4640   -1.8019    0.0000 O   0  0  0  0  0  0  0  0  0  0  0  0
   -0.1853   -2.9310    0.0000 C   0  0  0  0  0  0  0  0  0  0  0  0
    3.9308   -0.1564    0.0000 N   0  0  0  0  0  0  0  0  0  0  0  0
   -3.5976   -1.0104    0.0000 C   0  0  0  0  0  0  0  0  0  0  0  0
    2.6518    2.1600    0.0000 O   0  0  0  0  0  0  0  0  0  0  0  0
   -3.5976    0.9895    0.0000 C   0  0  0  0  0  0  0  0  0  0  0  0
    3.1851    0.5103    0.0000 C   0  0  0  0  0  0  0  0  0  0  0  0
    3.3933    1.4894    0.0000 C   0  0  0  0  0  0  0  0  0  0  0  0
    2.8600    3.1392    0.0000 C   0  0  0  0  0  0  0  0  0  0  0  0
   -4.4640   -0.5104    0.0000 C   0  0  0  0  0  0  0  0  0  0  0  0
   -4.4640    0.4895    0.0000 C   0  0  0  0  0  0  0  0  0  0  0  0
  1  2  2  0  0  0  0
  2  3  1  0  0  0  0
  4  5  2  0  0  0  0
  3  4  1  0  0  0  0
  1  5  1  0  0  0  0
  6 13  1  0  0  0  0
  7  8  1  0  0  0  0
  7 15  1  0  0  0  0
  6  8  2  0  0  0  0
  1  9  1  0  0  0  0
 10 12  1  0  0  0  0
  6 11  1  0  0  0  0
  4 12  1  0  0  0  0
 10 13  1  0  0  0  0
  3 14  1  0  0  0  0
 11 15  1  0  0  0  0
  9 16  2  0  0  0  0
 14 17  1  0  0  0  0
 10 17  1  0  0  0  0
  9 18  1  0  0  0  0
 11 19  2  0  0  0  0
 20 23  1  0  0  0  0
 15 21  2  0  0  0  0
 18 22  1  0  0  0  0
 22 23  1  0  0  0  0
 20 24  1  0  0  0  0
 19 25  1  0  0  0  0
 25 26  2  0  0  0  0
 21 26  1  0  0  0  0
M  END
> <IDNUMBER>
SB71-0317

> <available>
4

> <H_acceptor>
5

> <H_donor>
2

> <B_rotN>
7

> <N_O>
7

> <logP>
1.2257

> <logD>
0.8706

> <logSw>
-2.3228

> <PSA>
60.181

> <pKa_ma>
13.9875

> <pKa_mb>
7.502

> <N_Chirals>
0

> <Name>
5-[(1H-indol-3-yl)methyl]-N-(2-methoxyethyl)-4,5,6,7-tetrahydropyrazolo[1,5-a]pyrazine-2-carboxamide

> <Smile>
COCCNC(c1nn(CCN(Cc2c[nH]c3c2cccc3)C2)c2c1)=O

> <Color>
ORANGE

> <Collection>
IC

> <InChI>
InChI=1S/C19H23N5O2/c1-26-9-6-20-19(25)18-10-15-13-23(7-8-24(15)22-18)12-14-11-21-17-5-3-2-4-16(14)17/h2-5,10-11,21H,6-9,12-13H2,1H3,(H,20,25)

> <InChI Key>
XWWMRZNTHOLHNJ-UHFFFAOYSA-N

> <PERCENTSP3>
36.84

> <Link>
https://www.chemdiv.com/catalog/screening-compounds/compound-SB71-0317/

> <MFCDNUMBER>
MFCD32249386

> <CLNUMBER>
CM5543

> <STEREO>
ACHIRAL

> <State>
Oil

> <Similarity score>
0.27

$$$$
5-(1H-indole-5-carbonyl)-N,N-dimethyl-4,5,6,7-tetrahydropyrazolo[1,5-a]pyrazine-
  -OEChem-04222410502D

 25 28  0     0  0  0  0  0  0999 V2000
    2.1395   -1.1769    0.0000 C   0  0  0  0  0  0  0  0  0  0  0  0
    2.5437   -0.2603    0.0000 N   0  0  0  0  0  0  0  0  0  0  0  0
    0.9353   -0.0938    0.0000 C   0  0  0  0  0  0  0  0  0  0  0  0
    1.8020    0.4063    0.0000 N   0  0  0  0  0  0  0  0  0  0  0  0
    1.1437   -1.0726    0.0000 C   0  0  0  0  0  0  0  0  0  0  0  0
    0.0687    1.4063    0.0000 N   0  0  0  0  0  0  0  0  0  0  0  0
    2.6394   -2.0393    0.0000 C   0  0  0  0  0  0  0  0  0  0  0  0
   -0.7979    1.9062    0.0000 C   0  0  0  0  0  0  0  0  0  0  0  0
    0.0687    0.4063    0.0000 C   0  0  0  0  0  0  0  0  0  0  0  0
   -1.6645    1.4063    0.0000 C   0  0  0  0  0  0  0  0  0  0  0  0
    1.8020    1.4063    0.0000 C   0  0  0  0  0  0  0  0  0  0  0  0
   -2.5270   -0.0938    0.0000 C   0  0  0  0  0  0  0  0  0  0  0  0
   -1.6645    0.4063    0.0000 C   0  0  0  0  0  0  0  0  0  0  0  0
   -4.1395   -0.2603    0.0000 N   0  0  0  0  0  0  0  0  0  0  0  0
    0.9353    1.9062    0.0000 C   0  0  0  0  0  0  0  0  0  0  0  0
   -3.3936    0.4063    0.0000 C   0  0  0  0  0  0  0  0  0  0  0  0
    3.6394   -2.0393    0.0000 N   0  0  0  0  0  0  0  0  0  0  0  0
   -3.7312   -1.1769    0.0000 C   0  0  0  0  0  0  0  0  0  0  0  0
    2.1395   -2.9062    0.0000 O   0  0  0  0  0  0  0  0  0  0  0  0
   -0.7979    2.9062    0.0000 O   0  0  0  0  0  0  0  0  0  0  0  0
   -2.7354   -1.0726    0.0000 C   0  0  0  0  0  0  0  0  0  0  0  0
   -2.5270    1.9062    0.0000 C   0  0  0  0  0  0  0  0  0  0  0  0
   -3.3936    1.4063    0.0000 C   0  0  0  0  0  0  0  0  0  0  0  0
    4.1395   -1.1769    0.0000 C   0  0  0  0  0  0  0  0  0  0  0  0
    4.1395   -2.9062    0.0000 C   0  0  0  0  0  0  0  0  0  0  0  0
  1  2  2  0  0  0  0
  3  5  2  0  0  0  0
  3  4  1  0  0  0  0
  2  4  1  0  0  0  0
  1  5  1  0  0  0  0
  6  9  1  0  0  0  0
  1  7  1  0  0  0  0
  6  8  1  0  0  0  0
  3  9  1  0  0  0  0
  8 10  1  0  0  0  0
  4 11  1  0  0  0  0
 12 13  2  0  0  0  0
 10 13  1  0  0  0  0
 14 16  1  0  0  0  0
 11 15  1  0  0  0  0
  6 15  1  0  0  0  0
 16 23  2  0  0  0  0
 12 16  1  0  0  0  0
  7 17  1  0  0  0  0
 18 21  2  0  0  0  0
 14 18  1  0  0  0  0
  7 19  2  0  0  0  0
  8 20  2  0  0  0  0
 12 21  1  0  0  0  0
 10 22  2  0  0  0  0
 22 23  1  0  0  0  0
 17 24  1  0  0  0  0
 17 25  1  0  0  0  0
M  END
> <IDNUMBER>
SB71-0031

> <available>
49

> <H_acceptor>
5

> <H_donor>
1

> <B_rotN>
4

> <N_O>
7

> <logP>
-0.0138

> <logD>
-0.0138

> <logSw>
-2.1427

> <PSA>
56.139

> <pKa_ma>
17.0537

> <pKa_mb>
-2.791

> <N_Chirals>
0

> <Name>
5-(1H-indole-5-carbonyl)-N,N-dimethyl-4,5,6,7-tetrahydropyrazolo[1,5-a]pyrazine-2-carboxamide

> <Smile>
CN(C)C(c1nn(CCN(C2)C(c(cc3)cc4c3[nH]cc4)=O)c2c1)=O

> <Color>
NOT COLORED

> <Collection>
IC

> <InChI>
InChI=1S/C18H19N5O2/c1-21(2)18(25)16-10-14-11-22(7-8-23(14)20-16)17(24)13-3-4-15-12(9-13)5-6-19-15/h3-6,9-10,19H,7-8,11H2,1-2H3

> <InChI Key>
PUVZOXQPRHYALJ-UHFFFAOYSA-N

> <PERCENTSP3>
27.78

> <Link>
https://www.chemdiv.com/catalog/screening-compounds/compound-SB71-0031/

> <MFCDNUMBER>
MFCD32249162

> <CLNUMBER>
CM5543

> <STEREO>
ACHIRAL

> <State>
Solid

> <Similarity score>
0.27

$$$$
(3,4-dihydroisoquinolin-2(1H)-yl){5-[(3-methylthiophen-2-yl)methyl]-4,5,6,7-tetr
  -OEChem-04222410502D

 28 32  0     0  0  0  0  0  0999 V2000
    0.2939    0.2853    0.0000 C   0  0  0  0  0  0  0  0  0  0  0  0
    0.1896   -0.7104    0.0000 N   0  0  0  0  0  0  0  0  0  0  0  0
   -0.7896   -0.9190    0.0000 N   0  0  0  0  0  0  0  0  0  0  0  0
   -1.2897   -0.0521    0.0000 C   0  0  0  0  0  0  0  0  0  0  0  0
   -0.6186    0.6896    0.0000 C   0  0  0  0  0  0  0  0  0  0  0  0
    1.1602    0.7853    0.0000 C   0  0  0  0  0  0  0  0  0  0  0  0
    2.0270    0.2853    0.0000 N   0  0  0  0  0  0  0  0  0  0  0  0
   -4.2895   -0.0521    0.0000 C   0  0  0  0  0  0  0  0  0  0  0  0
   -2.7895   -0.9190    0.0000 N   0  0  0  0  0  0  0  0  0  0  0  0
    2.8938    0.7853    0.0000 C   0  0  0  0  0  0  0  0  0  0  0  0
   -3.8812    0.8605    0.0000 C   0  0  0  0  0  0  0  0  0  0  0  0
   -2.2896   -0.0521    0.0000 C   0  0  0  0  0  0  0  0  0  0  0  0
   -5.2812    0.0521    0.0000 S   0  0  0  0  0  0  0  0  0  0  0  0
   -1.2897   -1.7853    0.0000 C   0  0  0  0  0  0  0  0  0  0  0  0
   -3.7894   -0.9190    0.0000 C   0  0  0  0  0  0  0  0  0  0  0  0
    3.7603    0.2853    0.0000 C   0  0  0  0  0  0  0  0  0  0  0  0
   -5.4895    1.0312    0.0000 C   0  0  0  0  0  0  0  0  0  0  0  0
    2.0270   -0.7147    0.0000 C   0  0  0  0  0  0  0  0  0  0  0  0
    1.1602    1.7853    0.0000 O   0  0  0  0  0  0  0  0  0  0  0  0
   -4.6228    1.5312    0.0000 C   0  0  0  0  0  0  0  0  0  0  0  0
    3.7603   -0.7147    0.0000 C   0  0  0  0  0  0  0  0  0  0  0  0
   -2.2896   -1.7853    0.0000 C   0  0  0  0  0  0  0  0  0  0  0  0
    2.8938   -1.2145    0.0000 C   0  0  0  0  0  0  0  0  0  0  0  0
   -2.9022    1.0687    0.0000 C   0  0  0  0  0  0  0  0  0  0  0  0
    4.6226    0.7853    0.0000 C   0  0  0  0  0  0  0  0  0  0  0  0
    4.6226   -1.2145    0.0000 C   0  0  0  0  0  0  0  0  0  0  0  0
    5.4895    0.2853    0.0000 C   0  0  0  0  0  0  0  0  0  0  0  0
    5.4895   -0.7147    0.0000 C   0  0  0  0  0  0  0  0  0  0  0  0
  1  2  2  0  0  0  0
  2  3  1  0  0  0  0
  4  5  2  0  0  0  0
  3  4  1  0  0  0  0
  1  5  1  0  0  0  0
  1  6  1  0  0  0  0
  6  7  1  0  0  0  0
  8 15  1  0  0  0  0
  9 12  1  0  0  0  0
  7 10  1  0  0  0  0
  8 11  2  0  0  0  0
  4 12  1  0  0  0  0
  8 13  1  0  0  0  0
  3 14  1  0  0  0  0
  9 15  1  0  0  0  0
 10 16  1  0  0  0  0
 13 17  1  0  0  0  0
 17 20  2  0  0  0  0
  7 18  1  0  0  0  0
  6 19  2  0  0  0  0
 11 20  1  0  0  0  0
 21 23  1  0  0  0  0
 16 21  2  0  0  0  0
 14 22  1  0  0  0  0
  9 22  1  0  0  0  0
 18 23  1  0  0  0  0
 11 24  1  0  0  0  0
 16 25  1  0  0  0  0
 21 26  1  0  0  0  0
 25 27  2  0  0  0  0
 26 28  2  0  0  0  0
 27 28  1  0  0  0  0
M  END
> <IDNUMBER>
SB71-0438

> <available>
5

> <H_acceptor>
4

> <H_donor>
0

> <B_rotN>
4

> <N_O>
5

> <logP>
3.2087

> <logD>
3.1996

> <logSw>
-3.1372

> <PSA>
34.77

> <pKa_ma>
25.6071

> <pKa_mb>
5.7242

> <N_Chirals>
0

> <Name>
(3,4-dihydroisoquinolin-2(1H)-yl){5-[(3-methylthiophen-2-yl)methyl]-4,5,6,7-tetrahydropyrazolo[1,5-a]pyrazin-2-yl}methanone

> <Smile>
Cc1c(CN2Cc3cc(C(N(CC4)Cc5c4cccc5)=O)nn3CC2)scc1

> <Color>
ORANGE

> <Collection>
IC

> <InChI>
InChI=1S/C22H24N4OS/c1-16-7-11-28-21(16)15-24-9-10-26-19(14-24)12-20(23-26)22(27)25-8-6-17-4-2-3-5-18(17)13-25/h2-5,7,11-12H,6,8-10,13-15H2,1H3

> <InChI Key>
CIXZZFHURSJUSI-UHFFFAOYSA-N

> <PERCENTSP3>
36.36

> <Link>
https://www.chemdiv.com/catalog/screening-compounds/compound-SB71-0438/

> <MFCDNUMBER>
MFCD32249606

> <CLNUMBER>
CM5543

> <STEREO>
ACHIRAL

> <State>
Oil

> <Similarity score>
0.27

$$$$
(3,4-dihydroisoquinolin-2(1H)-yl){5-[(1,5-dimethyl-1H-pyrazol-4-yl)methyl]-4,5,6
  -OEChem-04222410502D

 29 33  0     0  0  0  0  0  0999 V2000
   -0.7520   -0.2855    0.0000 C   0  0  0  0  0  0  0  0  0  0  0  0
   -0.6477    0.7104    0.0000 N   0  0  0  0  0  0  0  0  0  0  0  0
    0.3312    0.9187    0.0000 N   0  0  0  0  0  0  0  0  0  0  0  0
    0.8314    0.0520    0.0000 C   0  0  0  0  0  0  0  0  0  0  0  0
    3.8311    0.0520    0.0000 C   0  0  0  0  0  0  0  0  0  0  0  0
    0.1604   -0.6894    0.0000 C   0  0  0  0  0  0  0  0  0  0  0  0
   -1.6187   -0.7853    0.0000 C   0  0  0  0  0  0  0  0  0  0  0  0
   -2.4851   -0.2855    0.0000 N   0  0  0  0  0  0  0  0  0  0  0  0
    4.1687   -1.5311    0.0000 N   0  0  0  0  0  0  0  0  0  0  0  0
    4.8270   -0.0520    0.0000 C   0  0  0  0  0  0  0  0  0  0  0  0
    5.0351   -1.0312    0.0000 N   0  0  0  0  0  0  0  0  0  0  0  0
    3.4228   -0.8603    0.0000 C   0  0  0  0  0  0  0  0  0  0  0  0
    2.3312    0.9187    0.0000 N   0  0  0  0  0  0  0  0  0  0  0  0
   -3.3477   -0.7853    0.0000 C   0  0  0  0  0  0  0  0  0  0  0  0
    3.3312    0.9187    0.0000 C   0  0  0  0  0  0  0  0  0  0  0  0
    1.8313    0.0520    0.0000 C   0  0  0  0  0  0  0  0  0  0  0  0
    0.8314    1.7852    0.0000 C   0  0  0  0  0  0  0  0  0  0  0  0
   -4.2144   -0.2855    0.0000 C   0  0  0  0  0  0  0  0  0  0  0  0
   -2.4851    0.7146    0.0000 C   0  0  0  0  0  0  0  0  0  0  0  0
   -1.6187   -1.7852    0.0000 O   0  0  0  0  0  0  0  0  0  0  0  0
   -4.2144    0.7146    0.0000 C   0  0  0  0  0  0  0  0  0  0  0  0
    1.8313    1.7852    0.0000 C   0  0  0  0  0  0  0  0  0  0  0  0
   -3.3477    1.2146    0.0000 C   0  0  0  0  0  0  0  0  0  0  0  0
    5.9475   -1.4354    0.0000 C   0  0  0  0  0  0  0  0  0  0  0  0
    5.4935    0.6895    0.0000 C   0  0  0  0  0  0  0  0  0  0  0  0
   -5.0809   -0.7853    0.0000 C   0  0  0  0  0  0  0  0  0  0  0  0
   -5.0809    1.2146    0.0000 C   0  0  0  0  0  0  0  0  0  0  0  0
   -5.9475   -0.2855    0.0000 C   0  0  0  0  0  0  0  0  0  0  0  0
   -5.9475    0.7146    0.0000 C   0  0  0  0  0  0  0  0  0  0  0  0
  1  2  2  0  0  0  0
  2  3  1  0  0  0  0
  4  6  2  0  0  0  0
  3  4  1  0  0  0  0
  5 15  1  0  0  0  0
  1  6  1  0  0  0  0
  1  7  1  0  0  0  0
  7  8  1  0  0  0  0
  9 12  2  0  0  0  0
  5 10  2  0  0  0  0
 10 11  1  0  0  0  0
  9 11  1  0  0  0  0
  5 12  1  0  0  0  0
 13 16  1  0  0  0  0
  8 14  1  0  0  0  0
 13 15  1  0  0  0  0
  4 16  1  0  0  0  0
  3 17  1  0  0  0  0
 14 18  1  0  0  0  0
  8 19  1  0  0  0  0
  7 20  2  0  0  0  0
 21 23  1  0  0  0  0
 18 21  2  0  0  0  0
 17 22  1  0  0  0  0
 13 22  1  0  0  0  0
 19 23  1  0  0  0  0
 11 24  1  0  0  0  0
 10 25  1  0  0  0  0
 18 26  1  0  0  0  0
 21 27  1  0  0  0  0
 26 28  2  0  0  0  0
 27 29  2  0  0  0  0
 28 29  1  0  0  0  0
M  END
> <IDNUMBER>
SB71-0489

> <available>
30

> <H_acceptor>
5

> <H_donor>
0

> <B_rotN>
4

> <N_O>
7

> <logP>
1.415

> <logD>
-1.0301

> <logSw>
-1.9228

> <PSA>
48.238

> <pKa_ma>
24.232

> <pKa_mb>
9.8435

> <N_Chirals>
0

> <Name>
(3,4-dihydroisoquinolin-2(1H)-yl){5-[(1,5-dimethyl-1H-pyrazol-4-yl)methyl]-4,5,6,7-tetrahydropyrazolo[1,5-a]pyrazin-2-yl}methanone

> <Smile>
Cc1c(CN2Cc3cc(C(N(CC4)Cc5c4cccc5)=O)nn3CC2)cnn1C

> <Color>
YELLOW

> <Collection>
IC

> <InChI>
InChI=1S/C22H26N6O/c1-16-19(12-23-25(16)2)13-26-9-10-28-20(15-26)11-21(24-28)22(29)27-8-7-17-5-3-4-6-18(17)14-27/h3-6,11-12H,7-10,13-15H2,1-2H3

> <InChI Key>
CTCWJDDTJFXJCA-UHFFFAOYSA-N

> <PERCENTSP3>
40.91

> <Link>
https://www.chemdiv.com/catalog/screening-compounds/compound-SB71-0489/

> <MFCDNUMBER>
MFCD32249240

> <CLNUMBER>
CM5543

> <STEREO>
ACHIRAL

> <State>
Solid

> <Similarity score>
0.27

$$$$
(5-cyclohexyl-4,5,6,7-tetrahydropyrazolo[1,5-a]pyrazin-2-yl)(3,4-dihydroisoquino
  -OEChem-04222410502D

 27 31  0     0  0  0  0  0  0999 V2000
    0.4437    0.2855    0.0000 C   0  0  0  0  0  0  0  0  0  0  0  0
    0.3396   -0.7103    0.0000 N   0  0  0  0  0  0  0  0  0  0  0  0
   -1.1394   -0.0522    0.0000 C   0  0  0  0  0  0  0  0  0  0  0  0
   -0.6397   -0.9188    0.0000 N   0  0  0  0  0  0  0  0  0  0  0  0
   -0.4686    0.6895    0.0000 C   0  0  0  0  0  0  0  0  0  0  0  0
    1.3104    0.7854    0.0000 C   0  0  0  0  0  0  0  0  0  0  0  0
    2.1770    0.2855    0.0000 N   0  0  0  0  0  0  0  0  0  0  0  0
   -2.6394   -0.9188    0.0000 N   0  0  3  0  0  0  0  0  0  0  0  0
   -2.1393   -0.0522    0.0000 C   0  0  0  0  0  0  0  0  0  0  0  0
    3.0394    0.7854    0.0000 C   0  0  0  0  0  0  0  0  0  0  0  0
   -1.1394   -1.7853    0.0000 C   0  0  0  0  0  0  0  0  0  0  0  0
    3.9059    0.2855    0.0000 C   0  0  0  0  0  0  0  0  0  0  0  0
   -2.1393   -1.7853    0.0000 C   0  0  0  0  0  0  0  0  0  0  0  0
    2.1770   -0.7146    0.0000 C   0  0  0  0  0  0  0  0  0  0  0  0
    1.3104    1.7853    0.0000 O   0  0  0  0  0  0  0  0  0  0  0  0
    3.9059   -0.7146    0.0000 C   0  0  0  0  0  0  0  0  0  0  0  0
   -3.6393   -0.9188    0.0000 C   0  0  0  0  0  0  0  0  0  0  0  0
    3.0394   -1.2143    0.0000 C   0  0  0  0  0  0  0  0  0  0  0  0
    4.7724    0.7854    0.0000 C   0  0  0  0  0  0  0  0  0  0  0  0
    4.7724   -1.2143    0.0000 C   0  0  0  0  0  0  0  0  0  0  0  0
   -4.1392   -0.0522    0.0000 C   0  0  0  0  0  0  0  0  0  0  0  0
   -4.1392   -1.7853    0.0000 C   0  0  0  0  0  0  0  0  0  0  0  0
    5.6390    0.2855    0.0000 C   0  0  0  0  0  0  0  0  0  0  0  0
    5.6390   -0.7146    0.0000 C   0  0  0  0  0  0  0  0  0  0  0  0
   -5.1391   -1.7853    0.0000 C   0  0  0  0  0  0  0  0  0  0  0  0
   -5.1391   -0.0522    0.0000 C   0  0  0  0  0  0  0  0  0  0  0  0
   -5.6390   -0.9188    0.0000 C   0  0  0  0  0  0  0  0  0  0  0  0
  1  2  2  0  0  0  0
  3  5  2  0  0  0  0
  3  4  1  0  0  0  0
  2  4  1  0  0  0  0
  1  5  1  0  0  0  0
  1  6  1  0  0  0  0
  6  7  1  0  0  0  0
  8  9  1  0  0  0  0
  3  9  1  0  0  0  0
  7 10  1  0  0  0  0
  4 11  1  0  0  0  0
 10 12  1  0  0  0  0
 11 13  1  0  0  0  0
  8 13  1  0  0  0  0
  7 14  1  0  0  0  0
  6 15  2  0  0  0  0
 16 18  1  0  0  0  0
 12 16  2  0  0  0  0
  8 17  1  0  0  0  0
 14 18  1  0  0  0  0
 12 19  1  0  0  0  0
 16 20  1  0  0  0  0
 17 21  1  0  0  0  0
 17 22  1  0  0  0  0
 19 23  2  0  0  0  0
 20 24  2  0  0  0  0
 23 24  1  0  0  0  0
 22 25  1  0  0  0  0
 21 26  1  0  0  0  0
 25 27  1  0  0  0  0
 26 27  1  0  0  0  0
M  END
> <IDNUMBER>
SB71-0494

> <available>
70

> <H_acceptor>
4

> <H_donor>
0

> <B_rotN>
3

> <N_O>
5

> <logP>
3.1331

> <logD>
2.9088

> <logSw>
-3.1324

> <PSA>
33.305

> <pKa_ma>
25.6071

> <pKa_mb>
7.2301

> <N_Chirals>
0

> <Name>
(5-cyclohexyl-4,5,6,7-tetrahydropyrazolo[1,5-a]pyrazin-2-yl)(3,4-dihydroisoquinolin-2(1H)-yl)methanone

> <Smile>
O=C(c1nn(CCN(C2)C3CCCCC3)c2c1)N(CC1)Cc2c1cccc2

> <Color>
BROWN

> <Collection>
IC

> <InChI>
InChI=1S/C22H28N4O/c27-22(25-11-10-17-6-4-5-7-18(17)15-25)21-14-20-16-24(12-13-26(20)23-21)19-8-2-1-3-9-19/h4-7,14,19H,1-3,8-13,15-16H2

> <InChI Key>
UKWLCXUCEPGMGD-UHFFFAOYSA-N

> <PERCENTSP3>
54.54

> <Link>
https://www.chemdiv.com/catalog/screening-compounds/compound-SB71-0494/

> <MFCDNUMBER>
MFCD32249267

> <CLNUMBER>
CM5543

> <STEREO>
ACHIRAL

> <State>
Liquid

> <Similarity score>
0.27

$$$$
5-[(2-fluorophenyl)acetyl]-N,N-dimethyl-4,5,6,7-tetrahydropyrazolo[1,5-a]pyrazin
  -OEChem-04222410502D

 24 26  0     0  0  0  0  0  0999 V2000
    2.1988    1.4277    0.0000 C   0  0  0  0  0  0  0  0  0  0  0  0
    2.6074    0.5106    0.0000 N   0  0  0  0  0  0  0  0  0  0  0  0
    0.9983    0.3440    0.0000 C   0  0  0  0  0  0  0  0  0  0  0  0
    1.8653   -0.1563    0.0000 N   0  0  0  0  0  0  0  0  0  0  0  0
    1.2067    1.3193    0.0000 C   0  0  0  0  0  0  0  0  0  0  0  0
    0.1312   -1.1567    0.0000 N   0  0  0  0  0  0  0  0  0  0  0  0
    2.6989    2.2906    0.0000 C   0  0  0  0  0  0  0  0  0  0  0  0
   -0.7357   -1.6569    0.0000 C   0  0  0  0  0  0  0  0  0  0  0  0
    0.1312   -0.1563    0.0000 C   0  0  0  0  0  0  0  0  0  0  0  0
   -1.6027   -1.1567    0.0000 C   0  0  0  0  0  0  0  0  0  0  0  0
    1.8653   -1.1567    0.0000 C   0  0  0  0  0  0  0  0  0  0  0  0
   -2.4696   -1.6569    0.0000 C   0  0  0  0  0  0  0  0  0  0  0  0
    3.6993    2.2906    0.0000 N   0  0  0  0  0  0  0  0  0  0  0  0
    0.9983   -1.6569    0.0000 C   0  0  0  0  0  0  0  0  0  0  0  0
    2.1988    3.1576    0.0000 O   0  0  0  0  0  0  0  0  0  0  0  0
   -0.7357   -2.6573    0.0000 O   0  0  0  0  0  0  0  0  0  0  0  0
   -3.3326   -1.1567    0.0000 C   0  0  0  0  0  0  0  0  0  0  0  0
   -3.3326   -0.1563    0.0000 F   0  0  0  0  0  0  0  0  0  0  0  0
   -2.4696   -2.6573    0.0000 C   0  0  0  0  0  0  0  0  0  0  0  0
    4.1996    1.4277    0.0000 C   0  0  0  0  0  0  0  0  0  0  0  0
    4.1996    3.1576    0.0000 C   0  0  0  0  0  0  0  0  0  0  0  0
   -4.1996   -1.6569    0.0000 C   0  0  0  0  0  0  0  0  0  0  0  0
   -3.3326   -3.1576    0.0000 C   0  0  0  0  0  0  0  0  0  0  0  0
   -4.1996   -2.6573    0.0000 C   0  0  0  0  0  0  0  0  0  0  0  0
  1  2  2  0  0  0  0
  3  5  2  0  0  0  0
  3  4  1  0  0  0  0
  2  4  1  0  0  0  0
  1  5  1  0  0  0  0
  6  9  1  0  0  0  0
  1  7  1  0  0  0  0
  6  8  1  0  0  0  0
  3  9  1  0  0  0  0
  8 10  1  0  0  0  0
  4 11  1  0  0  0  0
 10 12  1  0  0  0  0
  7 13  1  0  0  0  0
 11 14  1  0  0  0  0
  6 14  1  0  0  0  0
  7 15  2  0  0  0  0
  8 16  2  0  0  0  0
 12 17  1  0  0  0  0
 17 18  1  0  0  0  0
 12 19  2  0  0  0  0
 13 20  1  0  0  0  0
 13 21  1  0  0  0  0
 17 22  2  0  0  0  0
 22 24  1  0  0  0  0
 19 23  1  0  0  0  0
 23 24  2  0  0  0  0
M  END
> <IDNUMBER>
SB71-0024

> <available>
60

> <H_acceptor>
5

> <H_donor>
0

> <B_rotN>
5

> <N_O>
6

> <logP>
0.6474

> <logD>
0.6474

> <logSw>
-1.6137

> <PSA>
45.831

> <pKa_ma>
17.626

> <pKa_mb>
-2.791

> <N_Chirals>
0

> <Name>
5-[(2-fluorophenyl)acetyl]-N,N-dimethyl-4,5,6,7-tetrahydropyrazolo[1,5-a]pyrazine-2-carboxamide

> <Smile>
CN(C)C(c1nn(CCN(C2)C(Cc(cccc3)c3F)=O)c2c1)=O

> <Color>
YELLOW

> <Collection>
IC

> <InChI>
InChI=1S/C17H19FN4O2/c1-20(2)17(24)15-10-13-11-21(7-8-22(13)19-15)16(23)9-12-5-3-4-6-14(12)18/h3-6,10H,7-9,11H2,1-2H3

> <InChI Key>
WNIIJERNORKAOK-UHFFFAOYSA-N

> <PERCENTSP3>
35.29

> <Link>
https://www.chemdiv.com/catalog/screening-compounds/compound-SB71-0024/

> <MFCDNUMBER>
MFCD32249158

> <CLNUMBER>
CM5543

> <STEREO>
ACHIRAL

> <State>
Liquid

> <Similarity score>
0.27

$$$$
[5-(5-fluoro-2-methoxybenzene-1-sulfonyl)-4,5,6,7-tetrahydropyrazolo[1,5-a]pyraz
  -OEChem-04222410502D

 29 32  0     0  0  0  0  0  0999 V2000
    1.4064   -1.4855    0.0000 S   0  0  0  0  0  0  0  0  0  0  0  0
   -2.6774   -0.2813    0.0000 C   0  0  0  0  0  0  0  0  0  0  0  0
    0.4062   -1.4855    0.0000 N   0  0  0  0  0  0  0  0  0  0  0  0
    2.4065   -1.4855    0.0000 C   0  0  0  0  0  0  0  0  0  0  0  0
   -2.5691   -1.2773    0.0000 N   0  0  0  0  0  0  0  0  0  0  0  0
   -1.0938   -0.6189    0.0000 C   0  0  0  0  0  0  0  0  0  0  0  0
   -1.5939   -1.4855    0.0000 N   0  0  0  0  0  0  0  0  0  0  0  0
   -1.7606    0.1228    0.0000 C   0  0  0  0  0  0  0  0  0  0  0  0
   -3.5400    0.2188    0.0000 C   0  0  0  0  0  0  0  0  0  0  0  0
   -0.0936   -0.6189    0.0000 C   0  0  0  0  0  0  0  0  0  0  0  0
   -3.5400    1.2189    0.0000 N   0  0  0  0  0  0  0  0  0  0  0  0
   -0.0936   -2.3524    0.0000 C   0  0  0  0  0  0  0  0  0  0  0  0
    2.9066   -2.3524    0.0000 C   0  0  0  0  0  0  0  0  0  0  0  0
   -1.0938   -2.3524    0.0000 C   0  0  0  0  0  0  0  0  0  0  0  0
    1.4064   -0.4854    0.0000 O   0  0  0  0  0  0  0  0  0  0  0  0
    1.4064   -2.4857    0.0000 O   0  0  0  0  0  0  0  0  0  0  0  0
    2.9066   -0.6189    0.0000 C   0  0  0  0  0  0  0  0  0  0  0  0
   -4.4067   -0.2813    0.0000 O   0  0  0  0  0  0  0  0  0  0  0  0
   -3.5400    3.2191    0.0000 O   0  0  0  0  0  0  0  0  0  0  0  0
    3.9068   -0.6189    0.0000 C   0  0  0  0  0  0  0  0  0  0  0  0
    3.9068   -2.3524    0.0000 C   0  0  0  0  0  0  0  0  0  0  0  0
    4.4067   -1.4855    0.0000 C   0  0  0  0  0  0  0  0  0  0  0  0
    4.4067   -3.2191    0.0000 F   0  0  0  0  0  0  0  0  0  0  0  0
    2.4065    0.2480    0.0000 O   0  0  0  0  0  0  0  0  0  0  0  0
   -4.4067    1.7189    0.0000 C   0  0  0  0  0  0  0  0  0  0  0  0
   -2.6774    1.7189    0.0000 C   0  0  0  0  0  0  0  0  0  0  0  0
   -2.6774    2.7189    0.0000 C   0  0  0  0  0  0  0  0  0  0  0  0
   -4.4067    2.7189    0.0000 C   0  0  0  0  0  0  0  0  0  0  0  0
    2.9066    1.1148    0.0000 C   0  0  0  0  0  0  0  0  0  0  0  0
  2  8  1  0  0  0  0
  2  5  2  0  0  0  0
  1  3  1  0  0  0  0
  1  4  1  0  0  0  0
  5  7  1  0  0  0  0
  6 10  1  0  0  0  0
  6  7  1  0  0  0  0
  7 14  1  0  0  0  0
  6  8  2  0  0  0  0
  2  9  1  0  0  0  0
  3 10  1  0  0  0  0
  9 11  1  0  0  0  0
  3 12  1  0  0  0  0
  4 13  2  0  0  0  0
 12 14  1  0  0  0  0
  1 15  2  0  0  0  0
  1 16  2  0  0  0  0
  4 17  1  0  0  0  0
  9 18  2  0  0  0  0
 19 27  1  0  0  0  0
 19 28  1  0  0  0  0
 17 20  2  0  0  0  0
 13 21  1  0  0  0  0
 20 22  1  0  0  0  0
 21 22  2  0  0  0  0
 21 23  1  0  0  0  0
 17 24  1  0  0  0  0
 11 25  1  0  0  0  0
 11 26  1  0  0  0  0
 26 27  1  0  0  0  0
 25 28  1  0  0  0  0
 24 29  1  0  0  0  0
M  END
> <IDNUMBER>
SB71-0280

> <available>
44

> <H_acceptor>
10

> <H_donor>
0

> <B_rotN>
5

> <N_O>
9

> <logP>
0.4637

> <logD>
0.4637

> <logSw>
-2.2571

> <PSA>
77.607

> <pKa_ma>
26.1583

> <pKa_mb>
-4.4541

> <N_Chirals>
0

> <Name>
[5-(5-fluoro-2-methoxybenzene-1-sulfonyl)-4,5,6,7-tetrahydropyrazolo[1,5-a]pyrazin-2-yl](morpholin-4-yl)methanone

> <Smile>
COc(ccc(F)c1)c1S(N1Cc2cc(C(N3CCOCC3)=O)nn2CC1)(=O)=O

> <Color>
NOT COLORED

> <Collection>
IC

> <InChI>
InChI=1S/C18H21FN4O5S/c1-27-16-3-2-13(19)10-17(16)29(25,26)22-4-5-23-14(12-22)11-15(20-23)18(24)21-6-8-28-9-7-21/h2-3,10-11H,4-9,12H2,1H3

> <InChI Key>
GVHDBSSNFWJWCV-UHFFFAOYSA-N

> <PERCENTSP3>
44.44

> <Link>
https://www.chemdiv.com/catalog/screening-compounds/compound-SB71-0280/

> <MFCDNUMBER>
MFCD32249291

> <CLNUMBER>
CM5543

> <STEREO>
ACHIRAL

> <State>
Solid

> <Similarity score>
0.27

$$$$
[5-(2,4-difluorobenzene-1-sulfonyl)-4,5,6,7-tetrahydropyrazolo[1,5-a]pyrazin-2-y
  -OEChem-04222410502D

 27 30  0     0  0  0  0  0  0999 V2000
   -0.9064   -1.2565    0.0000 S   0  0  0  0  0  0  0  0  0  0  0  0
    3.1778   -0.0521    0.0000 C   0  0  0  0  0  0  0  0  0  0  0  0
    0.0938   -1.2565    0.0000 N   0  0  0  0  0  0  0  0  0  0  0  0
    3.0734   -1.0480    0.0000 N   0  0  0  0  0  0  0  0  0  0  0  0
   -1.9065   -1.2565    0.0000 C   0  0  0  0  0  0  0  0  0  0  0  0
    1.5940   -0.3897    0.0000 C   0  0  0  0  0  0  0  0  0  0  0  0
    2.0941   -1.2565    0.0000 N   0  0  0  0  0  0  0  0  0  0  0  0
    2.2608    0.3564    0.0000 C   0  0  0  0  0  0  0  0  0  0  0  0
    4.0403    0.4481    0.0000 C   0  0  0  0  0  0  0  0  0  0  0  0
    0.5939   -0.3897    0.0000 C   0  0  0  0  0  0  0  0  0  0  0  0
   -2.4066   -2.1191    0.0000 C   0  0  0  0  0  0  0  0  0  0  0  0
    4.0403    1.4480    0.0000 N   0  0  0  0  0  0  0  0  0  0  0  0
    0.5939   -2.1191    0.0000 C   0  0  0  0  0  0  0  0  0  0  0  0
    1.5940   -2.1191    0.0000 C   0  0  0  0  0  0  0  0  0  0  0  0
   -0.9064   -0.2562    0.0000 O   0  0  0  0  0  0  0  0  0  0  0  0
   -0.9064   -2.2566    0.0000 O   0  0  0  0  0  0  0  0  0  0  0  0
   -2.4066   -0.3897    0.0000 C   0  0  0  0  0  0  0  0  0  0  0  0
   -3.4069   -2.1191    0.0000 C   0  0  0  0  0  0  0  0  0  0  0  0
    4.9071   -0.0521    0.0000 O   0  0  0  0  0  0  0  0  0  0  0  0
   -3.9068   -1.2565    0.0000 C   0  0  0  0  0  0  0  0  0  0  0  0
   -1.9065   -2.9859    0.0000 F   0  0  0  0  0  0  0  0  0  0  0  0
   -3.4069   -0.3897    0.0000 C   0  0  0  0  0  0  0  0  0  0  0  0
   -4.9071   -1.2565    0.0000 F   0  0  0  0  0  0  0  0  0  0  0  0
    3.2319    2.0358    0.0000 C   0  0  0  0  0  0  0  0  0  0  0  0
    4.8529    2.0358    0.0000 C   0  0  0  0  0  0  0  0  0  0  0  0
    4.5404    2.9859    0.0000 C   0  0  0  0  0  0  0  0  0  0  0  0
    3.5403    2.9859    0.0000 C   0  0  0  0  0  0  0  0  0  0  0  0
  2  8  1  0  0  0  0
  2  4  2  0  0  0  0
  1  3  1  0  0  0  0
  4  7  1  0  0  0  0
  1  5  1  0  0  0  0
  6 10  1  0  0  0  0
  6  7  1  0  0  0  0
  7 14  1  0  0  0  0
  6  8  2  0  0  0  0
  2  9  1  0  0  0  0
  3 10  1  0  0  0  0
  5 11  2  0  0  0  0
  9 12  1  0  0  0  0
  3 13  1  0  0  0  0
 13 14  1  0  0  0  0
  1 15  2  0  0  0  0
  1 16  2  0  0  0  0
  5 17  1  0  0  0  0
 11 18  1  0  0  0  0
 18 20  2  0  0  0  0
  9 19  2  0  0  0  0
 20 22  1  0  0  0  0
 11 21  1  0  0  0  0
 17 22  2  0  0  0  0
 20 23  1  0  0  0  0
 12 24  1  0  0  0  0
 12 25  1  0  0  0  0
 25 26  1  0  0  0  0
 24 27  1  0  0  0  0
 26 27  1  0  0  0  0
M  END
> <IDNUMBER>
SB71-0929

> <available>
127

> <H_acceptor>
8

> <H_donor>
0

> <B_rotN>
4

> <N_O>
7

> <logP>
1.5199

> <logD>
1.5199

> <logSw>
-2.3906

> <PSA>
62.435

> <pKa_ma>
26.1583

> <pKa_mb>
-3.592

> <N_Chirals>
0

> <Name>
[5-(2,4-difluorobenzene-1-sulfonyl)-4,5,6,7-tetrahydropyrazolo[1,5-a]pyrazin-2-yl](pyrrolidin-1-yl)methanone

> <Smile>
O=C(c1nn(CCN(C2)S(c(ccc(F)c3)c3F)(=O)=O)c2c1)N1CCCC1

> <Color>
ORANGE

> <Collection>
IC

> <InChI>
InChI=1S/C17H18F2N4O3S/c18-12-3-4-16(14(19)9-12)27(25,26)22-7-8-23-13(11-22)10-15(20-23)17(24)21-5-1-2-6-21/h3-4,9-10H,1-2,5-8,11H2

> <InChI Key>
CKJACMMNRLZZHW-UHFFFAOYSA-N

> <PERCENTSP3>
41.18

> <Link>
https://www.chemdiv.com/catalog/screening-compounds/compound-SB71-0929/

> <MFCDNUMBER>
MFCD32249434

> <CLNUMBER>
CM5543

> <STEREO>
ACHIRAL

> <State>
Solid

> <Similarity score>
0.26

$$$$
{5-[(4-chlorophenyl)methyl]-4,5,6,7-tetrahydropyrazolo[1,5-a]pyrazin-2-yl}(morph
  -OEChem-04222410502D

 25 28  0     0  0  0  0  0  0999 V2000
    1.4486   -0.6776    0.0000 C   0  0  0  0  0  0  0  0  0  0  0  0
    1.8572    0.2398    0.0000 N   0  0  0  0  0  0  0  0  0  0  0  0
    1.1151    0.9067    0.0000 N   0  0  0  0  0  0  0  0  0  0  0  0
    0.2480    0.4065    0.0000 C   0  0  0  0  0  0  0  0  0  0  0  0
    0.4565   -0.5691    0.0000 C   0  0  0  0  0  0  0  0  0  0  0  0
    1.9489   -1.5403    0.0000 C   0  0  0  0  0  0  0  0  0  0  0  0
    2.9495   -1.5403    0.0000 N   0  0  0  0  0  0  0  0  0  0  0  0
   -0.6189    1.9071    0.0000 N   0  0  0  0  0  0  0  0  0  0  0  0
   -0.6189    0.9067    0.0000 C   0  0  0  0  0  0  0  0  0  0  0  0
    1.1151    1.9071    0.0000 C   0  0  0  0  0  0  0  0  0  0  0  0
    1.4486   -2.4074    0.0000 O   0  0  0  0  0  0  0  0  0  0  0  0
    0.2480    2.4074    0.0000 C   0  0  0  0  0  0  0  0  0  0  0  0
   -1.4862    2.4074    0.0000 C   0  0  0  0  0  0  0  0  0  0  0  0
    4.9504   -1.5403    0.0000 O   0  0  0  0  0  0  0  0  0  0  0  0
   -2.3533    1.9071    0.0000 C   0  0  0  0  0  0  0  0  0  0  0  0
   -4.0833    0.9067    0.0000 C   0  0  0  0  0  0  0  0  0  0  0  0
   -4.9504    0.4065    0.0000 Cl  0  0  0  0  0  0  0  0  0  0  0  0
   -3.2202    0.4065    0.0000 C   0  0  0  0  0  0  0  0  0  0  0  0
   -4.0833    1.9071    0.0000 C   0  0  0  0  0  0  0  0  0  0  0  0
   -3.2202    2.4074    0.0000 C   0  0  0  0  0  0  0  0  0  0  0  0
   -2.3533    0.9067    0.0000 C   0  0  0  0  0  0  0  0  0  0  0  0
    3.4496   -2.4074    0.0000 C   0  0  0  0  0  0  0  0  0  0  0  0
    3.4496   -0.6776    0.0000 C   0  0  0  0  0  0  0  0  0  0  0  0
    4.4502   -0.6776    0.0000 C   0  0  0  0  0  0  0  0  0  0  0  0
    4.4502   -2.4074    0.0000 C   0  0  0  0  0  0  0  0  0  0  0  0
  1  2  2  0  0  0  0
  2  3  1  0  0  0  0
  4  5  2  0  0  0  0
  3  4  1  0  0  0  0
  1  5  1  0  0  0  0
  1  6  1  0  0  0  0
  6  7  1  0  0  0  0
  8  9  1  0  0  0  0
  4  9  1  0  0  0  0
  3 10  1  0  0  0  0
  6 11  2  0  0  0  0
 10 12  1  0  0  0  0
  8 12  1  0  0  0  0
  8 13  1  0  0  0  0
 14 24  1  0  0  0  0
 14 25  1  0  0  0  0
 13 15  1  0  0  0  0
 16 18  1  0  0  0  0
 16 17  1  0  0  0  0
 18 21  2  0  0  0  0
 19 20  1  0  0  0  0
 16 19  2  0  0  0  0
 15 20  2  0  0  0  0
 15 21  1  0  0  0  0
  7 22  1  0  0  0  0
  7 23  1  0  0  0  0
 23 24  1  0  0  0  0
 22 25  1  0  0  0  0
M  END
> <IDNUMBER>
SB71-0261

> <available>
17

> <H_acceptor>
5

> <H_donor>
0

> <B_rotN>
4

> <N_O>
6

> <logP>
1.4887

> <logD>
1.4822

> <logSw>
-2.4516

> <PSA>
41.999

> <pKa_ma>
26.5144

> <pKa_mb>
5.5784

> <N_Chirals>
0

> <Name>
{5-[(4-chlorophenyl)methyl]-4,5,6,7-tetrahydropyrazolo[1,5-a]pyrazin-2-yl}(morpholin-4-yl)methanone

> <Smile>
O=C(c1nn(CCN(Cc(cc2)ccc2Cl)C2)c2c1)N1CCOCC1

> <Color>
ORANGE

> <Collection>
IC

> <InChI>
InChI=1S/C18H21ClN4O2/c19-15-3-1-14(2-4-15)12-21-5-6-23-16(13-21)11-17(20-23)18(24)22-7-9-25-10-8-22/h1-4,11H,5-10,12-13H2

> <InChI Key>
KVIHEUAGRFYMPQ-UHFFFAOYSA-N

> <PERCENTSP3>
44.44

> <Link>
https://www.chemdiv.com/catalog/screening-compounds/compound-SB71-0261/

> <MFCDNUMBER>
MFCD32249230

> <CLNUMBER>
CM5543

> <STEREO>
ACHIRAL

> <State>
Oil

> <Similarity score>
0.26

$$$$
N-benzyl-5-[(4-ethoxy-3-methoxyphenyl)methyl]-4,5,6,7-tetrahydropyrazolo[1,5-a]p
  -OEChem-04222410502D

 31 34  0     0  0  0  0  0  0999 V2000
    1.5630    0.2437    0.0000 C   0  0  0  0  0  0  0  0  0  0  0  0
    1.9715   -0.6731    0.0000 N   0  0  0  0  0  0  0  0  0  0  0  0
    1.2254   -1.3402    0.0000 N   0  0  0  0  0  0  0  0  0  0  0  0
    0.3627   -0.8401    0.0000 C   0  0  0  0  0  0  0  0  0  0  0  0
    0.5668    0.1395    0.0000 C   0  0  0  0  0  0  0  0  0  0  0  0
    2.0632    1.1107    0.0000 C   0  0  0  0  0  0  0  0  0  0  0  0
   -0.5045   -2.3405    0.0000 N   0  0  0  0  0  0  0  0  0  0  0  0
   -0.5045   -1.3402    0.0000 C   0  0  0  0  0  0  0  0  0  0  0  0
    1.2254   -2.3405    0.0000 C   0  0  0  0  0  0  0  0  0  0  0  0
    3.0635    1.1107    0.0000 N   0  0  0  0  0  0  0  0  0  0  0  0
   -3.1053   -0.8401    0.0000 C   0  0  0  0  0  0  0  0  0  0  0  0
   -3.9721   -1.3402    0.0000 C   0  0  0  0  0  0  0  0  0  0  0  0
   -2.2382   -1.3402    0.0000 C   0  0  0  0  0  0  0  0  0  0  0  0
    1.5630    1.9735    0.0000 O   0  0  0  0  0  0  0  0  0  0  0  0
   -2.2382   -2.3405    0.0000 C   0  0  0  0  0  0  0  0  0  0  0  0
   -1.3712   -2.8407    0.0000 C   0  0  0  0  0  0  0  0  0  0  0  0
    0.3627   -2.8407    0.0000 C   0  0  0  0  0  0  0  0  0  0  0  0
   -3.9721   -2.3405    0.0000 C   0  0  0  0  0  0  0  0  0  0  0  0
    3.5636    1.9735    0.0000 C   0  0  0  0  0  0  0  0  0  0  0  0
   -3.1053   -2.8407    0.0000 C   0  0  0  0  0  0  0  0  0  0  0  0
   -3.1053    0.1602    0.0000 O   0  0  0  0  0  0  0  0  0  0  0  0
   -4.8349   -0.8401    0.0000 O   0  0  0  0  0  0  0  0  0  0  0  0
    4.5641    1.9735    0.0000 C   0  0  0  0  0  0  0  0  0  0  0  0
   -5.7019   -1.3402    0.0000 C   0  0  0  0  0  0  0  0  0  0  0  0
   -3.9721    0.6606    0.0000 C   0  0  0  0  0  0  0  0  0  0  0  0
    5.0643    1.1107    0.0000 C   0  0  0  0  0  0  0  0  0  0  0  0
    5.0643    2.8407    0.0000 C   0  0  0  0  0  0  0  0  0  0  0  0
   -6.5647   -0.8401    0.0000 C   0  0  0  0  0  0  0  0  0  0  0  0
    6.0646    1.1107    0.0000 C   0  0  0  0  0  0  0  0  0  0  0  0
    6.0646    2.8407    0.0000 C   0  0  0  0  0  0  0  0  0  0  0  0
    6.5647    1.9735    0.0000 C   0  0  0  0  0  0  0  0  0  0  0  0
  1  2  2  0  0  0  0
  2  3  1  0  0  0  0
  4  5  2  0  0  0  0
  3  4  1  0  0  0  0
  1  5  1  0  0  0  0
  1  6  1  0  0  0  0
  7  8  1  0  0  0  0
  4  8  1  0  0  0  0
  3  9  1  0  0  0  0
  6 10  1  0  0  0  0
 11 13  1  0  0  0  0
 11 12  2  0  0  0  0
 12 18  1  0  0  0  0
 13 15  2  0  0  0  0
  6 14  2  0  0  0  0
 15 16  1  0  0  0  0
  7 16  1  0  0  0  0
  9 17  1  0  0  0  0
  7 17  1  0  0  0  0
 18 20  2  0  0  0  0
 10 19  1  0  0  0  0
 15 20  1  0  0  0  0
 11 21  1  0  0  0  0
 12 22  1  0  0  0  0
 19 23  1  0  0  0  0
 22 24  1  0  0  0  0
 21 25  1  0  0  0  0
 23 26  1  0  0  0  0
 23 27  2  0  0  0  0
 24 28  1  0  0  0  0
 26 29  2  0  0  0  0
 27 30  1  0  0  0  0
 30 31  2  0  0  0  0
 29 31  1  0  0  0  0
M  END
> <IDNUMBER>
SB71-0163

> <available>
119

> <H_acceptor>
6

> <H_donor>
1

> <B_rotN>
9

> <N_O>
7

> <logP>
2.4551

> <logD>
2.1933

> <logSw>
-2.7552

> <PSA>
56.696

> <pKa_ma>
12.5385

> <pKa_mb>
7.3176

> <N_Chirals>
0

> <Name>
N-benzyl-5-[(4-ethoxy-3-methoxyphenyl)methyl]-4,5,6,7-tetrahydropyrazolo[1,5-a]pyrazine-2-carboxamide

> <Smile>
CCOc(ccc(CN1Cc2cc(C(NCc3ccccc3)=O)nn2CC1)c1)c1OC

> <Color>
YELLOW

> <Collection>
IC

> <InChI>
InChI=1S/C24H28N4O3/c1-3-31-22-10-9-19(13-23(22)30-2)16-27-11-12-28-20(17-27)14-21(26-28)24(29)25-15-18-7-5-4-6-8-18/h4-10,13-14H,3,11-12,15-17H2,1-2H3,(H,25,29)

> <InChI Key>
BTSQYORZSJPOCH-UHFFFAOYSA-N

> <PERCENTSP3>
33.33

> <Link>
https://www.chemdiv.com/catalog/screening-compounds/compound-SB71-0163/

> <MFCDNUMBER>
MFCD32249471

> <CLNUMBER>
CM5543

> <STEREO>
ACHIRAL

> <State>
Solid

> <Similarity score>
0.26

$$$$
5-[4-(1H-indol-3-yl)butanoyl]-N,N-dimethyl-4,5,6,7-tetrahydropyrazolo[1,5-a]pyra
  -OEChem-04222410502D

 28 31  0     0  0  0  0  0  0999 V2000
    3.9836    0.2354    0.0000 C   0  0  0  0  0  0  0  0  0  0  0  0
    3.3960    1.0439    0.0000 N   0  0  0  0  0  0  0  0  0  0  0  0
    2.4460   -0.2646    0.0000 C   0  0  0  0  0  0  0  0  0  0  0  0
    2.4460    0.7355    0.0000 N   0  0  0  0  0  0  0  0  0  0  0  0
    3.3960   -0.5728    0.0000 C   0  0  0  0  0  0  0  0  0  0  0  0
    4.9835    0.2354    0.0000 C   0  0  0  0  0  0  0  0  0  0  0  0
    0.7126   -0.2646    0.0000 N   0  0  0  0  0  0  0  0  0  0  0  0
   -4.7003   -1.9688    0.0000 N   0  0  0  0  0  0  0  0  0  0  0  0
    1.5794   -0.7647    0.0000 C   0  0  0  0  0  0  0  0  0  0  0  0
   -3.7210   -1.7605    0.0000 C   0  0  0  0  0  0  0  0  0  0  0  0
   -0.1542   -0.7647    0.0000 C   0  0  0  0  0  0  0  0  0  0  0  0
   -3.6169   -0.7647    0.0000 C   0  0  0  0  0  0  0  0  0  0  0  0
    1.5794    1.2356    0.0000 C   0  0  0  0  0  0  0  0  0  0  0  0
   -4.5295   -0.3562    0.0000 C   0  0  0  0  0  0  0  0  0  0  0  0
   -5.2003   -1.1020    0.0000 C   0  0  0  0  0  0  0  0  0  0  0  0
    5.4836    1.1022    0.0000 N   0  0  0  0  0  0  0  0  0  0  0  0
    0.7126    0.7355    0.0000 C   0  0  0  0  0  0  0  0  0  0  0  0
    5.4836   -0.6314    0.0000 O   0  0  0  0  0  0  0  0  0  0  0  0
   -0.1542   -1.7646    0.0000 O   0  0  0  0  0  0  0  0  0  0  0  0
   -1.0208   -0.2646    0.0000 C   0  0  0  0  0  0  0  0  0  0  0  0
   -2.7501   -0.2646    0.0000 C   0  0  0  0  0  0  0  0  0  0  0  0
   -1.8835   -0.7647    0.0000 C   0  0  0  0  0  0  0  0  0  0  0  0
   -4.8419    0.5939    0.0000 C   0  0  0  0  0  0  0  0  0  0  0  0
    4.9835    1.9688    0.0000 C   0  0  0  0  0  0  0  0  0  0  0  0
    6.4837    1.1022    0.0000 C   0  0  0  0  0  0  0  0  0  0  0  0
   -6.1753   -0.8937    0.0000 C   0  0  0  0  0  0  0  0  0  0  0  0
   -5.8171    0.8022    0.0000 C   0  0  0  0  0  0  0  0  0  0  0  0
   -6.4837    0.0563    0.0000 C   0  0  0  0  0  0  0  0  0  0  0  0
  1  2  2  0  0  0  0
  3  5  2  0  0  0  0
  3  4  1  0  0  0  0
  2  4  1  0  0  0  0
  1  5  1  0  0  0  0
  1  6  1  0  0  0  0
  7  9  1  0  0  0  0
  8 10  1  0  0  0  0
  8 15  1  0  0  0  0
  3  9  1  0  0  0  0
 10 12  2  0  0  0  0
  7 11  1  0  0  0  0
 12 21  1  0  0  0  0
  4 13  1  0  0  0  0
 12 14  1  0  0  0  0
 14 15  1  0  0  0  0
  6 16  1  0  0  0  0
 13 17  1  0  0  0  0
  7 17  1  0  0  0  0
  6 18  2  0  0  0  0
 11 19  2  0  0  0  0
 11 20  1  0  0  0  0
 21 22  1  0  0  0  0
 20 22  1  0  0  0  0
 14 23  2  0  0  0  0
 16 24  1  0  0  0  0
 16 25  1  0  0  0  0
 15 26  2  0  0  0  0
 26 28  1  0  0  0  0
 23 27  1  0  0  0  0
 27 28  2  0  0  0  0
M  END
> <IDNUMBER>
SB71-0098

> <available>
104

> <H_acceptor>
5

> <H_donor>
1

> <B_rotN>
7

> <N_O>
7

> <logP>
1.0262

> <logD>
1.0262

> <logSw>
-2.3814

> <PSA>
55.702

> <pKa_ma>
18.4909

> <pKa_mb>
-2.791

> <N_Chirals>
0

> <Name>
5-[4-(1H-indol-3-yl)butanoyl]-N,N-dimethyl-4,5,6,7-tetrahydropyrazolo[1,5-a]pyrazine-2-carboxamide

> <Smile>
CN(C)C(c1nn(CCN(C2)C(CCCc3c[nH]c4c3cccc4)=O)c2c1)=O

> <Color>
YELLOW

> <Collection>
IC

> <InChI>
InChI=1S/C21H25N5O2/c1-24(2)21(28)19-12-16-14-25(10-11-26(16)23-19)20(27)9-5-6-15-13-22-18-8-4-3-7-17(15)18/h3-4,7-8,12-13,22H,5-6,9-11,14H2,1-2H3

> <InChI Key>
HTUPKZHTBTXCDZ-UHFFFAOYSA-N

> <PERCENTSP3>
38.1

> <Link>
https://www.chemdiv.com/catalog/screening-compounds/compound-SB71-0098/

> <MFCDNUMBER>
MFCD32249286

> <CLNUMBER>
CM5543

> <STEREO>
ACHIRAL

> <State>
Solid

> <Similarity score>
0.26

$$$$
(morpholin-4-yl)(5-{[4-(trifluoromethyl)phenyl]methyl}-4,5,6,7-tetrahydropyrazol
  -OEChem-04222410502D

 28 31  0     0  0  0  0  0  0999 V2000
    1.9485    0.6774    0.0000 C   0  0  0  0  0  0  0  0  0  0  0  0
    2.3571   -0.2394    0.0000 N   0  0  0  0  0  0  0  0  0  0  0  0
    1.6151   -0.9065    0.0000 N   0  0  0  0  0  0  0  0  0  0  0  0
    0.7483   -0.4063    0.0000 C   0  0  0  0  0  0  0  0  0  0  0  0
    0.9567    0.5731    0.0000 C   0  0  0  0  0  0  0  0  0  0  0  0
    2.4487    1.5402    0.0000 C   0  0  0  0  0  0  0  0  0  0  0  0
   -4.4492   -0.4063    0.0000 C   0  0  0  0  0  0  0  0  0  0  0  0
    3.4490    1.5402    0.0000 N   0  0  0  0  0  0  0  0  0  0  0  0
   -0.1187   -1.9070    0.0000 N   0  0  0  0  0  0  0  0  0  0  0  0
   -0.1187   -0.9065    0.0000 C   0  0  0  0  0  0  0  0  0  0  0  0
    1.6151   -1.9070    0.0000 C   0  0  0  0  0  0  0  0  0  0  0  0
   -3.5824   -0.9065    0.0000 C   0  0  0  0  0  0  0  0  0  0  0  0
    1.9485    2.4070    0.0000 O   0  0  0  0  0  0  0  0  0  0  0  0
    0.7483   -2.4070    0.0000 C   0  0  0  0  0  0  0  0  0  0  0  0
   -0.9857   -2.4070    0.0000 C   0  0  0  0  0  0  0  0  0  0  0  0
   -5.4495   -0.4063    0.0000 F   0  0  0  0  0  0  0  0  0  0  0  0
   -4.9494   -1.2733    0.0000 F   0  0  0  0  0  0  0  0  0  0  0  0
   -4.4492    0.5938    0.0000 F   0  0  0  0  0  0  0  0  0  0  0  0
    5.4495    1.5402    0.0000 O   0  0  0  0  0  0  0  0  0  0  0  0
   -3.5824   -1.9070    0.0000 C   0  0  0  0  0  0  0  0  0  0  0  0
   -2.7195   -0.4063    0.0000 C   0  0  0  0  0  0  0  0  0  0  0  0
   -1.8527   -1.9070    0.0000 C   0  0  0  0  0  0  0  0  0  0  0  0
   -2.7195   -2.4070    0.0000 C   0  0  0  0  0  0  0  0  0  0  0  0
   -1.8527   -0.9065    0.0000 C   0  0  0  0  0  0  0  0  0  0  0  0
    3.9492    2.4070    0.0000 C   0  0  0  0  0  0  0  0  0  0  0  0
    3.9492    0.6774    0.0000 C   0  0  0  0  0  0  0  0  0  0  0  0
    4.9495    0.6774    0.0000 C   0  0  0  0  0  0  0  0  0  0  0  0
    4.9495    2.4070    0.0000 C   0  0  0  0  0  0  0  0  0  0  0  0
  1  2  2  0  0  0  0
  2  3  1  0  0  0  0
  4  5  2  0  0  0  0
  3  4  1  0  0  0  0
  1  5  1  0  0  0  0
  1  6  1  0  0  0  0
  7 12  1  0  0  0  0
  6  8  1  0  0  0  0
  9 10  1  0  0  0  0
  4 10  1  0  0  0  0
  3 11  1  0  0  0  0
 12 21  1  0  0  0  0
 12 20  2  0  0  0  0
  6 13  2  0  0  0  0
 11 14  1  0  0  0  0
  9 14  1  0  0  0  0
  9 15  1  0  0  0  0
  7 16  1  0  0  0  0
  7 17  1  0  0  0  0
  7 18  1  0  0  0  0
 19 27  1  0  0  0  0
 19 28  1  0  0  0  0
 20 23  1  0  0  0  0
 21 24  2  0  0  0  0
 15 22  1  0  0  0  0
 22 23  2  0  0  0  0
 22 24  1  0  0  0  0
  8 25  1  0  0  0  0
  8 26  1  0  0  0  0
 26 27  1  0  0  0  0
 25 28  1  0  0  0  0
M  END
> <IDNUMBER>
SB71-0255

> <available>
11

> <H_acceptor>
5

> <H_donor>
0

> <B_rotN>
5

> <N_O>
6

> <logP>
1.7667

> <logD>
1.6922

> <logSw>
-2.2103

> <PSA>
41.999

> <pKa_ma>
26.5144

> <pKa_mb>
6.6724

> <N_Chirals>
0

> <Name>
(morpholin-4-yl)(5-{[4-(trifluoromethyl)phenyl]methyl}-4,5,6,7-tetrahydropyrazolo[1,5-a]pyrazin-2-yl)methanone

> <Smile>
O=C(c1nn(CCN(Cc2ccc(C(F)(F)F)cc2)C2)c2c1)N1CCOCC1

> <Color>
ORANGE

> <Collection>
IC

> <InChI>
InChI=1S/C19H21F3N4O2/c20-19(21,22)15-3-1-14(2-4-15)12-24-5-6-26-16(13-24)11-17(23-26)18(27)25-7-9-28-10-8-25/h1-4,11H,5-10,12-13H2

> <InChI Key>
GNIIRJQRHGUMIP-UHFFFAOYSA-N

> <PERCENTSP3>
47.37

> <Link>
https://www.chemdiv.com/catalog/screening-compounds/compound-SB71-0255/

> <MFCDNUMBER>
MFCD32249200

> <CLNUMBER>
CM5543

> <STEREO>
ACHIRAL

> <State>
Solid

> <Similarity score>
0.26

$$$$
{5-[(6-methoxypyridin-2-yl)methyl]-4,5,6,7-tetrahydropyrazolo[1,5-a]pyrazin-2-yl
  -OEChem-04222410502D

 26 29  0     0  0  0  0  0  0999 V2000
    1.8816    0.6729    0.0000 C   0  0  0  0  0  0  0  0  0  0  0  0
    2.2898   -0.2397    0.0000 N   0  0  0  0  0  0  0  0  0  0  0  0
    1.5481   -0.9065    0.0000 N   0  0  0  0  0  0  0  0  0  0  0  0
    0.6811   -0.4063    0.0000 C   0  0  0  0  0  0  0  0  0  0  0  0
    0.8897    0.5688    0.0000 C   0  0  0  0  0  0  0  0  0  0  0  0
    2.3816    1.5397    0.0000 C   0  0  0  0  0  0  0  0  0  0  0  0
    3.3816    1.5397    0.0000 N   0  0  0  0  0  0  0  0  0  0  0  0
   -0.1857   -1.9065    0.0000 N   0  0  0  0  0  0  0  0  0  0  0  0
   -2.7859   -2.4065    0.0000 N   0  0  0  0  0  0  0  0  0  0  0  0
   -0.1857   -0.9065    0.0000 C   0  0  0  0  0  0  0  0  0  0  0  0
    1.5481   -1.9065    0.0000 C   0  0  0  0  0  0  0  0  0  0  0  0
   -3.6525   -1.9065    0.0000 C   0  0  0  0  0  0  0  0  0  0  0  0
    1.8816    2.4065    0.0000 O   0  0  0  0  0  0  0  0  0  0  0  0
   -1.9191   -1.9065    0.0000 C   0  0  0  0  0  0  0  0  0  0  0  0
   -1.0521   -2.4065    0.0000 C   0  0  0  0  0  0  0  0  0  0  0  0
    0.6811   -2.4065    0.0000 C   0  0  0  0  0  0  0  0  0  0  0  0
    5.3817    1.5397    0.0000 O   0  0  0  0  0  0  0  0  0  0  0  0
   -4.5151   -2.4065    0.0000 O   0  0  0  0  0  0  0  0  0  0  0  0
    3.8816    2.4065    0.0000 C   0  0  0  0  0  0  0  0  0  0  0  0
    3.8816    0.6729    0.0000 C   0  0  0  0  0  0  0  0  0  0  0  0
   -2.7859   -0.4063    0.0000 C   0  0  0  0  0  0  0  0  0  0  0  0
   -3.6525   -0.9065    0.0000 C   0  0  0  0  0  0  0  0  0  0  0  0
   -1.9191   -0.9065    0.0000 C   0  0  0  0  0  0  0  0  0  0  0  0
    4.8816    2.4065    0.0000 C   0  0  0  0  0  0  0  0  0  0  0  0
    4.8816    0.6729    0.0000 C   0  0  0  0  0  0  0  0  0  0  0  0
   -5.3817   -1.9065    0.0000 C   0  0  0  0  0  0  0  0  0  0  0  0
  1  2  2  0  0  0  0
  2  3  1  0  0  0  0
  4  5  2  0  0  0  0
  3  4  1  0  0  0  0
  1  5  1  0  0  0  0
  1  6  1  0  0  0  0
  6  7  1  0  0  0  0
  8 10  1  0  0  0  0
  9 14  2  0  0  0  0
  4 10  1  0  0  0  0
  3 11  1  0  0  0  0
  9 12  1  0  0  0  0
 12 22  2  0  0  0  0
  6 13  2  0  0  0  0
 14 15  1  0  0  0  0
  8 15  1  0  0  0  0
 11 16  1  0  0  0  0
  8 16  1  0  0  0  0
 17 25  1  0  0  0  0
 17 24  1  0  0  0  0
 12 18  1  0  0  0  0
  7 19  1  0  0  0  0
  7 20  1  0  0  0  0
 21 23  2  0  0  0  0
 21 22  1  0  0  0  0
 14 23  1  0  0  0  0
 19 24  1  0  0  0  0
 20 25  1  0  0  0  0
 18 26  1  0  0  0  0
M  END
> <IDNUMBER>
SB71-0289

> <available>
14

> <H_acceptor>
7

> <H_donor>
0

> <B_rotN>
5

> <N_O>
8

> <logP>
0.602

> <logD>
0.4914

> <logSw>
-1.6042

> <PSA>
58.554

> <pKa_ma>
26.9104

> <pKa_mb>
6.8625

> <N_Chirals>
0

> <Name>
{5-[(6-methoxypyridin-2-yl)methyl]-4,5,6,7-tetrahydropyrazolo[1,5-a]pyrazin-2-yl}(morpholin-4-yl)methanone

> <Smile>
COc1cccc(CN2Cc3cc(C(N4CCOCC4)=O)nn3CC2)n1

> <Color>
YELLOW

> <Collection>
IC

> <InChI>
InChI=1S/C18H23N5O3/c1-25-17-4-2-3-14(19-17)12-21-5-6-23-15(13-21)11-16(20-23)18(24)22-7-9-26-10-8-22/h2-4,11H,5-10,12-13H2,1H3

> <InChI Key>
LMYVQFDNUMBTIP-UHFFFAOYSA-N

> <PERCENTSP3>
50

> <Link>
https://www.chemdiv.com/catalog/screening-compounds/compound-SB71-0289/

> <MFCDNUMBER>
MFCD32249322

> <CLNUMBER>
CM5543

> <STEREO>
ACHIRAL

> <State>
Solid

> <Similarity score>
0.26

$$$$
5-(4-methoxy-2-methylbenzoyl)-N,N-dimethyl-4,5,6,7-tetrahydropyrazolo[1,5-a]pyra
  -OEChem-04222410502D

 25 27  0     0  0  0  0  0  0999 V2000
    2.6319   -1.1773    0.0000 C   0  0  0  0  0  0  0  0  0  0  0  0
    3.0403   -0.2604    0.0000 N   0  0  0  0  0  0  0  0  0  0  0  0
    1.4317   -0.0937    0.0000 C   0  0  0  0  0  0  0  0  0  0  0  0
    2.2984    0.4063    0.0000 N   0  0  0  0  0  0  0  0  0  0  0  0
    1.6398   -1.0689    0.0000 C   0  0  0  0  0  0  0  0  0  0  0  0
    0.5647    1.4065    0.0000 N   0  0  0  0  0  0  0  0  0  0  0  0
   -0.3023    1.9068    0.0000 C   0  0  0  0  0  0  0  0  0  0  0  0
    3.1319   -2.0400    0.0000 C   0  0  0  0  0  0  0  0  0  0  0  0
   -1.1689    1.4065    0.0000 C   0  0  0  0  0  0  0  0  0  0  0  0
    0.5647    0.4063    0.0000 C   0  0  0  0  0  0  0  0  0  0  0  0
   -1.1689    0.4063    0.0000 C   0  0  0  0  0  0  0  0  0  0  0  0
    2.2984    1.4065    0.0000 C   0  0  0  0  0  0  0  0  0  0  0  0
    1.4317    1.9068    0.0000 C   0  0  0  0  0  0  0  0  0  0  0  0
   -2.0359    1.9068    0.0000 C   0  0  0  0  0  0  0  0  0  0  0  0
    4.1322   -2.0400    0.0000 N   0  0  0  0  0  0  0  0  0  0  0  0
   -0.3023    2.9069    0.0000 O   0  0  0  0  0  0  0  0  0  0  0  0
    2.6319   -2.9069    0.0000 O   0  0  0  0  0  0  0  0  0  0  0  0
   -2.0359   -0.0937    0.0000 C   0  0  0  0  0  0  0  0  0  0  0  0
   -2.9029    0.4063    0.0000 C   0  0  0  0  0  0  0  0  0  0  0  0
   -2.9029    1.4065    0.0000 C   0  0  0  0  0  0  0  0  0  0  0  0
   -3.7655   -0.0937    0.0000 O   0  0  0  0  0  0  0  0  0  0  0  0
   -0.3023   -0.0937    0.0000 C   0  0  0  0  0  0  0  0  0  0  0  0
    4.6323   -1.1773    0.0000 C   0  0  0  0  0  0  0  0  0  0  0  0
    4.6323   -2.9069    0.0000 C   0  0  0  0  0  0  0  0  0  0  0  0
   -4.6323    0.4063    0.0000 C   0  0  0  0  0  0  0  0  0  0  0  0
  1  2  2  0  0  0  0
  3  5  2  0  0  0  0
  3  4  1  0  0  0  0
  2  4  1  0  0  0  0
  1  5  1  0  0  0  0
  6 10  1  0  0  0  0
  6  7  1  0  0  0  0
  1  8  1  0  0  0  0
  7  9  1  0  0  0  0
  3 10  1  0  0  0  0
  9 11  2  0  0  0  0
  4 12  1  0  0  0  0
 12 13  1  0  0  0  0
  6 13  1  0  0  0  0
  9 14  1  0  0  0  0
  8 15  1  0  0  0  0
  7 16  2  0  0  0  0
  8 17  2  0  0  0  0
 11 18  1  0  0  0  0
 19 20  1  0  0  0  0
 18 19  2  0  0  0  0
 14 20  2  0  0  0  0
 19 21  1  0  0  0  0
 11 22  1  0  0  0  0
 15 23  1  0  0  0  0
 15 24  1  0  0  0  0
 21 25  1  0  0  0  0
M  END
> <IDNUMBER>
SB71-0029

> <available>
53

> <H_acceptor>
6

> <H_donor>
0

> <B_rotN>
5

> <N_O>
7

> <logP>
0.6176

> <logD>
0.6176

> <logSw>
-2.0988

> <PSA>
53.902

> <pKa_ma>
26.3679

> <pKa_mb>
-2.791

> <N_Chirals>
0

> <Name>
5-(4-methoxy-2-methylbenzoyl)-N,N-dimethyl-4,5,6,7-tetrahydropyrazolo[1,5-a]pyrazine-2-carboxamide

> <Smile>
Cc(cc(cc1)OC)c1C(N1Cc2cc(C(N(C)C)=O)nn2CC1)=O

> <Color>
YELLOW

> <Collection>
IC

> <InChI>
InChI=1S/C18H22N4O3/c1-12-9-14(25-4)5-6-15(12)17(23)21-7-8-22-13(11-21)10-16(19-22)18(24)20(2)3/h5-6,9-10H,7-8,11H2,1-4H3

> <InChI Key>
LRHSHBCWZNPCJS-UHFFFAOYSA-N

> <PERCENTSP3>
38.89

> <Link>
https://www.chemdiv.com/catalog/screening-compounds/compound-SB71-0029/

> <MFCDNUMBER>
MFCD32249160

> <CLNUMBER>
CM5543

> <STEREO>
ACHIRAL

> <State>
Liquid

> <Similarity score>
0.26

$$$$
N,N-dimethyl-5-(quinoline-2-carbonyl)-4,5,6,7-tetrahydropyrazolo[1,5-a]pyrazine-
  -OEChem-04222410502D

 26 29  0     0  0  0  0  0  0999 V2000
    2.6318    1.1775    0.0000 C   0  0  0  0  0  0  0  0  0  0  0  0
    3.0402    0.2606    0.0000 N   0  0  0  0  0  0  0  0  0  0  0  0
    1.4315    0.0938    0.0000 C   0  0  0  0  0  0  0  0  0  0  0  0
    2.2983   -0.4063    0.0000 N   0  0  0  0  0  0  0  0  0  0  0  0
    1.6398    1.0732    0.0000 C   0  0  0  0  0  0  0  0  0  0  0  0
    0.5646   -1.4065    0.0000 N   0  0  0  0  0  0  0  0  0  0  0  0
    3.1318    2.0401    0.0000 C   0  0  0  0  0  0  0  0  0  0  0  0
   -0.3023   -1.9064    0.0000 C   0  0  0  0  0  0  0  0  0  0  0  0
   -2.0359   -1.9064    0.0000 N   0  0  0  0  0  0  0  0  0  0  0  0
   -1.1691   -1.4065    0.0000 C   0  0  0  0  0  0  0  0  0  0  0  0
    0.5646   -0.4063    0.0000 C   0  0  0  0  0  0  0  0  0  0  0  0
    2.2983   -1.4065    0.0000 C   0  0  0  0  0  0  0  0  0  0  0  0
   -2.9027   -1.4065    0.0000 C   0  0  0  0  0  0  0  0  0  0  0  0
    1.4315   -1.9064    0.0000 C   0  0  0  0  0  0  0  0  0  0  0  0
    4.1321    2.0401    0.0000 N   0  0  0  0  0  0  0  0  0  0  0  0
    2.6318    2.9069    0.0000 O   0  0  0  0  0  0  0  0  0  0  0  0
   -0.3023   -2.9069    0.0000 O   0  0  0  0  0  0  0  0  0  0  0  0
   -1.1691   -0.4063    0.0000 C   0  0  0  0  0  0  0  0  0  0  0  0
   -2.9027   -0.4063    0.0000 C   0  0  0  0  0  0  0  0  0  0  0  0
   -2.0359    0.0938    0.0000 C   0  0  0  0  0  0  0  0  0  0  0  0
    4.6322    1.1775    0.0000 C   0  0  0  0  0  0  0  0  0  0  0  0
    4.6322    2.9069    0.0000 C   0  0  0  0  0  0  0  0  0  0  0  0
   -3.7654   -1.9064    0.0000 C   0  0  0  0  0  0  0  0  0  0  0  0
   -3.7654    0.0938    0.0000 C   0  0  0  0  0  0  0  0  0  0  0  0
   -4.6322   -1.4065    0.0000 C   0  0  0  0  0  0  0  0  0  0  0  0
   -4.6322   -0.4063    0.0000 C   0  0  0  0  0  0  0  0  0  0  0  0
  1  2  2  0  0  0  0
  3  5  2  0  0  0  0
  3  4  1  0  0  0  0
  2  4  1  0  0  0  0
  1  5  1  0  0  0  0
  6 11  1  0  0  0  0
  1  7  1  0  0  0  0
  6  8  1  0  0  0  0
  9 10  2  0  0  0  0
  8 10  1  0  0  0  0
  3 11  1  0  0  0  0
  4 12  1  0  0  0  0
  9 13  1  0  0  0  0
 13 19  2  0  0  0  0
 12 14  1  0  0  0  0
  6 14  1  0  0  0  0
  7 15  1  0  0  0  0
  7 16  2  0  0  0  0
  8 17  2  0  0  0  0
 10 18  1  0  0  0  0
 19 20  1  0  0  0  0
 18 20  2  0  0  0  0
 15 21  1  0  0  0  0
 15 22  1  0  0  0  0
 13 23  1  0  0  0  0
 19 24  1  0  0  0  0
 23 25  2  0  0  0  0
 25 26  1  0  0  0  0
 24 26  2  0  0  0  0
M  END
> <IDNUMBER>
SB71-0023

> <available>
22

> <H_acceptor>
6

> <H_donor>
0

> <B_rotN>
4

> <N_O>
7

> <logP>
0.7649

> <logD>
0.7649

> <logSw>
-2.0032

> <PSA>
54.689

> <pKa_ma>
26.7714

> <pKa_mb>
0.1146

> <N_Chirals>
0

> <Name>
N,N-dimethyl-5-(quinoline-2-carbonyl)-4,5,6,7-tetrahydropyrazolo[1,5-a]pyrazine-2-carboxamide

> <Smile>
CN(C)C(c1nn(CCN(C2)C(c3nc4ccccc4cc3)=O)c2c1)=O

> <Color>
YELLOW

> <Collection>
IC

> <InChI>
InChI=1S/C19H19N5O2/c1-22(2)18(25)17-11-14-12-23(9-10-24(14)21-17)19(26)16-8-7-13-5-3-4-6-15(13)20-16/h3-8,11H,9-10,12H2,1-2H3

> <InChI Key>
CMKOZXBPMZESIZ-UHFFFAOYSA-N

> <PERCENTSP3>
26.32

> <Link>
https://www.chemdiv.com/catalog/screening-compounds/compound-SB71-0023/

> <MFCDNUMBER>
MFCD32249157

> <CLNUMBER>
CM5543

> <STEREO>
ACHIRAL

> <State>
Solid

> <Similarity score>
0.26

$$$$
5-[(2,3-dihydro-1-benzofuran-5-yl)methyl]-N-(propan-2-yl)-4,5,6,7-tetrahydropyra
  -OEChem-04222410502D

 25 28  0     0  0  0  0  0  0999 V2000
    1.6395    0.2439    0.0000 C   0  0  0  0  0  0  0  0  0  0  0  0
    2.0438   -0.6729    0.0000 N   0  0  0  0  0  0  0  0  0  0  0  0
    1.3019   -1.3396    0.0000 N   0  0  0  0  0  0  0  0  0  0  0  0
    0.4354   -0.8396    0.0000 C   0  0  0  0  0  0  0  0  0  0  0  0
    0.6439    0.1396    0.0000 C   0  0  0  0  0  0  0  0  0  0  0  0
    2.1395    1.1104    0.0000 C   0  0  0  0  0  0  0  0  0  0  0  0
   -0.4312   -2.3396    0.0000 N   0  0  0  0  0  0  0  0  0  0  0  0
   -0.4312   -1.3396    0.0000 C   0  0  0  0  0  0  0  0  0  0  0  0
    3.1396    1.1104    0.0000 N   0  0  0  0  0  0  0  0  0  0  0  0
    1.3019   -2.3396    0.0000 C   0  0  0  0  0  0  0  0  0  0  0  0
   -3.0270   -0.8396    0.0000 C   0  0  0  0  0  0  0  0  0  0  0  0
   -3.8937   -1.3396    0.0000 C   0  0  0  0  0  0  0  0  0  0  0  0
    1.6395    1.9728    0.0000 O   0  0  0  0  0  0  0  0  0  0  0  0
   -4.6395   -0.6729    0.0000 O   0  0  0  0  0  0  0  0  0  0  0  0
   -2.1646   -1.3396    0.0000 C   0  0  0  0  0  0  0  0  0  0  0  0
   -2.1646   -2.3396    0.0000 C   0  0  0  0  0  0  0  0  0  0  0  0
   -1.2979   -2.8395    0.0000 C   0  0  0  0  0  0  0  0  0  0  0  0
    0.4354   -2.8395    0.0000 C   0  0  0  0  0  0  0  0  0  0  0  0
   -3.8937   -2.3396    0.0000 C   0  0  0  0  0  0  0  0  0  0  0  0
   -3.0270   -2.8395    0.0000 C   0  0  0  0  0  0  0  0  0  0  0  0
   -4.2309    0.2439    0.0000 C   0  0  0  0  0  0  0  0  0  0  0  0
    3.6395    1.9728    0.0000 C   0  0  0  0  0  0  0  0  0  0  0  0
   -3.2353    0.1396    0.0000 C   0  0  0  0  0  0  0  0  0  0  0  0
    4.6395    1.9728    0.0000 C   0  0  0  0  0  0  0  0  0  0  0  0
    3.1396    2.8395    0.0000 C   0  0  0  0  0  0  0  0  0  0  0  0
  1  2  2  0  0  0  0
  2  3  1  0  0  0  0
  4  5  2  0  0  0  0
  3  4  1  0  0  0  0
  1  5  1  0  0  0  0
  1  6  1  0  0  0  0
  7  8  1  0  0  0  0
  4  8  1  0  0  0  0
  6  9  1  0  0  0  0
  3 10  1  0  0  0  0
 11 15  2  0  0  0  0
 11 12  1  0  0  0  0
 12 19  2  0  0  0  0
  6 13  2  0  0  0  0
 12 14  1  0  0  0  0
 15 16  1  0  0  0  0
 16 17  1  0  0  0  0
  7 17  1  0  0  0  0
 10 18  1  0  0  0  0
  7 18  1  0  0  0  0
 19 20  1  0  0  0  0
 16 20  2  0  0  0  0
 21 23  1  0  0  0  0
 14 21  1  0  0  0  0
  9 22  1  0  0  0  0
 11 23  1  0  0  0  0
 22 24  1  0  0  0  0
 22 25  1  0  0  0  0
M  END
> <IDNUMBER>
SB71-0681

> <available>
78

> <H_acceptor>
5

> <H_donor>
1

> <B_rotN>
5

> <N_O>
6

> <logP>
1.6447

> <logD>
1.5257

> <logSw>
-2.3909

> <PSA>
49.339

> <pKa_ma>
14.8713

> <pKa_mb>
6.8989

> <N_Chirals>
0

> <Name>
5-[(2,3-dihydro-1-benzofuran-5-yl)methyl]-N-(propan-2-yl)-4,5,6,7-tetrahydropyrazolo[1,5-a]pyrazine-2-carboxamide

> <Smile>
CC(C)NC(c1nn(CCN(Cc(cc2)cc3c2OCC3)C2)c2c1)=O

> <Color>
ORANGE

> <Collection>
IC

> <InChI>
InChI=1S/C19H24N4O2/c1-13(2)20-19(24)17-10-16-12-22(6-7-23(16)21-17)11-14-3-4-18-15(9-14)5-8-25-18/h3-4,9-10,13H,5-8,11-12H2,1-2H3,(H,20,24)

> <InChI Key>
IAUNANUSXOATNB-UHFFFAOYSA-N

> <PERCENTSP3>
47.37

> <Link>
https://www.chemdiv.com/catalog/screening-compounds/compound-SB71-0681/

> <MFCDNUMBER>
MFCD32249485

> <CLNUMBER>
CM5543

> <STEREO>
ACHIRAL

> <State>
Oil

> <Similarity score>
0.26

$$$$
N-[(2,4-difluorophenyl)methyl]-4,5,6,7-tetrahydropyrazolo[1,5-a]pyridine-2-carbo
  -OEChem-04222410502D

 21 23  0     0  0  0  0  0  0999 V2000
    1.4860    0.2857    0.0000 C   0  0  0  0  0  0  0  0  0  0  0  0
    1.5903   -0.7107    0.0000 N   0  0  0  0  0  0  0  0  0  0  0  0
    2.5698   -0.9107    0.0000 N   0  0  0  0  0  0  0  0  0  0  0  0
    2.4073    0.6982    0.0000 C   0  0  0  0  0  0  0  0  0  0  0  0
    3.0741   -0.0521    0.0000 C   0  0  0  0  0  0  0  0  0  0  0  0
    0.6232    0.7857    0.0000 C   0  0  0  0  0  0  0  0  0  0  0  0
   -1.9778   -0.7107    0.0000 C   0  0  0  0  0  0  0  0  0  0  0  0
   -0.2357    0.2857    0.0000 N   0  0  0  0  0  0  0  0  0  0  0  0
   -1.9778    0.2857    0.0000 C   0  0  0  0  0  0  0  0  0  0  0  0
   -2.8492   -1.2151    0.0000 C   0  0  0  0  0  0  0  0  0  0  0  0
   -1.1066    0.7857    0.0000 C   0  0  0  0  0  0  0  0  0  0  0  0
    0.6232    1.7819    0.0000 O   0  0  0  0  0  0  0  0  0  0  0  0
   -2.8492    0.7857    0.0000 C   0  0  0  0  0  0  0  0  0  0  0  0
   -3.7036   -0.7107    0.0000 C   0  0  0  0  0  0  0  0  0  0  0  0
   -1.1066   -1.2151    0.0000 F   0  0  0  0  0  0  0  0  0  0  0  0
   -3.7036    0.2857    0.0000 C   0  0  0  0  0  0  0  0  0  0  0  0
    3.0741   -1.7819    0.0000 C   0  0  0  0  0  0  0  0  0  0  0  0
   -4.5706   -1.2151    0.0000 F   0  0  0  0  0  0  0  0  0  0  0  0
    4.0704   -0.0521    0.0000 C   0  0  0  0  0  0  0  0  0  0  0  0
    4.0704   -1.7819    0.0000 C   0  0  0  0  0  0  0  0  0  0  0  0
    4.5706   -0.9107    0.0000 C   0  0  0  0  0  0  0  0  0  0  0  0
  1  2  2  0  0  0  0
  2  3  1  0  0  0  0
  3  5  1  0  0  0  0
  1  4  1  0  0  0  0
  4  5  2  0  0  0  0
  1  6  1  0  0  0  0
  7  9  2  0  0  0  0
  6  8  1  0  0  0  0
  9 11  1  0  0  0  0
  7 10  1  0  0  0  0
  8 11  1  0  0  0  0
  6 12  2  0  0  0  0
  9 13  1  0  0  0  0
 14 16  1  0  0  0  0
 10 14  2  0  0  0  0
  7 15  1  0  0  0  0
 13 16  2  0  0  0  0
  3 17  1  0  0  0  0
 14 18  1  0  0  0  0
  5 19  1  0  0  0  0
 17 20  1  0  0  0  0
 20 21  1  0  0  0  0
 19 21  1  0  0  0  0
M  END
> <IDNUMBER>
P078-0328

> <available>
2

> <H_acceptor>
3

> <H_donor>
1

> <B_rotN>
4

> <N_O>
4

> <logP>
2.4853

> <logD>
2.4853

> <logSw>
-2.7914

> <PSA>
38.381

> <pKa_ma>
12.2696

> <pKa_mb>
-0.7771

> <N_Chirals>
0

> <Name>
N-[(2,4-difluorophenyl)methyl]-4,5,6,7-tetrahydropyrazolo[1,5-a]pyridine-2-carboxamide

> <Smile>
O=C(c1nn(CCCC2)c2c1)NCc(ccc(F)c1)c1F

> <Color>
YELLOW

> <Collection>
NC

> <InChI>
InChI=1S/C15H15F2N3O/c16-11-5-4-10(13(17)7-11)9-18-15(21)14-8-12-3-1-2-6-20(12)19-14/h4-5,7-8H,1-3,6,9H2,(H,18,21)

> <InChI Key>
BTEMBIYVWGBLGJ-UHFFFAOYSA-N

> <PERCENTSP3>
33.3

> <Link>
https://www.chemdiv.com/catalog/screening-compounds/compound-P078-0328/

> <MFCDNUMBER>
MFCD27563259

> <CLNUMBER>
CM0145

> <STEREO>
ACHIRAL

> <State>
Solid

> <Similarity score>
0.26

$$$$
5-{[3-(4-fluorophenyl)-1H-pyrazol-4-yl]methyl}-N-(propan-2-yl)-4,5,6,7-tetrahydr
  -OEChem-04222410502D

 28 31  0     0  0  0  0  0  0999 V2000
    2.7704   -0.6146    0.0000 C   0  0  0  0  0  0  0  0  0  0  0  0
    2.3621   -1.5269    0.0000 N   0  0  0  0  0  0  0  0  0  0  0  0
    1.3707   -1.4227    0.0000 N   0  0  0  0  0  0  0  0  0  0  0  0
    1.1624   -0.4438    0.0000 C   0  0  0  0  0  0  0  0  0  0  0  0
   -1.6915    0.4811    0.0000 C   0  0  0  0  0  0  0  0  0  0  0  0
    2.0289    0.0563    0.0000 C   0  0  0  0  0  0  0  0  0  0  0  0
    3.7495   -0.4062    0.0000 C   0  0  0  0  0  0  0  0  0  0  0  0
   -2.6038    0.8894    0.0000 C   0  0  0  0  0  0  0  0  0  0  0  0
   -2.4997    1.8852    0.0000 N   0  0  0  0  0  0  0  0  0  0  0  0
   -0.5332   -0.8062    0.0000 N   0  0  0  0  0  0  0  0  0  0  0  0
   -1.5207    2.0935    0.0000 N   0  0  0  0  0  0  0  0  0  0  0  0
   -1.4831   -0.4938    0.0000 C   0  0  0  0  0  0  0  0  0  0  0  0
    0.2125   -0.1353    0.0000 C   0  0  0  0  0  0  0  0  0  0  0  0
   -1.0206    1.2270    0.0000 C   0  0  0  0  0  0  0  0  0  0  0  0
    4.4162   -1.1478    0.0000 N   0  0  0  0  0  0  0  0  0  0  0  0
    0.6250   -2.0935    0.0000 C   0  0  0  0  0  0  0  0  0  0  0  0
   -3.4703    0.3895    0.0000 C   0  0  0  0  0  0  0  0  0  0  0  0
    4.0577    0.5437    0.0000 O   0  0  0  0  0  0  0  0  0  0  0  0
   -0.3249   -1.7811    0.0000 C   0  0  0  0  0  0  0  0  0  0  0  0
   -4.3370    0.8894    0.0000 C   0  0  0  0  0  0  0  0  0  0  0  0
   -3.4703   -0.6104    0.0000 C   0  0  0  0  0  0  0  0  0  0  0  0
   -5.2036   -0.6104    0.0000 C   0  0  0  0  0  0  0  0  0  0  0  0
   -4.3370   -1.1103    0.0000 C   0  0  0  0  0  0  0  0  0  0  0  0
   -5.2036    0.3895    0.0000 C   0  0  0  0  0  0  0  0  0  0  0  0
   -6.0660   -1.1103    0.0000 F   0  0  0  0  0  0  0  0  0  0  0  0
    5.3951   -0.9395    0.0000 C   0  0  0  0  0  0  0  0  0  0  0  0
    6.0660   -1.6852    0.0000 C   0  0  0  0  0  0  0  0  0  0  0  0
    5.7035    0.0104    0.0000 C   0  0  0  0  0  0  0  0  0  0  0  0
  1  2  2  0  0  0  0
  2  3  1  0  0  0  0
  4  6  2  0  0  0  0
  3  4  1  0  0  0  0
  5 12  1  0  0  0  0
  1  6  1  0  0  0  0
  1  7  1  0  0  0  0
  5  8  1  0  0  0  0
  8  9  2  0  0  0  0
  9 11  1  0  0  0  0
 10 13  1  0  0  0  0
 11 14  1  0  0  0  0
 10 12  1  0  0  0  0
  4 13  1  0  0  0  0
  5 14  2  0  0  0  0
  7 15  1  0  0  0  0
  3 16  1  0  0  0  0
  8 17  1  0  0  0  0
  7 18  2  0  0  0  0
 16 19  1  0  0  0  0
 10 19  1  0  0  0  0
 17 20  2  0  0  0  0
 17 21  1  0  0  0  0
 22 23  1  0  0  0  0
 22 24  2  0  0  0  0
 21 23  2  0  0  0  0
 20 24  1  0  0  0  0
 22 25  1  0  0  0  0
 15 26  1  0  0  0  0
 26 27  1  0  0  0  0
 26 28  1  0  0  0  0
M  END
> <IDNUMBER>
SB71-0664

> <available>
45

> <H_acceptor>
5

> <H_donor>
2

> <B_rotN>
6

> <N_O>
7

> <logP>
1.8059

> <logD>
1.369

> <logSw>
-2.4265

> <PSA>
65.291

> <pKa_ma>
11.6652

> <pKa_mb>
7.6393

> <N_Chirals>
0

> <Name>
5-{[3-(4-fluorophenyl)-1H-pyrazol-4-yl]methyl}-N-(propan-2-yl)-4,5,6,7-tetrahydropyrazolo[1,5-a]pyrazine-2-carboxamide

> <Smile>
CC(C)NC(c1nn(CCN(Cc2c[nH]nc2-c(cc2)ccc2F)C2)c2c1)=O

> <Color>
NOT COLORED

> <Collection>
IC

> <InChI>
InChI=1S/C20H23FN6O/c1-13(2)23-20(28)18-9-17-12-26(7-8-27(17)25-18)11-15-10-22-24-19(15)14-3-5-16(21)6-4-14/h3-6,9-10,13H,7-8,11-12H2,1-2H3,(H,22,24)(H,23,28)

> <InChI Key>
WCUQGSDYZMGPRF-UHFFFAOYSA-N

> <PERCENTSP3>
35

> <Link>
https://www.chemdiv.com/catalog/screening-compounds/compound-SB71-0664/

> <MFCDNUMBER>
MFCD32249430

> <CLNUMBER>
CM5543

> <STEREO>
ACHIRAL

> <State>
Solid

> <Similarity score>
0.26

$$$$
{5-[(3,5-dimethyl-1,2-oxazol-4-yl)methyl]-4,5,6,7-tetrahydropyrazolo[1,5-a]pyraz
  -OEChem-04222410502D

 25 28  0     0  0  0  0  0  0999 V2000
    1.3893   -0.2854    0.0000 C   0  0  0  0  0  0  0  0  0  0  0  0
    1.2852    0.7103    0.0000 N   0  0  0  0  0  0  0  0  0  0  0  0
    0.3064    0.9184    0.0000 N   0  0  0  0  0  0  0  0  0  0  0  0
   -3.1892    0.0520    0.0000 C   0  0  0  0  0  0  0  0  0  0  0  0
   -0.1938    0.0520    0.0000 C   0  0  0  0  0  0  0  0  0  0  0  0
    0.4771   -0.6895    0.0000 C   0  0  0  0  0  0  0  0  0  0  0  0
    2.2560   -0.7852    0.0000 C   0  0  0  0  0  0  0  0  0  0  0  0
   -3.5268   -1.5310    0.0000 N   0  0  0  0  0  0  0  0  0  0  0  0
   -4.3932   -1.0312    0.0000 O   0  0  0  0  0  0  0  0  0  0  0  0
   -4.1848   -0.0520    0.0000 C   0  0  0  0  0  0  0  0  0  0  0  0
   -2.7849   -0.8602    0.0000 C   0  0  0  0  0  0  0  0  0  0  0  0
   -1.6935    0.9184    0.0000 N   0  0  0  0  0  0  0  0  0  0  0  0
    3.1224   -0.2854    0.0000 N   0  0  0  0  0  0  0  0  0  0  0  0
   -2.6892    0.9184    0.0000 C   0  0  0  0  0  0  0  0  0  0  0  0
   -1.1935    0.0520    0.0000 C   0  0  0  0  0  0  0  0  0  0  0  0
   -0.1938    1.7852    0.0000 C   0  0  0  0  0  0  0  0  0  0  0  0
    2.2560   -1.7852    0.0000 O   0  0  0  0  0  0  0  0  0  0  0  0
   -1.1935    1.7852    0.0000 C   0  0  0  0  0  0  0  0  0  0  0  0
    4.8555    0.7145    0.0000 O   0  0  0  0  0  0  0  0  0  0  0  0
    3.9889   -0.7852    0.0000 C   0  0  0  0  0  0  0  0  0  0  0  0
    3.1224    0.7145    0.0000 C   0  0  0  0  0  0  0  0  0  0  0  0
   -4.8555    0.6895    0.0000 C   0  0  0  0  0  0  0  0  0  0  0  0
   -1.8059   -1.0687    0.0000 C   0  0  0  0  0  0  0  0  0  0  0  0
    3.9889    1.2143    0.0000 C   0  0  0  0  0  0  0  0  0  0  0  0
    4.8555   -0.2854    0.0000 C   0  0  0  0  0  0  0  0  0  0  0  0
  1  2  2  0  0  0  0
  2  3  1  0  0  0  0
  4 14  1  0  0  0  0
  5  6  2  0  0  0  0
  3  5  1  0  0  0  0
  1  6  1  0  0  0  0
  1  7  1  0  0  0  0
  8 11  2  0  0  0  0
  9 10  1  0  0  0  0
  8  9  1  0  0  0  0
  4 10  2  0  0  0  0
  4 11  1  0  0  0  0
 12 15  1  0  0  0  0
  7 13  1  0  0  0  0
 12 14  1  0  0  0  0
  5 15  1  0  0  0  0
  3 16  1  0  0  0  0
  7 17  2  0  0  0  0
 16 18  1  0  0  0  0
 12 18  1  0  0  0  0
 19 24  1  0  0  0  0
 19 25  1  0  0  0  0
 13 20  1  0  0  0  0
 13 21  1  0  0  0  0
 10 22  1  0  0  0  0
 11 23  1  0  0  0  0
 21 24  1  0  0  0  0
 20 25  1  0  0  0  0
M  END
> <IDNUMBER>
SB71-0224

> <available>
16

> <H_acceptor>
7

> <H_donor>
0

> <B_rotN>
4

> <N_O>
8

> <logP>
0.0187

> <logD>
-0.4595

> <logSw>
-0.5607

> <PSA>
64.037

> <pKa_ma>
24.0053

> <pKa_mb>
7.7028

> <N_Chirals>
0

> <Name>
{5-[(3,5-dimethyl-1,2-oxazol-4-yl)methyl]-4,5,6,7-tetrahydropyrazolo[1,5-a]pyrazin-2-yl}(morpholin-4-yl)methanone

> <Smile>
Cc1noc(C)c1CN1Cc2cc(C(N3CCOCC3)=O)nn2CC1

> <Color>
YELLOW

> <Collection>
IC

> <InChI>
InChI=1S/C17H23N5O3/c1-12-15(13(2)25-19-12)11-20-3-4-22-14(10-20)9-16(18-22)17(23)21-5-7-24-8-6-21/h9H,3-8,10-11H2,1-2H3

> <InChI Key>
XZCQZUYMBKDFLA-UHFFFAOYSA-N

> <PERCENTSP3>
58.82

> <Link>
https://www.chemdiv.com/catalog/screening-compounds/compound-SB71-0224/

> <MFCDNUMBER>
MFCD32249634

> <CLNUMBER>
CM5543

> <STEREO>
ACHIRAL

> <State>
Solid

> <Similarity score>
0.26

$$$$
[5-(2,5-dimethoxybenzene-1-sulfonyl)-4,5,6,7-tetrahydropyrazolo[1,5-a]pyrazin-2-
  -OEChem-04222410502D

 30 33  0     0  0  0  0  0  0999 V2000
    1.4064   -1.0522    0.0000 S   0  0  0  0  0  0  0  0  0  0  0  0
   -2.6773    0.1520    0.0000 C   0  0  0  0  0  0  0  0  0  0  0  0
    0.4062   -1.0522    0.0000 N   0  0  0  0  0  0  0  0  0  0  0  0
    2.4066   -1.0522    0.0000 C   0  0  0  0  0  0  0  0  0  0  0  0
   -2.5691   -0.8439    0.0000 N   0  0  0  0  0  0  0  0  0  0  0  0
   -1.0938   -0.1855    0.0000 C   0  0  0  0  0  0  0  0  0  0  0  0
   -1.5940   -1.0522    0.0000 N   0  0  0  0  0  0  0  0  0  0  0  0
   -1.7606    0.5563    0.0000 C   0  0  0  0  0  0  0  0  0  0  0  0
   -3.5399    0.6520    0.0000 C   0  0  0  0  0  0  0  0  0  0  0  0
   -0.0936   -0.1855    0.0000 C   0  0  0  0  0  0  0  0  0  0  0  0
   -3.5399    1.6522    0.0000 N   0  0  0  0  0  0  0  0  0  0  0  0
   -0.0936   -1.9189    0.0000 C   0  0  0  0  0  0  0  0  0  0  0  0
    2.9066   -1.9189    0.0000 C   0  0  0  0  0  0  0  0  0  0  0  0
   -1.0938   -1.9189    0.0000 C   0  0  0  0  0  0  0  0  0  0  0  0
    1.4064   -0.0521    0.0000 O   0  0  0  0  0  0  0  0  0  0  0  0
    1.4064   -2.0522    0.0000 O   0  0  0  0  0  0  0  0  0  0  0  0
    2.9066   -0.1855    0.0000 C   0  0  0  0  0  0  0  0  0  0  0  0
   -4.4066    0.1520    0.0000 O   0  0  0  0  0  0  0  0  0  0  0  0
   -3.5399    3.6524    0.0000 O   0  0  0  0  0  0  0  0  0  0  0  0
    3.9068   -0.1855    0.0000 C   0  0  0  0  0  0  0  0  0  0  0  0
    3.9068   -1.9189    0.0000 C   0  0  0  0  0  0  0  0  0  0  0  0
    4.4066   -1.0522    0.0000 C   0  0  0  0  0  0  0  0  0  0  0  0
    2.4066    0.6812    0.0000 O   0  0  0  0  0  0  0  0  0  0  0  0
   -4.4066    2.1522    0.0000 C   0  0  0  0  0  0  0  0  0  0  0  0
   -2.6773    2.1522    0.0000 C   0  0  0  0  0  0  0  0  0  0  0  0
    4.4066   -2.7857    0.0000 O   0  0  0  0  0  0  0  0  0  0  0  0
   -4.4066    3.1523    0.0000 C   0  0  0  0  0  0  0  0  0  0  0  0
   -2.6773    3.1523    0.0000 C   0  0  0  0  0  0  0  0  0  0  0  0
    2.9066    1.5481    0.0000 C   0  0  0  0  0  0  0  0  0  0  0  0
    3.9068   -3.6524    0.0000 C   0  0  0  0  0  0  0  0  0  0  0  0
  2  8  1  0  0  0  0
  2  5  2  0  0  0  0
  1  3  1  0  0  0  0
  1  4  1  0  0  0  0
  5  7  1  0  0  0  0
  6 10  1  0  0  0  0
  6  7  1  0  0  0  0
  7 14  1  0  0  0  0
  6  8  2  0  0  0  0
  2  9  1  0  0  0  0
  3 10  1  0  0  0  0
  9 11  1  0  0  0  0
  3 12  1  0  0  0  0
  4 13  1  0  0  0  0
 12 14  1  0  0  0  0
  1 15  2  0  0  0  0
  1 16  2  0  0  0  0
  4 17  2  0  0  0  0
  9 18  2  0  0  0  0
 19 28  1  0  0  0  0
 19 27  1  0  0  0  0
 17 20  1  0  0  0  0
 13 21  2  0  0  0  0
 20 22  2  0  0  0  0
 21 22  1  0  0  0  0
 17 23  1  0  0  0  0
 11 24  1  0  0  0  0
 11 25  1  0  0  0  0
 21 26  1  0  0  0  0
 24 27  1  0  0  0  0
 25 28  1  0  0  0  0
 23 29  1  0  0  0  0
 26 30  1  0  0  0  0
M  END
> <IDNUMBER>
SB71-0288

> <available>
128

> <H_acceptor>
11

> <H_donor>
0

> <B_rotN>
6

> <N_O>
10

> <logP>
0.4281

> <logD>
0.4281

> <logSw>
-2.267

> <PSA>
85.151

> <pKa_ma>
26.1583

> <pKa_mb>
-4.4541

> <N_Chirals>
0

> <Name>
[5-(2,5-dimethoxybenzene-1-sulfonyl)-4,5,6,7-tetrahydropyrazolo[1,5-a]pyrazin-2-yl](morpholin-4-yl)methanone

> <Smile>
COc(cc1)cc(S(N2Cc3cc(C(N4CCOCC4)=O)nn3CC2)(=O)=O)c1OC

> <Color>
YELLOW

> <Collection>
IC

> <InChI>
InChI=1S/C19H24N4O6S/c1-27-15-3-4-17(28-2)18(12-15)30(25,26)22-5-6-23-14(13-22)11-16(20-23)19(24)21-7-9-29-10-8-21/h3-4,11-12H,5-10,13H2,1-2H3

> <InChI Key>
TVLIZOQLGWUUER-UHFFFAOYSA-N

> <PERCENTSP3>
47.37

> <Link>
https://www.chemdiv.com/catalog/screening-compounds/compound-SB71-0288/

> <MFCDNUMBER>
MFCD32249321

> <CLNUMBER>
CM5543

> <STEREO>
ACHIRAL

> <State>
Solid

> <Similarity score>
0.26

$$$$
N-(2,4-difluorophenyl)-4,5,6,7-tetrahydropyrazolo[1,5-a]pyridine-2-carboxamide
  -OEChem-04222410502D

 20 22  0     0  0  0  0  0  0999 V2000
   -1.1144    0.3646    0.0000 C   0  0  0  0  0  0  0  0  0  0  0  0
   -1.7058   -0.4436    0.0000 N   0  0  0  0  0  0  0  0  0  0  0  0
   -2.6642   -0.1352    0.0000 N   0  0  0  0  0  0  0  0  0  0  0  0
   -1.7058    1.1810    0.0000 C   0  0  0  0  0  0  0  0  0  0  0  0
   -0.1145    0.3646    0.0000 C   0  0  0  0  0  0  0  0  0  0  0  0
   -2.6642    0.8645    0.0000 C   0  0  0  0  0  0  0  0  0  0  0  0
    0.3813   -0.4938    0.0000 N   0  0  0  0  0  0  0  0  0  0  0  0
    1.3852   -0.4938    0.0000 C   0  0  0  0  0  0  0  0  0  0  0  0
    1.8852    0.3646    0.0000 C   0  0  0  0  0  0  0  0  0  0  0  0
    2.8850    0.3646    0.0000 C   0  0  0  0  0  0  0  0  0  0  0  0
    0.3813    1.2310    0.0000 O   0  0  0  0  0  0  0  0  0  0  0  0
    1.8852   -1.3644    0.0000 C   0  0  0  0  0  0  0  0  0  0  0  0
    3.3807   -0.4938    0.0000 C   0  0  0  0  0  0  0  0  0  0  0  0
    1.3852    1.2310    0.0000 F   0  0  0  0  0  0  0  0  0  0  0  0
    2.8850   -1.3644    0.0000 C   0  0  0  0  0  0  0  0  0  0  0  0
   -3.5224   -0.6312    0.0000 C   0  0  0  0  0  0  0  0  0  0  0  0
    4.3889   -0.4938    0.0000 F   0  0  0  0  0  0  0  0  0  0  0  0
   -3.5224    1.3644    0.0000 C   0  0  0  0  0  0  0  0  0  0  0  0
   -4.3889   -0.1352    0.0000 C   0  0  0  0  0  0  0  0  0  0  0  0
   -4.3889    0.8645    0.0000 C   0  0  0  0  0  0  0  0  0  0  0  0
  1  2  2  0  0  0  0
  2  3  1  0  0  0  0
  3  6  1  0  0  0  0
  1  4  1  0  0  0  0
  1  5  1  0  0  0  0
  4  6  2  0  0  0  0
  5  7  1  0  0  0  0
  7  8  1  0  0  0  0
  8  9  2  0  0  0  0
  9 10  1  0  0  0  0
  5 11  2  0  0  0  0
  8 12  1  0  0  0  0
 13 15  1  0  0  0  0
 10 13  2  0  0  0  0
  9 14  1  0  0  0  0
 12 15  2  0  0  0  0
  3 16  1  0  0  0  0
 13 17  1  0  0  0  0
  6 18  1  0  0  0  0
 16 19  1  0  0  0  0
 19 20  1  0  0  0  0
 18 20  1  0  0  0  0
M  END
> <IDNUMBER>
P078-0321

> <available>
2

> <H_acceptor>
3

> <H_donor>
1

> <B_rotN>
3

> <N_O>
4

> <logP>
2.4421

> <logD>
2.4104

> <logSw>
-2.9325

> <PSA>
36.361

> <pKa_ma>
8.5202

> <pKa_mb>
-0.2253

> <N_Chirals>
0

> <Name>
N-(2,4-difluorophenyl)-4,5,6,7-tetrahydropyrazolo[1,5-a]pyridine-2-carboxamide

> <Smile>
O=C(c1nn(CCCC2)c2c1)Nc(ccc(F)c1)c1F

> <Color>
ORANGE

> <Collection>
NC

> <InChI>
InChI=1S/C14H13F2N3O/c15-9-4-5-12(11(16)7-9)17-14(20)13-8-10-3-1-2-6-19(10)18-13/h4-5,7-8H,1-3,6H2,(H,17,20)

> <InChI Key>
BYFXJZMKCVOWIH-UHFFFAOYSA-N

> <PERCENTSP3>
28.6

> <Link>
https://www.chemdiv.com/catalog/screening-compounds/compound-P078-0321/

> <MFCDNUMBER>
MFCD27563256

> <CLNUMBER>
CM0145

> <STEREO>
ACHIRAL

> <State>
Solid

> <Similarity score>
0.26

$$$$
N-(2-fluoro-5-methylphenyl)-4,5,6,7-tetrahydropyrazolo[1,5-a]pyridine-2-carboxam
  -OEChem-04222410502D

 20 22  0     0  0  0  0  0  0999 V2000
   -0.6145   -0.7980    0.0000 C   0  0  0  0  0  0  0  0  0  0  0  0
   -1.2063    0.0104    0.0000 N   0  0  0  0  0  0  0  0  0  0  0  0
   -2.1522   -0.2980    0.0000 N   0  0  0  0  0  0  0  0  0  0  0  0
   -1.2063   -1.6065    0.0000 C   0  0  0  0  0  0  0  0  0  0  0  0
    0.3854   -0.7980    0.0000 C   0  0  0  0  0  0  0  0  0  0  0  0
   -2.1522   -1.3022    0.0000 C   0  0  0  0  0  0  0  0  0  0  0  0
    0.8855    0.0646    0.0000 N   0  0  0  0  0  0  0  0  0  0  0  0
    1.8942    0.0646    0.0000 C   0  0  0  0  0  0  0  0  0  0  0  0
    2.3899   -0.7980    0.0000 C   0  0  0  0  0  0  0  0  0  0  0  0
    0.8855   -1.6689    0.0000 O   0  0  0  0  0  0  0  0  0  0  0  0
    2.3899    0.9397    0.0000 C   0  0  0  0  0  0  0  0  0  0  0  0
    3.3899   -0.7980    0.0000 C   0  0  0  0  0  0  0  0  0  0  0  0
    3.3899    0.9397    0.0000 C   0  0  0  0  0  0  0  0  0  0  0  0
    1.8942   -1.6689    0.0000 F   0  0  0  0  0  0  0  0  0  0  0  0
   -3.0274    0.1979    0.0000 C   0  0  0  0  0  0  0  0  0  0  0  0
    3.8857    0.0646    0.0000 C   0  0  0  0  0  0  0  0  0  0  0  0
   -3.0274   -1.7981    0.0000 C   0  0  0  0  0  0  0  0  0  0  0  0
    3.8857    1.7981    0.0000 C   0  0  0  0  0  0  0  0  0  0  0  0
   -3.8857   -0.2980    0.0000 C   0  0  0  0  0  0  0  0  0  0  0  0
   -3.8857   -1.3022    0.0000 C   0  0  0  0  0  0  0  0  0  0  0  0
  1  2  2  0  0  0  0
  2  3  1  0  0  0  0
  3  6  1  0  0  0  0
  1  4  1  0  0  0  0
  1  5  1  0  0  0  0
  4  6  2  0  0  0  0
  5  7  1  0  0  0  0
  7  8  1  0  0  0  0
  8  9  2  0  0  0  0
  5 10  2  0  0  0  0
  8 11  1  0  0  0  0
  9 12  1  0  0  0  0
 11 13  2  0  0  0  0
  9 14  1  0  0  0  0
  3 15  1  0  0  0  0
 13 16  1  0  0  0  0
 12 16  2  0  0  0  0
  6 17  1  0  0  0  0
 13 18  1  0  0  0  0
 15 19  1  0  0  0  0
 19 20  1  0  0  0  0
 17 20  1  0  0  0  0
M  END
> <IDNUMBER>
P078-0344

> <available>
2

> <H_acceptor>
3

> <H_donor>
1

> <B_rotN>
3

> <N_O>
4

> <logP>
2.8124

> <logD>
2.812

> <logSw>
-3.1794

> <PSA>
36.361

> <pKa_ma>
10.4984

> <pKa_mb>
-0.2253

> <N_Chirals>
0

> <Name>
N-(2-fluoro-5-methylphenyl)-4,5,6,7-tetrahydropyrazolo[1,5-a]pyridine-2-carboxamide

> <Smile>
Cc(cc1)cc(NC(c2nn(CCCC3)c3c2)=O)c1F

> <Color>
YELLOW

> <Collection>
NC

> <InChI>
InChI=1S/C15H16FN3O/c1-10-5-6-12(16)13(8-10)17-15(20)14-9-11-4-2-3-7-19(11)18-14/h5-6,8-9H,2-4,7H2,1H3,(H,17,20)

> <InChI Key>
JOVWGZCIYRVSMJ-UHFFFAOYSA-N

> <PERCENTSP3>
33.33

> <Link>
https://www.chemdiv.com/catalog/screening-compounds/compound-P078-0344/

> <MFCDNUMBER>
MFCD27563266

> <CLNUMBER>
CM0145

> <STEREO>
ACHIRAL

> <State>
Solid

> <Similarity score>
0.26

$$$$
2-(3,4-dimethoxyphenyl)-5-[(2-fluorophenyl)methyl]-5,6,7,8-tetrahydro-4H-pyrazol
  -OEChem-04222410502D

 28 31  0     0  0  0  0  0  0999 V2000
    0.9940   -1.1712    0.0000 N   0  0  0  0  0  0  0  0  0  0  0  0
   -0.3605   -0.3084    0.0000 C   0  0  0  0  0  0  0  0  0  0  0  0
    0.0019   -1.2420    0.0000 N   0  0  0  0  0  0  0  0  0  0  0  0
    0.4146    0.3293    0.0000 C   0  0  0  0  0  0  0  0  0  0  0  0
    1.2566   -0.2084    0.0000 C   0  0  0  0  0  0  0  0  0  0  0  0
   -2.1446   -0.5669    0.0000 N   0  0  0  0  0  0  0  0  0  0  0  0
    2.1819    0.1668    0.0000 C   0  0  0  0  0  0  0  0  0  0  0  0
   -1.3233   -0.0082    0.0000 C   0  0  0  0  0  0  0  0  0  0  0  0
   -3.8826   -0.5669    0.0000 C   0  0  0  0  0  0  0  0  0  0  0  0
    2.9572   -0.4669    0.0000 C   0  0  0  0  0  0  0  0  0  0  0  0
   -3.0073   -0.0710    0.0000 C   0  0  0  0  0  0  0  0  0  0  0  0
    3.8906   -0.0959    0.0000 C   0  0  0  0  0  0  0  0  0  0  0  0
    4.0450    0.8919    0.0000 C   0  0  0  0  0  0  0  0  0  0  0  0
   -3.8826   -1.5797    0.0000 C   0  0  0  0  0  0  0  0  0  0  0  0
    2.3319    1.1463    0.0000 C   0  0  0  0  0  0  0  0  0  0  0  0
    3.2657    1.5047    0.0000 C   0  0  0  0  0  0  0  0  0  0  0  0
   -0.4940   -2.1048    0.0000 C   0  0  0  0  0  0  0  0  0  0  0  0
   -1.4818   -2.2466    0.0000 C   0  0  0  0  0  0  0  0  0  0  0  0
   -3.0073   -2.0715    0.0000 F   0  0  0  0  0  0  0  0  0  0  0  0
   -2.2196   -1.5671    0.0000 C   0  0  0  0  0  0  0  0  0  0  0  0
    4.6786   -0.7210    0.0000 O   0  0  0  0  0  0  0  0  0  0  0  0
    4.9786    1.2546    0.0000 O   0  0  0  0  0  0  0  0  0  0  0  0
   -4.7453   -0.0710    0.0000 C   0  0  0  0  0  0  0  0  0  0  0  0
   -4.7453   -2.0715    0.0000 C   0  0  0  0  0  0  0  0  0  0  0  0
    5.6081   -0.3542    0.0000 C   0  0  0  0  0  0  0  0  0  0  0  0
    5.1204    2.2466    0.0000 C   0  0  0  0  0  0  0  0  0  0  0  0
   -5.6081   -0.5669    0.0000 C   0  0  0  0  0  0  0  0  0  0  0  0
   -5.6081   -1.5797    0.0000 C   0  0  0  0  0  0  0  0  0  0  0  0
  2  3  1  0  0  0  0
  2  4  2  0  0  0  0
  1  3  1  0  0  0  0
  4  5  1  0  0  0  0
  1  5  2  0  0  0  0
  6  8  1  0  0  0  0
  5  7  1  0  0  0  0
  2  8  1  0  0  0  0
  9 11  1  0  0  0  0
  7 10  2  0  0  0  0
  6 11  1  0  0  0  0
 10 12  1  0  0  0  0
 13 16  1  0  0  0  0
 12 13  2  0  0  0  0
  9 14  2  0  0  0  0
  7 15  1  0  0  0  0
 15 16  2  0  0  0  0
  3 17  1  0  0  0  0
 17 18  1  0  0  0  0
 14 19  1  0  0  0  0
 18 20  1  0  0  0  0
  6 20  1  0  0  0  0
 12 21  1  0  0  0  0
 13 22  1  0  0  0  0
  9 23  1  0  0  0  0
 14 24  1  0  0  0  0
 21 25  1  0  0  0  0
 22 26  1  0  0  0  0
 23 27  2  0  0  0  0
 27 28  1  0  0  0  0
 24 28  2  0  0  0  0
M  END
> <IDNUMBER>
T202-0841

> <available>
4

> <H_acceptor>
4

> <H_donor>
0

> <B_rotN>
5

> <N_O>
5

> <logP>
3.579

> <logD>
3.5376

> <logSw>
-3.598

> <PSA>
32.762

> <pKa_ma>
26.759

> <pKa_mb>
6.3995

> <N_Chirals>
0

> <Name>
2-(3,4-dimethoxyphenyl)-5-[(2-fluorophenyl)methyl]-5,6,7,8-tetrahydro-4H-pyrazolo[1,5-a][1,4]diazepine

> <Smile>
COc(ccc(-c1nn(CCCN(Cc(cccc2)c2F)C2)c2c1)c1)c1OC

> <Color>
ORANGE

> <Collection>
NC

> <InChI>
InChI=1S/C22H24FN3O2/c1-27-21-9-8-16(12-22(21)28-2)20-13-18-15-25(10-5-11-26(18)24-20)14-17-6-3-4-7-19(17)23/h3-4,6-9,12-13H,5,10-11,14-15H2,1-2H3

> <InChI Key>
NVRQFGQGPRIFAH-UHFFFAOYSA-N

> <PERCENTSP3>
31.8

> <Link>
https://www.chemdiv.com/catalog/screening-compounds/compound-T202-0841/

> <MFCDNUMBER>
MFCD27618720

> <CLNUMBER>
CM0222

> <STEREO>
ACHIRAL

> <State>
Liquid

> <Similarity score>
0.26

$$$$
N-cyclopentyl-5-[(1H-indol-3-yl)methyl]-4,5,6,7-tetrahydropyrazolo[1,5-a]pyrazin
  -OEChem-04222410502D

 27 31  0     0  0  0  0  0  0999 V2000
    1.7025   -0.1229    0.0000 C   0  0  0  0  0  0  0  0  0  0  0  0
    1.7025    0.8773    0.0000 N   0  0  0  0  0  0  0  0  0  0  0  0
    0.7523    1.1855    0.0000 N   0  0  0  0  0  0  0  0  0  0  0  0
    0.1646    0.3730    0.0000 C   0  0  0  0  0  0  0  0  0  0  0  0
    0.7523   -0.4356    0.0000 C   0  0  0  0  0  0  0  0  0  0  0  0
   -2.8193    0.6897    0.0000 C   0  0  0  0  0  0  0  0  0  0  0  0
    2.5150   -0.7147    0.0000 C   0  0  0  0  0  0  0  0  0  0  0  0
   -3.3194   -0.8524    0.0000 N   0  0  0  0  0  0  0  0  0  0  0  0
   -2.5109   -0.2606    0.0000 C   0  0  0  0  0  0  0  0  0  0  0  0
   -1.2357    1.3939    0.0000 N   0  0  0  0  0  0  0  0  0  0  0  0
   -3.8196    0.6897    0.0000 C   0  0  0  0  0  0  0  0  0  0  0  0
   -0.8313    0.4812    0.0000 C   0  0  0  0  0  0  0  0  0  0  0  0
   -2.2317    1.4982    0.0000 C   0  0  0  0  0  0  0  0  0  0  0  0
    3.4277   -0.3066    0.0000 N   0  0  0  0  0  0  0  0  0  0  0  0
    0.3479    2.0982    0.0000 C   0  0  0  0  0  0  0  0  0  0  0  0
   -4.1278   -0.2606    0.0000 C   0  0  0  0  0  0  0  0  0  0  0  0
    2.4109   -1.7066    0.0000 O   0  0  0  0  0  0  0  0  0  0  0  0
   -0.6482    2.2025    0.0000 C   0  0  0  0  0  0  0  0  0  0  0  0
    4.2363   -0.8941    0.0000 C   0  0  0  0  0  0  0  0  0  0  0  0
   -4.4864    1.4315    0.0000 C   0  0  0  0  0  0  0  0  0  0  0  0
   -5.1075   -0.4690    0.0000 C   0  0  0  0  0  0  0  0  0  0  0  0
    5.1863   -0.5855    0.0000 C   0  0  0  0  0  0  0  0  0  0  0  0
    4.2363   -1.8941    0.0000 C   0  0  0  0  0  0  0  0  0  0  0  0
   -5.4658    1.2230    0.0000 C   0  0  0  0  0  0  0  0  0  0  0  0
   -5.7742    0.2728    0.0000 C   0  0  0  0  0  0  0  0  0  0  0  0
    5.1863   -2.2025    0.0000 C   0  0  0  0  0  0  0  0  0  0  0  0
    5.7742   -1.3943    0.0000 C   0  0  0  0  0  0  0  0  0  0  0  0
  1  2  2  0  0  0  0
  2  3  1  0  0  0  0
  4  5  2  0  0  0  0
  3  4  1  0  0  0  0
  1  5  1  0  0  0  0
  6 13  1  0  0  0  0
  1  7  1  0  0  0  0
  8  9  1  0  0  0  0
  8 16  1  0  0  0  0
  6  9  2  0  0  0  0
 10 12  1  0  0  0  0
  6 11  1  0  0  0  0
  4 12  1  0  0  0  0
 10 13  1  0  0  0  0
  7 14  1  0  0  0  0
  3 15  1  0  0  0  0
 11 16  1  0  0  0  0
  7 17  2  0  0  0  0
 15 18  1  0  0  0  0
 10 18  1  0  0  0  0
 14 19  1  0  0  0  0
 11 20  2  0  0  0  0
 16 21  2  0  0  0  0
 19 22  1  0  0  0  0
 19 23  1  0  0  0  0
 20 24  1  0  0  0  0
 24 25  2  0  0  0  0
 21 25  1  0  0  0  0
 23 26  1  0  0  0  0
 26 27  1  0  0  0  0
 22 27  1  0  0  0  0
M  END
> <IDNUMBER>
SB71-0789

> <available>
12

> <H_acceptor>
4

> <H_donor>
2

> <B_rotN>
5

> <N_O>
6

> <logP>
2.566

> <logD>
2.2109

> <logSw>
-2.9596

> <PSA>
51.817

> <pKa_ma>
15.6721

> <pKa_mb>
7.502

> <N_Chirals>
0

> <Name>
N-cyclopentyl-5-[(1H-indol-3-yl)methyl]-4,5,6,7-tetrahydropyrazolo[1,5-a]pyrazine-2-carboxamide

> <Smile>
O=C(c1nn(CCN(Cc2c[nH]c3c2cccc3)C2)c2c1)NC1CCCC1

> <Color>
ORANGE

> <Collection>
IC

> <InChI>
InChI=1S/C21H25N5O/c27-21(23-16-5-1-2-6-16)20-11-17-14-25(9-10-26(17)24-20)13-15-12-22-19-8-4-3-7-18(15)19/h3-4,7-8,11-12,16,22H,1-2,5-6,9-10,13-14H2,(H,23,27)

> <InChI Key>
ZDUNLCLNXXVBQJ-UHFFFAOYSA-N

> <PERCENTSP3>
42.86

> <Link>
https://www.chemdiv.com/catalog/screening-compounds/compound-SB71-0789/

> <MFCDNUMBER>
MFCD32249652

> <CLNUMBER>
CM5543

> <STEREO>
ACHIRAL

> <State>
Solid

> <Similarity score>
0.26

$$$$
5-(isoquinoline-1-carbonyl)-N,N-dimethyl-4,5,6,7-tetrahydropyrazolo[1,5-a]pyrazi
  -OEChem-04222410502D

 26 29  0     0  0  0  0  0  0999 V2000
    1.7651    1.1776    0.0000 C   0  0  0  0  0  0  0  0  0  0  0  0
    2.1736    0.2606    0.0000 N   0  0  0  0  0  0  0  0  0  0  0  0
    0.5648    0.0938    0.0000 C   0  0  0  0  0  0  0  0  0  0  0  0
    1.4317   -0.4064    0.0000 N   0  0  0  0  0  0  0  0  0  0  0  0
    0.7731    1.0692    0.0000 C   0  0  0  0  0  0  0  0  0  0  0  0
   -0.3021   -1.4066    0.0000 N   0  0  0  0  0  0  0  0  0  0  0  0
   -1.1691   -1.9068    0.0000 C   0  0  0  0  0  0  0  0  0  0  0  0
    2.2654    2.0404    0.0000 C   0  0  0  0  0  0  0  0  0  0  0  0
   -2.0361   -1.4066    0.0000 C   0  0  0  0  0  0  0  0  0  0  0  0
   -0.3021   -0.4064    0.0000 C   0  0  0  0  0  0  0  0  0  0  0  0
   -2.0361   -0.4064    0.0000 C   0  0  0  0  0  0  0  0  0  0  0  0
    1.4317   -1.4066    0.0000 C   0  0  0  0  0  0  0  0  0  0  0  0
   -2.9032   -1.9068    0.0000 N   0  0  0  0  0  0  0  0  0  0  0  0
    0.5648   -1.9068    0.0000 C   0  0  0  0  0  0  0  0  0  0  0  0
    3.2657    2.0404    0.0000 N   0  0  0  0  0  0  0  0  0  0  0  0
   -1.1691   -2.9072    0.0000 O   0  0  0  0  0  0  0  0  0  0  0  0
    1.7651    2.9072    0.0000 O   0  0  0  0  0  0  0  0  0  0  0  0
   -2.9032    0.0938    0.0000 C   0  0  0  0  0  0  0  0  0  0  0  0
   -3.7659   -1.4066    0.0000 C   0  0  0  0  0  0  0  0  0  0  0  0
   -1.1691    0.0938    0.0000 C   0  0  0  0  0  0  0  0  0  0  0  0
    3.7659    1.1776    0.0000 C   0  0  0  0  0  0  0  0  0  0  0  0
    3.7659    2.9072    0.0000 C   0  0  0  0  0  0  0  0  0  0  0  0
   -3.7659   -0.4064    0.0000 C   0  0  0  0  0  0  0  0  0  0  0  0
   -2.9032    1.0941    0.0000 C   0  0  0  0  0  0  0  0  0  0  0  0
   -1.1691    1.0941    0.0000 C   0  0  0  0  0  0  0  0  0  0  0  0
   -2.0361    1.5943    0.0000 C   0  0  0  0  0  0  0  0  0  0  0  0
  1  2  2  0  0  0  0
  3  5  2  0  0  0  0
  3  4  1  0  0  0  0
  2  4  1  0  0  0  0
  1  5  1  0  0  0  0
  6 10  1  0  0  0  0
  6  7  1  0  0  0  0
  1  8  1  0  0  0  0
  7  9  1  0  0  0  0
  3 10  1  0  0  0  0
  9 11  2  0  0  0  0
  4 12  1  0  0  0  0
  9 13  1  0  0  0  0
 12 14  1  0  0  0  0
  6 14  1  0  0  0  0
  8 15  1  0  0  0  0
  7 16  2  0  0  0  0
  8 17  2  0  0  0  0
 11 18  1  0  0  0  0
 18 23  2  0  0  0  0
 13 19  2  0  0  0  0
 11 20  1  0  0  0  0
 15 21  1  0  0  0  0
 15 22  1  0  0  0  0
 19 23  1  0  0  0  0
 18 24  1  0  0  0  0
 24 26  2  0  0  0  0
 20 25  2  0  0  0  0
 25 26  1  0  0  0  0
M  END
> <IDNUMBER>
SB71-0022

> <available>
81

> <H_acceptor>
6

> <H_donor>
0

> <B_rotN>
4

> <N_O>
7

> <logP>
0.3487

> <logD>
0.3487

> <logSw>
-2.0105

> <PSA>
55.905

> <pKa_ma>
26.8326

> <pKa_mb>
1.5082

> <N_Chirals>
0

> <Name>
5-(isoquinoline-1-carbonyl)-N,N-dimethyl-4,5,6,7-tetrahydropyrazolo[1,5-a]pyrazine-2-carboxamide

> <Smile>
CN(C)C(c1nn(CCN(C2)C(c3nccc4ccccc34)=O)c2c1)=O

> <Color>
YELLOW

> <Collection>
IC

> <InChI>
InChI=1S/C19H19N5O2/c1-22(2)18(25)16-11-14-12-23(9-10-24(14)21-16)19(26)17-15-6-4-3-5-13(15)7-8-20-17/h3-8,11H,9-10,12H2,1-2H3

> <InChI Key>
RVLZCUVGNQOQDX-UHFFFAOYSA-N

> <PERCENTSP3>
26.32

> <Link>
https://www.chemdiv.com/catalog/screening-compounds/compound-SB71-0022/

> <MFCDNUMBER>
MFCD32249156

> <CLNUMBER>
CM5543

> <STEREO>
ACHIRAL

> <State>
Solid

> <Similarity score>
0.26

$$$$
N-cyclopentyl-5-[(4-ethoxy-3-methoxyphenyl)methyl]-4,5,6,7-tetrahydropyrazolo[1,
  -OEChem-04222410502D

 29 32  0     0  0  0  0  0  0999 V2000
   -0.4809   -2.4115    0.0000 C   0  0  0  0  0  0  0  0  0  0  0  0
    0.1062   -3.2194    0.0000 N   0  0  0  0  0  0  0  0  0  0  0  0
    1.0559   -2.9114    0.0000 N   0  0  0  0  0  0  0  0  0  0  0  0
    1.0559   -1.9118    0.0000 C   0  0  0  0  0  0  0  0  0  0  0  0
    0.1062   -1.5993    0.0000 C   0  0  0  0  0  0  0  0  0  0  0  0
   -1.4806   -2.4115    0.0000 C   0  0  0  0  0  0  0  0  0  0  0  0
    2.7885   -1.9118    0.0000 N   0  0  0  0  0  0  0  0  0  0  0  0
    1.9221   -1.4118    0.0000 C   0  0  0  0  0  0  0  0  0  0  0  0
   -1.9805   -3.2737    0.0000 N   0  0  0  0  0  0  0  0  0  0  0  0
    1.9221   -3.4111    0.0000 C   0  0  0  0  0  0  0  0  0  0  0  0
    2.7885    1.0870    0.0000 C   0  0  0  0  0  0  0  0  0  0  0  0
   -1.9805   -1.5452    0.0000 O   0  0  0  0  0  0  0  0  0  0  0  0
    3.6548    1.5869    0.0000 C   0  0  0  0  0  0  0  0  0  0  0  0
    2.7885    0.0875    0.0000 C   0  0  0  0  0  0  0  0  0  0  0  0
    3.6548   -0.4123    0.0000 C   0  0  0  0  0  0  0  0  0  0  0  0
    3.6548   -1.4118    0.0000 C   0  0  0  0  0  0  0  0  0  0  0  0
    2.7885   -2.9114    0.0000 C   0  0  0  0  0  0  0  0  0  0  0  0
    4.5210    1.0870    0.0000 C   0  0  0  0  0  0  0  0  0  0  0  0
    4.5210    0.0875    0.0000 C   0  0  0  0  0  0  0  0  0  0  0  0
   -2.9799   -3.2737    0.0000 C   0  0  0  0  0  0  0  0  0  0  0  0
    1.9221    1.5869    0.0000 O   0  0  0  0  0  0  0  0  0  0  0  0
    3.6548    2.5863    0.0000 O   0  0  0  0  0  0  0  0  0  0  0  0
    4.5210    3.0862    0.0000 C   0  0  0  0  0  0  0  0  0  0  0  0
    1.9221    2.5863    0.0000 C   0  0  0  0  0  0  0  0  0  0  0  0
   -3.5671   -4.0859    0.0000 C   0  0  0  0  0  0  0  0  0  0  0  0
   -3.5671   -2.4657    0.0000 C   0  0  0  0  0  0  0  0  0  0  0  0
    4.5210    4.0859    0.0000 C   0  0  0  0  0  0  0  0  0  0  0  0
   -4.5210   -3.7735    0.0000 C   0  0  0  0  0  0  0  0  0  0  0  0
   -4.5210   -2.7738    0.0000 C   0  0  0  0  0  0  0  0  0  0  0  0
  1  2  2  0  0  0  0
  2  3  1  0  0  0  0
  4  5  2  0  0  0  0
  3  4  1  0  0  0  0
  1  5  1  0  0  0  0
  1  6  1  0  0  0  0
  7  8  1  0  0  0  0
  4  8  1  0  0  0  0
  6  9  1  0  0  0  0
  3 10  1  0  0  0  0
 11 14  1  0  0  0  0
 11 13  2  0  0  0  0
  6 12  2  0  0  0  0
 13 18  1  0  0  0  0
 14 15  2  0  0  0  0
 15 16  1  0  0  0  0
  7 16  1  0  0  0  0
 10 17  1  0  0  0  0
  7 17  1  0  0  0  0
 18 19  2  0  0  0  0
 15 19  1  0  0  0  0
  9 20  1  0  0  0  0
 11 21  1  0  0  0  0
 13 22  1  0  0  0  0
 22 23  1  0  0  0  0
 21 24  1  0  0  0  0
 20 25  1  0  0  0  0
 20 26  1  0  0  0  0
 23 27  1  0  0  0  0
 25 28  1  0  0  0  0
 28 29  1  0  0  0  0
 26 29  1  0  0  0  0
M  END
> <IDNUMBER>
SB71-0776

> <available>
34

> <H_acceptor>
6

> <H_donor>
1

> <B_rotN>
8

> <N_O>
7

> <logP>
2.2882

> <logD>
2.0264

> <logSw>
-2.8018

> <PSA>
56.787

> <pKa_ma>
15.6721

> <pKa_mb>
7.3176

> <N_Chirals>
0

> <Name>
N-cyclopentyl-5-[(4-ethoxy-3-methoxyphenyl)methyl]-4,5,6,7-tetrahydropyrazolo[1,5-a]pyrazine-2-carboxamide

> <Smile>
CCOc(ccc(CN1Cc2cc(C(NC3CCCC3)=O)nn2CC1)c1)c1OC

> <Color>
ORANGE

> <Collection>
IC

> <InChI>
InChI=1S/C22H30N4O3/c1-3-29-20-9-8-16(12-21(20)28-2)14-25-10-11-26-18(15-25)13-19(24-26)22(27)23-17-6-4-5-7-17/h8-9,12-13,17H,3-7,10-11,14-15H2,1-2H3,(H,23,27)

> <InChI Key>
RPOZAIWICREGAI-UHFFFAOYSA-N

> <PERCENTSP3>
54.54

> <Link>
https://www.chemdiv.com/catalog/screening-compounds/compound-SB71-0776/

> <MFCDNUMBER>
MFCD32249614

> <CLNUMBER>
CM5543

> <STEREO>
ACHIRAL

> <State>
Oil

> <Similarity score>
0.25

$$$$
N-(2-methoxyethyl)-5-{[3-(4-methoxyphenyl)-1H-pyrazol-4-yl]methyl}-4,5,6,7-tetra
  -OEChem-04222410502D

 30 33  0     0  0  0  0  0  0999 V2000
    3.5980   -1.5273    0.0000 C   0  0  0  0  0  0  0  0  0  0  0  0
    3.1896   -2.4397    0.0000 N   0  0  0  0  0  0  0  0  0  0  0  0
    2.1939   -2.3355    0.0000 N   0  0  0  0  0  0  0  0  0  0  0  0
    1.9896   -1.3564    0.0000 C   0  0  0  0  0  0  0  0  0  0  0  0
   -0.8647   -0.4313    0.0000 C   0  0  0  0  0  0  0  0  0  0  0  0
    2.8520   -0.8564    0.0000 C   0  0  0  0  0  0  0  0  0  0  0  0
   -1.7813   -0.0229    0.0000 C   0  0  0  0  0  0  0  0  0  0  0  0
   -1.6771    0.9729    0.0000 N   0  0  0  0  0  0  0  0  0  0  0  0
    4.5730   -1.3190    0.0000 C   0  0  0  0  0  0  0  0  0  0  0  0
    0.2937   -1.7146    0.0000 N   0  0  0  0  0  0  0  0  0  0  0  0
   -0.6981    1.1812    0.0000 N   0  0  0  0  0  0  0  0  0  0  0  0
   -0.6563   -1.4063    0.0000 C   0  0  0  0  0  0  0  0  0  0  0  0
    1.0353   -1.0480    0.0000 C   0  0  0  0  0  0  0  0  0  0  0  0
   -0.1980    0.3146    0.0000 C   0  0  0  0  0  0  0  0  0  0  0  0
    1.4521   -3.0021    0.0000 C   0  0  0  0  0  0  0  0  0  0  0  0
   -2.6439   -0.5231    0.0000 C   0  0  0  0  0  0  0  0  0  0  0  0
    5.2439   -2.0605    0.0000 O   0  0  0  0  0  0  0  0  0  0  0  0
    0.5019   -2.6939    0.0000 C   0  0  0  0  0  0  0  0  0  0  0  0
    4.8855   -0.3646    0.0000 N   0  0  0  0  0  0  0  0  0  0  0  0
   -3.5106   -0.0229    0.0000 C   0  0  0  0  0  0  0  0  0  0  0  0
   -2.6439   -1.5229    0.0000 C   0  0  0  0  0  0  0  0  0  0  0  0
   -4.3773   -1.5229    0.0000 C   0  0  0  0  0  0  0  0  0  0  0  0
   -4.3773   -0.5231    0.0000 C   0  0  0  0  0  0  0  0  0  0  0  0
   -3.5106   -2.0230    0.0000 C   0  0  0  0  0  0  0  0  0  0  0  0
   -5.2439   -2.0230    0.0000 O   0  0  0  0  0  0  0  0  0  0  0  0
    3.8564    2.0730    0.0000 O   0  0  0  0  0  0  0  0  0  0  0  0
    4.2148    0.3771    0.0000 C   0  0  0  0  0  0  0  0  0  0  0  0
    4.5230    1.3270    0.0000 C   0  0  0  0  0  0  0  0  0  0  0  0
   -5.2439   -3.0229    0.0000 C   0  0  0  0  0  0  0  0  0  0  0  0
    4.1648    3.0229    0.0000 C   0  0  0  0  0  0  0  0  0  0  0  0
  1  2  2  0  0  0  0
  2  3  1  0  0  0  0
  4  6  2  0  0  0  0
  3  4  1  0  0  0  0
  5 12  1  0  0  0  0
  1  6  1  0  0  0  0
  5  7  1  0  0  0  0
  7  8  2  0  0  0  0
  1  9  1  0  0  0  0
 10 13  1  0  0  0  0
 11 14  1  0  0  0  0
  8 11  1  0  0  0  0
 10 12  1  0  0  0  0
  4 13  1  0  0  0  0
  5 14  2  0  0  0  0
  3 15  1  0  0  0  0
  7 16  1  0  0  0  0
  9 17  2  0  0  0  0
 15 18  1  0  0  0  0
 10 18  1  0  0  0  0
  9 19  1  0  0  0  0
 16 20  2  0  0  0  0
 16 21  1  0  0  0  0
 22 24  1  0  0  0  0
 20 23  1  0  0  0  0
 22 23  2  0  0  0  0
 21 24  2  0  0  0  0
 22 25  1  0  0  0  0
 26 28  1  0  0  0  0
 19 27  1  0  0  0  0
 27 28  1  0  0  0  0
 25 29  1  0  0  0  0
 26 30  1  0  0  0  0
M  END
> <IDNUMBER>
SB71-0388

> <available>
50

> <H_acceptor>
7

> <H_donor>
2

> <B_rotN>
9

> <N_O>
9

> <logP>
1.1423

> <logD>
0.7053

> <logSw>
-2.2434

> <PSA>
82.045

> <pKa_ma>
11.6652

> <pKa_mb>
7.6393

> <N_Chirals>
0

> <Name>
N-(2-methoxyethyl)-5-{[3-(4-methoxyphenyl)-1H-pyrazol-4-yl]methyl}-4,5,6,7-tetrahydropyrazolo[1,5-a]pyrazine-2-carboxamide

> <Smile>
COCCNC(c1nn(CCN(Cc2c[nH]nc2-c(cc2)ccc2OC)C2)c2c1)=O

> <Color>
NOT COLORED

> <Collection>
IC

> <InChI>
InChI=1S/C21H26N6O3/c1-29-10-7-22-21(28)19-11-17-14-26(8-9-27(17)25-19)13-16-12-23-24-20(16)15-3-5-18(30-2)6-4-15/h3-6,11-12H,7-10,13-14H2,1-2H3,(H,22,28)(H,23,24)

> <InChI Key>
LKJGCZNFGMSERI-UHFFFAOYSA-N

> <PERCENTSP3>
38.1

> <Link>
https://www.chemdiv.com/catalog/screening-compounds/compound-SB71-0388/

> <MFCDNUMBER>
MFCD32249513

> <CLNUMBER>
CM5543

> <STEREO>
ACHIRAL

> <State>
Solid

> <Similarity score>
0.25

$$$$
{5-[(furan-2-yl)methyl]-4,5,6,7-tetrahydropyrazolo[1,5-a]pyrazin-2-yl}(morpholin
  -OEChem-04222410502D

 23 26  0     0  0  0  0  0  0999 V2000
    1.1603    0.2855    0.0000 C   0  0  0  0  0  0  0  0  0  0  0  0
    1.0563   -0.7105    0.0000 N   0  0  0  0  0  0  0  0  0  0  0  0
    0.0771   -0.9188    0.0000 N   0  0  0  0  0  0  0  0  0  0  0  0
   -0.4230   -0.0522    0.0000 C   0  0  0  0  0  0  0  0  0  0  0  0
    0.2479    0.6897    0.0000 C   0  0  0  0  0  0  0  0  0  0  0  0
    2.0271    0.7854    0.0000 C   0  0  0  0  0  0  0  0  0  0  0  0
    2.8936    0.2855    0.0000 N   0  0  0  0  0  0  0  0  0  0  0  0
   -1.9229   -0.9188    0.0000 N   0  0  0  0  0  0  0  0  0  0  0  0
   -1.4228   -0.0522    0.0000 C   0  0  0  0  0  0  0  0  0  0  0  0
   -0.4230   -1.7854    0.0000 C   0  0  0  0  0  0  0  0  0  0  0  0
   -3.4227   -0.0522    0.0000 C   0  0  0  0  0  0  0  0  0  0  0  0
   -3.0145    0.8604    0.0000 O   0  0  0  0  0  0  0  0  0  0  0  0
    2.0271    1.7854    0.0000 O   0  0  0  0  0  0  0  0  0  0  0  0
   -2.9228   -0.9188    0.0000 C   0  0  0  0  0  0  0  0  0  0  0  0
   -4.4185    0.0522    0.0000 C   0  0  0  0  0  0  0  0  0  0  0  0
   -3.7602    1.5312    0.0000 C   0  0  0  0  0  0  0  0  0  0  0  0
   -1.4228   -1.7854    0.0000 C   0  0  0  0  0  0  0  0  0  0  0  0
   -4.6228    1.0310    0.0000 C   0  0  0  0  0  0  0  0  0  0  0  0
    4.6228   -0.7147    0.0000 O   0  0  0  0  0  0  0  0  0  0  0  0
    3.7602    0.7854    0.0000 C   0  0  0  0  0  0  0  0  0  0  0  0
    2.8936   -0.7147    0.0000 C   0  0  0  0  0  0  0  0  0  0  0  0
    3.7602   -1.2145    0.0000 C   0  0  0  0  0  0  0  0  0  0  0  0
    4.6228    0.2855    0.0000 C   0  0  0  0  0  0  0  0  0  0  0  0
  1  2  2  0  0  0  0
  2  3  1  0  0  0  0
  4  5  2  0  0  0  0
  3  4  1  0  0  0  0
  1  5  1  0  0  0  0
  1  6  1  0  0  0  0
  6  7  1  0  0  0  0
  8  9  1  0  0  0  0
  4  9  1  0  0  0  0
  3 10  1  0  0  0  0
 11 14  1  0  0  0  0
 11 12  1  0  0  0  0
  6 13  2  0  0  0  0
  8 14  1  0  0  0  0
 11 15  2  0  0  0  0
 12 16  1  0  0  0  0
 10 17  1  0  0  0  0
  8 17  1  0  0  0  0
 15 18  1  0  0  0  0
 16 18  2  0  0  0  0
 19 22  1  0  0  0  0
 19 23  1  0  0  0  0
  7 20  1  0  0  0  0
  7 21  1  0  0  0  0
 21 22  1  0  0  0  0
 20 23  1  0  0  0  0
M  END
> <IDNUMBER>
SB71-0207

> <available>
7

> <H_acceptor>
6

> <H_donor>
0

> <B_rotN>
4

> <N_O>
7

> <logP>
0.3015

> <logD>
0.2943

> <logSw>
-1.2892

> <PSA>
49.748

> <pKa_ma>
26.9104

> <pKa_mb>
5.6229

> <N_Chirals>
0

> <Name>
{5-[(furan-2-yl)methyl]-4,5,6,7-tetrahydropyrazolo[1,5-a]pyrazin-2-yl}(morpholin-4-yl)methanone

> <Smile>
O=C(c1nn(CCN(Cc2ccco2)C2)c2c1)N1CCOCC1

> <Color>
BROWN

> <Collection>
IC

> <InChI>
InChI=1S/C16H20N4O3/c21-16(19-5-8-22-9-6-19)15-10-13-11-18(3-4-20(13)17-15)12-14-2-1-7-23-14/h1-2,7,10H,3-6,8-9,11-12H2

> <InChI Key>
GXLLSYAKHKCXHK-UHFFFAOYSA-N

> <PERCENTSP3>
50

> <Link>
https://www.chemdiv.com/catalog/screening-compounds/compound-SB71-0207/

> <MFCDNUMBER>
MFCD32249567

> <CLNUMBER>
CM5543

> <STEREO>
ACHIRAL

> <State>
Solid

> <Similarity score>
0.25

$$$$
[5-(4-methoxybenzene-1-sulfonyl)-4,5,6,7-tetrahydropyrazolo[1,5-a]pyrazin-2-yl](
  -OEChem-04222410502D

 28 31  0     0  0  0  0  0  0999 V2000
   -0.6563   -1.8523    0.0000 S   0  0  0  0  0  0  0  0  0  0  0  0
    3.4271   -0.6479    0.0000 C   0  0  0  0  0  0  0  0  0  0  0  0
    3.3230   -1.6438    0.0000 N   0  0  0  0  0  0  0  0  0  0  0  0
    0.3439   -1.8523    0.0000 N   0  0  0  0  0  0  0  0  0  0  0  0
    1.8437   -0.9854    0.0000 C   0  0  0  0  0  0  0  0  0  0  0  0
    2.3437   -1.8523    0.0000 N   0  0  0  0  0  0  0  0  0  0  0  0
    2.5104   -0.2436    0.0000 C   0  0  0  0  0  0  0  0  0  0  0  0
    4.2896   -0.1478    0.0000 C   0  0  0  0  0  0  0  0  0  0  0  0
    0.8439   -0.9854    0.0000 C   0  0  0  0  0  0  0  0  0  0  0  0
    4.2896    0.8521    0.0000 N   0  0  0  0  0  0  0  0  0  0  0  0
   -1.6563   -1.8523    0.0000 C   0  0  0  0  0  0  0  0  0  0  0  0
    0.8439   -2.7189    0.0000 C   0  0  0  0  0  0  0  0  0  0  0  0
    1.8437   -2.7189    0.0000 C   0  0  0  0  0  0  0  0  0  0  0  0
   -0.6563   -0.8521    0.0000 O   0  0  0  0  0  0  0  0  0  0  0  0
   -0.6563   -2.8521    0.0000 O   0  0  0  0  0  0  0  0  0  0  0  0
    5.1564   -0.6479    0.0000 O   0  0  0  0  0  0  0  0  0  0  0  0
   -2.1563   -2.7189    0.0000 C   0  0  0  0  0  0  0  0  0  0  0  0
   -2.1563   -0.9854    0.0000 C   0  0  0  0  0  0  0  0  0  0  0  0
    4.2896    2.8521    0.0000 O   0  0  0  0  0  0  0  0  0  0  0  0
   -3.6564   -1.8523    0.0000 C   0  0  0  0  0  0  0  0  0  0  0  0
   -3.1564   -2.7189    0.0000 C   0  0  0  0  0  0  0  0  0  0  0  0
   -3.1564   -0.9854    0.0000 C   0  0  0  0  0  0  0  0  0  0  0  0
    5.1564    1.3523    0.0000 C   0  0  0  0  0  0  0  0  0  0  0  0
    3.4271    1.3523    0.0000 C   0  0  0  0  0  0  0  0  0  0  0  0
   -4.6564   -1.8523    0.0000 O   0  0  0  0  0  0  0  0  0  0  0  0
    5.1564    2.3521    0.0000 C   0  0  0  0  0  0  0  0  0  0  0  0
    3.4271    2.3521    0.0000 C   0  0  0  0  0  0  0  0  0  0  0  0
   -5.1564   -2.7189    0.0000 C   0  0  0  0  0  0  0  0  0  0  0  0
  2  7  1  0  0  0  0
  2  3  2  0  0  0  0
  3  6  1  0  0  0  0
  1  4  1  0  0  0  0
  5  9  1  0  0  0  0
  5  6  1  0  0  0  0
  6 13  1  0  0  0  0
  5  7  2  0  0  0  0
  2  8  1  0  0  0  0
  4  9  1  0  0  0  0
  8 10  1  0  0  0  0
  1 11  1  0  0  0  0
  4 12  1  0  0  0  0
 12 13  1  0  0  0  0
  1 14  2  0  0  0  0
  1 15  2  0  0  0  0
  8 16  2  0  0  0  0
 11 17  1  0  0  0  0
 11 18  2  0  0  0  0
 19 27  1  0  0  0  0
 19 26  1  0  0  0  0
 20 22  2  0  0  0  0
 17 21  2  0  0  0  0
 20 21  1  0  0  0  0
 18 22  1  0  0  0  0
 10 23  1  0  0  0  0
 10 24  1  0  0  0  0
 20 25  1  0  0  0  0
 23 26  1  0  0  0  0
 24 27  1  0  0  0  0
 25 28  1  0  0  0  0
M  END
> <IDNUMBER>
SB71-0274

> <available>
52

> <H_acceptor>
10

> <H_donor>
0

> <B_rotN>
5

> <N_O>
9

> <logP>
0.5898

> <logD>
0.5898

> <logSw>
-2.365

> <PSA>
77.521

> <pKa_ma>
26.1583

> <pKa_mb>
-4.4541

> <N_Chirals>
0

> <Name>
[5-(4-methoxybenzene-1-sulfonyl)-4,5,6,7-tetrahydropyrazolo[1,5-a]pyrazin-2-yl](morpholin-4-yl)methanone

> <Smile>
COc(cc1)ccc1S(N1Cc2cc(C(N3CCOCC3)=O)nn2CC1)(=O)=O

> <Color>
NOT COLORED

> <Collection>
IC

> <InChI>
InChI=1S/C18H22N4O5S/c1-26-15-2-4-16(5-3-15)28(24,25)21-6-7-22-14(13-21)12-17(19-22)18(23)20-8-10-27-11-9-20/h2-5,12H,6-11,13H2,1H3

> <InChI Key>
ANQGPMKYYLTIAI-UHFFFAOYSA-N

> <PERCENTSP3>
44.44

> <Link>
https://www.chemdiv.com/catalog/screening-compounds/compound-SB71-0274/

> <MFCDNUMBER>
MFCD32249262

> <CLNUMBER>
CM5543

> <STEREO>
ACHIRAL

> <State>
Solid

> <Similarity score>
0.25

$$$$
5-[(1H-indol-6-yl)methyl]-N-(propan-2-yl)-4,5,6,7-tetrahydropyrazolo[1,5-a]pyraz
  -OEChem-04222410502D

 25 28  0     0  0  0  0  0  0999 V2000
    1.6392   -0.2437    0.0000 C   0  0  0  0  0  0  0  0  0  0  0  0
    2.0435    0.6728    0.0000 N   0  0  0  0  0  0  0  0  0  0  0  0
    1.3018    1.3395    0.0000 N   0  0  0  0  0  0  0  0  0  0  0  0
    0.4353    0.8395    0.0000 C   0  0  0  0  0  0  0  0  0  0  0  0
    0.6436   -0.1396    0.0000 C   0  0  0  0  0  0  0  0  0  0  0  0
    2.1392   -1.1061    0.0000 C   0  0  0  0  0  0  0  0  0  0  0  0
   -0.4311    2.3393    0.0000 N   0  0  0  0  0  0  0  0  0  0  0  0
   -0.4311    1.3395    0.0000 C   0  0  0  0  0  0  0  0  0  0  0  0
   -3.0265    0.8395    0.0000 C   0  0  0  0  0  0  0  0  0  0  0  0
    3.1392   -1.1061    0.0000 N   0  0  0  0  0  0  0  0  0  0  0  0
   -3.2348   -0.1396    0.0000 N   0  0  0  0  0  0  0  0  0  0  0  0
    1.3018    2.3393    0.0000 C   0  0  0  0  0  0  0  0  0  0  0  0
   -4.2304   -0.2437    0.0000 C   0  0  0  0  0  0  0  0  0  0  0  0
   -3.8931    1.3395    0.0000 C   0  0  0  0  0  0  0  0  0  0  0  0
    1.6392   -1.9727    0.0000 O   0  0  0  0  0  0  0  0  0  0  0  0
   -2.1641    1.3395    0.0000 C   0  0  0  0  0  0  0  0  0  0  0  0
   -4.6388    0.6728    0.0000 C   0  0  0  0  0  0  0  0  0  0  0  0
   -2.1641    2.3393    0.0000 C   0  0  0  0  0  0  0  0  0  0  0  0
   -1.2976    2.8391    0.0000 C   0  0  0  0  0  0  0  0  0  0  0  0
    0.4353    2.8391    0.0000 C   0  0  0  0  0  0  0  0  0  0  0  0
   -3.8931    2.3393    0.0000 C   0  0  0  0  0  0  0  0  0  0  0  0
   -3.0265    2.8391    0.0000 C   0  0  0  0  0  0  0  0  0  0  0  0
    3.6390   -1.9727    0.0000 C   0  0  0  0  0  0  0  0  0  0  0  0
    4.6388   -1.9727    0.0000 C   0  0  0  0  0  0  0  0  0  0  0  0
    3.1392   -2.8391    0.0000 C   0  0  0  0  0  0  0  0  0  0  0  0
  1  2  2  0  0  0  0
  2  3  1  0  0  0  0
  4  5  2  0  0  0  0
  3  4  1  0  0  0  0
  1  5  1  0  0  0  0
  1  6  1  0  0  0  0
  7  8  1  0  0  0  0
  4  8  1  0  0  0  0
  9 16  2  0  0  0  0
  9 14  1  0  0  0  0
  6 10  1  0  0  0  0
  9 11  1  0  0  0  0
  3 12  1  0  0  0  0
 11 13  1  0  0  0  0
 14 21  2  0  0  0  0
  6 15  2  0  0  0  0
 16 18  1  0  0  0  0
 14 17  1  0  0  0  0
 13 17  2  0  0  0  0
 18 19  1  0  0  0  0
  7 19  1  0  0  0  0
 12 20  1  0  0  0  0
  7 20  1  0  0  0  0
 21 22  1  0  0  0  0
 18 22  2  0  0  0  0
 10 23  1  0  0  0  0
 23 24  1  0  0  0  0
 23 25  1  0  0  0  0
M  END
> <IDNUMBER>
SB71-0619

> <available>
20

> <H_acceptor>
4

> <H_donor>
2

> <B_rotN>
5

> <N_O>
6

> <logP>
1.8388

> <logD>
1.822

> <logSw>
-2.6435

> <PSA>
50.882

> <pKa_ma>
14.8713

> <pKa_mb>
5.9974

> <N_Chirals>
0

> <Name>
5-[(1H-indol-6-yl)methyl]-N-(propan-2-yl)-4,5,6,7-tetrahydropyrazolo[1,5-a]pyrazine-2-carboxamide

> <Smile>
CC(C)NC(c1nn(CCN(Cc2cc([nH]cc3)c3cc2)C2)c2c1)=O

> <Color>
ORANGE

> <Collection>
IC

> <InChI>
InChI=1S/C19H23N5O/c1-13(2)21-19(25)18-10-16-12-23(7-8-24(16)22-18)11-14-3-4-15-5-6-20-17(15)9-14/h3-6,9-10,13,20H,7-8,11-12H2,1-2H3,(H,21,25)

> <InChI Key>
NLJSQHXGTQVVPW-UHFFFAOYSA-N

> <PERCENTSP3>
36.84

> <Link>
https://www.chemdiv.com/catalog/screening-compounds/compound-SB71-0619/

> <MFCDNUMBER>
MFCD32249305

> <CLNUMBER>
CM5543

> <STEREO>
ACHIRAL

> <State>
Solid

> <Similarity score>
0.25

$$$$
5-[(1H-indol-3-yl)acetyl]-N,N-dimethyl-4,5,6,7-tetrahydropyrazolo[1,5-a]pyrazine
  -OEChem-04222410502D

 26 29  0     0  0  0  0  0  0999 V2000
    2.6809   -0.0271    0.0000 C   0  0  0  0  0  0  0  0  0  0  0  0
    2.3725   -0.9770    0.0000 N   0  0  0  0  0  0  0  0  0  0  0  0
    1.0603   -0.0271    0.0000 C   0  0  0  0  0  0  0  0  0  0  0  0
    1.3725   -0.9770    0.0000 N   0  0  0  0  0  0  0  0  0  0  0  0
    1.8727    0.5646    0.0000 C   0  0  0  0  0  0  0  0  0  0  0  0
   -0.5854   -0.5603    0.0000 N   0  0  0  0  0  0  0  0  0  0  0  0
    3.6307    0.2811    0.0000 C   0  0  0  0  0  0  0  0  0  0  0  0
   -2.8515    0.8063    0.0000 C   0  0  0  0  0  0  0  0  0  0  0  0
   -1.5643   -0.3520    0.0000 C   0  0  0  0  0  0  0  0  0  0  0  0
   -4.2514    1.6144    0.0000 N   0  0  0  0  0  0  0  0  0  0  0  0
   -3.2557    1.7186    0.0000 C   0  0  0  0  0  0  0  0  0  0  0  0
    0.0852    0.1813    0.0000 C   0  0  0  0  0  0  0  0  0  0  0  0
   -1.8727    0.5979    0.0000 C   0  0  0  0  0  0  0  0  0  0  0  0
   -3.5932    0.1355    0.0000 C   0  0  0  0  0  0  0  0  0  0  0  0
    0.7019   -1.7186    0.0000 C   0  0  0  0  0  0  0  0  0  0  0  0
   -4.4597    0.6353    0.0000 C   0  0  0  0  0  0  0  0  0  0  0  0
    4.3722   -0.3853    0.0000 N   0  0  0  0  0  0  0  0  0  0  0  0
   -0.2770   -1.5102    0.0000 C   0  0  0  0  0  0  0  0  0  0  0  0
    3.8389    1.2602    0.0000 O   0  0  0  0  0  0  0  0  0  0  0  0
   -2.2307   -1.0935    0.0000 O   0  0  0  0  0  0  0  0  0  0  0  0
   -3.5932   -0.8644    0.0000 C   0  0  0  0  0  0  0  0  0  0  0  0
    4.1638   -1.3644    0.0000 C   0  0  0  0  0  0  0  0  0  0  0  0
    5.3263   -0.0771    0.0000 C   0  0  0  0  0  0  0  0  0  0  0  0
   -5.3263    0.1355    0.0000 C   0  0  0  0  0  0  0  0  0  0  0  0
   -4.4597   -1.3644    0.0000 C   0  0  0  0  0  0  0  0  0  0  0  0
   -5.3263   -0.8644    0.0000 C   0  0  0  0  0  0  0  0  0  0  0  0
  1  2  2  0  0  0  0
  3  5  2  0  0  0  0
  3  4  1  0  0  0  0
  2  4  1  0  0  0  0
  1  5  1  0  0  0  0
  6 12  1  0  0  0  0
  1  7  1  0  0  0  0
  8 13  1  0  0  0  0
  6  9  1  0  0  0  0
 10 11  1  0  0  0  0
  8 11  2  0  0  0  0
  3 12  1  0  0  0  0
  9 13  1  0  0  0  0
  8 14  1  0  0  0  0
  4 15  1  0  0  0  0
 14 16  2  0  0  0  0
 10 16  1  0  0  0  0
  7 17  1  0  0  0  0
 15 18  1  0  0  0  0
  6 18  1  0  0  0  0
  7 19  2  0  0  0  0
  9 20  2  0  0  0  0
 14 21  1  0  0  0  0
 17 22  1  0  0  0  0
 17 23  1  0  0  0  0
 16 24  1  0  0  0  0
 24 26  2  0  0  0  0
 21 25  2  0  0  0  0
 25 26  1  0  0  0  0
M  END
> <IDNUMBER>
SB71-0028

> <available>
49

> <H_acceptor>
5

> <H_donor>
1

> <B_rotN>
5

> <N_O>
7

> <logP>
0.5716

> <logD>
0.5716

> <logSw>
-2.1904

> <PSA>
55.702

> <pKa_ma>
17.7747

> <pKa_mb>
-2.791

> <N_Chirals>
0

> <Name>
5-[(1H-indol-3-yl)acetyl]-N,N-dimethyl-4,5,6,7-tetrahydropyrazolo[1,5-a]pyrazine-2-carboxamide

> <Smile>
CN(C)C(c1nn(CCN(C2)C(Cc3c[nH]c4c3cccc4)=O)c2c1)=O

> <Color>
NOT COLORED

> <Collection>
IC

> <InChI>
InChI=1S/C19H21N5O2/c1-22(2)19(26)17-10-14-12-23(7-8-24(14)21-17)18(25)9-13-11-20-16-6-4-3-5-15(13)16/h3-6,10-11,20H,7-9,12H2,1-2H3

> <InChI Key>
QIDUWVZYCHZKFH-UHFFFAOYSA-N

> <PERCENTSP3>
31.58

> <Link>
https://www.chemdiv.com/catalog/screening-compounds/compound-SB71-0028/

> <MFCDNUMBER>
MFCD32249159

> <CLNUMBER>
CM5543

> <STEREO>
ACHIRAL

> <State>
Solid

> <Similarity score>
0.25

$$$$
[5-(4-ethylbenzene-1-sulfonyl)-4,5,6,7-tetrahydropyrazolo[1,5-a]pyrazin-2-yl](py
  -OEChem-04222410502D

 27 30  0     0  0  0  0  0  0999 V2000
   -0.6565   -1.6192    0.0000 S   0  0  0  0  0  0  0  0  0  0  0  0
    3.4282   -0.4189    0.0000 C   0  0  0  0  0  0  0  0  0  0  0  0
    3.3241   -1.4151    0.0000 N   0  0  0  0  0  0  0  0  0  0  0  0
    0.3438   -1.6192    0.0000 N   0  0  0  0  0  0  0  0  0  0  0  0
    1.8443   -0.7565    0.0000 C   0  0  0  0  0  0  0  0  0  0  0  0
    2.3445   -1.6192    0.0000 N   0  0  0  0  0  0  0  0  0  0  0  0
    2.5110   -0.0102    0.0000 C   0  0  0  0  0  0  0  0  0  0  0  0
    4.2910    0.0814    0.0000 C   0  0  0  0  0  0  0  0  0  0  0  0
    0.8442   -0.7565    0.0000 C   0  0  0  0  0  0  0  0  0  0  0  0
    4.2910    1.0816    0.0000 N   0  0  0  0  0  0  0  0  0  0  0  0
   -1.6569   -1.6192    0.0000 C   0  0  0  0  0  0  0  0  0  0  0  0
    0.8442   -2.4860    0.0000 C   0  0  0  0  0  0  0  0  0  0  0  0
    1.8443   -2.4860    0.0000 C   0  0  0  0  0  0  0  0  0  0  0  0
   -0.6565   -0.6230    0.0000 O   0  0  0  0  0  0  0  0  0  0  0  0
   -0.6565   -2.6197    0.0000 O   0  0  0  0  0  0  0  0  0  0  0  0
    5.1581   -0.4189    0.0000 O   0  0  0  0  0  0  0  0  0  0  0  0
   -2.1570   -2.4860    0.0000 C   0  0  0  0  0  0  0  0  0  0  0  0
   -2.1570   -0.7565    0.0000 C   0  0  0  0  0  0  0  0  0  0  0  0
   -3.1574   -0.7565    0.0000 C   0  0  0  0  0  0  0  0  0  0  0  0
   -3.1574   -2.4860    0.0000 C   0  0  0  0  0  0  0  0  0  0  0  0
   -3.6576   -1.6192    0.0000 C   0  0  0  0  0  0  0  0  0  0  0  0
    3.4825    1.6694    0.0000 C   0  0  0  0  0  0  0  0  0  0  0  0
    5.1038    1.6694    0.0000 C   0  0  0  0  0  0  0  0  0  0  0  0
   -4.6579   -1.6192    0.0000 C   0  0  0  0  0  0  0  0  0  0  0  0
    3.7907    2.6197    0.0000 C   0  0  0  0  0  0  0  0  0  0  0  0
    4.7912    2.6197    0.0000 C   0  0  0  0  0  0  0  0  0  0  0  0
   -5.1581   -2.4860    0.0000 C   0  0  0  0  0  0  0  0  0  0  0  0
  2  7  1  0  0  0  0
  2  3  2  0  0  0  0
  3  6  1  0  0  0  0
  1  4  1  0  0  0  0
  5  9  1  0  0  0  0
  5  6  1  0  0  0  0
  6 13  1  0  0  0  0
  5  7  2  0  0  0  0
  2  8  1  0  0  0  0
  4  9  1  0  0  0  0
  8 10  1  0  0  0  0
  1 11  1  0  0  0  0
  4 12  1  0  0  0  0
 12 13  1  0  0  0  0
  1 14  2  0  0  0  0
  1 15  2  0  0  0  0
  8 16  2  0  0  0  0
 11 17  2  0  0  0  0
 11 18  1  0  0  0  0
 18 19  2  0  0  0  0
 17 20  1  0  0  0  0
 20 21  2  0  0  0  0
 19 21  1  0  0  0  0
 10 22  1  0  0  0  0
 10 23  1  0  0  0  0
 21 24  1  0  0  0  0
 22 25  1  0  0  0  0
 25 26  1  0  0  0  0
 23 26  1  0  0  0  0
 24 27  1  0  0  0  0
M  END
> <IDNUMBER>
SB71-0983

> <available>
100

> <H_acceptor>
8

> <H_donor>
0

> <B_rotN>
5

> <N_O>
7

> <logP>
2.4094

> <logD>
2.4094

> <logSw>
-2.7565

> <PSA>
62.435

> <pKa_ma>
26.1583

> <pKa_mb>
-3.592

> <N_Chirals>
0

> <Name>
[5-(4-ethylbenzene-1-sulfonyl)-4,5,6,7-tetrahydropyrazolo[1,5-a]pyrazin-2-yl](pyrrolidin-1-yl)methanone

> <Smile>
CCc(cc1)ccc1S(N1Cc2cc(C(N3CCCC3)=O)nn2CC1)(=O)=O

> <Color>
ORANGE

> <Collection>
IC

> <InChI>
InChI=1S/C19H24N4O3S/c1-2-15-5-7-17(8-6-15)27(25,26)22-11-12-23-16(14-22)13-18(20-23)19(24)21-9-3-4-10-21/h5-8,13H,2-4,9-12,14H2,1H3

> <InChI Key>
LNCMAVGCOMJCIM-UHFFFAOYSA-N

> <PERCENTSP3>
47.37

> <Link>
https://www.chemdiv.com/catalog/screening-compounds/compound-SB71-0983/

> <MFCDNUMBER>
MFCD32249466

> <CLNUMBER>
CM5543

> <STEREO>
ACHIRAL

> <State>
Solid

> <Similarity score>
0.25

$$$$
[5-(3-fluoro-4-methoxybenzoyl)-4,5,6,7-tetrahydropyrazolo[1,5-a]pyrazin-2-yl](mo
  -OEChem-04222410502D

 28 31  0     0  0  0  0  0  0999 V2000
    1.8818   -1.1775    0.0000 C   0  0  0  0  0  0  0  0  0  0  0  0
    2.2902   -0.2604    0.0000 N   0  0  0  0  0  0  0  0  0  0  0  0
    0.6813   -0.0939    0.0000 C   0  0  0  0  0  0  0  0  0  0  0  0
    1.5482    0.4062    0.0000 N   0  0  0  0  0  0  0  0  0  0  0  0
    0.8898   -1.0732    0.0000 C   0  0  0  0  0  0  0  0  0  0  0  0
   -0.1855    1.4064    0.0000 N   0  0  0  0  0  0  0  0  0  0  0  0
    2.3819   -2.0402    0.0000 C   0  0  0  0  0  0  0  0  0  0  0  0
   -1.0523    1.9068    0.0000 C   0  0  0  0  0  0  0  0  0  0  0  0
   -0.1855    0.4062    0.0000 C   0  0  0  0  0  0  0  0  0  0  0  0
    3.3820   -2.0402    0.0000 N   0  0  0  0  0  0  0  0  0  0  0  0
   -1.9193    1.4064    0.0000 C   0  0  0  0  0  0  0  0  0  0  0  0
    1.5482    1.4064    0.0000 C   0  0  0  0  0  0  0  0  0  0  0  0
   -2.7862    1.9068    0.0000 C   0  0  0  0  0  0  0  0  0  0  0  0
   -3.6532    1.4064    0.0000 C   0  0  0  0  0  0  0  0  0  0  0  0
    0.6813    1.9068    0.0000 C   0  0  0  0  0  0  0  0  0  0  0  0
    1.8818   -2.9070    0.0000 O   0  0  0  0  0  0  0  0  0  0  0  0
   -1.0523    2.9070    0.0000 O   0  0  0  0  0  0  0  0  0  0  0  0
   -3.6532    0.4062    0.0000 C   0  0  0  0  0  0  0  0  0  0  0  0
   -1.9193    0.4062    0.0000 C   0  0  0  0  0  0  0  0  0  0  0  0
   -2.7862   -0.0939    0.0000 C   0  0  0  0  0  0  0  0  0  0  0  0
    5.3827   -2.0402    0.0000 O   0  0  0  0  0  0  0  0  0  0  0  0
   -4.5160    1.9068    0.0000 F   0  0  0  0  0  0  0  0  0  0  0  0
   -4.5160   -0.0939    0.0000 O   0  0  0  0  0  0  0  0  0  0  0  0
    3.8823   -2.9070    0.0000 C   0  0  0  0  0  0  0  0  0  0  0  0
    3.8823   -1.1775    0.0000 C   0  0  0  0  0  0  0  0  0  0  0  0
    4.8825   -1.1775    0.0000 C   0  0  0  0  0  0  0  0  0  0  0  0
    4.8825   -2.9070    0.0000 C   0  0  0  0  0  0  0  0  0  0  0  0
   -5.3827    0.4062    0.0000 C   0  0  0  0  0  0  0  0  0  0  0  0
  1  2  2  0  0  0  0
  3  5  2  0  0  0  0
  3  4  1  0  0  0  0
  2  4  1  0  0  0  0
  1  5  1  0  0  0  0
  6  9  1  0  0  0  0
  1  7  1  0  0  0  0
  6  8  1  0  0  0  0
  3  9  1  0  0  0  0
  7 10  1  0  0  0  0
  8 11  1  0  0  0  0
  4 12  1  0  0  0  0
 11 13  2  0  0  0  0
 13 14  1  0  0  0  0
 14 18  2  0  0  0  0
 12 15  1  0  0  0  0
  6 15  1  0  0  0  0
  7 16  2  0  0  0  0
  8 17  2  0  0  0  0
 18 20  1  0  0  0  0
 11 19  1  0  0  0  0
 19 20  2  0  0  0  0
 21 26  1  0  0  0  0
 21 27  1  0  0  0  0
 14 22  1  0  0  0  0
 18 23  1  0  0  0  0
 10 24  1  0  0  0  0
 10 25  1  0  0  0  0
 25 26  1  0  0  0  0
 24 27  1  0  0  0  0
 23 28  1  0  0  0  0
M  END
> <IDNUMBER>
SB71-0227

> <available>
75

> <H_acceptor>
7

> <H_donor>
0

> <B_rotN>
5

> <N_O>
8

> <logP>
0.3895

> <logD>
0.3895

> <logSw>
-1.6678

> <PSA>
62.545

> <pKa_ma>
25.9791

> <pKa_mb>
-4.3408

> <N_Chirals>
0

> <Name>
[5-(3-fluoro-4-methoxybenzoyl)-4,5,6,7-tetrahydropyrazolo[1,5-a]pyrazin-2-yl](morpholin-4-yl)methanone

> <Smile>
COc(ccc(C(N1Cc2cc(C(N3CCOCC3)=O)nn2CC1)=O)c1)c1F

> <Color>
YELLOW

> <Collection>
IC

> <InChI>
InChI=1S/C19H21FN4O4/c1-27-17-3-2-13(10-15(17)20)18(25)23-4-5-24-14(12-23)11-16(21-24)19(26)22-6-8-28-9-7-22/h2-3,10-11H,4-9,12H2,1H3

> <InChI Key>
UXZKEQYPCHMXSX-UHFFFAOYSA-N

> <PERCENTSP3>
42.1

> <Link>
https://www.chemdiv.com/catalog/screening-compounds/compound-SB71-0227/

> <MFCDNUMBER>
MFCD32249635

> <CLNUMBER>
CM5543

> <STEREO>
ACHIRAL

> <State>
Solid

> <Similarity score>
0.25

$$$$
[5-(3-methoxybenzene-1-sulfonyl)-4,5,6,7-tetrahydropyrazolo[1,5-a]pyrazin-2-yl](
  -OEChem-04222410502D

 27 30  0     0  0  0  0  0  0999 V2000
   -0.9066   -1.6192    0.0000 S   0  0  0  0  0  0  0  0  0  0  0  0
    3.1782   -0.4189    0.0000 C   0  0  0  0  0  0  0  0  0  0  0  0
    3.0739   -1.4150    0.0000 N   0  0  0  0  0  0  0  0  0  0  0  0
    0.0939   -1.6192    0.0000 N   0  0  0  0  0  0  0  0  0  0  0  0
    1.5943   -0.7564    0.0000 C   0  0  0  0  0  0  0  0  0  0  0  0
    2.0945   -1.6192    0.0000 N   0  0  0  0  0  0  0  0  0  0  0  0
    2.2612   -0.0103    0.0000 C   0  0  0  0  0  0  0  0  0  0  0  0
    4.0411    0.0813    0.0000 C   0  0  0  0  0  0  0  0  0  0  0  0
    0.5940   -0.7564    0.0000 C   0  0  0  0  0  0  0  0  0  0  0  0
   -1.9069   -1.6192    0.0000 C   0  0  0  0  0  0  0  0  0  0  0  0
    4.0411    1.0817    0.0000 N   0  0  0  0  0  0  0  0  0  0  0  0
    0.5940   -2.4862    0.0000 C   0  0  0  0  0  0  0  0  0  0  0  0
    1.5943   -2.4862    0.0000 C   0  0  0  0  0  0  0  0  0  0  0  0
   -0.9066   -0.6230    0.0000 O   0  0  0  0  0  0  0  0  0  0  0  0
   -0.9066   -2.6196    0.0000 O   0  0  0  0  0  0  0  0  0  0  0  0
   -2.4070   -0.7564    0.0000 C   0  0  0  0  0  0  0  0  0  0  0  0
    4.9079   -0.4189    0.0000 O   0  0  0  0  0  0  0  0  0  0  0  0
   -3.4075   -0.7564    0.0000 C   0  0  0  0  0  0  0  0  0  0  0  0
   -2.4070   -2.4862    0.0000 C   0  0  0  0  0  0  0  0  0  0  0  0
    3.2325    1.6695    0.0000 C   0  0  0  0  0  0  0  0  0  0  0  0
    4.8538    1.6695    0.0000 C   0  0  0  0  0  0  0  0  0  0  0  0
   -3.9075    0.1104    0.0000 O   0  0  0  0  0  0  0  0  0  0  0  0
   -3.4075   -2.4862    0.0000 C   0  0  0  0  0  0  0  0  0  0  0  0
   -3.9075   -1.6192    0.0000 C   0  0  0  0  0  0  0  0  0  0  0  0
   -4.9079    0.1104    0.0000 C   0  0  0  0  0  0  0  0  0  0  0  0
    4.5412    2.6196    0.0000 C   0  0  0  0  0  0  0  0  0  0  0  0
    3.5408    2.6196    0.0000 C   0  0  0  0  0  0  0  0  0  0  0  0
  2  7  1  0  0  0  0
  2  3  2  0  0  0  0
  3  6  1  0  0  0  0
  1  4  1  0  0  0  0
  5  9  1  0  0  0  0
  5  6  1  0  0  0  0
  6 13  1  0  0  0  0
  5  7  2  0  0  0  0
  2  8  1  0  0  0  0
  4  9  1  0  0  0  0
  1 10  1  0  0  0  0
  8 11  1  0  0  0  0
  4 12  1  0  0  0  0
 12 13  1  0  0  0  0
  1 14  2  0  0  0  0
  1 15  2  0  0  0  0
 10 16  1  0  0  0  0
  8 17  2  0  0  0  0
 16 18  2  0  0  0  0
 18 24  1  0  0  0  0
 10 19  2  0  0  0  0
 11 20  1  0  0  0  0
 11 21  1  0  0  0  0
 18 22  1  0  0  0  0
 19 23  1  0  0  0  0
 23 24  2  0  0  0  0
 22 25  1  0  0  0  0
 21 26  1  0  0  0  0
 20 27  1  0  0  0  0
 26 27  1  0  0  0  0
M  END
> <IDNUMBER>
SB71-0930

> <available>
116

> <H_acceptor>
9

> <H_donor>
0

> <B_rotN>
5

> <N_O>
8

> <logP>
1.4584

> <logD>
1.4584

> <logSw>
-2.4341

> <PSA>
69.978

> <pKa_ma>
26.1583

> <pKa_mb>
-3.592

> <N_Chirals>
0

> <Name>
[5-(3-methoxybenzene-1-sulfonyl)-4,5,6,7-tetrahydropyrazolo[1,5-a]pyrazin-2-yl](pyrrolidin-1-yl)methanone

> <Smile>
COc1cccc(S(N2Cc3cc(C(N4CCCC4)=O)nn3CC2)(=O)=O)c1

> <Color>
ORANGE

> <Collection>
IC

> <InChI>
InChI=1S/C18H22N4O4S/c1-26-15-5-4-6-16(12-15)27(24,25)21-9-10-22-14(13-21)11-17(19-22)18(23)20-7-2-3-8-20/h4-6,11-12H,2-3,7-10,13H2,1H3

> <InChI Key>
IXDHWBUAHNIGCR-UHFFFAOYSA-N

> <PERCENTSP3>
44.44

> <Link>
https://www.chemdiv.com/catalog/screening-compounds/compound-SB71-0930/

> <MFCDNUMBER>
MFCD32249435

> <CLNUMBER>
CM5543

> <STEREO>
ACHIRAL

> <State>
Solid

> <Similarity score>
0.25

$$$$
N-(2-methoxyethyl)-5-[(1-methyl-1H-indol-3-yl)methyl]-4,5,6,7-tetrahydropyrazolo
  -OEChem-04222410502D

 27 30  0     0  0  0  0  0  0999 V2000
    2.7686   -1.4437    0.0000 C   0  0  0  0  0  0  0  0  0  0  0  0
    2.4603   -2.3936    0.0000 N   0  0  0  0  0  0  0  0  0  0  0  0
   -1.7811   -0.8188    0.0000 C   0  0  0  0  0  0  0  0  0  0  0  0
    1.4602   -2.3936    0.0000 N   0  0  0  0  0  0  0  0  0  0  0  0
    1.1520   -1.4437    0.0000 C   0  0  0  0  0  0  0  0  0  0  0  0
    1.9603   -0.8563    0.0000 C   0  0  0  0  0  0  0  0  0  0  0  0
   -1.7811    0.7977    0.0000 N   0  0  0  0  0  0  0  0  0  0  0  0
   -1.1936   -0.0105    0.0000 C   0  0  0  0  0  0  0  0  0  0  0  0
   -2.7309   -0.5104    0.0000 C   0  0  0  0  0  0  0  0  0  0  0  0
   -2.7309    0.4897    0.0000 C   0  0  0  0  0  0  0  0  0  0  0  0
    3.7225   -1.1354    0.0000 C   0  0  0  0  0  0  0  0  0  0  0  0
   -0.4937   -1.9769    0.0000 N   0  0  0  0  0  0  0  0  0  0  0  0
   -1.4728   -1.7728    0.0000 C   0  0  0  0  0  0  0  0  0  0  0  0
    0.1728   -1.2355    0.0000 C   0  0  0  0  0  0  0  0  0  0  0  0
    0.7938   -3.1393    0.0000 C   0  0  0  0  0  0  0  0  0  0  0  0
    4.4641   -1.8020    0.0000 O   0  0  0  0  0  0  0  0  0  0  0  0
   -0.1854   -2.9311    0.0000 C   0  0  0  0  0  0  0  0  0  0  0  0
    3.9308   -0.1564    0.0000 N   0  0  0  0  0  0  0  0  0  0  0  0
   -1.4728    1.7477    0.0000 C   0  0  0  0  0  0  0  0  0  0  0  0
   -3.5975   -1.0104    0.0000 C   0  0  0  0  0  0  0  0  0  0  0  0
   -3.5975    0.9895    0.0000 C   0  0  0  0  0  0  0  0  0  0  0  0
    2.6518    2.1601    0.0000 O   0  0  0  0  0  0  0  0  0  0  0  0
    3.1852    0.5103    0.0000 C   0  0  0  0  0  0  0  0  0  0  0  0
    3.3936    1.4895    0.0000 C   0  0  0  0  0  0  0  0  0  0  0  0
    2.8601    3.1393    0.0000 C   0  0  0  0  0  0  0  0  0  0  0  0
   -4.4641    0.4897    0.0000 C   0  0  0  0  0  0  0  0  0  0  0  0
   -4.4641   -0.5104    0.0000 C   0  0  0  0  0  0  0  0  0  0  0  0
  1  2  2  0  0  0  0
  3 13  1  0  0  0  0
  2  4  1  0  0  0  0
  5  6  2  0  0  0  0
  4  5  1  0  0  0  0
  1  6  1  0  0  0  0
  7  8  1  0  0  0  0
  7 10  1  0  0  0  0
  3  8  2  0  0  0  0
  3  9  1  0  0  0  0
  9 10  2  0  0  0  0
  1 11  1  0  0  0  0
 12 14  1  0  0  0  0
 12 13  1  0  0  0  0
  5 14  1  0  0  0  0
  4 15  1  0  0  0  0
 11 16  2  0  0  0  0
 15 17  1  0  0  0  0
 12 17  1  0  0  0  0
 11 18  1  0  0  0  0
  7 19  1  0  0  0  0
  9 20  1  0  0  0  0
 10 21  1  0  0  0  0
 21 26  2  0  0  0  0
 22 24  1  0  0  0  0
 18 23  1  0  0  0  0
 23 24  1  0  0  0  0
 22 25  1  0  0  0  0
 26 27  1  0  0  0  0
 20 27  2  0  0  0  0
M  END
> <IDNUMBER>
SB71-0329

> <available>
12

> <H_acceptor>
5

> <H_donor>
1

> <B_rotN>
7

> <N_O>
7

> <logP>
1.2876

> <logD>
0.1264

> <logSw>
-2.3038

> <PSA>
52.87

> <pKa_ma>
13.9875

> <pKa_mb>
8.5302

> <N_Chirals>
0

> <Name>
N-(2-methoxyethyl)-5-[(1-methyl-1H-indol-3-yl)methyl]-4,5,6,7-tetrahydropyrazolo[1,5-a]pyrazine-2-carboxamide

> <Smile>
Cn1c(cccc2)c2c(CN2Cc3cc(C(NCCOC)=O)nn3CC2)c1

> <Color>
ORANGE

> <Collection>
IC

> <InChI>
InChI=1S/C20H25N5O2/c1-23-12-15(17-5-3-4-6-19(17)23)13-24-8-9-25-16(14-24)11-18(22-25)20(26)21-7-10-27-2/h3-6,11-12H,7-10,13-14H2,1-2H3,(H,21,26)

> <InChI Key>
FKRCFIXATVLHOF-UHFFFAOYSA-N

> <PERCENTSP3>
40

> <Link>
https://www.chemdiv.com/catalog/screening-compounds/compound-SB71-0329/

> <MFCDNUMBER>
MFCD32249417

> <CLNUMBER>
CM5543

> <STEREO>
ACHIRAL

> <State>
Oil

> <Similarity score>
0.25

$$$$
5-[3-(5-chloro-1H-benzimidazol-2-yl)propanoyl]-N,N-dimethyl-4,5,6,7-tetrahydropy
  -OEChem-04222410502D

 28 31  0     0  0  0  0  0  0999 V2000
    4.1584    0.1355    0.0000 C   0  0  0  0  0  0  0  0  0  0  0  0
    3.5708    0.9438    0.0000 N   0  0  0  0  0  0  0  0  0  0  0  0
    2.6167   -0.3645    0.0000 C   0  0  0  0  0  0  0  0  0  0  0  0
    2.6167    0.6355    0.0000 N   0  0  0  0  0  0  0  0  0  0  0  0
    3.5708   -0.6771    0.0000 C   0  0  0  0  0  0  0  0  0  0  0  0
   -3.4917   -0.7728    0.0000 N   0  0  0  0  0  0  0  0  0  0  0  0
    5.1584    0.1355    0.0000 C   0  0  0  0  0  0  0  0  0  0  0  0
    0.8874   -0.3645    0.0000 N   0  0  0  0  0  0  0  0  0  0  0  0
   -2.5793   -0.3645    0.0000 C   0  0  0  0  0  0  0  0  0  0  0  0
   -2.6833    0.6271    0.0000 N   0  0  0  0  0  0  0  0  0  0  0  0
   -4.1625   -0.0312    0.0000 C   0  0  0  0  0  0  0  0  0  0  0  0
    1.7543   -0.8645    0.0000 C   0  0  0  0  0  0  0  0  0  0  0  0
    0.0208   -0.8645    0.0000 C   0  0  0  0  0  0  0  0  0  0  0  0
   -3.6625    0.8354    0.0000 C   0  0  0  0  0  0  0  0  0  0  0  0
    1.7543    1.1355    0.0000 C   0  0  0  0  0  0  0  0  0  0  0  0
   -5.1625   -0.0312    0.0000 C   0  0  0  0  0  0  0  0  0  0  0  0
    5.6584    1.0021    0.0000 N   0  0  0  0  0  0  0  0  0  0  0  0
    0.8874    0.6355    0.0000 C   0  0  0  0  0  0  0  0  0  0  0  0
    5.6584   -0.7314    0.0000 O   0  0  0  0  0  0  0  0  0  0  0  0
    0.0208   -1.8645    0.0000 O   0  0  0  0  0  0  0  0  0  0  0  0
   -0.8458   -0.3645    0.0000 C   0  0  0  0  0  0  0  0  0  0  0  0
   -4.1625    1.7020    0.0000 C   0  0  0  0  0  0  0  0  0  0  0  0
   -1.7124   -0.8645    0.0000 C   0  0  0  0  0  0  0  0  0  0  0  0
   -5.6625    0.8354    0.0000 C   0  0  0  0  0  0  0  0  0  0  0  0
   -5.1625    1.7020    0.0000 C   0  0  0  0  0  0  0  0  0  0  0  0
   -6.6584    0.8354    0.0000 Cl  0  0  0  0  0  0  0  0  0  0  0  0
    5.1584    1.8645    0.0000 C   0  0  0  0  0  0  0  0  0  0  0  0
    6.6584    1.0021    0.0000 C   0  0  0  0  0  0  0  0  0  0  0  0
  1  2  2  0  0  0  0
  3  5  2  0  0  0  0
  3  4  1  0  0  0  0
  2  4  1  0  0  0  0
  1  5  1  0  0  0  0
  6  9  2  0  0  0  0
  1  7  1  0  0  0  0
  8 12  1  0  0  0  0
  9 23  1  0  0  0  0
  9 10  1  0  0  0  0
  6 11  1  0  0  0  0
 11 14  1  0  0  0  0
  3 12  1  0  0  0  0
  8 13  1  0  0  0  0
 10 14  1  0  0  0  0
  4 15  1  0  0  0  0
 11 16  2  0  0  0  0
  7 17  1  0  0  0  0
 15 18  1  0  0  0  0
  8 18  1  0  0  0  0
  7 19  2  0  0  0  0
 13 20  2  0  0  0  0
 13 21  1  0  0  0  0
 14 22  2  0  0  0  0
 21 23  1  0  0  0  0
 16 24  1  0  0  0  0
 24 25  2  0  0  0  0
 22 25  1  0  0  0  0
 24 26  1  0  0  0  0
 17 27  1  0  0  0  0
 17 28  1  0  0  0  0
M  END
> <IDNUMBER>
SB71-0047

> <available>
92

> <H_acceptor>
6

> <H_donor>
1

> <B_rotN>
6

> <N_O>
8

> <logP>
0.917

> <logD>
0.8494

> <logSw>
-2.5782

> <PSA>
66.112

> <pKa_ma>
10.7268

> <pKa_mb>
6.6262

> <N_Chirals>
0

> <Name>
5-[3-(5-chloro-1H-benzimidazol-2-yl)propanoyl]-N,N-dimethyl-4,5,6,7-tetrahydropyrazolo[1,5-a]pyrazine-2-carboxamide

> <Smile>
CN(C)C(c1nn(CCN(C2)C(CCc3nc(cc(cc4)Cl)c4[nH]3)=O)c2c1)=O

> <Color>
BROWN

> <Collection>
IC

> <InChI>
InChI=1S/C19H21ClN6O2/c1-24(2)19(28)16-10-13-11-25(7-8-26(13)23-16)18(27)6-5-17-21-14-4-3-12(20)9-15(14)22-17/h3-4,9-10H,5-8,11H2,1-2H3,(H,21,22)

> <InChI Key>
KWUWDOBJMQPEJO-UHFFFAOYSA-N

> <PERCENTSP3>
36.84

> <Link>
https://www.chemdiv.com/catalog/screening-compounds/compound-SB71-0047/

> <MFCDNUMBER>
MFCD32249192

> <CLNUMBER>
CM5543

> <STEREO>
ACHIRAL

> <State>
Solid

> <Similarity score>
0.25

$$$$
5-[(1-ethyl-1H-indol-3-yl)methyl]-N-(propan-2-yl)-4,5,6,7-tetrahydropyrazolo[1,5
  -OEChem-04222410502D

 27 30  0     0  0  0  0  0  0999 V2000
    1.9231   -0.8523    0.0000 C   0  0  0  0  0  0  0  0  0  0  0  0
    1.6148   -1.8023    0.0000 N   0  0  0  0  0  0  0  0  0  0  0  0
   -2.6275   -0.2314    0.0000 C   0  0  0  0  0  0  0  0  0  0  0  0
    0.6146   -1.8023    0.0000 N   0  0  0  0  0  0  0  0  0  0  0  0
    0.3062   -0.8523    0.0000 C   0  0  0  0  0  0  0  0  0  0  0  0
    1.1147   -0.2646    0.0000 C   0  0  0  0  0  0  0  0  0  0  0  0
   -2.6275    1.3899    0.0000 N   0  0  0  0  0  0  0  0  0  0  0  0
   -2.0400    0.5814    0.0000 C   0  0  0  0  0  0  0  0  0  0  0  0
    2.8732   -0.5439    0.0000 C   0  0  0  0  0  0  0  0  0  0  0  0
   -3.5817    0.0813    0.0000 C   0  0  0  0  0  0  0  0  0  0  0  0
   -3.5817    1.0813    0.0000 C   0  0  0  0  0  0  0  0  0  0  0  0
   -1.3439   -1.3899    0.0000 N   0  0  0  0  0  0  0  0  0  0  0  0
   -2.3190   -1.1814    0.0000 C   0  0  0  0  0  0  0  0  0  0  0  0
   -0.6730   -0.6438    0.0000 C   0  0  0  0  0  0  0  0  0  0  0  0
    3.6192   -1.2148    0.0000 N   0  0  0  0  0  0  0  0  0  0  0  0
   -0.0563   -2.5484    0.0000 C   0  0  0  0  0  0  0  0  0  0  0  0
    3.0818    0.4354    0.0000 O   0  0  0  0  0  0  0  0  0  0  0  0
   -1.0314   -2.3399    0.0000 C   0  0  0  0  0  0  0  0  0  0  0  0
   -2.3190    2.3399    0.0000 C   0  0  0  0  0  0  0  0  0  0  0  0
    4.5694   -0.9064    0.0000 C   0  0  0  0  0  0  0  0  0  0  0  0
   -4.4486   -0.4188    0.0000 C   0  0  0  0  0  0  0  0  0  0  0  0
   -4.4486    1.5814    0.0000 C   0  0  0  0  0  0  0  0  0  0  0  0
   -1.3439    2.5484    0.0000 C   0  0  0  0  0  0  0  0  0  0  0  0
    5.3112   -1.5731    0.0000 C   0  0  0  0  0  0  0  0  0  0  0  0
    4.7777    0.0730    0.0000 C   0  0  0  0  0  0  0  0  0  0  0  0
   -5.3112    0.0813    0.0000 C   0  0  0  0  0  0  0  0  0  0  0  0
   -5.3112    1.0813    0.0000 C   0  0  0  0  0  0  0  0  0  0  0  0
  1  2  2  0  0  0  0
  3 13  1  0  0  0  0
  2  4  1  0  0  0  0
  5  6  2  0  0  0  0
  4  5  1  0  0  0  0
  1  6  1  0  0  0  0
  7  8  1  0  0  0  0
  7 11  1  0  0  0  0
  3  8  2  0  0  0  0
  1  9  1  0  0  0  0
  3 10  1  0  0  0  0
 10 11  2  0  0  0  0
 12 14  1  0  0  0  0
 12 13  1  0  0  0  0
  5 14  1  0  0  0  0
  9 15  1  0  0  0  0
  4 16  1  0  0  0  0
  9 17  2  0  0  0  0
 16 18  1  0  0  0  0
 12 18  1  0  0  0  0
  7 19  1  0  0  0  0
 15 20  1  0  0  0  0
 10 21  1  0  0  0  0
 11 22  1  0  0  0  0
 22 27  2  0  0  0  0
 19 23  1  0  0  0  0
 20 24  1  0  0  0  0
 20 25  1  0  0  0  0
 21 26  2  0  0  0  0
 26 27  1  0  0  0  0
M  END
> <IDNUMBER>
SB71-0673

> <available>
1

> <H_acceptor>
4

> <H_donor>
1

> <B_rotN>
6

> <N_O>
6

> <logP>
2.1801

> <logD>
0.327

> <logSw>
-2.7783

> <PSA>
42.829

> <pKa_ma>
14.8713

> <pKa_mb>
9.2469

> <N_Chirals>
0

> <Name>
5-[(1-ethyl-1H-indol-3-yl)methyl]-N-(propan-2-yl)-4,5,6,7-tetrahydropyrazolo[1,5-a]pyrazine-2-carboxamide

> <Smile>
CCn1c(cccc2)c2c(CN2Cc3cc(C(NC(C)C)=O)nn3CC2)c1

> <Color>
BROWN

> <Collection>
IC

> <InChI>
InChI=1S/C21H27N5O/c1-4-25-13-16(18-7-5-6-8-20(18)25)12-24-9-10-26-17(14-24)11-19(23-26)21(27)22-15(2)3/h5-8,11,13,15H,4,9-10,12,14H2,1-3H3,(H,22,27)

> <InChI Key>
UARUBTJTJPKBAK-UHFFFAOYSA-N

> <PERCENTSP3>
42.9

> <Link>
https://www.chemdiv.com/catalog/screening-compounds/compound-SB71-0673/

> <MFCDNUMBER>
MFCD32249456

> <CLNUMBER>
CM5543

> <STEREO>
ACHIRAL

> <State>
Solid

> <Similarity score>
0.25

$$$$
5-(2,3-dihydro-1H-indene-5-sulfonyl)-N-(propan-2-yl)-4,5,6,7-tetrahydropyrazolo[
  -OEChem-04222410502D

 27 30  0     0  0  0  0  0  0999 V2000
    1.2977   -1.6019    0.0000 S   0  0  0  0  0  0  0  0  0  0  0  0
   -2.7851   -0.3980    0.0000 C   0  0  0  0  0  0  0  0  0  0  0  0
    0.2978   -1.6019    0.0000 N   0  0  0  0  0  0  0  0  0  0  0  0
   -2.6808   -1.3935    0.0000 N   0  0  0  0  0  0  0  0  0  0  0  0
   -1.2020   -0.7353    0.0000 C   0  0  0  0  0  0  0  0  0  0  0  0
   -1.7019   -1.6019    0.0000 N   0  0  0  0  0  0  0  0  0  0  0  0
   -1.8685    0.0061    0.0000 C   0  0  0  0  0  0  0  0  0  0  0  0
   -3.6475    0.1021    0.0000 C   0  0  0  0  0  0  0  0  0  0  0  0
   -0.2023   -0.7353    0.0000 C   0  0  0  0  0  0  0  0  0  0  0  0
    2.2975   -1.6019    0.0000 C   0  0  0  0  0  0  0  0  0  0  0  0
   -0.2023   -2.4685    0.0000 C   0  0  0  0  0  0  0  0  0  0  0  0
   -1.2020   -2.4685    0.0000 C   0  0  0  0  0  0  0  0  0  0  0  0
   -3.6475    1.1020    0.0000 N   0  0  0  0  0  0  0  0  0  0  0  0
    2.7973   -0.7353    0.0000 C   0  0  0  0  0  0  0  0  0  0  0  0
    1.2977   -0.6021    0.0000 O   0  0  0  0  0  0  0  0  0  0  0  0
    1.2977   -2.6016    0.0000 O   0  0  0  0  0  0  0  0  0  0  0  0
    3.7971   -0.7353    0.0000 C   0  0  0  0  0  0  0  0  0  0  0  0
   -4.5141   -0.3980    0.0000 O   0  0  0  0  0  0  0  0  0  0  0  0
    4.2973   -1.6019    0.0000 C   0  0  0  0  0  0  0  0  0  0  0  0
    2.7973   -2.4685    0.0000 C   0  0  0  0  0  0  0  0  0  0  0  0
    3.7971   -2.4685    0.0000 C   0  0  0  0  0  0  0  0  0  0  0  0
   -4.5141    1.6019    0.0000 C   0  0  0  0  0  0  0  0  0  0  0  0
    4.4680    0.0061    0.0000 C   0  0  0  0  0  0  0  0  0  0  0  0
    5.3805   -0.3980    0.0000 C   0  0  0  0  0  0  0  0  0  0  0  0
    5.2762   -1.3935    0.0000 C   0  0  0  0  0  0  0  0  0  0  0  0
   -4.5141    2.6016    0.0000 C   0  0  0  0  0  0  0  0  0  0  0  0
   -5.3805    1.1020    0.0000 C   0  0  0  0  0  0  0  0  0  0  0  0
  2  7  1  0  0  0  0
  2  4  2  0  0  0  0
  1  3  1  0  0  0  0
  4  6  1  0  0  0  0
  5  9  1  0  0  0  0
  5  6  1  0  0  0  0
  6 12  1  0  0  0  0
  5  7  2  0  0  0  0
  2  8  1  0  0  0  0
  3  9  1  0  0  0  0
  1 10  1  0  0  0  0
  3 11  1  0  0  0  0
 11 12  1  0  0  0  0
  8 13  1  0  0  0  0
 10 14  2  0  0  0  0
  1 15  2  0  0  0  0
  1 16  2  0  0  0  0
 14 17  1  0  0  0  0
  8 18  2  0  0  0  0
 19 21  1  0  0  0  0
 17 19  2  0  0  0  0
 10 20  1  0  0  0  0
 20 21  2  0  0  0  0
 13 22  1  0  0  0  0
 17 23  1  0  0  0  0
 23 24  1  0  0  0  0
 24 25  1  0  0  0  0
 19 25  1  0  0  0  0
 22 26  1  0  0  0  0
 22 27  1  0  0  0  0
M  END
> <IDNUMBER>
SB71-0602

> <available>
30

> <H_acceptor>
8

> <H_donor>
1

> <B_rotN>
5

> <N_O>
7

> <logP>
2.2994

> <logD>
2.2994

> <logSw>
-2.9223

> <PSA>
69.366

> <pKa_ma>
14.8713

> <pKa_mb>
-1.8306

> <N_Chirals>
0

> <Name>
5-(2,3-dihydro-1H-indene-5-sulfonyl)-N-(propan-2-yl)-4,5,6,7-tetrahydropyrazolo[1,5-a]pyrazine-2-carboxamide

> <Smile>
CC(C)NC(c1nn(CCN(C2)S(c3cc(CCC4)c4cc3)(=O)=O)c2c1)=O

> <Color>
NOT COLORED

> <Collection>
IC

> <InChI>
InChI=1S/C19H24N4O3S/c1-13(2)20-19(24)18-11-16-12-22(8-9-23(16)21-18)27(25,26)17-7-6-14-4-3-5-15(14)10-17/h6-7,10-11,13H,3-5,8-9,12H2,1-2H3,(H,20,24)

> <InChI Key>
CUHOZMQCGMROPA-UHFFFAOYSA-N

> <PERCENTSP3>
47.37

> <Link>
https://www.chemdiv.com/catalog/screening-compounds/compound-SB71-0602/

> <MFCDNUMBER>
MFCD32249271

> <CLNUMBER>
CM5543

> <STEREO>
ACHIRAL

> <State>
Solid

> <Similarity score>
0.25

$$$$
(5S)-N-[3-(3,4-dihydroquinolin-1(2H)-yl)propyl]-5-[(pyridin-3-yl)oxy]-5,6-dihydr
  -OEChem-04222410502D

 31 35  0     1  0  0  0  0  0999 V2000
   -0.7436   -0.4934    0.0000 C   0  0  0  0  0  0  0  0  0  0  0  0
   -1.9433    0.6020    0.0000 N   0  0  0  0  0  0  0  0  0  0  0  0
   -1.7432   -0.3768    0.0000 N   0  0  0  0  0  0  0  0  0  0  0  0
   -1.0685    1.0976    0.0000 C   0  0  0  0  0  0  0  0  0  0  0  0
   -0.3269    0.4102    0.0000 C   0  0  0  0  0  0  0  0  0  0  0  0
   -0.2395   -1.3684    0.0000 C   0  0  0  0  0  0  0  0  0  0  0  0
    3.7384   -3.1053    0.0000 N   0  0  0  0  0  0  0  0  0  0  0  0
   -2.6763    1.2892    0.0000 C   0  0  0  0  0  0  0  0  0  0  0  0
   -1.2683    2.0764    0.0000 C   0  0  0  0  0  0  0  0  0  0  0  0
    4.2465   -2.2431    0.0000 C   0  0  0  0  0  0  0  0  0  0  0  0
   -2.2598    2.1972    0.0000 C   0  0  2  0  0  0  0  0  0  0  0  0
   -0.7436   -2.2388    0.0000 O   0  0  0  0  0  0  0  0  0  0  0  0
   -2.7554    3.0804    0.0000 O   0  0  0  0  0  0  0  0  0  0  0  0
   -5.2463    2.2431    0.0000 N   0  0  0  0  0  0  0  0  0  0  0  0
    5.2422   -2.2431    0.0000 C   0  0  0  0  0  0  0  0  0  0  0  0
    0.7601   -1.3684    0.0000 N   0  0  0  0  0  0  0  0  0  0  0  0
   -3.7468    3.0928    0.0000 C   0  0  0  0  0  0  0  0  0  0  0  0
    2.7429   -3.1053    0.0000 C   0  0  0  0  0  0  0  0  0  0  0  0
    4.2383   -3.9758    0.0000 C   0  0  0  0  0  0  0  0  0  0  0  0
    2.2555   -2.2388    0.0000 C   0  0  0  0  0  0  0  0  0  0  0  0
   -4.2508    2.2390    0.0000 C   0  0  0  0  0  0  0  0  0  0  0  0
    5.2422   -3.9758    0.0000 C   0  0  0  0  0  0  0  0  0  0  0  0
    3.7384   -1.3849    0.0000 C   0  0  0  0  0  0  0  0  0  0  0  0
    1.2600   -2.2388    0.0000 C   0  0  0  0  0  0  0  0  0  0  0  0
    5.7419   -3.1053    0.0000 C   0  0  0  0  0  0  0  0  0  0  0  0
   -5.7419    3.1137    0.0000 C   0  0  0  0  0  0  0  0  0  0  0  0
    5.7419   -1.3849    0.0000 C   0  0  0  0  0  0  0  0  0  0  0  0
   -4.2383    3.9634    0.0000 C   0  0  0  0  0  0  0  0  0  0  0  0
   -5.2338    3.9758    0.0000 C   0  0  0  0  0  0  0  0  0  0  0  0
    4.2383   -0.5225    0.0000 C   0  0  0  0  0  0  0  0  0  0  0  0
    5.2338   -0.5225    0.0000 C   0  0  0  0  0  0  0  0  0  0  0  0
  2  3  1  0  0  0  0
  1  3  2  0  0  0  0
  4  5  2  0  0  0  0
  2  4  1  0  0  0  0
  1  5  1  0  0  0  0
  1  6  1  0  0  0  0
  7 18  1  0  0  0  0
  2  8  1  0  0  0  0
  8 11  1  0  0  0  0
  4  9  1  0  0  0  0
  7 10  1  0  0  0  0
  9 11  1  0  0  0  0
 11 13  1  1  0  0  0
  6 12  2  0  0  0  0
 14 21  2  0  0  0  0
 10 15  1  0  0  0  0
  6 16  1  0  0  0  0
 13 17  1  0  0  0  0
 18 20  1  0  0  0  0
  7 19  1  0  0  0  0
 20 24  1  0  0  0  0
 17 21  1  0  0  0  0
 19 22  1  0  0  0  0
 10 23  2  0  0  0  0
 16 24  1  0  0  0  0
 22 25  1  0  0  0  0
 15 25  1  0  0  0  0
 26 29  2  0  0  0  0
 14 26  1  0  0  0  0
 15 27  2  0  0  0  0
 17 28  2  0  0  0  0
 28 29  1  0  0  0  0
 23 30  1  0  0  0  0
 30 31  2  0  0  0  0
 27 31  1  0  0  0  0
M  END
> <IDNUMBER>
SB69-0445

> <available>
88

> <H_acceptor>
5

> <H_donor>
1

> <B_rotN>
8

> <N_O>
7

> <logP>
2.5744

> <logD>
2.525

> <logSw>
-2.7204

> <PSA>
57.114

> <pKa_ma>
14.6297

> <pKa_mb>
7.7151

> <N_Chirals>
1

> <Name>
(5S)-N-[3-(3,4-dihydroquinolin-1(2H)-yl)propyl]-5-[(pyridin-3-yl)oxy]-5,6-dihydro-4H-pyrrolo[1,2-b]pyrazole-2-carboxamide

> <Smile>
O=C(c1nn(C[C@H](C2)Oc3cnccc3)c2c1)NCCCN(CCC1)c2c1cccc2

> <Color>
PINK

> <Collection>
IC

> <InChI>
InChI=1S/C24H27N5O2/c30-24(26-11-5-13-28-12-4-7-18-6-1-2-9-23(18)28)22-15-19-14-21(17-29(19)27-22)31-20-8-3-10-25-16-20/h1-3,6,8-10,15-16,21H,4-5,7,11-14,17H2,(H,26,30)/t21-/m1/s1

> <InChI Key>
ZBZVJFCWFPNVDP-OAQYLSRUSA-N

> <PERCENTSP3>
37.5

> <Link>
https://www.chemdiv.com/catalog/screening-compounds/compound-SB69-0445/

> <MFCDNUMBER>
MFCD32731843

> <CLNUMBER>
CM5520

> <STEREO>
ABSOLUTE

> <State>
Oil

> <Similarity score>
0.25

$$$$
(morpholin-4-yl)[5-(quinoline-8-sulfonyl)-4,5,6,7-tetrahydropyrazolo[1,5-a]pyraz
  -OEChem-04222410502D

 30 34  0     0  0  0  0  0  0999 V2000
    1.4064   -1.8523    0.0000 S   0  0  0  0  0  0  0  0  0  0  0  0
   -2.6773   -0.6480    0.0000 C   0  0  0  0  0  0  0  0  0  0  0  0
    0.4062   -1.8523    0.0000 N   0  0  0  0  0  0  0  0  0  0  0  0
   -2.5690   -1.6439    0.0000 N   0  0  0  0  0  0  0  0  0  0  0  0
    2.4064   -1.8523    0.0000 C   0  0  0  0  0  0  0  0  0  0  0  0
   -1.0938   -0.9856    0.0000 C   0  0  0  0  0  0  0  0  0  0  0  0
   -1.5939   -1.8523    0.0000 N   0  0  0  0  0  0  0  0  0  0  0  0
   -1.7606   -0.2439    0.0000 C   0  0  0  0  0  0  0  0  0  0  0  0
   -3.5399   -0.1479    0.0000 C   0  0  0  0  0  0  0  0  0  0  0  0
   -0.0936   -0.9856    0.0000 C   0  0  0  0  0  0  0  0  0  0  0  0
    2.9066   -0.9856    0.0000 C   0  0  0  0  0  0  0  0  0  0  0  0
   -3.5399    0.8523    0.0000 N   0  0  0  0  0  0  0  0  0  0  0  0
   -0.0936   -2.7191    0.0000 C   0  0  0  0  0  0  0  0  0  0  0  0
   -1.0938   -2.7191    0.0000 C   0  0  0  0  0  0  0  0  0  0  0  0
    1.4064   -0.8523    0.0000 O   0  0  0  0  0  0  0  0  0  0  0  0
    1.4064   -2.8523    0.0000 O   0  0  0  0  0  0  0  0  0  0  0  0
    2.4064   -0.1188    0.0000 N   0  0  0  0  0  0  0  0  0  0  0  0
   -4.4066   -0.6480    0.0000 O   0  0  0  0  0  0  0  0  0  0  0  0
   -3.5399    2.8523    0.0000 O   0  0  0  0  0  0  0  0  0  0  0  0
    3.9066   -0.9856    0.0000 C   0  0  0  0  0  0  0  0  0  0  0  0
    2.9066   -2.7191    0.0000 C   0  0  0  0  0  0  0  0  0  0  0  0
   -4.4066    1.3521    0.0000 C   0  0  0  0  0  0  0  0  0  0  0  0
   -2.6773    1.3521    0.0000 C   0  0  0  0  0  0  0  0  0  0  0  0
    3.9066   -2.7191    0.0000 C   0  0  0  0  0  0  0  0  0  0  0  0
    2.9066    0.7479    0.0000 C   0  0  0  0  0  0  0  0  0  0  0  0
   -2.6773    2.3522    0.0000 C   0  0  0  0  0  0  0  0  0  0  0  0
   -4.4066    2.3522    0.0000 C   0  0  0  0  0  0  0  0  0  0  0  0
    4.4066   -1.8523    0.0000 C   0  0  0  0  0  0  0  0  0  0  0  0
    4.4066   -0.1188    0.0000 C   0  0  0  0  0  0  0  0  0  0  0  0
    3.9066    0.7479    0.0000 C   0  0  0  0  0  0  0  0  0  0  0  0
  2  8  1  0  0  0  0
  2  4  2  0  0  0  0
  1  3  1  0  0  0  0
  4  7  1  0  0  0  0
  1  5  1  0  0  0  0
  6 10  1  0  0  0  0
  6  7  1  0  0  0  0
  7 14  1  0  0  0  0
  6  8  2  0  0  0  0
  2  9  1  0  0  0  0
  3 10  1  0  0  0  0
  5 11  2  0  0  0  0
  9 12  1  0  0  0  0
  3 13  1  0  0  0  0
 13 14  1  0  0  0  0
  1 15  2  0  0  0  0
  1 16  2  0  0  0  0
 11 17  1  0  0  0  0
  9 18  2  0  0  0  0
 19 26  1  0  0  0  0
 19 27  1  0  0  0  0
 11 20  1  0  0  0  0
  5 21  1  0  0  0  0
 12 22  1  0  0  0  0
 12 23  1  0  0  0  0
 21 24  2  0  0  0  0
 17 25  2  0  0  0  0
 23 26  1  0  0  0  0
 22 27  1  0  0  0  0
 24 28  1  0  0  0  0
 20 28  2  0  0  0  0
 20 29  1  0  0  0  0
 29 30  2  0  0  0  0
 25 30  1  0  0  0  0
M  END
> <IDNUMBER>
SB71-0263

> <available>
19

> <H_acceptor>
10

> <H_donor>
0

> <B_rotN>
4

> <N_O>
9

> <logP>
0.3319

> <logD>
0.3319

> <logSw>
-2.2693

> <PSA>
79.51

> <pKa_ma>
26.1583

> <pKa_mb>
-1.0439

> <N_Chirals>
0

> <Name>
(morpholin-4-yl)[5-(quinoline-8-sulfonyl)-4,5,6,7-tetrahydropyrazolo[1,5-a]pyrazin-2-yl]methanone

> <Smile>
O=C(c1nn(CCN(C2)S(c3cccc4cccnc34)(=O)=O)c2c1)N1CCOCC1

> <Color>
NOT COLORED

> <Collection>
IC

> <InChI>
InChI=1S/C20H21N5O4S/c26-20(23-9-11-29-12-10-23)17-13-16-14-24(7-8-25(16)22-17)30(27,28)18-5-1-3-15-4-2-6-21-19(15)18/h1-6,13H,7-12,14H2

> <InChI Key>
QKQJSOLJOISTNR-UHFFFAOYSA-N

> <PERCENTSP3>
35

> <Link>
https://www.chemdiv.com/catalog/screening-compounds/compound-SB71-0263/

> <MFCDNUMBER>
MFCD32249231

> <CLNUMBER>
CM5543

> <STEREO>
ACHIRAL

> <State>
Solid

> <Similarity score>
0.25

$$$$
(pyrrolidin-1-yl)[5-(quinoline-8-sulfonyl)-4,5,6,7-tetrahydropyrazolo[1,5-a]pyra
  -OEChem-04222410502D

 29 33  0     0  0  0  0  0  0999 V2000
    1.4066   -1.6191    0.0000 S   0  0  0  0  0  0  0  0  0  0  0  0
   -2.6777   -0.4188    0.0000 C   0  0  0  0  0  0  0  0  0  0  0  0
    0.4064   -1.6191    0.0000 N   0  0  0  0  0  0  0  0  0  0  0  0
   -2.5694   -1.4147    0.0000 N   0  0  0  0  0  0  0  0  0  0  0  0
    2.4068   -1.6191    0.0000 C   0  0  0  0  0  0  0  0  0  0  0  0
   -1.0938   -0.7564    0.0000 C   0  0  0  0  0  0  0  0  0  0  0  0
   -1.5941   -1.6191    0.0000 N   0  0  0  0  0  0  0  0  0  0  0  0
   -1.7608   -0.0103    0.0000 C   0  0  0  0  0  0  0  0  0  0  0  0
   -3.5404    0.0814    0.0000 C   0  0  0  0  0  0  0  0  0  0  0  0
   -0.0937   -0.7564    0.0000 C   0  0  0  0  0  0  0  0  0  0  0  0
    2.9070   -0.7564    0.0000 C   0  0  0  0  0  0  0  0  0  0  0  0
   -3.5404    1.0816    0.0000 N   0  0  0  0  0  0  0  0  0  0  0  0
   -0.0937   -2.4858    0.0000 C   0  0  0  0  0  0  0  0  0  0  0  0
   -1.0938   -2.4858    0.0000 C   0  0  0  0  0  0  0  0  0  0  0  0
    1.4066   -0.6189    0.0000 O   0  0  0  0  0  0  0  0  0  0  0  0
    1.4066   -2.6194    0.0000 O   0  0  0  0  0  0  0  0  0  0  0  0
    2.4068    0.1106    0.0000 N   0  0  0  0  0  0  0  0  0  0  0  0
   -4.4073   -0.4188    0.0000 O   0  0  0  0  0  0  0  0  0  0  0  0
    3.9073   -0.7564    0.0000 C   0  0  0  0  0  0  0  0  0  0  0  0
    2.9070   -2.4858    0.0000 C   0  0  0  0  0  0  0  0  0  0  0  0
   -2.7318    1.6692    0.0000 C   0  0  0  0  0  0  0  0  0  0  0  0
   -4.3531    1.6692    0.0000 C   0  0  0  0  0  0  0  0  0  0  0  0
    3.9073   -2.4858    0.0000 C   0  0  0  0  0  0  0  0  0  0  0  0
    2.9070    0.9774    0.0000 C   0  0  0  0  0  0  0  0  0  0  0  0
    4.4073   -1.6191    0.0000 C   0  0  0  0  0  0  0  0  0  0  0  0
    4.4073    0.1106    0.0000 C   0  0  0  0  0  0  0  0  0  0  0  0
   -4.0406    2.6194    0.0000 C   0  0  0  0  0  0  0  0  0  0  0  0
   -3.0403    2.6194    0.0000 C   0  0  0  0  0  0  0  0  0  0  0  0
    3.9073    0.9774    0.0000 C   0  0  0  0  0  0  0  0  0  0  0  0
  2  8  1  0  0  0  0
  2  4  2  0  0  0  0
  1  3  1  0  0  0  0
  4  7  1  0  0  0  0
  1  5  1  0  0  0  0
  6 10  1  0  0  0  0
  6  7  1  0  0  0  0
  7 14  1  0  0  0  0
  6  8  2  0  0  0  0
  2  9  1  0  0  0  0
  3 10  1  0  0  0  0
  5 11  2  0  0  0  0
  9 12  1  0  0  0  0
  3 13  1  0  0  0  0
 13 14  1  0  0  0  0
  1 15  2  0  0  0  0
  1 16  2  0  0  0  0
 11 17  1  0  0  0  0
  9 18  2  0  0  0  0
 11 19  1  0  0  0  0
  5 20  1  0  0  0  0
 12 21  1  0  0  0  0
 12 22  1  0  0  0  0
 20 23  2  0  0  0  0
 17 24  2  0  0  0  0
 23 25  1  0  0  0  0
 19 25  2  0  0  0  0
 19 26  1  0  0  0  0
 22 27  1  0  0  0  0
 27 28  1  0  0  0  0
 21 28  1  0  0  0  0
 26 29  2  0  0  0  0
 24 29  1  0  0  0  0
M  END
> <IDNUMBER>
SB71-0913

> <available>
145

> <H_acceptor>
9

> <H_donor>
0

> <B_rotN>
4

> <N_O>
8

> <logP>
1.2033

> <logD>
1.2033

> <logSw>
-2.4407

> <PSA>
71.968

> <pKa_ma>
26.1583

> <pKa_mb>
-1.0439

> <N_Chirals>
0

> <Name>
(pyrrolidin-1-yl)[5-(quinoline-8-sulfonyl)-4,5,6,7-tetrahydropyrazolo[1,5-a]pyrazin-2-yl]methanone

> <Smile>
O=C(c1nn(CCN(C2)S(c3cccc4cccnc34)(=O)=O)c2c1)N1CCCC1

> <Color>
ORANGE

> <Collection>
IC

> <InChI>
InChI=1S/C20H21N5O3S/c26-20(23-9-1-2-10-23)17-13-16-14-24(11-12-25(16)22-17)29(27,28)18-7-3-5-15-6-4-8-21-19(15)18/h3-8,13H,1-2,9-12,14H2

> <InChI Key>
DRGFJHIAFUPHIU-UHFFFAOYSA-N

> <PERCENTSP3>
35

> <Link>
https://www.chemdiv.com/catalog/screening-compounds/compound-SB71-0913/

> <MFCDNUMBER>
MFCD32249406

> <CLNUMBER>
CM5543

> <STEREO>
ACHIRAL

> <State>
Solid

> <Similarity score>
0.25

$$$$
N-benzyl-5-(3,4-difluorobenzene-1-sulfonyl)-4,5,6,7-tetrahydropyrazolo[1,5-a]pyr
  -OEChem-04222410502D

 30 33  0     0  0  0  0  0  0999 V2000
   -2.5865   -1.2299    0.0000 S   0  0  0  0  0  0  0  0  0  0  0  0
    1.5496   -0.2305    0.0000 C   0  0  0  0  0  0  0  0  0  0  0  0
   -1.7185   -0.7225    0.0000 N   0  0  0  0  0  0  0  0  0  0  0  0
    0.9696    0.5842    0.0000 N   0  0  0  0  0  0  0  0  0  0  0  0
    0.0110   -0.7225    0.0000 C   0  0  0  0  0  0  0  0  0  0  0  0
    0.0110    0.2679    0.0000 N   0  0  0  0  0  0  0  0  0  0  0  0
    0.9696   -1.0387    0.0000 C   0  0  0  0  0  0  0  0  0  0  0  0
   -3.4484   -1.7280    0.0000 C   0  0  0  0  0  0  0  0  0  0  0  0
   -0.8570   -1.2299    0.0000 C   0  0  0  0  0  0  0  0  0  0  0  0
    2.5551   -0.2305    0.0000 C   0  0  0  0  0  0  0  0  0  0  0  0
   -4.3163   -1.2299    0.0000 C   0  0  0  0  0  0  0  0  0  0  0  0
   -1.7185    0.2679    0.0000 C   0  0  0  0  0  0  0  0  0  0  0  0
   -0.8570    0.7754    0.0000 C   0  0  0  0  0  0  0  0  0  0  0  0
   -3.0848   -0.3620    0.0000 O   0  0  0  0  0  0  0  0  0  0  0  0
   -2.0790   -2.0915    0.0000 O   0  0  0  0  0  0  0  0  0  0  0  0
   -5.1778   -1.7280    0.0000 C   0  0  0  0  0  0  0  0  0  0  0  0
    3.0471    0.6314    0.0000 N   0  0  0  0  0  0  0  0  0  0  0  0
   -5.1778   -2.7338    0.0000 C   0  0  0  0  0  0  0  0  0  0  0  0
   -3.4484   -2.7338    0.0000 C   0  0  0  0  0  0  0  0  0  0  0  0
    3.0471   -1.0984    0.0000 O   0  0  0  0  0  0  0  0  0  0  0  0
   -4.3163   -3.2288    0.0000 C   0  0  0  0  0  0  0  0  0  0  0  0
   -6.0458   -1.2299    0.0000 F   0  0  0  0  0  0  0  0  0  0  0  0
    4.0529    0.6314    0.0000 C   0  0  0  0  0  0  0  0  0  0  0  0
   -6.0458   -3.2288    0.0000 F   0  0  0  0  0  0  0  0  0  0  0  0
    4.5513    1.4993    0.0000 C   0  0  0  0  0  0  0  0  0  0  0  0
    5.5538    1.4993    0.0000 C   0  0  0  0  0  0  0  0  0  0  0  0
    4.0529    2.3703    0.0000 C   0  0  0  0  0  0  0  0  0  0  0  0
    4.5513    3.2288    0.0000 C   0  0  0  0  0  0  0  0  0  0  0  0
    6.0458    2.3703    0.0000 C   0  0  0  0  0  0  0  0  0  0  0  0
    5.5538    3.2288    0.0000 C   0  0  0  0  0  0  0  0  0  0  0  0
  2  7  1  0  0  0  0
  2  4  2  0  0  0  0
  1  3  1  0  0  0  0
  4  6  1  0  0  0  0
  5  9  1  0  0  0  0
  5  6  1  0  0  0  0
  6 13  1  0  0  0  0
  5  7  2  0  0  0  0
  1  8  1  0  0  0  0
  3  9  1  0  0  0  0
  2 10  1  0  0  0  0
  8 11  2  0  0  0  0
  3 12  1  0  0  0  0
 12 13  1  0  0  0  0
  1 14  2  0  0  0  0
  1 15  2  0  0  0  0
 11 16  1  0  0  0  0
 16 18  2  0  0  0  0
 10 17  1  0  0  0  0
 18 21  1  0  0  0  0
  8 19  1  0  0  0  0
 10 20  2  0  0  0  0
 19 21  2  0  0  0  0
 16 22  1  0  0  0  0
 17 23  1  0  0  0  0
 18 24  1  0  0  0  0
 23 25  1  0  0  0  0
 25 26  1  0  0  0  0
 25 27  2  0  0  0  0
 27 28  1  0  0  0  0
 26 29  2  0  0  0  0
 29 30  1  0  0  0  0
 28 30  2  0  0  0  0
M  END
> <IDNUMBER>
SB71-1040

> <available>
132

> <H_acceptor>
8

> <H_donor>
1

> <B_rotN>
6

> <N_O>
7

> <logP>
2.613

> <logD>
2.613

> <logSw>
-3.0789

> <PSA>
69.834

> <pKa_ma>
12.5385

> <pKa_mb>
-4.4549

> <N_Chirals>
0

> <Name>
N-benzyl-5-(3,4-difluorobenzene-1-sulfonyl)-4,5,6,7-tetrahydropyrazolo[1,5-a]pyrazine-2-carboxamide

> <Smile>
O=C(c1nn(CCN(C2)S(c(cc3)cc(F)c3F)(=O)=O)c2c1)NCc1ccccc1

> <Color>
NOT COLORED

> <Collection>
IC

> <InChI>
InChI=1S/C20H18F2N4O3S/c21-17-7-6-16(11-18(17)22)30(28,29)25-8-9-26-15(13-25)10-19(24-26)20(27)23-12-14-4-2-1-3-5-14/h1-7,10-11H,8-9,12-13H2,(H,23,27)

> <InChI Key>
GDNAKFDDMGJKCC-UHFFFAOYSA-N

> <PERCENTSP3>
20

> <Link>
https://www.chemdiv.com/catalog/screening-compounds/compound-SB71-1040/

> <MFCDNUMBER>
MFCD32249555

> <CLNUMBER>
CM5543

> <STEREO>
ACHIRAL

> <State>
Solid

> <Similarity score>
0.25

$$$$
5-[(2-fluoro-4-methoxyphenyl)methyl]-2-phenyl-5,6,7,8-tetrahydro-4H-pyrazolo[1,5
  -OEChem-04222410502D

 26 29  0     0  0  0  0  0  0999 V2000
    0.0041   -1.0341    0.0000 C   0  0  0  0  0  0  0  0  0  0  0  0
    1.4801   -1.6970    0.0000 N   0  0  0  0  0  0  0  0  0  0  0  0
    0.5045   -1.8971    0.0000 N   0  0  0  0  0  0  0  0  0  0  0  0
    0.6712   -0.2918    0.0000 C   0  0  0  0  0  0  0  0  0  0  0  0
    1.5843   -0.6963    0.0000 C   0  0  0  0  0  0  0  0  0  0  0  0
   -1.7219   -1.5594    0.0000 N   0  0  0  0  0  0  0  0  0  0  0  0
   -2.7976   -0.2086    0.0000 C   0  0  0  0  0  0  0  0  0  0  0  0
   -0.9840   -0.8839    0.0000 C   0  0  0  0  0  0  0  0  0  0  0  0
   -2.0221    0.4169    0.0000 C   0  0  0  0  0  0  0  0  0  0  0  0
   -2.6475   -1.1966    0.0000 C   0  0  0  0  0  0  0  0  0  0  0  0
   -2.1680    1.3966    0.0000 C   0  0  0  0  0  0  0  0  0  0  0  0
    2.4473   -0.1959    0.0000 C   0  0  0  0  0  0  0  0  0  0  0  0
   -3.7357    0.1542    0.0000 C   0  0  0  0  0  0  0  0  0  0  0  0
   -3.1061    1.7677    0.0000 C   0  0  0  0  0  0  0  0  0  0  0  0
    0.1334   -2.8309    0.0000 C   0  0  0  0  0  0  0  0  0  0  0  0
   -1.0841    0.0457    0.0000 F   0  0  0  0  0  0  0  0  0  0  0  0
   -0.8173   -3.1228    0.0000 C   0  0  0  0  0  0  0  0  0  0  0  0
   -1.6469   -2.5599    0.0000 C   0  0  0  0  0  0  0  0  0  0  0  0
   -3.8815    1.1464    0.0000 C   0  0  0  0  0  0  0  0  0  0  0  0
   -3.2561    2.7557    0.0000 O   0  0  0  0  0  0  0  0  0  0  0  0
    2.4473    0.8046    0.0000 C   0  0  0  0  0  0  0  0  0  0  0  0
    3.3103   -0.6963    0.0000 C   0  0  0  0  0  0  0  0  0  0  0  0
   -4.1817    3.1228    0.0000 C   0  0  0  0  0  0  0  0  0  0  0  0
    4.1817   -0.1959    0.0000 C   0  0  0  0  0  0  0  0  0  0  0  0
    3.3103    1.3050    0.0000 C   0  0  0  0  0  0  0  0  0  0  0  0
    4.1817    0.8046    0.0000 C   0  0  0  0  0  0  0  0  0  0  0  0
  2  3  1  0  0  0  0
  1  3  1  0  0  0  0
  1  4  2  0  0  0  0
  4  5  1  0  0  0  0
  2  5  2  0  0  0  0
  6  8  1  0  0  0  0
  7 10  1  0  0  0  0
  1  8  1  0  0  0  0
  7  9  2  0  0  0  0
  6 10  1  0  0  0  0
  9 11  1  0  0  0  0
  5 12  1  0  0  0  0
  7 13  1  0  0  0  0
 14 19  1  0  0  0  0
 11 14  2  0  0  0  0
  3 15  1  0  0  0  0
  9 16  1  0  0  0  0
 15 17  1  0  0  0  0
  6 18  1  0  0  0  0
 17 18  1  0  0  0  0
 13 19  2  0  0  0  0
 14 20  1  0  0  0  0
 12 21  1  0  0  0  0
 12 22  2  0  0  0  0
 20 23  1  0  0  0  0
 22 24  1  0  0  0  0
 21 25  2  0  0  0  0
 24 26  2  0  0  0  0
 25 26  1  0  0  0  0
M  END
> <IDNUMBER>
T202-1813

> <available>
1

> <H_acceptor>
3

> <H_donor>
0

> <B_rotN>
4

> <N_O>
4

> <logP>
4.08

> <logD>
4.056

> <logSw>
-4.186

> <PSA>
25.05

> <pKa_ma>
26.76

> <pKa_mb>
6.138

> <N_Chirals>
0

> <Name>
5-[(2-fluoro-4-methoxyphenyl)methyl]-2-phenyl-5,6,7,8-tetrahydro-4H-pyrazolo[1,5-a][1,4]diazepine

> <Smile>
COc1cc(F)c(CN2Cc3cc(-c4ccccc4)nn3CCC2)cc1

> <Color>
YELLOW

> <Collection>
NC

> <InChI>
InChI=1S/C21H22FN3O/c1-26-19-9-8-17(20(22)13-19)14-24-10-5-11-25-18(15-24)12-21(23-25)16-6-3-2-4-7-16/h2-4,6-9,12-13H,5,10-11,14-15H2,1H3

> <InChI Key>
WHBMHOGYBWTNGW-UHFFFAOYSA-N

> <PERCENTSP3>
28.5714

> <Link>
https://www.chemdiv.com/catalog/screening-compounds/compound-T202-1813/

> <MFCDNUMBER>
MFCD27618765

> <CLNUMBER>
CM0222

> <STEREO>
ACHIRAL

> <State>
Oil

> <Similarity score>
0.25

$$$$
N-(2-fluoro-4-methylphenyl)-4,5,6,7-tetrahydropyrazolo[1,5-a]pyridine-2-carboxam
  -OEChem-04222410502D

 20 22  0     0  0  0  0  0  0999 V2000
   -1.1144   -0.7978    0.0000 C   0  0  0  0  0  0  0  0  0  0  0  0
   -1.7057    0.0060    0.0000 N   0  0  0  0  0  0  0  0  0  0  0  0
   -2.6640   -0.2977    0.0000 N   0  0  0  0  0  0  0  0  0  0  0  0
   -1.7057   -1.6060    0.0000 C   0  0  0  0  0  0  0  0  0  0  0  0
   -0.1145   -0.7978    0.0000 C   0  0  0  0  0  0  0  0  0  0  0  0
   -2.6640   -1.2977    0.0000 C   0  0  0  0  0  0  0  0  0  0  0  0
    0.3813    0.0728    0.0000 N   0  0  0  0  0  0  0  0  0  0  0  0
    1.3852    0.0728    0.0000 C   0  0  0  0  0  0  0  0  0  0  0  0
    1.8851    0.9309    0.0000 C   0  0  0  0  0  0  0  0  0  0  0  0
    0.3813   -1.6643    0.0000 O   0  0  0  0  0  0  0  0  0  0  0  0
    2.8807    0.9309    0.0000 C   0  0  0  0  0  0  0  0  0  0  0  0
    1.8851   -0.7978    0.0000 C   0  0  0  0  0  0  0  0  0  0  0  0
    1.3852    1.7976    0.0000 F   0  0  0  0  0  0  0  0  0  0  0  0
    3.3847    0.0728    0.0000 C   0  0  0  0  0  0  0  0  0  0  0  0
   -3.5179    0.2063    0.0000 C   0  0  0  0  0  0  0  0  0  0  0  0
    2.8807   -0.7978    0.0000 C   0  0  0  0  0  0  0  0  0  0  0  0
   -3.5179   -1.7976    0.0000 C   0  0  0  0  0  0  0  0  0  0  0  0
    4.3886    0.0728    0.0000 C   0  0  0  0  0  0  0  0  0  0  0  0
   -4.3886   -0.2977    0.0000 C   0  0  0  0  0  0  0  0  0  0  0  0
   -4.3886   -1.2977    0.0000 C   0  0  0  0  0  0  0  0  0  0  0  0
  1  2  2  0  0  0  0
  2  3  1  0  0  0  0
  3  6  1  0  0  0  0
  1  4  1  0  0  0  0
  1  5  1  0  0  0  0
  4  6  2  0  0  0  0
  5  7  1  0  0  0  0
  7  8  1  0  0  0  0
  8  9  2  0  0  0  0
  5 10  2  0  0  0  0
  9 11  1  0  0  0  0
  8 12  1  0  0  0  0
  9 13  1  0  0  0  0
 14 16  1  0  0  0  0
 11 14  2  0  0  0  0
  3 15  1  0  0  0  0
 12 16  2  0  0  0  0
  6 17  1  0  0  0  0
 14 18  1  0  0  0  0
 15 19  1  0  0  0  0
 19 20  1  0  0  0  0
 17 20  1  0  0  0  0
M  END
> <IDNUMBER>
P078-0343

> <available>
1

> <H_acceptor>
3

> <H_donor>
1

> <B_rotN>
3

> <N_O>
4

> <logP>
2.8688

> <logD>
2.8681

> <logSw>
-3.2163

> <PSA>
36.361

> <pKa_ma>
10.1958

> <pKa_mb>
-0.2253

> <N_Chirals>
0

> <Name>
N-(2-fluoro-4-methylphenyl)-4,5,6,7-tetrahydropyrazolo[1,5-a]pyridine-2-carboxamide

> <Smile>
Cc(cc1)cc(F)c1NC(c1nn(CCCC2)c2c1)=O

> <Color>
ORANGE

> <Collection>
NC

> <InChI>
InChI=1S/C15H16FN3O/c1-10-5-6-13(12(16)8-10)17-15(20)14-9-11-4-2-3-7-19(11)18-14/h5-6,8-9H,2-4,7H2,1H3,(H,17,20)

> <InChI Key>
LHVCCVRXXSKIFO-UHFFFAOYSA-N

> <PERCENTSP3>
33.3

> <Link>
https://www.chemdiv.com/catalog/screening-compounds/compound-P078-0343/

> <MFCDNUMBER>
MFCD27563265

> <CLNUMBER>
CM0145

> <STEREO>
ACHIRAL

> <State>
Solid

> <Similarity score>
0.25

$$$$
5-(2,3-dihydro-1H-indene-5-sulfonyl)-N-(2-methylpropyl)-4,5,6,7-tetrahydropyrazo
  -OEChem-04222410502D

 28 31  0     0  0  0  0  0  0999 V2000
    1.2977   -1.8519    0.0000 S   0  0  0  0  0  0  0  0  0  0  0  0
   -2.7850   -0.6478    0.0000 C   0  0  0  0  0  0  0  0  0  0  0  0
    0.2978   -1.8519    0.0000 N   0  0  0  0  0  0  0  0  0  0  0  0
   -2.6808   -1.6435    0.0000 N   0  0  0  0  0  0  0  0  0  0  0  0
   -1.2018   -0.9853    0.0000 C   0  0  0  0  0  0  0  0  0  0  0  0
   -1.7019   -1.8519    0.0000 N   0  0  0  0  0  0  0  0  0  0  0  0
   -1.8685   -0.2438    0.0000 C   0  0  0  0  0  0  0  0  0  0  0  0
   -0.2023   -0.9853    0.0000 C   0  0  0  0  0  0  0  0  0  0  0  0
    2.2974   -1.8519    0.0000 C   0  0  0  0  0  0  0  0  0  0  0  0
   -3.6474   -0.1480    0.0000 C   0  0  0  0  0  0  0  0  0  0  0  0
   -0.2023   -2.7183    0.0000 C   0  0  0  0  0  0  0  0  0  0  0  0
   -1.2018   -2.7183    0.0000 C   0  0  0  0  0  0  0  0  0  0  0  0
    2.7973   -0.9853    0.0000 C   0  0  0  0  0  0  0  0  0  0  0  0
    1.2977   -0.8520    0.0000 O   0  0  0  0  0  0  0  0  0  0  0  0
    1.2977   -2.8516    0.0000 O   0  0  0  0  0  0  0  0  0  0  0  0
   -3.6474    0.8520    0.0000 N   0  0  0  0  0  0  0  0  0  0  0  0
    3.7972   -0.9853    0.0000 C   0  0  0  0  0  0  0  0  0  0  0  0
    4.2973   -1.8519    0.0000 C   0  0  0  0  0  0  0  0  0  0  0  0
    2.7973   -2.7183    0.0000 C   0  0  0  0  0  0  0  0  0  0  0  0
   -4.5140   -0.6478    0.0000 O   0  0  0  0  0  0  0  0  0  0  0  0
    3.7972   -2.7183    0.0000 C   0  0  0  0  0  0  0  0  0  0  0  0
   -4.5140    1.3520    0.0000 C   0  0  0  0  0  0  0  0  0  0  0  0
    4.4679   -0.2438    0.0000 C   0  0  0  0  0  0  0  0  0  0  0  0
    5.3804   -0.6478    0.0000 C   0  0  0  0  0  0  0  0  0  0  0  0
    5.2761   -1.6435    0.0000 C   0  0  0  0  0  0  0  0  0  0  0  0
   -4.5140    2.3517    0.0000 C   0  0  0  0  0  0  0  0  0  0  0  0
   -3.6474    2.8516    0.0000 C   0  0  0  0  0  0  0  0  0  0  0  0
   -5.3804    2.8516    0.0000 C   0  0  0  0  0  0  0  0  0  0  0  0
  2  7  1  0  0  0  0
  2  4  2  0  0  0  0
  1  3  1  0  0  0  0
  4  6  1  0  0  0  0
  5  8  1  0  0  0  0
  5  6  1  0  0  0  0
  6 12  1  0  0  0  0
  5  7  2  0  0  0  0
  3  8  1  0  0  0  0
  1  9  1  0  0  0  0
  2 10  1  0  0  0  0
  3 11  1  0  0  0  0
 11 12  1  0  0  0  0
  9 13  2  0  0  0  0
  1 14  2  0  0  0  0
  1 15  2  0  0  0  0
 10 16  1  0  0  0  0
 13 17  1  0  0  0  0
 18 21  1  0  0  0  0
 17 18  2  0  0  0  0
  9 19  1  0  0  0  0
 10 20  2  0  0  0  0
 19 21  2  0  0  0  0
 16 22  1  0  0  0  0
 17 23  1  0  0  0  0
 23 24  1  0  0  0  0
 24 25  1  0  0  0  0
 18 25  1  0  0  0  0
 22 26  1  0  0  0  0
 26 27  1  0  0  0  0
 26 28  1  0  0  0  0
M  END
> <IDNUMBER>
SB71-0866

> <available>
18

> <H_acceptor>
8

> <H_donor>
1

> <B_rotN>
6

> <N_O>
7

> <logP>
2.7749

> <logD>
2.7749

> <logSw>
-3.4564

> <PSA>
70.392

> <pKa_ma>
15.4496

> <pKa_mb>
-2.2329

> <N_Chirals>
0

> <Name>
5-(2,3-dihydro-1H-indene-5-sulfonyl)-N-(2-methylpropyl)-4,5,6,7-tetrahydropyrazolo[1,5-a]pyrazine-2-carboxamide

> <Smile>
CC(C)CNC(c1nn(CCN(C2)S(c3cc(CCC4)c4cc3)(=O)=O)c2c1)=O

> <Color>
NOT COLORED

> <Collection>
IC

> <InChI>
InChI=1S/C20H26N4O3S/c1-14(2)12-21-20(25)19-11-17-13-23(8-9-24(17)22-19)28(26,27)18-7-6-15-4-3-5-16(15)10-18/h6-7,10-11,14H,3-5,8-9,12-13H2,1-2H3,(H,21,25)

> <InChI Key>
QAKFNSQHAKGGFY-UHFFFAOYSA-N

> <PERCENTSP3>
50

> <Link>
https://www.chemdiv.com/catalog/screening-compounds/compound-SB71-0866/

> <MFCDNUMBER>
MFCD32249338

> <CLNUMBER>
CM5543

> <STEREO>
ACHIRAL

> <State>
Solid

> <Similarity score>
0.25

$$$$
[5-(cyclopropanesulfonyl)-4,5,6,7-tetrahydropyrazolo[1,5-a]pyrazin-2-yl](morphol
  -OEChem-04222410502D

 23 26  0     0  0  0  0  0  0999 V2000
   -1.9730   -1.8521    0.0000 S   0  0  0  0  0  0  0  0  0  0  0  0
    2.1061   -0.6479    0.0000 C   0  0  0  0  0  0  0  0  0  0  0  0
    2.0020   -1.6438    0.0000 N   0  0  0  0  0  0  0  0  0  0  0  0
   -0.9729   -1.8521    0.0000 N   0  0  0  0  0  0  0  0  0  0  0  0
    0.5271   -0.9855    0.0000 C   0  0  0  0  0  0  0  0  0  0  0  0
    1.0271   -1.8521    0.0000 N   0  0  0  0  0  0  0  0  0  0  0  0
    1.1938   -0.2438    0.0000 C   0  0  0  0  0  0  0  0  0  0  0  0
    2.9729   -0.1478    0.0000 C   0  0  0  0  0  0  0  0  0  0  0  0
   -0.4729   -0.9855    0.0000 C   0  0  0  0  0  0  0  0  0  0  0  0
   -2.9729   -1.8521    0.0000 C   0  0  0  0  0  0  0  0  0  0  0  0
    2.9729    0.8522    0.0000 N   0  0  0  0  0  0  0  0  0  0  0  0
   -0.4729   -2.7188    0.0000 C   0  0  0  0  0  0  0  0  0  0  0  0
    0.5271   -2.7188    0.0000 C   0  0  0  0  0  0  0  0  0  0  0  0
   -3.8396   -2.3521    0.0000 C   0  0  0  0  0  0  0  0  0  0  0  0
   -3.8396   -1.3521    0.0000 C   0  0  0  0  0  0  0  0  0  0  0  0
   -1.9730   -0.8522    0.0000 O   0  0  0  0  0  0  0  0  0  0  0  0
   -1.9730   -2.8520    0.0000 O   0  0  0  0  0  0  0  0  0  0  0  0
    3.8396   -0.6479    0.0000 O   0  0  0  0  0  0  0  0  0  0  0  0
    2.9729    2.8520    0.0000 O   0  0  0  0  0  0  0  0  0  0  0  0
    3.8396    1.3521    0.0000 C   0  0  0  0  0  0  0  0  0  0  0  0
    2.1061    1.3521    0.0000 C   0  0  0  0  0  0  0  0  0  0  0  0
    2.1061    2.3521    0.0000 C   0  0  0  0  0  0  0  0  0  0  0  0
    3.8396    2.3521    0.0000 C   0  0  0  0  0  0  0  0  0  0  0  0
  2  7  1  0  0  0  0
  2  3  2  0  0  0  0
  3  6  1  0  0  0  0
  1  4  1  0  0  0  0
  5  9  1  0  0  0  0
  5  6  1  0  0  0  0
  6 13  1  0  0  0  0
  5  7  2  0  0  0  0
  2  8  1  0  0  0  0
  4  9  1  0  0  0  0
  1 10  1  0  0  0  0
  8 11  1  0  0  0  0
  4 12  1  0  0  0  0
 12 13  1  0  0  0  0
 10 14  1  0  0  0  0
 10 15  1  0  0  0  0
 14 15  1  0  0  0  0
  1 16  2  0  0  0  0
  1 17  2  0  0  0  0
  8 18  2  0  0  0  0
 19 22  1  0  0  0  0
 19 23  1  0  0  0  0
 11 20  1  0  0  0  0
 11 21  1  0  0  0  0
 21 22  1  0  0  0  0
 20 23  1  0  0  0  0
M  END
> <IDNUMBER>
SB71-0264

> <available>
17

> <H_acceptor>
9

> <H_donor>
0

> <B_rotN>
4

> <N_O>
8

> <logP>
-0.4681

> <logD>
-0.4681

> <logSw>
-1.3913

> <PSA>
70.5

> <pKa_ma>
19.4577

> <pKa_mb>
-4.2166

> <N_Chirals>
0

> <Name>
[5-(cyclopropanesulfonyl)-4,5,6,7-tetrahydropyrazolo[1,5-a]pyrazin-2-yl](morpholin-4-yl)methanone

> <Smile>
O=C(c1nn(CCN(C2)S(C3CC3)(=O)=O)c2c1)N1CCOCC1

> <Color>
NOT COLORED

> <Collection>
IC

> <InChI>
InChI=1S/C14H20N4O4S/c19-14(16-5-7-22-8-6-16)13-9-11-10-17(3-4-18(11)15-13)23(20,21)12-1-2-12/h9,12H,1-8,10H2

> <InChI Key>
CGJWZOFVMIZYTJ-UHFFFAOYSA-N

> <PERCENTSP3>
71.43

> <Link>
https://www.chemdiv.com/catalog/screening-compounds/compound-SB71-0264/

> <MFCDNUMBER>
MFCD32249232

> <CLNUMBER>
CM5543

> <STEREO>
ACHIRAL

> <State>
Solid

> <Similarity score>
0.25

$$$$
5-(2-fluorobenzamido)-2-{methyl[(3-methyl-1-propyl-1H-pyrazol-5-yl)methyl]amino}
  -OEChem-04222410502D

 31 33  0     0  0  0  0  0  0999 V2000
   -2.6332   -0.9317    0.0000 C   0  0  0  0  0  0  0  0  0  0  0  0
   -0.0300    0.5939    0.0000 C   0  0  0  0  0  0  0  0  0  0  0  0
   -2.6284   -1.9285    0.0000 N   0  0  0  0  0  0  0  0  0  0  0  0
   -3.5699   -2.2407    0.0000 N   0  0  0  0  0  0  0  0  0  0  0  0
    2.5778    2.0895    0.0000 C   0  0  0  0  0  0  0  0  0  0  0  0
   -0.0300   -0.4031    0.0000 C   0  0  0  0  0  0  0  0  0  0  0  0
   -3.5800   -0.6243    0.0000 C   0  0  0  0  0  0  0  0  0  0  0  0
    3.4389    2.5880    0.0000 C   0  0  0  0  0  0  0  0  0  0  0  0
   -0.8963   -0.9166    0.0000 N   0  0  0  0  0  0  0  0  0  0  0  0
   -0.8963    1.0976    0.0000 C   0  0  0  0  0  0  0  0  0  0  0  0
   -1.7724   -0.4181    0.0000 C   0  0  0  0  0  0  0  0  0  0  0  0
   -4.1690   -1.4302    0.0000 C   0  0  0  0  0  0  0  0  0  0  0  0
    2.5680    1.0924    0.0000 N   0  0  0  0  0  0  0  0  0  0  0  0
    0.8308    1.0924    0.0000 C   0  0  0  0  0  0  0  0  0  0  0  0
    0.8308   -0.9011    0.0000 C   0  0  0  0  0  0  0  0  0  0  0  0
    1.7017    0.5939    0.0000 C   0  0  0  0  0  0  0  0  0  0  0  0
    3.4389    3.5900    0.0000 C   0  0  0  0  0  0  0  0  0  0  0  0
    1.7069    2.5880    0.0000 O   0  0  0  0  0  0  0  0  0  0  0  0
   -1.7574    0.5991    0.0000 O   0  0  0  0  0  0  0  0  0  0  0  0
    1.7017   -0.4031    0.0000 C   0  0  0  0  0  0  0  0  0  0  0  0
   -0.8963    2.1045    0.0000 O   0  0  0  0  0  0  0  0  0  0  0  0
    2.5680    4.1036    0.0000 F   0  0  0  0  0  0  0  0  0  0  0  0
   -1.8126   -2.5176    0.0000 C   0  0  0  0  0  0  0  0  0  0  0  0
    4.2997    2.0895    0.0000 C   0  0  0  0  0  0  0  0  0  0  0  0
   -0.8813   -1.9134    0.0000 C   0  0  0  0  0  0  0  0  0  0  0  0
   -5.1660   -1.4400    0.0000 C   0  0  0  0  0  0  0  0  0  0  0  0
    4.2997    4.0882    0.0000 C   0  0  0  0  0  0  0  0  0  0  0  0
   -1.9083   -3.5146    0.0000 C   0  0  0  0  0  0  0  0  0  0  0  0
    5.1660    2.5880    0.0000 C   0  0  0  0  0  0  0  0  0  0  0  0
   -1.1025   -4.1036    0.0000 C   0  0  0  0  0  0  0  0  0  0  0  0
    5.1660    3.5900    0.0000 C   0  0  0  0  0  0  0  0  0  0  0  0
  2  6  2  0  0  0  0
  1  3  1  0  0  0  0
  3  4  1  0  0  0  0
  4 12  2  0  0  0  0
  5 13  1  0  0  0  0
  6  9  1  0  0  0  0
  1  7  2  0  0  0  0
  5  8  1  0  0  0  0
  9 11  1  0  0  0  0
  2 10  1  0  0  0  0
  1 11  1  0  0  0  0
  7 12  1  0  0  0  0
 13 16  1  0  0  0  0
  2 14  1  0  0  0  0
 14 16  2  0  0  0  0
  6 15  1  0  0  0  0
 16 20  1  0  0  0  0
  8 17  1  0  0  0  0
  5 18  2  0  0  0  0
 10 19  2  0  0  0  0
 15 20  2  0  0  0  0
 10 21  1  0  0  0  0
 17 22  1  0  0  0  0
  3 23  1  0  0  0  0
  8 24  2  0  0  0  0
  9 25  1  0  0  0  0
 12 26  1  0  0  0  0
 17 27  2  0  0  0  0
 23 28  1  0  0  0  0
 24 29  1  0  0  0  0
 28 30  1  0  0  0  0
 29 31  2  0  0  0  0
 27 31  1  0  0  0  0
M  END
> <IDNUMBER>
G889-1305

> <available>
31

> <H_acceptor>
6

> <H_donor>
2

> <B_rotN>
9

> <N_O>
7

> <logP>
3.4891

> <logD>
1.5228

> <logSw>
-3.7732

> <PSA>
67.887

> <pKa_ma>
5.4385

> <pKa_mb>
2.6798

> <N_Chirals>
0

> <Name>
5-(2-fluorobenzamido)-2-{methyl[(3-methyl-1-propyl-1H-pyrazol-5-yl)methyl]amino}benzoic acid

> <Smile>
CCCn1nc(C)cc1CN(C)c(ccc(NC(c(cccc1)c1F)=O)c1)c1C(O)=O

> <Color>
NOT COLORED

> <Collection>
NC

> <InChI>
InChI=1S/C23H25FN4O3/c1-4-11-28-17(12-15(2)26-28)14-27(3)21-10-9-16(13-19(21)23(30)31)25-22(29)18-7-5-6-8-20(18)24/h5-10,12-13H,4,11,14H2,1-3H3,(H,25,29)(H,30,31)

> <InChI Key>
NRIACKALIYKVOE-UHFFFAOYSA-N

> <PERCENTSP3>
26.1

> <Link>
https://www.chemdiv.com/catalog/screening-compounds/compound-G889-1305/

> <MFCDNUMBER>
MFCD27166452

> <CLNUMBER>
CL7339

> <Saltdata>
CF3COOH

> <Saltdata_MW>
114.024

> <STEREO>
ACHIRAL

> <State>
Liquid

> <Similarity score>
0.25

$$$$
5-(6-methoxypyridine-3-carbonyl)-N,N-dimethyl-4,5,6,7-tetrahydropyrazolo[1,5-a]p
  -OEChem-04222410502D

 24 26  0     0  0  0  0  0  0999 V2000
    2.6323   -1.1775    0.0000 C   0  0  0  0  0  0  0  0  0  0  0  0
    3.0408   -0.2605    0.0000 N   0  0  0  0  0  0  0  0  0  0  0  0
    1.4318   -0.0937    0.0000 C   0  0  0  0  0  0  0  0  0  0  0  0
    2.2947    0.4064    0.0000 N   0  0  0  0  0  0  0  0  0  0  0  0
    1.6401   -1.0691    0.0000 C   0  0  0  0  0  0  0  0  0  0  0  0
    0.5648    1.4069    0.0000 N   0  0  0  0  0  0  0  0  0  0  0  0
    3.1326   -2.0403    0.0000 C   0  0  0  0  0  0  0  0  0  0  0  0
   -0.3023    1.9071    0.0000 C   0  0  0  0  0  0  0  0  0  0  0  0
    0.5648    0.4064    0.0000 C   0  0  0  0  0  0  0  0  0  0  0  0
   -1.1691    1.4069    0.0000 C   0  0  0  0  0  0  0  0  0  0  0  0
    2.2947    1.4069    0.0000 C   0  0  0  0  0  0  0  0  0  0  0  0
   -2.0363   -0.0937    0.0000 N   0  0  0  0  0  0  0  0  0  0  0  0
    1.4318    1.9071    0.0000 C   0  0  0  0  0  0  0  0  0  0  0  0
    4.1329   -2.0403    0.0000 N   0  0  0  0  0  0  0  0  0  0  0  0
   -1.1691    0.4064    0.0000 C   0  0  0  0  0  0  0  0  0  0  0  0
   -2.9034    0.4064    0.0000 C   0  0  0  0  0  0  0  0  0  0  0  0
   -0.3023    2.9074    0.0000 O   0  0  0  0  0  0  0  0  0  0  0  0
    2.6323   -2.9074    0.0000 O   0  0  0  0  0  0  0  0  0  0  0  0
   -2.0363    1.9071    0.0000 C   0  0  0  0  0  0  0  0  0  0  0  0
   -2.9034    1.4069    0.0000 C   0  0  0  0  0  0  0  0  0  0  0  0
   -3.7661   -0.0937    0.0000 O   0  0  0  0  0  0  0  0  0  0  0  0
    4.6331   -1.1775    0.0000 C   0  0  0  0  0  0  0  0  0  0  0  0
    4.6331   -2.9074    0.0000 C   0  0  0  0  0  0  0  0  0  0  0  0
   -4.6331    0.4064    0.0000 C   0  0  0  0  0  0  0  0  0  0  0  0
  1  2  2  0  0  0  0
  3  5  2  0  0  0  0
  3  4  1  0  0  0  0
  2  4  1  0  0  0  0
  1  5  1  0  0  0  0
  6  9  1  0  0  0  0
  1  7  1  0  0  0  0
  6  8  1  0  0  0  0
  3  9  1  0  0  0  0
  8 10  1  0  0  0  0
  4 11  1  0  0  0  0
 12 15  1  0  0  0  0
 12 16  2  0  0  0  0
 11 13  1  0  0  0  0
  6 13  1  0  0  0  0
  7 14  1  0  0  0  0
 10 15  2  0  0  0  0
 16 20  1  0  0  0  0
  8 17  2  0  0  0  0
  7 18  2  0  0  0  0
 10 19  1  0  0  0  0
 19 20  2  0  0  0  0
 16 21  1  0  0  0  0
 14 22  1  0  0  0  0
 14 23  1  0  0  0  0
 21 24  1  0  0  0  0
M  END
> <IDNUMBER>
SB71-0007

> <available>
31

> <H_acceptor>
7

> <H_donor>
0

> <B_rotN>
5

> <N_O>
8

> <logP>
-0.4906

> <logD>
-0.4906

> <logSw>
-1.5071

> <PSA>
62.94

> <pKa_ma>
25.8532

> <pKa_mb>
0.7412

> <N_Chirals>
0

> <Name>
5-(6-methoxypyridine-3-carbonyl)-N,N-dimethyl-4,5,6,7-tetrahydropyrazolo[1,5-a]pyrazine-2-carboxamide

> <Smile>
CN(C)C(c1nn(CCN(C2)C(c(cc3)cnc3OC)=O)c2c1)=O

> <Color>
NOT COLORED

> <Collection>
IC

> <InChI>
InChI=1S/C16H19N5O3/c1-19(2)16(23)13-8-12-10-20(6-7-21(12)18-13)15(22)11-4-5-14(24-3)17-9-11/h4-5,8-9H,6-7,10H2,1-3H3

> <InChI Key>
YAOMOTINPVSZDM-UHFFFAOYSA-N

> <PERCENTSP3>
37.5

> <Link>
https://www.chemdiv.com/catalog/screening-compounds/compound-SB71-0007/

> <MFCDNUMBER>
MFCD32249622

> <CLNUMBER>
CM5543

> <STEREO>
ACHIRAL

> <State>
Solid

> <Similarity score>
0.25

$$$$
[5-(2-fluorobenzene-1-sulfonyl)-4,5,6,7-tetrahydropyrazolo[1,5-a]pyrazin-2-yl](m
  -OEChem-04222410502D

 27 30  0     0  0  0  0  0  0999 V2000
   -1.4065   -1.4856    0.0000 S   0  0  0  0  0  0  0  0  0  0  0  0
    2.6775   -0.2814    0.0000 C   0  0  0  0  0  0  0  0  0  0  0  0
   -0.4063   -1.4856    0.0000 N   0  0  0  0  0  0  0  0  0  0  0  0
    2.5692   -1.2772    0.0000 N   0  0  0  0  0  0  0  0  0  0  0  0
    1.0940   -0.6189    0.0000 C   0  0  0  0  0  0  0  0  0  0  0  0
    1.5940   -1.4856    0.0000 N   0  0  0  0  0  0  0  0  0  0  0  0
    1.7607    0.1228    0.0000 C   0  0  0  0  0  0  0  0  0  0  0  0
   -2.4066   -1.4856    0.0000 C   0  0  0  0  0  0  0  0  0  0  0  0
    3.5402    0.2188    0.0000 C   0  0  0  0  0  0  0  0  0  0  0  0
    0.0938   -0.6189    0.0000 C   0  0  0  0  0  0  0  0  0  0  0  0
    3.5402    1.2190    0.0000 N   0  0  0  0  0  0  0  0  0  0  0  0
    0.0938   -2.3525    0.0000 C   0  0  0  0  0  0  0  0  0  0  0  0
    1.0940   -2.3525    0.0000 C   0  0  0  0  0  0  0  0  0  0  0  0
   -1.4065   -0.4855    0.0000 O   0  0  0  0  0  0  0  0  0  0  0  0
   -1.4065   -2.4857    0.0000 O   0  0  0  0  0  0  0  0  0  0  0  0
   -2.9067   -2.3525    0.0000 C   0  0  0  0  0  0  0  0  0  0  0  0
    4.4070   -0.2814    0.0000 O   0  0  0  0  0  0  0  0  0  0  0  0
    3.5402    3.2193    0.0000 O   0  0  0  0  0  0  0  0  0  0  0  0
   -2.4066   -3.2193    0.0000 F   0  0  0  0  0  0  0  0  0  0  0  0
   -2.9067   -0.6189    0.0000 C   0  0  0  0  0  0  0  0  0  0  0  0
    4.4070    1.7190    0.0000 C   0  0  0  0  0  0  0  0  0  0  0  0
    2.6775    1.7190    0.0000 C   0  0  0  0  0  0  0  0  0  0  0  0
    2.6775    2.7191    0.0000 C   0  0  0  0  0  0  0  0  0  0  0  0
    4.4070    2.7191    0.0000 C   0  0  0  0  0  0  0  0  0  0  0  0
   -3.9068   -2.3525    0.0000 C   0  0  0  0  0  0  0  0  0  0  0  0
   -3.9068   -0.6189    0.0000 C   0  0  0  0  0  0  0  0  0  0  0  0
   -4.4070   -1.4856    0.0000 C   0  0  0  0  0  0  0  0  0  0  0  0
  2  7  1  0  0  0  0
  2  4  2  0  0  0  0
  1  3  1  0  0  0  0
  4  6  1  0  0  0  0
  5 10  1  0  0  0  0
  5  6  1  0  0  0  0
  6 13  1  0  0  0  0
  5  7  2  0  0  0  0
  1  8  1  0  0  0  0
  2  9  1  0  0  0  0
  3 10  1  0  0  0  0
  9 11  1  0  0  0  0
  3 12  1  0  0  0  0
 12 13  1  0  0  0  0
  1 14  2  0  0  0  0
  1 15  2  0  0  0  0
  8 16  1  0  0  0  0
  9 17  2  0  0  0  0
 18 23  1  0  0  0  0
 18 24  1  0  0  0  0
 16 19  1  0  0  0  0
  8 20  2  0  0  0  0
 11 21  1  0  0  0  0
 11 22  1  0  0  0  0
 22 23  1  0  0  0  0
 21 24  1  0  0  0  0
 16 25  2  0  0  0  0
 25 27  1  0  0  0  0
 20 26  1  0  0  0  0
 26 27  2  0  0  0  0
M  END
> <IDNUMBER>
SB71-0243

> <available>
30

> <H_acceptor>
9

> <H_donor>
0

> <B_rotN>
4

> <N_O>
8

> <logP>
0.469

> <logD>
0.469

> <logSw>
-2.1712

> <PSA>
69.977

> <pKa_ma>
26.1583

> <pKa_mb>
-4.4541

> <N_Chirals>
0

> <Name>
[5-(2-fluorobenzene-1-sulfonyl)-4,5,6,7-tetrahydropyrazolo[1,5-a]pyrazin-2-yl](morpholin-4-yl)methanone

> <Smile>
O=C(c1nn(CCN(C2)S(c(cccc3)c3F)(=O)=O)c2c1)N1CCOCC1

> <Color>
NOT COLORED

> <Collection>
IC

> <InChI>
InChI=1S/C17H19FN4O4S/c18-14-3-1-2-4-16(14)27(24,25)21-5-6-22-13(12-21)11-15(19-22)17(23)20-7-9-26-10-8-20/h1-4,11H,5-10,12H2

> <InChI Key>
JZHHONSVOXZZML-UHFFFAOYSA-N

> <PERCENTSP3>
41.18

> <Link>
https://www.chemdiv.com/catalog/screening-compounds/compound-SB71-0243/

> <MFCDNUMBER>
MFCD32249170

> <CLNUMBER>
CM5543

> <STEREO>
ACHIRAL

> <State>
Solid

> <Similarity score>
0.25

$$$$
5-{[3-(3-methoxyphenyl)-1H-pyrazol-4-yl]methyl}-N-(propan-2-yl)-4,5,6,7-tetrahyd
  -OEChem-04222410502D

 29 32  0     0  0  0  0  0  0999 V2000
   -1.9683    1.3810    0.0000 C   0  0  0  0  0  0  0  0  0  0  0  0
   -2.1768    0.4022    0.0000 N   0  0  0  0  0  0  0  0  0  0  0  0
   -1.3101   -0.0979    0.0000 N   0  0  0  0  0  0  0  0  0  0  0  0
   -0.5644    0.5729    0.0000 C   0  0  0  0  0  0  0  0  0  0  0  0
    1.7518   -2.0016    0.0000 C   0  0  0  0  0  0  0  0  0  0  0  0
   -0.9726    1.4852    0.0000 C   0  0  0  0  0  0  0  0  0  0  0  0
    2.6642   -2.4099    0.0000 C   0  0  0  0  0  0  0  0  0  0  0  0
   -2.6349    2.1224    0.0000 C   0  0  0  0  0  0  0  0  0  0  0  0
    2.5599   -3.4014    0.0000 N   0  0  0  0  0  0  0  0  0  0  0  0
    0.5936   -0.7144    0.0000 N   0  0  0  0  0  0  0  0  0  0  0  0
    1.5811   -3.6097    0.0000 N   0  0  0  0  0  0  0  0  0  0  0  0
    3.5306   -1.9059    0.0000 C   0  0  0  0  0  0  0  0  0  0  0  0
    1.5435   -1.0226    0.0000 C   0  0  0  0  0  0  0  0  0  0  0  0
    0.3854    0.2645    0.0000 C   0  0  0  0  0  0  0  0  0  0  0  0
    1.0810   -2.7432    0.0000 C   0  0  0  0  0  0  0  0  0  0  0  0
   -3.6140    1.9184    0.0000 N   0  0  0  0  0  0  0  0  0  0  0  0
   -1.1019   -1.0726    0.0000 C   0  0  0  0  0  0  0  0  0  0  0  0
   -2.3267    3.0766    0.0000 O   0  0  0  0  0  0  0  0  0  0  0  0
    3.5306   -0.9101    0.0000 C   0  0  0  0  0  0  0  0  0  0  0  0
   -0.1522   -1.3851    0.0000 C   0  0  0  0  0  0  0  0  0  0  0  0
    4.3971   -0.4102    0.0000 C   0  0  0  0  0  0  0  0  0  0  0  0
   -4.2846    2.6599    0.0000 C   0  0  0  0  0  0  0  0  0  0  0  0
    4.3971   -2.4099    0.0000 C   0  0  0  0  0  0  0  0  0  0  0  0
    4.3971    0.5895    0.0000 O   0  0  0  0  0  0  0  0  0  0  0  0
    5.2636   -1.9059    0.0000 C   0  0  0  0  0  0  0  0  0  0  0  0
    5.2636   -0.9101    0.0000 C   0  0  0  0  0  0  0  0  0  0  0  0
    3.5306    1.0894    0.0000 C   0  0  0  0  0  0  0  0  0  0  0  0
   -5.2636    2.4517    0.0000 C   0  0  0  0  0  0  0  0  0  0  0  0
   -3.9762    3.6097    0.0000 C   0  0  0  0  0  0  0  0  0  0  0  0
  1  2  2  0  0  0  0
  2  3  1  0  0  0  0
  4  6  2  0  0  0  0
  3  4  1  0  0  0  0
  5 13  1  0  0  0  0
  1  6  1  0  0  0  0
  5  7  1  0  0  0  0
  1  8  1  0  0  0  0
  7  9  2  0  0  0  0
  9 11  1  0  0  0  0
 10 14  1  0  0  0  0
 11 15  1  0  0  0  0
  7 12  1  0  0  0  0
 10 13  1  0  0  0  0
  4 14  1  0  0  0  0
  5 15  2  0  0  0  0
  8 16  1  0  0  0  0
  3 17  1  0  0  0  0
  8 18  2  0  0  0  0
 12 19  2  0  0  0  0
 17 20  1  0  0  0  0
 10 20  1  0  0  0  0
 19 21  1  0  0  0  0
 16 22  1  0  0  0  0
 12 23  1  0  0  0  0
 21 24  1  0  0  0  0
 23 25  2  0  0  0  0
 25 26  1  0  0  0  0
 21 26  2  0  0  0  0
 24 27  1  0  0  0  0
 22 28  1  0  0  0  0
 22 29  1  0  0  0  0
M  END
> <IDNUMBER>
SB71-0654

> <available>
128

> <H_acceptor>
6

> <H_donor>
2

> <B_rotN>
7

> <N_O>
8

> <logP>
1.9255

> <logD>
1.4886

> <logSw>
-2.5876

> <PSA>
72.835

> <pKa_ma>
11.9692

> <pKa_mb>
7.6393

> <N_Chirals>
0

> <Name>
5-{[3-(3-methoxyphenyl)-1H-pyrazol-4-yl]methyl}-N-(propan-2-yl)-4,5,6,7-tetrahydropyrazolo[1,5-a]pyrazine-2-carboxamide

> <Smile>
CC(C)NC(c1nn(CCN(Cc2c[nH]nc2-c2cc(OC)ccc2)C2)c2c1)=O

> <Color>
NOT COLORED

> <Collection>
IC

> <InChI>
InChI=1S/C21H26N6O2/c1-14(2)23-21(28)19-10-17-13-26(7-8-27(17)25-19)12-16-11-22-24-20(16)15-5-4-6-18(9-15)29-3/h4-6,9-11,14H,7-8,12-13H2,1-3H3,(H,22,24)(H,23,28)

> <InChI Key>
CMNFKLCLXVYLPU-UHFFFAOYSA-N

> <PERCENTSP3>
38.1

> <Link>
https://www.chemdiv.com/catalog/screening-compounds/compound-SB71-0654/

> <MFCDNUMBER>
MFCD32249425

> <CLNUMBER>
CM5543

> <STEREO>
ACHIRAL

> <State>
Solid

> <Similarity score>
0.25

$$$$
N-cyclopentyl-5-{[3-(4-methylphenyl)-1H-pyrazol-4-yl]methyl}-4,5,6,7-tetrahydrop
  -OEChem-04222410502D

 30 34  0     0  0  0  0  0  0999 V2000
    2.3550   -0.9315    0.0000 C   0  0  0  0  0  0  0  0  0  0  0  0
    1.7673   -1.7401    0.0000 N   0  0  0  0  0  0  0  0  0  0  0  0
    0.8128   -1.4316    0.0000 N   0  0  0  0  0  0  0  0  0  0  0  0
    0.8128   -0.4314    0.0000 C   0  0  0  0  0  0  0  0  0  0  0  0
   -1.7839    1.0692    0.0000 C   0  0  0  0  0  0  0  0  0  0  0  0
    1.7673   -0.1229    0.0000 C   0  0  0  0  0  0  0  0  0  0  0  0
    3.3554   -0.9315    0.0000 C   0  0  0  0  0  0  0  0  0  0  0  0
   -2.5925    1.6568    0.0000 C   0  0  0  0  0  0  0  0  0  0  0  0
   -2.2840    2.6071    0.0000 N   0  0  0  0  0  0  0  0  0  0  0  0
   -0.9169   -0.4314    0.0000 N   0  0  0  0  0  0  0  0  0  0  0  0
   -1.2838    2.6071    0.0000 N   0  0  0  0  0  0  0  0  0  0  0  0
   -1.7839    0.0687    0.0000 C   0  0  0  0  0  0  0  0  0  0  0  0
   -0.0500    0.0687    0.0000 C   0  0  0  0  0  0  0  0  0  0  0  0
    3.8555   -1.7985    0.0000 N   0  0  0  0  0  0  0  0  0  0  0  0
   -0.9753    1.6568    0.0000 C   0  0  0  0  0  0  0  0  0  0  0  0
   -0.0500   -1.9320    0.0000 C   0  0  0  0  0  0  0  0  0  0  0  0
   -3.5428    1.3485    0.0000 C   0  0  0  0  0  0  0  0  0  0  0  0
    3.8555   -0.0645    0.0000 O   0  0  0  0  0  0  0  0  0  0  0  0
   -0.9169   -1.4316    0.0000 C   0  0  0  0  0  0  0  0  0  0  0  0
   -4.2889    2.0155    0.0000 C   0  0  0  0  0  0  0  0  0  0  0  0
   -3.7512    0.3688    0.0000 C   0  0  0  0  0  0  0  0  0  0  0  0
    4.8560   -1.7985    0.0000 C   0  0  0  0  0  0  0  0  0  0  0  0
   -4.7059    0.0605    0.0000 C   0  0  0  0  0  0  0  0  0  0  0  0
   -5.2394    1.7070    0.0000 C   0  0  0  0  0  0  0  0  0  0  0  0
   -5.4476    0.7275    0.0000 C   0  0  0  0  0  0  0  0  0  0  0  0
   -6.3939    0.4190    0.0000 C   0  0  0  0  0  0  0  0  0  0  0  0
    5.4436   -2.6071    0.0000 C   0  0  0  0  0  0  0  0  0  0  0  0
    5.4436   -0.9899    0.0000 C   0  0  0  0  0  0  0  0  0  0  0  0
    6.3939   -1.2982    0.0000 C   0  0  0  0  0  0  0  0  0  0  0  0
    6.3939   -2.2986    0.0000 C   0  0  0  0  0  0  0  0  0  0  0  0
  1  2  2  0  0  0  0
  2  3  1  0  0  0  0
  4  6  2  0  0  0  0
  3  4  1  0  0  0  0
  5 12  1  0  0  0  0
  1  6  1  0  0  0  0
  1  7  1  0  0  0  0
  5  8  1  0  0  0  0
  8  9  2  0  0  0  0
  9 11  1  0  0  0  0
 10 13  1  0  0  0  0
 11 15  1  0  0  0  0
 10 12  1  0  0  0  0
  4 13  1  0  0  0  0
  7 14  1  0  0  0  0
  5 15  2  0  0  0  0
  3 16  1  0  0  0  0
  8 17  1  0  0  0  0
  7 18  2  0  0  0  0
 16 19  1  0  0  0  0
 10 19  1  0  0  0  0
 17 20  2  0  0  0  0
 17 21  1  0  0  0  0
 14 22  1  0  0  0  0
 21 23  2  0  0  0  0
 20 24  1  0  0  0  0
 23 25  1  0  0  0  0
 24 25  2  0  0  0  0
 25 26  1  0  0  0  0
 22 27  1  0  0  0  0
 22 28  1  0  0  0  0
 28 29  1  0  0  0  0
 27 30  1  0  0  0  0
 29 30  1  0  0  0  0
M  END
> <IDNUMBER>
SB71-0699

> <available>
72

> <H_acceptor>
5

> <H_donor>
2

> <B_rotN>
6

> <N_O>
7

> <logP>
2.9236

> <logD>
2.4866

> <logSw>
-3.2561

> <PSA>
66.136

> <pKa_ma>
11.6652

> <pKa_mb>
7.6393

> <N_Chirals>
0

> <Name>
N-cyclopentyl-5-{[3-(4-methylphenyl)-1H-pyrazol-4-yl]methyl}-4,5,6,7-tetrahydropyrazolo[1,5-a]pyrazine-2-carboxamide

> <Smile>
Cc(cc1)ccc1-c1n[nH]cc1CN1Cc2cc(C(NC3CCCC3)=O)nn2CC1

> <Color>
YELLOW

> <Collection>
IC

> <InChI>
InChI=1S/C23H28N6O/c1-16-6-8-17(9-7-16)22-18(13-24-26-22)14-28-10-11-29-20(15-28)12-21(27-29)23(30)25-19-4-2-3-5-19/h6-9,12-13,19H,2-5,10-11,14-15H2,1H3,(H,24,26)(H,25,30)

> <InChI Key>
NSQOZRYNNKWTKC-UHFFFAOYSA-N

> <PERCENTSP3>
43.48

> <Link>
https://www.chemdiv.com/catalog/screening-compounds/compound-SB71-0699/

> <MFCDNUMBER>
MFCD32249520

> <CLNUMBER>
CM5543

> <STEREO>
ACHIRAL

> <State>
Solid

> <Similarity score>
0.25

$$$$
{5-[(4-methylphenyl)methanesulfonyl]-4,5,6,7-tetrahydropyrazolo[1,5-a]pyrazin-2-
  -OEChem-04222410502D

 27 30  0     0  0  0  0  0  0999 V2000
   -1.8853   -1.5854    0.0000 C   0  0  0  0  0  0  0  0  0  0  0  0
    2.1980   -0.3813    0.0000 S   0  0  0  0  0  0  0  0  0  0  0  0
   -1.7813   -0.5895    0.0000 N   0  0  0  0  0  0  0  0  0  0  0  0
   -0.3021   -1.2477    0.0000 C   0  0  0  0  0  0  0  0  0  0  0  0
   -0.8021   -0.3813    0.0000 N   0  0  0  0  0  0  0  0  0  0  0  0
    1.1980   -0.3813    0.0000 N   0  0  0  0  0  0  0  0  0  0  0  0
   -0.9686   -1.9897    0.0000 C   0  0  0  0  0  0  0  0  0  0  0  0
   -2.7480   -2.0854    0.0000 C   0  0  0  0  0  0  0  0  0  0  0  0
    0.6980   -1.2477    0.0000 C   0  0  0  0  0  0  0  0  0  0  0  0
   -3.6148   -1.5854    0.0000 N   0  0  0  0  0  0  0  0  0  0  0  0
   -0.3021    0.4855    0.0000 C   0  0  0  0  0  0  0  0  0  0  0  0
    0.6980    0.4855    0.0000 C   0  0  0  0  0  0  0  0  0  0  0  0
    3.1980   -0.3813    0.0000 C   0  0  0  0  0  0  0  0  0  0  0  0
    2.1980    0.6187    0.0000 O   0  0  0  0  0  0  0  0  0  0  0  0
    2.1980   -1.3812    0.0000 O   0  0  0  0  0  0  0  0  0  0  0  0
   -2.7480   -3.0814    0.0000 O   0  0  0  0  0  0  0  0  0  0  0  0
    3.6980    0.4855    0.0000 C   0  0  0  0  0  0  0  0  0  0  0  0
    4.6980    2.2188    0.0000 C   0  0  0  0  0  0  0  0  0  0  0  0
    3.1980    1.3523    0.0000 C   0  0  0  0  0  0  0  0  0  0  0  0
    4.6980    0.4855    0.0000 C   0  0  0  0  0  0  0  0  0  0  0  0
    3.6980    2.2188    0.0000 C   0  0  0  0  0  0  0  0  0  0  0  0
    5.1981    1.3523    0.0000 C   0  0  0  0  0  0  0  0  0  0  0  0
   -3.7188   -0.5895    0.0000 C   0  0  0  0  0  0  0  0  0  0  0  0
   -4.5313   -1.9897    0.0000 C   0  0  0  0  0  0  0  0  0  0  0  0
    5.1981    3.0814    0.0000 C   0  0  0  0  0  0  0  0  0  0  0  0
   -4.6980   -0.3813    0.0000 C   0  0  0  0  0  0  0  0  0  0  0  0
   -5.1981   -1.2477    0.0000 C   0  0  0  0  0  0  0  0  0  0  0  0
  2  6  1  0  0  0  0
  1  3  2  0  0  0  0
  4  7  2  0  0  0  0
  4  5  1  0  0  0  0
  3  5  1  0  0  0  0
  6  9  1  0  0  0  0
  1  7  1  0  0  0  0
  1  8  1  0  0  0  0
  4  9  1  0  0  0  0
  8 10  1  0  0  0  0
  5 11  1  0  0  0  0
 11 12  1  0  0  0  0
  6 12  1  0  0  0  0
  2 13  1  0  0  0  0
  2 14  2  0  0  0  0
  2 15  2  0  0  0  0
  8 16  2  0  0  0  0
 13 17  1  0  0  0  0
 18 22  2  0  0  0  0
 17 19  1  0  0  0  0
 17 20  2  0  0  0  0
 19 21  2  0  0  0  0
 18 21  1  0  0  0  0
 20 22  1  0  0  0  0
 10 23  1  0  0  0  0
 10 24  1  0  0  0  0
 18 25  1  0  0  0  0
 23 26  1  0  0  0  0
 24 27  1  0  0  0  0
 26 27  1  0  0  0  0
M  END
> <IDNUMBER>
SB71-0959

> <available>
24

> <H_acceptor>
8

> <H_donor>
0

> <B_rotN>
5

> <N_O>
7

> <logP>
1.5193

> <logD>
1.5193

> <logSw>
-2.34

> <PSA>
62.329

> <pKa_ma>
20.298

> <pKa_mb>
-3.3545

> <N_Chirals>
0

> <Name>
{5-[(4-methylphenyl)methanesulfonyl]-4,5,6,7-tetrahydropyrazolo[1,5-a]pyrazin-2-yl}(pyrrolidin-1-yl)methanone

> <Smile>
Cc1ccc(CS(N2Cc3cc(C(N4CCCC4)=O)nn3CC2)(=O)=O)cc1

> <Color>
ORANGE

> <Collection>
IC

> <InChI>
InChI=1S/C19H24N4O3S/c1-15-4-6-16(7-5-15)14-27(25,26)22-10-11-23-17(13-22)12-18(20-23)19(24)21-8-2-3-9-21/h4-7,12H,2-3,8-11,13-14H2,1H3

> <InChI Key>
KPWJKCYDPBZZDE-UHFFFAOYSA-N

> <PERCENTSP3>
47.37

> <Link>
https://www.chemdiv.com/catalog/screening-compounds/compound-SB71-0959/

> <MFCDNUMBER>
MFCD18531480

> <CLNUMBER>
CM5543

> <STEREO>
ACHIRAL

> <State>
Solid

> <Similarity score>
0.25

$$$$
N,N-dimethyl-5-(4-phenylbutanoyl)-4,5,6,7-tetrahydropyrazolo[1,5-a]pyrazine-2-ca
  -OEChem-04222410502D

 25 27  0     0  0  0  0  0  0999 V2000
    3.4140    0.3852    0.0000 C   0  0  0  0  0  0  0  0  0  0  0  0
    2.8265    1.1936    0.0000 N   0  0  0  0  0  0  0  0  0  0  0  0
    1.8767   -0.1147    0.0000 C   0  0  0  0  0  0  0  0  0  0  0  0
    1.8767    0.8853    0.0000 N   0  0  0  0  0  0  0  0  0  0  0  0
    2.8265   -0.4228    0.0000 C   0  0  0  0  0  0  0  0  0  0  0  0
    4.4138    0.3852    0.0000 C   0  0  0  0  0  0  0  0  0  0  0  0
    0.1437   -0.1147    0.0000 N   0  0  0  0  0  0  0  0  0  0  0  0
    1.0103   -0.6145    0.0000 C   0  0  0  0  0  0  0  0  0  0  0  0
   -0.7186   -0.6145    0.0000 C   0  0  0  0  0  0  0  0  0  0  0  0
    1.0103    1.3851    0.0000 C   0  0  0  0  0  0  0  0  0  0  0  0
    4.9179    1.2520    0.0000 N   0  0  0  0  0  0  0  0  0  0  0  0
    0.1437    0.8853    0.0000 C   0  0  0  0  0  0  0  0  0  0  0  0
    4.9179   -0.4814    0.0000 O   0  0  0  0  0  0  0  0  0  0  0  0
   -0.7186   -1.6145    0.0000 O   0  0  0  0  0  0  0  0  0  0  0  0
   -1.5852   -0.1147    0.0000 C   0  0  0  0  0  0  0  0  0  0  0  0
   -4.1848   -0.6145    0.0000 C   0  0  0  0  0  0  0  0  0  0  0  0
   -2.4518   -0.6145    0.0000 C   0  0  0  0  0  0  0  0  0  0  0  0
    4.4138    2.1143    0.0000 C   0  0  0  0  0  0  0  0  0  0  0  0
    5.9178    1.2520    0.0000 C   0  0  0  0  0  0  0  0  0  0  0  0
   -3.3182   -0.1147    0.0000 C   0  0  0  0  0  0  0  0  0  0  0  0
   -4.1848   -1.6145    0.0000 C   0  0  0  0  0  0  0  0  0  0  0  0
   -5.0514   -0.1147    0.0000 C   0  0  0  0  0  0  0  0  0  0  0  0
   -5.9178   -0.6145    0.0000 C   0  0  0  0  0  0  0  0  0  0  0  0
   -5.0514   -2.1143    0.0000 C   0  0  0  0  0  0  0  0  0  0  0  0
   -5.9178   -1.6145    0.0000 C   0  0  0  0  0  0  0  0  0  0  0  0
  1  2  2  0  0  0  0
  3  5  2  0  0  0  0
  3  4  1  0  0  0  0
  2  4  1  0  0  0  0
  1  5  1  0  0  0  0
  1  6  1  0  0  0  0
  7  8  1  0  0  0  0
  3  8  1  0  0  0  0
  7  9  1  0  0  0  0
  4 10  1  0  0  0  0
  6 11  1  0  0  0  0
 10 12  1  0  0  0  0
  7 12  1  0  0  0  0
  6 13  2  0  0  0  0
  9 14  2  0  0  0  0
  9 15  1  0  0  0  0
 16 20  1  0  0  0  0
 15 17  1  0  0  0  0
 11 18  1  0  0  0  0
 11 19  1  0  0  0  0
 17 20  1  0  0  0  0
 16 21  2  0  0  0  0
 16 22  1  0  0  0  0
 22 23  2  0  0  0  0
 21 24  1  0  0  0  0
 24 25  2  0  0  0  0
 23 25  1  0  0  0  0
M  END
> <IDNUMBER>
SB71-0020

> <available>
96

> <H_acceptor>
5

> <H_donor>
0

> <B_rotN>
7

> <N_O>
6

> <logP>
1.3035

> <logD>
1.3035

> <logSw>
-1.8225

> <PSA>
45.831

> <pKa_ma>
21.894

> <pKa_mb>
-2.791

> <N_Chirals>
0

> <Name>
N,N-dimethyl-5-(4-phenylbutanoyl)-4,5,6,7-tetrahydropyrazolo[1,5-a]pyrazine-2-carboxamide

> <Smile>
CN(C)C(c1nn(CCN(C2)C(CCCc3ccccc3)=O)c2c1)=O

> <Color>
YELLOW

> <Collection>
IC

> <InChI>
InChI=1S/C19H24N4O2/c1-21(2)19(25)17-13-16-14-22(11-12-23(16)20-17)18(24)10-6-9-15-7-4-3-5-8-15/h3-5,7-8,13H,6,9-12,14H2,1-2H3

> <InChI Key>
ZEHWGFJTTXSSDS-UHFFFAOYSA-N

> <PERCENTSP3>
42.1

> <Link>
https://www.chemdiv.com/catalog/screening-compounds/compound-SB71-0020/

> <MFCDNUMBER>
MFCD32249630

> <CLNUMBER>
CM5543

> <STEREO>
ACHIRAL

> <State>
Solid

> <Similarity score>
0.25

$$$$
[5-(benzenesulfonyl)-4,5,6,7-tetrahydropyrazolo[1,5-a]pyrazin-2-yl](morpholin-4-
  -OEChem-04222410502D

 26 29  0     0  0  0  0  0  0999 V2000
   -1.4065   -1.8525    0.0000 S   0  0  0  0  0  0  0  0  0  0  0  0
    2.6775   -0.6481    0.0000 C   0  0  0  0  0  0  0  0  0  0  0  0
    2.5692   -1.6441    0.0000 N   0  0  0  0  0  0  0  0  0  0  0  0
   -0.4063   -1.8525    0.0000 N   0  0  0  0  0  0  0  0  0  0  0  0
    1.0940   -0.9857    0.0000 C   0  0  0  0  0  0  0  0  0  0  0  0
    1.5940   -1.8525    0.0000 N   0  0  0  0  0  0  0  0  0  0  0  0
    1.7607   -0.2439    0.0000 C   0  0  0  0  0  0  0  0  0  0  0  0
    3.5402   -0.1479    0.0000 C   0  0  0  0  0  0  0  0  0  0  0  0
    0.0938   -0.9857    0.0000 C   0  0  0  0  0  0  0  0  0  0  0  0
    3.5402    0.8523    0.0000 N   0  0  0  0  0  0  0  0  0  0  0  0
    0.0938   -2.7194    0.0000 C   0  0  0  0  0  0  0  0  0  0  0  0
    1.0940   -2.7194    0.0000 C   0  0  0  0  0  0  0  0  0  0  0  0
   -1.4065   -0.8523    0.0000 O   0  0  0  0  0  0  0  0  0  0  0  0
   -1.4065   -2.8526    0.0000 O   0  0  0  0  0  0  0  0  0  0  0  0
   -2.4066   -1.8525    0.0000 C   0  0  0  0  0  0  0  0  0  0  0  0
    4.4070   -0.6481    0.0000 O   0  0  0  0  0  0  0  0  0  0  0  0
    3.5402    2.8526    0.0000 O   0  0  0  0  0  0  0  0  0  0  0  0
    4.4070    1.3523    0.0000 C   0  0  0  0  0  0  0  0  0  0  0  0
    2.6775    1.3523    0.0000 C   0  0  0  0  0  0  0  0  0  0  0  0
    2.6775    2.3524    0.0000 C   0  0  0  0  0  0  0  0  0  0  0  0
    4.4070    2.3524    0.0000 C   0  0  0  0  0  0  0  0  0  0  0  0
   -2.9067   -2.7194    0.0000 C   0  0  0  0  0  0  0  0  0  0  0  0
   -2.9067   -0.9857    0.0000 C   0  0  0  0  0  0  0  0  0  0  0  0
   -3.9068   -0.9857    0.0000 C   0  0  0  0  0  0  0  0  0  0  0  0
   -3.9068   -2.7194    0.0000 C   0  0  0  0  0  0  0  0  0  0  0  0
   -4.4070   -1.8525    0.0000 C   0  0  0  0  0  0  0  0  0  0  0  0
  2  7  1  0  0  0  0
  2  3  2  0  0  0  0
  3  6  1  0  0  0  0
  1  4  1  0  0  0  0
  5  9  1  0  0  0  0
  5  6  1  0  0  0  0
  6 12  1  0  0  0  0
  5  7  2  0  0  0  0
  2  8  1  0  0  0  0
  4  9  1  0  0  0  0
  8 10  1  0  0  0  0
  4 11  1  0  0  0  0
 11 12  1  0  0  0  0
  1 13  2  0  0  0  0
  1 14  2  0  0  0  0
  1 15  1  0  0  0  0
  8 16  2  0  0  0  0
 17 20  1  0  0  0  0
 17 21  1  0  0  0  0
 10 18  1  0  0  0  0
 10 19  1  0  0  0  0
 19 20  1  0  0  0  0
 18 21  1  0  0  0  0
 15 22  2  0  0  0  0
 15 23  1  0  0  0  0
 23 24  2  0  0  0  0
 22 25  1  0  0  0  0
 25 26  2  0  0  0  0
 24 26  1  0  0  0  0
M  END
> <IDNUMBER>
SB71-0249

> <available>
44

> <H_acceptor>
9

> <H_donor>
0

> <B_rotN>
4

> <N_O>
8

> <logP>
0.4224

> <logD>
0.4224

> <logSw>
-2.2243

> <PSA>
69.977

> <pKa_ma>
26.1583

> <pKa_mb>
-4.4541

> <N_Chirals>
0

> <Name>
[5-(benzenesulfonyl)-4,5,6,7-tetrahydropyrazolo[1,5-a]pyrazin-2-yl](morpholin-4-yl)methanone

> <Smile>
O=C(c1nn(CCN(C2)S(c3ccccc3)(=O)=O)c2c1)N1CCOCC1

> <Color>
NOT COLORED

> <Collection>
IC

> <InChI>
InChI=1S/C17H20N4O4S/c22-17(19-8-10-25-11-9-19)16-12-14-13-20(6-7-21(14)18-16)26(23,24)15-4-2-1-3-5-15/h1-5,12H,6-11,13H2

> <InChI Key>
XFYARZCQKVXCQD-UHFFFAOYSA-N

> <PERCENTSP3>
41.18

> <Link>
https://www.chemdiv.com/catalog/screening-compounds/compound-SB71-0249/

> <MFCDNUMBER>
MFCD32249197

> <CLNUMBER>
CM5543

> <STEREO>
ACHIRAL

> <State>
Solid

> <Similarity score>
0.25

$$$$
N,N-dimethyl-5-(phenoxyacetyl)-4,5,6,7-tetrahydropyrazolo[1,5-a]pyrazine-2-carbo
  -OEChem-04222410502D

 24 26  0     0  0  0  0  0  0999 V2000
    2.6320    1.1775    0.0000 C   0  0  0  0  0  0  0  0  0  0  0  0
    3.0403    0.2604    0.0000 N   0  0  0  0  0  0  0  0  0  0  0  0
    1.4316    0.0938    0.0000 C   0  0  0  0  0  0  0  0  0  0  0  0
    2.2984   -0.4064    0.0000 N   0  0  0  0  0  0  0  0  0  0  0  0
    1.6399    1.0733    0.0000 C   0  0  0  0  0  0  0  0  0  0  0  0
    3.1321    2.0402    0.0000 C   0  0  0  0  0  0  0  0  0  0  0  0
    0.5647   -1.4065    0.0000 N   0  0  0  0  0  0  0  0  0  0  0  0
    0.5647   -0.4064    0.0000 C   0  0  0  0  0  0  0  0  0  0  0  0
   -0.3023   -1.9067    0.0000 C   0  0  0  0  0  0  0  0  0  0  0  0
    2.2984   -1.4065    0.0000 C   0  0  0  0  0  0  0  0  0  0  0  0
    4.1321    2.0402    0.0000 N   0  0  0  0  0  0  0  0  0  0  0  0
    1.4316   -1.9067    0.0000 C   0  0  0  0  0  0  0  0  0  0  0  0
    2.6320    2.9070    0.0000 O   0  0  0  0  0  0  0  0  0  0  0  0
   -1.1691   -1.4065    0.0000 C   0  0  0  0  0  0  0  0  0  0  0  0
   -0.3023   -2.9070    0.0000 O   0  0  0  0  0  0  0  0  0  0  0  0
   -2.0360   -1.9067    0.0000 O   0  0  0  0  0  0  0  0  0  0  0  0
   -2.9028   -1.4065    0.0000 C   0  0  0  0  0  0  0  0  0  0  0  0
    4.6324    1.1775    0.0000 C   0  0  0  0  0  0  0  0  0  0  0  0
    4.6324    2.9070    0.0000 C   0  0  0  0  0  0  0  0  0  0  0  0
   -2.9028   -0.4064    0.0000 C   0  0  0  0  0  0  0  0  0  0  0  0
   -3.7656   -1.9067    0.0000 C   0  0  0  0  0  0  0  0  0  0  0  0
   -4.6324   -1.4065    0.0000 C   0  0  0  0  0  0  0  0  0  0  0  0
   -3.7656    0.0938    0.0000 C   0  0  0  0  0  0  0  0  0  0  0  0
   -4.6324   -0.4064    0.0000 C   0  0  0  0  0  0  0  0  0  0  0  0
  1  2  2  0  0  0  0
  3  5  2  0  0  0  0
  3  4  1  0  0  0  0
  2  4  1  0  0  0  0
  1  5  1  0  0  0  0
  1  6  1  0  0  0  0
  7  8  1  0  0  0  0
  3  8  1  0  0  0  0
  7  9  1  0  0  0  0
  4 10  1  0  0  0  0
  6 11  1  0  0  0  0
 10 12  1  0  0  0  0
  7 12  1  0  0  0  0
  6 13  2  0  0  0  0
  9 14  1  0  0  0  0
  9 15  2  0  0  0  0
 14 16  1  0  0  0  0
 16 17  1  0  0  0  0
 11 18  1  0  0  0  0
 11 19  1  0  0  0  0
 17 20  1  0  0  0  0
 17 21  2  0  0  0  0
 21 22  1  0  0  0  0
 20 23  2  0  0  0  0
 23 24  1  0  0  0  0
 22 24  2  0  0  0  0
M  END
> <IDNUMBER>
SB71-0015

> <available>
53

> <H_acceptor>
6

> <H_donor>
0

> <B_rotN>
6

> <N_O>
7

> <logP>
-0.1129

> <logD>
-0.1129

> <logSw>
-1.5118

> <PSA>
53.33

> <pKa_ma>
24.6503

> <pKa_mb>
-2.791

> <N_Chirals>
0

> <Name>
N,N-dimethyl-5-(phenoxyacetyl)-4,5,6,7-tetrahydropyrazolo[1,5-a]pyrazine-2-carboxamide

> <Smile>
CN(C)C(c1nn(CCN(C2)C(COc3ccccc3)=O)c2c1)=O

> <Color>
NOT COLORED

> <Collection>
IC

> <InChI>
InChI=1S/C17H20N4O3/c1-19(2)17(23)15-10-13-11-20(8-9-21(13)18-15)16(22)12-24-14-6-4-3-5-7-14/h3-7,10H,8-9,11-12H2,1-2H3

> <InChI Key>
BLTVPTQMGUEWCX-UHFFFAOYSA-N

> <PERCENTSP3>
35.29

> <Link>
https://www.chemdiv.com/catalog/screening-compounds/compound-SB71-0015/

> <MFCDNUMBER>
MFCD32249628

> <CLNUMBER>
CM5543

> <STEREO>
ACHIRAL

> <State>
Solid

> <Similarity score>
0.25

$$$$
N-benzyl-5-(3-phenylpropyl)-4,5,6,7-tetrahydropyrazolo[1,5-a]pyrazine-2-carboxam
  -OEChem-04222410502D

 28 31  0     0  0  0  0  0  0999 V2000
    1.1298    0.2438    0.0000 C   0  0  0  0  0  0  0  0  0  0  0  0
    1.5384   -0.6733    0.0000 N   0  0  0  0  0  0  0  0  0  0  0  0
    0.7963   -1.3405    0.0000 N   0  0  0  0  0  0  0  0  0  0  0  0
   -0.0709   -0.8402    0.0000 C   0  0  0  0  0  0  0  0  0  0  0  0
    0.1376    0.1397    0.0000 C   0  0  0  0  0  0  0  0  0  0  0  0
    1.6302    1.1110    0.0000 C   0  0  0  0  0  0  0  0  0  0  0  0
   -0.9382   -2.3411    0.0000 N   0  0  0  0  0  0  0  0  0  0  0  0
   -0.9382   -1.3405    0.0000 C   0  0  0  0  0  0  0  0  0  0  0  0
    0.7963   -2.3411    0.0000 C   0  0  0  0  0  0  0  0  0  0  0  0
    2.6309    1.1110    0.0000 N   0  0  0  0  0  0  0  0  0  0  0  0
    1.1298    1.9741    0.0000 O   0  0  0  0  0  0  0  0  0  0  0  0
   -0.0709   -2.8413    0.0000 C   0  0  0  0  0  0  0  0  0  0  0  0
    3.1311    1.9741    0.0000 C   0  0  0  0  0  0  0  0  0  0  0  0
    4.1318    1.9741    0.0000 C   0  0  0  0  0  0  0  0  0  0  0  0
   -1.8054   -2.8413    0.0000 C   0  0  0  0  0  0  0  0  0  0  0  0
   -4.4070   -2.3411    0.0000 C   0  0  0  0  0  0  0  0  0  0  0  0
   -2.6725   -2.3411    0.0000 C   0  0  0  0  0  0  0  0  0  0  0  0
   -3.5397   -2.8413    0.0000 C   0  0  0  0  0  0  0  0  0  0  0  0
    4.6322    1.1110    0.0000 C   0  0  0  0  0  0  0  0  0  0  0  0
    4.6322    2.8413    0.0000 C   0  0  0  0  0  0  0  0  0  0  0  0
   -4.4070   -1.3405    0.0000 C   0  0  0  0  0  0  0  0  0  0  0  0
   -5.2700   -2.8413    0.0000 C   0  0  0  0  0  0  0  0  0  0  0  0
    5.6328    2.8413    0.0000 C   0  0  0  0  0  0  0  0  0  0  0  0
    5.6328    1.1110    0.0000 C   0  0  0  0  0  0  0  0  0  0  0  0
   -6.1331   -2.3411    0.0000 C   0  0  0  0  0  0  0  0  0  0  0  0
   -5.2700   -0.8402    0.0000 C   0  0  0  0  0  0  0  0  0  0  0  0
    6.1331    1.9741    0.0000 C   0  0  0  0  0  0  0  0  0  0  0  0
   -6.1331   -1.3405    0.0000 C   0  0  0  0  0  0  0  0  0  0  0  0
  1  2  2  0  0  0  0
  2  3  1  0  0  0  0
  4  5  2  0  0  0  0
  3  4  1  0  0  0  0
  1  5  1  0  0  0  0
  1  6  1  0  0  0  0
  7  8  1  0  0  0  0
  4  8  1  0  0  0  0
  3  9  1  0  0  0  0
  6 10  1  0  0  0  0
  6 11  2  0  0  0  0
  9 12  1  0  0  0  0
  7 12  1  0  0  0  0
 10 13  1  0  0  0  0
 13 14  1  0  0  0  0
  7 15  1  0  0  0  0
 16 18  1  0  0  0  0
 15 17  1  0  0  0  0
 17 18  1  0  0  0  0
 14 19  2  0  0  0  0
 14 20  1  0  0  0  0
 16 21  2  0  0  0  0
 16 22  1  0  0  0  0
 20 23  2  0  0  0  0
 19 24  1  0  0  0  0
 22 25  2  0  0  0  0
 21 26  1  0  0  0  0
 23 27  1  0  0  0  0
 24 27  2  0  0  0  0
 25 28  1  0  0  0  0
 26 28  2  0  0  0  0
M  END
> <IDNUMBER>
SB71-0182

> <available>
40

> <H_acceptor>
4

> <H_donor>
1

> <B_rotN>
8

> <N_O>
5

> <logP>
3.3215

> <logD>
3.2169

> <logSw>
-3.5345

> <PSA>
41.834

> <pKa_ma>
12.5385

> <pKa_mb>
6.8349

> <N_Chirals>
0

> <Name>
N-benzyl-5-(3-phenylpropyl)-4,5,6,7-tetrahydropyrazolo[1,5-a]pyrazine-2-carboxamide

> <Smile>
O=C(c1nn(CCN(CCCc2ccccc2)C2)c2c1)NCc1ccccc1

> <Color>
NOT COLORED

> <Collection>
IC

> <InChI>
InChI=1S/C23H26N4O/c28-23(24-17-20-10-5-2-6-11-20)22-16-21-18-26(14-15-27(21)25-22)13-7-12-19-8-3-1-4-9-19/h1-6,8-11,16H,7,12-15,17-18H2,(H,24,28)

> <InChI Key>
NGDKVECAHOAMBT-UHFFFAOYSA-N

> <PERCENTSP3>
30.43

> <Link>
https://www.chemdiv.com/catalog/screening-compounds/compound-SB71-0182/

> <MFCDNUMBER>
MFCD32249505

> <CLNUMBER>
CM5543

> <STEREO>
ACHIRAL

> <State>
Solid

> <Similarity score>
0.25

$$$$
N-cyclopentyl-5-[(1-methyl-1H-indol-3-yl)methyl]-4,5,6,7-tetrahydropyrazolo[1,5-
  -OEChem-04222410502D

 28 32  0     0  0  0  0  0  0999 V2000
    1.7028   -0.1229    0.0000 C   0  0  0  0  0  0  0  0  0  0  0  0
    1.7028    0.8775    0.0000 N   0  0  0  0  0  0  0  0  0  0  0  0
   -2.8197    0.6898    0.0000 C   0  0  0  0  0  0  0  0  0  0  0  0
    0.7524    1.1859    0.0000 N   0  0  0  0  0  0  0  0  0  0  0  0
    0.1646    0.3772    0.0000 C   0  0  0  0  0  0  0  0  0  0  0  0
    0.7524   -0.4357    0.0000 C   0  0  0  0  0  0  0  0  0  0  0  0
   -3.3200   -0.8482    0.0000 N   0  0  0  0  0  0  0  0  0  0  0  0
   -2.5113   -0.2604    0.0000 C   0  0  0  0  0  0  0  0  0  0  0  0
    2.5154   -0.7109    0.0000 C   0  0  0  0  0  0  0  0  0  0  0  0
   -3.8202    0.6898    0.0000 C   0  0  0  0  0  0  0  0  0  0  0  0
   -4.1287   -0.2604    0.0000 C   0  0  0  0  0  0  0  0  0  0  0  0
   -1.2359    1.3941    0.0000 N   0  0  0  0  0  0  0  0  0  0  0  0
   -2.2321    1.4985    0.0000 C   0  0  0  0  0  0  0  0  0  0  0  0
   -0.8314    0.4813    0.0000 C   0  0  0  0  0  0  0  0  0  0  0  0
    3.4282   -0.3066    0.0000 N   0  0  0  0  0  0  0  0  0  0  0  0
    0.3479    2.0985    0.0000 C   0  0  0  0  0  0  0  0  0  0  0  0
    2.4113   -1.7071    0.0000 O   0  0  0  0  0  0  0  0  0  0  0  0
   -0.6483    2.2028    0.0000 C   0  0  0  0  0  0  0  0  0  0  0  0
   -3.3200   -1.8488    0.0000 C   0  0  0  0  0  0  0  0  0  0  0  0
    4.2369   -0.8942    0.0000 C   0  0  0  0  0  0  0  0  0  0  0  0
   -4.4871    1.4317    0.0000 C   0  0  0  0  0  0  0  0  0  0  0  0
   -5.1083   -0.4690    0.0000 C   0  0  0  0  0  0  0  0  0  0  0  0
    5.1873   -0.5856    0.0000 C   0  0  0  0  0  0  0  0  0  0  0  0
    4.2369   -1.8944    0.0000 C   0  0  0  0  0  0  0  0  0  0  0  0
   -5.7751    0.2731    0.0000 C   0  0  0  0  0  0  0  0  0  0  0  0
   -5.4667    1.2232    0.0000 C   0  0  0  0  0  0  0  0  0  0  0  0
    5.1873   -2.2028    0.0000 C   0  0  0  0  0  0  0  0  0  0  0  0
    5.7751   -1.3945    0.0000 C   0  0  0  0  0  0  0  0  0  0  0  0
  1  2  2  0  0  0  0
  3 13  1  0  0  0  0
  2  4  1  0  0  0  0
  5  6  2  0  0  0  0
  4  5  1  0  0  0  0
  1  6  1  0  0  0  0
  7  8  1  0  0  0  0
  7 11  1  0  0  0  0
  3  8  2  0  0  0  0
  1  9  1  0  0  0  0
  3 10  1  0  0  0  0
 10 11  2  0  0  0  0
 12 14  1  0  0  0  0
 12 13  1  0  0  0  0
  5 14  1  0  0  0  0
  9 15  1  0  0  0  0
  4 16  1  0  0  0  0
  9 17  2  0  0  0  0
 16 18  1  0  0  0  0
 12 18  1  0  0  0  0
  7 19  1  0  0  0  0
 15 20  1  0  0  0  0
 10 21  1  0  0  0  0
 11 22  1  0  0  0  0
 22 25  2  0  0  0  0
 20 23  1  0  0  0  0
 20 24  1  0  0  0  0
 25 26  1  0  0  0  0
 21 26  2  0  0  0  0
 24 27  1  0  0  0  0
 23 28  1  0  0  0  0
 27 28  1  0  0  0  0
M  END
> <IDNUMBER>
SB71-0704

> <available>
4

> <H_acceptor>
4

> <H_donor>
1

> <B_rotN>
5

> <N_O>
6

> <logP>
2.6279

> <logD>
1.4667

> <logSw>
-2.9637

> <PSA>
44.506

> <pKa_ma>
15.6721

> <pKa_mb>
8.5302

> <N_Chirals>
0

> <Name>
N-cyclopentyl-5-[(1-methyl-1H-indol-3-yl)methyl]-4,5,6,7-tetrahydropyrazolo[1,5-a]pyrazine-2-carboxamide

> <Smile>
Cn1c(cccc2)c2c(CN2Cc3cc(C(NC4CCCC4)=O)nn3CC2)c1

> <Color>
YELLOW

> <Collection>
IC

> <InChI>
InChI=1S/C22H27N5O/c1-25-13-16(19-8-4-5-9-21(19)25)14-26-10-11-27-18(15-26)12-20(24-27)22(28)23-17-6-2-3-7-17/h4-5,8-9,12-13,17H,2-3,6-7,10-11,14-15H2,1H3,(H,23,28)

> <InChI Key>
JVPWTIPNJIQLNW-UHFFFAOYSA-N

> <PERCENTSP3>
45.46

> <Link>
https://www.chemdiv.com/catalog/screening-compounds/compound-SB71-0704/

> <MFCDNUMBER>
MFCD32249522

> <CLNUMBER>
CM5543

> <STEREO>
ACHIRAL

> <State>
Solid

> <Similarity score>
0.25

$$$$
N-(5-fluoro-2-methylphenyl)-4,5,6,7-tetrahydropyrazolo[1,5-a]pyridine-2-carboxam
  -OEChem-04222410502D

 20 22  0     0  0  0  0  0  0999 V2000
   -0.6145   -0.7980    0.0000 C   0  0  0  0  0  0  0  0  0  0  0  0
   -1.2063    0.0104    0.0000 N   0  0  0  0  0  0  0  0  0  0  0  0
   -2.1522   -0.2980    0.0000 N   0  0  0  0  0  0  0  0  0  0  0  0
   -1.2063   -1.6065    0.0000 C   0  0  0  0  0  0  0  0  0  0  0  0
    0.3854   -0.7980    0.0000 C   0  0  0  0  0  0  0  0  0  0  0  0
   -2.1522   -1.3022    0.0000 C   0  0  0  0  0  0  0  0  0  0  0  0
    0.8855    0.0646    0.0000 N   0  0  0  0  0  0  0  0  0  0  0  0
    1.8942    0.0646    0.0000 C   0  0  0  0  0  0  0  0  0  0  0  0
    2.3899   -0.7980    0.0000 C   0  0  0  0  0  0  0  0  0  0  0  0
    2.3899    0.9397    0.0000 C   0  0  0  0  0  0  0  0  0  0  0  0
    0.8855   -1.6689    0.0000 O   0  0  0  0  0  0  0  0  0  0  0  0
    3.3899    0.9397    0.0000 C   0  0  0  0  0  0  0  0  0  0  0  0
    3.3899   -0.7980    0.0000 C   0  0  0  0  0  0  0  0  0  0  0  0
   -3.0274    0.1979    0.0000 C   0  0  0  0  0  0  0  0  0  0  0  0
    3.8857    0.0646    0.0000 C   0  0  0  0  0  0  0  0  0  0  0  0
    3.8857   -1.6689    0.0000 F   0  0  0  0  0  0  0  0  0  0  0  0
   -3.0274   -1.7981    0.0000 C   0  0  0  0  0  0  0  0  0  0  0  0
    1.8942    1.7981    0.0000 C   0  0  0  0  0  0  0  0  0  0  0  0
   -3.8857   -0.2980    0.0000 C   0  0  0  0  0  0  0  0  0  0  0  0
   -3.8857   -1.3022    0.0000 C   0  0  0  0  0  0  0  0  0  0  0  0
  1  2  2  0  0  0  0
  2  3  1  0  0  0  0
  3  6  1  0  0  0  0
  1  4  1  0  0  0  0
  1  5  1  0  0  0  0
  4  6  2  0  0  0  0
  5  7  1  0  0  0  0
  7  8  1  0  0  0  0
  8  9  1  0  0  0  0
  8 10  2  0  0  0  0
  5 11  2  0  0  0  0
 10 12  1  0  0  0  0
  9 13  2  0  0  0  0
  3 14  1  0  0  0  0
 12 15  2  0  0  0  0
 13 15  1  0  0  0  0
 13 16  1  0  0  0  0
  6 17  1  0  0  0  0
 10 18  1  0  0  0  0
 14 19  1  0  0  0  0
 19 20  1  0  0  0  0
 17 20  1  0  0  0  0
M  END
> <IDNUMBER>
P078-0345

> <available>
3

> <H_acceptor>
3

> <H_donor>
1

> <B_rotN>
3

> <N_O>
4

> <logP>
2.4485

> <logD>
2.4476

> <logSw>
-2.8139

> <PSA>
36.361

> <pKa_ma>
10.0845

> <pKa_mb>
1.0431

> <N_Chirals>
0

> <Name>
N-(5-fluoro-2-methylphenyl)-4,5,6,7-tetrahydropyrazolo[1,5-a]pyridine-2-carboxamide

> <Smile>
Cc(ccc(F)c1)c1NC(c1nn(CCCC2)c2c1)=O

> <Color>
YELLOW

> <Collection>
NC

> <InChI>
InChI=1S/C15H16FN3O/c1-10-5-6-11(16)8-13(10)17-15(20)14-9-12-4-2-3-7-19(12)18-14/h5-6,8-9H,2-4,7H2,1H3,(H,17,20)

> <InChI Key>
HPCKYPJOWNOCQG-UHFFFAOYSA-N

> <PERCENTSP3>
33.33

> <Link>
https://www.chemdiv.com/catalog/screening-compounds/compound-P078-0345/

> <MFCDNUMBER>
MFCD27563267

> <CLNUMBER>
CM0145

> <STEREO>
ACHIRAL

> <State>
Solid

> <Similarity score>
0.25

$$$$
5-[(4-methoxyphenyl)acetyl]-N,N-dimethyl-4,5,6,7-tetrahydropyrazolo[1,5-a]pyrazi
  -OEChem-04222410502D

 25 27  0     0  0  0  0  0  0999 V2000
    3.0650    1.4273    0.0000 C   0  0  0  0  0  0  0  0  0  0  0  0
    3.4734    0.5105    0.0000 N   0  0  0  0  0  0  0  0  0  0  0  0
    1.8649    0.3438    0.0000 C   0  0  0  0  0  0  0  0  0  0  0  0
    2.7274   -0.1562    0.0000 N   0  0  0  0  0  0  0  0  0  0  0  0
    2.0691    1.3231    0.0000 C   0  0  0  0  0  0  0  0  0  0  0  0
    0.9980   -1.1564    0.0000 N   0  0  0  0  0  0  0  0  0  0  0  0
    3.5651    2.2899    0.0000 C   0  0  0  0  0  0  0  0  0  0  0  0
    0.1314   -1.6566    0.0000 C   0  0  0  0  0  0  0  0  0  0  0  0
    0.9980   -0.1562    0.0000 C   0  0  0  0  0  0  0  0  0  0  0  0
    2.7274   -1.1564    0.0000 C   0  0  0  0  0  0  0  0  0  0  0  0
    4.5653    2.2899    0.0000 N   0  0  0  0  0  0  0  0  0  0  0  0
    1.8649   -1.6566    0.0000 C   0  0  0  0  0  0  0  0  0  0  0  0
   -0.7356   -1.1564    0.0000 C   0  0  0  0  0  0  0  0  0  0  0  0
    3.0650    3.1567    0.0000 O   0  0  0  0  0  0  0  0  0  0  0  0
    0.1314   -2.6565    0.0000 O   0  0  0  0  0  0  0  0  0  0  0  0
   -1.6023   -1.6566    0.0000 C   0  0  0  0  0  0  0  0  0  0  0  0
   -3.3357   -2.6565    0.0000 C   0  0  0  0  0  0  0  0  0  0  0  0
   -1.6023   -2.6565    0.0000 C   0  0  0  0  0  0  0  0  0  0  0  0
   -2.4689   -1.1564    0.0000 C   0  0  0  0  0  0  0  0  0  0  0  0
   -3.3357   -1.6566    0.0000 C   0  0  0  0  0  0  0  0  0  0  0  0
   -2.4689   -3.1567    0.0000 C   0  0  0  0  0  0  0  0  0  0  0  0
   -4.1984   -3.1567    0.0000 O   0  0  0  0  0  0  0  0  0  0  0  0
    5.0651    1.4273    0.0000 C   0  0  0  0  0  0  0  0  0  0  0  0
    5.0651    3.1567    0.0000 C   0  0  0  0  0  0  0  0  0  0  0  0
   -5.0651   -2.6565    0.0000 C   0  0  0  0  0  0  0  0  0  0  0  0
  1  2  2  0  0  0  0
  3  5  2  0  0  0  0
  3  4  1  0  0  0  0
  2  4  1  0  0  0  0
  1  5  1  0  0  0  0
  6  9  1  0  0  0  0
  1  7  1  0  0  0  0
  6  8  1  0  0  0  0
  3  9  1  0  0  0  0
  4 10  1  0  0  0  0
  7 11  1  0  0  0  0
 10 12  1  0  0  0  0
  6 12  1  0  0  0  0
  8 13  1  0  0  0  0
  7 14  2  0  0  0  0
  8 15  2  0  0  0  0
 13 16  1  0  0  0  0
 17 20  1  0  0  0  0
 17 21  2  0  0  0  0
 16 18  2  0  0  0  0
 16 19  1  0  0  0  0
 19 20  2  0  0  0  0
 18 21  1  0  0  0  0
 17 22  1  0  0  0  0
 11 23  1  0  0  0  0
 11 24  1  0  0  0  0
 22 25  1  0  0  0  0
M  END
> <IDNUMBER>
SB71-0095

> <available>
116

> <H_acceptor>
6

> <H_donor>
0

> <B_rotN>
6

> <N_O>
7

> <logP>
0.3961

> <logD>
0.3961

> <logSw>
-1.7386

> <PSA>
53.375

> <pKa_ma>
17.626

> <pKa_mb>
-2.791

> <N_Chirals>
0

> <Name>
5-[(4-methoxyphenyl)acetyl]-N,N-dimethyl-4,5,6,7-tetrahydropyrazolo[1,5-a]pyrazine-2-carboxamide

> <Smile>
CN(C)C(c1nn(CCN(C2)C(Cc(cc3)ccc3OC)=O)c2c1)=O

> <Color>
YELLOW

> <Collection>
IC

> <InChI>
InChI=1S/C18H22N4O3/c1-20(2)18(24)16-11-14-12-21(8-9-22(14)19-16)17(23)10-13-4-6-15(25-3)7-5-13/h4-7,11H,8-10,12H2,1-3H3

> <InChI Key>
CXAYIQJBOBSTCX-UHFFFAOYSA-N

> <PERCENTSP3>
38.89

> <Link>
https://www.chemdiv.com/catalog/screening-compounds/compound-SB71-0095/

> <MFCDNUMBER>
MFCD32249284

> <CLNUMBER>
CM5543

> <STEREO>
ACHIRAL

> <State>
Liquid

> <Similarity score>
0.25

$$$$
N-(2-ethylphenyl)-4,5,6,7-tetrahydropyrazolo[1,5-a]pyridine-2-carboxamide
  -OEChem-04222410502D

 20 22  0     0  0  0  0  0  0999 V2000
   -0.6146   -0.0021    0.0000 C   0  0  0  0  0  0  0  0  0  0  0  0
   -1.2060   -0.8103    0.0000 N   0  0  0  0  0  0  0  0  0  0  0  0
   -2.1518   -0.4978    0.0000 N   0  0  0  0  0  0  0  0  0  0  0  0
   -1.2060    0.8063    0.0000 C   0  0  0  0  0  0  0  0  0  0  0  0
    0.3855   -0.0021    0.0000 C   0  0  0  0  0  0  0  0  0  0  0  0
   -2.1518    0.4979    0.0000 C   0  0  0  0  0  0  0  0  0  0  0  0
    0.8853   -0.8687    0.0000 N   0  0  0  0  0  0  0  0  0  0  0  0
    1.8894   -0.8687    0.0000 C   0  0  0  0  0  0  0  0  0  0  0  0
    0.8853    0.8645    0.0000 O   0  0  0  0  0  0  0  0  0  0  0  0
    2.3851   -0.0021    0.0000 C   0  0  0  0  0  0  0  0  0  0  0  0
   -3.0269   -1.0061    0.0000 C   0  0  0  0  0  0  0  0  0  0  0  0
   -3.0269    1.0061    0.0000 C   0  0  0  0  0  0  0  0  0  0  0  0
    2.3851   -1.7311    0.0000 C   0  0  0  0  0  0  0  0  0  0  0  0
    1.8894    0.8645    0.0000 C   0  0  0  0  0  0  0  0  0  0  0  0
    3.3893   -0.0021    0.0000 C   0  0  0  0  0  0  0  0  0  0  0  0
   -3.8850   -0.4978    0.0000 C   0  0  0  0  0  0  0  0  0  0  0  0
   -3.8850    0.4979    0.0000 C   0  0  0  0  0  0  0  0  0  0  0  0
    2.3851    1.7311    0.0000 C   0  0  0  0  0  0  0  0  0  0  0  0
    3.3893   -1.7311    0.0000 C   0  0  0  0  0  0  0  0  0  0  0  0
    3.8850   -0.8687    0.0000 C   0  0  0  0  0  0  0  0  0  0  0  0
  1  2  2  0  0  0  0
  2  3  1  0  0  0  0
  3  6  1  0  0  0  0
  1  4  1  0  0  0  0
  1  5  1  0  0  0  0
  4  6  2  0  0  0  0
  5  7  1  0  0  0  0
  7  8  1  0  0  0  0
  5  9  2  0  0  0  0
  8 10  2  0  0  0  0
  3 11  1  0  0  0  0
  6 12  1  0  0  0  0
  8 13  1  0  0  0  0
 10 14  1  0  0  0  0
 10 15  1  0  0  0  0
 11 16  1  0  0  0  0
 16 17  1  0  0  0  0
 12 17  1  0  0  0  0
 14 18  1  0  0  0  0
 13 19  2  0  0  0  0
 19 20  1  0  0  0  0
 15 20  2  0  0  0  0
M  END
> <IDNUMBER>
P078-0372

> <available>
1

> <H_acceptor>
3

> <H_donor>
1

> <B_rotN>
4

> <N_O>
4

> <logP>
3.0258

> <logD>
3.0258

> <logSw>
-3.2834

> <PSA>
36.361

> <pKa_ma>
12.4106

> <pKa_mb>
1.0431

> <N_Chirals>
0

> <Name>
N-(2-ethylphenyl)-4,5,6,7-tetrahydropyrazolo[1,5-a]pyridine-2-carboxamide

> <Smile>
CCc(cccc1)c1NC(c1nn(CCCC2)c2c1)=O

> <Color>
ORANGE

> <Collection>
NC

> <InChI>
InChI=1S/C16H19N3O/c1-2-12-7-3-4-9-14(12)17-16(20)15-11-13-8-5-6-10-19(13)18-15/h3-4,7,9,11H,2,5-6,8,10H2,1H3,(H,17,20)

> <InChI Key>
LWVRNRXWWPNCBJ-UHFFFAOYSA-N

> <PERCENTSP3>
37.5

> <Link>
https://www.chemdiv.com/catalog/screening-compounds/compound-P078-0372/

> <MFCDNUMBER>
MFCD27563272

> <CLNUMBER>
CM0145

> <STEREO>
ACHIRAL

> <State>
Solid

> <Similarity score>
0.25

$$$$
[2-(3,4-dihydroisoquinoline-2(1H)-carbonyl)-6,7-dihydropyrazolo[1,5-a]pyrazin-5(
  -OEChem-04222410502D

 31 35  0     0  0  0  0  0  0999 V2000
   -1.1338    0.7441    0.0000 C   0  0  0  0  0  0  0  0  0  0  0  0
   -1.5424   -0.1730    0.0000 N   0  0  0  0  0  0  0  0  0  0  0  0
    0.0667   -0.3397    0.0000 C   0  0  0  0  0  0  0  0  0  0  0  0
   -0.7962   -0.8401    0.0000 N   0  0  0  0  0  0  0  0  0  0  0  0
   -0.1418    0.6356    0.0000 C   0  0  0  0  0  0  0  0  0  0  0  0
   -1.6340    1.6069    0.0000 C   0  0  0  0  0  0  0  0  0  0  0  0
    0.9338   -1.8403    0.0000 N   0  0  0  0  0  0  0  0  0  0  0  0
   -2.6344    1.6069    0.0000 N   0  0  0  0  0  0  0  0  0  0  0  0
    1.8009   -2.3407    0.0000 C   0  0  0  0  0  0  0  0  0  0  0  0
    0.9338   -0.8401    0.0000 C   0  0  0  0  0  0  0  0  0  0  0  0
    2.6680   -1.8403    0.0000 C   0  0  0  0  0  0  0  0  0  0  0  0
   -3.1348    2.4740    0.0000 C   0  0  0  0  0  0  0  0  0  0  0  0
   -0.7962   -1.8403    0.0000 C   0  0  0  0  0  0  0  0  0  0  0  0
    3.5349   -0.3397    0.0000 N   0  0  0  0  0  0  0  0  0  0  0  0
   -4.1352    2.4740    0.0000 C   0  0  0  0  0  0  0  0  0  0  0  0
    0.0667   -2.3407    0.0000 C   0  0  0  0  0  0  0  0  0  0  0  0
   -3.1348    0.7441    0.0000 C   0  0  0  0  0  0  0  0  0  0  0  0
    2.6680   -0.8401    0.0000 C   0  0  0  0  0  0  0  0  0  0  0  0
    4.4020   -0.8401    0.0000 C   0  0  0  0  0  0  0  0  0  0  0  0
   -1.1338    2.4740    0.0000 O   0  0  0  0  0  0  0  0  0  0  0  0
    1.8009   -3.3411    0.0000 O   0  0  0  0  0  0  0  0  0  0  0  0
   -4.6354    1.6069    0.0000 C   0  0  0  0  0  0  0  0  0  0  0  0
    3.5349   -2.3407    0.0000 C   0  0  0  0  0  0  0  0  0  0  0  0
   -4.1352    0.7441    0.0000 C   0  0  0  0  0  0  0  0  0  0  0  0
    4.4020   -1.8403    0.0000 C   0  0  0  0  0  0  0  0  0  0  0  0
    5.2648   -0.3397    0.0000 O   0  0  0  0  0  0  0  0  0  0  0  0
   -4.6354    3.3411    0.0000 C   0  0  0  0  0  0  0  0  0  0  0  0
   -5.6358    1.6069    0.0000 C   0  0  0  0  0  0  0  0  0  0  0  0
    6.1319   -0.8401    0.0000 C   0  0  0  0  0  0  0  0  0  0  0  0
   -5.6358    3.3411    0.0000 C   0  0  0  0  0  0  0  0  0  0  0  0
   -6.1319    2.4740    0.0000 C   0  0  0  0  0  0  0  0  0  0  0  0
  1  2  2  0  0  0  0
  3  5  2  0  0  0  0
  3  4  1  0  0  0  0
  2  4  1  0  0  0  0
  1  5  1  0  0  0  0
  1  6  1  0  0  0  0
  7 10  1  0  0  0  0
  6  8  1  0  0  0  0
  7  9  1  0  0  0  0
  3 10  1  0  0  0  0
  9 11  1  0  0  0  0
  8 12  1  0  0  0  0
  4 13  1  0  0  0  0
 14 18  1  0  0  0  0
 14 19  2  0  0  0  0
 12 15  1  0  0  0  0
 13 16  1  0  0  0  0
  7 16  1  0  0  0  0
  8 17  1  0  0  0  0
 11 18  2  0  0  0  0
 19 25  1  0  0  0  0
  6 20  2  0  0  0  0
  9 21  2  0  0  0  0
 22 24  1  0  0  0  0
 15 22  2  0  0  0  0
 11 23  1  0  0  0  0
 17 24  1  0  0  0  0
 23 25  2  0  0  0  0
 19 26  1  0  0  0  0
 15 27  1  0  0  0  0
 22 28  1  0  0  0  0
 26 29  1  0  0  0  0
 27 30  2  0  0  0  0
 28 31  2  0  0  0  0
 30 31  1  0  0  0  0
M  END
> <IDNUMBER>
SB71-0398

> <available>
7

> <H_acceptor>
7

> <H_donor>
0

> <B_rotN>
5

> <N_O>
8

> <logP>
1.8542

> <logD>
1.8542

> <logSw>
-2.2527

> <PSA>
63.25

> <pKa_ma>
25.6071

> <pKa_mb>
0.7412

> <N_Chirals>
0

> <Name>
[2-(3,4-dihydroisoquinoline-2(1H)-carbonyl)-6,7-dihydropyrazolo[1,5-a]pyrazin-5(4H)-yl](6-methoxypyridin-3-yl)methanone

> <Smile>
COc(cc1)ncc1C(N1Cc2cc(C(N(CC3)Cc4c3cccc4)=O)nn2CC1)=O

> <Color>
NOT COLORED

> <Collection>
IC

> <InChI>
InChI=1S/C23H23N5O3/c1-31-21-7-6-17(13-24-21)22(29)27-10-11-28-19(15-27)12-20(25-28)23(30)26-9-8-16-4-2-3-5-18(16)14-26/h2-7,12-13H,8-11,14-15H2,1H3

> <InChI Key>
FYQDMUYLSYICIR-UHFFFAOYSA-N

> <PERCENTSP3>
30.43

> <Link>
https://www.chemdiv.com/catalog/screening-compounds/compound-SB71-0398/

> <MFCDNUMBER>
MFCD32249542

> <CLNUMBER>
CM5543

> <STEREO>
ACHIRAL

> <State>
Solid

> <Similarity score>
0.25

$$$$
