
  -OEChem-04222410502D

 25 28  0     0  0  0  0  0  0999 V2000
    5.3167   -7.0917    0.0000 C   0  0  0  0  0  0  0  0  0  0  0  0
    6.0250   -8.3292    0.0000 C   0  0  0  0  0  0  0  0  0  0  0  0
    5.3042   -6.2667    0.0000 N   0  0  3  0  0  0  0  0  0  0  0  0
    4.6000   -7.5042    0.0000 N   0  0  0  0  0  0  0  0  0  0  0  0
    6.7417   -8.7500    0.0000 C   0  0  0  0  0  0  0  0  0  0  0  0
    6.0250   -7.5000    0.0000 C   0  0  0  0  0  0  0  0  0  0  0  0
    5.3167   -8.7500    0.0000 N   0  0  0  0  0  0  0  0  0  0  0  0
    7.4542   -8.3292    0.0000 N   0  0  3  0  0  0  0  0  0  0  0  0
    4.6000   -8.3292    0.0000 C   0  0  0  0  0  0  0  0  0  0  0  0
    4.5917   -5.8667    0.0000 C   0  0  0  0  0  0  0  0  0  0  0  0
    4.5917   -5.0417    0.0000 C   0  0  0  0  0  0  0  0  0  0  0  0
    6.0250   -5.8542    0.0000 C   0  0  0  0  0  0  0  0  0  0  0  0
    6.7417   -9.5750    0.0000 O   0  0  0  0  0  0  0  0  0  0  0  0
    5.3000   -4.6250    0.0000 C   0  0  0  0  0  0  0  0  0  0  0  0
    6.0250   -5.0417    0.0000 C   0  0  0  0  0  0  0  0  0  0  0  0
    8.8792   -7.5167    0.0000 O   0  0  0  0  0  0  0  0  0  0  0  0
    8.1667   -8.7500    0.0000 C   0  0  0  0  0  0  0  0  0  0  0  0
    7.4500   -7.5042    0.0000 C   0  0  0  0  0  0  0  0  0  0  0  0
    3.8750   -8.7500    0.0000 C   0  0  0  0  0  0  0  0  0  0  0  0
    3.8792   -4.6250    0.0000 C   0  0  0  0  0  0  0  0  0  0  0  0
    8.8750   -8.3417    0.0000 C   0  0  0  0  0  0  0  0  0  0  0  0
    8.1667   -7.1000    0.0000 C   0  0  0  0  0  0  0  0  0  0  0  0
    5.3000   -3.8000    0.0000 C   0  0  0  0  0  0  0  0  0  0  0  0
    3.8750   -3.8042    0.0000 C   0  0  0  0  0  0  0  0  0  0  0  0
    4.5917   -3.3917    0.0000 C   0  0  0  0  0  0  0  0  0  0  0  0
  2  6  1  0  0  0  0
  1  3  1  0  0  0  0
  1  4  1  0  0  0  0
  2  5  1  0  0  0  0
  1  6  2  0  0  0  0
  2  7  2  0  0  0  0
  5  8  1  0  0  0  0
  4  9  2  0  0  0  0
  3 10  1  0  0  0  0
 10 11  1  0  0  0  0
  3 12  1  0  0  0  0
  5 13  2  0  0  0  0
 14 15  1  0  0  0  0
 12 15  1  0  0  0  0
 16 22  1  0  0  0  0
  8 17  1  0  0  0  0
  8 18  1  0  0  0  0
  9 19  1  0  0  0  0
 11 20  1  0  0  0  0
 17 21  1  0  0  0  0
 18 22  1  0  0  0  0
 14 23  1  0  0  0  0
 20 24  2  0  0  0  0
 23 25  2  0  0  0  0
  7  9  1  0  0  0  0
 11 14  2  0  0  0  0
 16 21  1  0  0  0  0
 24 25  1  0  0  0  0
M  END
> <MOLFORMULA>
C19 H22 N4 O2

> <MOLWEIGHT>
3.384088000000000e+002

> <IDNUMBER>
AT-687/SK07439

> <PRICE>
EUR 80/10 mg

> <Similarity score>
0.23

$$$$

  -OEChem-04222410502D

 32 35  0     0  0  0  0  0  0999 V2000
    6.4792    1.6083    0.0000 N   0  0  3  0  0  0  0  0  0  0  0  0
    7.0667    0.7958    0.0000 C   0  0  0  0  0  0  0  0  0  0  0  0
    5.6667   -0.2167    0.0000 C   0  0  0  0  0  0  0  0  0  0  0  0
    6.6625   -0.1167    0.0000 N   0  0  0  0  0  0  0  0  0  0  0  0
    5.4792    1.5000    0.0000 C   0  0  0  0  0  0  0  0  0  0  0  0
    5.2625   -1.1375    0.0000 N   0  0  0  0  0  0  0  0  0  0  0  0
    5.0792    0.5833    0.0000 C   0  0  0  0  0  0  0  0  0  0  0  0
    2.4542   -3.1792    0.0000 C   0  0  0  0  0  0  0  0  0  0  0  0
    4.2667   -1.2417    0.0000 C   0  0  0  0  0  0  0  0  0  0  0  0
    2.9625   -4.0542    0.0000 N   0  0  3  0  0  0  0  0  0  0  0  0
    2.2917   -4.7875    0.0000 N   0  0  0  0  0  0  0  0  0  0  0  0
    6.9667    2.7083    0.0000 C   0  0  0  0  0  0  0  0  0  0  0  0
    1.4792   -3.3875    0.0000 C   0  0  0  0  0  0  0  0  0  0  0  0
    3.6792   -0.4292    0.0000 N   0  0  0  0  0  0  0  0  0  0  0  0
    3.8625   -2.1542    0.0000 N   0  0  3  0  0  0  0  0  0  0  0  0
    4.0792    0.4750    0.0000 C   0  0  0  0  0  0  0  0  0  0  0  0
    1.3792   -4.3917    0.0000 C   0  0  0  0  0  0  0  0  0  0  0  0
    2.8625   -2.2667    0.0000 C   0  0  0  0  0  0  0  0  0  0  0  0
    6.3792    3.5083    0.0000 C   0  0  0  0  0  0  0  0  0  0  0  0
    8.0625    0.8958    0.0000 O   0  0  0  0  0  0  0  0  0  0  0  0
    5.1292    1.9833    0.0000 O   0  0  0  0  0  0  0  0  0  0  0  0
    6.7875    4.4167    0.0000 C   0  0  0  0  0  0  0  0  0  0  0  0
    7.7792    4.5292    0.0000 F   0  0  0  0  0  0  0  0  0  0  0  0
    3.9542   -4.1542    0.0000 C   0  0  0  0  0  0  0  0  0  0  0  0
    5.3875    3.4083    0.0000 C   0  0  0  0  0  0  0  0  0  0  0  0
    4.4417   -2.9625    0.0000 C   0  0  0  0  0  0  0  0  0  0  0  0
    0.5167   -4.8917    0.0000 C   0  0  0  0  0  0  0  0  0  0  0  0
    6.1917    5.2292    0.0000 C   0  0  0  0  0  0  0  0  0  0  0  0
    4.3625   -5.0792    0.0000 C   0  0  0  0  0  0  0  0  0  0  0  0
    4.8000    4.2042    0.0000 C   0  0  0  0  0  0  0  0  0  0  0  0
    5.3500   -5.1792    0.0000 C   0  0  0  0  0  0  0  0  0  0  0  0
    5.2000    5.1167    0.0000 C   0  0  0  0  0  0  0  0  0  0  0  0
  1  2  1  0  0  0  0
  3  7  2  0  0  0  0
  2  4  1  0  0  0  0
  1  5  1  0  0  0  0
  3  6  1  0  0  0  0
  5  7  1  0  0  0  0
  8 18  1  0  0  0  0
  9 14  1  0  0  0  0
  8 10  1  0  0  0  0
 10 11  1  0  0  0  0
  1 12  1  0  0  0  0
  8 13  2  0  0  0  0
 14 16  2  0  0  0  0
  9 15  1  0  0  0  0
  7 16  1  0  0  0  0
 13 17  1  0  0  0  0
 15 18  1  0  0  0  0
 12 19  1  0  0  0  0
  2 20  2  0  0  0  0
  5 21  2  0  0  0  0
 19 22  2  0  0  0  0
 22 23  1  0  0  0  0
 10 24  1  0  0  0  0
 19 25  1  0  0  0  0
 15 26  1  0  0  0  0
 17 27  1  0  0  0  0
 22 28  1  0  0  0  0
 24 29  1  0  0  0  0
 25 30  2  0  0  0  0
 29 31  1  0  0  0  0
 30 32  1  0  0  0  0
  3  4  1  0  0  0  0
 28 32  2  0  0  0  0
  6  9  2  0  0  0  0
 11 17  2  0  0  0  0
M  END
> <MOLFORMULA>
C22 H24 F N7 O2

> <MOLWEIGHT>
4.374766000000000e+002

> <IDNUMBER>
AT-687/PE12749

> <PRICE>
EUR 80/10 mg

> <Similarity score>
0.23

$$$$

  -OEChem-04222410502D

 21 23  0     0  0  0  0  0  0999 V2000
    3.3042   -3.2792    0.0000 C   0  0  0  0  0  0  0  0  0  0  0  0
    4.0917   -2.2417    0.0000 N   0  0  0  0  0  0  0  0  0  0  0  0
    5.3500   -2.6500    0.0000 N   0  0  3  0  0  0  0  0  0  0  0  0
    5.3500   -3.9792    0.0000 C   0  0  0  0  0  0  0  0  0  0  0  0
    4.0917   -4.3917    0.0000 C   0  0  0  0  0  0  0  0  0  0  0  0
    1.9792   -3.2750    0.0000 C   0  0  0  0  0  0  0  0  0  0  0  0
    6.5000   -1.9750    0.0000 C   0  0  0  0  0  0  0  0  0  0  0  0
    7.6500   -3.9792    0.0000 O   0  0  0  0  0  0  0  0  0  0  0  0
    7.6500   -2.6500    0.0000 C   0  0  3  0  0  0  0  0  0  0  0  0
    6.5000   -4.6292    0.0000 C   0  0  0  0  0  0  0  0  0  0  0  0
    1.3292   -2.1250    0.0000 N   0  0  3  0  0  0  0  0  0  0  0  0
    8.8000   -1.9750    0.0000 C   0  0  0  0  0  0  0  0  0  0  0  0
    1.3042   -4.4417    0.0000 O   0  0  0  0  0  0  0  0  0  0  0  0
    8.8000   -0.6500    0.0000 C   0  0  0  0  0  0  0  0  0  0  0  0
    9.9500   -2.6500    0.0000 C   0  0  0  0  0  0  0  0  0  0  0  0
   11.1000   -0.6500    0.0000 C   0  0  0  0  0  0  0  0  0  0  0  0
   11.1000   -1.9750    0.0000 C   0  0  0  0  0  0  0  0  0  0  0  0
    9.9417   -0.0000    0.0000 C   0  0  0  0  0  0  0  0  0  0  0  0
   12.2667   -0.0000    0.0000 Br  0  0  0  0  0  0  0  0  0  0  0  0
    0.0000   -2.1000    0.0000 C   0  0  0  0  0  0  0  0  0  0  0  0
    2.0042   -0.9750    0.0000 C   0  0  0  0  0  0  0  0  0  0  0  0
  1  2  2  0  0  0  0
  2  3  1  0  0  0  0
  4  5  2  0  0  0  0
  1  5  1  0  0  0  0
  1  6  1  0  0  0  0
  3  7  1  0  0  0  0
  8 10  1  0  0  0  0
  7  9  1  0  0  0  0
  4 10  1  0  0  0  0
  6 11  1  0  0  0  0
  9 12  1  0  0  0  0
  6 13  2  0  0  0  0
 12 14  1  0  0  0  0
 12 15  2  0  0  0  0
 16 17  2  0  0  0  0
 15 17  1  0  0  0  0
 14 18  2  0  0  0  0
 16 19  1  0  0  0  0
 11 20  1  0  0  0  0
 11 21  1  0  0  0  0
  3  4  1  0  0  0  0
  8  9  1  0  0  0  0
 16 18  1  0  0  0  0
M  END
> <MOLFORMULA>
C15 H16 Br N3 O2

> <MOLWEIGHT>
3.502144000000000e+002

> <IDNUMBER>
AT-687/PE21175

> <PRICE>
EUR 80/10 mg

> <Similarity score>
0.23

$$$$

  -OEChem-04222410502D

 33 36  0     0  0  0  0  0  0999 V2000
   -1.0375   -1.9250    0.0000 C   0  0  0  0  0  0  0  0  0  0  0  0
   -2.3500   -0.9792    0.0000 C   0  0  0  0  0  0  0  0  0  0  0  0
   -1.3500   -0.9750    0.0000 C   0  0  0  0  0  0  0  0  0  0  0  0
   -1.8500   -2.5167    0.0000 N   0  0  3  0  0  0  0  0  0  0  0  0
   -2.6583   -1.9250    0.0000 N   0  0  0  0  0  0  0  0  0  0  0  0
   -0.0750   -2.1750    0.0000 C   0  0  0  0  0  0  0  0  0  0  0  0
    0.3250   -3.1000    0.0000 N   0  0  3  0  0  0  0  0  0  0  0  0
   -2.9500   -0.1750    0.0000 C   0  0  0  0  0  0  0  0  0  0  0  0
    1.8500   -2.3000    0.0000 C   0  0  0  0  0  0  0  0  0  0  0  0
    1.3250   -3.1417    0.0000 C   0  0  0  0  0  0  0  0  0  0  0  0
    2.8667   -2.3292    0.0000 N   0  0  3  0  0  0  0  0  0  0  0  0
   -2.5583    0.7375    0.0000 N   0  0  0  0  0  0  0  0  0  0  0  0
   -3.3500    3.2583    0.0000 C   0  0  0  0  0  0  0  0  0  0  0  0
   -2.7500    2.4583    0.0000 C   0  0  0  0  0  0  0  0  0  0  0  0
    0.5792   -1.4042    0.0000 O   0  0  0  0  0  0  0  0  0  0  0  0
   -3.1500    1.5333    0.0000 C   0  0  0  0  0  0  0  0  0  0  0  0
    1.4000   -1.4042    0.0000 O   0  0  0  0  0  0  0  0  0  0  0  0
   -4.3500    3.1500    0.0000 C   0  0  0  0  0  0  0  0  0  0  0  0
   -3.9583   -0.2792    0.0000 O   0  0  0  0  0  0  0  0  0  0  0  0
    3.3917   -1.4917    0.0000 C   0  0  0  0  0  0  0  0  0  0  0  0
   -4.7500    2.2333    0.0000 C   0  0  0  0  0  0  0  0  0  0  0  0
   -1.8833   -3.5167    0.0000 C   0  0  0  0  0  0  0  0  0  0  0  0
   -0.1500   -3.9750    0.0000 C   0  0  0  0  0  0  0  0  0  0  0  0
   -1.1250   -4.1667    0.0000 C   0  0  0  0  0  0  0  0  0  0  0  0
   -2.9375    4.1667    0.0000 Cl  0  0  0  0  0  0  0  0  0  0  0  0
   -4.1583    1.4250    0.0000 C   0  0  0  0  0  0  0  0  0  0  0  0
   -4.9333    3.9583    0.0000 F   0  0  0  0  0  0  0  0  0  0  0  0
    3.3250   -3.2250    0.0000 C   0  0  0  0  0  0  0  0  0  0  0  0
    4.3917   -1.5417    0.0000 C   0  0  0  0  0  0  0  0  0  0  0  0
    2.9250   -0.6042    0.0000 C   0  0  0  0  0  0  0  0  0  0  0  0
    3.4500    0.2250    0.0000 C   0  0  0  0  0  0  0  0  0  0  0  0
    4.9250   -0.6917    0.0000 C   0  0  0  0  0  0  0  0  0  0  0  0
    4.4542    0.2000    0.0000 C   0  0  0  0  0  0  0  0  0  0  0  0
  2  3  1  0  0  0  0
  1  3  2  0  0  0  0
  1  4  1  0  0  0  0
  4  5  1  0  0  0  0
  1  6  1  0  0  0  0
  6  7  1  0  0  0  0
  2  8  1  0  0  0  0
  9 10  1  0  0  0  0
  7 10  1  0  0  0  0
  9 11  1  0  0  0  0
  8 12  1  0  0  0  0
 13 14  1  0  0  0  0
 14 16  2  0  0  0  0
  6 15  2  0  0  0  0
 12 16  1  0  0  0  0
  9 17  2  0  0  0  0
 18 21  1  0  0  0  0
  8 19  2  0  0  0  0
 11 20  1  0  0  0  0
 21 26  2  0  0  0  0
  4 22  1  0  0  0  0
  7 23  1  0  0  0  0
 22 24  1  0  0  0  0
 13 25  1  0  0  0  0
 16 26  1  0  0  0  0
 18 27  1  0  0  0  0
 11 28  1  0  0  0  0
 20 29  1  0  0  0  0
 20 30  2  0  0  0  0
 30 31  1  0  0  0  0
 29 32  2  0  0  0  0
 31 33  2  0  0  0  0
  2  5  2  0  0  0  0
 23 24  1  0  0  0  0
 13 18  2  0  0  0  0
 32 33  1  0  0  0  0
M  END
> <MOLFORMULA>
C23 H21 Cl F N5 O3

> <MOLWEIGHT>
4.699019000000000e+002

> <IDNUMBER>
AT-687/PE30347

> <PRICE>
EUR 80/10 mg

> <Similarity score>
0.22

$$$$

  -OEChem-04222410502D

 28 32  0     0  0  0  0  0  0999 V2000
    7.4250   -3.3042    0.0000 C   0  0  0  0  0  0  0  0  0  0  0  0
    9.4750   -2.6250    0.0000 N   0  0  3  0  0  0  0  0  0  0  0  0
    8.2000   -2.2250    0.0000 N   0  0  0  0  0  0  0  0  0  0  0  0
    9.4750   -3.9667    0.0000 C   0  0  0  0  0  0  0  0  0  0  0  0
    8.2167   -4.3917    0.0000 C   0  0  0  0  0  0  0  0  0  0  0  0
    6.1000   -3.3042    0.0000 C   0  0  0  0  0  0  0  0  0  0  0  0
   10.6417   -1.9667    0.0000 C   0  0  0  0  0  0  0  0  0  0  0  0
   11.8000   -3.9667    0.0000 O   0  0  0  0  0  0  0  0  0  0  0  0
    5.4250   -2.1750    0.0000 N   0  0  0  0  0  0  0  0  0  0  0  0
   11.8000   -2.6250    0.0000 C   0  0  3  0  0  0  0  0  0  0  0  0
   10.6417   -4.6250    0.0000 C   0  0  0  0  0  0  0  0  0  0  0  0
    2.1000   -1.0250    0.0000 C   0  0  0  0  0  0  0  0  0  0  0  0
    4.1167   -2.1750    0.0000 C   0  0  0  0  0  0  0  0  0  0  0  0
   12.9417   -1.9667    0.0000 C   0  0  0  0  0  0  0  0  0  0  0  0
    5.4417   -4.4750    0.0000 O   0  0  0  0  0  0  0  0  0  0  0  0
    3.4042   -1.0250    0.0000 C   0  0  0  0  0  0  0  0  0  0  0  0
    1.4417   -2.2042    0.0000 C   0  0  0  0  0  0  0  0  0  0  0  0
    2.1167   -3.3417    0.0000 C   0  0  0  0  0  0  0  0  0  0  0  0
   12.9417   -0.6500    0.0000 C   0  0  0  0  0  0  0  0  0  0  0  0
   14.0917   -2.6417    0.0000 C   0  0  0  0  0  0  0  0  0  0  0  0
    3.4250   -3.3417    0.0000 C   0  0  0  0  0  0  0  0  0  0  0  0
   15.2417   -0.6500    0.0000 C   0  0  0  0  0  0  0  0  0  0  0  0
   14.1042   -0.0000    0.0000 C   0  0  0  0  0  0  0  0  0  0  0  0
   15.2417   -1.9750    0.0000 C   0  0  0  0  0  0  0  0  0  0  0  0
   16.4000   -0.0000    0.0000 Cl  0  0  0  0  0  0  0  0  0  0  0  0
    1.1917   -0.0542    0.0000 C   0  0  0  0  0  0  0  0  0  0  0  0
    0.0000   -0.6167    0.0000 C   0  0  0  0  0  0  0  0  0  0  0  0
    0.1250   -1.9250    0.0000 C   0  0  0  0  0  0  0  0  0  0  0  0
  2  3  1  0  0  0  0
  1  3  2  0  0  0  0
  4  5  2  0  0  0  0
  1  5  1  0  0  0  0
  1  6  1  0  0  0  0
  2  7  1  0  0  0  0
  8 11  1  0  0  0  0
  6  9  1  0  0  0  0
  7 10  1  0  0  0  0
  4 11  1  0  0  0  0
 12 16  1  0  0  0  0
  9 13  1  0  0  0  0
 10 14  1  0  0  0  0
  6 15  2  0  0  0  0
 13 16  2  0  0  0  0
 17 18  1  0  0  0  0
 18 21  2  0  0  0  0
 14 19  2  0  0  0  0
 14 20  1  0  0  0  0
 13 21  1  0  0  0  0
 22 24  1  0  0  0  0
 19 23  1  0  0  0  0
 20 24  2  0  0  0  0
 22 25  1  0  0  0  0
 12 26  1  0  0  0  0
 26 27  1  0  0  0  0
 17 28  1  0  0  0  0
  2  4  1  0  0  0  0
  8 10  1  0  0  0  0
 12 17  2  0  0  0  0
 27 28  1  0  0  0  0
 22 23  2  0  0  0  0
M  END
> <MOLFORMULA>
C22 H20 Cl N3 O2

> <MOLWEIGHT>
3.938720000000000e+002

> <IDNUMBER>
AT-687/PE21193

> <PRICE>
EUR 80/10 mg

> <Similarity score>
0.22

$$$$

  -OEChem-04222410502D

 27 30  0     0  0  0  0  0  0999 V2000
    7.3167   -3.4167    0.0000 C   0  0  0  0  0  0  0  0  0  0  0  0
    9.3500   -2.7292    0.0000 N   0  0  3  0  0  0  0  0  0  0  0  0
    8.1000   -2.3417    0.0000 N   0  0  0  0  0  0  0  0  0  0  0  0
    9.3667   -4.0667    0.0000 C   0  0  0  0  0  0  0  0  0  0  0  0
    8.1167   -4.5042    0.0000 C   0  0  0  0  0  0  0  0  0  0  0  0
    5.9750   -3.4292    0.0000 C   0  0  0  0  0  0  0  0  0  0  0  0
   10.5167   -2.0667    0.0000 C   0  0  0  0  0  0  0  0  0  0  0  0
   11.6667   -4.0667    0.0000 O   0  0  0  0  0  0  0  0  0  0  0  0
    5.3042   -2.2750    0.0000 N   0  0  0  0  0  0  0  0  0  0  0  0
   11.6667   -2.7292    0.0000 C   0  0  3  0  0  0  0  0  0  0  0  0
   10.5167   -4.7417    0.0000 C   0  0  0  0  0  0  0  0  0  0  0  0
    1.9792   -1.1500    0.0000 C   0  0  0  0  0  0  0  0  0  0  0  0
    3.9750   -2.2917    0.0000 C   0  0  0  0  0  0  0  0  0  0  0  0
   12.8250   -2.0750    0.0000 C   0  0  0  0  0  0  0  0  0  0  0  0
    1.3167   -2.3042    0.0000 C   0  0  0  0  0  0  0  0  0  0  0  0
    5.3042   -4.5917    0.0000 O   0  0  0  0  0  0  0  0  0  0  0  0
    3.2917   -1.1500    0.0000 C   0  0  0  0  0  0  0  0  0  0  0  0
    2.0000   -3.4500    0.0000 C   0  0  0  0  0  0  0  0  0  0  0  0
   12.8250   -0.7542    0.0000 C   0  0  0  0  0  0  0  0  0  0  0  0
   13.9667   -2.7500    0.0000 C   0  0  0  0  0  0  0  0  0  0  0  0
    3.2917   -3.4500    0.0000 C   0  0  0  0  0  0  0  0  0  0  0  0
   15.1417   -0.7542    0.0000 C   0  0  0  0  0  0  0  0  0  0  0  0
    0.0000   -2.3042    0.0000 F   0  0  0  0  0  0  0  0  0  0  0  0
   15.1250   -2.0750    0.0000 C   0  0  0  0  0  0  0  0  0  0  0  0
   13.9667   -0.0917    0.0000 C   0  0  0  0  0  0  0  0  0  0  0  0
   16.3000   -0.1042    0.0000 Cl  0  0  0  0  0  0  0  0  0  0  0  0
    1.3167   -0.0000    0.0000 C   0  0  0  0  0  0  0  0  0  0  0  0
  2  3  1  0  0  0  0
  1  3  2  0  0  0  0
  4  5  2  0  0  0  0
  1  5  1  0  0  0  0
  1  6  1  0  0  0  0
  2  7  1  0  0  0  0
  8 11  1  0  0  0  0
  6  9  1  0  0  0  0
  7 10  1  0  0  0  0
  4 11  1  0  0  0  0
 12 17  1  0  0  0  0
  9 13  1  0  0  0  0
 10 14  1  0  0  0  0
 15 18  1  0  0  0  0
  6 16  2  0  0  0  0
 13 17  2  0  0  0  0
 18 21  2  0  0  0  0
 14 19  2  0  0  0  0
 14 20  1  0  0  0  0
 13 21  1  0  0  0  0
 22 24  1  0  0  0  0
 15 23  1  0  0  0  0
 20 24  2  0  0  0  0
 19 25  1  0  0  0  0
 22 26  1  0  0  0  0
 12 27  1  0  0  0  0
  2  4  1  0  0  0  0
  8 10  1  0  0  0  0
 12 15  2  0  0  0  0
 22 25  2  0  0  0  0
M  END
> <MOLFORMULA>
C20 H17 Cl F N3 O2

> <MOLWEIGHT>
3.858243000000000e+002

> <IDNUMBER>
AT-687/PE21217

> <PRICE>
EUR 80/10 mg

> <Similarity score>
0.22

$$$$

  -OEChem-04222410502D

 28 32  0     0  0  0  0  0  0999 V2000
    5.9917   -4.6167    0.0000 C   0  0  0  0  0  0  0  0  0  0  0  0
    6.8750   -3.6417    0.0000 N   0  0  0  0  0  0  0  0  0  0  0  0
    8.1000   -4.1750    0.0000 N   0  0  3  0  0  0  0  0  0  0  0  0
    7.9542   -5.4792    0.0000 C   0  0  0  0  0  0  0  0  0  0  0  0
    6.6500   -5.7750    0.0000 C   0  0  0  0  0  0  0  0  0  0  0  0
    4.6667   -4.6167    0.0000 C   0  0  0  0  0  0  0  0  0  0  0  0
    3.9917   -3.4542    0.0000 N   0  0  3  0  0  0  0  0  0  0  0  0
    9.3000   -3.6250    0.0000 C   0  0  0  0  0  0  0  0  0  0  0  0
   10.2500   -5.7167    0.0000 O   0  0  0  0  0  0  0  0  0  0  0  0
    2.6500   -3.4542    0.0000 C   0  0  0  0  0  0  0  0  0  0  0  0
   10.3792   -4.4000    0.0000 C   0  0  3  0  0  0  0  0  0  0  0  0
    9.0417   -6.2667    0.0000 C   0  0  0  0  0  0  0  0  0  0  0  0
    1.9917   -2.3167    0.0000 C   0  0  0  0  0  0  0  0  0  0  0  0
    4.6500   -2.3167    0.0000 C   0  0  0  0  0  0  0  0  0  0  0  0
   11.5917   -3.8500    0.0000 C   0  0  0  0  0  0  0  0  0  0  0  0
    3.9917   -5.7750    0.0000 O   0  0  0  0  0  0  0  0  0  0  0  0
    2.6500   -1.1667    0.0000 C   0  0  0  0  0  0  0  0  0  0  0  0
    3.9917   -1.1667    0.0000 C   0  0  0  0  0  0  0  0  0  0  0  0
   11.7250   -2.5250    0.0000 C   0  0  0  0  0  0  0  0  0  0  0  0
   12.6750   -4.6167    0.0000 C   0  0  0  0  0  0  0  0  0  0  0  0
   14.0167   -2.7500    0.0000 C   0  0  0  0  0  0  0  0  0  0  0  0
   13.8750   -4.0667    0.0000 C   0  0  0  0  0  0  0  0  0  0  0  0
   12.9250   -1.9750    0.0000 C   0  0  0  0  0  0  0  0  0  0  0  0
   15.2500   -2.2000    0.0000 Cl  0  0  0  0  0  0  0  0  0  0  0  0
    0.6667   -2.3167    0.0000 C   0  0  0  0  0  0  0  0  0  0  0  0
    1.9917   -0.0000    0.0000 C   0  0  0  0  0  0  0  0  0  0  0  0
    0.0000   -1.1667    0.0000 C   0  0  0  0  0  0  0  0  0  0  0  0
    0.6667   -0.0000    0.0000 C   0  0  0  0  0  0  0  0  0  0  0  0
  1  2  2  0  0  0  0
  2  3  1  0  0  0  0
  4  5  2  0  0  0  0
  1  5  1  0  0  0  0
  1  6  1  0  0  0  0
  6  7  1  0  0  0  0
  3  8  1  0  0  0  0
  9 12  1  0  0  0  0
  7 10  1  0  0  0  0
  8 11  1  0  0  0  0
  4 12  1  0  0  0  0
 10 13  1  0  0  0  0
  7 14  1  0  0  0  0
 11 15  1  0  0  0  0
  6 16  2  0  0  0  0
 17 18  1  0  0  0  0
 14 18  1  0  0  0  0
 15 19  2  0  0  0  0
 15 20  1  0  0  0  0
 21 22  1  0  0  0  0
 20 22  2  0  0  0  0
 19 23  1  0  0  0  0
 21 24  1  0  0  0  0
 13 25  1  0  0  0  0
 17 26  1  0  0  0  0
 25 27  2  0  0  0  0
 26 28  2  0  0  0  0
  3  4  1  0  0  0  0
  9 11  1  0  0  0  0
 13 17  2  0  0  0  0
 27 28  1  0  0  0  0
 21 23  2  0  0  0  0
M  END
> <MOLFORMULA>
C22 H20 Cl N3 O2

> <MOLWEIGHT>
3.938720000000000e+002

> <IDNUMBER>
AT-687/PE21159

> <PRICE>
EUR 80/10 mg

> <Similarity score>
0.22

$$$$

  -OEChem-04222410502D

 27 30  0     0  0  0  0  0  0999 V2000
    7.3167   -3.4167    0.0000 C   0  0  0  0  0  0  0  0  0  0  0  0
    9.3500   -2.7292    0.0000 N   0  0  3  0  0  0  0  0  0  0  0  0
    8.1000   -2.3417    0.0000 N   0  0  0  0  0  0  0  0  0  0  0  0
    9.3667   -4.0667    0.0000 C   0  0  0  0  0  0  0  0  0  0  0  0
    8.1167   -4.5042    0.0000 C   0  0  0  0  0  0  0  0  0  0  0  0
    5.9750   -3.4292    0.0000 C   0  0  0  0  0  0  0  0  0  0  0  0
   10.5167   -2.0667    0.0000 C   0  0  0  0  0  0  0  0  0  0  0  0
   11.6667   -4.0667    0.0000 O   0  0  0  0  0  0  0  0  0  0  0  0
    5.3042   -2.2750    0.0000 N   0  0  0  0  0  0  0  0  0  0  0  0
   11.6667   -2.7292    0.0000 C   0  0  3  0  0  0  0  0  0  0  0  0
    1.9792   -1.1500    0.0000 C   0  0  0  0  0  0  0  0  0  0  0  0
    3.2917   -1.1500    0.0000 C   0  0  0  0  0  0  0  0  0  0  0  0
   10.5167   -4.7417    0.0000 C   0  0  0  0  0  0  0  0  0  0  0  0
    3.9750   -2.2917    0.0000 C   0  0  0  0  0  0  0  0  0  0  0  0
   12.8250   -2.0750    0.0000 C   0  0  0  0  0  0  0  0  0  0  0  0
    1.3167   -2.3042    0.0000 C   0  0  0  0  0  0  0  0  0  0  0  0
    5.3042   -4.5917    0.0000 O   0  0  0  0  0  0  0  0  0  0  0  0
    2.0000   -3.4500    0.0000 C   0  0  0  0  0  0  0  0  0  0  0  0
   12.8250   -0.7542    0.0000 C   0  0  0  0  0  0  0  0  0  0  0  0
   13.9667   -2.7500    0.0000 C   0  0  0  0  0  0  0  0  0  0  0  0
    1.3167   -0.0000    0.0000 Cl  0  0  0  0  0  0  0  0  0  0  0  0
    3.2917   -3.4500    0.0000 C   0  0  0  0  0  0  0  0  0  0  0  0
   15.1417   -0.7542    0.0000 C   0  0  0  0  0  0  0  0  0  0  0  0
    0.0000   -2.3042    0.0000 F   0  0  0  0  0  0  0  0  0  0  0  0
   13.9667   -0.0917    0.0000 C   0  0  0  0  0  0  0  0  0  0  0  0
   15.1250   -2.0750    0.0000 C   0  0  0  0  0  0  0  0  0  0  0  0
   16.3000   -0.1042    0.0000 Cl  0  0  0  0  0  0  0  0  0  0  0  0
  2  3  1  0  0  0  0
  1  3  2  0  0  0  0
  4  5  2  0  0  0  0
  1  5  1  0  0  0  0
  1  6  1  0  0  0  0
  2  7  1  0  0  0  0
  8 13  1  0  0  0  0
  6  9  1  0  0  0  0
  7 10  1  0  0  0  0
 11 12  1  0  0  0  0
 12 14  2  0  0  0  0
  4 13  1  0  0  0  0
  9 14  1  0  0  0  0
 10 15  1  0  0  0  0
 16 18  1  0  0  0  0
  6 17  2  0  0  0  0
 18 22  2  0  0  0  0
 15 19  2  0  0  0  0
 15 20  1  0  0  0  0
 11 21  1  0  0  0  0
 14 22  1  0  0  0  0
 23 26  1  0  0  0  0
 16 24  1  0  0  0  0
 19 25  1  0  0  0  0
 20 26  2  0  0  0  0
 23 27  1  0  0  0  0
  2  4  1  0  0  0  0
  8 10  1  0  0  0  0
 11 16  2  0  0  0  0
 23 25  2  0  0  0  0
M  END
> <MOLFORMULA>
C19 H14 Cl2 F N3 O2

> <MOLWEIGHT>
4.062426000000000e+002

> <IDNUMBER>
AT-687/PE21213

> <PRICE>
EUR 80/10 mg

> <Similarity score>
0.22

$$$$

  -OEChem-04222410502D

 28 31  0     0  0  0  0  0  0999 V2000
    8.0042   -2.7250    0.0000 N   0  0  3  0  0  0  0  0  0  0  0  0
    5.9542   -3.4000    0.0000 C   0  0  0  0  0  0  0  0  0  0  0  0
    6.7417   -2.3250    0.0000 N   0  0  0  0  0  0  0  0  0  0  0  0
    8.0250   -4.0667    0.0000 C   0  0  0  0  0  0  0  0  0  0  0  0
    6.7500   -4.5000    0.0000 C   0  0  0  0  0  0  0  0  0  0  0  0
    4.6250   -3.4167    0.0000 C   0  0  0  0  0  0  0  0  0  0  0  0
    9.1750   -2.0542    0.0000 C   0  0  0  0  0  0  0  0  0  0  0  0
   10.3250   -4.0667    0.0000 O   0  0  0  0  0  0  0  0  0  0  0  0
   10.3250   -2.7250    0.0000 C   0  0  3  0  0  0  0  0  0  0  0  0
    0.6500   -3.4500    0.0000 C   0  0  0  0  0  0  0  0  0  0  0  0
    3.9750   -4.5792    0.0000 N   0  0  0  0  0  0  0  0  0  0  0  0
    1.9792   -3.4667    0.0000 C   0  0  0  0  0  0  0  0  0  0  0  0
    9.1750   -4.7292    0.0000 C   0  0  0  0  0  0  0  0  0  0  0  0
    0.0000   -2.3167    0.0000 C   0  0  0  0  0  0  0  0  0  0  0  0
   11.4750   -2.0750    0.0000 C   0  0  0  0  0  0  0  0  0  0  0  0
    2.6417   -4.5792    0.0000 C   0  0  0  0  0  0  0  0  0  0  0  0
    3.9500   -2.2750    0.0000 O   0  0  0  0  0  0  0  0  0  0  0  0
    2.6417   -2.3167    0.0000 C   0  0  0  0  0  0  0  0  0  0  0  0
   12.6250   -2.7500    0.0000 C   0  0  0  0  0  0  0  0  0  0  0  0
   11.4750   -0.7417    0.0000 C   0  0  0  0  0  0  0  0  0  0  0  0
    0.6500   -1.1542    0.0000 C   0  0  0  0  0  0  0  0  0  0  0  0
    0.0000   -4.5792    0.0000 F   0  0  0  0  0  0  0  0  0  0  0  0
   13.7750   -0.7417    0.0000 C   0  0  0  0  0  0  0  0  0  0  0  0
    1.9792   -1.1500    0.0000 C   0  0  0  0  0  0  0  0  0  0  0  0
   13.7750   -2.0750    0.0000 C   0  0  0  0  0  0  0  0  0  0  0  0
   12.6417   -0.0917    0.0000 C   0  0  0  0  0  0  0  0  0  0  0  0
    0.0000   -0.0000    0.0000 F   0  0  0  0  0  0  0  0  0  0  0  0
   14.9500   -0.0917    0.0000 Cl  0  0  0  0  0  0  0  0  0  0  0  0
  2  3  2  0  0  0  0
  1  3  1  0  0  0  0
  1  4  1  0  0  0  0
  4  5  2  0  0  0  0
  2  6  1  0  0  0  0
  1  7  1  0  0  0  0
  8  9  1  0  0  0  0
  7  9  1  0  0  0  0
 10 12  2  0  0  0  0
  6 11  1  0  0  0  0
 12 16  1  0  0  0  0
  4 13  1  0  0  0  0
 10 14  1  0  0  0  0
  9 15  1  0  0  0  0
 11 16  1  0  0  0  0
  6 17  2  0  0  0  0
 12 18  1  0  0  0  0
 15 19  2  0  0  0  0
 15 20  1  0  0  0  0
 21 24  1  0  0  0  0
 10 22  1  0  0  0  0
 23 26  1  0  0  0  0
 18 24  2  0  0  0  0
 19 25  1  0  0  0  0
 20 26  2  0  0  0  0
 21 27  1  0  0  0  0
 23 28  1  0  0  0  0
  8 13  1  0  0  0  0
  2  5  1  0  0  0  0
 23 25  2  0  0  0  0
 14 21  2  0  0  0  0
M  END
> <MOLFORMULA>
C20 H16 Cl F2 N3 O2

> <MOLWEIGHT>
4.038144000000000e+002

> <IDNUMBER>
AT-687/PE21278

> <PRICE>
EUR 80/10 mg

> <Similarity score>
0.22

$$$$

  -OEChem-04222410502D

 27 30  0     0  0  0  0  0  0999 V2000
    7.3167   -3.4167    0.0000 C   0  0  0  0  0  0  0  0  0  0  0  0
    9.3500   -2.7292    0.0000 N   0  0  3  0  0  0  0  0  0  0  0  0
    8.1000   -2.3417    0.0000 N   0  0  0  0  0  0  0  0  0  0  0  0
    9.3667   -4.0667    0.0000 C   0  0  0  0  0  0  0  0  0  0  0  0
    8.1167   -4.5042    0.0000 C   0  0  0  0  0  0  0  0  0  0  0  0
    5.9750   -3.4292    0.0000 C   0  0  0  0  0  0  0  0  0  0  0  0
   10.5167   -2.0667    0.0000 C   0  0  0  0  0  0  0  0  0  0  0  0
   11.6667   -4.0667    0.0000 O   0  0  0  0  0  0  0  0  0  0  0  0
    5.3042   -2.2750    0.0000 N   0  0  0  0  0  0  0  0  0  0  0  0
   11.6667   -2.7292    0.0000 C   0  0  3  0  0  0  0  0  0  0  0  0
    1.9792   -1.1500    0.0000 C   0  0  0  0  0  0  0  0  0  0  0  0
    3.2917   -1.1500    0.0000 C   0  0  0  0  0  0  0  0  0  0  0  0
   10.5167   -4.7417    0.0000 C   0  0  0  0  0  0  0  0  0  0  0  0
    3.9750   -2.2917    0.0000 C   0  0  0  0  0  0  0  0  0  0  0  0
   12.8250   -2.0750    0.0000 C   0  0  0  0  0  0  0  0  0  0  0  0
    1.3167   -2.3042    0.0000 C   0  0  0  0  0  0  0  0  0  0  0  0
    5.3042   -4.5917    0.0000 O   0  0  0  0  0  0  0  0  0  0  0  0
    2.0000   -3.4500    0.0000 C   0  0  0  0  0  0  0  0  0  0  0  0
   12.8250   -0.7542    0.0000 C   0  0  0  0  0  0  0  0  0  0  0  0
   13.9667   -2.7500    0.0000 C   0  0  0  0  0  0  0  0  0  0  0  0
    1.3167   -0.0000    0.0000 F   0  0  0  0  0  0  0  0  0  0  0  0
    3.2917   -3.4500    0.0000 C   0  0  0  0  0  0  0  0  0  0  0  0
   15.1417   -0.7542    0.0000 C   0  0  0  0  0  0  0  0  0  0  0  0
    0.0000   -2.3042    0.0000 F   0  0  0  0  0  0  0  0  0  0  0  0
   13.9667   -0.0917    0.0000 C   0  0  0  0  0  0  0  0  0  0  0  0
   15.1250   -2.0750    0.0000 C   0  0  0  0  0  0  0  0  0  0  0  0
   16.3000   -0.1042    0.0000 Br  0  0  0  0  0  0  0  0  0  0  0  0
  2  3  1  0  0  0  0
  1  3  2  0  0  0  0
  4  5  2  0  0  0  0
  1  5  1  0  0  0  0
  1  6  1  0  0  0  0
  2  7  1  0  0  0  0
  8 13  1  0  0  0  0
  6  9  1  0  0  0  0
  7 10  1  0  0  0  0
 11 12  1  0  0  0  0
 12 14  2  0  0  0  0
  4 13  1  0  0  0  0
  9 14  1  0  0  0  0
 10 15  1  0  0  0  0
 16 18  1  0  0  0  0
  6 17  2  0  0  0  0
 18 22  2  0  0  0  0
 15 19  2  0  0  0  0
 15 20  1  0  0  0  0
 11 21  1  0  0  0  0
 14 22  1  0  0  0  0
 23 26  1  0  0  0  0
 16 24  1  0  0  0  0
 19 25  1  0  0  0  0
 20 26  2  0  0  0  0
 23 27  1  0  0  0  0
  2  4  1  0  0  0  0
  8 10  1  0  0  0  0
 11 16  2  0  0  0  0
 23 25  2  0  0  0  0
M  END
> <MOLFORMULA>
C19 H14 Br F2 N3 O2

> <MOLWEIGHT>
4.342386000000000e+002

> <IDNUMBER>
AT-687/PE21229

> <PRICE>
EUR 80/10 mg

> <Similarity score>
0.22

$$$$

  -OEChem-04222410502D

 27 30  0     0  0  0  0  0  0999 V2000
    7.3167   -3.4167    0.0000 C   0  0  0  0  0  0  0  0  0  0  0  0
    9.3500   -2.7292    0.0000 N   0  0  3  0  0  0  0  0  0  0  0  0
    8.1000   -2.3417    0.0000 N   0  0  0  0  0  0  0  0  0  0  0  0
    9.3667   -4.0667    0.0000 C   0  0  0  0  0  0  0  0  0  0  0  0
    8.1167   -4.5042    0.0000 C   0  0  0  0  0  0  0  0  0  0  0  0
    5.9750   -3.4292    0.0000 C   0  0  0  0  0  0  0  0  0  0  0  0
   10.5167   -2.0667    0.0000 C   0  0  0  0  0  0  0  0  0  0  0  0
   11.6667   -4.0667    0.0000 O   0  0  0  0  0  0  0  0  0  0  0  0
    5.3042   -2.2750    0.0000 N   0  0  0  0  0  0  0  0  0  0  0  0
   11.6667   -2.7292    0.0000 C   0  0  3  0  0  0  0  0  0  0  0  0
    1.9792   -1.1500    0.0000 C   0  0  0  0  0  0  0  0  0  0  0  0
    3.2917   -1.1500    0.0000 C   0  0  0  0  0  0  0  0  0  0  0  0
   10.5167   -4.7417    0.0000 C   0  0  0  0  0  0  0  0  0  0  0  0
    3.9750   -2.2917    0.0000 C   0  0  0  0  0  0  0  0  0  0  0  0
   12.8250   -2.0750    0.0000 C   0  0  0  0  0  0  0  0  0  0  0  0
    1.3167   -2.3042    0.0000 C   0  0  0  0  0  0  0  0  0  0  0  0
    5.3042   -4.5917    0.0000 O   0  0  0  0  0  0  0  0  0  0  0  0
    2.0000   -3.4500    0.0000 C   0  0  0  0  0  0  0  0  0  0  0  0
   12.8250   -0.7542    0.0000 C   0  0  0  0  0  0  0  0  0  0  0  0
   13.9667   -2.7500    0.0000 C   0  0  0  0  0  0  0  0  0  0  0  0
    1.3167   -0.0000    0.0000 F   0  0  0  0  0  0  0  0  0  0  0  0
    3.2917   -3.4500    0.0000 C   0  0  0  0  0  0  0  0  0  0  0  0
   15.1417   -0.7542    0.0000 C   0  0  0  0  0  0  0  0  0  0  0  0
    0.0000   -2.3042    0.0000 F   0  0  0  0  0  0  0  0  0  0  0  0
   13.9667   -0.0917    0.0000 C   0  0  0  0  0  0  0  0  0  0  0  0
   15.1250   -2.0750    0.0000 C   0  0  0  0  0  0  0  0  0  0  0  0
   16.3000   -0.1042    0.0000 Cl  0  0  0  0  0  0  0  0  0  0  0  0
  2  3  1  0  0  0  0
  1  3  2  0  0  0  0
  4  5  2  0  0  0  0
  1  5  1  0  0  0  0
  1  6  1  0  0  0  0
  2  7  1  0  0  0  0
  8 13  1  0  0  0  0
  6  9  1  0  0  0  0
  7 10  1  0  0  0  0
 11 12  1  0  0  0  0
 12 14  2  0  0  0  0
  4 13  1  0  0  0  0
  9 14  1  0  0  0  0
 10 15  1  0  0  0  0
 16 18  1  0  0  0  0
  6 17  2  0  0  0  0
 18 22  2  0  0  0  0
 15 19  2  0  0  0  0
 15 20  1  0  0  0  0
 11 21  1  0  0  0  0
 14 22  1  0  0  0  0
 23 26  1  0  0  0  0
 16 24  1  0  0  0  0
 19 25  1  0  0  0  0
 20 26  2  0  0  0  0
 23 27  1  0  0  0  0
  2  4  1  0  0  0  0
  8 10  1  0  0  0  0
 11 16  2  0  0  0  0
 23 25  2  0  0  0  0
M  END
> <MOLFORMULA>
C19 H14 Cl F2 N3 O2

> <MOLWEIGHT>
3.897876000000000e+002

> <IDNUMBER>
AT-687/PE21210

> <PRICE>
EUR 80/10 mg

> <Similarity score>
0.22

$$$$

  -OEChem-04222410502D

 25 29  0     0  0  0  0  0  0999 V2000
    3.4250   -4.7500    0.0000 C   0  0  0  0  0  0  0  0  0  0  0  0
    4.1750   -3.6750    0.0000 N   0  0  0  0  0  0  0  0  0  0  0  0
    5.4500   -4.0917    0.0000 N   0  0  3  0  0  0  0  0  0  0  0  0
    5.4417   -5.4250    0.0000 C   0  0  0  0  0  0  0  0  0  0  0  0
    4.1750   -5.8250    0.0000 C   0  0  0  0  0  0  0  0  0  0  0  0
    2.0667   -4.7250    0.0000 C   0  0  0  0  0  0  0  0  0  0  0  0
    6.6000   -3.4292    0.0000 C   0  0  0  0  0  0  0  0  0  0  0  0
    1.4292   -3.5667    0.0000 N   0  0  3  0  0  0  0  0  0  0  0  0
    7.7500   -5.4250    0.0000 O   0  0  0  0  0  0  0  0  0  0  0  0
    7.7500   -4.0917    0.0000 C   0  0  3  0  0  0  0  0  0  0  0  0
   10.0417   -1.4292    0.0000 C   0  0  0  0  0  0  0  0  0  0  0  0
    8.9000   -3.4292    0.0000 C   0  0  0  0  0  0  0  0  0  0  0  0
    8.9000   -2.1000    0.0000 C   0  0  0  0  0  0  0  0  0  0  0  0
    6.6000   -6.0917    0.0000 C   0  0  0  0  0  0  0  0  0  0  0  0
   11.2000   -2.1000    0.0000 C   0  0  0  0  0  0  0  0  0  0  0  0
   10.3250   -0.1250    0.0000 O   0  0  0  0  0  0  0  0  0  0  0  0
   12.1917   -1.2000    0.0000 O   0  0  0  0  0  0  0  0  0  0  0  0
    1.4042   -5.8750    0.0000 O   0  0  0  0  0  0  0  0  0  0  0  0
   11.6417   -0.0000    0.0000 C   0  0  0  0  0  0  0  0  0  0  0  0
   10.0667   -4.0917    0.0000 C   0  0  0  0  0  0  0  0  0  0  0  0
   11.2000   -3.4292    0.0000 C   0  0  0  0  0  0  0  0  0  0  0  0
    2.1167   -2.4250    0.0000 C   0  0  0  0  0  0  0  0  0  0  0  0
    0.1250   -3.2917    0.0000 C   0  0  0  0  0  0  0  0  0  0  0  0
    0.0000   -1.9542    0.0000 C   0  0  0  0  0  0  0  0  0  0  0  0
    1.2250   -1.4250    0.0000 C   0  0  0  0  0  0  0  0  0  0  0  0
  1  2  2  0  0  0  0
  2  3  1  0  0  0  0
  4  5  2  0  0  0  0
  1  5  1  0  0  0  0
  1  6  1  0  0  0  0
  3  7  1  0  0  0  0
  6  8  1  0  0  0  0
  9 14  1  0  0  0  0
  7 10  1  0  0  0  0
 11 13  1  0  0  0  0
 10 12  1  0  0  0  0
 12 13  2  0  0  0  0
  4 14  1  0  0  0  0
 15 21  1  0  0  0  0
 11 16  1  0  0  0  0
 15 17  1  0  0  0  0
  6 18  2  0  0  0  0
 16 19  1  0  0  0  0
 12 20  1  0  0  0  0
 20 21  2  0  0  0  0
  8 22  1  0  0  0  0
  8 23  1  0  0  0  0
 23 24  1  0  0  0  0
 22 25  1  0  0  0  0
  3  4  1  0  0  0  0
 24 25  1  0  0  0  0
  9 10  1  0  0  0  0
 11 15  2  0  0  0  0
 17 19  1  0  0  0  0
M  END
> <MOLFORMULA>
C18 H19 N3 O4

> <MOLWEIGHT>
3.413651000000000e+002

> <IDNUMBER>
AT-687/PE21181

> <PRICE>
EUR 80/10 mg

> <Similarity score>
0.21

$$$$

  -OEChem-04222410502D

 29 33  0     0  0  0  0  0  0999 V2000
    7.2917   -4.8000    0.0000 C   0  0  0  0  0  0  0  0  0  0  0  0
    9.3417   -4.1000    0.0000 N   0  0  3  0  0  0  0  0  0  0  0  0
    8.0667   -3.7000    0.0000 N   0  0  0  0  0  0  0  0  0  0  0  0
    9.3500   -5.4417    0.0000 C   0  0  0  0  0  0  0  0  0  0  0  0
    8.0792   -5.8542    0.0000 C   0  0  0  0  0  0  0  0  0  0  0  0
    5.9500   -4.8000    0.0000 C   0  0  0  0  0  0  0  0  0  0  0  0
   10.5000   -3.4417    0.0000 C   0  0  0  0  0  0  0  0  0  0  0  0
   11.6542   -5.4417    0.0000 O   0  0  0  0  0  0  0  0  0  0  0  0
   11.6542   -4.1000    0.0000 C   0  0  3  0  0  0  0  0  0  0  0  0
    5.3000   -3.6500    0.0000 N   0  0  0  0  0  0  0  0  0  0  0  0
   13.9667   -1.4542    0.0000 C   0  0  0  0  0  0  0  0  0  0  0  0
   12.8000   -3.4417    0.0000 C   0  0  0  0  0  0  0  0  0  0  0  0
   12.8000   -2.1250    0.0000 C   0  0  0  0  0  0  0  0  0  0  0  0
   10.5000   -6.1000    0.0000 C   0  0  0  0  0  0  0  0  0  0  0  0
   15.1250   -2.1250    0.0000 C   0  0  0  0  0  0  0  0  0  0  0  0
    1.9750   -2.5250    0.0000 C   0  0  0  0  0  0  0  0  0  0  0  0
   14.2500   -0.1500    0.0000 O   0  0  0  0  0  0  0  0  0  0  0  0
   16.1042   -1.2292    0.0000 O   0  0  0  0  0  0  0  0  0  0  0  0
    3.9542   -3.6667    0.0000 C   0  0  0  0  0  0  0  0  0  0  0  0
   15.5750   -0.0000    0.0000 C   0  0  0  0  0  0  0  0  0  0  0  0
    1.3000   -3.6667    0.0000 C   0  0  0  0  0  0  0  0  0  0  0  0
    5.3167   -5.9417    0.0000 O   0  0  0  0  0  0  0  0  0  0  0  0
    3.2750   -2.5250    0.0000 C   0  0  0  0  0  0  0  0  0  0  0  0
   13.9667   -4.1250    0.0000 C   0  0  0  0  0  0  0  0  0  0  0  0
   15.1250   -3.4542    0.0000 C   0  0  0  0  0  0  0  0  0  0  0  0
    1.9917   -4.8167    0.0000 C   0  0  0  0  0  0  0  0  0  0  0  0
    3.2750   -4.8167    0.0000 C   0  0  0  0  0  0  0  0  0  0  0  0
    0.0000   -3.6667    0.0000 F   0  0  0  0  0  0  0  0  0  0  0  0
    1.3000   -1.3667    0.0000 C   0  0  0  0  0  0  0  0  0  0  0  0
  2  3  1  0  0  0  0
  1  3  2  0  0  0  0
  4  5  2  0  0  0  0
  1  5  1  0  0  0  0
  1  6  1  0  0  0  0
  2  7  1  0  0  0  0
  8 14  1  0  0  0  0
  7  9  1  0  0  0  0
  6 10  1  0  0  0  0
 11 13  1  0  0  0  0
  9 12  1  0  0  0  0
 12 13  2  0  0  0  0
  4 14  1  0  0  0  0
 15 25  1  0  0  0  0
 16 23  1  0  0  0  0
 11 17  1  0  0  0  0
 15 18  1  0  0  0  0
 10 19  1  0  0  0  0
 17 20  1  0  0  0  0
 21 26  1  0  0  0  0
  6 22  2  0  0  0  0
 19 23  2  0  0  0  0
 12 24  1  0  0  0  0
 24 25  2  0  0  0  0
 26 27  2  0  0  0  0
 19 27  1  0  0  0  0
 21 28  1  0  0  0  0
 16 29  1  0  0  0  0
  2  4  1  0  0  0  0
  8  9  1  0  0  0  0
 16 21  2  0  0  0  0
 11 15  2  0  0  0  0
 18 20  1  0  0  0  0
M  END
> <MOLFORMULA>
C21 H18 F N3 O4

> <MOLWEIGHT>
3.953882000000000e+002

> <IDNUMBER>
AT-687/PE21250

> <PRICE>
EUR 80/10 mg

> <Similarity score>
0.21

$$$$

  -OEChem-04222410502D

 27 30  0     0  0  0  0  0  0999 V2000
    7.3167   -3.3250    0.0000 C   0  0  0  0  0  0  0  0  0  0  0  0
    9.3500   -2.6292    0.0000 N   0  0  3  0  0  0  0  0  0  0  0  0
    8.1000   -2.2417    0.0000 N   0  0  0  0  0  0  0  0  0  0  0  0
    9.3667   -3.9750    0.0000 C   0  0  0  0  0  0  0  0  0  0  0  0
    8.1167   -4.4167    0.0000 C   0  0  0  0  0  0  0  0  0  0  0  0
    5.9750   -3.3417    0.0000 C   0  0  0  0  0  0  0  0  0  0  0  0
   10.5167   -1.9667    0.0000 C   0  0  0  0  0  0  0  0  0  0  0  0
    5.3042   -2.1750    0.0000 N   0  0  0  0  0  0  0  0  0  0  0  0
   11.6667   -3.9750    0.0000 O   0  0  0  0  0  0  0  0  0  0  0  0
   11.6667   -2.6292    0.0000 C   0  0  3  0  0  0  0  0  0  0  0  0
    3.9750   -2.2000    0.0000 C   0  0  0  0  0  0  0  0  0  0  0  0
   10.5167   -4.6417    0.0000 C   0  0  0  0  0  0  0  0  0  0  0  0
    3.2917   -3.3500    0.0000 C   0  0  0  0  0  0  0  0  0  0  0  0
   12.8250   -1.9792    0.0000 C   0  0  0  0  0  0  0  0  0  0  0  0
    5.3042   -4.4917    0.0000 O   0  0  0  0  0  0  0  0  0  0  0  0
    2.0000   -3.3500    0.0000 C   0  0  0  0  0  0  0  0  0  0  0  0
    3.2917   -1.0500    0.0000 C   0  0  0  0  0  0  0  0  0  0  0  0
   12.8250   -0.6667    0.0000 C   0  0  0  0  0  0  0  0  0  0  0  0
   13.9792   -2.6500    0.0000 C   0  0  0  0  0  0  0  0  0  0  0  0
    1.3000   -2.2167    0.0000 C   0  0  0  0  0  0  0  0  0  0  0  0
   15.1417   -0.6667    0.0000 C   0  0  0  0  0  0  0  0  0  0  0  0
    1.9792   -1.0500    0.0000 C   0  0  0  0  0  0  0  0  0  0  0  0
   15.1250   -1.9792    0.0000 C   0  0  0  0  0  0  0  0  0  0  0  0
   13.9792   -0.0000    0.0000 C   0  0  0  0  0  0  0  0  0  0  0  0
    0.0000   -2.2167    0.0000 F   0  0  0  0  0  0  0  0  0  0  0  0
   16.3000   -0.0042    0.0000 Cl  0  0  0  0  0  0  0  0  0  0  0  0
    3.9750   -4.4917    0.0000 C   0  0  0  0  0  0  0  0  0  0  0  0
  2  3  1  0  0  0  0
  1  3  2  0  0  0  0
  4  5  2  0  0  0  0
  1  5  1  0  0  0  0
  1  6  1  0  0  0  0
  2  7  1  0  0  0  0
  6  8  1  0  0  0  0
  9 12  1  0  0  0  0
  7 10  1  0  0  0  0
  8 11  1  0  0  0  0
  4 12  1  0  0  0  0
 11 13  2  0  0  0  0
 10 14  1  0  0  0  0
  6 15  2  0  0  0  0
 13 16  1  0  0  0  0
 11 17  1  0  0  0  0
 14 18  1  0  0  0  0
 14 19  2  0  0  0  0
 20 22  1  0  0  0  0
 21 23  2  0  0  0  0
 17 22  2  0  0  0  0
 19 23  1  0  0  0  0
 18 24  2  0  0  0  0
 20 25  1  0  0  0  0
 21 26  1  0  0  0  0
 13 27  1  0  0  0  0
  2  4  1  0  0  0  0
  9 10  1  0  0  0  0
 16 20  2  0  0  0  0
 21 24  1  0  0  0  0
M  END
> <MOLFORMULA>
C20 H17 Cl F N3 O2

> <MOLWEIGHT>
3.858243000000000e+002

> <IDNUMBER>
AT-687/PE21215

> <PRICE>
EUR 80/10 mg

> <Similarity score>
0.21

$$$$

  -OEChem-04222410502D

 27 30  0     0  0  0  0  0  0999 V2000
    8.0000   -2.6250    0.0000 N   0  0  3  0  0  0  0  0  0  0  0  0
    5.9542   -3.3167    0.0000 C   0  0  0  0  0  0  0  0  0  0  0  0
    6.7292   -2.2250    0.0000 N   0  0  0  0  0  0  0  0  0  0  0  0
    8.0250   -3.9750    0.0000 C   0  0  0  0  0  0  0  0  0  0  0  0
    6.7500   -4.3917    0.0000 C   0  0  0  0  0  0  0  0  0  0  0  0
    4.6250   -3.3250    0.0000 C   0  0  0  0  0  0  0  0  0  0  0  0
    9.1750   -1.9500    0.0000 C   0  0  0  0  0  0  0  0  0  0  0  0
   10.3250   -3.9750    0.0000 O   0  0  0  0  0  0  0  0  0  0  0  0
   10.3250   -2.6250    0.0000 C   0  0  3  0  0  0  0  0  0  0  0  0
    3.9750   -4.4750    0.0000 N   0  0  0  0  0  0  0  0  0  0  0  0
    9.1750   -4.6250    0.0000 C   0  0  0  0  0  0  0  0  0  0  0  0
    1.9792   -3.3500    0.0000 C   0  0  0  0  0  0  0  0  0  0  0  0
   11.4750   -1.9667    0.0000 C   0  0  0  0  0  0  0  0  0  0  0  0
    2.6417   -4.4917    0.0000 C   0  0  0  0  0  0  0  0  0  0  0  0
    3.9500   -2.1750    0.0000 O   0  0  0  0  0  0  0  0  0  0  0  0
    0.6500   -3.3417    0.0000 C   0  0  0  0  0  0  0  0  0  0  0  0
   12.6250   -2.6417    0.0000 C   0  0  0  0  0  0  0  0  0  0  0  0
   11.4750   -0.6500    0.0000 C   0  0  0  0  0  0  0  0  0  0  0  0
   13.7750   -0.6500    0.0000 C   0  0  0  0  0  0  0  0  0  0  0  0
    0.0000   -4.4917    0.0000 F   0  0  0  0  0  0  0  0  0  0  0  0
   13.7750   -1.9792    0.0000 C   0  0  0  0  0  0  0  0  0  0  0  0
   12.6417   -0.0000    0.0000 C   0  0  0  0  0  0  0  0  0  0  0  0
   14.9417   -0.0000    0.0000 Cl  0  0  0  0  0  0  0  0  0  0  0  0
    2.6417   -2.2000    0.0000 C   0  0  0  0  0  0  0  0  0  0  0  0
    0.0000   -2.2000    0.0000 C   0  0  0  0  0  0  0  0  0  0  0  0
    1.9792   -1.0417    0.0000 C   0  0  0  0  0  0  0  0  0  0  0  0
    0.6500   -1.0500    0.0000 C   0  0  0  0  0  0  0  0  0  0  0  0
  2  3  2  0  0  0  0
  1  3  1  0  0  0  0
  1  4  1  0  0  0  0
  4  5  2  0  0  0  0
  2  6  1  0  0  0  0
  1  7  1  0  0  0  0
  8  9  1  0  0  0  0
  7  9  1  0  0  0  0
  6 10  1  0  0  0  0
  4 11  1  0  0  0  0
 12 14  1  0  0  0  0
  9 13  1  0  0  0  0
 10 14  1  0  0  0  0
  6 15  2  0  0  0  0
 12 16  2  0  0  0  0
 13 17  2  0  0  0  0
 13 18  1  0  0  0  0
 19 22  1  0  0  0  0
 16 20  1  0  0  0  0
 17 21  1  0  0  0  0
 18 22  2  0  0  0  0
 19 23  1  0  0  0  0
 12 24  1  0  0  0  0
 16 25  1  0  0  0  0
 24 26  2  0  0  0  0
 26 27  1  0  0  0  0
  8 11  1  0  0  0  0
  2  5  1  0  0  0  0
 19 21  2  0  0  0  0
 25 27  2  0  0  0  0
M  END
> <MOLFORMULA>
C20 H17 Cl F N3 O2

> <MOLWEIGHT>
3.858243000000000e+002

> <IDNUMBER>
AT-687/PE21277

> <PRICE>
EUR 80/10 mg

> <Similarity score>
0.21

$$$$

  -OEChem-04222410502D

 30 34  0     0  0  0  0  0  0999 V2000
    8.0000   -4.1000    0.0000 N   0  0  3  0  0  0  0  0  0  0  0  0
    5.9500   -4.7667    0.0000 C   0  0  0  0  0  0  0  0  0  0  0  0
    6.7292   -3.7000    0.0000 N   0  0  0  0  0  0  0  0  0  0  0  0
    8.0167   -5.4292    0.0000 C   0  0  0  0  0  0  0  0  0  0  0  0
    6.7500   -5.8500    0.0000 C   0  0  0  0  0  0  0  0  0  0  0  0
    4.6292   -4.7750    0.0000 C   0  0  0  0  0  0  0  0  0  0  0  0
    9.1750   -3.4250    0.0000 C   0  0  0  0  0  0  0  0  0  0  0  0
   10.3250   -5.4292    0.0000 O   0  0  0  0  0  0  0  0  0  0  0  0
   10.3250   -4.1000    0.0000 C   0  0  3  0  0  0  0  0  0  0  0  0
   12.6250   -1.4542    0.0000 C   0  0  0  0  0  0  0  0  0  0  0  0
   11.4750   -3.4417    0.0000 C   0  0  0  0  0  0  0  0  0  0  0  0
    0.6500   -4.8167    0.0000 C   0  0  0  0  0  0  0  0  0  0  0  0
    3.9667   -5.9500    0.0000 N   0  0  0  0  0  0  0  0  0  0  0  0
    1.9750   -4.8250    0.0000 C   0  0  0  0  0  0  0  0  0  0  0  0
   11.4750   -2.1250    0.0000 C   0  0  0  0  0  0  0  0  0  0  0  0
    9.1750   -6.1000    0.0000 C   0  0  0  0  0  0  0  0  0  0  0  0
    0.0000   -3.6750    0.0000 C   0  0  0  0  0  0  0  0  0  0  0  0
   13.7750   -2.1042    0.0000 C   0  0  0  0  0  0  0  0  0  0  0  0
   12.9042   -0.1250    0.0000 O   0  0  0  0  0  0  0  0  0  0  0  0
   14.7750   -1.2250    0.0000 O   0  0  0  0  0  0  0  0  0  0  0  0
   14.2417   -0.0000    0.0000 C   0  0  0  0  0  0  0  0  0  0  0  0
    2.6417   -5.9500    0.0000 C   0  0  0  0  0  0  0  0  0  0  0  0
    3.9500   -3.6417    0.0000 O   0  0  0  0  0  0  0  0  0  0  0  0
   12.6167   -4.1000    0.0000 C   0  0  0  0  0  0  0  0  0  0  0  0
   13.7750   -3.4417    0.0000 C   0  0  0  0  0  0  0  0  0  0  0  0
    2.6417   -3.6750    0.0000 C   0  0  0  0  0  0  0  0  0  0  0  0
    0.6500   -2.5250    0.0000 C   0  0  0  0  0  0  0  0  0  0  0  0
    0.0000   -5.9667    0.0000 F   0  0  0  0  0  0  0  0  0  0  0  0
    1.9917   -2.5250    0.0000 C   0  0  0  0  0  0  0  0  0  0  0  0
    0.0000   -1.3667    0.0000 F   0  0  0  0  0  0  0  0  0  0  0  0
  2  3  2  0  0  0  0
  1  3  1  0  0  0  0
  1  4  1  0  0  0  0
  4  5  2  0  0  0  0
  2  6  1  0  0  0  0
  1  7  1  0  0  0  0
  8  9  1  0  0  0  0
  7  9  1  0  0  0  0
 10 15  1  0  0  0  0
  9 11  1  0  0  0  0
 12 14  2  0  0  0  0
  6 13  1  0  0  0  0
 14 22  1  0  0  0  0
 11 15  2  0  0  0  0
  4 16  1  0  0  0  0
 12 17  1  0  0  0  0
 18 25  1  0  0  0  0
 10 19  1  0  0  0  0
 18 20  1  0  0  0  0
 19 21  1  0  0  0  0
 13 22  1  0  0  0  0
  6 23  2  0  0  0  0
 11 24  1  0  0  0  0
 24 25  2  0  0  0  0
 14 26  1  0  0  0  0
 27 29  1  0  0  0  0
 12 28  1  0  0  0  0
 26 29  2  0  0  0  0
 27 30  1  0  0  0  0
  8 16  1  0  0  0  0
  2  5  1  0  0  0  0
 10 18  2  0  0  0  0
 20 21  1  0  0  0  0
 17 27  2  0  0  0  0
M  END
> <MOLFORMULA>
C21 H17 F2 N3 O4

> <MOLWEIGHT>
4.133783000000000e+002

> <IDNUMBER>
AT-687/PE21324

> <PRICE>
EUR 80/10 mg

> <Similarity score>
0.21

$$$$

  -OEChem-04222410502D

 15 16  0     0  0  0  0  0  0999 V2000
    6.2917   -2.9375    0.0000 C   0  0  0  0  0  0  0  0  0  0  0  0
    5.8042   -3.6042    0.0000 N   0  0  0  0  0  0  0  0  0  0  0  0
    5.0167   -2.5167    0.0000 C   0  0  0  0  0  0  0  0  0  0  0  0
    5.8042   -2.2625    0.0000 C   0  0  0  0  0  0  0  0  0  0  0  0
    5.0167   -3.3500    0.0000 N   0  0  3  0  0  0  0  0  0  0  0  0
    7.1167   -2.9375    0.0000 C   0  0  0  0  0  0  0  0  0  0  0  0
    4.3042   -2.1042    0.0000 C   0  0  0  0  0  0  0  0  0  0  0  0
    7.5292   -3.6542    0.0000 N   0  0  3  0  0  0  0  0  0  0  0  0
    7.5375   -2.2167    0.0000 O   0  0  0  0  0  0  0  0  0  0  0  0
    4.3042   -1.2750    0.0000 O   0  0  0  0  0  0  0  0  0  0  0  0
    4.3042   -3.7625    0.0000 C   0  0  0  0  0  0  0  0  0  0  0  0
    3.5792   -2.5167    0.0000 C   0  0  0  0  0  0  0  0  0  0  0  0
    3.5792   -3.3500    0.0000 C   0  0  0  0  0  0  0  0  0  0  0  0
    7.1167   -4.3750    0.0000 C   0  0  0  0  0  0  0  0  0  0  0  0
    8.3625   -3.6625    0.0000 C   0  0  0  0  0  0  0  0  0  0  0  0
  1  2  2  0  0  0  0
  3  4  2  0  0  0  0
  1  4  1  0  0  0  0
  2  5  1  0  0  0  0
  1  6  1  0  0  0  0
  3  7  1  0  0  0  0
  6  8  1  0  0  0  0
  6  9  2  0  0  0  0
  7 10  2  0  0  0  0
  5 11  1  0  0  0  0
  7 12  1  0  0  0  0
 11 13  1  0  0  0  0
  8 14  1  0  0  0  0
  8 15  1  0  0  0  0
  3  5  1  0  0  0  0
 12 13  1  0  0  0  0
M  END
> <MOLFORMULA>
C10 H13 N3 O2

> <MOLWEIGHT>
2.072317000000000e+002

> <IDNUMBER>
AT-687/SK15924

> <PRICE>
EUR 80/10 mg

> <Similarity score>
0.21

$$$$

  -OEChem-04222410502D

 29 33  0     0  0  0  0  0  0999 V2000
    7.2917   -4.8000    0.0000 C   0  0  0  0  0  0  0  0  0  0  0  0
    9.3417   -4.1000    0.0000 N   0  0  3  0  0  0  0  0  0  0  0  0
    8.0667   -3.7000    0.0000 N   0  0  0  0  0  0  0  0  0  0  0  0
    9.3500   -5.4417    0.0000 C   0  0  0  0  0  0  0  0  0  0  0  0
    8.0792   -5.8542    0.0000 C   0  0  0  0  0  0  0  0  0  0  0  0
    5.9500   -4.8000    0.0000 C   0  0  0  0  0  0  0  0  0  0  0  0
   10.5000   -3.4417    0.0000 C   0  0  0  0  0  0  0  0  0  0  0  0
   11.6542   -5.4417    0.0000 O   0  0  0  0  0  0  0  0  0  0  0  0
   11.6542   -4.1000    0.0000 C   0  0  3  0  0  0  0  0  0  0  0  0
    5.3000   -3.6500    0.0000 N   0  0  0  0  0  0  0  0  0  0  0  0
   13.9667   -1.4542    0.0000 C   0  0  0  0  0  0  0  0  0  0  0  0
   12.8000   -3.4417    0.0000 C   0  0  0  0  0  0  0  0  0  0  0  0
    1.9750   -2.5250    0.0000 C   0  0  0  0  0  0  0  0  0  0  0  0
   12.8000   -2.1250    0.0000 C   0  0  0  0  0  0  0  0  0  0  0  0
    3.2750   -2.5250    0.0000 C   0  0  0  0  0  0  0  0  0  0  0  0
   10.5000   -6.1000    0.0000 C   0  0  0  0  0  0  0  0  0  0  0  0
   15.1250   -2.1250    0.0000 C   0  0  0  0  0  0  0  0  0  0  0  0
   14.2500   -0.1500    0.0000 O   0  0  0  0  0  0  0  0  0  0  0  0
    3.9542   -3.6667    0.0000 C   0  0  0  0  0  0  0  0  0  0  0  0
   16.1042   -1.2292    0.0000 O   0  0  0  0  0  0  0  0  0  0  0  0
    1.3000   -3.6667    0.0000 C   0  0  0  0  0  0  0  0  0  0  0  0
   15.5750   -0.0000    0.0000 C   0  0  0  0  0  0  0  0  0  0  0  0
    5.3167   -5.9417    0.0000 O   0  0  0  0  0  0  0  0  0  0  0  0
   13.9667   -4.1250    0.0000 C   0  0  0  0  0  0  0  0  0  0  0  0
   15.1250   -3.4542    0.0000 C   0  0  0  0  0  0  0  0  0  0  0  0
    1.9917   -4.8167    0.0000 C   0  0  0  0  0  0  0  0  0  0  0  0
    1.3000   -1.3667    0.0000 Cl  0  0  0  0  0  0  0  0  0  0  0  0
    3.2750   -4.8167    0.0000 C   0  0  0  0  0  0  0  0  0  0  0  0
    0.0000   -3.6667    0.0000 F   0  0  0  0  0  0  0  0  0  0  0  0
  2  3  1  0  0  0  0
  1  3  2  0  0  0  0
  4  5  2  0  0  0  0
  1  5  1  0  0  0  0
  1  6  1  0  0  0  0
  2  7  1  0  0  0  0
  8 16  1  0  0  0  0
  7  9  1  0  0  0  0
  6 10  1  0  0  0  0
 11 14  1  0  0  0  0
  9 12  1  0  0  0  0
 13 15  1  0  0  0  0
 12 14  2  0  0  0  0
 15 19  2  0  0  0  0
  4 16  1  0  0  0  0
 17 25  1  0  0  0  0
 11 18  1  0  0  0  0
 10 19  1  0  0  0  0
 17 20  1  0  0  0  0
 21 26  1  0  0  0  0
 18 22  1  0  0  0  0
  6 23  2  0  0  0  0
 12 24  1  0  0  0  0
 24 25  2  0  0  0  0
 26 28  2  0  0  0  0
 13 27  1  0  0  0  0
 19 28  1  0  0  0  0
 21 29  1  0  0  0  0
  2  4  1  0  0  0  0
  8  9  1  0  0  0  0
 13 21  2  0  0  0  0
 11 17  2  0  0  0  0
 20 22  1  0  0  0  0
M  END
> <MOLFORMULA>
C20 H15 Cl F N3 O4

> <MOLWEIGHT>
4.158065000000000e+002

> <IDNUMBER>
AT-687/PE21248

> <PRICE>
EUR 80/10 mg

> <Similarity score>
0.21

$$$$

  -OEChem-04222410502D

 26 29  0     0  0  0  0  0  0999 V2000
    6.1000   -7.3667    0.0000 C   0  0  0  0  0  0  0  0  0  0  0  0
    4.6500   -5.7500    0.0000 N   0  0  3  0  0  0  0  0  0  0  0  0
    5.9500   -6.0417    0.0000 N   0  0  0  0  0  0  0  0  0  0  0  0
    3.9792   -6.9000    0.0000 C   0  0  0  0  0  0  0  0  0  0  0  0
    4.8917   -7.9000    0.0000 C   0  0  0  0  0  0  0  0  0  0  0  0
    7.2417   -8.0250    0.0000 C   0  0  0  0  0  0  0  0  0  0  0  0
    3.9792   -4.6000    0.0000 C   0  0  0  0  0  0  0  0  0  0  0  0
    8.3917   -7.3667    0.0000 N   0  0  0  0  0  0  0  0  0  0  0  0
    1.9917   -5.7500    0.0000 O   0  0  0  0  0  0  0  0  0  0  0  0
    2.6500   -4.6000    0.0000 C   0  0  3  0  0  0  0  0  0  0  0  0
    9.5500   -8.0250    0.0000 C   0  0  0  0  0  0  0  0  0  0  0  0
    2.6500   -6.9000    0.0000 C   0  0  0  0  0  0  0  0  0  0  0  0
    1.9917   -3.4417    0.0000 C   0  0  0  0  0  0  0  0  0  0  0  0
    7.2417   -9.3500    0.0000 O   0  0  0  0  0  0  0  0  0  0  0  0
    9.5500   -9.3500    0.0000 C   0  0  0  0  0  0  0  0  0  0  0  0
    2.6500   -2.2792    0.0000 C   0  0  0  0  0  0  0  0  0  0  0  0
    0.6542   -3.4417    0.0000 C   0  0  0  0  0  0  0  0  0  0  0  0
    8.4000  -10.0167    0.0000 F   0  0  0  0  0  0  0  0  0  0  0  0
    1.9917   -1.1500    0.0000 C   0  0  0  0  0  0  0  0  0  0  0  0
    0.0000   -2.2792    0.0000 C   0  0  0  0  0  0  0  0  0  0  0  0
    0.6542   -1.1500    0.0000 C   0  0  0  0  0  0  0  0  0  0  0  0
   10.7000   -7.3667    0.0000 C   0  0  0  0  0  0  0  0  0  0  0  0
   10.7000  -10.0167    0.0000 C   0  0  0  0  0  0  0  0  0  0  0  0
    0.0000   -0.0000    0.0000 C   0  0  0  0  0  0  0  0  0  0  0  0
   11.8667   -8.0250    0.0000 C   0  0  0  0  0  0  0  0  0  0  0  0
   11.8667   -9.3500    0.0000 C   0  0  0  0  0  0  0  0  0  0  0  0
  2  3  1  0  0  0  0
  1  3  2  0  0  0  0
  4  5  2  0  0  0  0
  1  5  1  0  0  0  0
  1  6  1  0  0  0  0
  2  7  1  0  0  0  0
  6  8  1  0  0  0  0
  9 12  1  0  0  0  0
  7 10  1  0  0  0  0
  8 11  1  0  0  0  0
  4 12  1  0  0  0  0
 10 13  1  0  0  0  0
  6 14  2  0  0  0  0
 11 15  2  0  0  0  0
 13 16  1  0  0  0  0
 13 17  2  0  0  0  0
 15 18  1  0  0  0  0
 16 19  2  0  0  0  0
 17 20  1  0  0  0  0
 20 21  2  0  0  0  0
 11 22  1  0  0  0  0
 15 23  1  0  0  0  0
 21 24  1  0  0  0  0
 22 25  2  0  0  0  0
 25 26  1  0  0  0  0
  2  4  1  0  0  0  0
  9 10  1  0  0  0  0
 23 26  2  0  0  0  0
 19 21  1  0  0  0  0
M  END
> <MOLFORMULA>
C20 H18 F N3 O2

> <MOLWEIGHT>
3.513792000000000e+002

> <IDNUMBER>
AT-687/PE26832

> <PRICE>
EUR 80/10 mg

> <Similarity score>
0.21

$$$$

  -OEChem-04222410502D

 27 30  0     0  0  0  0  0  0999 V2000
    6.0917   -7.3542    0.0000 C   0  0  0  0  0  0  0  0  0  0  0  0
    4.6500   -5.7542    0.0000 N   0  0  3  0  0  0  0  0  0  0  0  0
    5.9500   -6.0250    0.0000 N   0  0  0  0  0  0  0  0  0  0  0  0
    3.9917   -6.9042    0.0000 C   0  0  0  0  0  0  0  0  0  0  0  0
    4.8750   -7.8917    0.0000 C   0  0  0  0  0  0  0  0  0  0  0  0
    7.2417   -8.0250    0.0000 C   0  0  0  0  0  0  0  0  0  0  0  0
    3.9917   -4.6042    0.0000 C   0  0  0  0  0  0  0  0  0  0  0  0
    8.4000   -7.3542    0.0000 N   0  0  0  0  0  0  0  0  0  0  0  0
    1.9917   -5.7542    0.0000 O   0  0  0  0  0  0  0  0  0  0  0  0
    2.6500   -4.6042    0.0000 C   0  0  3  0  0  0  0  0  0  0  0  0
    9.5500   -8.0250    0.0000 C   0  0  0  0  0  0  0  0  0  0  0  0
    2.6500   -6.9042    0.0000 C   0  0  0  0  0  0  0  0  0  0  0  0
    1.9917   -3.4500    0.0000 C   0  0  0  0  0  0  0  0  0  0  0  0
    7.2417   -9.3500    0.0000 O   0  0  0  0  0  0  0  0  0  0  0  0
   10.7000   -7.3542    0.0000 C   0  0  0  0  0  0  0  0  0  0  0  0
    2.6500   -2.3000    0.0000 C   0  0  0  0  0  0  0  0  0  0  0  0
    0.6542   -3.4500    0.0000 C   0  0  0  0  0  0  0  0  0  0  0  0
    0.6542   -1.1500    0.0000 C   0  0  0  0  0  0  0  0  0  0  0  0
    0.0000   -2.3000    0.0000 C   0  0  0  0  0  0  0  0  0  0  0  0
    1.9917   -1.1500    0.0000 C   0  0  0  0  0  0  0  0  0  0  0  0
    0.0000   -0.0000    0.0000 F   0  0  0  0  0  0  0  0  0  0  0  0
   10.7000   -6.0250    0.0000 O   0  0  0  0  0  0  0  0  0  0  0  0
    9.5500   -9.3500    0.0000 C   0  0  0  0  0  0  0  0  0  0  0  0
   11.8500   -8.0250    0.0000 C   0  0  0  0  0  0  0  0  0  0  0  0
    9.5500   -5.3500    0.0000 C   0  0  0  0  0  0  0  0  0  0  0  0
   10.7000  -10.0167    0.0000 C   0  0  0  0  0  0  0  0  0  0  0  0
   11.8500   -9.3500    0.0000 C   0  0  0  0  0  0  0  0  0  0  0  0
  2  3  1  0  0  0  0
  1  3  2  0  0  0  0
  4  5  2  0  0  0  0
  1  5  1  0  0  0  0
  1  6  1  0  0  0  0
  2  7  1  0  0  0  0
  6  8  1  0  0  0  0
  9 12  1  0  0  0  0
  7 10  1  0  0  0  0
  8 11  1  0  0  0  0
  4 12  1  0  0  0  0
 10 13  1  0  0  0  0
  6 14  2  0  0  0  0
 11 15  2  0  0  0  0
 13 16  1  0  0  0  0
 13 17  2  0  0  0  0
 18 19  2  0  0  0  0
 17 19  1  0  0  0  0
 16 20  2  0  0  0  0
 18 21  1  0  0  0  0
 15 22  1  0  0  0  0
 11 23  1  0  0  0  0
 15 24  1  0  0  0  0
 22 25  1  0  0  0  0
 23 26  2  0  0  0  0
 26 27  1  0  0  0  0
  2  4  1  0  0  0  0
  9 10  1  0  0  0  0
 24 27  2  0  0  0  0
 18 20  1  0  0  0  0
M  END
> <MOLFORMULA>
C20 H18 F N3 O3

> <MOLWEIGHT>
3.673782000000000e+002

> <IDNUMBER>
AT-687/PE26859

> <PRICE>
EUR 80/10 mg

> <Similarity score>
0.21

$$$$

  -OEChem-04222410502D

 27 30  0     0  0  0  0  0  0999 V2000
    4.6417   -5.7417    0.0000 N   0  0  3  0  0  0  0  0  0  0  0  0
    6.0917   -7.3417    0.0000 C   0  0  0  0  0  0  0  0  0  0  0  0
    5.9500   -6.0250    0.0000 N   0  0  0  0  0  0  0  0  0  0  0  0
   10.7000   -7.3417    0.0000 C   0  0  0  0  0  0  0  0  0  0  0  0
    3.9917   -6.9000    0.0000 C   0  0  0  0  0  0  0  0  0  0  0  0
    4.8750   -7.8750    0.0000 C   0  0  0  0  0  0  0  0  0  0  0  0
   12.8000   -6.9000    0.0000 N   0  0  0  0  0  0  0  0  0  0  0  0
   12.1250   -5.7417    0.0000 N   0  0  0  0  0  0  0  0  0  0  0  0
    7.2417   -8.0042    0.0000 C   0  0  0  0  0  0  0  0  0  0  0  0
   10.8250   -6.0250    0.0000 C   0  0  0  0  0  0  0  0  0  0  0  0
    3.9917   -4.5750    0.0000 C   0  0  0  0  0  0  0  0  0  0  0  0
   11.9167   -7.8750    0.0000 C   0  0  0  0  0  0  0  0  0  0  0  0
    9.5500   -8.0042    0.0000 C   0  0  0  0  0  0  0  0  0  0  0  0
    1.9917   -5.7417    0.0000 O   0  0  0  0  0  0  0  0  0  0  0  0
    2.6542   -4.5750    0.0000 C   0  0  3  0  0  0  0  0  0  0  0  0
    8.3917   -7.3417    0.0000 N   0  0  0  0  0  0  0  0  0  0  0  0
    2.6542   -6.9000    0.0000 C   0  0  0  0  0  0  0  0  0  0  0  0
    1.9917   -3.4417    0.0000 C   0  0  0  0  0  0  0  0  0  0  0  0
    7.2417   -9.3417    0.0000 O   0  0  0  0  0  0  0  0  0  0  0  0
    2.6542   -2.3000    0.0000 C   0  0  0  0  0  0  0  0  0  0  0  0
    0.6542   -3.4417    0.0000 C   0  0  0  0  0  0  0  0  0  0  0  0
    0.6542   -1.1500    0.0000 C   0  0  0  0  0  0  0  0  0  0  0  0
    0.0000   -2.3000    0.0000 C   0  0  0  0  0  0  0  0  0  0  0  0
    1.9917   -1.1500    0.0000 C   0  0  0  0  0  0  0  0  0  0  0  0
    0.0000   -0.0000    0.0000 F   0  0  0  0  0  0  0  0  0  0  0  0
    9.8417   -5.1167    0.0000 C   0  0  0  0  0  0  0  0  0  0  0  0
   12.1792   -9.1917    0.0000 C   0  0  0  0  0  0  0  0  0  0  0  0
  2  3  2  0  0  0  0
  1  3  1  0  0  0  0
  4 13  1  0  0  0  0
  1  5  1  0  0  0  0
  5  6  2  0  0  0  0
  7 12  2  0  0  0  0
  8 10  1  0  0  0  0
  2  9  1  0  0  0  0
  4 10  2  0  0  0  0
  1 11  1  0  0  0  0
  4 12  1  0  0  0  0
 13 16  1  0  0  0  0
 14 15  1  0  0  0  0
 11 15  1  0  0  0  0
  9 16  1  0  0  0  0
  5 17  1  0  0  0  0
 15 18  1  0  0  0  0
  9 19  2  0  0  0  0
 18 20  1  0  0  0  0
 18 21  2  0  0  0  0
 22 23  2  0  0  0  0
 21 23  1  0  0  0  0
 20 24  2  0  0  0  0
 22 25  1  0  0  0  0
 10 26  1  0  0  0  0
 12 27  1  0  0  0  0
 14 17  1  0  0  0  0
  2  6  1  0  0  0  0
 22 24  1  0  0  0  0
  7  8  1  0  0  0  0
M  END
> <MOLFORMULA>
C19 H20 F N5 O2

> <MOLWEIGHT>
3.693980000000000e+002

> <IDNUMBER>
AT-687/PE26869

> <PRICE>
EUR 80/10 mg

> <Similarity score>
0.21

$$$$

  -OEChem-04222410502D

 36 40  0     0  0  0  0  0  0999 V2000
    0.3042   -2.6375    0.0000 C   0  0  0  0  0  0  0  0  0  0  0  0
   -0.4125   -3.0542    0.0000 N   0  3  0  0  0  0  0  0  0  0  0  0
    0.3042   -1.8125    0.0000 C   0  0  0  0  0  0  0  0  0  0  0  0
   -0.4125   -1.3917    0.0000 N   0  0  3  0  0  0  0  0  0  0  0  0
    1.0167   -1.3917    0.0000 C   0  0  0  0  0  0  0  0  0  0  0  0
    4.5875   -0.1542    0.0000 C   0  0  0  0  0  0  0  0  0  0  0  0
    3.8750   -0.5667    0.0000 N   0  0  3  0  0  0  0  0  0  0  0  0
    2.4417   -1.3917    0.0000 N   0  0  3  0  0  0  0  0  0  0  0  0
    1.7292   -1.8042    0.0000 C   0  0  0  0  0  0  0  0  0  0  0  0
   -0.4125   -0.5667    0.0000 C   0  0  0  0  0  0  0  0  0  0  0  0
    1.0167   -3.0500    0.0000 C   0  0  0  0  0  0  0  0  0  0  0  0
   -1.1208   -0.1542    0.0000 C   0  0  0  0  0  0  0  0  0  0  0  0
   -1.1333   -2.6417    0.0000 O   0  5  0  0  0  0  0  0  0  0  0  0
    4.5875    0.6708    0.0000 C   0  0  0  0  0  0  0  0  0  0  0  0
   -0.4125   -3.8792    0.0000 O   0  0  0  0  0  0  0  0  0  0  0  0
   -1.1250   -1.8042    0.0000 C   0  0  0  0  0  0  0  0  0  0  0  0
    3.8750   -1.3917    0.0000 C   0  0  0  0  0  0  0  0  0  0  0  0
    3.1542   -0.1542    0.0000 C   0  0  0  0  0  0  0  0  0  0  0  0
    3.1625   -1.8042    0.0000 C   0  0  0  0  0  0  0  0  0  0  0  0
    2.4417   -0.5667    0.0000 C   0  0  0  0  0  0  0  0  0  0  0  0
    5.3000   -0.5667    0.0000 O   0  0  0  0  0  0  0  0  0  0  0  0
    1.7292   -2.6375    0.0000 C   0  0  0  0  0  0  0  0  0  0  0  0
   -1.8458   -0.5667    0.0000 C   0  0  0  0  0  0  0  0  0  0  0  0
   -1.8458   -1.3917    0.0000 C   0  0  0  0  0  0  0  0  0  0  0  0
    3.8750    1.0750    0.0000 C   0  0  0  0  0  0  0  0  0  0  0  0
    5.3042    1.0833    0.0000 C   0  0  0  0  0  0  0  0  0  0  0  0
    4.5875    2.3208    0.0000 C   0  0  0  0  0  0  0  0  0  0  0  0
    5.3042    1.9083    0.0000 C   0  0  0  0  0  0  0  0  0  0  0  0
    3.8667    1.9000    0.0000 C   0  0  0  0  0  0  0  0  0  0  0  0
    4.5875    3.1458    0.0000 O   0  0  0  0  0  0  0  0  0  0  0  0
   -1.1208    0.6625    0.0000 C   0  0  0  0  0  0  0  0  0  0  0  0
   -2.5458   -0.1500    0.0000 C   0  0  0  0  0  0  0  0  0  0  0  0
    5.3000    3.5583    0.0000 C   0  0  0  0  0  0  0  0  0  0  0  0
    5.3000    4.3750    0.0000 C   0  0  0  0  0  0  0  0  0  0  0  0
   -1.8250    1.0833    0.0000 C   0  0  0  0  0  0  0  0  0  0  0  0
   -2.5458    0.6708    0.0000 C   0  0  0  0  0  0  0  0  0  0  0  0
  1  2  1  0  0  0  0
  1  3  2  0  0  0  0
  3  4  1  0  0  0  0
  3  5  1  0  0  0  0
  6  7  1  0  0  0  0
  7 18  1  0  0  0  0
  8  9  1  0  0  0  0
  9 22  1  0  0  0  0
  4 10  1  0  0  0  0
  1 11  1  0  0  0  0
 10 12  1  0  0  0  0
  2 13  1  0  0  0  0
  6 14  1  0  0  0  0
  2 15  2  0  0  0  0
  4 16  1  0  0  0  0
 17 19  1  0  0  0  0
 18 20  1  0  0  0  0
  8 19  1  0  0  0  0
  8 20  1  0  0  0  0
  6 21  2  0  0  0  0
 11 22  2  0  0  0  0
 23 24  1  0  0  0  0
 16 24  1  0  0  0  0
 14 25  1  0  0  0  0
 14 26  2  0  0  0  0
 27 28  2  0  0  0  0
 26 28  1  0  0  0  0
 25 29  2  0  0  0  0
 27 30  1  0  0  0  0
 12 31  1  0  0  0  0
 23 32  1  0  0  0  0
 30 33  1  0  0  0  0
 33 34  1  0  0  0  0
 31 35  2  0  0  0  0
 32 36  2  0  0  0  0
  5  9  2  0  0  0  0
 12 23  2  0  0  0  0
  7 17  1  0  0  0  0
 35 36  1  0  0  0  0
 27 29  1  0  0  0  0
M  CHG  2   2   1  13  -1
M  END
> <MOLFORMULA>
C28 H30 N4 O4

> <MOLWEIGHT>
4.865690000000000e+002

> <IDNUMBER>
AM-879/J185840

> <PRICE>
EUR 55.00/10 mg

> <Similarity score>
0.21

$$$$

  -OEChem-04222410502D

 30 33  0     0  0  0  0  0  0999 V2000
    8.0250   -5.9750    0.0000 C   0  0  0  0  0  0  0  0  0  0  0  0
    6.8750   -6.6292    0.0000 N   0  0  0  0  0  0  0  0  0  0  0  0
    8.0167   -4.6500    0.0000 N   0  0  3  0  0  0  0  0  0  0  0  0
    9.1750   -6.6292    0.0000 N   0  0  0  0  0  0  0  0  0  0  0  0
    6.8750   -7.9667    0.0000 C   0  0  0  0  0  0  0  0  0  0  0  0
    2.2667   -6.6417    0.0000 C   0  0  0  0  0  0  0  0  0  0  0  0
    2.2667   -7.9667    0.0000 N   0  0  0  0  0  0  0  0  0  0  0  0
    6.8750   -3.9792    0.0000 C   0  0  0  0  0  0  0  0  0  0  0  0
    8.0250   -8.6417    0.0000 C   0  0  0  0  0  0  0  0  0  0  0  0
    3.4167   -8.6417    0.0000 C   0  0  0  0  0  0  0  0  0  0  0  0
    3.4417   -5.9750    0.0000 C   0  0  0  0  0  0  0  0  0  0  0  0
    6.8750   -2.6500    0.0000 C   0  0  0  0  0  0  0  0  0  0  0  0
    9.1750   -7.9667    0.0000 C   0  0  0  0  0  0  0  0  0  0  0  0
    9.1750   -3.9792    0.0000 C   0  0  0  0  0  0  0  0  0  0  0  0
    1.1417   -5.9750    0.0000 C   0  0  0  0  0  0  0  0  0  0  0  0
    8.0167   -1.9750    0.0000 C   0  0  0  0  0  0  0  0  0  0  0  0
    5.7250   -8.6417    0.0000 O   0  0  0  0  0  0  0  0  0  0  0  0
    3.4167   -9.9667    0.0000 O   0  0  0  0  0  0  0  0  0  0  0  0
    9.1750   -2.6500    0.0000 C   0  0  0  0  0  0  0  0  0  0  0  0
    1.1250   -4.6500    0.0000 C   0  0  0  0  0  0  0  0  0  0  0  0
    3.4417   -4.6500    0.0000 C   0  0  0  0  0  0  0  0  0  0  0  0
    4.5792   -7.9667    0.0000 C   0  0  0  0  0  0  0  0  0  0  0  0
    2.2917   -3.9792    0.0000 C   0  0  0  0  0  0  0  0  0  0  0  0
    4.5792   -4.0000    0.0000 F   0  0  0  0  0  0  0  0  0  0  0  0
    5.7167   -2.0042    0.0000 C   0  0  0  0  0  0  0  0  0  0  0  0
   10.3292   -8.6417    0.0000 C   0  0  0  0  0  0  0  0  0  0  0  0
    0.0000   -6.6500    0.0000 C   0  0  0  0  0  0  0  0  0  0  0  0
    8.0042   -0.6500    0.0000 C   0  0  0  0  0  0  0  0  0  0  0  0
    5.7167   -0.6750    0.0000 C   0  0  0  0  0  0  0  0  0  0  0  0
    6.8500   -0.0000    0.0000 C   0  0  0  0  0  0  0  0  0  0  0  0
  1  2  2  0  0  0  0
  1  3  1  0  0  0  0
  1  4  1  0  0  0  0
  2  5  1  0  0  0  0
  6  7  1  0  0  0  0
  7 10  1  0  0  0  0
  3  8  1  0  0  0  0
  9 13  1  0  0  0  0
 10 22  1  0  0  0  0
  6 11  2  0  0  0  0
  8 12  1  0  0  0  0
  4 13  2  0  0  0  0
  3 14  1  0  0  0  0
  6 15  1  0  0  0  0
 16 19  1  0  0  0  0
  5 17  1  0  0  0  0
 10 18  2  0  0  0  0
 14 19  1  0  0  0  0
 15 20  2  0  0  0  0
 11 21  1  0  0  0  0
 17 22  1  0  0  0  0
 20 23  1  0  0  0  0
 21 24  1  0  0  0  0
 12 25  1  0  0  0  0
 13 26  1  0  0  0  0
 15 27  1  0  0  0  0
 16 28  1  0  0  0  0
 25 29  2  0  0  0  0
 28 30  2  0  0  0  0
  5  9  2  0  0  0  0
 12 16  2  0  0  0  0
 29 30  1  0  0  0  0
 21 23  2  0  0  0  0
M  END
> <MOLFORMULA>
C23 H23 F N4 O2

> <MOLWEIGHT>
4.064587000000000e+002

> <IDNUMBER>
AT-687/PE16673

> <PRICE>
EUR 80/10 mg

> <Similarity score>
0.21

$$$$

  -OEChem-04222410502D

 30 33  0     0  0  0  0  0  0999 V2000
    8.0292   -5.9792    0.0000 C   0  0  0  0  0  0  0  0  0  0  0  0
    6.8792   -6.6500    0.0000 N   0  0  0  0  0  0  0  0  0  0  0  0
    8.0250   -4.6500    0.0000 N   0  0  3  0  0  0  0  0  0  0  0  0
    9.1917   -6.6500    0.0000 N   0  0  0  0  0  0  0  0  0  0  0  0
    6.8792   -7.9750    0.0000 C   0  0  0  0  0  0  0  0  0  0  0  0
    6.8750   -4.0000    0.0000 C   0  0  0  0  0  0  0  0  0  0  0  0
    2.2750   -7.9750    0.0000 N   0  0  0  0  0  0  0  0  0  0  0  0
    2.2750   -6.6500    0.0000 C   0  0  0  0  0  0  0  0  0  0  0  0
    8.0292   -8.6417    0.0000 C   0  0  0  0  0  0  0  0  0  0  0  0
    1.1417   -5.9917    0.0000 C   0  0  0  0  0  0  0  0  0  0  0  0
    3.4167   -8.6417    0.0000 C   0  0  0  0  0  0  0  0  0  0  0  0
    6.8750   -2.6500    0.0000 C   0  0  0  0  0  0  0  0  0  0  0  0
    1.1292   -4.6500    0.0000 C   0  0  0  0  0  0  0  0  0  0  0  0
    9.1917   -7.9750    0.0000 C   0  0  0  0  0  0  0  0  0  0  0  0
    9.1750   -3.9917    0.0000 C   0  0  0  0  0  0  0  0  0  0  0  0
    8.0250   -1.9917    0.0000 C   0  0  0  0  0  0  0  0  0  0  0  0
    5.7250   -8.6417    0.0000 O   0  0  0  0  0  0  0  0  0  0  0  0
    3.4167   -9.9667    0.0000 O   0  0  0  0  0  0  0  0  0  0  0  0
    9.1750   -2.6500    0.0000 C   0  0  0  0  0  0  0  0  0  0  0  0
    3.4417   -5.9917    0.0000 C   0  0  0  0  0  0  0  0  0  0  0  0
    2.2750   -4.0000    0.0000 C   0  0  0  0  0  0  0  0  0  0  0  0
    4.5917   -7.9750    0.0000 C   0  0  0  0  0  0  0  0  0  0  0  0
    0.0000   -6.6500    0.0000 Cl  0  0  0  0  0  0  0  0  0  0  0  0
    3.4417   -4.6500    0.0000 C   0  0  0  0  0  0  0  0  0  0  0  0
    2.2750   -2.6750    0.0000 F   0  0  0  0  0  0  0  0  0  0  0  0
    5.7167   -2.0167    0.0000 C   0  0  0  0  0  0  0  0  0  0  0  0
   10.3417   -8.6417    0.0000 C   0  0  0  0  0  0  0  0  0  0  0  0
    8.0167   -0.6667    0.0000 C   0  0  0  0  0  0  0  0  0  0  0  0
    5.6917   -0.6917    0.0000 C   0  0  0  0  0  0  0  0  0  0  0  0
    6.8417   -0.0000    0.0000 C   0  0  0  0  0  0  0  0  0  0  0  0
  1  2  2  0  0  0  0
  1  3  1  0  0  0  0
  1  4  1  0  0  0  0
  2  5  1  0  0  0  0
  3  6  1  0  0  0  0
  7 11  1  0  0  0  0
  7  8  1  0  0  0  0
  9 14  1  0  0  0  0
  8 10  2  0  0  0  0
 11 22  1  0  0  0  0
  6 12  1  0  0  0  0
 10 13  1  0  0  0  0
  4 14  2  0  0  0  0
  3 15  1  0  0  0  0
 16 19  1  0  0  0  0
  5 17  1  0  0  0  0
 11 18  2  0  0  0  0
 15 19  1  0  0  0  0
  8 20  1  0  0  0  0
 21 24  1  0  0  0  0
 17 22  1  0  0  0  0
 10 23  1  0  0  0  0
 20 24  2  0  0  0  0
 21 25  1  0  0  0  0
 12 26  1  0  0  0  0
 14 27  1  0  0  0  0
 16 28  1  0  0  0  0
 26 29  2  0  0  0  0
 28 30  2  0  0  0  0
  5  9  2  0  0  0  0
 12 16  2  0  0  0  0
 29 30  1  0  0  0  0
 13 21  2  0  0  0  0
M  END
> <MOLFORMULA>
C22 H20 Cl F N4 O2

> <MOLWEIGHT>
4.268770000000000e+002

> <IDNUMBER>
AT-687/PE16672

> <PRICE>
EUR 80/10 mg

> <Similarity score>
0.21

$$$$

  -OEChem-04222410502D

 26 29  0     0  0  0  0  0  0999 V2000
    5.9792   -3.3167    0.0000 C   0  0  0  0  0  0  0  0  0  0  0  0
    8.0292   -2.6250    0.0000 N   0  0  3  0  0  0  0  0  0  0  0  0
    6.7542   -2.2417    0.0000 N   0  0  0  0  0  0  0  0  0  0  0  0
    8.0292   -3.9750    0.0000 C   0  0  0  0  0  0  0  0  0  0  0  0
    6.7750   -4.4000    0.0000 C   0  0  0  0  0  0  0  0  0  0  0  0
    4.6500   -3.3292    0.0000 C   0  0  0  0  0  0  0  0  0  0  0  0
    9.1792   -1.9750    0.0000 C   0  0  0  0  0  0  0  0  0  0  0  0
    3.9750   -2.1750    0.0000 N   0  0  0  0  0  0  0  0  0  0  0  0
   10.3417   -3.9750    0.0000 O   0  0  0  0  0  0  0  0  0  0  0  0
   10.3417   -2.6250    0.0000 C   0  0  3  0  0  0  0  0  0  0  0  0
    2.6417   -2.2000    0.0000 C   0  0  0  0  0  0  0  0  0  0  0  0
    9.1792   -4.6292    0.0000 C   0  0  0  0  0  0  0  0  0  0  0  0
   11.4917   -1.9792    0.0000 C   0  0  0  0  0  0  0  0  0  0  0  0
    3.9917   -4.4792    0.0000 O   0  0  0  0  0  0  0  0  0  0  0  0
    1.9792   -3.3500    0.0000 C   0  0  0  0  0  0  0  0  0  0  0  0
   11.4917   -0.6500    0.0000 C   0  0  0  0  0  0  0  0  0  0  0  0
   12.6417   -2.6417    0.0000 C   0  0  0  0  0  0  0  0  0  0  0  0
   13.8000   -0.6667    0.0000 C   0  0  0  0  0  0  0  0  0  0  0  0
    2.6417   -4.5000    0.0000 F   0  0  0  0  0  0  0  0  0  0  0  0
   12.6542   -0.0000    0.0000 C   0  0  0  0  0  0  0  0  0  0  0  0
   13.8000   -1.9792    0.0000 C   0  0  0  0  0  0  0  0  0  0  0  0
   14.9667   -0.0042    0.0000 Cl  0  0  0  0  0  0  0  0  0  0  0  0
    1.9792   -1.0417    0.0000 C   0  0  0  0  0  0  0  0  0  0  0  0
    0.6792   -3.3500    0.0000 C   0  0  0  0  0  0  0  0  0  0  0  0
    0.6500   -1.0417    0.0000 C   0  0  0  0  0  0  0  0  0  0  0  0
    0.0000   -2.2000    0.0000 C   0  0  0  0  0  0  0  0  0  0  0  0
  2  3  1  0  0  0  0
  1  3  2  0  0  0  0
  4  5  2  0  0  0  0
  1  5  1  0  0  0  0
  1  6  1  0  0  0  0
  2  7  1  0  0  0  0
  6  8  1  0  0  0  0
  9 12  1  0  0  0  0
  7 10  1  0  0  0  0
  8 11  1  0  0  0  0
  4 12  1  0  0  0  0
 10 13  1  0  0  0  0
  6 14  2  0  0  0  0
 11 15  2  0  0  0  0
 13 16  1  0  0  0  0
 13 17  2  0  0  0  0
 18 21  2  0  0  0  0
 15 19  1  0  0  0  0
 16 20  2  0  0  0  0
 17 21  1  0  0  0  0
 18 22  1  0  0  0  0
 11 23  1  0  0  0  0
 15 24  1  0  0  0  0
 23 25  2  0  0  0  0
 25 26  1  0  0  0  0
  2  4  1  0  0  0  0
  9 10  1  0  0  0  0
 24 26  2  0  0  0  0
 18 20  1  0  0  0  0
M  END
> <MOLFORMULA>
C19 H15 Cl F N3 O2

> <MOLWEIGHT>
3.717975000000000e+002

> <IDNUMBER>
AT-687/PE21208

> <PRICE>
EUR 80/10 mg

> <Similarity score>
0.21

$$$$

  -OEChem-04222410502D

 28 31  0     0  0  0  0  0  0999 V2000
    9.3292   -2.7250    0.0000 N   0  0  3  0  0  0  0  0  0  0  0  0
    7.2792   -3.4167    0.0000 C   0  0  0  0  0  0  0  0  0  0  0  0
    8.0667   -2.3417    0.0000 N   0  0  0  0  0  0  0  0  0  0  0  0
    9.3500   -4.0667    0.0000 C   0  0  0  0  0  0  0  0  0  0  0  0
    8.0750   -4.5000    0.0000 C   0  0  0  0  0  0  0  0  0  0  0  0
    5.9500   -3.4250    0.0000 C   0  0  0  0  0  0  0  0  0  0  0  0
   10.5000   -2.0500    0.0000 C   0  0  0  0  0  0  0  0  0  0  0  0
   11.6500   -4.0667    0.0000 O   0  0  0  0  0  0  0  0  0  0  0  0
   11.6500   -2.7250    0.0000 C   0  0  3  0  0  0  0  0  0  0  0  0
    5.3000   -4.5792    0.0000 N   0  0  0  0  0  0  0  0  0  0  0  0
   10.5000   -4.7250    0.0000 C   0  0  0  0  0  0  0  0  0  0  0  0
    1.3167   -2.3000    0.0000 C   0  0  0  0  0  0  0  0  0  0  0  0
   12.8000   -2.0750    0.0000 C   0  0  0  0  0  0  0  0  0  0  0  0
    1.9667   -1.1667    0.0000 C   0  0  0  0  0  0  0  0  0  0  0  0
    5.3000   -2.2750    0.0000 O   0  0  0  0  0  0  0  0  0  0  0  0
    1.9750   -3.4417    0.0000 C   0  0  0  0  0  0  0  0  0  0  0  0
   13.9500   -2.7500    0.0000 C   0  0  0  0  0  0  0  0  0  0  0  0
    3.3250   -1.1500    0.0000 C   0  0  0  0  0  0  0  0  0  0  0  0
   12.8000   -0.7542    0.0000 C   0  0  0  0  0  0  0  0  0  0  0  0
    3.3167   -3.4542    0.0000 C   0  0  0  0  0  0  0  0  0  0  0  0
    3.9750   -4.5792    0.0000 C   0  0  0  0  0  0  0  0  0  0  0  0
    0.0000   -2.3250    0.0000 Cl  0  0  0  0  0  0  0  0  0  0  0  0
   15.1042   -0.7542    0.0000 C   0  0  0  0  0  0  0  0  0  0  0  0
    1.3167   -0.0000    0.0000 F   0  0  0  0  0  0  0  0  0  0  0  0
    3.9750   -2.3000    0.0000 C   0  0  0  0  0  0  0  0  0  0  0  0
   13.9500   -0.0917    0.0000 C   0  0  0  0  0  0  0  0  0  0  0  0
   15.1000   -2.0750    0.0000 C   0  0  0  0  0  0  0  0  0  0  0  0
   16.2667   -0.1042    0.0000 Cl  0  0  0  0  0  0  0  0  0  0  0  0
  2  3  2  0  0  0  0
  1  3  1  0  0  0  0
  1  4  1  0  0  0  0
  4  5  2  0  0  0  0
  2  6  1  0  0  0  0
  1  7  1  0  0  0  0
  8  9  1  0  0  0  0
  7  9  1  0  0  0  0
  6 10  1  0  0  0  0
  4 11  1  0  0  0  0
 12 16  1  0  0  0  0
  9 13  1  0  0  0  0
 14 18  1  0  0  0  0
  6 15  2  0  0  0  0
 16 20  2  0  0  0  0
 13 17  2  0  0  0  0
 18 25  2  0  0  0  0
 13 19  1  0  0  0  0
 20 21  1  0  0  0  0
 10 21  1  0  0  0  0
 12 22  1  0  0  0  0
 23 26  1  0  0  0  0
 14 24  1  0  0  0  0
 20 25  1  0  0  0  0
 19 26  2  0  0  0  0
 17 27  1  0  0  0  0
 23 28  1  0  0  0  0
  8 11  1  0  0  0  0
  2  5  1  0  0  0  0
 23 27  2  0  0  0  0
 12 14  2  0  0  0  0
M  END
> <MOLFORMULA>
C20 H16 Cl2 F N3 O2

> <MOLWEIGHT>
4.202694000000000e+002

> <IDNUMBER>
AT-687/PE21281

> <PRICE>
EUR 80/10 mg

> <Similarity score>
0.21

$$$$

  -OEChem-04222410502D

 24 27  0     0  0  0  0  0  0999 V2000
   -0.2708   -0.4375    0.0000 C   0  0  0  0  0  0  0  0  0  0  0  0
    1.2250    0.4333    0.0000 N   0  0  3  0  0  0  0  0  0  0  0  0
   -1.2583   -0.4375    0.0000 C   0  0  0  0  0  0  0  0  0  0  0  0
   -0.2583   -2.1667    0.0000 C   0  0  0  0  0  0  0  0  0  0  0  0
    0.2500   -1.3000    0.0000 C   0  0  0  0  0  0  0  0  0  0  0  0
   -1.2583   -2.1750    0.0000 O   0  0  0  0  0  0  0  0  0  0  0  0
   -1.7500   -1.3042    0.0000 C   0  0  0  0  0  0  0  0  0  0  0  0
    0.2375    0.4333    0.0000 C   0  0  0  0  0  0  0  0  0  0  0  0
    1.7250    1.2833    0.0000 C   0  0  0  0  0  0  0  0  0  0  0  0
   -1.7500    0.4333    0.0000 C   0  0  0  0  0  0  0  0  0  0  0  0
    0.2500   -3.0250    0.0000 O   0  0  0  0  0  0  0  0  0  0  0  0
    2.7250    1.2833    0.0000 C   0  0  0  0  0  0  0  0  0  0  0  0
   -2.7583   -1.3042    0.0000 C   0  0  0  0  0  0  0  0  0  0  0  0
   -2.7583    0.4208    0.0000 C   0  0  0  0  0  0  0  0  0  0  0  0
    1.7250   -0.4625    0.0000 C   0  0  0  0  0  0  0  0  0  0  0  0
   -3.2458   -0.4500    0.0000 C   0  0  0  0  0  0  0  0  0  0  0  0
   -3.2458    1.2833    0.0000 O   0  0  0  0  0  0  0  0  0  0  0  0
    2.7375   -0.4542    0.0000 C   0  0  0  0  0  0  0  0  0  0  0  0
    1.2250    2.1500    0.0000 C   0  0  0  0  0  0  0  0  0  0  0  0
    3.2375    0.4208    0.0000 C   0  0  0  0  0  0  0  0  0  0  0  0
    3.2375    2.1500    0.0000 C   0  0  0  0  0  0  0  0  0  0  0  0
   -2.7583    2.1417    0.0000 C   0  0  0  0  0  0  0  0  0  0  0  0
    1.7250    3.0333    0.0000 C   0  0  0  0  0  0  0  0  0  0  0  0
    2.7375    3.0333    0.0000 C   0  0  0  0  0  0  0  0  0  0  0  0
  2  8  1  0  0  0  0
  1  3  1  0  0  0  0
  4  5  1  0  0  0  0
  1  5  2  0  0  0  0
  4  6  1  0  0  0  0
  3  7  1  0  0  0  0
  1  8  1  0  0  0  0
  2  9  1  0  0  0  0
  3 10  2  0  0  0  0
  4 11  2  0  0  0  0
  9 12  1  0  0  0  0
  7 13  2  0  0  0  0
 10 14  1  0  0  0  0
  2 15  1  0  0  0  0
 14 16  2  0  0  0  0
 14 17  1  0  0  0  0
 15 18  1  0  0  0  0
  9 19  2  0  0  0  0
 18 20  1  0  0  0  0
 12 21  2  0  0  0  0
 17 22  1  0  0  0  0
 19 23  1  0  0  0  0
 23 24  2  0  0  0  0
  6  7  1  0  0  0  0
 13 16  1  0  0  0  0
 12 20  1  0  0  0  0
 21 24  1  0  0  0  0
M  END
> <MOLFORMULA>
C20 H19 N O3

> <MOLWEIGHT>
3.213741000000000e+002

> <IDNUMBER>
AT-057/J151071

> <PRICE>
EUR 42.31/10 mg

> <Similarity score>
0.21

$$$$

  -OEChem-04222410502D

 31 34  0     0  0  0  0  0  0999 V2000
    8.0500   -5.9667    0.0000 C   0  0  0  0  0  0  0  0  0  0  0  0
    6.9000   -6.6250    0.0000 N   0  0  0  0  0  0  0  0  0  0  0  0
    8.0500   -4.6500    0.0000 N   0  0  3  0  0  0  0  0  0  0  0  0
    9.2000   -6.6250    0.0000 N   0  0  0  0  0  0  0  0  0  0  0  0
    2.2917   -6.6250    0.0000 C   0  0  0  0  0  0  0  0  0  0  0  0
    6.9000   -7.9667    0.0000 C   0  0  0  0  0  0  0  0  0  0  0  0
    2.2917   -7.9667    0.0000 N   0  0  0  0  0  0  0  0  0  0  0  0
    1.1500   -5.9917    0.0000 C   0  0  0  0  0  0  0  0  0  0  0  0
    3.4542   -5.9917    0.0000 C   0  0  0  0  0  0  0  0  0  0  0  0
    6.9000   -3.9917    0.0000 C   0  0  0  0  0  0  0  0  0  0  0  0
    8.0500   -8.6292    0.0000 C   0  0  0  0  0  0  0  0  0  0  0  0
    3.4417   -8.6292    0.0000 C   0  0  0  0  0  0  0  0  0  0  0  0
    6.9000   -2.6542    0.0000 C   0  0  0  0  0  0  0  0  0  0  0  0
    9.2000   -7.9667    0.0000 C   0  0  0  0  0  0  0  0  0  0  0  0
    9.2000   -4.0000    0.0000 C   0  0  0  0  0  0  0  0  0  0  0  0
    1.1500   -4.6542    0.0000 C   0  0  0  0  0  0  0  0  0  0  0  0
    3.4542   -4.6542    0.0000 C   0  0  0  0  0  0  0  0  0  0  0  0
    8.0500   -1.9792    0.0000 C   0  0  0  0  0  0  0  0  0  0  0  0
    2.3042   -4.0000    0.0000 C   0  0  0  0  0  0  0  0  0  0  0  0
    5.7500   -8.6292    0.0000 O   0  0  0  0  0  0  0  0  0  0  0  0
    3.4417   -9.9542    0.0000 O   0  0  0  0  0  0  0  0  0  0  0  0
    9.2000   -2.6542    0.0000 C   0  0  0  0  0  0  0  0  0  0  0  0
    4.6000   -7.9667    0.0000 C   0  0  0  0  0  0  0  0  0  0  0  0
    4.6042   -6.6500    0.0000 C   0  0  0  0  0  0  0  0  0  0  0  0
    0.0000   -6.6500    0.0000 C   0  0  0  0  0  0  0  0  0  0  0  0
    5.7500   -2.0000    0.0000 C   0  0  0  0  0  0  0  0  0  0  0  0
   10.3667   -8.6292    0.0000 C   0  0  0  0  0  0  0  0  0  0  0  0
    8.0250   -0.6500    0.0000 C   0  0  0  0  0  0  0  0  0  0  0  0
    2.3042   -2.6542    0.0000 C   0  0  0  0  0  0  0  0  0  0  0  0
    5.7417   -0.6917    0.0000 C   0  0  0  0  0  0  0  0  0  0  0  0
    6.8917   -0.0000    0.0000 C   0  0  0  0  0  0  0  0  0  0  0  0
  1  2  2  0  0  0  0
  1  3  1  0  0  0  0
  1  4  1  0  0  0  0
  5  7  1  0  0  0  0
  2  6  1  0  0  0  0
  7 12  1  0  0  0  0
  5  8  1  0  0  0  0
  5  9  2  0  0  0  0
  3 10  1  0  0  0  0
 11 14  1  0  0  0  0
 12 23  1  0  0  0  0
 10 13  1  0  0  0  0
  4 14  2  0  0  0  0
  3 15  1  0  0  0  0
  8 16  2  0  0  0  0
  9 17  1  0  0  0  0
 18 22  1  0  0  0  0
 17 19  2  0  0  0  0
  6 20  1  0  0  0  0
 12 21  2  0  0  0  0
 15 22  1  0  0  0  0
 20 23  1  0  0  0  0
  9 24  1  0  0  0  0
  8 25  1  0  0  0  0
 13 26  1  0  0  0  0
 14 27  1  0  0  0  0
 18 28  1  0  0  0  0
 19 29  1  0  0  0  0
 26 30  2  0  0  0  0
 28 31  2  0  0  0  0
  6 11  2  0  0  0  0
 13 18  2  0  0  0  0
 30 31  1  0  0  0  0
 16 19  1  0  0  0  0
M  END
> <MOLFORMULA>
C25 H28 N4 O2

> <MOLWEIGHT>
4.165222000000000e+002

> <IDNUMBER>
AT-687/PE16664

> <PRICE>
EUR 80/10 mg

> <Similarity score>
0.21

$$$$

  -OEChem-04222410502D

 26 29  0     0  0  0  0  0  0999 V2000
    2.7417   -4.0917    0.0000 C   0  0  0  0  0  0  0  0  0  0  0  0
    8.7250   -5.2417    0.0000 N   0  0  0  0  0  0  0  0  0  0  0  0
    6.7250   -6.4000    0.0000 C   0  0  0  0  0  0  0  0  0  0  0  0
    9.4000   -6.4000    0.0000 N   0  0  3  0  0  0  0  0  0  0  0  0
    4.7292   -5.2417    0.0000 N   0  0  3  0  0  0  0  0  0  0  0  0
    3.4042   -5.2417    0.0000 C   0  0  0  0  0  0  0  0  0  0  0  0
    1.4250   -3.9542    0.0000 N   0  0  0  0  0  0  0  0  0  0  0  0
    8.7250   -7.5500    0.0000 C   0  0  0  0  0  0  0  0  0  0  0  0
    7.4000   -5.2417    0.0000 C   0  0  0  0  0  0  0  0  0  0  0  0
    7.4000   -7.5500    0.0000 C   0  0  0  0  0  0  0  0  0  0  0  0
    3.2917   -2.8750    0.0000 C   0  0  0  0  0  0  0  0  0  0  0  0
    5.4000   -6.4000    0.0000 C   0  0  0  0  0  0  0  0  0  0  0  0
    1.1500   -2.6500    0.0000 C   0  0  0  0  0  0  0  0  0  0  0  0
    2.3000   -1.9917    0.0000 C   0  0  0  0  0  0  0  0  0  0  0  0
    6.7250   -4.0917    0.0000 C   0  0  0  0  0  0  0  0  0  0  0  0
    5.4000   -4.0917    0.0000 C   0  0  0  0  0  0  0  0  0  0  0  0
    2.7417   -6.4000    0.0000 O   0  0  0  0  0  0  0  0  0  0  0  0
    9.4000   -8.7000    0.0000 O   0  0  0  0  0  0  0  0  0  0  0  0
   10.7250   -6.4000    0.0000 C   0  0  0  0  0  0  0  0  0  0  0  0
   12.7167   -5.2417    0.0000 O   0  0  0  0  0  0  0  0  0  0  0  0
    0.0000   -1.9917    0.0000 C   0  0  0  0  0  0  0  0  0  0  0  0
    2.3000   -0.6500    0.0000 C   0  0  0  0  0  0  0  0  0  0  0  0
   11.3917   -5.2417    0.0000 C   0  0  0  0  0  0  0  0  0  0  0  0
   13.3792   -4.0917    0.0000 C   0  0  0  0  0  0  0  0  0  0  0  0
    0.0000   -0.6500    0.0000 C   0  0  0  0  0  0  0  0  0  0  0  0
    1.1500   -0.0000    0.0000 C   0  0  0  0  0  0  0  0  0  0  0  0
  2  9  2  0  0  0  0
  3 12  1  0  0  0  0
  2  4  1  0  0  0  0
  5  6  1  0  0  0  0
  1  6  1  0  0  0  0
  1  7  1  0  0  0  0
  8 10  1  0  0  0  0
  9 15  1  0  0  0  0
  3 10  2  0  0  0  0
  1 11  2  0  0  0  0
  5 12  1  0  0  0  0
  7 13  1  0  0  0  0
 11 14  1  0  0  0  0
 15 16  1  0  0  0  0
  5 16  1  0  0  0  0
  6 17  2  0  0  0  0
  8 18  2  0  0  0  0
  4 19  1  0  0  0  0
 20 23  1  0  0  0  0
 13 21  1  0  0  0  0
 14 22  1  0  0  0  0
 19 23  1  0  0  0  0
 20 24  1  0  0  0  0
 21 25  2  0  0  0  0
 22 26  2  0  0  0  0
 13 14  2  0  0  0  0
 25 26  1  0  0  0  0
  3  9  1  0  0  0  0
  4  8  1  0  0  0  0
M  END
> <MOLFORMULA>
C19 H20 N4 O3

> <MOLWEIGHT>
3.523920000000000e+002

> <IDNUMBER>
AT-687/PE26887

> <PRICE>
EUR 80/10 mg

> <Similarity score>
0.21

$$$$

  -OEChem-04222410502D

 30 34  0     0  0  0  0  0  0999 V2000
    9.3250   -4.1000    0.0000 N   0  0  3  0  0  0  0  0  0  0  0  0
    7.2917   -4.7750    0.0000 C   0  0  0  0  0  0  0  0  0  0  0  0
    8.0542   -3.7000    0.0000 N   0  0  0  0  0  0  0  0  0  0  0  0
    9.3500   -5.4292    0.0000 C   0  0  0  0  0  0  0  0  0  0  0  0
    8.0750   -5.8500    0.0000 C   0  0  0  0  0  0  0  0  0  0  0  0
    5.9500   -4.7917    0.0000 C   0  0  0  0  0  0  0  0  0  0  0  0
   10.4917   -3.4250    0.0000 C   0  0  0  0  0  0  0  0  0  0  0  0
   11.6500   -5.4292    0.0000 O   0  0  0  0  0  0  0  0  0  0  0  0
   11.6500   -4.1000    0.0000 C   0  0  3  0  0  0  0  0  0  0  0  0
   13.9500   -1.4542    0.0000 C   0  0  0  0  0  0  0  0  0  0  0  0
   12.7917   -3.4417    0.0000 C   0  0  0  0  0  0  0  0  0  0  0  0
    5.3042   -5.9292    0.0000 N   0  0  0  0  0  0  0  0  0  0  0  0
   12.7917   -2.1250    0.0000 C   0  0  0  0  0  0  0  0  0  0  0  0
   10.4917   -6.1000    0.0000 C   0  0  0  0  0  0  0  0  0  0  0  0
   15.1042   -2.1000    0.0000 C   0  0  0  0  0  0  0  0  0  0  0  0
    3.3042   -4.8250    0.0000 C   0  0  0  0  0  0  0  0  0  0  0  0
   14.2417   -0.1500    0.0000 O   0  0  0  0  0  0  0  0  0  0  0  0
   16.0917   -1.2292    0.0000 O   0  0  0  0  0  0  0  0  0  0  0  0
   15.5667   -0.0000    0.0000 C   0  0  0  0  0  0  0  0  0  0  0  0
    3.9500   -5.9500    0.0000 C   0  0  0  0  0  0  0  0  0  0  0  0
    5.2917   -3.6500    0.0000 O   0  0  0  0  0  0  0  0  0  0  0  0
    1.9917   -4.8042    0.0000 C   0  0  0  0  0  0  0  0  0  0  0  0
   13.9292   -4.1000    0.0000 C   0  0  0  0  0  0  0  0  0  0  0  0
   15.1042   -3.4500    0.0000 C   0  0  0  0  0  0  0  0  0  0  0  0
    1.3167   -5.9792    0.0000 O   0  0  0  0  0  0  0  0  0  0  0  0
    3.9750   -3.6750    0.0000 C   0  0  0  0  0  0  0  0  0  0  0  0
    1.3250   -3.6750    0.0000 C   0  0  0  0  0  0  0  0  0  0  0  0
    0.0000   -5.9667    0.0000 C   0  0  0  0  0  0  0  0  0  0  0  0
    3.3250   -2.5250    0.0000 C   0  0  0  0  0  0  0  0  0  0  0  0
    1.9917   -2.5250    0.0000 C   0  0  0  0  0  0  0  0  0  0  0  0
  2  3  2  0  0  0  0
  1  3  1  0  0  0  0
  1  4  1  0  0  0  0
  4  5  2  0  0  0  0
  2  6  1  0  0  0  0
  1  7  1  0  0  0  0
  8  9  1  0  0  0  0
  7  9  1  0  0  0  0
 10 13  1  0  0  0  0
  9 11  1  0  0  0  0
  6 12  1  0  0  0  0
 11 13  2  0  0  0  0
  4 14  1  0  0  0  0
 15 24  1  0  0  0  0
 16 20  1  0  0  0  0
 10 17  1  0  0  0  0
 15 18  1  0  0  0  0
 17 19  1  0  0  0  0
 12 20  1  0  0  0  0
  6 21  2  0  0  0  0
 16 22  2  0  0  0  0
 11 23  1  0  0  0  0
 23 24  2  0  0  0  0
 22 25  1  0  0  0  0
 16 26  1  0  0  0  0
 22 27  1  0  0  0  0
 25 28  1  0  0  0  0
 26 29  2  0  0  0  0
 29 30  1  0  0  0  0
  8 14  1  0  0  0  0
  2  5  1  0  0  0  0
 10 15  2  0  0  0  0
 18 19  1  0  0  0  0
 27 30  2  0  0  0  0
M  END
> <MOLFORMULA>
C22 H21 N3 O5

> <MOLWEIGHT>
4.074239000000000e+002

> <IDNUMBER>
AT-687/PE21316

> <PRICE>
EUR 80/10 mg

> <Similarity score>
0.21

$$$$

  -OEChem-04222410502D

 29 32  0     0  0  0  0  0  0999 V2000
    6.0917   -7.3500    0.0000 C   0  0  0  0  0  0  0  0  0  0  0  0
    4.6500   -5.7542    0.0000 N   0  0  3  0  0  0  0  0  0  0  0  0
    5.9500   -6.0250    0.0000 N   0  0  0  0  0  0  0  0  0  0  0  0
    3.9792   -6.9000    0.0000 C   0  0  0  0  0  0  0  0  0  0  0  0
    4.8750   -7.8917    0.0000 C   0  0  0  0  0  0  0  0  0  0  0  0
    7.2417   -8.0167    0.0000 C   0  0  0  0  0  0  0  0  0  0  0  0
    3.9792   -4.6000    0.0000 C   0  0  0  0  0  0  0  0  0  0  0  0
    2.0000   -5.7542    0.0000 O   0  0  0  0  0  0  0  0  0  0  0  0
    8.3917   -7.3500    0.0000 N   0  0  0  0  0  0  0  0  0  0  0  0
    2.6500   -4.6000    0.0000 C   0  0  3  0  0  0  0  0  0  0  0  0
    2.6500   -6.9000    0.0000 C   0  0  0  0  0  0  0  0  0  0  0  0
    9.5500  -12.0000    0.0000 C   0  0  0  0  0  0  0  0  0  0  0  0
   10.6917  -11.3292    0.0000 N   0  0  0  0  0  0  0  0  0  0  0  0
    2.0000   -3.4500    0.0000 C   0  0  0  0  0  0  0  0  0  0  0  0
    9.5500   -8.0167    0.0000 C   0  0  0  0  0  0  0  0  0  0  0  0
    7.2417   -9.3500    0.0000 O   0  0  0  0  0  0  0  0  0  0  0  0
    9.5500   -9.3500    0.0000 C   0  0  0  0  0  0  0  0  0  0  0  0
   10.6917  -10.0167    0.0000 C   0  0  0  0  0  0  0  0  0  0  0  0
    8.3917  -11.3292    0.0000 O   0  0  0  0  0  0  0  0  0  0  0  0
    2.6500   -2.3000    0.0000 C   0  0  0  0  0  0  0  0  0  0  0  0
    0.6667   -3.4500    0.0000 C   0  0  0  0  0  0  0  0  0  0  0  0
    0.6667   -1.1417    0.0000 C   0  0  0  0  0  0  0  0  0  0  0  0
    0.0000   -2.3000    0.0000 C   0  0  0  0  0  0  0  0  0  0  0  0
    2.0000   -1.1417    0.0000 C   0  0  0  0  0  0  0  0  0  0  0  0
    0.0000   -0.0000    0.0000 F   0  0  0  0  0  0  0  0  0  0  0  0
   11.8417   -8.0167    0.0000 C   0  0  0  0  0  0  0  0  0  0  0  0
    9.5500  -13.3292    0.0000 C   0  0  0  0  0  0  0  0  0  0  0  0
   10.6917   -7.3500    0.0000 C   0  0  0  0  0  0  0  0  0  0  0  0
   11.8417   -9.3500    0.0000 C   0  0  0  0  0  0  0  0  0  0  0  0
  2  3  1  0  0  0  0
  1  3  2  0  0  0  0
  4  5  2  0  0  0  0
  1  5  1  0  0  0  0
  1  6  1  0  0  0  0
  2  7  1  0  0  0  0
  8 11  1  0  0  0  0
  6  9  1  0  0  0  0
  7 10  1  0  0  0  0
  4 11  1  0  0  0  0
 12 13  1  0  0  0  0
 13 18  1  0  0  0  0
 10 14  1  0  0  0  0
  9 15  1  0  0  0  0
  6 16  2  0  0  0  0
 15 17  2  0  0  0  0
 17 18  1  0  0  0  0
 12 19  2  0  0  0  0
 14 20  1  0  0  0  0
 14 21  2  0  0  0  0
 22 23  2  0  0  0  0
 21 23  1  0  0  0  0
 20 24  2  0  0  0  0
 22 25  1  0  0  0  0
 26 28  2  0  0  0  0
 12 27  1  0  0  0  0
 15 28  1  0  0  0  0
 26 29  1  0  0  0  0
  2  4  1  0  0  0  0
  8 10  1  0  0  0  0
 18 29  2  0  0  0  0
 22 24  1  0  0  0  0
M  END
> <MOLFORMULA>
C21 H19 F N4 O3

> <MOLWEIGHT>
3.944041000000000e+002

> <IDNUMBER>
AT-687/PE26866

> <PRICE>
EUR 80/10 mg

> <Similarity score>
0.21

$$$$

  -OEChem-04222410502D

 31 34  0     0  0  0  0  0  0999 V2000
    7.9542   -3.4167    0.0000 C   0  0  0  0  0  0  0  0  0  0  0  0
   10.0042   -2.7417    0.0000 N   0  0  3  0  0  0  0  0  0  0  0  0
    8.7417   -2.3292    0.0000 N   0  0  0  0  0  0  0  0  0  0  0  0
   10.0042   -4.0667    0.0000 C   0  0  0  0  0  0  0  0  0  0  0  0
    8.7500   -4.5000    0.0000 C   0  0  0  0  0  0  0  0  0  0  0  0
    6.6250   -3.4292    0.0000 C   0  0  0  0  0  0  0  0  0  0  0  0
   11.1542   -2.0667    0.0000 C   0  0  0  0  0  0  0  0  0  0  0  0
    1.9542   -2.3000    0.0000 C   0  0  0  0  0  0  0  0  0  0  0  0
    2.6417   -3.4500    0.0000 C   0  0  0  0  0  0  0  0  0  0  0  0
    2.6250   -1.1500    0.0000 C   0  0  0  0  0  0  0  0  0  0  0  0
    5.9542   -2.2750    0.0000 N   0  0  0  0  0  0  0  0  0  0  0  0
    4.6417   -2.3000    0.0000 C   0  0  0  0  0  0  0  0  0  0  0  0
   12.3167   -4.0667    0.0000 O   0  0  0  0  0  0  0  0  0  0  0  0
   12.3167   -2.7417    0.0000 C   0  0  3  0  0  0  0  0  0  0  0  0
    3.9417   -3.4500    0.0000 C   0  0  0  0  0  0  0  0  0  0  0  0
    3.9417   -1.1500    0.0000 C   0  0  0  0  0  0  0  0  0  0  0  0
   11.1542   -4.7417    0.0000 C   0  0  0  0  0  0  0  0  0  0  0  0
   13.4667   -2.0750    0.0000 C   0  0  0  0  0  0  0  0  0  0  0  0
    5.9542   -4.5917    0.0000 O   0  0  0  0  0  0  0  0  0  0  0  0
   13.4667   -0.7542    0.0000 C   0  0  0  0  0  0  0  0  0  0  0  0
   14.6167   -2.7417    0.0000 C   0  0  0  0  0  0  0  0  0  0  0  0
    0.6417   -2.3000    0.0000 O   0  0  0  0  0  0  0  0  0  0  0  0
    1.9750   -4.5917    0.0000 O   0  0  0  0  0  0  0  0  0  0  0  0
    1.9542   -0.0000    0.0000 O   0  0  0  0  0  0  0  0  0  0  0  0
   15.7917   -0.7542    0.0000 C   0  0  0  0  0  0  0  0  0  0  0  0
   14.6292   -0.0917    0.0000 C   0  0  0  0  0  0  0  0  0  0  0  0
   15.7667   -2.0750    0.0000 C   0  0  0  0  0  0  0  0  0  0  0  0
   16.9417   -0.0917    0.0000 Cl  0  0  0  0  0  0  0  0  0  0  0  0
    0.0000   -3.4667    0.0000 C   0  0  0  0  0  0  0  0  0  0  0  0
    2.6417   -5.7417    0.0000 C   0  0  0  0  0  0  0  0  0  0  0  0
    0.6417   -0.0000    0.0000 C   0  0  0  0  0  0  0  0  0  0  0  0
  2  3  1  0  0  0  0
  1  3  2  0  0  0  0
  4  5  2  0  0  0  0
  1  5  1  0  0  0  0
  1  6  1  0  0  0  0
  2  7  1  0  0  0  0
  8 10  1  0  0  0  0
  9 15  1  0  0  0  0
 10 16  2  0  0  0  0
  6 11  1  0  0  0  0
 11 12  1  0  0  0  0
 13 17  1  0  0  0  0
  7 14  1  0  0  0  0
 12 15  2  0  0  0  0
 12 16  1  0  0  0  0
  4 17  1  0  0  0  0
 14 18  1  0  0  0  0
  6 19  2  0  0  0  0
 18 20  1  0  0  0  0
 18 21  2  0  0  0  0
  8 22  1  0  0  0  0
  9 23  1  0  0  0  0
 10 24  1  0  0  0  0
 25 27  2  0  0  0  0
 20 26  2  0  0  0  0
 21 27  1  0  0  0  0
 25 28  1  0  0  0  0
 22 29  1  0  0  0  0
 23 30  1  0  0  0  0
 24 31  1  0  0  0  0
  2  4  1  0  0  0  0
 13 14  1  0  0  0  0
  8  9  2  0  0  0  0
 25 26  1  0  0  0  0
M  END
> <MOLFORMULA>
C22 H22 Cl N3 O5

> <MOLWEIGHT>
4.438848000000000e+002

> <IDNUMBER>
AT-687/PE21201

> <PRICE>
EUR 80/10 mg

> <Similarity score>
0.21

$$$$

  -OEChem-04222410502D

 36 41  0     0  0  0  0  0  0999 V2000
    5.8000   -5.9750    0.0000 C   0  0  0  0  0  0  0  0  0  0  0  0
    4.6417   -6.6417    0.0000 C   0  0  0  0  0  0  0  0  0  0  0  0
    3.5000   -5.9750    0.0000 O   0  0  0  0  0  0  0  0  0  0  0  0
    3.5000   -4.6500    0.0000 C   0  0  0  0  0  0  0  0  0  0  0  0
    2.3500   -3.9917    0.0000 C   0  0  0  0  0  0  0  0  0  0  0  0
    5.8000   -4.6500    0.0000 C   0  0  0  0  0  0  0  0  0  0  0  0
    6.9667   -6.6500    0.0000 C   0  0  0  0  0  0  0  0  0  0  0  0
    4.6417   -3.9917    0.0000 C   0  0  0  0  0  0  0  0  0  0  0  0
    2.3500   -2.6542    0.0000 C   0  0  0  0  0  0  0  0  0  0  0  0
    4.6167   -7.9667    0.0000 N   0  0  0  0  0  0  0  0  0  0  0  0
    3.5000   -2.0000    0.0000 C   0  0  0  0  0  0  0  0  0  0  0  0
    6.9750   -7.9792    0.0000 N   0  0  0  0  0  0  0  0  0  0  0  0
    1.2000   -2.0000    0.0000 N   0  0  3  0  0  0  0  0  0  0  0  0
    4.6417   -2.6542    0.0000 C   0  0  0  0  0  0  0  0  0  0  0  0
    8.1167   -8.6500    0.0000 C   0  0  0  0  0  0  0  0  0  0  0  0
    8.1000   -5.9917    0.0000 O   0  0  0  0  0  0  0  0  0  0  0  0
    9.2500   -7.9792    0.0000 C   0  0  0  0  0  0  0  0  0  0  0  0
    3.4750   -8.6250    0.0000 C   0  0  0  0  0  0  0  0  0  0  0  0
    1.2042   -4.6500    0.0000 C   0  0  0  0  0  0  0  0  0  0  0  0
    1.1500   -9.9500    0.0000 C   0  0  0  0  0  0  0  0  0  0  0  0
    3.5000   -0.6500    0.0000 C   0  0  0  0  0  0  0  0  0  0  0  0
    0.0000  -10.6000    0.0000 F   0  0  0  0  0  0  0  0  0  0  0  0
    1.2000   -0.6500    0.0000 C   0  0  0  0  0  0  0  0  0  0  0  0
    0.0417   -2.6542    0.0000 C   0  0  0  0  0  0  0  0  0  0  0  0
    2.3167   -7.9500    0.0000 C   0  0  0  0  0  0  0  0  0  0  0  0
    3.4667   -9.9500    0.0000 C   0  0  0  0  0  0  0  0  0  0  0  0
    2.3167  -10.6167    0.0000 C   0  0  0  0  0  0  0  0  0  0  0  0
    1.1667   -8.6000    0.0000 C   0  0  0  0  0  0  0  0  0  0  0  0
    9.2500   -6.6667    0.0000 O   0  0  0  0  0  0  0  0  0  0  0  0
    0.0417   -3.9917    0.0000 C   0  0  0  0  0  0  0  0  0  0  0  0
    2.3500   -0.0000    0.0000 C   0  0  0  0  0  0  0  0  0  0  0  0
    8.1167   -9.9917    0.0000 C   0  0  0  0  0  0  0  0  0  0  0  0
   10.4167   -8.6500    0.0000 C   0  0  0  0  0  0  0  0  0  0  0  0
   10.3917   -5.9917    0.0000 C   0  0  0  0  0  0  0  0  0  0  0  0
    9.2500  -10.6500    0.0000 C   0  0  0  0  0  0  0  0  0  0  0  0
   10.4167   -9.9917    0.0000 C   0  0  0  0  0  0  0  0  0  0  0  0
  1  2  1  0  0  0  0
  2  3  1  0  0  0  0
  4  8  2  0  0  0  0
  4  5  1  0  0  0  0
  1  6  2  0  0  0  0
  1  7  1  0  0  0  0
  6  8  1  0  0  0  0
  9 11  1  0  0  0  0
  2 10  2  0  0  0  0
 11 14  2  0  0  0  0
  7 12  1  0  0  0  0
  9 13  1  0  0  0  0
  8 14  1  0  0  0  0
 12 15  1  0  0  0  0
  7 16  2  0  0  0  0
 15 17  2  0  0  0  0
 10 18  1  0  0  0  0
  5 19  1  0  0  0  0
 20 27  2  0  0  0  0
 11 21  1  0  0  0  0
 20 22  1  0  0  0  0
 23 31  1  0  0  0  0
 13 24  1  0  0  0  0
 18 25  1  0  0  0  0
 18 26  2  0  0  0  0
 26 27  1  0  0  0  0
 25 28  2  0  0  0  0
 17 29  1  0  0  0  0
 19 30  1  0  0  0  0
 21 31  1  0  0  0  0
 15 32  1  0  0  0  0
 17 33  1  0  0  0  0
 29 34  1  0  0  0  0
 32 35  2  0  0  0  0
 35 36  1  0  0  0  0
  3  4  1  0  0  0  0
  5  9  2  0  0  0  0
 20 28  1  0  0  0  0
 33 36  2  0  0  0  0
 24 30  1  0  0  0  0
 13 23  1  0  0  0  0
M  END
> <MOLFORMULA>
C29 H26 F N3 O3

> <MOLWEIGHT>
4.835404000000000e+002

> <IDNUMBER>
AT-687/PE10213

> <PRICE>
EUR 80/10 mg

> <Similarity score>
0.20

$$$$

  -OEChem-04222410502D

 31 34  0     0  0  0  0  0  0999 V2000
    7.9542   -3.4167    0.0000 C   0  0  0  0  0  0  0  0  0  0  0  0
   10.0042   -2.7417    0.0000 N   0  0  3  0  0  0  0  0  0  0  0  0
    8.7417   -2.3292    0.0000 N   0  0  0  0  0  0  0  0  0  0  0  0
   10.0042   -4.0667    0.0000 C   0  0  0  0  0  0  0  0  0  0  0  0
    8.7500   -4.5000    0.0000 C   0  0  0  0  0  0  0  0  0  0  0  0
    6.6250   -3.4292    0.0000 C   0  0  0  0  0  0  0  0  0  0  0  0
   11.1542   -2.0667    0.0000 C   0  0  0  0  0  0  0  0  0  0  0  0
    1.9542   -2.3000    0.0000 C   0  0  0  0  0  0  0  0  0  0  0  0
    2.6417   -3.4500    0.0000 C   0  0  0  0  0  0  0  0  0  0  0  0
    2.6250   -1.1500    0.0000 C   0  0  0  0  0  0  0  0  0  0  0  0
    5.9542   -2.2750    0.0000 N   0  0  0  0  0  0  0  0  0  0  0  0
    4.6417   -2.3000    0.0000 C   0  0  0  0  0  0  0  0  0  0  0  0
   12.3167   -4.0667    0.0000 O   0  0  0  0  0  0  0  0  0  0  0  0
   12.3167   -2.7417    0.0000 C   0  0  3  0  0  0  0  0  0  0  0  0
    3.9417   -3.4500    0.0000 C   0  0  0  0  0  0  0  0  0  0  0  0
    3.9417   -1.1500    0.0000 C   0  0  0  0  0  0  0  0  0  0  0  0
   11.1542   -4.7417    0.0000 C   0  0  0  0  0  0  0  0  0  0  0  0
   13.4667   -2.0750    0.0000 C   0  0  0  0  0  0  0  0  0  0  0  0
    5.9542   -4.5917    0.0000 O   0  0  0  0  0  0  0  0  0  0  0  0
   13.4667   -0.7542    0.0000 C   0  0  0  0  0  0  0  0  0  0  0  0
   14.6167   -2.7417    0.0000 C   0  0  0  0  0  0  0  0  0  0  0  0
    0.6417   -2.3000    0.0000 O   0  0  0  0  0  0  0  0  0  0  0  0
    1.9750   -4.5917    0.0000 O   0  0  0  0  0  0  0  0  0  0  0  0
    1.9542   -0.0000    0.0000 O   0  0  0  0  0  0  0  0  0  0  0  0
   15.7917   -0.7542    0.0000 C   0  0  0  0  0  0  0  0  0  0  0  0
   14.6292   -0.0917    0.0000 C   0  0  0  0  0  0  0  0  0  0  0  0
   15.7667   -2.0750    0.0000 C   0  0  0  0  0  0  0  0  0  0  0  0
   16.9417   -0.0917    0.0000 Br  0  0  0  0  0  0  0  0  0  0  0  0
    0.0000   -3.4667    0.0000 C   0  0  0  0  0  0  0  0  0  0  0  0
    2.6417   -5.7417    0.0000 C   0  0  0  0  0  0  0  0  0  0  0  0
    0.6417   -0.0000    0.0000 C   0  0  0  0  0  0  0  0  0  0  0  0
  2  3  1  0  0  0  0
  1  3  2  0  0  0  0
  4  5  2  0  0  0  0
  1  5  1  0  0  0  0
  1  6  1  0  0  0  0
  2  7  1  0  0  0  0
  8 10  1  0  0  0  0
  9 15  1  0  0  0  0
 10 16  2  0  0  0  0
  6 11  1  0  0  0  0
 11 12  1  0  0  0  0
 13 17  1  0  0  0  0
  7 14  1  0  0  0  0
 12 15  2  0  0  0  0
 12 16  1  0  0  0  0
  4 17  1  0  0  0  0
 14 18  1  0  0  0  0
  6 19  2  0  0  0  0
 18 20  1  0  0  0  0
 18 21  2  0  0  0  0
  8 22  1  0  0  0  0
  9 23  1  0  0  0  0
 10 24  1  0  0  0  0
 25 27  2  0  0  0  0
 20 26  2  0  0  0  0
 21 27  1  0  0  0  0
 25 28  1  0  0  0  0
 22 29  1  0  0  0  0
 23 30  1  0  0  0  0
 24 31  1  0  0  0  0
  2  4  1  0  0  0  0
 13 14  1  0  0  0  0
  8  9  2  0  0  0  0
 25 26  1  0  0  0  0
M  END
> <MOLFORMULA>
C22 H22 Br N3 O5

> <MOLWEIGHT>
4.883358000000000e+002

> <IDNUMBER>
AT-687/PE21224

> <PRICE>
EUR 80/10 mg

> <Similarity score>
0.20

$$$$

  -OEChem-04222410502D

 30 33  0     0  0  0  0  0  0999 V2000
    8.0417   -5.9750    0.0000 C   0  0  0  0  0  0  0  0  0  0  0  0
    6.8917   -6.6417    0.0000 N   0  0  0  0  0  0  0  0  0  0  0  0
    8.0250   -4.6417    0.0000 N   0  0  3  0  0  0  0  0  0  0  0  0
    9.1917   -6.6417    0.0000 N   0  0  0  0  0  0  0  0  0  0  0  0
    6.8917   -7.9667    0.0000 C   0  0  0  0  0  0  0  0  0  0  0  0
    6.8750   -3.9750    0.0000 C   0  0  0  0  0  0  0  0  0  0  0  0
    2.2750   -7.9667    0.0000 N   0  0  0  0  0  0  0  0  0  0  0  0
    2.2750   -6.6417    0.0000 C   0  0  0  0  0  0  0  0  0  0  0  0
    8.0417   -8.6417    0.0000 C   0  0  0  0  0  0  0  0  0  0  0  0
    3.4250   -8.6417    0.0000 C   0  0  0  0  0  0  0  0  0  0  0  0
    6.8750   -2.6500    0.0000 C   0  0  0  0  0  0  0  0  0  0  0  0
    1.1417   -5.9917    0.0000 C   0  0  0  0  0  0  0  0  0  0  0  0
    9.1917   -7.9667    0.0000 C   0  0  0  0  0  0  0  0  0  0  0  0
    9.1917   -3.9750    0.0000 C   0  0  0  0  0  0  0  0  0  0  0  0
    8.0250   -1.9917    0.0000 C   0  0  0  0  0  0  0  0  0  0  0  0
    1.1292   -4.6667    0.0000 C   0  0  0  0  0  0  0  0  0  0  0  0
    5.7250   -8.6417    0.0000 O   0  0  0  0  0  0  0  0  0  0  0  0
    3.4250   -9.9667    0.0000 O   0  0  0  0  0  0  0  0  0  0  0  0
    9.1917   -2.6500    0.0000 C   0  0  0  0  0  0  0  0  0  0  0  0
    3.4417   -5.9917    0.0000 C   0  0  0  0  0  0  0  0  0  0  0  0
    4.5917   -7.9667    0.0000 C   0  0  0  0  0  0  0  0  0  0  0  0
    2.2917   -3.9917    0.0000 C   0  0  0  0  0  0  0  0  0  0  0  0
    3.4417   -4.6667    0.0000 C   0  0  0  0  0  0  0  0  0  0  0  0
    5.7250   -2.0167    0.0000 C   0  0  0  0  0  0  0  0  0  0  0  0
    0.0000   -6.6500    0.0000 C   0  0  0  0  0  0  0  0  0  0  0  0
   10.3500   -8.6417    0.0000 C   0  0  0  0  0  0  0  0  0  0  0  0
    8.0167   -0.6542    0.0000 C   0  0  0  0  0  0  0  0  0  0  0  0
    2.2917   -2.6667    0.0000 C   0  0  0  0  0  0  0  0  0  0  0  0
    5.7250   -0.6750    0.0000 C   0  0  0  0  0  0  0  0  0  0  0  0
    6.8542   -0.0000    0.0000 C   0  0  0  0  0  0  0  0  0  0  0  0
  1  2  2  0  0  0  0
  1  3  1  0  0  0  0
  1  4  1  0  0  0  0
  2  5  1  0  0  0  0
  3  6  1  0  0  0  0
  7 10  1  0  0  0  0
  7  8  1  0  0  0  0
  9 13  1  0  0  0  0
 10 21  1  0  0  0  0
  6 11  1  0  0  0  0
  8 12  2  0  0  0  0
  4 13  2  0  0  0  0
  3 14  1  0  0  0  0
 15 19  1  0  0  0  0
 12 16  1  0  0  0  0
  5 17  1  0  0  0  0
 10 18  2  0  0  0  0
 14 19  1  0  0  0  0
  8 20  1  0  0  0  0
 17 21  1  0  0  0  0
 22 23  1  0  0  0  0
 20 23  2  0  0  0  0
 11 24  1  0  0  0  0
 12 25  1  0  0  0  0
 13 26  1  0  0  0  0
 15 27  1  0  0  0  0
 22 28  1  0  0  0  0
 24 29  2  0  0  0  0
 27 30  2  0  0  0  0
  5  9  2  0  0  0  0
 11 15  2  0  0  0  0
 29 30  1  0  0  0  0
 16 22  2  0  0  0  0
M  END
> <MOLFORMULA>
C24 H26 N4 O2

> <MOLWEIGHT>
4.024954000000000e+002

> <IDNUMBER>
AT-687/PE16659

> <PRICE>
EUR 80/10 mg

> <Similarity score>
0.20

$$$$

  -OEChem-04222410502D

 28 32  0     0  0  0  0  0  0999 V2000
    7.2917   -4.8000    0.0000 C   0  0  0  0  0  0  0  0  0  0  0  0
    9.3417   -4.1000    0.0000 N   0  0  3  0  0  0  0  0  0  0  0  0
    8.0667   -3.7000    0.0000 N   0  0  0  0  0  0  0  0  0  0  0  0
    9.3500   -5.4417    0.0000 C   0  0  0  0  0  0  0  0  0  0  0  0
    8.0750   -5.8542    0.0000 C   0  0  0  0  0  0  0  0  0  0  0  0
    5.9500   -4.8000    0.0000 C   0  0  0  0  0  0  0  0  0  0  0  0
   10.5000   -3.4417    0.0000 C   0  0  0  0  0  0  0  0  0  0  0  0
   11.6500   -5.4417    0.0000 O   0  0  0  0  0  0  0  0  0  0  0  0
   11.6500   -4.1000    0.0000 C   0  0  3  0  0  0  0  0  0  0  0  0
    5.2917   -3.6500    0.0000 N   0  0  0  0  0  0  0  0  0  0  0  0
   13.9542   -1.4417    0.0000 C   0  0  0  0  0  0  0  0  0  0  0  0
   12.8000   -3.4417    0.0000 C   0  0  0  0  0  0  0  0  0  0  0  0
   12.8000   -2.1250    0.0000 C   0  0  0  0  0  0  0  0  0  0  0  0
   10.5000   -6.1000    0.0000 C   0  0  0  0  0  0  0  0  0  0  0  0
   15.1250   -2.1250    0.0000 C   0  0  0  0  0  0  0  0  0  0  0  0
   14.2500   -0.1500    0.0000 O   0  0  0  0  0  0  0  0  0  0  0  0
   16.1000   -1.2292    0.0000 O   0  0  0  0  0  0  0  0  0  0  0  0
   15.5750   -0.0000    0.0000 C   0  0  0  0  0  0  0  0  0  0  0  0
    5.3042   -5.9417    0.0000 O   0  0  0  0  0  0  0  0  0  0  0  0
   13.9542   -4.1167    0.0000 C   0  0  0  0  0  0  0  0  0  0  0  0
   15.1250   -3.4542    0.0000 C   0  0  0  0  0  0  0  0  0  0  0  0
    3.9542   -3.6667    0.0000 C   0  0  0  0  0  0  0  0  0  0  0  0
    1.3000   -3.6667    0.0000 C   0  0  0  0  0  0  0  0  0  0  0  0
    0.0000   -3.6667    0.0000 F   0  0  0  0  0  0  0  0  0  0  0  0
    3.2750   -4.8042    0.0000 C   0  0  0  0  0  0  0  0  0  0  0  0
    3.2750   -2.5042    0.0000 C   0  0  0  0  0  0  0  0  0  0  0  0
    1.9750   -2.5042    0.0000 C   0  0  0  0  0  0  0  0  0  0  0  0
    1.9917   -4.8042    0.0000 C   0  0  0  0  0  0  0  0  0  0  0  0
  2  3  1  0  0  0  0
  1  3  2  0  0  0  0
  4  5  2  0  0  0  0
  1  5  1  0  0  0  0
  1  6  1  0  0  0  0
  2  7  1  0  0  0  0
  8 14  1  0  0  0  0
  7  9  1  0  0  0  0
  6 10  1  0  0  0  0
 11 13  1  0  0  0  0
  9 12  1  0  0  0  0
 12 13  2  0  0  0  0
  4 14  1  0  0  0  0
 15 21  1  0  0  0  0
 11 16  1  0  0  0  0
 15 17  1  0  0  0  0
 16 18  1  0  0  0  0
  6 19  2  0  0  0  0
 12 20  1  0  0  0  0
 20 21  2  0  0  0  0
 10 22  1  0  0  0  0
 23 27  2  0  0  0  0
 23 24  1  0  0  0  0
 22 25  1  0  0  0  0
 22 26  2  0  0  0  0
 26 27  1  0  0  0  0
 25 28  2  0  0  0  0
  2  4  1  0  0  0  0
  8  9  1  0  0  0  0
 23 28  1  0  0  0  0
 11 15  2  0  0  0  0
 17 18  1  0  0  0  0
M  END
> <MOLFORMULA>
C20 H16 F N3 O4

> <MOLWEIGHT>
3.813614000000000e+002

> <IDNUMBER>
AT-687/PE21243

> <PRICE>
EUR 80/10 mg

> <Similarity score>
0.20

$$$$

  -OEChem-04222410502D

 38 43  0     0  0  0  0  0  0999 V2000
    5.8250   -5.9792    0.0000 C   0  0  0  0  0  0  0  0  0  0  0  0
    4.6667   -6.6417    0.0000 C   0  0  0  0  0  0  0  0  0  0  0  0
    3.5167   -5.9792    0.0000 O   0  0  0  0  0  0  0  0  0  0  0  0
    3.5167   -4.6500    0.0000 C   0  0  0  0  0  0  0  0  0  0  0  0
    2.3750   -3.9792    0.0000 C   0  0  0  0  0  0  0  0  0  0  0  0
    5.8250   -4.6500    0.0000 C   0  0  0  0  0  0  0  0  0  0  0  0
    6.9917   -6.6417    0.0000 C   0  0  0  0  0  0  0  0  0  0  0  0
    4.6667   -3.9792    0.0000 C   0  0  0  0  0  0  0  0  0  0  0  0
    2.3750   -2.6500    0.0000 C   0  0  0  0  0  0  0  0  0  0  0  0
    4.6500   -7.9750    0.0000 N   0  0  0  0  0  0  0  0  0  0  0  0
    3.5167   -2.0000    0.0000 C   0  0  0  0  0  0  0  0  0  0  0  0
    1.2250   -2.0000    0.0000 N   0  0  3  0  0  0  0  0  0  0  0  0
    4.6667   -2.6500    0.0000 C   0  0  0  0  0  0  0  0  0  0  0  0
    7.0167   -7.9792    0.0000 N   0  0  0  0  0  0  0  0  0  0  0  0
    2.3750   -7.9417    0.0000 C   0  0  0  0  0  0  0  0  0  0  0  0
    1.2000   -8.5750    0.0000 C   0  0  0  0  0  0  0  0  0  0  0  0
    3.5000   -8.6250    0.0000 C   0  0  0  0  0  0  0  0  0  0  0  0
    8.1417   -5.9792    0.0000 O   0  0  0  0  0  0  0  0  0  0  0  0
    8.1500   -8.6500    0.0000 C   0  0  0  0  0  0  0  0  0  0  0  0
    1.1750   -9.9167    0.0000 C   0  0  0  0  0  0  0  0  0  0  0  0
    8.1500   -9.9750    0.0000 C   0  0  0  0  0  0  0  0  0  0  0  0
    2.3167  -10.6042    0.0000 C   0  0  0  0  0  0  0  0  0  0  0  0
    1.2250   -4.6500    0.0000 C   0  0  0  0  0  0  0  0  0  0  0  0
    9.3000  -10.6500    0.0000 C   0  0  0  0  0  0  0  0  0  0  0  0
    3.4750   -9.9667    0.0000 C   0  0  0  0  0  0  0  0  0  0  0  0
    0.0500   -7.8750    0.0000 O   0  0  0  0  0  0  0  0  0  0  0  0
    3.5167   -0.6667    0.0000 C   0  0  0  0  0  0  0  0  0  0  0  0
    9.3000  -11.9750    0.0000 F   0  0  0  0  0  0  0  0  0  0  0  0
    1.2250   -0.6667    0.0000 C   0  0  0  0  0  0  0  0  0  0  0  0
    0.0750   -2.6500    0.0000 C   0  0  0  0  0  0  0  0  0  0  0  0
    0.0167  -10.5792    0.0000 O   0  0  0  0  0  0  0  0  0  0  0  0
    0.0750   -3.9792    0.0000 C   0  0  0  0  0  0  0  0  0  0  0  0
    2.3750   -0.0000    0.0000 C   0  0  0  0  0  0  0  0  0  0  0  0
   10.4500   -8.6500    0.0000 C   0  0  0  0  0  0  0  0  0  0  0  0
    9.3000   -7.9792    0.0000 C   0  0  0  0  0  0  0  0  0  0  0  0
   10.4500   -9.9750    0.0000 C   0  0  0  0  0  0  0  0  0  0  0  0
    0.0500   -6.5500    0.0000 C   0  0  0  0  0  0  0  0  0  0  0  0
    0.0000  -11.9167    0.0000 C   0  0  0  0  0  0  0  0  0  0  0  0
  1  2  1  0  0  0  0
  2  3  1  0  0  0  0
  4  8  2  0  0  0  0
  4  5  1  0  0  0  0
  1  6  2  0  0  0  0
  1  7  1  0  0  0  0
  6  8  1  0  0  0  0
  9 11  1  0  0  0  0
  2 10  2  0  0  0  0
 11 13  2  0  0  0  0
  9 12  1  0  0  0  0
  8 13  1  0  0  0  0
  7 14  1  0  0  0  0
 15 17  2  0  0  0  0
 15 16  1  0  0  0  0
 10 17  1  0  0  0  0
  7 18  2  0  0  0  0
 14 19  1  0  0  0  0
 20 22  1  0  0  0  0
 19 21  2  0  0  0  0
 22 25  2  0  0  0  0
  5 23  1  0  0  0  0
 21 24  1  0  0  0  0
 17 25  1  0  0  0  0
 16 26  1  0  0  0  0
 11 27  1  0  0  0  0
 24 28  1  0  0  0  0
 29 33  1  0  0  0  0
 12 30  1  0  0  0  0
 20 31  1  0  0  0  0
 23 32  1  0  0  0  0
 27 33  1  0  0  0  0
 34 35  2  0  0  0  0
 19 35  1  0  0  0  0
 34 36  1  0  0  0  0
 26 37  1  0  0  0  0
 31 38  1  0  0  0  0
  3  4  1  0  0  0  0
  5  9  2  0  0  0  0
 24 36  2  0  0  0  0
 30 32  1  0  0  0  0
 16 20  2  0  0  0  0
 12 29  1  0  0  0  0
M  END
> <MOLFORMULA>
C30 H28 F N3 O4

> <MOLWEIGHT>
5.135662000000000e+002

> <IDNUMBER>
AT-687/PE10203

> <PRICE>
EUR 80/10 mg

> <Similarity score>
0.20

$$$$

  -OEChem-04222410502D

 26 29  0     0  0  0  0  0  0999 V2000
    6.1000   -7.3667    0.0000 C   0  0  0  0  0  0  0  0  0  0  0  0
    4.6500   -5.7500    0.0000 N   0  0  3  0  0  0  0  0  0  0  0  0
    5.9500   -6.0417    0.0000 N   0  0  0  0  0  0  0  0  0  0  0  0
    3.9792   -6.9000    0.0000 C   0  0  0  0  0  0  0  0  0  0  0  0
    4.8917   -7.9000    0.0000 C   0  0  0  0  0  0  0  0  0  0  0  0
    7.2417   -8.0250    0.0000 C   0  0  0  0  0  0  0  0  0  0  0  0
    3.9792   -4.6000    0.0000 C   0  0  0  0  0  0  0  0  0  0  0  0
    8.3917   -7.3667    0.0000 N   0  0  0  0  0  0  0  0  0  0  0  0
    1.9917   -5.7500    0.0000 O   0  0  0  0  0  0  0  0  0  0  0  0
    2.6500   -4.6000    0.0000 C   0  0  3  0  0  0  0  0  0  0  0  0
    9.5500   -8.0250    0.0000 C   0  0  0  0  0  0  0  0  0  0  0  0
    2.6500   -6.9000    0.0000 C   0  0  0  0  0  0  0  0  0  0  0  0
    1.9917   -3.4417    0.0000 C   0  0  0  0  0  0  0  0  0  0  0  0
    7.2417   -9.3500    0.0000 O   0  0  0  0  0  0  0  0  0  0  0  0
    9.5500   -9.3500    0.0000 C   0  0  0  0  0  0  0  0  0  0  0  0
    2.6500   -2.2792    0.0000 C   0  0  0  0  0  0  0  0  0  0  0  0
    0.6542   -3.4417    0.0000 C   0  0  0  0  0  0  0  0  0  0  0  0
    0.6542   -1.1500    0.0000 C   0  0  0  0  0  0  0  0  0  0  0  0
    0.0000   -2.2792    0.0000 C   0  0  0  0  0  0  0  0  0  0  0  0
    1.9917   -1.1500    0.0000 C   0  0  0  0  0  0  0  0  0  0  0  0
    0.0000   -0.0000    0.0000 F   0  0  0  0  0  0  0  0  0  0  0  0
   10.7000   -7.3667    0.0000 C   0  0  0  0  0  0  0  0  0  0  0  0
    8.4000  -10.0167    0.0000 C   0  0  0  0  0  0  0  0  0  0  0  0
   10.7000  -10.0167    0.0000 C   0  0  0  0  0  0  0  0  0  0  0  0
   11.8667   -8.0250    0.0000 C   0  0  0  0  0  0  0  0  0  0  0  0
   11.8667   -9.3500    0.0000 C   0  0  0  0  0  0  0  0  0  0  0  0
  2  3  1  0  0  0  0
  1  3  2  0  0  0  0
  4  5  2  0  0  0  0
  1  5  1  0  0  0  0
  1  6  1  0  0  0  0
  2  7  1  0  0  0  0
  6  8  1  0  0  0  0
  9 12  1  0  0  0  0
  7 10  1  0  0  0  0
  8 11  1  0  0  0  0
  4 12  1  0  0  0  0
 10 13  1  0  0  0  0
  6 14  2  0  0  0  0
 11 15  2  0  0  0  0
 13 16  1  0  0  0  0
 13 17  2  0  0  0  0
 18 19  2  0  0  0  0
 17 19  1  0  0  0  0
 16 20  2  0  0  0  0
 18 21  1  0  0  0  0
 11 22  1  0  0  0  0
 15 23  1  0  0  0  0
 15 24  1  0  0  0  0
 22 25  2  0  0  0  0
 25 26  1  0  0  0  0
  2  4  1  0  0  0  0
  9 10  1  0  0  0  0
 24 26  2  0  0  0  0
 18 20  1  0  0  0  0
M  END
> <MOLFORMULA>
C20 H18 F N3 O2

> <MOLWEIGHT>
3.513792000000000e+002

> <IDNUMBER>
AT-687/PE26861

> <PRICE>
EUR 80/10 mg

> <Similarity score>
0.20

$$$$

  -OEChem-04222410502D

 27 30  0     0  0  0  0  0  0999 V2000
    7.3167   -3.4167    0.0000 C   0  0  0  0  0  0  0  0  0  0  0  0
    9.3500   -2.7292    0.0000 N   0  0  3  0  0  0  0  0  0  0  0  0
    8.1000   -2.3417    0.0000 N   0  0  0  0  0  0  0  0  0  0  0  0
    9.3667   -4.0667    0.0000 C   0  0  0  0  0  0  0  0  0  0  0  0
    8.1167   -4.5042    0.0000 C   0  0  0  0  0  0  0  0  0  0  0  0
    5.9750   -3.4292    0.0000 C   0  0  0  0  0  0  0  0  0  0  0  0
   10.5167   -2.0667    0.0000 C   0  0  0  0  0  0  0  0  0  0  0  0
   11.6667   -4.0667    0.0000 O   0  0  0  0  0  0  0  0  0  0  0  0
    5.3042   -2.2750    0.0000 N   0  0  0  0  0  0  0  0  0  0  0  0
   11.6667   -2.7292    0.0000 C   0  0  3  0  0  0  0  0  0  0  0  0
    1.9792   -1.1500    0.0000 C   0  0  0  0  0  0  0  0  0  0  0  0
    3.2917   -1.1500    0.0000 C   0  0  0  0  0  0  0  0  0  0  0  0
   10.5167   -4.7417    0.0000 C   0  0  0  0  0  0  0  0  0  0  0  0
    3.9750   -2.2917    0.0000 C   0  0  0  0  0  0  0  0  0  0  0  0
   12.8250   -2.0750    0.0000 C   0  0  0  0  0  0  0  0  0  0  0  0
    5.3042   -4.5917    0.0000 O   0  0  0  0  0  0  0  0  0  0  0  0
    1.3167   -2.3042    0.0000 C   0  0  0  0  0  0  0  0  0  0  0  0
   12.8250   -0.7542    0.0000 C   0  0  0  0  0  0  0  0  0  0  0  0
   13.9667   -2.7500    0.0000 C   0  0  0  0  0  0  0  0  0  0  0  0
    2.0000   -3.4500    0.0000 C   0  0  0  0  0  0  0  0  0  0  0  0
    1.3167   -0.0000    0.0000 F   0  0  0  0  0  0  0  0  0  0  0  0
    3.2917   -3.4500    0.0000 C   0  0  0  0  0  0  0  0  0  0  0  0
   15.1417   -0.7542    0.0000 C   0  0  0  0  0  0  0  0  0  0  0  0
   13.9667   -0.0917    0.0000 C   0  0  0  0  0  0  0  0  0  0  0  0
   15.1250   -2.0750    0.0000 C   0  0  0  0  0  0  0  0  0  0  0  0
   16.3000   -0.1042    0.0000 Cl  0  0  0  0  0  0  0  0  0  0  0  0
    0.0000   -2.3042    0.0000 C   0  0  0  0  0  0  0  0  0  0  0  0
  2  3  1  0  0  0  0
  1  3  2  0  0  0  0
  4  5  2  0  0  0  0
  1  5  1  0  0  0  0
  1  6  1  0  0  0  0
  2  7  1  0  0  0  0
  8 13  1  0  0  0  0
  6  9  1  0  0  0  0
  7 10  1  0  0  0  0
 11 12  1  0  0  0  0
 12 14  2  0  0  0  0
  4 13  1  0  0  0  0
  9 14  1  0  0  0  0
 10 15  1  0  0  0  0
  6 16  2  0  0  0  0
 17 20  1  0  0  0  0
 15 18  1  0  0  0  0
 15 19  2  0  0  0  0
 20 22  2  0  0  0  0
 11 21  1  0  0  0  0
 14 22  1  0  0  0  0
 23 25  2  0  0  0  0
 18 24  2  0  0  0  0
 19 25  1  0  0  0  0
 23 26  1  0  0  0  0
 17 27  1  0  0  0  0
  2  4  1  0  0  0  0
  8 10  1  0  0  0  0
 11 17  2  0  0  0  0
 23 24  1  0  0  0  0
M  END
> <MOLFORMULA>
C20 H17 Cl F N3 O2

> <MOLWEIGHT>
3.858243000000000e+002

> <IDNUMBER>
AT-687/PE21214

> <PRICE>
EUR 80/10 mg

> <Similarity score>
0.20

$$$$

  -OEChem-04222410502D

 36 41  0     0  0  0  0  0  0999 V2000
    5.7542   -6.0000    0.0000 C   0  0  0  0  0  0  0  0  0  0  0  0
    4.6000   -6.6542    0.0000 C   0  0  0  0  0  0  0  0  0  0  0  0
    3.4500   -6.0000    0.0000 O   0  0  0  0  0  0  0  0  0  0  0  0
    3.4500   -4.6542    0.0000 C   0  0  0  0  0  0  0  0  0  0  0  0
    2.3000   -3.9917    0.0000 C   0  0  0  0  0  0  0  0  0  0  0  0
    5.7542   -4.6542    0.0000 C   0  0  0  0  0  0  0  0  0  0  0  0
    6.9250   -6.6750    0.0000 C   0  0  0  0  0  0  0  0  0  0  0  0
    4.6000   -3.9917    0.0000 C   0  0  0  0  0  0  0  0  0  0  0  0
    2.3000   -2.6750    0.0000 C   0  0  0  0  0  0  0  0  0  0  0  0
    4.5750   -7.9792    0.0000 N   0  0  0  0  0  0  0  0  0  0  0  0
    3.4500   -2.0000    0.0000 C   0  0  0  0  0  0  0  0  0  0  0  0
    6.9292   -8.0042    0.0000 N   0  0  0  0  0  0  0  0  0  0  0  0
    1.1500   -2.0000    0.0000 N   0  0  3  0  0  0  0  0  0  0  0  0
    4.6000   -2.6750    0.0000 C   0  0  0  0  0  0  0  0  0  0  0  0
    8.0750   -8.6667    0.0000 C   0  0  0  0  0  0  0  0  0  0  0  0
    3.4250   -8.6417    0.0000 C   0  0  0  0  0  0  0  0  0  0  0  0
    8.0750   -6.0167    0.0000 O   0  0  0  0  0  0  0  0  0  0  0  0
    3.4250   -9.9750    0.0000 C   0  0  0  0  0  0  0  0  0  0  0  0
    9.2167   -8.0042    0.0000 C   0  0  0  0  0  0  0  0  0  0  0  0
    1.1500   -4.6542    0.0000 C   0  0  0  0  0  0  0  0  0  0  0  0
    2.2750  -10.6250    0.0000 C   0  0  0  0  0  0  0  0  0  0  0  0
    3.4500   -0.6750    0.0000 C   0  0  0  0  0  0  0  0  0  0  0  0
    2.2917  -11.9542    0.0000 F   0  0  0  0  0  0  0  0  0  0  0  0
    0.0000   -2.6750    0.0000 C   0  0  0  0  0  0  0  0  0  0  0  0
    1.1500   -0.6750    0.0000 C   0  0  0  0  0  0  0  0  0  0  0  0
    9.2167   -6.6750    0.0000 O   0  0  0  0  0  0  0  0  0  0  0  0
    0.0000   -3.9917    0.0000 C   0  0  0  0  0  0  0  0  0  0  0  0
    2.3000   -0.0000    0.0000 C   0  0  0  0  0  0  0  0  0  0  0  0
    1.1167   -8.6250    0.0000 C   0  0  0  0  0  0  0  0  0  0  0  0
    8.0750  -10.0042    0.0000 C   0  0  0  0  0  0  0  0  0  0  0  0
    2.2917   -7.9750    0.0000 C   0  0  0  0  0  0  0  0  0  0  0  0
   10.3750   -8.6667    0.0000 C   0  0  0  0  0  0  0  0  0  0  0  0
    1.1167   -9.9750    0.0000 C   0  0  0  0  0  0  0  0  0  0  0  0
   10.3667   -6.0250    0.0000 C   0  0  0  0  0  0  0  0  0  0  0  0
    9.2167  -10.6667    0.0000 C   0  0  0  0  0  0  0  0  0  0  0  0
   10.3750  -10.0042    0.0000 C   0  0  0  0  0  0  0  0  0  0  0  0
  1  2  1  0  0  0  0
  2  3  1  0  0  0  0
  4  8  2  0  0  0  0
  4  5  1  0  0  0  0
  1  6  2  0  0  0  0
  1  7  1  0  0  0  0
  6  8  1  0  0  0  0
  9 11  1  0  0  0  0
  2 10  2  0  0  0  0
 11 14  2  0  0  0  0
  7 12  1  0  0  0  0
  9 13  1  0  0  0  0
  8 14  1  0  0  0  0
 12 15  1  0  0  0  0
 10 16  1  0  0  0  0
  7 17  2  0  0  0  0
 16 18  2  0  0  0  0
 15 19  2  0  0  0  0
  5 20  1  0  0  0  0
 18 21  1  0  0  0  0
 11 22  1  0  0  0  0
 21 23  1  0  0  0  0
 13 24  1  0  0  0  0
 25 28  1  0  0  0  0
 19 26  1  0  0  0  0
 20 27  1  0  0  0  0
 22 28  1  0  0  0  0
 29 31  2  0  0  0  0
 15 30  1  0  0  0  0
 16 31  1  0  0  0  0
 19 32  1  0  0  0  0
 29 33  1  0  0  0  0
 26 34  1  0  0  0  0
 30 35  2  0  0  0  0
 35 36  1  0  0  0  0
  3  4  1  0  0  0  0
  5  9  2  0  0  0  0
 32 36  2  0  0  0  0
 24 27  1  0  0  0  0
 21 33  2  0  0  0  0
 13 25  1  0  0  0  0
M  END
> <MOLFORMULA>
C29 H26 F N3 O3

> <MOLWEIGHT>
4.835404000000000e+002

> <IDNUMBER>
AT-687/PE10216

> <PRICE>
EUR 80/10 mg

> <Similarity score>
0.20

$$$$

  -OEChem-04222410502D

 29 32  0     0  0  0  0  0  0999 V2000
    7.9542   -3.3167    0.0000 C   0  0  0  0  0  0  0  0  0  0  0  0
   10.0042   -2.6417    0.0000 N   0  0  3  0  0  0  0  0  0  0  0  0
    8.7417   -2.2250    0.0000 N   0  0  0  0  0  0  0  0  0  0  0  0
   10.0042   -3.9750    0.0000 C   0  0  0  0  0  0  0  0  0  0  0  0
    8.7500   -4.4000    0.0000 C   0  0  0  0  0  0  0  0  0  0  0  0
    6.6250   -3.3292    0.0000 C   0  0  0  0  0  0  0  0  0  0  0  0
   11.1667   -1.9542    0.0000 C   0  0  0  0  0  0  0  0  0  0  0  0
    5.9542   -2.1750    0.0000 N   0  0  0  0  0  0  0  0  0  0  0  0
   12.3167   -3.9750    0.0000 O   0  0  0  0  0  0  0  0  0  0  0  0
    4.6417   -2.2000    0.0000 C   0  0  0  0  0  0  0  0  0  0  0  0
   12.3167   -2.6417    0.0000 C   0  0  3  0  0  0  0  0  0  0  0  0
    3.9417   -3.3500    0.0000 C   0  0  0  0  0  0  0  0  0  0  0  0
   11.1667   -4.6417    0.0000 C   0  0  0  0  0  0  0  0  0  0  0  0
    2.6500   -3.3500    0.0000 C   0  0  0  0  0  0  0  0  0  0  0  0
   13.4667   -1.9750    0.0000 C   0  0  0  0  0  0  0  0  0  0  0  0
    5.9542   -4.4792    0.0000 O   0  0  0  0  0  0  0  0  0  0  0  0
    3.9417   -1.0500    0.0000 C   0  0  0  0  0  0  0  0  0  0  0  0
   13.4667   -0.6500    0.0000 C   0  0  0  0  0  0  0  0  0  0  0  0
   14.6167   -2.6417    0.0000 C   0  0  0  0  0  0  0  0  0  0  0  0
    1.9542   -2.2000    0.0000 C   0  0  0  0  0  0  0  0  0  0  0  0
   15.7917   -0.6500    0.0000 C   0  0  0  0  0  0  0  0  0  0  0  0
    2.6417   -1.0500    0.0000 C   0  0  0  0  0  0  0  0  0  0  0  0
    4.6250   -4.4792    0.0000 O   0  0  0  0  0  0  0  0  0  0  0  0
   14.6417   -0.0000    0.0000 C   0  0  0  0  0  0  0  0  0  0  0  0
   15.7750   -1.9750    0.0000 C   0  0  0  0  0  0  0  0  0  0  0  0
   16.9417   -0.0167    0.0000 Cl  0  0  0  0  0  0  0  0  0  0  0  0
    0.6500   -2.2000    0.0000 O   0  0  0  0  0  0  0  0  0  0  0  0
    3.9417   -5.6417    0.0000 C   0  0  0  0  0  0  0  0  0  0  0  0
    0.0000   -3.3667    0.0000 C   0  0  0  0  0  0  0  0  0  0  0  0
  2  3  1  0  0  0  0
  1  3  2  0  0  0  0
  4  5  2  0  0  0  0
  1  5  1  0  0  0  0
  1  6  1  0  0  0  0
  2  7  1  0  0  0  0
  6  8  1  0  0  0  0
  9 13  1  0  0  0  0
  8 10  1  0  0  0  0
  7 11  1  0  0  0  0
 10 12  2  0  0  0  0
  4 13  1  0  0  0  0
 12 14  1  0  0  0  0
 11 15  1  0  0  0  0
  6 16  2  0  0  0  0
 10 17  1  0  0  0  0
 15 18  1  0  0  0  0
 15 19  2  0  0  0  0
 20 22  1  0  0  0  0
 21 25  2  0  0  0  0
 17 22  2  0  0  0  0
 12 23  1  0  0  0  0
 18 24  2  0  0  0  0
 19 25  1  0  0  0  0
 21 26  1  0  0  0  0
 20 27  1  0  0  0  0
 23 28  1  0  0  0  0
 27 29  1  0  0  0  0
  2  4  1  0  0  0  0
  9 11  1  0  0  0  0
 14 20  2  0  0  0  0
 21 24  1  0  0  0  0
M  END
> <MOLFORMULA>
C21 H20 Cl N3 O4

> <MOLWEIGHT>
4.138590000000000e+002

> <IDNUMBER>
AT-687/PE21198

> <PRICE>
EUR 80/10 mg

> <Similarity score>
0.20

$$$$

  -OEChem-04222410502D

 29 33  0     0  0  0  0  0  0999 V2000
    7.3167   -4.7750    0.0000 C   0  0  0  0  0  0  0  0  0  0  0  0
    9.3542   -4.0917    0.0000 N   0  0  3  0  0  0  0  0  0  0  0  0
    8.0667   -3.6792    0.0000 N   0  0  0  0  0  0  0  0  0  0  0  0
    9.3542   -5.4250    0.0000 C   0  0  0  0  0  0  0  0  0  0  0  0
    8.0792   -5.8500    0.0000 C   0  0  0  0  0  0  0  0  0  0  0  0
    5.9542   -4.7750    0.0000 C   0  0  0  0  0  0  0  0  0  0  0  0
   10.5167   -3.4250    0.0000 C   0  0  0  0  0  0  0  0  0  0  0  0
   11.6667   -5.4250    0.0000 O   0  0  0  0  0  0  0  0  0  0  0  0
   11.6667   -4.0917    0.0000 C   0  0  3  0  0  0  0  0  0  0  0  0
    5.3167   -3.6250    0.0000 N   0  0  0  0  0  0  0  0  0  0  0  0
   13.9667   -1.4250    0.0000 C   0  0  0  0  0  0  0  0  0  0  0  0
   12.8250   -3.4250    0.0000 C   0  0  0  0  0  0  0  0  0  0  0  0
   12.8250   -2.1250    0.0000 C   0  0  0  0  0  0  0  0  0  0  0  0
   10.5167   -6.0917    0.0000 C   0  0  0  0  0  0  0  0  0  0  0  0
   15.1250   -2.1000    0.0000 C   0  0  0  0  0  0  0  0  0  0  0  0
   14.2542   -0.1417    0.0000 O   0  0  0  0  0  0  0  0  0  0  0  0
   16.1167   -1.2167    0.0000 O   0  0  0  0  0  0  0  0  0  0  0  0
   15.5750   -0.0000    0.0000 C   0  0  0  0  0  0  0  0  0  0  0  0
    5.3167   -5.9250    0.0000 O   0  0  0  0  0  0  0  0  0  0  0  0
    3.9917   -3.6417    0.0000 C   0  0  0  0  0  0  0  0  0  0  0  0
   13.9667   -4.1000    0.0000 C   0  0  0  0  0  0  0  0  0  0  0  0
   15.1250   -3.4417    0.0000 C   0  0  0  0  0  0  0  0  0  0  0  0
    3.3167   -2.4917    0.0000 C   0  0  0  0  0  0  0  0  0  0  0  0
    1.9917   -2.5042    0.0000 C   0  0  0  0  0  0  0  0  0  0  0  0
    2.0042   -4.8167    0.0000 C   0  0  0  0  0  0  0  0  0  0  0  0
    3.3167   -4.8000    0.0000 C   0  0  0  0  0  0  0  0  0  0  0  0
    1.3167   -3.6500    0.0000 C   0  0  0  0  0  0  0  0  0  0  0  0
    1.3000   -1.3750    0.0000 C   0  0  0  0  0  0  0  0  0  0  0  0
    0.0000   -1.3750    0.0000 C   0  0  0  0  0  0  0  0  0  0  0  0
  2  3  1  0  0  0  0
  1  3  2  0  0  0  0
  4  5  2  0  0  0  0
  1  5  1  0  0  0  0
  1  6  1  0  0  0  0
  2  7  1  0  0  0  0
  8 14  1  0  0  0  0
  7  9  1  0  0  0  0
  6 10  1  0  0  0  0
 11 13  1  0  0  0  0
  9 12  1  0  0  0  0
 12 13  2  0  0  0  0
  4 14  1  0  0  0  0
 15 22  1  0  0  0  0
 11 16  1  0  0  0  0
 15 17  1  0  0  0  0
 16 18  1  0  0  0  0
  6 19  2  0  0  0  0
 10 20  1  0  0  0  0
 12 21  1  0  0  0  0
 21 22  2  0  0  0  0
 20 23  2  0  0  0  0
 23 24  1  0  0  0  0
 25 26  2  0  0  0  0
 20 26  1  0  0  0  0
 25 27  1  0  0  0  0
 24 28  1  0  0  0  0
 28 29  1  0  0  0  0
  2  4  1  0  0  0  0
  8  9  1  0  0  0  0
 24 27  2  0  0  0  0
 11 15  2  0  0  0  0
 17 18  1  0  0  0  0
M  END
> <MOLFORMULA>
C22 H21 N3 O4

> <MOLWEIGHT>
3.914249000000000e+002

> <IDNUMBER>
AT-687/PE21236

> <PRICE>
EUR 80/10 mg

> <Similarity score>
0.20

$$$$

  -OEChem-04222410502D

 34 38  0     0  0  0  0  0  0999 V2000
    2.2042   -2.5167    0.0000 C   0  0  0  0  0  0  0  0  0  0  0  0
    1.4917   -2.9292    0.0000 N   0  3  0  0  0  0  0  0  0  0  0  0
    2.2042   -1.6875    0.0000 C   0  0  0  0  0  0  0  0  0  0  0  0
    1.4917   -1.2667    0.0000 N   0  0  3  0  0  0  0  0  0  0  0  0
    6.4917   -0.0292    0.0000 C   0  0  0  0  0  0  0  0  0  0  0  0
    2.9167   -1.2750    0.0000 C   0  0  0  0  0  0  0  0  0  0  0  0
    5.7792   -0.4500    0.0000 N   0  0  3  0  0  0  0  0  0  0  0  0
    4.3500   -1.2750    0.0000 N   0  0  3  0  0  0  0  0  0  0  0  0
    3.6375   -1.6875    0.0000 C   0  0  0  0  0  0  0  0  0  0  0  0
    6.4917    0.7958    0.0000 C   0  0  0  0  0  0  0  0  0  0  0  0
    1.4917   -0.4417    0.0000 C   0  0  0  0  0  0  0  0  0  0  0  0
    2.9167   -2.9292    0.0000 C   0  0  0  0  0  0  0  0  0  0  0  0
    0.7875   -0.0292    0.0000 C   0  0  0  0  0  0  0  0  0  0  0  0
    0.7750   -2.5167    0.0000 O   0  5  0  0  0  0  0  0  0  0  0  0
    1.4917   -3.7542    0.0000 O   0  0  0  0  0  0  0  0  0  0  0  0
    0.7792   -1.6875    0.0000 C   0  0  0  0  0  0  0  0  0  0  0  0
    5.7792   -1.2750    0.0000 C   0  0  0  0  0  0  0  0  0  0  0  0
    5.0625   -0.0292    0.0000 C   0  0  0  0  0  0  0  0  0  0  0  0
    5.0667   -1.6792    0.0000 C   0  0  0  0  0  0  0  0  0  0  0  0
    4.3417   -0.4500    0.0000 C   0  0  0  0  0  0  0  0  0  0  0  0
    7.2042   -0.4417    0.0000 O   0  0  0  0  0  0  0  0  0  0  0  0
    3.6375   -2.5167    0.0000 C   0  0  0  0  0  0  0  0  0  0  0  0
    5.7792    1.1958    0.0000 C   0  0  0  0  0  0  0  0  0  0  0  0
    0.0667   -0.4417    0.0000 C   0  0  0  0  0  0  0  0  0  0  0  0
    0.0667   -1.2667    0.0000 C   0  0  0  0  0  0  0  0  0  0  0  0
    5.7750    2.0208    0.0000 C   0  0  0  0  0  0  0  0  0  0  0  0
    5.0542    2.4333    0.0000 Cl  0  0  0  0  0  0  0  0  0  0  0  0
    7.2042    1.2000    0.0000 C   0  0  0  0  0  0  0  0  0  0  0  0
    7.2042    2.0250    0.0000 C   0  0  0  0  0  0  0  0  0  0  0  0
    0.7917    0.7833    0.0000 C   0  0  0  0  0  0  0  0  0  0  0  0
   -0.6375   -0.0292    0.0000 C   0  0  0  0  0  0  0  0  0  0  0  0
    6.4917    2.4375    0.0000 C   0  0  0  0  0  0  0  0  0  0  0  0
    0.0792    1.2000    0.0000 C   0  0  0  0  0  0  0  0  0  0  0  0
   -0.6333    0.7958    0.0000 C   0  0  0  0  0  0  0  0  0  0  0  0
  1  2  1  0  0  0  0
  1  3  2  0  0  0  0
  3  4  1  0  0  0  0
  5  7  1  0  0  0  0
  3  6  1  0  0  0  0
  7 18  1  0  0  0  0
  8  9  1  0  0  0  0
  9 22  1  0  0  0  0
  5 10  1  0  0  0  0
  4 11  1  0  0  0  0
  1 12  1  0  0  0  0
 11 13  1  0  0  0  0
  2 14  1  0  0  0  0
  2 15  2  0  0  0  0
  4 16  1  0  0  0  0
 17 19  1  0  0  0  0
 18 20  1  0  0  0  0
  8 19  1  0  0  0  0
  8 20  1  0  0  0  0
  5 21  2  0  0  0  0
 12 22  2  0  0  0  0
 10 23  1  0  0  0  0
 24 25  1  0  0  0  0
 16 25  1  0  0  0  0
 23 26  2  0  0  0  0
 26 27  1  0  0  0  0
 10 28  2  0  0  0  0
 28 29  1  0  0  0  0
 13 30  1  0  0  0  0
 24 31  1  0  0  0  0
 29 32  2  0  0  0  0
 30 33  2  0  0  0  0
 31 34  2  0  0  0  0
  6  9  2  0  0  0  0
 13 24  2  0  0  0  0
  7 17  1  0  0  0  0
 33 34  1  0  0  0  0
 26 32  1  0  0  0  0
M  CHG  2   2   1  14  -1
M  END
> <MOLFORMULA>
C26 H25 Cl N4 O3

> <MOLWEIGHT>
4.769615000000000e+002

> <IDNUMBER>
AM-879/J183922

> <PRICE>
EUR 55.00/10 mg

> <Similarity score>
0.20

$$$$

  -OEChem-04222410502D

 36 41  0     0  0  0  0  0  0999 V2000
    5.8250   -5.9917    0.0000 C   0  0  0  0  0  0  0  0  0  0  0  0
    4.6667   -6.6500    0.0000 C   0  0  0  0  0  0  0  0  0  0  0  0
    3.5167   -5.9917    0.0000 O   0  0  0  0  0  0  0  0  0  0  0  0
    3.5167   -4.6500    0.0000 C   0  0  0  0  0  0  0  0  0  0  0  0
    2.3750   -3.9792    0.0000 C   0  0  0  0  0  0  0  0  0  0  0  0
    5.8250   -4.6500    0.0000 C   0  0  0  0  0  0  0  0  0  0  0  0
    6.9917   -6.6500    0.0000 C   0  0  0  0  0  0  0  0  0  0  0  0
    4.6667   -3.9792    0.0000 C   0  0  0  0  0  0  0  0  0  0  0  0
    2.3750   -2.6500    0.0000 C   0  0  0  0  0  0  0  0  0  0  0  0
    4.6500   -7.9750    0.0000 N   0  0  0  0  0  0  0  0  0  0  0  0
    3.5167   -2.0000    0.0000 C   0  0  0  0  0  0  0  0  0  0  0  0
    1.2250   -2.0000    0.0000 N   0  0  3  0  0  0  0  0  0  0  0  0
    4.6667   -2.6500    0.0000 C   0  0  0  0  0  0  0  0  0  0  0  0
    7.0167   -7.9917    0.0000 N   0  0  0  0  0  0  0  0  0  0  0  0
    8.1417   -5.9917    0.0000 O   0  0  0  0  0  0  0  0  0  0  0  0
    8.1500   -8.6500    0.0000 C   0  0  0  0  0  0  0  0  0  0  0  0
    8.1500   -9.9750    0.0000 C   0  0  0  0  0  0  0  0  0  0  0  0
    3.5000   -8.6250    0.0000 C   0  0  0  0  0  0  0  0  0  0  0  0
    1.2250   -4.6500    0.0000 C   0  0  0  0  0  0  0  0  0  0  0  0
    9.3000  -10.6500    0.0000 C   0  0  0  0  0  0  0  0  0  0  0  0
    1.1750   -9.9167    0.0000 C   0  0  0  0  0  0  0  0  0  0  0  0
    3.5167   -0.6667    0.0000 C   0  0  0  0  0  0  0  0  0  0  0  0
    9.3000  -11.9750    0.0000 F   0  0  0  0  0  0  0  0  0  0  0  0
    0.0750   -2.6500    0.0000 C   0  0  0  0  0  0  0  0  0  0  0  0
    1.2250   -0.6667    0.0000 C   0  0  0  0  0  0  0  0  0  0  0  0
    3.4750   -9.9667    0.0000 C   0  0  0  0  0  0  0  0  0  0  0  0
    2.3750   -7.9417    0.0000 C   0  0  0  0  0  0  0  0  0  0  0  0
    1.2000   -8.5750    0.0000 C   0  0  0  0  0  0  0  0  0  0  0  0
    2.3167  -10.6167    0.0000 C   0  0  0  0  0  0  0  0  0  0  0  0
    0.0167  -10.5917    0.0000 O   0  0  0  0  0  0  0  0  0  0  0  0
    0.0750   -3.9792    0.0000 C   0  0  0  0  0  0  0  0  0  0  0  0
    2.3750   -0.0000    0.0000 C   0  0  0  0  0  0  0  0  0  0  0  0
   10.4500   -8.6500    0.0000 C   0  0  0  0  0  0  0  0  0  0  0  0
    9.3000   -7.9917    0.0000 C   0  0  0  0  0  0  0  0  0  0  0  0
   10.4500   -9.9750    0.0000 C   0  0  0  0  0  0  0  0  0  0  0  0
    0.0000  -11.9167    0.0000 C   0  0  0  0  0  0  0  0  0  0  0  0
  1  2  1  0  0  0  0
  2  3  1  0  0  0  0
  4  8  2  0  0  0  0
  4  5  1  0  0  0  0
  1  6  2  0  0  0  0
  1  7  1  0  0  0  0
  6  8  1  0  0  0  0
  9 11  1  0  0  0  0
  2 10  2  0  0  0  0
 11 13  2  0  0  0  0
  9 12  1  0  0  0  0
  8 13  1  0  0  0  0
  7 14  1  0  0  0  0
  7 15  2  0  0  0  0
 14 16  1  0  0  0  0
 16 17  2  0  0  0  0
 10 18  1  0  0  0  0
  5 19  1  0  0  0  0
 17 20  1  0  0  0  0
 21 28  2  0  0  0  0
 11 22  1  0  0  0  0
 20 23  1  0  0  0  0
 12 24  1  0  0  0  0
 25 32  1  0  0  0  0
 18 26  1  0  0  0  0
 18 27  2  0  0  0  0
 27 28  1  0  0  0  0
 26 29  2  0  0  0  0
 21 30  1  0  0  0  0
 19 31  1  0  0  0  0
 22 32  1  0  0  0  0
 33 34  2  0  0  0  0
 16 34  1  0  0  0  0
 33 35  1  0  0  0  0
 30 36  1  0  0  0  0
  3  4  1  0  0  0  0
  5  9  2  0  0  0  0
 21 29  1  0  0  0  0
 20 35  2  0  0  0  0
 24 31  1  0  0  0  0
 12 25  1  0  0  0  0
M  END
> <MOLFORMULA>
C29 H26 F N3 O3

> <MOLWEIGHT>
4.835404000000000e+002

> <IDNUMBER>
AT-687/PE10217

> <PRICE>
EUR 80/10 mg

> <Similarity score>
0.20

$$$$

  -OEChem-04222410502D

 32 37  0     0  0  0  0  0  0999 V2000
    5.9500   -6.9500    0.0000 C   0  0  0  0  0  0  0  0  0  0  0  0
    6.7250   -5.8917    0.0000 N   0  0  0  0  0  0  0  0  0  0  0  0
    8.0000   -6.3000    0.0000 N   0  0  3  0  0  0  0  0  0  0  0  0
    7.9750   -7.6250    0.0000 C   0  0  0  0  0  0  0  0  0  0  0  0
    6.7250   -8.0250    0.0000 C   0  0  0  0  0  0  0  0  0  0  0  0
    4.6250   -6.9250    0.0000 C   0  0  0  0  0  0  0  0  0  0  0  0
    3.9750   -5.7750    0.0000 N   0  0  3  0  0  0  0  0  0  0  0  0
    9.1250   -5.6250    0.0000 C   0  0  0  0  0  0  0  0  0  0  0  0
    2.6667   -3.4417    0.0000 N   0  0  3  0  0  0  0  0  0  0  0  0
   10.2917   -7.6250    0.0000 O   0  0  0  0  0  0  0  0  0  0  0  0
   10.2917   -6.3000    0.0000 C   0  0  3  0  0  0  0  0  0  0  0  0
   12.5917   -3.6292    0.0000 C   0  0  0  0  0  0  0  0  0  0  0  0
   11.4417   -5.6250    0.0000 C   0  0  0  0  0  0  0  0  0  0  0  0
   11.4417   -4.3000    0.0000 C   0  0  0  0  0  0  0  0  0  0  0  0
    9.1250   -8.2917    0.0000 C   0  0  0  0  0  0  0  0  0  0  0  0
   13.7417   -4.3000    0.0000 C   0  0  0  0  0  0  0  0  0  0  0  0
   12.8542   -2.3417    0.0000 O   0  0  0  0  0  0  0  0  0  0  0  0
   14.7250   -3.4000    0.0000 O   0  0  0  0  0  0  0  0  0  0  0  0
    3.9417   -8.0667    0.0000 O   0  0  0  0  0  0  0  0  0  0  0  0
    2.6292   -5.7500    0.0000 C   0  0  0  0  0  0  0  0  0  0  0  0
    4.6500   -4.6250    0.0000 C   0  0  0  0  0  0  0  0  0  0  0  0
    3.9917   -3.4542    0.0000 C   0  0  0  0  0  0  0  0  0  0  0  0
    1.9667   -4.6250    0.0000 C   0  0  0  0  0  0  0  0  0  0  0  0
   14.1667   -2.1917    0.0000 C   0  0  0  0  0  0  0  0  0  0  0  0
    1.9792   -2.2917    0.0000 C   0  0  0  0  0  0  0  0  0  0  0  0
   12.5917   -6.3000    0.0000 C   0  0  0  0  0  0  0  0  0  0  0  0
   13.7417   -5.6250    0.0000 C   0  0  0  0  0  0  0  0  0  0  0  0
    0.6542   -2.2917    0.0000 C   0  0  0  0  0  0  0  0  0  0  0  0
    2.6667   -1.1542    0.0000 C   0  0  0  0  0  0  0  0  0  0  0  0
    1.9792   -0.0000    0.0000 C   0  0  0  0  0  0  0  0  0  0  0  0
    0.0000   -1.1542    0.0000 C   0  0  0  0  0  0  0  0  0  0  0  0
    0.6542   -0.0000    0.0000 C   0  0  0  0  0  0  0  0  0  0  0  0
  1  2  2  0  0  0  0
  2  3  1  0  0  0  0
  4  5  2  0  0  0  0
  1  5  1  0  0  0  0
  1  6  1  0  0  0  0
  6  7  1  0  0  0  0
  3  8  1  0  0  0  0
  9 22  1  0  0  0  0
 10 15  1  0  0  0  0
  8 11  1  0  0  0  0
 12 14  1  0  0  0  0
 11 13  1  0  0  0  0
 13 14  2  0  0  0  0
  4 15  1  0  0  0  0
 16 27  1  0  0  0  0
 12 17  1  0  0  0  0
 16 18  1  0  0  0  0
  6 19  2  0  0  0  0
  7 20  1  0  0  0  0
  7 21  1  0  0  0  0
 21 22  1  0  0  0  0
 20 23  1  0  0  0  0
 17 24  1  0  0  0  0
  9 25  1  0  0  0  0
 13 26  1  0  0  0  0
 26 27  2  0  0  0  0
 25 28  1  0  0  0  0
 25 29  2  0  0  0  0
 29 30  1  0  0  0  0
 28 31  2  0  0  0  0
 30 32  2  0  0  0  0
  3  4  1  0  0  0  0
  9 23  1  0  0  0  0
 10 11  1  0  0  0  0
 12 16  2  0  0  0  0
 31 32  1  0  0  0  0
 18 24  1  0  0  0  0
M  END
> <MOLFORMULA>
C24 H24 N4 O4

> <MOLWEIGHT>
4.324776000000000e+002

> <IDNUMBER>
AT-687/PE21182

> <PRICE>
EUR 80/10 mg

> <Similarity score>
0.20

$$$$

  -OEChem-04222410502D

 29 32  0     0  0  0  0  0  0999 V2000
    7.9500   -3.4000    0.0000 C   0  0  0  0  0  0  0  0  0  0  0  0
   10.0000   -2.7250    0.0000 N   0  0  3  0  0  0  0  0  0  0  0  0
    8.7292   -2.3167    0.0000 N   0  0  0  0  0  0  0  0  0  0  0  0
   10.0000   -4.0542    0.0000 C   0  0  0  0  0  0  0  0  0  0  0  0
    8.7500   -4.4792    0.0000 C   0  0  0  0  0  0  0  0  0  0  0  0
    6.6167   -3.4167    0.0000 C   0  0  0  0  0  0  0  0  0  0  0  0
   11.1500   -2.0542    0.0000 C   0  0  0  0  0  0  0  0  0  0  0  0
   12.3042   -4.0542    0.0000 O   0  0  0  0  0  0  0  0  0  0  0  0
    5.9500   -2.2667    0.0000 N   0  0  0  0  0  0  0  0  0  0  0  0
   12.3042   -2.7250    0.0000 C   0  0  3  0  0  0  0  0  0  0  0  0
    3.9417   -1.1250    0.0000 C   0  0  0  0  0  0  0  0  0  0  0  0
   11.1500   -4.7250    0.0000 C   0  0  0  0  0  0  0  0  0  0  0  0
    2.6250   -1.1250    0.0000 C   0  0  0  0  0  0  0  0  0  0  0  0
    4.6292   -2.2750    0.0000 C   0  0  0  0  0  0  0  0  0  0  0  0
   13.4542   -2.0542    0.0000 C   0  0  0  0  0  0  0  0  0  0  0  0
    5.9500   -4.5667    0.0000 O   0  0  0  0  0  0  0  0  0  0  0  0
    1.9542   -2.2750    0.0000 C   0  0  0  0  0  0  0  0  0  0  0  0
    2.6417   -3.4292    0.0000 C   0  0  0  0  0  0  0  0  0  0  0  0
   13.4542   -0.7417    0.0000 C   0  0  0  0  0  0  0  0  0  0  0  0
   14.6167   -2.7417    0.0000 C   0  0  0  0  0  0  0  0  0  0  0  0
    3.9417   -3.4292    0.0000 C   0  0  0  0  0  0  0  0  0  0  0  0
   15.7750   -0.7500    0.0000 C   0  0  0  0  0  0  0  0  0  0  0  0
    1.9542   -0.0000    0.0000 O   0  0  0  0  0  0  0  0  0  0  0  0
   15.7667   -2.0750    0.0000 C   0  0  0  0  0  0  0  0  0  0  0  0
   14.6250   -0.0667    0.0000 C   0  0  0  0  0  0  0  0  0  0  0  0
   16.9292   -0.0750    0.0000 Cl  0  0  0  0  0  0  0  0  0  0  0  0
    0.6417   -2.3000    0.0000 O   0  0  0  0  0  0  0  0  0  0  0  0
    0.6417   -0.0000    0.0000 C   0  0  0  0  0  0  0  0  0  0  0  0
    0.0000   -3.4500    0.0000 C   0  0  0  0  0  0  0  0  0  0  0  0
  2  3  1  0  0  0  0
  1  3  2  0  0  0  0
  4  5  2  0  0  0  0
  1  5  1  0  0  0  0
  1  6  1  0  0  0  0
  2  7  1  0  0  0  0
  8 12  1  0  0  0  0
  6  9  1  0  0  0  0
  7 10  1  0  0  0  0
 11 14  2  0  0  0  0
  4 12  1  0  0  0  0
 11 13  1  0  0  0  0
  9 14  1  0  0  0  0
 10 15  1  0  0  0  0
  6 16  2  0  0  0  0
 17 18  1  0  0  0  0
 18 21  2  0  0  0  0
 15 19  2  0  0  0  0
 15 20  1  0  0  0  0
 14 21  1  0  0  0  0
 22 24  1  0  0  0  0
 13 23  1  0  0  0  0
 20 24  2  0  0  0  0
 19 25  1  0  0  0  0
 22 26  1  0  0  0  0
 17 27  1  0  0  0  0
 23 28  1  0  0  0  0
 27 29  1  0  0  0  0
  2  4  1  0  0  0  0
  8 10  1  0  0  0  0
 13 17  2  0  0  0  0
 22 25  2  0  0  0  0
M  END
> <MOLFORMULA>
C21 H20 Cl N3 O4

> <MOLWEIGHT>
4.138590000000000e+002

> <IDNUMBER>
AT-687/PE21200

> <PRICE>
EUR 80/10 mg

> <Similarity score>
0.20

$$$$

  -OEChem-04222410502D

 26 29  0     0  0  0  0  0  0999 V2000
    4.6417   -5.7417    0.0000 N   0  0  3  0  0  0  0  0  0  0  0  0
    6.0917   -7.3417    0.0000 C   0  0  0  0  0  0  0  0  0  0  0  0
    5.9500   -6.0250    0.0000 N   0  0  0  0  0  0  0  0  0  0  0  0
    3.9917   -6.9000    0.0000 C   0  0  0  0  0  0  0  0  0  0  0  0
    4.8750   -7.8750    0.0000 C   0  0  0  0  0  0  0  0  0  0  0  0
   10.7000   -7.3417    0.0000 C   0  0  0  0  0  0  0  0  0  0  0  0
    7.2417   -8.0042    0.0000 C   0  0  0  0  0  0  0  0  0  0  0  0
    3.9917   -4.5750    0.0000 C   0  0  0  0  0  0  0  0  0  0  0  0
   12.8000   -6.9000    0.0000 N   0  0  0  0  0  0  0  0  0  0  0  0
   10.8250   -6.0250    0.0000 C   0  0  0  0  0  0  0  0  0  0  0  0
   12.1292   -5.7417    0.0000 N   0  0  0  0  0  0  0  0  0  0  0  0
    1.9917   -5.7417    0.0000 O   0  0  0  0  0  0  0  0  0  0  0  0
    2.6542   -4.5750    0.0000 C   0  0  3  0  0  0  0  0  0  0  0  0
    8.3917   -7.3417    0.0000 N   0  0  0  0  0  0  0  0  0  0  0  0
    2.6542   -6.9000    0.0000 C   0  0  0  0  0  0  0  0  0  0  0  0
    9.5500   -8.0042    0.0000 C   0  0  0  0  0  0  0  0  0  0  0  0
   11.9167   -7.8750    0.0000 C   0  0  0  0  0  0  0  0  0  0  0  0
    1.9917   -3.4417    0.0000 C   0  0  0  0  0  0  0  0  0  0  0  0
    7.2417   -9.3417    0.0000 O   0  0  0  0  0  0  0  0  0  0  0  0
    2.6542   -2.3000    0.0000 C   0  0  0  0  0  0  0  0  0  0  0  0
    0.6542   -3.4417    0.0000 C   0  0  0  0  0  0  0  0  0  0  0  0
    0.6542   -1.1500    0.0000 C   0  0  0  0  0  0  0  0  0  0  0  0
    0.0000   -2.3000    0.0000 C   0  0  0  0  0  0  0  0  0  0  0  0
    1.9917   -1.1500    0.0000 C   0  0  0  0  0  0  0  0  0  0  0  0
    0.0000   -0.0000    0.0000 F   0  0  0  0  0  0  0  0  0  0  0  0
    9.8417   -5.1167    0.0000 C   0  0  0  0  0  0  0  0  0  0  0  0
  2  3  2  0  0  0  0
  1  3  1  0  0  0  0
  1  4  1  0  0  0  0
  4  5  2  0  0  0  0
  6 16  1  0  0  0  0
  2  7  1  0  0  0  0
  1  8  1  0  0  0  0
  9 17  2  0  0  0  0
  6 10  2  0  0  0  0
 10 11  1  0  0  0  0
 12 13  1  0  0  0  0
  8 13  1  0  0  0  0
  7 14  1  0  0  0  0
  4 15  1  0  0  0  0
 14 16  1  0  0  0  0
  6 17  1  0  0  0  0
 13 18  1  0  0  0  0
  7 19  2  0  0  0  0
 18 20  1  0  0  0  0
 18 21  2  0  0  0  0
 22 23  2  0  0  0  0
 21 23  1  0  0  0  0
 20 24  2  0  0  0  0
 22 25  1  0  0  0  0
 10 26  1  0  0  0  0
 12 15  1  0  0  0  0
  2  5  1  0  0  0  0
 22 24  1  0  0  0  0
  9 11  1  0  0  0  0
M  END
> <MOLFORMULA>
C18 H18 F N5 O2

> <MOLWEIGHT>
3.553712000000000e+002

> <IDNUMBER>
AT-687/PE26867

> <PRICE>
EUR 80/10 mg

> <Similarity score>
0.20

$$$$

  -OEChem-04222410502D

 28 31  0     0  0  0  0  0  0999 V2000
    7.9542   -3.4167    0.0000 C   0  0  0  0  0  0  0  0  0  0  0  0
   10.0042   -2.7417    0.0000 N   0  0  3  0  0  0  0  0  0  0  0  0
    8.7417   -2.3292    0.0000 N   0  0  0  0  0  0  0  0  0  0  0  0
   10.0042   -4.0667    0.0000 C   0  0  0  0  0  0  0  0  0  0  0  0
    8.7500   -4.5000    0.0000 C   0  0  0  0  0  0  0  0  0  0  0  0
    6.6250   -3.4292    0.0000 C   0  0  0  0  0  0  0  0  0  0  0  0
   11.1667   -2.0750    0.0000 C   0  0  0  0  0  0  0  0  0  0  0  0
   12.3167   -4.0667    0.0000 O   0  0  0  0  0  0  0  0  0  0  0  0
    5.9542   -2.2792    0.0000 N   0  0  0  0  0  0  0  0  0  0  0  0
   12.3167   -2.7417    0.0000 C   0  0  3  0  0  0  0  0  0  0  0  0
    2.6417   -1.1500    0.0000 C   0  0  0  0  0  0  0  0  0  0  0  0
    3.9417   -1.1500    0.0000 C   0  0  0  0  0  0  0  0  0  0  0  0
   11.1667   -4.7417    0.0000 C   0  0  0  0  0  0  0  0  0  0  0  0
    4.6417   -2.3000    0.0000 C   0  0  0  0  0  0  0  0  0  0  0  0
   13.4667   -2.0750    0.0000 C   0  0  0  0  0  0  0  0  0  0  0  0
    5.9542   -4.5917    0.0000 O   0  0  0  0  0  0  0  0  0  0  0  0
    1.9542   -2.3000    0.0000 C   0  0  0  0  0  0  0  0  0  0  0  0
    2.6500   -3.4500    0.0000 C   0  0  0  0  0  0  0  0  0  0  0  0
   13.4667   -0.7542    0.0000 C   0  0  0  0  0  0  0  0  0  0  0  0
   14.6167   -2.7500    0.0000 C   0  0  0  0  0  0  0  0  0  0  0  0
    1.9542   -0.0000    0.0000 Cl  0  0  0  0  0  0  0  0  0  0  0  0
    3.9417   -3.4500    0.0000 C   0  0  0  0  0  0  0  0  0  0  0  0
   15.7917   -0.7750    0.0000 C   0  0  0  0  0  0  0  0  0  0  0  0
   15.7750   -2.1000    0.0000 C   0  0  0  0  0  0  0  0  0  0  0  0
   14.6292   -0.0917    0.0000 C   0  0  0  0  0  0  0  0  0  0  0  0
   16.9417   -0.1167    0.0000 Cl  0  0  0  0  0  0  0  0  0  0  0  0
    0.6500   -2.3167    0.0000 O   0  0  0  0  0  0  0  0  0  0  0  0
    0.0000   -3.4667    0.0000 C   0  0  0  0  0  0  0  0  0  0  0  0
  2  3  1  0  0  0  0
  1  3  2  0  0  0  0
  4  5  2  0  0  0  0
  1  5  1  0  0  0  0
  1  6  1  0  0  0  0
  2  7  1  0  0  0  0
  8 13  1  0  0  0  0
  6  9  1  0  0  0  0
  7 10  1  0  0  0  0
 11 12  1  0  0  0  0
 12 14  2  0  0  0  0
  4 13  1  0  0  0  0
  9 14  1  0  0  0  0
 10 15  1  0  0  0  0
  6 16  2  0  0  0  0
 17 18  1  0  0  0  0
 18 22  2  0  0  0  0
 15 19  2  0  0  0  0
 15 20  1  0  0  0  0
 11 21  1  0  0  0  0
 14 22  1  0  0  0  0
 23 24  1  0  0  0  0
 20 24  2  0  0  0  0
 19 25  1  0  0  0  0
 23 26  1  0  0  0  0
 17 27  1  0  0  0  0
 27 28  1  0  0  0  0
  2  4  1  0  0  0  0
  8 10  1  0  0  0  0
 11 17  2  0  0  0  0
 23 25  2  0  0  0  0
M  END
> <MOLFORMULA>
C20 H17 Cl2 N3 O3

> <MOLWEIGHT>
4.182783000000000e+002

> <IDNUMBER>
AT-687/PE21219

> <PRICE>
EUR 80/10 mg

> <Similarity score>
0.20

$$$$

  -OEChem-04222410502D

 29 32  0     0  0  0  0  0  0999 V2000
    6.4667   -3.8417    0.0000 C   0  0  0  0  0  0  0  0  0  0  0  0
   12.4500   -4.9917    0.0000 N   0  0  0  0  0  0  0  0  0  0  0  0
   10.4500   -6.1417    0.0000 C   0  0  0  0  0  0  0  0  0  0  0  0
   13.1167   -6.1417    0.0000 N   0  0  3  0  0  0  0  0  0  0  0  0
    8.4500   -4.9917    0.0000 N   0  0  3  0  0  0  0  0  0  0  0  0
    7.1250   -4.9917    0.0000 C   0  0  0  0  0  0  0  0  0  0  0  0
    5.1250   -3.6917    0.0000 C   0  0  0  0  0  0  0  0  0  0  0  0
    6.9917   -2.6167    0.0000 N   0  0  0  0  0  0  0  0  0  0  0  0
    6.0167   -1.7250    0.0000 N   0  0  0  0  0  0  0  0  0  0  0  0
   12.4500   -7.3000    0.0000 C   0  0  0  0  0  0  0  0  0  0  0  0
   11.1167   -4.9917    0.0000 C   0  0  0  0  0  0  0  0  0  0  0  0
   11.1167   -7.3000    0.0000 C   0  0  0  0  0  0  0  0  0  0  0  0
    4.8500   -2.3917    0.0000 C   0  0  0  0  0  0  0  0  0  0  0  0
    9.1167   -6.1417    0.0000 C   0  0  0  0  0  0  0  0  0  0  0  0
   10.4500   -3.8417    0.0000 C   0  0  0  0  0  0  0  0  0  0  0  0
    9.1167   -3.8417    0.0000 C   0  0  0  0  0  0  0  0  0  0  0  0
    3.6417   -1.8542    0.0000 C   0  0  0  0  0  0  0  0  0  0  0  0
    6.4667   -6.1417    0.0000 O   0  0  0  0  0  0  0  0  0  0  0  0
   13.1167   -8.4500    0.0000 O   0  0  0  0  0  0  0  0  0  0  0  0
   14.4292   -6.1417    0.0000 C   0  0  0  0  0  0  0  0  0  0  0  0
    2.5542   -2.6250    0.0000 C   0  0  0  0  0  0  0  0  0  0  0  0
    3.5000   -0.5250    0.0000 C   0  0  0  0  0  0  0  0  0  0  0  0
    1.2042   -0.7667    0.0000 C   0  0  0  0  0  0  0  0  0  0  0  0
    2.2917   -0.0000    0.0000 C   0  0  0  0  0  0  0  0  0  0  0  0
    1.3500   -2.1000    0.0000 C   0  0  0  0  0  0  0  0  0  0  0  0
    0.0000   -0.2292    0.0000 F   0  0  0  0  0  0  0  0  0  0  0  0
   16.4292   -4.9917    0.0000 O   0  0  0  0  0  0  0  0  0  0  0  0
   15.1000   -4.9917    0.0000 C   0  0  0  0  0  0  0  0  0  0  0  0
   17.1000   -3.8417    0.0000 C   0  0  0  0  0  0  0  0  0  0  0  0
  2 11  2  0  0  0  0
  3 14  1  0  0  0  0
  2  4  1  0  0  0  0
  5  6  1  0  0  0  0
  1  6  1  0  0  0  0
  1  7  2  0  0  0  0
  1  8  1  0  0  0  0
  8  9  1  0  0  0  0
 10 12  1  0  0  0  0
 11 15  1  0  0  0  0
  3 12  2  0  0  0  0
  7 13  1  0  0  0  0
  5 14  1  0  0  0  0
 15 16  1  0  0  0  0
  5 16  1  0  0  0  0
 13 17  1  0  0  0  0
  6 18  2  0  0  0  0
 10 19  2  0  0  0  0
  4 20  1  0  0  0  0
 17 21  2  0  0  0  0
 17 22  1  0  0  0  0
 23 24  1  0  0  0  0
 22 24  2  0  0  0  0
 21 25  1  0  0  0  0
 23 26  1  0  0  0  0
 27 28  1  0  0  0  0
 20 28  1  0  0  0  0
 27 29  1  0  0  0  0
  9 13  2  0  0  0  0
 23 25  2  0  0  0  0
  3 11  1  0  0  0  0
  4 10  1  0  0  0  0
M  END
> <MOLFORMULA>
C20 H20 F N5 O3

> <MOLWEIGHT>
3.974080000000000e+002

> <IDNUMBER>
AT-687/PE26882

> <PRICE>
EUR 80/10 mg

> <Similarity score>
0.20

$$$$

  -OEChem-04222410502D

 29 32  0     0  0  0  0  0  0999 V2000
    7.9500   -3.4000    0.0000 C   0  0  0  0  0  0  0  0  0  0  0  0
   10.0000   -2.7250    0.0000 N   0  0  3  0  0  0  0  0  0  0  0  0
    8.7292   -2.3167    0.0000 N   0  0  0  0  0  0  0  0  0  0  0  0
   10.0000   -4.0542    0.0000 C   0  0  0  0  0  0  0  0  0  0  0  0
    8.7500   -4.4792    0.0000 C   0  0  0  0  0  0  0  0  0  0  0  0
    6.6167   -3.4167    0.0000 C   0  0  0  0  0  0  0  0  0  0  0  0
   11.1500   -2.0542    0.0000 C   0  0  0  0  0  0  0  0  0  0  0  0
   12.3042   -4.0542    0.0000 O   0  0  0  0  0  0  0  0  0  0  0  0
    5.9500   -2.2667    0.0000 N   0  0  0  0  0  0  0  0  0  0  0  0
   12.3042   -2.7250    0.0000 C   0  0  3  0  0  0  0  0  0  0  0  0
    3.9417   -1.1250    0.0000 C   0  0  0  0  0  0  0  0  0  0  0  0
   11.1500   -4.7250    0.0000 C   0  0  0  0  0  0  0  0  0  0  0  0
    2.6250   -1.1250    0.0000 C   0  0  0  0  0  0  0  0  0  0  0  0
    4.6292   -2.2750    0.0000 C   0  0  0  0  0  0  0  0  0  0  0  0
   13.4542   -2.0542    0.0000 C   0  0  0  0  0  0  0  0  0  0  0  0
    5.9500   -4.5667    0.0000 O   0  0  0  0  0  0  0  0  0  0  0  0
    1.9542   -2.2750    0.0000 C   0  0  0  0  0  0  0  0  0  0  0  0
    2.6417   -3.4292    0.0000 C   0  0  0  0  0  0  0  0  0  0  0  0
   13.4542   -0.7417    0.0000 C   0  0  0  0  0  0  0  0  0  0  0  0
   14.6167   -2.7417    0.0000 C   0  0  0  0  0  0  0  0  0  0  0  0
    3.9417   -3.4292    0.0000 C   0  0  0  0  0  0  0  0  0  0  0  0
   15.7750   -0.7500    0.0000 C   0  0  0  0  0  0  0  0  0  0  0  0
    1.9542   -0.0000    0.0000 O   0  0  0  0  0  0  0  0  0  0  0  0
   15.7667   -2.0750    0.0000 C   0  0  0  0  0  0  0  0  0  0  0  0
   14.6250   -0.0667    0.0000 C   0  0  0  0  0  0  0  0  0  0  0  0
   16.9292   -0.0750    0.0000 Br  0  0  0  0  0  0  0  0  0  0  0  0
    0.6417   -2.3000    0.0000 O   0  0  0  0  0  0  0  0  0  0  0  0
    0.6417   -0.0000    0.0000 C   0  0  0  0  0  0  0  0  0  0  0  0
    0.0000   -3.4500    0.0000 C   0  0  0  0  0  0  0  0  0  0  0  0
  2  3  1  0  0  0  0
  1  3  2  0  0  0  0
  4  5  2  0  0  0  0
  1  5  1  0  0  0  0
  1  6  1  0  0  0  0
  2  7  1  0  0  0  0
  8 12  1  0  0  0  0
  6  9  1  0  0  0  0
  7 10  1  0  0  0  0
 11 14  2  0  0  0  0
  4 12  1  0  0  0  0
 11 13  1  0  0  0  0
  9 14  1  0  0  0  0
 10 15  1  0  0  0  0
  6 16  2  0  0  0  0
 17 18  1  0  0  0  0
 18 21  2  0  0  0  0
 15 19  2  0  0  0  0
 15 20  1  0  0  0  0
 14 21  1  0  0  0  0
 22 24  1  0  0  0  0
 13 23  1  0  0  0  0
 20 24  2  0  0  0  0
 19 25  1  0  0  0  0
 22 26  1  0  0  0  0
 17 27  1  0  0  0  0
 23 28  1  0  0  0  0
 27 29  1  0  0  0  0
  2  4  1  0  0  0  0
  8 10  1  0  0  0  0
 13 17  2  0  0  0  0
 22 25  2  0  0  0  0
M  END
> <MOLFORMULA>
C21 H20 Br N3 O4

> <MOLWEIGHT>
4.583100000000000e+002

> <IDNUMBER>
AT-687/PE21223

> <PRICE>
EUR 80/10 mg

> <Similarity score>
0.20

$$$$

  -OEChem-04222410502D

 36 41  0     0  0  0  0  0  0999 V2000
    5.8250   -5.9750    0.0000 C   0  0  0  0  0  0  0  0  0  0  0  0
    4.6500   -6.6417    0.0000 C   0  0  0  0  0  0  0  0  0  0  0  0
    3.5250   -5.9750    0.0000 O   0  0  0  0  0  0  0  0  0  0  0  0
    3.5250   -4.6417    0.0000 C   0  0  0  0  0  0  0  0  0  0  0  0
    2.3667   -3.9792    0.0000 C   0  0  0  0  0  0  0  0  0  0  0  0
    5.8250   -4.6417    0.0000 C   0  0  0  0  0  0  0  0  0  0  0  0
    6.9917   -6.6417    0.0000 C   0  0  0  0  0  0  0  0  0  0  0  0
    4.6667   -3.9792    0.0000 C   0  0  0  0  0  0  0  0  0  0  0  0
    2.3667   -2.6500    0.0000 C   0  0  0  0  0  0  0  0  0  0  0  0
    4.6417   -7.9667    0.0000 N   0  0  0  0  0  0  0  0  0  0  0  0
    3.5250   -1.9792    0.0000 C   0  0  0  0  0  0  0  0  0  0  0  0
    1.2042   -1.9792    0.0000 N   0  0  3  0  0  0  0  0  0  0  0  0
    4.6667   -2.6500    0.0000 C   0  0  0  0  0  0  0  0  0  0  0  0
    7.0000   -7.9750    0.0000 N   0  0  0  0  0  0  0  0  0  0  0  0
    8.1250   -5.9750    0.0000 O   0  0  0  0  0  0  0  0  0  0  0  0
    3.5000   -8.6042    0.0000 C   0  0  0  0  0  0  0  0  0  0  0  0
    8.1250   -8.6417    0.0000 C   0  0  0  0  0  0  0  0  0  0  0  0
    1.2292   -4.6417    0.0000 C   0  0  0  0  0  0  0  0  0  0  0  0
   10.4250   -9.9750    0.0000 C   0  0  0  0  0  0  0  0  0  0  0  0
    1.1792   -9.9000    0.0000 C   0  0  0  0  0  0  0  0  0  0  0  0
    3.5250   -0.6667    0.0000 C   0  0  0  0  0  0  0  0  0  0  0  0
   11.6000  -10.6500    0.0000 F   0  0  0  0  0  0  0  0  0  0  0  0
    1.2042   -0.6667    0.0000 C   0  0  0  0  0  0  0  0  0  0  0  0
    0.0667   -2.6500    0.0000 C   0  0  0  0  0  0  0  0  0  0  0  0
    2.3500   -7.9250    0.0000 C   0  0  0  0  0  0  0  0  0  0  0  0
    3.4750   -9.9500    0.0000 C   0  0  0  0  0  0  0  0  0  0  0  0
    8.1250   -9.9750    0.0000 C   0  0  0  0  0  0  0  0  0  0  0  0
    9.2917   -7.9750    0.0000 C   0  0  0  0  0  0  0  0  0  0  0  0
   10.4250   -8.6417    0.0000 C   0  0  0  0  0  0  0  0  0  0  0  0
    9.2917  -10.6500    0.0000 C   0  0  0  0  0  0  0  0  0  0  0  0
    2.3167  -10.6000    0.0000 C   0  0  0  0  0  0  0  0  0  0  0  0
    1.2000   -8.5750    0.0000 C   0  0  0  0  0  0  0  0  0  0  0  0
    0.0000  -10.5667    0.0000 O   0  0  0  0  0  0  0  0  0  0  0  0
    0.0750   -3.9792    0.0000 C   0  0  0  0  0  0  0  0  0  0  0  0
    2.3667   -0.0000    0.0000 C   0  0  0  0  0  0  0  0  0  0  0  0
    0.0000  -11.9042    0.0000 C   0  0  0  0  0  0  0  0  0  0  0  0
  1  2  1  0  0  0  0
  2  3  1  0  0  0  0
  4  8  2  0  0  0  0
  4  5  1  0  0  0  0
  1  6  2  0  0  0  0
  1  7  1  0  0  0  0
  6  8  1  0  0  0  0
  9 11  1  0  0  0  0
  2 10  2  0  0  0  0
 11 13  2  0  0  0  0
  9 12  1  0  0  0  0
  8 13  1  0  0  0  0
  7 14  1  0  0  0  0
  7 15  2  0  0  0  0
 10 16  1  0  0  0  0
 14 17  1  0  0  0  0
  5 18  1  0  0  0  0
 19 29  2  0  0  0  0
 20 31  1  0  0  0  0
 11 21  1  0  0  0  0
 19 22  1  0  0  0  0
 23 35  1  0  0  0  0
 12 24  1  0  0  0  0
 16 25  2  0  0  0  0
 16 26  1  0  0  0  0
 17 27  1  0  0  0  0
 17 28  2  0  0  0  0
 28 29  1  0  0  0  0
 27 30  2  0  0  0  0
 26 31  2  0  0  0  0
 25 32  1  0  0  0  0
 20 33  1  0  0  0  0
 18 34  1  0  0  0  0
 21 35  1  0  0  0  0
 33 36  1  0  0  0  0
  3  4  1  0  0  0  0
 19 30  1  0  0  0  0
  5  9  2  0  0  0  0
 20 32  2  0  0  0  0
 24 34  1  0  0  0  0
 12 23  1  0  0  0  0
M  END
> <MOLFORMULA>
C29 H26 F N3 O3

> <MOLWEIGHT>
4.835404000000000e+002

> <IDNUMBER>
AT-687/PE10214

> <PRICE>
EUR 80/10 mg

> <Similarity score>
0.20

$$$$

  -OEChem-04222410502D

 38 43  0     0  0  0  0  0  0999 V2000
    5.7750   -5.9750    0.0000 C   0  0  0  0  0  0  0  0  0  0  0  0
    4.6167   -6.6417    0.0000 C   0  0  0  0  0  0  0  0  0  0  0  0
    3.4667   -5.9750    0.0000 O   0  0  0  0  0  0  0  0  0  0  0  0
    3.4667   -4.6500    0.0000 C   0  0  0  0  0  0  0  0  0  0  0  0
    2.3167   -3.9792    0.0000 C   0  0  0  0  0  0  0  0  0  0  0  0
    5.7750   -4.6500    0.0000 C   0  0  0  0  0  0  0  0  0  0  0  0
    6.9417   -6.6417    0.0000 C   0  0  0  0  0  0  0  0  0  0  0  0
    4.6250   -3.9792    0.0000 C   0  0  0  0  0  0  0  0  0  0  0  0
    2.3167   -2.6500    0.0000 C   0  0  0  0  0  0  0  0  0  0  0  0
    4.6000   -7.9750    0.0000 N   0  0  0  0  0  0  0  0  0  0  0  0
    3.4667   -1.9792    0.0000 C   0  0  0  0  0  0  0  0  0  0  0  0
    1.1667   -1.9792    0.0000 N   0  0  3  0  0  0  0  0  0  0  0  0
    4.6250   -2.6500    0.0000 C   0  0  0  0  0  0  0  0  0  0  0  0
    3.4500   -8.6250    0.0000 C   0  0  0  0  0  0  0  0  0  0  0  0
    6.9500   -8.0000    0.0000 N   0  0  0  0  0  0  0  0  0  0  0  0
    8.0792   -5.9750    0.0000 O   0  0  0  0  0  0  0  0  0  0  0  0
    3.4167   -9.9542    0.0000 C   0  0  0  0  0  0  0  0  0  0  0  0
    2.3042   -7.9500    0.0000 C   0  0  0  0  0  0  0  0  0  0  0  0
    1.1500   -8.5750    0.0000 C   0  0  0  0  0  0  0  0  0  0  0  0
    2.2750  -10.6167    0.0000 C   0  0  0  0  0  0  0  0  0  0  0  0
    1.1417   -9.9250    0.0000 C   0  0  0  0  0  0  0  0  0  0  0  0
    8.1000   -8.6500    0.0000 C   0  0  0  0  0  0  0  0  0  0  0  0
    1.1750   -4.6500    0.0000 C   0  0  0  0  0  0  0  0  0  0  0  0
   10.3917   -9.9792    0.0000 C   0  0  0  0  0  0  0  0  0  0  0  0
    3.4667   -0.6667    0.0000 C   0  0  0  0  0  0  0  0  0  0  0  0
   11.5542  -10.6500    0.0000 F   0  0  0  0  0  0  0  0  0  0  0  0
    1.1667   -0.6667    0.0000 C   0  0  0  0  0  0  0  0  0  0  0  0
    0.0250   -2.6500    0.0000 C   0  0  0  0  0  0  0  0  0  0  0  0
    8.1000   -9.9792    0.0000 C   0  0  0  0  0  0  0  0  0  0  0  0
    9.2417   -8.0000    0.0000 C   0  0  0  0  0  0  0  0  0  0  0  0
   10.3917   -8.6500    0.0000 C   0  0  0  0  0  0  0  0  0  0  0  0
    9.2417  -10.6500    0.0000 C   0  0  0  0  0  0  0  0  0  0  0  0
    2.2500  -11.9292    0.0000 O   0  0  0  0  0  0  0  0  0  0  0  0
    0.0000   -7.9000    0.0000 O   0  0  0  0  0  0  0  0  0  0  0  0
    0.0292   -3.9792    0.0000 C   0  0  0  0  0  0  0  0  0  0  0  0
    2.3167   -0.0000    0.0000 C   0  0  0  0  0  0  0  0  0  0  0  0
    1.0750  -12.5750    0.0000 C   0  0  0  0  0  0  0  0  0  0  0  0
    0.0250   -6.5500    0.0000 C   0  0  0  0  0  0  0  0  0  0  0  0
  1  2  1  0  0  0  0
  2  3  1  0  0  0  0
  4  8  2  0  0  0  0
  4  5  1  0  0  0  0
  1  6  2  0  0  0  0
  1  7  1  0  0  0  0
  6  8  1  0  0  0  0
  9 11  1  0  0  0  0
  2 10  2  0  0  0  0
 11 13  2  0  0  0  0
  9 12  1  0  0  0  0
  8 13  1  0  0  0  0
 10 14  1  0  0  0  0
  7 15  1  0  0  0  0
  7 16  2  0  0  0  0
 14 17  1  0  0  0  0
 14 18  2  0  0  0  0
 18 19  1  0  0  0  0
 17 20  2  0  0  0  0
 19 21  2  0  0  0  0
 15 22  1  0  0  0  0
  5 23  1  0  0  0  0
 24 31  2  0  0  0  0
 11 25  1  0  0  0  0
 24 26  1  0  0  0  0
 27 36  1  0  0  0  0
 12 28  1  0  0  0  0
 22 29  1  0  0  0  0
 22 30  2  0  0  0  0
 30 31  1  0  0  0  0
 29 32  2  0  0  0  0
 20 33  1  0  0  0  0
 19 34  1  0  0  0  0
 23 35  1  0  0  0  0
 25 36  1  0  0  0  0
 33 37  1  0  0  0  0
 34 38  1  0  0  0  0
  3  4  1  0  0  0  0
 24 32  1  0  0  0  0
  5  9  2  0  0  0  0
 28 35  1  0  0  0  0
 20 21  1  0  0  0  0
 12 27  1  0  0  0  0
M  END
> <MOLFORMULA>
C30 H28 F N3 O4

> <MOLWEIGHT>
5.135662000000000e+002

> <IDNUMBER>
AT-687/PE10218

> <PRICE>
EUR 80/10 mg

> <Similarity score>
0.20

$$$$

  -OEChem-04222410502D

 38 43  0     0  0  0  0  0  0999 V2000
    7.0250   -6.0042    0.0000 C   0  0  0  0  0  0  0  0  0  0  0  0
    5.8667   -6.6667    0.0000 C   0  0  0  0  0  0  0  0  0  0  0  0
    4.7250   -6.0042    0.0000 O   0  0  0  0  0  0  0  0  0  0  0  0
    4.7250   -4.6542    0.0000 C   0  0  0  0  0  0  0  0  0  0  0  0
    3.5500   -4.0000    0.0000 C   0  0  0  0  0  0  0  0  0  0  0  0
    7.0250   -4.6542    0.0000 C   0  0  0  0  0  0  0  0  0  0  0  0
    8.2042   -6.6667    0.0000 C   0  0  0  0  0  0  0  0  0  0  0  0
    5.8750   -4.0000    0.0000 C   0  0  0  0  0  0  0  0  0  0  0  0
    3.5500   -2.6500    0.0000 C   0  0  0  0  0  0  0  0  0  0  0  0
    5.8500   -8.0000    0.0000 N   0  0  0  0  0  0  0  0  0  0  0  0
    4.7250   -2.0000    0.0000 C   0  0  0  0  0  0  0  0  0  0  0  0
    2.4167   -2.0000    0.0000 N   0  0  3  0  0  0  0  0  0  0  0  0
    5.8750   -2.6500    0.0000 C   0  0  0  0  0  0  0  0  0  0  0  0
    8.2250   -8.0167    0.0000 N   0  0  0  0  0  0  0  0  0  0  0  0
    4.6792   -8.6417    0.0000 C   0  0  0  0  0  0  0  0  0  0  0  0
    4.6542   -9.9750    0.0000 C   0  0  0  0  0  0  0  0  0  0  0  0
    3.4750  -10.6417    0.0000 C   0  0  0  0  0  0  0  0  0  0  0  0
    9.3500   -6.0042    0.0000 O   0  0  0  0  0  0  0  0  0  0  0  0
    9.3750   -8.6750    0.0000 C   0  0  0  0  0  0  0  0  0  0  0  0
    9.3750  -10.0167    0.0000 C   0  0  0  0  0  0  0  0  0  0  0  0
    3.5250   -7.9417    0.0000 C   0  0  0  0  0  0  0  0  0  0  0  0
    2.3167   -9.9417    0.0000 C   0  0  0  0  0  0  0  0  0  0  0  0
    2.4167   -4.6542    0.0000 C   0  0  0  0  0  0  0  0  0  0  0  0
   10.5167  -10.6750    0.0000 C   0  0  0  0  0  0  0  0  0  0  0  0
    2.3667   -8.5750    0.0000 C   0  0  0  0  0  0  0  0  0  0  0  0
    5.7917  -10.6750    0.0000 O   0  0  0  0  0  0  0  0  0  0  0  0
    4.7250   -0.6500    0.0000 C   0  0  0  0  0  0  0  0  0  0  0  0
   10.5167  -12.0167    0.0000 F   0  0  0  0  0  0  0  0  0  0  0  0
    2.4167   -0.6500    0.0000 C   0  0  0  0  0  0  0  0  0  0  0  0
    1.2542   -2.6500    0.0000 C   0  0  0  0  0  0  0  0  0  0  0  0
    1.1417  -10.5750    0.0000 O   0  0  0  0  0  0  0  0  0  0  0  0
    1.2542   -4.0000    0.0000 C   0  0  0  0  0  0  0  0  0  0  0  0
    3.5500   -0.0000    0.0000 C   0  0  0  0  0  0  0  0  0  0  0  0
   11.6792   -8.6750    0.0000 C   0  0  0  0  0  0  0  0  0  0  0  0
   10.5167   -8.0167    0.0000 C   0  0  0  0  0  0  0  0  0  0  0  0
   11.6792  -10.0167    0.0000 C   0  0  0  0  0  0  0  0  0  0  0  0
    5.7250  -11.7250    0.0000 C   0  0  0  0  0  0  0  0  0  0  0  0
    0.0000   -9.8917    0.0000 C   0  0  0  0  0  0  0  0  0  0  0  0
  1  2  1  0  0  0  0
  2  3  1  0  0  0  0
  4  8  2  0  0  0  0
  4  5  1  0  0  0  0
  1  6  2  0  0  0  0
  1  7  1  0  0  0  0
  6  8  1  0  0  0  0
  9 11  1  0  0  0  0
  2 10  2  0  0  0  0
 11 13  2  0  0  0  0
  9 12  1  0  0  0  0
  8 13  1  0  0  0  0
  7 14  1  0  0  0  0
 10 15  1  0  0  0  0
 15 16  2  0  0  0  0
 16 17  1  0  0  0  0
  7 18  2  0  0  0  0
 14 19  1  0  0  0  0
 19 20  2  0  0  0  0
 15 21  1  0  0  0  0
 22 25  1  0  0  0  0
  5 23  1  0  0  0  0
 20 24  1  0  0  0  0
 21 25  2  0  0  0  0
 16 26  1  0  0  0  0
 11 27  1  0  0  0  0
 24 28  1  0  0  0  0
 29 33  1  0  0  0  0
 12 30  1  0  0  0  0
 22 31  1  0  0  0  0
 23 32  1  0  0  0  0
 27 33  1  0  0  0  0
 34 35  2  0  0  0  0
 19 35  1  0  0  0  0
 34 36  1  0  0  0  0
 26 37  1  0  0  0  0
 31 38  1  0  0  0  0
  3  4  1  0  0  0  0
  5  9  2  0  0  0  0
 24 36  2  0  0  0  0
 30 32  1  0  0  0  0
 17 22  2  0  0  0  0
 12 29  1  0  0  0  0
M  END
> <MOLFORMULA>
C30 H28 F N3 O4

> <MOLWEIGHT>
5.135662000000000e+002

> <IDNUMBER>
AT-687/PE10215

> <PRICE>
EUR 80/10 mg

> <Similarity score>
0.20

$$$$

  -OEChem-04222410502D

 31 34  0     0  0  0  0  0  0999 V2000
    8.0500   -5.9667    0.0000 C   0  0  0  0  0  0  0  0  0  0  0  0
    6.9000   -6.6250    0.0000 N   0  0  0  0  0  0  0  0  0  0  0  0
    8.0250   -4.6417    0.0000 N   0  0  3  0  0  0  0  0  0  0  0  0
    9.2000   -6.6250    0.0000 N   0  0  0  0  0  0  0  0  0  0  0  0
    6.9000   -7.9667    0.0000 C   0  0  0  0  0  0  0  0  0  0  0  0
    6.8750   -3.9750    0.0000 C   0  0  0  0  0  0  0  0  0  0  0  0
    8.0500   -8.6417    0.0000 C   0  0  0  0  0  0  0  0  0  0  0  0
    1.1417   -4.6417    0.0000 C   0  0  0  0  0  0  0  0  0  0  0  0
    1.1417   -5.9750    0.0000 C   0  0  0  0  0  0  0  0  0  0  0  0
    6.8750   -2.6500    0.0000 C   0  0  0  0  0  0  0  0  0  0  0  0
    3.4417   -8.6417    0.0000 C   0  0  0  0  0  0  0  0  0  0  0  0
    9.2000   -7.9667    0.0000 C   0  0  0  0  0  0  0  0  0  0  0  0
    2.2917   -7.9667    0.0000 N   0  0  0  0  0  0  0  0  0  0  0  0
    9.1750   -3.9750    0.0000 C   0  0  0  0  0  0  0  0  0  0  0  0
    2.2917   -6.6417    0.0000 C   0  0  0  0  0  0  0  0  0  0  0  0
    2.2917   -3.9750    0.0000 C   0  0  0  0  0  0  0  0  0  0  0  0
    8.0250   -1.9792    0.0000 C   0  0  0  0  0  0  0  0  0  0  0  0
    5.7250   -8.6417    0.0000 O   0  0  0  0  0  0  0  0  0  0  0  0
    3.4417   -9.9667    0.0000 O   0  0  0  0  0  0  0  0  0  0  0  0
    9.1750   -2.6500    0.0000 C   0  0  0  0  0  0  0  0  0  0  0  0
    3.4500   -4.6417    0.0000 C   0  0  0  0  0  0  0  0  0  0  0  0
    4.5917   -7.9667    0.0000 C   0  0  0  0  0  0  0  0  0  0  0  0
    0.0000   -3.9917    0.0000 Cl  0  0  0  0  0  0  0  0  0  0  0  0
    3.4500   -5.9750    0.0000 C   0  0  0  0  0  0  0  0  0  0  0  0
    2.2917   -2.6500    0.0000 O   0  0  0  0  0  0  0  0  0  0  0  0
    5.7250   -2.0167    0.0000 C   0  0  0  0  0  0  0  0  0  0  0  0
   10.3500   -8.6417    0.0000 C   0  0  0  0  0  0  0  0  0  0  0  0
    8.0042   -0.6542    0.0000 C   0  0  0  0  0  0  0  0  0  0  0  0
    1.1417   -1.9792    0.0000 C   0  0  0  0  0  0  0  0  0  0  0  0
    5.7042   -0.6750    0.0000 C   0  0  0  0  0  0  0  0  0  0  0  0
    6.8542   -0.0000    0.0000 C   0  0  0  0  0  0  0  0  0  0  0  0
  1  2  2  0  0  0  0
  1  3  1  0  0  0  0
  1  4  1  0  0  0  0
  2  5  1  0  0  0  0
  3  6  1  0  0  0  0
  7 12  1  0  0  0  0
  8  9  1  0  0  0  0
  9 15  2  0  0  0  0
  6 10  1  0  0  0  0
 11 22  1  0  0  0  0
  4 12  2  0  0  0  0
 11 13  1  0  0  0  0
  3 14  1  0  0  0  0
 13 15  1  0  0  0  0
 16 21  1  0  0  0  0
 17 20  1  0  0  0  0
  5 18  1  0  0  0  0
 11 19  2  0  0  0  0
 14 20  1  0  0  0  0
 21 24  2  0  0  0  0
 18 22  1  0  0  0  0
  8 23  1  0  0  0  0
 15 24  1  0  0  0  0
 16 25  1  0  0  0  0
 10 26  1  0  0  0  0
 12 27  1  0  0  0  0
 17 28  1  0  0  0  0
 25 29  1  0  0  0  0
 26 30  2  0  0  0  0
 28 31  2  0  0  0  0
  5  7  2  0  0  0  0
 10 17  2  0  0  0  0
 30 31  1  0  0  0  0
  8 16  2  0  0  0  0
M  END
> <MOLFORMULA>
C23 H23 Cl N4 O3

> <MOLWEIGHT>
4.389127000000000e+002

> <IDNUMBER>
AT-687/PE16676

> <PRICE>
EUR 80/10 mg

> <Similarity score>
0.20

$$$$

  -OEChem-04222410502D

 31 35  0     0  0  0  0  0  0999 V2000
    7.9292   -4.7792    0.0000 C   0  0  0  0  0  0  0  0  0  0  0  0
    9.9750   -4.1000    0.0000 N   0  0  3  0  0  0  0  0  0  0  0  0
    8.7250   -3.6750    0.0000 N   0  0  0  0  0  0  0  0  0  0  0  0
    9.9750   -5.4250    0.0000 C   0  0  0  0  0  0  0  0  0  0  0  0
    8.7417   -5.8417    0.0000 C   0  0  0  0  0  0  0  0  0  0  0  0
    6.6167   -4.7792    0.0000 C   0  0  0  0  0  0  0  0  0  0  0  0
   11.1500   -3.4250    0.0000 C   0  0  0  0  0  0  0  0  0  0  0  0
   12.3042   -5.4250    0.0000 O   0  0  0  0  0  0  0  0  0  0  0  0
   12.3042   -4.1000    0.0000 C   0  0  3  0  0  0  0  0  0  0  0  0
    5.9417   -3.6250    0.0000 N   0  0  0  0  0  0  0  0  0  0  0  0
   14.6250   -1.4292    0.0000 C   0  0  0  0  0  0  0  0  0  0  0  0
   13.4500   -3.4250    0.0000 C   0  0  0  0  0  0  0  0  0  0  0  0
   13.4500   -2.1250    0.0000 C   0  0  0  0  0  0  0  0  0  0  0  0
    3.9500   -2.5042    0.0000 C   0  0  0  0  0  0  0  0  0  0  0  0
   11.1500   -6.0917    0.0000 C   0  0  0  0  0  0  0  0  0  0  0  0
    2.6250   -2.5042    0.0000 C   0  0  0  0  0  0  0  0  0  0  0  0
   15.7542   -2.1000    0.0000 C   0  0  0  0  0  0  0  0  0  0  0  0
   14.8917   -0.1500    0.0000 O   0  0  0  0  0  0  0  0  0  0  0  0
    4.6000   -3.6500    0.0000 C   0  0  0  0  0  0  0  0  0  0  0  0
   16.7500   -1.2167    0.0000 O   0  0  0  0  0  0  0  0  0  0  0  0
   16.2167   -0.0000    0.0000 C   0  0  0  0  0  0  0  0  0  0  0  0
    5.9417   -5.9250    0.0000 O   0  0  0  0  0  0  0  0  0  0  0  0
    1.9500   -3.6500    0.0000 C   0  0  0  0  0  0  0  0  0  0  0  0
   14.6000   -4.1167    0.0000 C   0  0  0  0  0  0  0  0  0  0  0  0
   15.7542   -3.4250    0.0000 C   0  0  0  0  0  0  0  0  0  0  0  0
    2.6250   -4.8000    0.0000 C   0  0  0  0  0  0  0  0  0  0  0  0
    3.9500   -4.8000    0.0000 C   0  0  0  0  0  0  0  0  0  0  0  0
    1.9500   -1.3500    0.0000 O   0  0  0  0  0  0  0  0  0  0  0  0
    0.6500   -3.6500    0.0000 O   0  0  0  0  0  0  0  0  0  0  0  0
    0.6250   -1.3500    0.0000 C   0  0  0  0  0  0  0  0  0  0  0  0
    0.0000   -4.8167    0.0000 C   0  0  0  0  0  0  0  0  0  0  0  0
  2  3  1  0  0  0  0
  1  3  2  0  0  0  0
  4  5  2  0  0  0  0
  1  5  1  0  0  0  0
  1  6  1  0  0  0  0
  2  7  1  0  0  0  0
  8 15  1  0  0  0  0
  7  9  1  0  0  0  0
  6 10  1  0  0  0  0
 11 13  1  0  0  0  0
  9 12  1  0  0  0  0
 12 13  2  0  0  0  0
 14 19  2  0  0  0  0
  4 15  1  0  0  0  0
 14 16  1  0  0  0  0
 17 25  1  0  0  0  0
 11 18  1  0  0  0  0
 10 19  1  0  0  0  0
 17 20  1  0  0  0  0
 18 21  1  0  0  0  0
  6 22  2  0  0  0  0
 23 26  1  0  0  0  0
 12 24  1  0  0  0  0
 24 25  2  0  0  0  0
 26 27  2  0  0  0  0
 19 27  1  0  0  0  0
 16 28  1  0  0  0  0
 23 29  1  0  0  0  0
 28 30  1  0  0  0  0
 29 31  1  0  0  0  0
  2  4  1  0  0  0  0
  8  9  1  0  0  0  0
 16 23  2  0  0  0  0
 11 17  2  0  0  0  0
 20 21  1  0  0  0  0
M  END
> <MOLFORMULA>
C22 H21 N3 O6

> <MOLWEIGHT>
4.234229000000000e+002

> <IDNUMBER>
AT-687/PE21241

> <PRICE>
EUR 80/10 mg

> <Similarity score>
0.20

$$$$

  -OEChem-04222410502D

 32 35  0     0  0  0  0  0  0999 V2000
   -1.0375   -1.8042    0.0000 C   0  0  0  0  0  0  0  0  0  0  0  0
   -2.3500   -0.8750    0.0000 C   0  0  0  0  0  0  0  0  0  0  0  0
   -1.3500   -0.8667    0.0000 C   0  0  0  0  0  0  0  0  0  0  0  0
   -1.8500   -2.4000    0.0000 N   0  0  3  0  0  0  0  0  0  0  0  0
   -2.6583   -1.8167    0.0000 N   0  0  0  0  0  0  0  0  0  0  0  0
   -0.0750   -2.0667    0.0000 C   0  0  0  0  0  0  0  0  0  0  0  0
    0.3250   -2.9917    0.0000 N   0  0  3  0  0  0  0  0  0  0  0  0
   -2.9500   -0.0667    0.0000 C   0  0  0  0  0  0  0  0  0  0  0  0
    1.8500   -2.1792    0.0000 C   0  0  0  0  0  0  0  0  0  0  0  0
    1.3250   -3.0250    0.0000 C   0  0  0  0  0  0  0  0  0  0  0  0
    2.8667   -2.2250    0.0000 N   0  0  3  0  0  0  0  0  0  0  0  0
   -2.5583    0.8500    0.0000 N   0  0  0  0  0  0  0  0  0  0  0  0
    0.5792   -1.3000    0.0000 O   0  0  0  0  0  0  0  0  0  0  0  0
    1.4000   -1.3000    0.0000 O   0  0  0  0  0  0  0  0  0  0  0  0
   -3.9583   -0.1750    0.0000 O   0  0  0  0  0  0  0  0  0  0  0  0
    3.3917   -1.3750    0.0000 C   0  0  0  0  0  0  0  0  0  0  0  0
   -3.1500    1.6500    0.0000 C   0  0  0  0  0  0  0  0  0  0  0  0
   -1.8833   -3.4000    0.0000 C   0  0  0  0  0  0  0  0  0  0  0  0
   -0.1500   -3.8667    0.0000 C   0  0  0  0  0  0  0  0  0  0  0  0
   -1.1250   -4.0500    0.0000 C   0  0  0  0  0  0  0  0  0  0  0  0
   -4.3500    3.2750    0.0000 C   0  0  0  0  0  0  0  0  0  0  0  0
   -4.9333    4.0417    0.0000 F   0  0  0  0  0  0  0  0  0  0  0  0
   -4.1583    1.5375    0.0000 C   0  0  0  0  0  0  0  0  0  0  0  0
   -2.7500    2.5625    0.0000 C   0  0  0  0  0  0  0  0  0  0  0  0
   -3.3500    3.3750    0.0000 C   0  0  0  0  0  0  0  0  0  0  0  0
   -4.7500    2.3500    0.0000 C   0  0  0  0  0  0  0  0  0  0  0  0
    3.3250   -3.1042    0.0000 C   0  0  0  0  0  0  0  0  0  0  0  0
    4.3917   -1.4250    0.0000 C   0  0  0  0  0  0  0  0  0  0  0  0
    2.9250   -0.5000    0.0000 C   0  0  0  0  0  0  0  0  0  0  0  0
    3.4500    0.3375    0.0000 C   0  0  0  0  0  0  0  0  0  0  0  0
    4.9250   -0.5750    0.0000 C   0  0  0  0  0  0  0  0  0  0  0  0
    4.4542    0.3083    0.0000 C   0  0  0  0  0  0  0  0  0  0  0  0
  2  3  1  0  0  0  0
  1  3  2  0  0  0  0
  1  4  1  0  0  0  0
  4  5  1  0  0  0  0
  1  6  1  0  0  0  0
  6  7  1  0  0  0  0
  2  8  1  0  0  0  0
  9 10  1  0  0  0  0
  7 10  1  0  0  0  0
  9 11  1  0  0  0  0
  8 12  1  0  0  0  0
  6 13  2  0  0  0  0
  9 14  2  0  0  0  0
  8 15  2  0  0  0  0
 11 16  1  0  0  0  0
 12 17  1  0  0  0  0
  4 18  1  0  0  0  0
  7 19  1  0  0  0  0
 18 20  1  0  0  0  0
 21 25  2  0  0  0  0
 21 22  1  0  0  0  0
 17 23  1  0  0  0  0
 17 24  2  0  0  0  0
 24 25  1  0  0  0  0
 23 26  2  0  0  0  0
 11 27  1  0  0  0  0
 16 28  2  0  0  0  0
 16 29  1  0  0  0  0
 29 30  2  0  0  0  0
 28 31  1  0  0  0  0
 30 32  1  0  0  0  0
  2  5  2  0  0  0  0
 19 20  1  0  0  0  0
 21 26  1  0  0  0  0
 31 32  2  0  0  0  0
M  END
> <MOLFORMULA>
C23 H22 F N5 O3

> <MOLWEIGHT>
4.354568000000000e+002

> <IDNUMBER>
AT-687/PE30346

> <PRICE>
EUR 80/10 mg

> <Similarity score>
0.20

$$$$

  -OEChem-04222410502D

 28 31  0     0  0  0  0  0  0999 V2000
    4.6417   -5.7500    0.0000 N   0  0  3  0  0  0  0  0  0  0  0  0
    6.1000   -7.3500    0.0000 C   0  0  0  0  0  0  0  0  0  0  0  0
    5.9500   -6.0250    0.0000 N   0  0  0  0  0  0  0  0  0  0  0  0
    3.9917   -6.9000    0.0000 C   0  0  0  0  0  0  0  0  0  0  0  0
    4.8750   -7.9000    0.0000 C   0  0  0  0  0  0  0  0  0  0  0  0
   13.9500   -8.4667    0.0000 N   0  0  0  0  0  0  0  0  0  0  0  0
   11.8500   -8.0042    0.0000 C   0  0  0  0  0  0  0  0  0  0  0  0
   13.2792   -9.6167    0.0000 O   0  0  0  0  0  0  0  0  0  0  0  0
    3.9917   -4.6000    0.0000 C   0  0  0  0  0  0  0  0  0  0  0  0
    7.2417   -8.0042    0.0000 C   0  0  0  0  0  0  0  0  0  0  0  0
   11.9917   -9.3292    0.0000 C   0  0  0  0  0  0  0  0  0  0  0  0
   13.0667   -7.4750    0.0000 C   0  0  0  0  0  0  0  0  0  0  0  0
    1.9917   -5.7500    0.0000 O   0  0  0  0  0  0  0  0  0  0  0  0
    2.6542   -4.6000    0.0000 C   0  0  3  0  0  0  0  0  0  0  0  0
    2.6542   -6.9000    0.0000 C   0  0  0  0  0  0  0  0  0  0  0  0
    1.9917   -3.4417    0.0000 C   0  0  0  0  0  0  0  0  0  0  0  0
    7.2417   -9.3500    0.0000 O   0  0  0  0  0  0  0  0  0  0  0  0
    8.4000   -7.3500    0.0000 N   0  0  0  0  0  0  0  0  0  0  0  0
    2.6542   -2.3000    0.0000 C   0  0  0  0  0  0  0  0  0  0  0  0
    0.6667   -3.4417    0.0000 C   0  0  0  0  0  0  0  0  0  0  0  0
   10.7000   -7.3500    0.0000 C   0  0  0  0  0  0  0  0  0  0  0  0
    0.6667   -1.1417    0.0000 C   0  0  0  0  0  0  0  0  0  0  0  0
    1.9917   -1.1417    0.0000 C   0  0  0  0  0  0  0  0  0  0  0  0
    0.0000   -2.3000    0.0000 C   0  0  0  0  0  0  0  0  0  0  0  0
    0.0000   -0.0000    0.0000 F   0  0  0  0  0  0  0  0  0  0  0  0
    9.5417   -8.0042    0.0000 C   0  0  0  0  0  0  0  0  0  0  0  0
   11.0000  -10.2250    0.0000 C   0  0  0  0  0  0  0  0  0  0  0  0
   13.3417   -6.1750    0.0000 C   0  0  0  0  0  0  0  0  0  0  0  0
  2  3  2  0  0  0  0
  1  3  1  0  0  0  0
  1  4  1  0  0  0  0
  4  5  2  0  0  0  0
  6 12  2  0  0  0  0
  7 21  1  0  0  0  0
  8 11  1  0  0  0  0
  1  9  1  0  0  0  0
  2 10  1  0  0  0  0
  7 11  2  0  0  0  0
  7 12  1  0  0  0  0
 13 14  1  0  0  0  0
  9 14  1  0  0  0  0
  4 15  1  0  0  0  0
 14 16  1  0  0  0  0
 10 17  2  0  0  0  0
 10 18  1  0  0  0  0
 16 19  2  0  0  0  0
 16 20  1  0  0  0  0
 21 26  1  0  0  0  0
 22 24  1  0  0  0  0
 19 23  1  0  0  0  0
 20 24  2  0  0  0  0
 22 25  1  0  0  0  0
 18 26  1  0  0  0  0
 11 27  1  0  0  0  0
 12 28  1  0  0  0  0
 13 15  1  0  0  0  0
  2  5  1  0  0  0  0
 22 23  2  0  0  0  0
  6  8  1  0  0  0  0
M  END
> <MOLFORMULA>
C20 H21 F N4 O3

> <MOLWEIGHT>
3.844089000000000e+002

> <IDNUMBER>
AT-687/PE26870

> <PRICE>
EUR 80/10 mg

> <Similarity score>
0.20

$$$$

  -OEChem-04222410502D

 27 30  0     0  0  0  0  0  0999 V2000
    5.9792   -3.4250    0.0000 C   0  0  0  0  0  0  0  0  0  0  0  0
    8.0292   -2.7292    0.0000 N   0  0  3  0  0  0  0  0  0  0  0  0
    6.7542   -2.3500    0.0000 N   0  0  0  0  0  0  0  0  0  0  0  0
    8.0292   -4.0667    0.0000 C   0  0  0  0  0  0  0  0  0  0  0  0
    6.7750   -4.5000    0.0000 C   0  0  0  0  0  0  0  0  0  0  0  0
    4.6500   -3.4417    0.0000 C   0  0  0  0  0  0  0  0  0  0  0  0
    3.9750   -2.2792    0.0000 N   0  0  0  0  0  0  0  0  0  0  0  0
    9.1792   -2.0750    0.0000 C   0  0  0  0  0  0  0  0  0  0  0  0
    2.6417   -2.3000    0.0000 C   0  0  0  0  0  0  0  0  0  0  0  0
   10.3417   -4.0667    0.0000 O   0  0  0  0  0  0  0  0  0  0  0  0
   10.3417   -2.7292    0.0000 C   0  0  3  0  0  0  0  0  0  0  0  0
    1.9792   -1.1500    0.0000 C   0  0  0  0  0  0  0  0  0  0  0  0
    9.1792   -4.7417    0.0000 C   0  0  0  0  0  0  0  0  0  0  0  0
    1.9792   -3.4500    0.0000 C   0  0  0  0  0  0  0  0  0  0  0  0
   11.4917   -2.0917    0.0000 C   0  0  0  0  0  0  0  0  0  0  0  0
    3.9917   -4.5917    0.0000 O   0  0  0  0  0  0  0  0  0  0  0  0
    0.6792   -3.4500    0.0000 C   0  0  0  0  0  0  0  0  0  0  0  0
   11.4917   -0.7542    0.0000 C   0  0  0  0  0  0  0  0  0  0  0  0
   12.6417   -2.7500    0.0000 C   0  0  0  0  0  0  0  0  0  0  0  0
    0.6500   -1.1500    0.0000 C   0  0  0  0  0  0  0  0  0  0  0  0
   13.8000   -0.7750    0.0000 C   0  0  0  0  0  0  0  0  0  0  0  0
    2.6417   -4.6000    0.0000 Cl  0  0  0  0  0  0  0  0  0  0  0  0
    0.0000   -2.3000    0.0000 C   0  0  0  0  0  0  0  0  0  0  0  0
   12.6542   -0.0917    0.0000 C   0  0  0  0  0  0  0  0  0  0  0  0
   13.8000   -2.0917    0.0000 C   0  0  0  0  0  0  0  0  0  0  0  0
    0.0000   -0.0000    0.0000 F   0  0  0  0  0  0  0  0  0  0  0  0
   14.9667   -0.1167    0.0000 Br  0  0  0  0  0  0  0  0  0  0  0  0
  2  3  1  0  0  0  0
  1  3  2  0  0  0  0
  4  5  2  0  0  0  0
  1  5  1  0  0  0  0
  1  6  1  0  0  0  0
  6  7  1  0  0  0  0
  2  8  1  0  0  0  0
  7  9  1  0  0  0  0
 10 13  1  0  0  0  0
  8 11  1  0  0  0  0
  9 12  2  0  0  0  0
  4 13  1  0  0  0  0
  9 14  1  0  0  0  0
 11 15  1  0  0  0  0
  6 16  2  0  0  0  0
 14 17  2  0  0  0  0
 15 18  1  0  0  0  0
 15 19  2  0  0  0  0
 12 20  1  0  0  0  0
 21 25  2  0  0  0  0
 14 22  1  0  0  0  0
 17 23  1  0  0  0  0
 18 24  2  0  0  0  0
 19 25  1  0  0  0  0
 20 26  1  0  0  0  0
 21 27  1  0  0  0  0
  2  4  1  0  0  0  0
 10 11  1  0  0  0  0
 20 23  2  0  0  0  0
 21 24  1  0  0  0  0
M  END
> <MOLFORMULA>
C19 H14 Br Cl F N3 O2

> <MOLWEIGHT>
4.506936000000000e+002

> <IDNUMBER>
AT-687/PE21230

> <PRICE>
EUR 80/10 mg

> <Similarity score>
0.20

$$$$

  -OEChem-04222410502D

 37 42  0     0  0  0  0  0  0999 V2000
    5.8292   -5.9750    0.0000 C   0  0  0  0  0  0  0  0  0  0  0  0
    4.6667   -6.6417    0.0000 C   0  0  0  0  0  0  0  0  0  0  0  0
    3.5250   -5.9750    0.0000 O   0  0  0  0  0  0  0  0  0  0  0  0
    3.5250   -4.6417    0.0000 C   0  0  0  0  0  0  0  0  0  0  0  0
    2.3667   -3.9792    0.0000 C   0  0  0  0  0  0  0  0  0  0  0  0
    5.8292   -4.6417    0.0000 C   0  0  0  0  0  0  0  0  0  0  0  0
    6.9750   -6.6417    0.0000 C   0  0  0  0  0  0  0  0  0  0  0  0
    4.6667   -3.9792    0.0000 C   0  0  0  0  0  0  0  0  0  0  0  0
    2.3667   -2.6500    0.0000 C   0  0  0  0  0  0  0  0  0  0  0  0
    4.6417   -7.9667    0.0000 N   0  0  0  0  0  0  0  0  0  0  0  0
    3.5250   -1.9792    0.0000 C   0  0  0  0  0  0  0  0  0  0  0  0
    1.2250   -1.9792    0.0000 N   0  0  3  0  0  0  0  0  0  0  0  0
    4.6667   -2.6500    0.0000 C   0  0  0  0  0  0  0  0  0  0  0  0
    7.0000   -7.9750    0.0000 N   0  0  0  0  0  0  0  0  0  0  0  0
    2.3667   -7.9250    0.0000 C   0  0  0  0  0  0  0  0  0  0  0  0
    1.2000   -8.5750    0.0000 C   0  0  0  0  0  0  0  0  0  0  0  0
    3.5000   -8.6042    0.0000 C   0  0  0  0  0  0  0  0  0  0  0  0
    8.1292   -5.9750    0.0000 O   0  0  0  0  0  0  0  0  0  0  0  0
    1.1792   -9.9042    0.0000 C   0  0  0  0  0  0  0  0  0  0  0  0
    2.3167  -10.6000    0.0000 C   0  0  0  0  0  0  0  0  0  0  0  0
    1.2250   -4.6417    0.0000 C   0  0  0  0  0  0  0  0  0  0  0  0
    8.1500   -8.6500    0.0000 C   0  0  0  0  0  0  0  0  0  0  0  0
    3.4750   -9.9500    0.0000 C   0  0  0  0  0  0  0  0  0  0  0  0
    0.0500   -7.8917    0.0000 O   0  0  0  0  0  0  0  0  0  0  0  0
    3.5250   -0.6667    0.0000 C   0  0  0  0  0  0  0  0  0  0  0  0
    0.0750   -2.6500    0.0000 C   0  0  0  0  0  0  0  0  0  0  0  0
    1.2250   -0.6667    0.0000 C   0  0  0  0  0  0  0  0  0  0  0  0
    0.0167  -10.5667    0.0000 O   0  0  0  0  0  0  0  0  0  0  0  0
    0.0750   -3.9792    0.0000 C   0  0  0  0  0  0  0  0  0  0  0  0
    2.3667   -0.0000    0.0000 C   0  0  0  0  0  0  0  0  0  0  0  0
    9.3000   -7.9750    0.0000 C   0  0  0  0  0  0  0  0  0  0  0  0
    8.1500   -9.9750    0.0000 C   0  0  0  0  0  0  0  0  0  0  0  0
    0.0500   -6.5292    0.0000 C   0  0  0  0  0  0  0  0  0  0  0  0
    0.0000  -11.9042    0.0000 C   0  0  0  0  0  0  0  0  0  0  0  0
    9.3000  -10.6500    0.0000 C   0  0  0  0  0  0  0  0  0  0  0  0
   10.4417   -8.6500    0.0000 C   0  0  0  0  0  0  0  0  0  0  0  0
   10.4417   -9.9750    0.0000 C   0  0  0  0  0  0  0  0  0  0  0  0
  1  2  1  0  0  0  0
  2  3  1  0  0  0  0
  4  8  2  0  0  0  0
  4  5  1  0  0  0  0
  1  6  2  0  0  0  0
  1  7  1  0  0  0  0
  6  8  1  0  0  0  0
  9 11  1  0  0  0  0
  2 10  2  0  0  0  0
 11 13  2  0  0  0  0
  9 12  1  0  0  0  0
  8 13  1  0  0  0  0
  7 14  1  0  0  0  0
 15 17  2  0  0  0  0
 15 16  1  0  0  0  0
 10 17  1  0  0  0  0
  7 18  2  0  0  0  0
 19 20  1  0  0  0  0
 20 23  2  0  0  0  0
  5 21  1  0  0  0  0
 14 22  1  0  0  0  0
 17 23  1  0  0  0  0
 16 24  1  0  0  0  0
 11 25  1  0  0  0  0
 12 26  1  0  0  0  0
 27 30  1  0  0  0  0
 19 28  1  0  0  0  0
 21 29  1  0  0  0  0
 25 30  1  0  0  0  0
 22 31  1  0  0  0  0
 22 32  2  0  0  0  0
 24 33  1  0  0  0  0
 28 34  1  0  0  0  0
 32 35  1  0  0  0  0
 31 36  2  0  0  0  0
 35 37  2  0  0  0  0
  3  4  1  0  0  0  0
  5  9  2  0  0  0  0
 36 37  1  0  0  0  0
 26 29  1  0  0  0  0
 16 19  2  0  0  0  0
 12 27  1  0  0  0  0
M  END
> <MOLFORMULA>
C30 H29 N3 O4

> <MOLWEIGHT>
4.955761000000000e+002

> <IDNUMBER>
AT-687/PE10201

> <PRICE>
EUR 80/10 mg

> <Similarity score>
0.20

$$$$

  -OEChem-04222410502D

 30 33  0     0  0  0  0  0  0999 V2000
    8.0667   -5.9417    0.0000 C   0  0  0  0  0  0  0  0  0  0  0  0
    6.9000   -6.6000    0.0000 N   0  0  0  0  0  0  0  0  0  0  0  0
    8.0500   -4.6292    0.0000 N   0  0  3  0  0  0  0  0  0  0  0  0
    9.2250   -6.6000    0.0000 N   0  0  0  0  0  0  0  0  0  0  0  0
    6.9000   -7.9417    0.0000 C   0  0  0  0  0  0  0  0  0  0  0  0
    6.9000   -3.9750    0.0000 C   0  0  0  0  0  0  0  0  0  0  0  0
    8.0667   -8.6000    0.0000 C   0  0  0  0  0  0  0  0  0  0  0  0
    6.9000   -2.6417    0.0000 C   0  0  0  0  0  0  0  0  0  0  0  0
    3.4500   -8.6000    0.0000 C   0  0  0  0  0  0  0  0  0  0  0  0
    9.2250   -7.9417    0.0000 C   0  0  0  0  0  0  0  0  0  0  0  0
    2.3000   -7.9417    0.0000 N   0  0  0  0  0  0  0  0  0  0  0  0
    1.1500   -4.6292    0.0000 C   0  0  0  0  0  0  0  0  0  0  0  0
    9.1917   -3.9667    0.0000 C   0  0  0  0  0  0  0  0  0  0  0  0
    2.3000   -6.6000    0.0000 C   0  0  0  0  0  0  0  0  0  0  0  0
    1.1500   -5.9500    0.0000 C   0  0  0  0  0  0  0  0  0  0  0  0
    8.0500   -1.9667    0.0000 C   0  0  0  0  0  0  0  0  0  0  0  0
    2.3000   -3.9542    0.0000 C   0  0  0  0  0  0  0  0  0  0  0  0
    5.7500   -8.6000    0.0000 O   0  0  0  0  0  0  0  0  0  0  0  0
    3.4500   -9.9292    0.0000 O   0  0  0  0  0  0  0  0  0  0  0  0
    9.1917   -2.6417    0.0000 C   0  0  0  0  0  0  0  0  0  0  0  0
    3.4750   -4.6292    0.0000 C   0  0  0  0  0  0  0  0  0  0  0  0
    4.6167   -7.9417    0.0000 C   0  0  0  0  0  0  0  0  0  0  0  0
    3.4750   -5.9500    0.0000 C   0  0  0  0  0  0  0  0  0  0  0  0
    5.7500   -2.0000    0.0000 C   0  0  0  0  0  0  0  0  0  0  0  0
    0.0000   -3.9667    0.0000 C   0  0  0  0  0  0  0  0  0  0  0  0
   10.3750   -8.6000    0.0000 C   0  0  0  0  0  0  0  0  0  0  0  0
    8.0417   -0.6417    0.0000 C   0  0  0  0  0  0  0  0  0  0  0  0
    2.3000   -2.6250    0.0000 C   0  0  0  0  0  0  0  0  0  0  0  0
    5.7292   -0.6750    0.0000 C   0  0  0  0  0  0  0  0  0  0  0  0
    6.8750   -0.0000    0.0000 C   0  0  0  0  0  0  0  0  0  0  0  0
  1  2  2  0  0  0  0
  1  3  1  0  0  0  0
  1  4  1  0  0  0  0
  2  5  1  0  0  0  0
  3  6  1  0  0  0  0
  7 10  1  0  0  0  0
  6  8  1  0  0  0  0
  9 22  1  0  0  0  0
  4 10  2  0  0  0  0
  9 11  1  0  0  0  0
 12 15  1  0  0  0  0
  3 13  1  0  0  0  0
 11 14  1  0  0  0  0
 14 15  2  0  0  0  0
 16 20  1  0  0  0  0
 17 21  1  0  0  0  0
  5 18  1  0  0  0  0
  9 19  2  0  0  0  0
 13 20  1  0  0  0  0
 21 23  2  0  0  0  0
 18 22  1  0  0  0  0
 14 23  1  0  0  0  0
  8 24  1  0  0  0  0
 12 25  1  0  0  0  0
 10 26  1  0  0  0  0
 16 27  1  0  0  0  0
 17 28  1  0  0  0  0
 24 29  2  0  0  0  0
 27 30  2  0  0  0  0
  5  7  2  0  0  0  0
  8 16  2  0  0  0  0
 29 30  1  0  0  0  0
 12 17  2  0  0  0  0
M  END
> <MOLFORMULA>
C24 H26 N4 O2

> <MOLWEIGHT>
4.024954000000000e+002

> <IDNUMBER>
AT-687/PE16662

> <PRICE>
EUR 80/10 mg

> <Similarity score>
0.20

$$$$

  -OEChem-04222410502D

 31 35  0     0  0  0  0  0  0999 V2000
    9.9792   -4.0792    0.0000 N   0  0  3  0  0  0  0  0  0  0  0  0
    7.9417   -4.7750    0.0000 C   0  0  0  0  0  0  0  0  0  0  0  0
    8.7250   -3.6750    0.0000 N   0  0  0  0  0  0  0  0  0  0  0  0
   10.0000   -5.4042    0.0000 C   0  0  0  0  0  0  0  0  0  0  0  0
    8.7417   -5.8417    0.0000 C   0  0  0  0  0  0  0  0  0  0  0  0
    6.6167   -4.7750    0.0000 C   0  0  0  0  0  0  0  0  0  0  0  0
   11.1500   -3.4167    0.0000 C   0  0  0  0  0  0  0  0  0  0  0  0
   12.3167   -5.4042    0.0000 O   0  0  0  0  0  0  0  0  0  0  0  0
   12.3167   -4.0792    0.0000 C   0  0  3  0  0  0  0  0  0  0  0  0
   14.6250   -1.4167    0.0000 C   0  0  0  0  0  0  0  0  0  0  0  0
   13.4500   -3.4250    0.0000 C   0  0  0  0  0  0  0  0  0  0  0  0
    5.9417   -5.9250    0.0000 N   0  0  0  0  0  0  0  0  0  0  0  0
   13.4500   -2.1000    0.0000 C   0  0  0  0  0  0  0  0  0  0  0  0
   11.1500   -6.0750    0.0000 C   0  0  0  0  0  0  0  0  0  0  0  0
   15.7667   -2.0917    0.0000 C   0  0  0  0  0  0  0  0  0  0  0  0
    3.9667   -4.8000    0.0000 C   0  0  0  0  0  0  0  0  0  0  0  0
   14.8917   -0.1167    0.0000 O   0  0  0  0  0  0  0  0  0  0  0  0
   16.7500   -1.2000    0.0000 O   0  0  0  0  0  0  0  0  0  0  0  0
   16.2167   -0.0000    0.0000 C   0  0  0  0  0  0  0  0  0  0  0  0
    4.6250   -5.9250    0.0000 C   0  0  0  0  0  0  0  0  0  0  0  0
    5.9417   -3.6250    0.0000 O   0  0  0  0  0  0  0  0  0  0  0  0
    2.6417   -4.8000    0.0000 C   0  0  0  0  0  0  0  0  0  0  0  0
   14.6042   -4.1000    0.0000 C   0  0  0  0  0  0  0  0  0  0  0  0
   15.7667   -3.4250    0.0000 C   0  0  0  0  0  0  0  0  0  0  0  0
    1.9917   -5.9542    0.0000 O   0  0  0  0  0  0  0  0  0  0  0  0
    4.6250   -3.6667    0.0000 C   0  0  0  0  0  0  0  0  0  0  0  0
    1.9750   -3.6667    0.0000 C   0  0  0  0  0  0  0  0  0  0  0  0
    0.6500   -5.9417    0.0000 C   0  0  0  0  0  0  0  0  0  0  0  0
    0.0000   -7.1000    0.0000 C   0  0  0  0  0  0  0  0  0  0  0  0
    3.9667   -2.5042    0.0000 C   0  0  0  0  0  0  0  0  0  0  0  0
    2.6250   -2.5042    0.0000 C   0  0  0  0  0  0  0  0  0  0  0  0
  2  3  2  0  0  0  0
  1  3  1  0  0  0  0
  1  4  1  0  0  0  0
  4  5  2  0  0  0  0
  2  6  1  0  0  0  0
  1  7  1  0  0  0  0
  8  9  1  0  0  0  0
  7  9  1  0  0  0  0
 10 13  1  0  0  0  0
  9 11  1  0  0  0  0
  6 12  1  0  0  0  0
 11 13  2  0  0  0  0
  4 14  1  0  0  0  0
 15 24  1  0  0  0  0
 16 20  1  0  0  0  0
 10 17  1  0  0  0  0
 15 18  1  0  0  0  0
 17 19  1  0  0  0  0
 12 20  1  0  0  0  0
  6 21  2  0  0  0  0
 16 22  2  0  0  0  0
 11 23  1  0  0  0  0
 23 24  2  0  0  0  0
 22 25  1  0  0  0  0
 16 26  1  0  0  0  0
 22 27  1  0  0  0  0
 25 28  1  0  0  0  0
 28 29  1  0  0  0  0
 26 30  2  0  0  0  0
 30 31  1  0  0  0  0
  8 14  1  0  0  0  0
  2  5  1  0  0  0  0
 10 15  2  0  0  0  0
 18 19  1  0  0  0  0
 27 31  2  0  0  0  0
M  END
> <MOLFORMULA>
C23 H23 N3 O5

> <MOLWEIGHT>
4.214507000000000e+002

> <IDNUMBER>
AT-687/PE21319

> <PRICE>
EUR 80/10 mg

> <Similarity score>
0.20

$$$$

  -OEChem-04222410502D

 31 35  0     0  0  0  0  0  0999 V2000
    7.9292   -4.7792    0.0000 C   0  0  0  0  0  0  0  0  0  0  0  0
    9.9750   -4.1000    0.0000 N   0  0  3  0  0  0  0  0  0  0  0  0
    8.7167   -3.7000    0.0000 N   0  0  0  0  0  0  0  0  0  0  0  0
    9.9750   -5.4417    0.0000 C   0  0  0  0  0  0  0  0  0  0  0  0
    8.7292   -5.8500    0.0000 C   0  0  0  0  0  0  0  0  0  0  0  0
    6.6042   -4.7792    0.0000 C   0  0  0  0  0  0  0  0  0  0  0  0
   11.1500   -3.4250    0.0000 C   0  0  0  0  0  0  0  0  0  0  0  0
    5.9417   -3.6500    0.0000 N   0  0  0  0  0  0  0  0  0  0  0  0
   12.2792   -5.4417    0.0000 O   0  0  0  0  0  0  0  0  0  0  0  0
   12.2792   -4.1000    0.0000 C   0  0  3  0  0  0  0  0  0  0  0  0
    4.6000   -3.6667    0.0000 C   0  0  0  0  0  0  0  0  0  0  0  0
   14.6167   -1.4500    0.0000 C   0  0  0  0  0  0  0  0  0  0  0  0
   13.4417   -3.4417    0.0000 C   0  0  0  0  0  0  0  0  0  0  0  0
    3.9500   -4.8000    0.0000 C   0  0  0  0  0  0  0  0  0  0  0  0
   13.4417   -2.1250    0.0000 C   0  0  0  0  0  0  0  0  0  0  0  0
   11.1500   -6.0917    0.0000 C   0  0  0  0  0  0  0  0  0  0  0  0
    2.6250   -4.8000    0.0000 C   0  0  0  0  0  0  0  0  0  0  0  0
   15.7500   -2.1000    0.0000 C   0  0  0  0  0  0  0  0  0  0  0  0
   14.8750   -0.1250    0.0000 O   0  0  0  0  0  0  0  0  0  0  0  0
   16.7417   -1.2292    0.0000 O   0  0  0  0  0  0  0  0  0  0  0  0
   16.2000   -0.0000    0.0000 C   0  0  0  0  0  0  0  0  0  0  0  0
    5.9417   -5.9417    0.0000 O   0  0  0  0  0  0  0  0  0  0  0  0
   14.6000   -4.1167    0.0000 C   0  0  0  0  0  0  0  0  0  0  0  0
   15.7500   -3.4417    0.0000 C   0  0  0  0  0  0  0  0  0  0  0  0
    3.9500   -2.4917    0.0000 C   0  0  0  0  0  0  0  0  0  0  0  0
    1.9500   -3.6667    0.0000 C   0  0  0  0  0  0  0  0  0  0  0  0
    2.6250   -2.4917    0.0000 C   0  0  0  0  0  0  0  0  0  0  0  0
    4.6000   -5.9500    0.0000 O   0  0  0  0  0  0  0  0  0  0  0  0
    0.6500   -3.6667    0.0000 O   0  0  0  0  0  0  0  0  0  0  0  0
    3.9500   -7.1000    0.0000 C   0  0  0  0  0  0  0  0  0  0  0  0
    0.0000   -4.8167    0.0000 C   0  0  0  0  0  0  0  0  0  0  0  0
  2  3  1  0  0  0  0
  1  3  2  0  0  0  0
  4  5  2  0  0  0  0
  1  5  1  0  0  0  0
  1  6  1  0  0  0  0
  2  7  1  0  0  0  0
  6  8  1  0  0  0  0
  9 16  1  0  0  0  0
  7 10  1  0  0  0  0
  8 11  1  0  0  0  0
 12 15  1  0  0  0  0
 10 13  1  0  0  0  0
 11 14  2  0  0  0  0
 13 15  2  0  0  0  0
  4 16  1  0  0  0  0
 14 17  1  0  0  0  0
 18 24  1  0  0  0  0
 12 19  1  0  0  0  0
 18 20  1  0  0  0  0
 19 21  1  0  0  0  0
  6 22  2  0  0  0  0
 13 23  1  0  0  0  0
 23 24  2  0  0  0  0
 11 25  1  0  0  0  0
 26 27  1  0  0  0  0
 25 27  2  0  0  0  0
 14 28  1  0  0  0  0
 26 29  1  0  0  0  0
 28 30  1  0  0  0  0
 29 31  1  0  0  0  0
  2  4  1  0  0  0  0
  9 10  1  0  0  0  0
 17 26  2  0  0  0  0
 12 18  2  0  0  0  0
 20 21  1  0  0  0  0
M  END
> <MOLFORMULA>
C22 H21 N3 O6

> <MOLWEIGHT>
4.234229000000000e+002

> <IDNUMBER>
AT-687/PE21239

> <PRICE>
EUR 80/10 mg

> <Similarity score>
0.20

$$$$

  -OEChem-04222410502D

 29 33  0     0  0  0  0  0  0999 V2000
    7.9667   -4.7750    0.0000 C   0  0  0  0  0  0  0  0  0  0  0  0
   10.0000   -4.0917    0.0000 N   0  0  3  0  0  0  0  0  0  0  0  0
    8.7500   -3.6750    0.0000 N   0  0  0  0  0  0  0  0  0  0  0  0
   10.0292   -5.4000    0.0000 C   0  0  0  0  0  0  0  0  0  0  0  0
    8.7750   -5.8500    0.0000 C   0  0  0  0  0  0  0  0  0  0  0  0
    6.6250   -4.7750    0.0000 C   0  0  0  0  0  0  0  0  0  0  0  0
   11.1750   -3.4167    0.0000 C   0  0  0  0  0  0  0  0  0  0  0  0
   12.3250   -5.4000    0.0000 O   0  0  0  0  0  0  0  0  0  0  0  0
   12.3250   -4.0917    0.0000 C   0  0  3  0  0  0  0  0  0  0  0  0
    5.9750   -3.6250    0.0000 N   0  0  0  0  0  0  0  0  0  0  0  0
   14.6500   -1.4417    0.0000 C   0  0  0  0  0  0  0  0  0  0  0  0
   13.4917   -3.4292    0.0000 C   0  0  0  0  0  0  0  0  0  0  0  0
   13.4917   -2.0917    0.0000 C   0  0  0  0  0  0  0  0  0  0  0  0
   11.1750   -6.0917    0.0000 C   0  0  0  0  0  0  0  0  0  0  0  0
   15.7917   -2.0917    0.0000 C   0  0  0  0  0  0  0  0  0  0  0  0
   14.9000   -0.1500    0.0000 O   0  0  0  0  0  0  0  0  0  0  0  0
   16.7750   -1.2250    0.0000 O   0  0  0  0  0  0  0  0  0  0  0  0
   16.2417   -0.0000    0.0000 C   0  0  0  0  0  0  0  0  0  0  0  0
    5.9917   -5.9417    0.0000 O   0  0  0  0  0  0  0  0  0  0  0  0
   14.6250   -4.1000    0.0000 C   0  0  0  0  0  0  0  0  0  0  0  0
   15.7917   -3.4292    0.0000 C   0  0  0  0  0  0  0  0  0  0  0  0
    4.6417   -3.6417    0.0000 C   0  0  0  0  0  0  0  0  0  0  0  0
    1.9917   -3.6500    0.0000 C   0  0  0  0  0  0  0  0  0  0  0  0
    3.9750   -2.5167    0.0000 C   0  0  0  0  0  0  0  0  0  0  0  0
    3.9917   -4.8000    0.0000 C   0  0  0  0  0  0  0  0  0  0  0  0
    2.6750   -4.8167    0.0000 C   0  0  0  0  0  0  0  0  0  0  0  0
    2.6500   -2.5167    0.0000 C   0  0  0  0  0  0  0  0  0  0  0  0
    0.6667   -3.6750    0.0000 C   0  0  0  0  0  0  0  0  0  0  0  0
    0.0000   -2.5500    0.0000 C   0  0  0  0  0  0  0  0  0  0  0  0
  2  3  1  0  0  0  0
  1  3  2  0  0  0  0
  4  5  2  0  0  0  0
  1  5  1  0  0  0  0
  1  6  1  0  0  0  0
  2  7  1  0  0  0  0
  8 14  1  0  0  0  0
  7  9  1  0  0  0  0
  6 10  1  0  0  0  0
 11 13  1  0  0  0  0
  9 12  1  0  0  0  0
 12 13  2  0  0  0  0
  4 14  1  0  0  0  0
 15 21  1  0  0  0  0
 11 16  1  0  0  0  0
 15 17  1  0  0  0  0
 16 18  1  0  0  0  0
  6 19  2  0  0  0  0
 12 20  1  0  0  0  0
 20 21  2  0  0  0  0
 10 22  1  0  0  0  0
 23 26  2  0  0  0  0
 22 24  1  0  0  0  0
 22 25  2  0  0  0  0
 25 26  1  0  0  0  0
 24 27  2  0  0  0  0
 23 28  1  0  0  0  0
 28 29  1  0  0  0  0
  2  4  1  0  0  0  0
  8  9  1  0  0  0  0
 23 27  1  0  0  0  0
 11 15  2  0  0  0  0
 17 18  1  0  0  0  0
M  END
> <MOLFORMULA>
C22 H21 N3 O4

> <MOLWEIGHT>
3.914249000000000e+002

> <IDNUMBER>
AT-687/PE21237

> <PRICE>
EUR 80/10 mg

> <Similarity score>
0.20

$$$$

  -OEChem-04222410502D

 29 33  0     0  0  0  0  0  0999 V2000
    7.3000   -4.8000    0.0000 C   0  0  0  0  0  0  0  0  0  0  0  0
    9.3417   -4.1000    0.0000 N   0  0  3  0  0  0  0  0  0  0  0  0
    8.0750   -3.7000    0.0000 N   0  0  0  0  0  0  0  0  0  0  0  0
    9.3542   -5.4417    0.0000 C   0  0  0  0  0  0  0  0  0  0  0  0
    8.0917   -5.8667    0.0000 C   0  0  0  0  0  0  0  0  0  0  0  0
    5.9542   -4.8000    0.0000 C   0  0  0  0  0  0  0  0  0  0  0  0
   10.5000   -3.4417    0.0000 C   0  0  0  0  0  0  0  0  0  0  0  0
    5.3000   -3.6500    0.0000 N   0  0  0  0  0  0  0  0  0  0  0  0
   11.6667   -5.4417    0.0000 O   0  0  0  0  0  0  0  0  0  0  0  0
   11.6667   -4.1000    0.0000 C   0  0  3  0  0  0  0  0  0  0  0  0
    3.9542   -3.6750    0.0000 C   0  0  0  0  0  0  0  0  0  0  0  0
   13.9750   -1.4667    0.0000 C   0  0  0  0  0  0  0  0  0  0  0  0
   12.8042   -3.4417    0.0000 C   0  0  0  0  0  0  0  0  0  0  0  0
    3.2792   -4.8167    0.0000 C   0  0  0  0  0  0  0  0  0  0  0  0
   12.8042   -2.1250    0.0000 C   0  0  0  0  0  0  0  0  0  0  0  0
   10.5000   -6.1000    0.0000 C   0  0  0  0  0  0  0  0  0  0  0  0
    1.9917   -4.8167    0.0000 C   0  0  0  0  0  0  0  0  0  0  0  0
   15.1250   -2.1250    0.0000 C   0  0  0  0  0  0  0  0  0  0  0  0
   14.2542   -0.1500    0.0000 O   0  0  0  0  0  0  0  0  0  0  0  0
   16.1167   -1.2292    0.0000 O   0  0  0  0  0  0  0  0  0  0  0  0
   15.5792   -0.0000    0.0000 C   0  0  0  0  0  0  0  0  0  0  0  0
    5.3167   -5.9417    0.0000 O   0  0  0  0  0  0  0  0  0  0  0  0
   13.9750   -4.1000    0.0000 C   0  0  0  0  0  0  0  0  0  0  0  0
   15.1250   -3.4542    0.0000 C   0  0  0  0  0  0  0  0  0  0  0  0
    3.2792   -2.5250    0.0000 C   0  0  0  0  0  0  0  0  0  0  0  0
    1.3000   -3.6750    0.0000 C   0  0  0  0  0  0  0  0  0  0  0  0
    3.9542   -5.9750    0.0000 Cl  0  0  0  0  0  0  0  0  0  0  0  0
    1.9750   -2.5250    0.0000 C   0  0  0  0  0  0  0  0  0  0  0  0
    0.0000   -3.6750    0.0000 F   0  0  0  0  0  0  0  0  0  0  0  0
  2  3  1  0  0  0  0
  1  3  2  0  0  0  0
  4  5  2  0  0  0  0
  1  5  1  0  0  0  0
  1  6  1  0  0  0  0
  2  7  1  0  0  0  0
  6  8  1  0  0  0  0
  9 16  1  0  0  0  0
  7 10  1  0  0  0  0
  8 11  1  0  0  0  0
 12 15  1  0  0  0  0
 10 13  1  0  0  0  0
 11 14  2  0  0  0  0
 13 15  2  0  0  0  0
  4 16  1  0  0  0  0
 14 17  1  0  0  0  0
 18 24  1  0  0  0  0
 12 19  1  0  0  0  0
 18 20  1  0  0  0  0
 19 21  1  0  0  0  0
  6 22  2  0  0  0  0
 13 23  1  0  0  0  0
 23 24  2  0  0  0  0
 11 25  1  0  0  0  0
 26 28  1  0  0  0  0
 14 27  1  0  0  0  0
 25 28  2  0  0  0  0
 26 29  1  0  0  0  0
  2  4  1  0  0  0  0
  9 10  1  0  0  0  0
 17 26  2  0  0  0  0
 12 18  2  0  0  0  0
 20 21  1  0  0  0  0
M  END
> <MOLFORMULA>
C20 H15 Cl F N3 O4

> <MOLWEIGHT>
4.158065000000000e+002

> <IDNUMBER>
AT-687/PE21246

> <PRICE>
EUR 80/10 mg

> <Similarity score>
0.20

$$$$

  -OEChem-04222410502D

 29 32  0     0  0  0  0  0  0999 V2000
    6.1000   -7.3500    0.0000 C   0  0  0  0  0  0  0  0  0  0  0  0
    4.6500   -5.7500    0.0000 N   0  0  3  0  0  0  0  0  0  0  0  0
    5.9500   -6.0417    0.0000 N   0  0  0  0  0  0  0  0  0  0  0  0
    3.9792   -6.9167    0.0000 C   0  0  0  0  0  0  0  0  0  0  0  0
    4.8750   -7.8917    0.0000 C   0  0  0  0  0  0  0  0  0  0  0  0
    7.2417   -8.0250    0.0000 C   0  0  0  0  0  0  0  0  0  0  0  0
    3.9792   -4.6042    0.0000 C   0  0  0  0  0  0  0  0  0  0  0  0
    1.9917   -5.7500    0.0000 O   0  0  0  0  0  0  0  0  0  0  0  0
    2.6500   -4.6042    0.0000 C   0  0  3  0  0  0  0  0  0  0  0  0
    8.3917   -7.3500    0.0000 N   0  0  0  0  0  0  0  0  0  0  0  0
    2.6500   -6.9167    0.0000 C   0  0  0  0  0  0  0  0  0  0  0  0
   13.0000  -11.3500    0.0000 C   0  0  0  0  0  0  0  0  0  0  0  0
   13.0000  -10.0167    0.0000 N   0  0  0  0  0  0  0  0  0  0  0  0
    1.9917   -3.4667    0.0000 C   0  0  0  0  0  0  0  0  0  0  0  0
    7.2417   -9.3500    0.0000 O   0  0  0  0  0  0  0  0  0  0  0  0
   11.8417  -12.0042    0.0000 O   0  0  0  0  0  0  0  0  0  0  0  0
    9.5500   -8.0250    0.0000 C   0  0  0  0  0  0  0  0  0  0  0  0
    2.6500   -2.3000    0.0000 C   0  0  0  0  0  0  0  0  0  0  0  0
    0.6542   -3.4667    0.0000 C   0  0  0  0  0  0  0  0  0  0  0  0
   11.8417   -9.3500    0.0000 C   0  0  0  0  0  0  0  0  0  0  0  0
    0.6542   -1.1500    0.0000 C   0  0  0  0  0  0  0  0  0  0  0  0
    1.9917   -1.1500    0.0000 C   0  0  0  0  0  0  0  0  0  0  0  0
    0.0000   -2.3000    0.0000 C   0  0  0  0  0  0  0  0  0  0  0  0
    0.0000   -0.0000    0.0000 F   0  0  0  0  0  0  0  0  0  0  0  0
   10.7000   -7.3500    0.0000 C   0  0  0  0  0  0  0  0  0  0  0  0
    9.5500   -9.3500    0.0000 C   0  0  0  0  0  0  0  0  0  0  0  0
   10.7000  -10.0167    0.0000 C   0  0  0  0  0  0  0  0  0  0  0  0
   11.8417   -8.0250    0.0000 C   0  0  0  0  0  0  0  0  0  0  0  0
   14.1500  -12.0042    0.0000 C   0  0  0  0  0  0  0  0  0  0  0  0
  2  3  1  0  0  0  0
  1  3  2  0  0  0  0
  4  5  2  0  0  0  0
  1  5  1  0  0  0  0
  1  6  1  0  0  0  0
  2  7  1  0  0  0  0
  8 11  1  0  0  0  0
  7  9  1  0  0  0  0
  6 10  1  0  0  0  0
  4 11  1  0  0  0  0
 12 13  1  0  0  0  0
 13 20  1  0  0  0  0
  9 14  1  0  0  0  0
  6 15  2  0  0  0  0
 12 16  2  0  0  0  0
 10 17  1  0  0  0  0
 14 18  1  0  0  0  0
 14 19  2  0  0  0  0
 20 27  2  0  0  0  0
 21 23  2  0  0  0  0
 18 22  2  0  0  0  0
 19 23  1  0  0  0  0
 21 24  1  0  0  0  0
 17 25  1  0  0  0  0
 17 26  2  0  0  0  0
 26 27  1  0  0  0  0
 25 28  2  0  0  0  0
 12 29  1  0  0  0  0
  2  4  1  0  0  0  0
  8  9  1  0  0  0  0
 20 28  1  0  0  0  0
 21 22  1  0  0  0  0
M  END
> <MOLFORMULA>
C21 H19 F N4 O3

> <MOLWEIGHT>
3.944041000000000e+002

> <IDNUMBER>
AT-687/PE26865

> <PRICE>
EUR 80/10 mg

> <Similarity score>
0.20

$$$$

  -OEChem-04222410502D

 29 32  0     0  0  0  0  0  0999 V2000
    7.3000   -3.4167    0.0000 C   0  0  0  0  0  0  0  0  0  0  0  0
    9.3500   -2.7292    0.0000 N   0  0  3  0  0  0  0  0  0  0  0  0
    8.1000   -2.3250    0.0000 N   0  0  0  0  0  0  0  0  0  0  0  0
    9.3750   -4.0667    0.0000 C   0  0  0  0  0  0  0  0  0  0  0  0
    8.1167   -4.5000    0.0000 C   0  0  0  0  0  0  0  0  0  0  0  0
    5.9750   -3.4167    0.0000 C   0  0  0  0  0  0  0  0  0  0  0  0
    5.3042   -2.2750    0.0000 N   0  0  0  0  0  0  0  0  0  0  0  0
   10.5167   -2.0500    0.0000 C   0  0  0  0  0  0  0  0  0  0  0  0
    3.9542   -2.2750    0.0000 C   0  0  0  0  0  0  0  0  0  0  0  0
   11.6750   -4.0667    0.0000 O   0  0  0  0  0  0  0  0  0  0  0  0
   11.6750   -2.7292    0.0000 C   0  0  3  0  0  0  0  0  0  0  0  0
    3.3000   -1.1292    0.0000 C   0  0  0  0  0  0  0  0  0  0  0  0
   10.5167   -4.7250    0.0000 C   0  0  0  0  0  0  0  0  0  0  0  0
    3.3000   -3.4292    0.0000 C   0  0  0  0  0  0  0  0  0  0  0  0
   12.8250   -2.0667    0.0000 C   0  0  0  0  0  0  0  0  0  0  0  0
    5.3042   -4.5750    0.0000 O   0  0  0  0  0  0  0  0  0  0  0  0
    2.0000   -3.4292    0.0000 C   0  0  0  0  0  0  0  0  0  0  0  0
   12.8250   -0.7500    0.0000 C   0  0  0  0  0  0  0  0  0  0  0  0
   13.9917   -2.7292    0.0000 C   0  0  0  0  0  0  0  0  0  0  0  0
    1.9667   -1.1292    0.0000 C   0  0  0  0  0  0  0  0  0  0  0  0
   15.1417   -0.7542    0.0000 C   0  0  0  0  0  0  0  0  0  0  0  0
    1.3000   -2.2917    0.0000 C   0  0  0  0  0  0  0  0  0  0  0  0
   15.1250   -2.0750    0.0000 C   0  0  0  0  0  0  0  0  0  0  0  0
   13.9917   -0.0917    0.0000 C   0  0  0  0  0  0  0  0  0  0  0  0
   16.3000   -0.0917    0.0000 Cl  0  0  0  0  0  0  0  0  0  0  0  0
    3.9542   -4.5917    0.0000 O   0  0  0  0  0  0  0  0  0  0  0  0
    1.3000   -0.0000    0.0000 O   0  0  0  0  0  0  0  0  0  0  0  0
    3.3000   -5.7292    0.0000 C   0  0  0  0  0  0  0  0  0  0  0  0
    0.0000   -0.0000    0.0000 C   0  0  0  0  0  0  0  0  0  0  0  0
  2  3  1  0  0  0  0
  1  3  2  0  0  0  0
  4  5  2  0  0  0  0
  1  5  1  0  0  0  0
  1  6  1  0  0  0  0
  6  7  1  0  0  0  0
  2  8  1  0  0  0  0
  7  9  1  0  0  0  0
 10 13  1  0  0  0  0
  8 11  1  0  0  0  0
  9 12  2  0  0  0  0
  4 13  1  0  0  0  0
  9 14  1  0  0  0  0
 11 15  1  0  0  0  0
  6 16  2  0  0  0  0
 14 17  2  0  0  0  0
 15 18  1  0  0  0  0
 15 19  2  0  0  0  0
 12 20  1  0  0  0  0
 21 23  2  0  0  0  0
 17 22  1  0  0  0  0
 19 23  1  0  0  0  0
 18 24  2  0  0  0  0
 21 25  1  0  0  0  0
 14 26  1  0  0  0  0
 20 27  1  0  0  0  0
 26 28  1  0  0  0  0
 27 29  1  0  0  0  0
  2  4  1  0  0  0  0
 10 11  1  0  0  0  0
 20 22  2  0  0  0  0
 21 24  1  0  0  0  0
M  END
> <MOLFORMULA>
C21 H20 Cl N3 O4

> <MOLWEIGHT>
4.138590000000000e+002

> <IDNUMBER>
AT-687/PE21199

> <PRICE>
EUR 80/10 mg

> <Similarity score>
0.20

$$$$

  -OEChem-04222410502D

 38 43  0     0  0  0  0  0  0999 V2000
    8.1250   -5.9792    0.0000 C   0  0  0  0  0  0  0  0  0  0  0  0
    6.9667   -6.6500    0.0000 C   0  0  0  0  0  0  0  0  0  0  0  0
    5.8167   -5.9792    0.0000 O   0  0  0  0  0  0  0  0  0  0  0  0
    5.8167   -4.6500    0.0000 C   0  0  0  0  0  0  0  0  0  0  0  0
    4.6750   -3.9792    0.0000 C   0  0  0  0  0  0  0  0  0  0  0  0
    8.1250   -4.6500    0.0000 C   0  0  0  0  0  0  0  0  0  0  0  0
    9.2792   -6.6500    0.0000 C   0  0  0  0  0  0  0  0  0  0  0  0
    6.9667   -3.9792    0.0000 C   0  0  0  0  0  0  0  0  0  0  0  0
    4.6750   -2.6542    0.0000 C   0  0  0  0  0  0  0  0  0  0  0  0
    6.9417   -7.9750    0.0000 N   0  0  0  0  0  0  0  0  0  0  0  0
    5.8167   -2.0000    0.0000 C   0  0  0  0  0  0  0  0  0  0  0  0
    9.3000   -7.9792    0.0000 N   0  0  0  0  0  0  0  0  0  0  0  0
    3.5250   -2.0000    0.0000 N   0  0  3  0  0  0  0  0  0  0  0  0
    6.9667   -2.6542    0.0000 C   0  0  0  0  0  0  0  0  0  0  0  0
   10.4250   -8.6500    0.0000 C   0  0  0  0  0  0  0  0  0  0  0  0
   10.4250   -5.9792    0.0000 O   0  0  0  0  0  0  0  0  0  0  0  0
   11.5750   -7.9792    0.0000 C   0  0  0  0  0  0  0  0  0  0  0  0
    5.7917   -8.6250    0.0000 C   0  0  0  0  0  0  0  0  0  0  0  0
    3.5250   -4.6500    0.0000 C   0  0  0  0  0  0  0  0  0  0  0  0
    3.4792   -9.9500    0.0000 C   0  0  0  0  0  0  0  0  0  0  0  0
    5.8167   -0.6542    0.0000 C   0  0  0  0  0  0  0  0  0  0  0  0
    2.3667   -2.6542    0.0000 C   0  0  0  0  0  0  0  0  0  0  0  0
    3.5250   -0.6542    0.0000 C   0  0  0  0  0  0  0  0  0  0  0  0
    4.6542   -7.9542    0.0000 C   0  0  0  0  0  0  0  0  0  0  0  0
    5.7917   -9.9500    0.0000 C   0  0  0  0  0  0  0  0  0  0  0  0
    4.6500  -10.6042    0.0000 C   0  0  0  0  0  0  0  0  0  0  0  0
    3.4792   -8.6042    0.0000 C   0  0  0  0  0  0  0  0  0  0  0  0
   11.5750   -6.6542    0.0000 O   0  0  0  0  0  0  0  0  0  0  0  0
    2.3167  -10.6042    0.0000 O   0  0  0  0  0  0  0  0  0  0  0  0
    2.3667   -3.9792    0.0000 C   0  0  0  0  0  0  0  0  0  0  0  0
    4.6750   -0.0000    0.0000 C   0  0  0  0  0  0  0  0  0  0  0  0
   10.4250   -9.9792    0.0000 C   0  0  0  0  0  0  0  0  0  0  0  0
   12.7292   -8.6500    0.0000 C   0  0  0  0  0  0  0  0  0  0  0  0
    1.1500   -9.9250    0.0000 C   0  0  0  0  0  0  0  0  0  0  0  0
   12.7250   -6.0000    0.0000 C   0  0  0  0  0  0  0  0  0  0  0  0
    0.0000  -10.5792    0.0000 C   0  0  0  0  0  0  0  0  0  0  0  0
   11.5750  -10.6500    0.0000 C   0  0  0  0  0  0  0  0  0  0  0  0
   12.7292   -9.9792    0.0000 C   0  0  0  0  0  0  0  0  0  0  0  0
  1  2  1  0  0  0  0
  2  3  1  0  0  0  0
  4  8  2  0  0  0  0
  4  5  1  0  0  0  0
  1  6  2  0  0  0  0
  1  7  1  0  0  0  0
  6  8  1  0  0  0  0
  9 11  1  0  0  0  0
  2 10  2  0  0  0  0
 11 14  2  0  0  0  0
  7 12  1  0  0  0  0
  9 13  1  0  0  0  0
  8 14  1  0  0  0  0
 12 15  1  0  0  0  0
  7 16  2  0  0  0  0
 15 17  2  0  0  0  0
 10 18  1  0  0  0  0
  5 19  1  0  0  0  0
 20 26  2  0  0  0  0
 11 21  1  0  0  0  0
 13 22  1  0  0  0  0
 23 31  1  0  0  0  0
 18 24  1  0  0  0  0
 18 25  2  0  0  0  0
 25 26  1  0  0  0  0
 24 27  2  0  0  0  0
 17 28  1  0  0  0  0
 20 29  1  0  0  0  0
 19 30  1  0  0  0  0
 21 31  1  0  0  0  0
 15 32  1  0  0  0  0
 17 33  1  0  0  0  0
 29 34  1  0  0  0  0
 28 35  1  0  0  0  0
 34 36  1  0  0  0  0
 32 37  2  0  0  0  0
 37 38  1  0  0  0  0
  3  4  1  0  0  0  0
  5  9  2  0  0  0  0
 20 27  1  0  0  0  0
 33 38  2  0  0  0  0
 22 30  1  0  0  0  0
 13 23  1  0  0  0  0
M  END
> <MOLFORMULA>
C31 H31 N3 O4

> <MOLWEIGHT>
5.096029000000000e+002

> <IDNUMBER>
AT-687/PE10226

> <PRICE>
EUR 80/10 mg

> <Similarity score>
0.20

$$$$

  -OEChem-04222410502D

 30 33  0     0  0  0  0  0  0999 V2000
    6.0792   -7.3500    0.0000 C   0  0  0  0  0  0  0  0  0  0  0  0
    4.6500   -5.7500    0.0000 N   0  0  3  0  0  0  0  0  0  0  0  0
    5.9417   -6.0250    0.0000 N   0  0  0  0  0  0  0  0  0  0  0  0
    3.9750   -6.9000    0.0000 C   0  0  0  0  0  0  0  0  0  0  0  0
    4.8667   -7.8917    0.0000 C   0  0  0  0  0  0  0  0  0  0  0  0
    7.2500   -8.0250    0.0000 C   0  0  0  0  0  0  0  0  0  0  0  0
    3.9750   -4.6000    0.0000 C   0  0  0  0  0  0  0  0  0  0  0  0
   13.0000  -11.3500    0.0000 C   0  0  3  0  0  0  0  0  0  0  0  0
    1.9917   -5.7500    0.0000 O   0  0  0  0  0  0  0  0  0  0  0  0
    2.6542   -4.6000    0.0000 C   0  0  3  0  0  0  0  0  0  0  0  0
    8.3917   -7.3500    0.0000 N   0  0  0  0  0  0  0  0  0  0  0  0
    2.6542   -6.9000    0.0000 C   0  0  0  0  0  0  0  0  0  0  0  0
    1.9917   -3.4500    0.0000 C   0  0  0  0  0  0  0  0  0  0  0  0
   13.0000  -10.0167    0.0000 O   0  0  0  0  0  0  0  0  0  0  0  0
    7.2500   -9.3417    0.0000 O   0  0  0  0  0  0  0  0  0  0  0  0
    9.5417   -8.0250    0.0000 C   0  0  0  0  0  0  0  0  0  0  0  0
    2.6542   -2.3000    0.0000 C   0  0  0  0  0  0  0  0  0  0  0  0
    0.6500   -3.4500    0.0000 C   0  0  0  0  0  0  0  0  0  0  0  0
   13.6667  -12.4917    0.0000 F   0  0  0  0  0  0  0  0  0  0  0  0
   14.3250  -11.3500    0.0000 F   0  0  0  0  0  0  0  0  0  0  0  0
   11.8500  -12.0000    0.0000 F   0  0  0  0  0  0  0  0  0  0  0  0
   11.8500   -9.3417    0.0000 C   0  0  0  0  0  0  0  0  0  0  0  0
    0.6500   -1.1417    0.0000 C   0  0  0  0  0  0  0  0  0  0  0  0
    0.0000   -2.3000    0.0000 C   0  0  0  0  0  0  0  0  0  0  0  0
    1.9917   -1.1417    0.0000 C   0  0  0  0  0  0  0  0  0  0  0  0
    0.0000   -0.0000    0.0000 F   0  0  0  0  0  0  0  0  0  0  0  0
    9.5417   -9.3417    0.0000 C   0  0  0  0  0  0  0  0  0  0  0  0
   10.7000   -7.3500    0.0000 C   0  0  0  0  0  0  0  0  0  0  0  0
   11.8500   -8.0250    0.0000 C   0  0  0  0  0  0  0  0  0  0  0  0
   10.7000  -10.0167    0.0000 C   0  0  0  0  0  0  0  0  0  0  0  0
  2  3  1  0  0  0  0
  1  3  2  0  0  0  0
  4  5  2  0  0  0  0
  1  5  1  0  0  0  0
  1  6  1  0  0  0  0
  2  7  1  0  0  0  0
  8 14  1  0  0  0  0
  9 12  1  0  0  0  0
  7 10  1  0  0  0  0
  6 11  1  0  0  0  0
  4 12  1  0  0  0  0
 10 13  1  0  0  0  0
 14 22  1  0  0  0  0
  6 15  2  0  0  0  0
 11 16  1  0  0  0  0
 13 17  2  0  0  0  0
 13 18  1  0  0  0  0
  8 19  1  0  0  0  0
  8 20  1  0  0  0  0
  8 21  1  0  0  0  0
 22 29  2  0  0  0  0
 23 24  1  0  0  0  0
 18 24  2  0  0  0  0
 17 25  1  0  0  0  0
 23 26  1  0  0  0  0
 16 27  1  0  0  0  0
 16 28  2  0  0  0  0
 28 29  1  0  0  0  0
 27 30  2  0  0  0  0
  2  4  1  0  0  0  0
  9 10  1  0  0  0  0
 22 30  1  0  0  0  0
 23 25  2  0  0  0  0
M  END
> <MOLFORMULA>
C20 H15 F4 N3 O3

> <MOLWEIGHT>
4.213485000000000e+002

> <IDNUMBER>
AT-687/PE26855

> <PRICE>
EUR 80/10 mg

> <Similarity score>
0.20

$$$$

  -OEChem-04222410502D

 29 33  0     0  0  0  0  0  0999 V2000
    7.2917   -4.8000    0.0000 C   0  0  0  0  0  0  0  0  0  0  0  0
    9.3417   -4.1000    0.0000 N   0  0  3  0  0  0  0  0  0  0  0  0
    8.0667   -3.7000    0.0000 N   0  0  0  0  0  0  0  0  0  0  0  0
    9.3500   -5.4417    0.0000 C   0  0  0  0  0  0  0  0  0  0  0  0
    8.0792   -5.8542    0.0000 C   0  0  0  0  0  0  0  0  0  0  0  0
    5.9500   -4.8000    0.0000 C   0  0  0  0  0  0  0  0  0  0  0  0
   10.5000   -3.4417    0.0000 C   0  0  0  0  0  0  0  0  0  0  0  0
   11.6542   -5.4417    0.0000 O   0  0  0  0  0  0  0  0  0  0  0  0
   11.6542   -4.1000    0.0000 C   0  0  3  0  0  0  0  0  0  0  0  0
    5.3000   -3.6500    0.0000 N   0  0  0  0  0  0  0  0  0  0  0  0
   13.9667   -1.4542    0.0000 C   0  0  0  0  0  0  0  0  0  0  0  0
   12.8000   -3.4417    0.0000 C   0  0  0  0  0  0  0  0  0  0  0  0
    1.9750   -2.5250    0.0000 C   0  0  0  0  0  0  0  0  0  0  0  0
   12.8000   -2.1250    0.0000 C   0  0  0  0  0  0  0  0  0  0  0  0
    3.2750   -2.5250    0.0000 C   0  0  0  0  0  0  0  0  0  0  0  0
   10.5000   -6.1000    0.0000 C   0  0  0  0  0  0  0  0  0  0  0  0
   15.1250   -2.1250    0.0000 C   0  0  0  0  0  0  0  0  0  0  0  0
   14.2500   -0.1500    0.0000 O   0  0  0  0  0  0  0  0  0  0  0  0
    3.9542   -3.6667    0.0000 C   0  0  0  0  0  0  0  0  0  0  0  0
   16.1042   -1.2292    0.0000 O   0  0  0  0  0  0  0  0  0  0  0  0
   15.5750   -0.0000    0.0000 C   0  0  0  0  0  0  0  0  0  0  0  0
    5.3167   -5.9417    0.0000 O   0  0  0  0  0  0  0  0  0  0  0  0
    1.3000   -3.6667    0.0000 C   0  0  0  0  0  0  0  0  0  0  0  0
   13.9667   -4.1250    0.0000 C   0  0  0  0  0  0  0  0  0  0  0  0
   15.1250   -3.4542    0.0000 C   0  0  0  0  0  0  0  0  0  0  0  0
    1.9917   -4.8167    0.0000 C   0  0  0  0  0  0  0  0  0  0  0  0
    1.3000   -1.3667    0.0000 F   0  0  0  0  0  0  0  0  0  0  0  0
    3.2750   -4.8167    0.0000 C   0  0  0  0  0  0  0  0  0  0  0  0
    0.0000   -3.6667    0.0000 C   0  0  0  0  0  0  0  0  0  0  0  0
  2  3  1  0  0  0  0
  1  3  2  0  0  0  0
  4  5  2  0  0  0  0
  1  5  1  0  0  0  0
  1  6  1  0  0  0  0
  2  7  1  0  0  0  0
  8 16  1  0  0  0  0
  7  9  1  0  0  0  0
  6 10  1  0  0  0  0
 11 14  1  0  0  0  0
  9 12  1  0  0  0  0
 13 15  1  0  0  0  0
 12 14  2  0  0  0  0
 15 19  2  0  0  0  0
  4 16  1  0  0  0  0
 17 25  1  0  0  0  0
 11 18  1  0  0  0  0
 10 19  1  0  0  0  0
 17 20  1  0  0  0  0
 18 21  1  0  0  0  0
  6 22  2  0  0  0  0
 23 26  1  0  0  0  0
 12 24  1  0  0  0  0
 24 25  2  0  0  0  0
 26 28  2  0  0  0  0
 13 27  1  0  0  0  0
 19 28  1  0  0  0  0
 23 29  1  0  0  0  0
  2  4  1  0  0  0  0
  8  9  1  0  0  0  0
 13 23  2  0  0  0  0
 11 17  2  0  0  0  0
 20 21  1  0  0  0  0
M  END
> <MOLFORMULA>
C21 H18 F N3 O4

> <MOLWEIGHT>
3.953882000000000e+002

> <IDNUMBER>
AT-687/PE21249

> <PRICE>
EUR 80/10 mg

> <Similarity score>
0.20

$$$$

  -OEChem-04222410502D

 30 33  0     0  0  0  0  0  0999 V2000
    9.3500   -2.7000    0.0000 N   0  0  3  0  0  0  0  0  0  0  0  0
    7.3167   -3.3792    0.0000 C   0  0  0  0  0  0  0  0  0  0  0  0
    8.1000   -2.3042    0.0000 N   0  0  0  0  0  0  0  0  0  0  0  0
    9.3667   -4.0417    0.0000 C   0  0  0  0  0  0  0  0  0  0  0  0
    8.1167   -4.4750    0.0000 C   0  0  0  0  0  0  0  0  0  0  0  0
    5.9750   -3.4000    0.0000 C   0  0  0  0  0  0  0  0  0  0  0  0
   10.5167   -2.0292    0.0000 C   0  0  0  0  0  0  0  0  0  0  0  0
   11.6667   -4.0417    0.0000 O   0  0  0  0  0  0  0  0  0  0  0  0
   11.6667   -2.7000    0.0000 C   0  0  3  0  0  0  0  0  0  0  0  0
    5.3250   -4.5542    0.0000 N   0  0  0  0  0  0  0  0  0  0  0  0
    3.3250   -3.4292    0.0000 C   0  0  0  0  0  0  0  0  0  0  0  0
    2.0000   -3.4167    0.0000 C   0  0  0  0  0  0  0  0  0  0  0  0
   10.5167   -4.7000    0.0000 C   0  0  0  0  0  0  0  0  0  0  0  0
    1.3500   -2.2917    0.0000 C   0  0  0  0  0  0  0  0  0  0  0  0
   12.8250   -2.0500    0.0000 C   0  0  0  0  0  0  0  0  0  0  0  0
    3.9917   -4.5542    0.0000 C   0  0  0  0  0  0  0  0  0  0  0  0
    5.3042   -2.2417    0.0000 O   0  0  0  0  0  0  0  0  0  0  0  0
    3.9917   -2.2750    0.0000 C   0  0  0  0  0  0  0  0  0  0  0  0
   13.9667   -2.7167    0.0000 C   0  0  0  0  0  0  0  0  0  0  0  0
   12.8250   -0.7250    0.0000 C   0  0  0  0  0  0  0  0  0  0  0  0
    1.9792   -1.1292    0.0000 C   0  0  0  0  0  0  0  0  0  0  0  0
   15.1417   -0.7250    0.0000 C   0  0  0  0  0  0  0  0  0  0  0  0
    3.3250   -1.1167    0.0000 C   0  0  0  0  0  0  0  0  0  0  0  0
    1.3500   -4.5750    0.0000 O   0  0  0  0  0  0  0  0  0  0  0  0
   15.1250   -2.0500    0.0000 C   0  0  0  0  0  0  0  0  0  0  0  0
   13.9667   -0.0542    0.0000 C   0  0  0  0  0  0  0  0  0  0  0  0
   16.2917   -0.0750    0.0000 Cl  0  0  0  0  0  0  0  0  0  0  0  0
    1.3250   -0.0000    0.0000 O   0  0  0  0  0  0  0  0  0  0  0  0
    0.0000   -4.5750    0.0000 C   0  0  0  0  0  0  0  0  0  0  0  0
    0.0000   -0.0042    0.0000 C   0  0  0  0  0  0  0  0  0  0  0  0
  2  3  2  0  0  0  0
  1  3  1  0  0  0  0
  1  4  1  0  0  0  0
  4  5  2  0  0  0  0
  2  6  1  0  0  0  0
  1  7  1  0  0  0  0
  8  9  1  0  0  0  0
  7  9  1  0  0  0  0
  6 10  1  0  0  0  0
 11 16  1  0  0  0  0
 11 12  2  0  0  0  0
  4 13  1  0  0  0  0
 12 14  1  0  0  0  0
  9 15  1  0  0  0  0
 10 16  1  0  0  0  0
  6 17  2  0  0  0  0
 11 18  1  0  0  0  0
 15 19  2  0  0  0  0
 15 20  1  0  0  0  0
 21 23  1  0  0  0  0
 22 26  1  0  0  0  0
 18 23  2  0  0  0  0
 12 24  1  0  0  0  0
 19 25  1  0  0  0  0
 20 26  2  0  0  0  0
 22 27  1  0  0  0  0
 21 28  1  0  0  0  0
 24 29  1  0  0  0  0
 28 30  1  0  0  0  0
  8 13  1  0  0  0  0
  2  5  1  0  0  0  0
 22 25  2  0  0  0  0
 14 21  2  0  0  0  0
M  END
> <MOLFORMULA>
C22 H22 Cl N3 O4

> <MOLWEIGHT>
4.278858000000000e+002

> <IDNUMBER>
AT-687/PE21275

> <PRICE>
EUR 80/10 mg

> <Similarity score>
0.20

$$$$

  -OEChem-04222410502D

 31 34  0     0  0  0  0  0  0999 V2000
    7.8000   -5.4500    0.0000 C   0  0  0  0  0  0  0  0  0  0  0  0
   13.7917   -6.6167    0.0000 N   0  0  0  0  0  0  0  0  0  0  0  0
   11.8000   -7.7542    0.0000 C   0  0  0  0  0  0  0  0  0  0  0  0
   14.4500   -7.7542    0.0000 N   0  0  3  0  0  0  0  0  0  0  0  0
    9.8042   -6.6167    0.0000 N   0  0  3  0  0  0  0  0  0  0  0  0
    8.4542   -6.6167    0.0000 C   0  0  0  0  0  0  0  0  0  0  0  0
    6.4917   -5.3250    0.0000 C   0  0  0  0  0  0  0  0  0  0  0  0
    8.3500   -4.2417    0.0000 N   0  0  0  0  0  0  0  0  0  0  0  0
    7.3500   -3.3500    0.0000 N   0  0  0  0  0  0  0  0  0  0  0  0
   13.7917   -8.9250    0.0000 C   0  0  0  0  0  0  0  0  0  0  0  0
   12.4667   -6.6167    0.0000 C   0  0  0  0  0  0  0  0  0  0  0  0
   12.4667   -8.9250    0.0000 C   0  0  0  0  0  0  0  0  0  0  0  0
    6.2042   -4.0167    0.0000 C   0  0  0  0  0  0  0  0  0  0  0  0
   10.4750   -7.7542    0.0000 C   0  0  0  0  0  0  0  0  0  0  0  0
   11.8000   -5.4500    0.0000 C   0  0  0  0  0  0  0  0  0  0  0  0
   10.4750   -5.4500    0.0000 C   0  0  0  0  0  0  0  0  0  0  0  0
    4.9917   -3.4750    0.0000 C   0  0  0  0  0  0  0  0  0  0  0  0
    7.8000   -7.7542    0.0000 O   0  0  0  0  0  0  0  0  0  0  0  0
   14.4500  -10.0667    0.0000 O   0  0  0  0  0  0  0  0  0  0  0  0
   15.7792   -7.7542    0.0000 C   0  0  0  0  0  0  0  0  0  0  0  0
    3.9250   -4.2500    0.0000 C   0  0  0  0  0  0  0  0  0  0  0  0
    4.8500   -2.1500    0.0000 C   0  0  0  0  0  0  0  0  0  0  0  0
    2.5542   -2.3917    0.0000 C   0  0  0  0  0  0  0  0  0  0  0  0
    3.6500   -1.6167    0.0000 C   0  0  0  0  0  0  0  0  0  0  0  0
    2.7000   -3.7250    0.0000 C   0  0  0  0  0  0  0  0  0  0  0  0
    1.3417   -1.8542    0.0000 O   0  0  0  0  0  0  0  0  0  0  0  0
   17.7750   -6.6167    0.0000 O   0  0  0  0  0  0  0  0  0  0  0  0
   16.4500   -6.6167    0.0000 C   0  0  0  0  0  0  0  0  0  0  0  0
    1.2167   -0.5250    0.0000 C   0  0  0  0  0  0  0  0  0  0  0  0
   18.4417   -5.4500    0.0000 C   0  0  0  0  0  0  0  0  0  0  0  0
    0.0000   -0.0000    0.0000 C   0  0  0  0  0  0  0  0  0  0  0  0
  2 11  2  0  0  0  0
  3 14  1  0  0  0  0
  2  4  1  0  0  0  0
  5  6  1  0  0  0  0
  1  6  1  0  0  0  0
  1  7  2  0  0  0  0
  1  8  1  0  0  0  0
  8  9  1  0  0  0  0
 10 12  1  0  0  0  0
 11 15  1  0  0  0  0
  3 12  2  0  0  0  0
  7 13  1  0  0  0  0
  5 14  1  0  0  0  0
 15 16  1  0  0  0  0
  5 16  1  0  0  0  0
 13 17  1  0  0  0  0
  6 18  2  0  0  0  0
 10 19  2  0  0  0  0
  4 20  1  0  0  0  0
 17 21  2  0  0  0  0
 17 22  1  0  0  0  0
 23 24  1  0  0  0  0
 22 24  2  0  0  0  0
 21 25  1  0  0  0  0
 23 26  1  0  0  0  0
 27 28  1  0  0  0  0
 20 28  1  0  0  0  0
 26 29  1  0  0  0  0
 27 30  1  0  0  0  0
 29 31  1  0  0  0  0
  9 13  2  0  0  0  0
 23 25  2  0  0  0  0
  3 11  1  0  0  0  0
  4 10  1  0  0  0  0
M  END
> <MOLFORMULA>
C22 H25 N5 O4

> <MOLWEIGHT>
4.234705000000000e+002

> <IDNUMBER>
AT-687/PE26883

> <PRICE>
EUR 80/10 mg

> <Similarity score>
0.20

$$$$

  -OEChem-04222410502D

 30 33  0     0  0  0  0  0  0999 V2000
    8.0500   -5.9667    0.0000 C   0  0  0  0  0  0  0  0  0  0  0  0
    6.9000   -6.6250    0.0000 N   0  0  0  0  0  0  0  0  0  0  0  0
    8.0500   -4.6500    0.0000 N   0  0  3  0  0  0  0  0  0  0  0  0
    9.2000   -6.6250    0.0000 N   0  0  0  0  0  0  0  0  0  0  0  0
    6.9000   -7.9750    0.0000 C   0  0  0  0  0  0  0  0  0  0  0  0
    2.2917   -6.6250    0.0000 C   0  0  0  0  0  0  0  0  0  0  0  0
    2.2917   -7.9750    0.0000 N   0  0  0  0  0  0  0  0  0  0  0  0
    6.9000   -3.9917    0.0000 C   0  0  0  0  0  0  0  0  0  0  0  0
    8.0500   -8.6292    0.0000 C   0  0  0  0  0  0  0  0  0  0  0  0
    3.4417   -8.6292    0.0000 C   0  0  0  0  0  0  0  0  0  0  0  0
    6.9000   -2.6542    0.0000 C   0  0  0  0  0  0  0  0  0  0  0  0
    9.2000   -7.9750    0.0000 C   0  0  0  0  0  0  0  0  0  0  0  0
    9.2000   -4.0000    0.0000 C   0  0  0  0  0  0  0  0  0  0  0  0
    1.1500   -5.9917    0.0000 C   0  0  0  0  0  0  0  0  0  0  0  0
    3.4542   -5.9917    0.0000 C   0  0  0  0  0  0  0  0  0  0  0  0
    8.0500   -1.9792    0.0000 C   0  0  0  0  0  0  0  0  0  0  0  0
    5.7500   -8.6292    0.0000 O   0  0  0  0  0  0  0  0  0  0  0  0
    3.4417   -9.9542    0.0000 O   0  0  0  0  0  0  0  0  0  0  0  0
    9.2000   -2.6542    0.0000 C   0  0  0  0  0  0  0  0  0  0  0  0
    1.1500   -4.6667    0.0000 C   0  0  0  0  0  0  0  0  0  0  0  0
    4.6000   -7.9750    0.0000 C   0  0  0  0  0  0  0  0  0  0  0  0
    3.4542   -4.6667    0.0000 C   0  0  0  0  0  0  0  0  0  0  0  0
    2.3042   -3.9917    0.0000 C   0  0  0  0  0  0  0  0  0  0  0  0
    5.7500   -2.0000    0.0000 C   0  0  0  0  0  0  0  0  0  0  0  0
   10.3667   -8.6292    0.0000 C   0  0  0  0  0  0  0  0  0  0  0  0
    0.0000   -6.6250    0.0000 C   0  0  0  0  0  0  0  0  0  0  0  0
    8.0250   -0.6500    0.0000 C   0  0  0  0  0  0  0  0  0  0  0  0
    4.6042   -3.9917    0.0000 C   0  0  0  0  0  0  0  0  0  0  0  0
    5.7417   -0.6917    0.0000 C   0  0  0  0  0  0  0  0  0  0  0  0
    6.8917   -0.0000    0.0000 C   0  0  0  0  0  0  0  0  0  0  0  0
  1  2  2  0  0  0  0
  1  3  1  0  0  0  0
  1  4  1  0  0  0  0
  2  5  1  0  0  0  0
  6  7  1  0  0  0  0
  7 10  1  0  0  0  0
  3  8  1  0  0  0  0
  9 12  1  0  0  0  0
 10 21  1  0  0  0  0
  8 11  1  0  0  0  0
  4 12  2  0  0  0  0
  3 13  1  0  0  0  0
  6 14  2  0  0  0  0
  6 15  1  0  0  0  0
 16 19  1  0  0  0  0
  5 17  1  0  0  0  0
 10 18  2  0  0  0  0
 13 19  1  0  0  0  0
 14 20  1  0  0  0  0
 17 21  1  0  0  0  0
 15 22  2  0  0  0  0
 22 23  1  0  0  0  0
 11 24  1  0  0  0  0
 12 25  1  0  0  0  0
 14 26  1  0  0  0  0
 16 27  1  0  0  0  0
 22 28  1  0  0  0  0
 24 29  2  0  0  0  0
 27 30  2  0  0  0  0
  5  9  2  0  0  0  0
 11 16  2  0  0  0  0
 29 30  1  0  0  0  0
 20 23  2  0  0  0  0
M  END
> <MOLFORMULA>
C24 H26 N4 O2

> <MOLWEIGHT>
4.024954000000000e+002

> <IDNUMBER>
AT-687/PE16660

> <PRICE>
EUR 80/10 mg

> <Similarity score>
0.20

$$$$

  -OEChem-04222410502D

 27 30  0     0  0  0  0  0  0999 V2000
    6.0917   -7.3500    0.0000 C   0  0  0  0  0  0  0  0  0  0  0  0
    5.9500   -6.0250    0.0000 N   0  0  0  0  0  0  0  0  0  0  0  0
    4.6500   -5.7500    0.0000 N   0  0  3  0  0  0  0  0  0  0  0  0
    3.9792   -6.9000    0.0000 C   0  0  0  0  0  0  0  0  0  0  0  0
    4.8667   -7.8792    0.0000 C   0  0  0  0  0  0  0  0  0  0  0  0
    7.2292   -8.0167    0.0000 C   0  0  0  0  0  0  0  0  0  0  0  0
    8.3917   -7.3500    0.0000 N   0  0  3  0  0  0  0  0  0  0  0  0
    3.9792   -4.6000    0.0000 C   0  0  0  0  0  0  0  0  0  0  0  0
    1.9792   -5.7500    0.0000 O   0  0  0  0  0  0  0  0  0  0  0  0
    2.6542   -4.6000    0.0000 C   0  0  3  0  0  0  0  0  0  0  0  0
   11.8417   -5.3500    0.0000 C   0  0  0  0  0  0  0  0  0  0  0  0
    2.6542   -6.9000    0.0000 C   0  0  0  0  0  0  0  0  0  0  0  0
    1.9792   -3.4500    0.0000 C   0  0  0  0  0  0  0  0  0  0  0  0
    7.2292   -9.3417    0.0000 O   0  0  0  0  0  0  0  0  0  0  0  0
   10.6917   -6.0167    0.0000 C   0  0  3  0  0  0  0  0  0  0  0  0
    9.5417   -8.0167    0.0000 C   0  0  0  0  0  0  0  0  0  0  0  0
    8.3917   -6.0167    0.0000 C   0  0  0  0  0  0  0  0  0  0  0  0
   12.9917   -6.0167    0.0000 O   0  0  0  0  0  0  0  0  0  0  0  0
    9.5417   -5.3500    0.0000 C   0  0  0  0  0  0  0  0  0  0  0  0
   10.6917   -7.3500    0.0000 C   0  0  0  0  0  0  0  0  0  0  0  0
    2.6542   -2.3000    0.0000 C   0  0  0  0  0  0  0  0  0  0  0  0
    0.6542   -3.4500    0.0000 C   0  0  0  0  0  0  0  0  0  0  0  0
   11.8417   -4.0250    0.0000 N   0  0  0  0  0  0  0  0  0  0  0  0
    0.6542   -1.1417    0.0000 C   0  0  0  0  0  0  0  0  0  0  0  0
    1.9792   -1.1417    0.0000 C   0  0  0  0  0  0  0  0  0  0  0  0
    0.0000   -2.3000    0.0000 C   0  0  0  0  0  0  0  0  0  0  0  0
    0.0000   -0.0000    0.0000 F   0  0  0  0  0  0  0  0  0  0  0  0
  1  2  2  0  0  0  0
  2  3  1  0  0  0  0
  4  5  2  0  0  0  0
  1  5  1  0  0  0  0
  1  6  1  0  0  0  0
  6  7  1  0  0  0  0
  3  8  1  0  0  0  0
  9 12  1  0  0  0  0
  8 10  1  0  0  0  0
 11 15  1  0  0  0  0
  4 12  1  0  0  0  0
 10 13  1  0  0  0  0
  6 14  2  0  0  0  0
 15 19  1  0  0  0  0
  7 16  1  0  0  0  0
  7 17  1  0  0  0  0
 11 18  2  0  0  0  0
 17 19  1  0  0  0  0
 16 20  1  0  0  0  0
 13 21  2  0  0  0  0
 13 22  1  0  0  0  0
 11 23  1  0  0  0  0
 24 26  1  0  0  0  0
 21 25  1  0  0  0  0
 22 26  2  0  0  0  0
 24 27  1  0  0  0  0
  3  4  1  0  0  0  0
 15 20  1  0  0  0  0
  9 10  1  0  0  0  0
 24 25  2  0  0  0  0
M  END
> <MOLFORMULA>
C19 H21 F N4 O3

> <MOLWEIGHT>
3.723979000000000e+002

> <IDNUMBER>
AT-687/PE26863

> <PRICE>
EUR 80/10 mg

> <Similarity score>
0.20

$$$$

  -OEChem-04222410502D

 26 29  0     0  0  0  0  0  0999 V2000
    6.0917   -7.3417    0.0000 C   0  0  0  0  0  0  0  0  0  0  0  0
    4.6500   -5.7500    0.0000 N   0  0  3  0  0  0  0  0  0  0  0  0
    5.9500   -6.0250    0.0000 N   0  0  0  0  0  0  0  0  0  0  0  0
    3.9792   -6.9000    0.0000 C   0  0  0  0  0  0  0  0  0  0  0  0
    4.8750   -7.8792    0.0000 C   0  0  0  0  0  0  0  0  0  0  0  0
    7.2292   -8.0167    0.0000 C   0  0  0  0  0  0  0  0  0  0  0  0
    3.9792   -4.6000    0.0000 C   0  0  0  0  0  0  0  0  0  0  0  0
    1.9792   -5.7500    0.0000 O   0  0  0  0  0  0  0  0  0  0  0  0
    8.3917   -7.3417    0.0000 N   0  0  0  0  0  0  0  0  0  0  0  0
    2.6542   -4.6000    0.0000 C   0  0  3  0  0  0  0  0  0  0  0  0
    2.6542   -6.9000    0.0000 C   0  0  0  0  0  0  0  0  0  0  0  0
    1.9792   -3.4417    0.0000 C   0  0  0  0  0  0  0  0  0  0  0  0
    7.2292   -9.3417    0.0000 O   0  0  0  0  0  0  0  0  0  0  0  0
    9.5417   -8.0167    0.0000 C   0  0  0  0  0  0  0  0  0  0  0  0
    2.6542   -2.3000    0.0000 C   0  0  0  0  0  0  0  0  0  0  0  0
    0.6542   -3.4417    0.0000 C   0  0  0  0  0  0  0  0  0  0  0  0
   10.6750   -7.3417    0.0000 C   0  0  0  0  0  0  0  0  0  0  0  0
    0.6542   -1.1417    0.0000 C   0  0  0  0  0  0  0  0  0  0  0  0
    1.9792   -1.1417    0.0000 C   0  0  0  0  0  0  0  0  0  0  0  0
    0.0000   -2.3000    0.0000 C   0  0  0  0  0  0  0  0  0  0  0  0
    0.0000   -0.0000    0.0000 F   0  0  0  0  0  0  0  0  0  0  0  0
   11.8417   -8.0167    0.0000 C   0  0  0  0  0  0  0  0  0  0  0  0
   10.6750  -10.0000    0.0000 C   0  0  0  0  0  0  0  0  0  0  0  0
    9.5417   -9.3417    0.0000 C   0  0  0  0  0  0  0  0  0  0  0  0
   11.8417   -9.3417    0.0000 C   0  0  0  0  0  0  0  0  0  0  0  0
   13.0000   -7.3417    0.0000 C   0  0  0  0  0  0  0  0  0  0  0  0
  2  3  1  0  0  0  0
  1  3  2  0  0  0  0
  4  5  2  0  0  0  0
  1  5  1  0  0  0  0
  1  6  1  0  0  0  0
  2  7  1  0  0  0  0
  8 11  1  0  0  0  0
  6  9  1  0  0  0  0
  7 10  1  0  0  0  0
  4 11  1  0  0  0  0
 10 12  1  0  0  0  0
  6 13  2  0  0  0  0
  9 14  1  0  0  0  0
 12 15  2  0  0  0  0
 12 16  1  0  0  0  0
 14 17  2  0  0  0  0
 18 20  1  0  0  0  0
 15 19  1  0  0  0  0
 16 20  2  0  0  0  0
 18 21  1  0  0  0  0
 17 22  1  0  0  0  0
 23 24  2  0  0  0  0
 14 24  1  0  0  0  0
 23 25  1  0  0  0  0
 22 26  1  0  0  0  0
  2  4  1  0  0  0  0
  8 10  1  0  0  0  0
 22 25  2  0  0  0  0
 18 19  2  0  0  0  0
M  END
> <MOLFORMULA>
C20 H18 F N3 O2

> <MOLWEIGHT>
3.513792000000000e+002

> <IDNUMBER>
AT-687/PE26857

> <PRICE>
EUR 80/10 mg

> <Similarity score>
0.20

$$$$

  -OEChem-04222410502D

 26 29  0     0  0  0  0  0  0999 V2000
    6.0917   -7.3417    0.0000 C   0  0  0  0  0  0  0  0  0  0  0  0
    4.6500   -5.7500    0.0000 N   0  0  3  0  0  0  0  0  0  0  0  0
    5.9500   -6.0250    0.0000 N   0  0  0  0  0  0  0  0  0  0  0  0
    3.9792   -6.9000    0.0000 C   0  0  0  0  0  0  0  0  0  0  0  0
    4.8750   -7.8792    0.0000 C   0  0  0  0  0  0  0  0  0  0  0  0
    7.2292   -8.0167    0.0000 C   0  0  0  0  0  0  0  0  0  0  0  0
    3.9792   -4.6000    0.0000 C   0  0  0  0  0  0  0  0  0  0  0  0
    1.9792   -5.7500    0.0000 O   0  0  0  0  0  0  0  0  0  0  0  0
    8.3917   -7.3417    0.0000 N   0  0  0  0  0  0  0  0  0  0  0  0
    2.6542   -4.6000    0.0000 C   0  0  3  0  0  0  0  0  0  0  0  0
    2.6542   -6.9000    0.0000 C   0  0  0  0  0  0  0  0  0  0  0  0
    1.9792   -3.4417    0.0000 C   0  0  0  0  0  0  0  0  0  0  0  0
    9.5417   -8.0167    0.0000 C   0  0  0  0  0  0  0  0  0  0  0  0
    7.2292   -9.3417    0.0000 O   0  0  0  0  0  0  0  0  0  0  0  0
   10.6750   -7.3417    0.0000 C   0  0  0  0  0  0  0  0  0  0  0  0
    2.6542   -2.3000    0.0000 C   0  0  0  0  0  0  0  0  0  0  0  0
    0.6542   -3.4417    0.0000 C   0  0  0  0  0  0  0  0  0  0  0  0
   11.8417   -8.0167    0.0000 C   0  0  0  0  0  0  0  0  0  0  0  0
    0.6542   -1.1417    0.0000 C   0  0  0  0  0  0  0  0  0  0  0  0
    1.9792   -1.1417    0.0000 C   0  0  0  0  0  0  0  0  0  0  0  0
    0.0000   -2.3000    0.0000 C   0  0  0  0  0  0  0  0  0  0  0  0
   13.0000   -7.3417    0.0000 F   0  0  0  0  0  0  0  0  0  0  0  0
    0.0000   -0.0000    0.0000 F   0  0  0  0  0  0  0  0  0  0  0  0
   10.6750  -10.0000    0.0000 C   0  0  0  0  0  0  0  0  0  0  0  0
    9.5417   -9.3417    0.0000 C   0  0  0  0  0  0  0  0  0  0  0  0
   11.8417   -9.3417    0.0000 C   0  0  0  0  0  0  0  0  0  0  0  0
  2  3  1  0  0  0  0
  1  3  2  0  0  0  0
  4  5  2  0  0  0  0
  1  5  1  0  0  0  0
  1  6  1  0  0  0  0
  2  7  1  0  0  0  0
  8 11  1  0  0  0  0
  6  9  1  0  0  0  0
  7 10  1  0  0  0  0
  4 11  1  0  0  0  0
 10 12  1  0  0  0  0
  9 13  1  0  0  0  0
  6 14  2  0  0  0  0
 13 15  2  0  0  0  0
 12 16  1  0  0  0  0
 12 17  2  0  0  0  0
 15 18  1  0  0  0  0
 19 21  2  0  0  0  0
 16 20  2  0  0  0  0
 17 21  1  0  0  0  0
 18 22  1  0  0  0  0
 19 23  1  0  0  0  0
 24 25  2  0  0  0  0
 13 25  1  0  0  0  0
 24 26  1  0  0  0  0
  2  4  1  0  0  0  0
  8 10  1  0  0  0  0
 18 26  2  0  0  0  0
 19 20  1  0  0  0  0
M  END
> <MOLFORMULA>
C19 H15 F2 N3 O2

> <MOLWEIGHT>
3.553425000000000e+002

> <IDNUMBER>
AT-687/PE26851

> <PRICE>
EUR 80/10 mg

> <Similarity score>
0.20

$$$$

  -OEChem-04222410502D

 27 30  0     0  0  0  0  0  0999 V2000
    6.0917   -7.3500    0.0000 C   0  0  0  0  0  0  0  0  0  0  0  0
    4.6500   -5.7500    0.0000 N   0  0  3  0  0  0  0  0  0  0  0  0
    5.9500   -6.0417    0.0000 N   0  0  0  0  0  0  0  0  0  0  0  0
    3.9792   -6.9042    0.0000 C   0  0  0  0  0  0  0  0  0  0  0  0
    4.8667   -7.9000    0.0000 C   0  0  0  0  0  0  0  0  0  0  0  0
    7.2292   -8.0167    0.0000 C   0  0  0  0  0  0  0  0  0  0  0  0
    3.9792   -4.6042    0.0000 C   0  0  0  0  0  0  0  0  0  0  0  0
    1.9792   -5.7500    0.0000 O   0  0  0  0  0  0  0  0  0  0  0  0
    2.6542   -4.6042    0.0000 C   0  0  3  0  0  0  0  0  0  0  0  0
    8.3917   -7.3500    0.0000 N   0  0  0  0  0  0  0  0  0  0  0  0
    2.6542   -6.9042    0.0000 C   0  0  0  0  0  0  0  0  0  0  0  0
    1.9792   -3.4500    0.0000 C   0  0  0  0  0  0  0  0  0  0  0  0
    7.2292   -9.3500    0.0000 O   0  0  0  0  0  0  0  0  0  0  0  0
    9.5292   -8.0167    0.0000 C   0  0  0  0  0  0  0  0  0  0  0  0
    2.6542   -2.3042    0.0000 C   0  0  0  0  0  0  0  0  0  0  0  0
    0.6542   -3.4500    0.0000 C   0  0  0  0  0  0  0  0  0  0  0  0
    0.6542   -1.1500    0.0000 C   0  0  0  0  0  0  0  0  0  0  0  0
   11.8292   -9.3500    0.0000 C   0  0  0  0  0  0  0  0  0  0  0  0
    1.9792   -1.1500    0.0000 C   0  0  0  0  0  0  0  0  0  0  0  0
    0.0000   -2.3042    0.0000 C   0  0  0  0  0  0  0  0  0  0  0  0
    0.0000   -0.0000    0.0000 F   0  0  0  0  0  0  0  0  0  0  0  0
    9.5292   -9.3500    0.0000 C   0  0  0  0  0  0  0  0  0  0  0  0
   10.6917   -7.3500    0.0000 C   0  0  0  0  0  0  0  0  0  0  0  0
   11.8292   -8.0167    0.0000 C   0  0  0  0  0  0  0  0  0  0  0  0
   10.6917  -10.0167    0.0000 C   0  0  0  0  0  0  0  0  0  0  0  0
   12.9917  -10.0167    0.0000 O   0  0  0  0  0  0  0  0  0  0  0  0
   12.9917  -11.3417    0.0000 C   0  0  0  0  0  0  0  0  0  0  0  0
  2  3  1  0  0  0  0
  1  3  2  0  0  0  0
  4  5  2  0  0  0  0
  1  5  1  0  0  0  0
  1  6  1  0  0  0  0
  2  7  1  0  0  0  0
  8 11  1  0  0  0  0
  7  9  1  0  0  0  0
  6 10  1  0  0  0  0
  4 11  1  0  0  0  0
  9 12  1  0  0  0  0
  6 13  2  0  0  0  0
 10 14  1  0  0  0  0
 12 15  2  0  0  0  0
 12 16  1  0  0  0  0
 17 20  1  0  0  0  0
 18 24  2  0  0  0  0
 15 19  1  0  0  0  0
 16 20  2  0  0  0  0
 17 21  1  0  0  0  0
 14 22  1  0  0  0  0
 14 23  2  0  0  0  0
 23 24  1  0  0  0  0
 22 25  2  0  0  0  0
 18 26  1  0  0  0  0
 26 27  1  0  0  0  0
  2  4  1  0  0  0  0
  8  9  1  0  0  0  0
 18 25  1  0  0  0  0
 17 19  2  0  0  0  0
M  END
> <MOLFORMULA>
C20 H18 F N3 O3

> <MOLWEIGHT>
3.673782000000000e+002

> <IDNUMBER>
AT-687/PE26847

> <PRICE>
EUR 80/10 mg

> <Similarity score>
0.20

$$$$

  -OEChem-04222410502D

 23 25  0     0  0  0  0  0  0999 V2000
    5.8875   -1.0000    0.0000 C   0  0  0  0  0  0  0  0  0  0  0  0
    8.5292   -2.5042    0.0000 N   0  3  0  0  0  0  0  0  0  0  0  0
    3.2917   -5.5042    0.0000 N   0  0  3  0  0  0  0  0  0  0  0  0
    3.2917   -2.5042    0.0000 C   0  0  0  0  0  0  0  0  0  0  0  0
    5.8875    2.0375    0.0000 C   0  0  0  0  0  0  0  0  0  0  0  0
    0.6917   -6.9792    0.0000 C   0  0  0  0  0  0  0  0  0  0  0  0
    3.2917    3.5458    0.0000 C   0  0  0  0  0  0  0  0  0  0  0  0
    3.2750    6.5417    0.0000 C   0  0  0  0  0  0  0  0  0  0  0  0
    0.6917   -1.0000    0.0000 C   0  0  0  0  0  0  0  0  0  0  0  0
    0.6917   -9.9875    0.0000 C   0  0  0  0  0  0  0  0  0  0  0  0
    8.5292   -5.5042    0.0000 O   0  5  0  0  0  0  0  0  0  0  0  0
   11.1250   -0.9667    0.0000 O   0  0  0  0  0  0  0  0  0  0  0  0
    5.8875   -6.9792    0.0000 C   0  0  0  0  0  0  0  0  0  0  0  0
    3.2917  -11.5167    0.0000 C   0  0  0  0  0  0  0  0  0  0  0  0
    0.6917    2.0083    0.0000 C   0  0  0  0  0  0  0  0  0  0  0  0
    0.6792    8.0417    0.0000 O   0  0  0  0  0  0  0  0  0  0  0  0
    5.8875   -9.9875    0.0000 C   0  0  0  0  0  0  0  0  0  0  0  0
    5.8667    8.0417    0.0000 O   0  0  0  0  0  0  0  0  0  0  0  0
   -1.9083  -11.4875    0.0000 C   0  0  0  0  0  0  0  0  0  0  0  0
    3.2917  -14.4917    0.0000 C   0  0  0  0  0  0  0  0  0  0  0  0
    8.4792    6.5417    0.0000 C   0  0  0  0  0  0  0  0  0  0  0  0
   -1.9125  -14.4917    0.0000 C   0  0  0  0  0  0  0  0  0  0  0  0
    0.6917  -16.0000    0.0000 C   0  0  0  0  0  0  0  0  0  0  0  0
  1  2  1  0  0  0  0
  3  4  1  0  0  0  0
  1  4  2  0  0  0  0
  1  5  1  0  0  0  0
  3  6  1  0  0  0  0
  5  7  2  0  0  0  0
  7  8  1  0  0  0  0
  4  9  1  0  0  0  0
  6 10  1  0  0  0  0
  2 11  1  0  0  0  0
  2 12  2  0  0  0  0
  3 13  1  0  0  0  0
 14 17  1  0  0  0  0
  7 15  1  0  0  0  0
  8 16  2  0  0  0  0
 13 17  1  0  0  0  0
  8 18  1  0  0  0  0
 10 19  2  0  0  0  0
 14 20  2  0  0  0  0
 18 21  1  0  0  0  0
 19 22  1  0  0  0  0
 20 23  1  0  0  0  0
  9 15  2  0  0  0  0
 10 14  1  0  0  0  0
 22 23  2  0  0  0  0
M  CHG  2   2   1  11  -1
M  END
> <MOLFORMULA>
C17 H16 N2 O4

> <MOLWEIGHT>
3.123234000000000e+002

> <IDNUMBER>
AM-879/PD12216

> <PRICE>
EUR 55.00/10 mg

> <Similarity score>
0.20

$$$$

  -OEChem-04222410502D

 31 35  0     0  0  0  0  0  0999 V2000
   -1.5458    2.9875    0.0000 C   0  0  0  0  0  0  0  0  0  0  0  0
   -1.5458    3.9875    0.0000 N   0  0  3  0  0  0  0  0  0  0  0  0
   -0.6833    2.4958    0.0000 C   0  0  0  0  0  0  0  0  0  0  0  0
   -2.5083    4.2917    0.0000 N   0  0  0  0  0  0  0  0  0  0  0  0
   -2.5083    2.6833    0.0000 C   0  0  0  0  0  0  0  0  0  0  0  0
   -0.6833    1.4958    0.0000 N   0  0  3  0  0  0  0  0  0  0  0  0
   -3.0958    3.4958    0.0000 C   0  0  0  0  0  0  0  0  0  0  0  0
    0.1792    2.9875    0.0000 N   0  0  0  0  0  0  0  0  0  0  0  0
    0.1750   -0.0042    0.0000 C   0  0  3  0  0  0  0  0  0  0  0  0
    1.0417   -0.5125    0.0000 C   0  0  0  0  0  0  0  0  0  0  0  0
   -0.6833    4.4917    0.0000 C   0  0  0  0  0  0  0  0  0  0  0  0
    0.1792    1.0000    0.0000 C   0  0  0  0  0  0  0  0  0  0  0  0
    3.6167   -2.0125    0.0000 C   0  0  0  0  0  0  0  0  0  0  0  0
    0.1792    3.9875    0.0000 C   0  0  0  0  0  0  0  0  0  0  0  0
    2.7667   -1.5000    0.0000 C   0  0  0  0  0  0  0  0  0  0  0  0
    1.9042   -0.0042    0.0000 N   0  0  0  0  0  0  0  0  0  0  0  0
    3.6125   -3.0042    0.0000 C   0  0  0  0  0  0  0  0  0  0  0  0
    2.7750   -0.5125    0.0000 C   0  0  0  0  0  0  0  0  0  0  0  0
    1.0375   -1.5042    0.0000 O   0  0  0  0  0  0  0  0  0  0  0  0
    1.8917   -1.9875    0.0000 C   0  0  0  0  0  0  0  0  0  0  0  0
    2.7542   -3.5000    0.0000 C   0  0  0  0  0  0  0  0  0  0  0  0
    4.4917   -1.5042    0.0000 F   0  0  0  0  0  0  0  0  0  0  0  0
   -1.5458    1.0000    0.0000 C   0  0  0  0  0  0  0  0  0  0  0  0
   -2.9125    1.7708    0.0000 C   0  0  0  0  0  0  0  0  0  0  0  0
    1.8792   -2.9917    0.0000 C   0  0  0  0  0  0  0  0  0  0  0  0
    2.7292   -4.4917    0.0000 F   0  0  0  0  0  0  0  0  0  0  0  0
   -0.6958   -0.5000    0.0000 C   0  0  0  0  0  0  0  0  0  0  0  0
   -4.0833    3.3833    0.0000 C   0  0  0  0  0  0  0  0  0  0  0  0
   -1.5583   -0.0000    0.0000 C   0  0  0  0  0  0  0  0  0  0  0  0
   -3.9083    1.6708    0.0000 C   0  0  0  0  0  0  0  0  0  0  0  0
   -4.4958    2.4750    0.0000 C   0  0  0  0  0  0  0  0  0  0  0  0
  1  2  1  0  0  0  0
  1  3  1  0  0  0  0
  2  4  1  0  0  0  0
  1  5  2  0  0  0  0
  3  6  1  0  0  0  0
  5  7  1  0  0  0  0
  3  8  2  0  0  0  0
  9 12  1  0  0  0  0
  9 10  1  0  0  0  0
  2 11  1  0  0  0  0
  6 12  1  0  0  0  0
 13 15  2  0  0  0  0
  8 14  1  0  0  0  0
 15 18  1  0  0  0  0
 10 16  1  0  0  0  0
 13 17  1  0  0  0  0
 16 18  1  0  0  0  0
 10 19  2  0  0  0  0
 15 20  1  0  0  0  0
 21 25  1  0  0  0  0
 13 22  1  0  0  0  0
  6 23  1  0  0  0  0
  5 24  1  0  0  0  0
 20 25  2  0  0  0  0
 21 26  1  0  0  0  0
 27 29  1  0  0  0  0
  7 28  1  0  0  0  0
 23 29  1  0  0  0  0
 24 30  1  0  0  0  0
 30 31  1  0  0  0  0
  4  7  2  0  0  0  0
 11 14  2  0  0  0  0
 28 31  1  0  0  0  0
  9 27  1  0  0  0  0
 17 21  2  0  0  0  0
M  END
> <MOLFORMULA>
C23 H25 F2 N5 O

> <MOLWEIGHT>
4.254805000000000e+002

> <IDNUMBER>
AT-687/PE21892

> <PRICE>
EUR 80/10 mg

> <Similarity score>
0.20

$$$$

  -OEChem-04222410502D

 30 34  0     0  0  0  0  0  0999 V2000
    7.9292   -4.7792    0.0000 C   0  0  0  0  0  0  0  0  0  0  0  0
    9.9750   -4.1000    0.0000 N   0  0  3  0  0  0  0  0  0  0  0  0
    8.7250   -3.6750    0.0000 N   0  0  0  0  0  0  0  0  0  0  0  0
    9.9750   -5.4250    0.0000 C   0  0  0  0  0  0  0  0  0  0  0  0
    8.7417   -5.8417    0.0000 C   0  0  0  0  0  0  0  0  0  0  0  0
    6.6042   -4.7792    0.0000 C   0  0  0  0  0  0  0  0  0  0  0  0
   11.1500   -3.4250    0.0000 C   0  0  0  0  0  0  0  0  0  0  0  0
   12.3000   -5.4250    0.0000 O   0  0  0  0  0  0  0  0  0  0  0  0
   12.3000   -4.1000    0.0000 C   0  0  3  0  0  0  0  0  0  0  0  0
    5.9417   -3.6250    0.0000 N   0  0  0  0  0  0  0  0  0  0  0  0
   14.6167   -1.4292    0.0000 C   0  0  0  0  0  0  0  0  0  0  0  0
   13.4500   -3.4250    0.0000 C   0  0  0  0  0  0  0  0  0  0  0  0
    2.6250   -2.5042    0.0000 C   0  0  0  0  0  0  0  0  0  0  0  0
   13.4500   -2.1250    0.0000 C   0  0  0  0  0  0  0  0  0  0  0  0
    3.9500   -2.5042    0.0000 C   0  0  0  0  0  0  0  0  0  0  0  0
   11.1500   -6.0917    0.0000 C   0  0  0  0  0  0  0  0  0  0  0  0
   15.7500   -2.1000    0.0000 C   0  0  0  0  0  0  0  0  0  0  0  0
   14.8792   -0.1500    0.0000 O   0  0  0  0  0  0  0  0  0  0  0  0
    4.6000   -3.6500    0.0000 C   0  0  0  0  0  0  0  0  0  0  0  0
   16.7500   -1.2167    0.0000 O   0  0  0  0  0  0  0  0  0  0  0  0
   16.2042   -0.0000    0.0000 C   0  0  0  0  0  0  0  0  0  0  0  0
    5.9417   -5.9250    0.0000 O   0  0  0  0  0  0  0  0  0  0  0  0
    1.9500   -3.6500    0.0000 C   0  0  0  0  0  0  0  0  0  0  0  0
   14.6000   -4.1167    0.0000 C   0  0  0  0  0  0  0  0  0  0  0  0
   15.7500   -3.4250    0.0000 C   0  0  0  0  0  0  0  0  0  0  0  0
    2.6250   -4.8000    0.0000 C   0  0  0  0  0  0  0  0  0  0  0  0
    1.9500   -1.3500    0.0000 Cl  0  0  0  0  0  0  0  0  0  0  0  0
    3.9500   -4.8000    0.0000 C   0  0  0  0  0  0  0  0  0  0  0  0
    0.6500   -3.6500    0.0000 O   0  0  0  0  0  0  0  0  0  0  0  0
    0.0000   -4.8167    0.0000 C   0  0  0  0  0  0  0  0  0  0  0  0
  2  3  1  0  0  0  0
  1  3  2  0  0  0  0
  4  5  2  0  0  0  0
  1  5  1  0  0  0  0
  1  6  1  0  0  0  0
  2  7  1  0  0  0  0
  8 16  1  0  0  0  0
  7  9  1  0  0  0  0
  6 10  1  0  0  0  0
 11 14  1  0  0  0  0
  9 12  1  0  0  0  0
 13 15  1  0  0  0  0
 12 14  2  0  0  0  0
 15 19  2  0  0  0  0
  4 16  1  0  0  0  0
 17 25  1  0  0  0  0
 11 18  1  0  0  0  0
 10 19  1  0  0  0  0
 17 20  1  0  0  0  0
 18 21  1  0  0  0  0
  6 22  2  0  0  0  0
 23 26  1  0  0  0  0
 12 24  1  0  0  0  0
 24 25  2  0  0  0  0
 26 28  2  0  0  0  0
 13 27  1  0  0  0  0
 19 28  1  0  0  0  0
 23 29  1  0  0  0  0
 29 30  1  0  0  0  0
  2  4  1  0  0  0  0
  8  9  1  0  0  0  0
 13 23  2  0  0  0  0
 11 17  2  0  0  0  0
 20 21  1  0  0  0  0
M  END
> <MOLFORMULA>
C21 H18 Cl N3 O5

> <MOLWEIGHT>
4.278422000000000e+002

> <IDNUMBER>
AT-687/PE21253

> <PRICE>
EUR 80/10 mg

> <Similarity score>
0.20

$$$$

  -OEChem-04222410502D

 26 29  0     0  0  0  0  0  0999 V2000
    6.1000   -7.3667    0.0000 C   0  0  0  0  0  0  0  0  0  0  0  0
    4.6500   -5.7500    0.0000 N   0  0  3  0  0  0  0  0  0  0  0  0
    5.9500   -6.0417    0.0000 N   0  0  0  0  0  0  0  0  0  0  0  0
    3.9792   -6.9000    0.0000 C   0  0  0  0  0  0  0  0  0  0  0  0
    4.8917   -7.9000    0.0000 C   0  0  0  0  0  0  0  0  0  0  0  0
    7.2417   -8.0250    0.0000 C   0  0  0  0  0  0  0  0  0  0  0  0
    3.9792   -4.6000    0.0000 C   0  0  0  0  0  0  0  0  0  0  0  0
    8.3917   -7.3667    0.0000 N   0  0  0  0  0  0  0  0  0  0  0  0
    1.9917   -5.7500    0.0000 O   0  0  0  0  0  0  0  0  0  0  0  0
    2.6500   -4.6000    0.0000 C   0  0  3  0  0  0  0  0  0  0  0  0
    9.5500   -8.0250    0.0000 C   0  0  0  0  0  0  0  0  0  0  0  0
    2.6500   -6.9000    0.0000 C   0  0  0  0  0  0  0  0  0  0  0  0
    1.9917   -3.4417    0.0000 C   0  0  0  0  0  0  0  0  0  0  0  0
    7.2417   -9.3500    0.0000 O   0  0  0  0  0  0  0  0  0  0  0  0
    9.5500   -9.3500    0.0000 C   0  0  0  0  0  0  0  0  0  0  0  0
    2.6500   -2.2792    0.0000 C   0  0  0  0  0  0  0  0  0  0  0  0
    0.6542   -3.4417    0.0000 C   0  0  0  0  0  0  0  0  0  0  0  0
    0.6542   -1.1500    0.0000 C   0  0  0  0  0  0  0  0  0  0  0  0
    8.4000  -10.0167    0.0000 Cl  0  0  0  0  0  0  0  0  0  0  0  0
    1.9917   -1.1500    0.0000 C   0  0  0  0  0  0  0  0  0  0  0  0
    0.0000   -2.2792    0.0000 C   0  0  0  0  0  0  0  0  0  0  0  0
    0.0000   -0.0000    0.0000 F   0  0  0  0  0  0  0  0  0  0  0  0
   10.7000   -7.3667    0.0000 C   0  0  0  0  0  0  0  0  0  0  0  0
   10.7000  -10.0167    0.0000 C   0  0  0  0  0  0  0  0  0  0  0  0
   11.8667   -8.0250    0.0000 C   0  0  0  0  0  0  0  0  0  0  0  0
   11.8667   -9.3500    0.0000 C   0  0  0  0  0  0  0  0  0  0  0  0
  2  3  1  0  0  0  0
  1  3  2  0  0  0  0
  4  5  2  0  0  0  0
  1  5  1  0  0  0  0
  1  6  1  0  0  0  0
  2  7  1  0  0  0  0
  6  8  1  0  0  0  0
  9 12  1  0  0  0  0
  7 10  1  0  0  0  0
  8 11  1  0  0  0  0
  4 12  1  0  0  0  0
 10 13  1  0  0  0  0
  6 14  2  0  0  0  0
 11 15  2  0  0  0  0
 13 16  1  0  0  0  0
 13 17  2  0  0  0  0
 18 21  2  0  0  0  0
 15 19  1  0  0  0  0
 16 20  2  0  0  0  0
 17 21  1  0  0  0  0
 18 22  1  0  0  0  0
 11 23  1  0  0  0  0
 15 24  1  0  0  0  0
 23 25  2  0  0  0  0
 25 26  1  0  0  0  0
  2  4  1  0  0  0  0
  9 10  1  0  0  0  0
 24 26  2  0  0  0  0
 18 20  1  0  0  0  0
M  END
> <MOLFORMULA>
C19 H15 Cl F N3 O2

> <MOLWEIGHT>
3.717975000000000e+002

> <IDNUMBER>
AT-687/PE26862

> <PRICE>
EUR 80/10 mg

> <Similarity score>
0.20

$$$$

  -OEChem-04222410502D

 28 31  0     0  0  0  0  0  0999 V2000
    9.3417   -2.6292    0.0000 N   0  0  3  0  0  0  0  0  0  0  0  0
    7.2917   -3.3167    0.0000 C   0  0  0  0  0  0  0  0  0  0  0  0
    8.0750   -2.2417    0.0000 N   0  0  0  0  0  0  0  0  0  0  0  0
    9.3500   -3.9667    0.0000 C   0  0  0  0  0  0  0  0  0  0  0  0
    8.0792   -4.4000    0.0000 C   0  0  0  0  0  0  0  0  0  0  0  0
    5.9500   -3.3292    0.0000 C   0  0  0  0  0  0  0  0  0  0  0  0
   10.5167   -1.9500    0.0000 C   0  0  0  0  0  0  0  0  0  0  0  0
   11.6500   -3.9667    0.0000 O   0  0  0  0  0  0  0  0  0  0  0  0
   11.6500   -2.6292    0.0000 C   0  0  3  0  0  0  0  0  0  0  0  0
    5.3000   -4.4917    0.0000 N   0  0  0  0  0  0  0  0  0  0  0  0
   10.5167   -4.6292    0.0000 C   0  0  0  0  0  0  0  0  0  0  0  0
    3.3000   -3.3667    0.0000 C   0  0  0  0  0  0  0  0  0  0  0  0
   12.8042   -1.9750    0.0000 C   0  0  0  0  0  0  0  0  0  0  0  0
    3.9792   -4.4917    0.0000 C   0  0  0  0  0  0  0  0  0  0  0  0
    5.3000   -2.1750    0.0000 O   0  0  0  0  0  0  0  0  0  0  0  0
    1.9750   -3.3500    0.0000 C   0  0  0  0  0  0  0  0  0  0  0  0
   13.9667   -2.6500    0.0000 C   0  0  0  0  0  0  0  0  0  0  0  0
   12.8042   -0.6667    0.0000 C   0  0  0  0  0  0  0  0  0  0  0  0
   15.1167   -0.6667    0.0000 C   0  0  0  0  0  0  0  0  0  0  0  0
   13.9667   -0.0000    0.0000 C   0  0  0  0  0  0  0  0  0  0  0  0
   15.1000   -1.9750    0.0000 C   0  0  0  0  0  0  0  0  0  0  0  0
   16.2750   -0.0042    0.0000 Cl  0  0  0  0  0  0  0  0  0  0  0  0
    1.3167   -4.5250    0.0000 O   0  0  0  0  0  0  0  0  0  0  0  0
    4.0000   -2.2042    0.0000 C   0  0  0  0  0  0  0  0  0  0  0  0
    1.3250   -2.2042    0.0000 C   0  0  0  0  0  0  0  0  0  0  0  0
    0.0000   -4.5000    0.0000 C   0  0  0  0  0  0  0  0  0  0  0  0
    3.3167   -1.0667    0.0000 C   0  0  0  0  0  0  0  0  0  0  0  0
    1.9750   -1.0667    0.0000 C   0  0  0  0  0  0  0  0  0  0  0  0
  2  3  2  0  0  0  0
  1  3  1  0  0  0  0
  1  4  1  0  0  0  0
  4  5  2  0  0  0  0
  2  6  1  0  0  0  0
  1  7  1  0  0  0  0
  8  9  1  0  0  0  0
  7  9  1  0  0  0  0
  6 10  1  0  0  0  0
  4 11  1  0  0  0  0
 12 14  1  0  0  0  0
  9 13  1  0  0  0  0
 10 14  1  0  0  0  0
  6 15  2  0  0  0  0
 12 16  2  0  0  0  0
 13 17  2  0  0  0  0
 13 18  1  0  0  0  0
 19 20  1  0  0  0  0
 18 20  2  0  0  0  0
 17 21  1  0  0  0  0
 19 22  1  0  0  0  0
 16 23  1  0  0  0  0
 12 24  1  0  0  0  0
 16 25  1  0  0  0  0
 23 26  1  0  0  0  0
 24 27  2  0  0  0  0
 27 28  1  0  0  0  0
  8 11  1  0  0  0  0
  2  5  1  0  0  0  0
 19 21  2  0  0  0  0
 25 28  2  0  0  0  0
M  END
> <MOLFORMULA>
C21 H20 Cl N3 O3

> <MOLWEIGHT>
3.978600000000000e+002

> <IDNUMBER>
AT-687/PE21270

> <PRICE>
EUR 80/10 mg

> <Similarity score>
0.20

$$$$

  -OEChem-04222410502D

 25 28  0     0  0  0  0  0  0999 V2000
    6.1000   -7.3667    0.0000 C   0  0  0  0  0  0  0  0  0  0  0  0
    4.6500   -5.7500    0.0000 N   0  0  3  0  0  0  0  0  0  0  0  0
    5.9500   -6.0417    0.0000 N   0  0  0  0  0  0  0  0  0  0  0  0
    3.9792   -6.9000    0.0000 C   0  0  0  0  0  0  0  0  0  0  0  0
    4.8917   -7.9000    0.0000 C   0  0  0  0  0  0  0  0  0  0  0  0
    7.2417   -8.0250    0.0000 C   0  0  0  0  0  0  0  0  0  0  0  0
    3.9792   -4.6000    0.0000 C   0  0  0  0  0  0  0  0  0  0  0  0
    1.9917   -5.7500    0.0000 O   0  0  0  0  0  0  0  0  0  0  0  0
    2.6500   -4.6000    0.0000 C   0  0  3  0  0  0  0  0  0  0  0  0
    8.3917   -7.3667    0.0000 N   0  0  0  0  0  0  0  0  0  0  0  0
    2.6500   -6.9000    0.0000 C   0  0  0  0  0  0  0  0  0  0  0  0
    1.9917   -3.4417    0.0000 C   0  0  0  0  0  0  0  0  0  0  0  0
    7.2417   -9.3500    0.0000 O   0  0  0  0  0  0  0  0  0  0  0  0
    2.6500   -2.2792    0.0000 C   0  0  0  0  0  0  0  0  0  0  0  0
    0.6542   -3.4417    0.0000 C   0  0  0  0  0  0  0  0  0  0  0  0
    9.5500   -8.0250    0.0000 C   0  0  0  0  0  0  0  0  0  0  0  0
    0.6542   -1.1500    0.0000 C   0  0  0  0  0  0  0  0  0  0  0  0
    1.9917   -1.1500    0.0000 C   0  0  0  0  0  0  0  0  0  0  0  0
    0.0000   -2.2792    0.0000 C   0  0  0  0  0  0  0  0  0  0  0  0
    0.0000   -0.0000    0.0000 F   0  0  0  0  0  0  0  0  0  0  0  0
   10.7000   -7.3667    0.0000 C   0  0  0  0  0  0  0  0  0  0  0  0
    9.5500   -9.3500    0.0000 C   0  0  0  0  0  0  0  0  0  0  0  0
   10.7000  -10.0167    0.0000 C   0  0  0  0  0  0  0  0  0  0  0  0
   11.8667   -8.0250    0.0000 C   0  0  0  0  0  0  0  0  0  0  0  0
   11.8667   -9.3500    0.0000 C   0  0  0  0  0  0  0  0  0  0  0  0
  2  3  1  0  0  0  0
  1  3  2  0  0  0  0
  4  5  2  0  0  0  0
  1  5  1  0  0  0  0
  1  6  1  0  0  0  0
  2  7  1  0  0  0  0
  8 11  1  0  0  0  0
  7  9  1  0  0  0  0
  6 10  1  0  0  0  0
  4 11  1  0  0  0  0
  9 12  1  0  0  0  0
  6 13  2  0  0  0  0
 12 14  1  0  0  0  0
 12 15  2  0  0  0  0
 10 16  1  0  0  0  0
 17 19  2  0  0  0  0
 14 18  2  0  0  0  0
 15 19  1  0  0  0  0
 17 20  1  0  0  0  0
 16 21  1  0  0  0  0
 16 22  2  0  0  0  0
 22 23  1  0  0  0  0
 21 24  2  0  0  0  0
 23 25  2  0  0  0  0
  2  4  1  0  0  0  0
  8  9  1  0  0  0  0
 24 25  1  0  0  0  0
 17 18  1  0  0  0  0
M  END
> <MOLFORMULA>
C19 H16 F N3 O2

> <MOLWEIGHT>
3.373524000000000e+002

> <IDNUMBER>
AT-687/PE26854

> <PRICE>
EUR 80/10 mg

> <Similarity score>
0.20

$$$$

  -OEChem-04222410502D

 31 35  0     0  0  0  0  0  0999 V2000
    7.2917   -4.7667    0.0000 C   0  0  0  0  0  0  0  0  0  0  0  0
    9.3417   -4.0667    0.0000 N   0  0  3  0  0  0  0  0  0  0  0  0
    8.0667   -3.6792    0.0000 N   0  0  0  0  0  0  0  0  0  0  0  0
    9.3500   -5.4000    0.0000 C   0  0  0  0  0  0  0  0  0  0  0  0
    8.0750   -5.8417    0.0000 C   0  0  0  0  0  0  0  0  0  0  0  0
    5.9500   -4.7750    0.0000 C   0  0  0  0  0  0  0  0  0  0  0  0
    5.2917   -3.6167    0.0000 N   0  0  0  0  0  0  0  0  0  0  0  0
   10.5000   -3.4042    0.0000 C   0  0  0  0  0  0  0  0  0  0  0  0
    3.9542   -3.6292    0.0000 C   0  0  0  0  0  0  0  0  0  0  0  0
   11.6500   -5.4000    0.0000 O   0  0  0  0  0  0  0  0  0  0  0  0
   11.6500   -4.0667    0.0000 C   0  0  3  0  0  0  0  0  0  0  0  0
   13.9542   -1.4250    0.0000 C   0  0  0  0  0  0  0  0  0  0  0  0
   12.8000   -3.4250    0.0000 C   0  0  0  0  0  0  0  0  0  0  0  0
   12.8000   -2.1000    0.0000 C   0  0  0  0  0  0  0  0  0  0  0  0
    3.3000   -2.4917    0.0000 C   0  0  0  0  0  0  0  0  0  0  0  0
   10.5000   -6.0792    0.0000 C   0  0  0  0  0  0  0  0  0  0  0  0
   15.1250   -2.0917    0.0000 C   0  0  0  0  0  0  0  0  0  0  0  0
   14.2500   -0.1250    0.0000 O   0  0  0  0  0  0  0  0  0  0  0  0
   16.1000   -1.2000    0.0000 O   0  0  0  0  0  0  0  0  0  0  0  0
    3.3000   -4.8000    0.0000 C   0  0  0  0  0  0  0  0  0  0  0  0
   15.5750   -0.0000    0.0000 C   0  0  0  0  0  0  0  0  0  0  0  0
    5.3042   -5.9250    0.0000 O   0  0  0  0  0  0  0  0  0  0  0  0
   13.9542   -4.1000    0.0000 C   0  0  0  0  0  0  0  0  0  0  0  0
   15.1250   -3.4250    0.0000 C   0  0  0  0  0  0  0  0  0  0  0  0
    1.9917   -4.8000    0.0000 C   0  0  0  0  0  0  0  0  0  0  0  0
    1.9750   -2.4917    0.0000 C   0  0  0  0  0  0  0  0  0  0  0  0
    1.3000   -3.6500    0.0000 C   0  0  0  0  0  0  0  0  0  0  0  0
    3.9542   -5.9417    0.0000 O   0  0  0  0  0  0  0  0  0  0  0  0
    1.3000   -1.3500    0.0000 O   0  0  0  0  0  0  0  0  0  0  0  0
    3.3000   -7.0750    0.0000 C   0  0  0  0  0  0  0  0  0  0  0  0
    0.0000   -1.3500    0.0000 C   0  0  0  0  0  0  0  0  0  0  0  0
  2  3  1  0  0  0  0
  1  3  2  0  0  0  0
  4  5  2  0  0  0  0
  1  5  1  0  0  0  0
  1  6  1  0  0  0  0
  6  7  1  0  0  0  0
  2  8  1  0  0  0  0
  7  9  1  0  0  0  0
 10 16  1  0  0  0  0
  8 11  1  0  0  0  0
 12 14  1  0  0  0  0
 11 13  1  0  0  0  0
 13 14  2  0  0  0  0
  9 15  2  0  0  0  0
  4 16  1  0  0  0  0
 17 24  1  0  0  0  0
 12 18  1  0  0  0  0
 17 19  1  0  0  0  0
  9 20  1  0  0  0  0
 18 21  1  0  0  0  0
  6 22  2  0  0  0  0
 13 23  1  0  0  0  0
 23 24  2  0  0  0  0
 20 25  2  0  0  0  0
 15 26  1  0  0  0  0
 25 27  1  0  0  0  0
 20 28  1  0  0  0  0
 26 29  1  0  0  0  0
 28 30  1  0  0  0  0
 29 31  1  0  0  0  0
  2  4  1  0  0  0  0
 10 11  1  0  0  0  0
 26 27  2  0  0  0  0
 12 17  2  0  0  0  0
 19 21  1  0  0  0  0
M  END
> <MOLFORMULA>
C22 H21 N3 O6

> <MOLWEIGHT>
4.234229000000000e+002

> <IDNUMBER>
AT-687/PE21240

> <PRICE>
EUR 80/10 mg

> <Similarity score>
0.20

$$$$

  -OEChem-04222410502D

 31 34  0     0  0  0  0  0  0999 V2000
    8.9500   -4.6000    0.0000 C   0  0  0  0  0  0  0  0  0  0  0  0
    6.9000   -5.2542    0.0000 N   0  0  3  0  0  0  0  0  0  0  0  0
    8.1750   -5.6667    0.0000 N   0  0  0  0  0  0  0  0  0  0  0  0
    6.9000   -3.9250    0.0000 C   0  0  0  0  0  0  0  0  0  0  0  0
    8.1750   -3.5167    0.0000 C   0  0  0  0  0  0  0  0  0  0  0  0
   10.2667   -4.6000    0.0000 C   0  0  0  0  0  0  0  0  0  0  0  0
   10.9500   -3.4500    0.0000 N   0  0  0  0  0  0  0  0  0  0  0  0
    5.7500   -5.9167    0.0000 C   0  0  0  0  0  0  0  0  0  0  0  0
   12.2667   -3.4500    0.0000 C   0  0  0  0  0  0  0  0  0  0  0  0
    4.6000   -3.9250    0.0000 O   0  0  0  0  0  0  0  0  0  0  0  0
    4.6000   -5.2542    0.0000 C   0  0  3  0  0  0  0  0  0  0  0  0
   12.9250   -4.6000    0.0000 C   0  0  0  0  0  0  0  0  0  0  0  0
    5.7500   -3.2667    0.0000 C   0  0  0  0  0  0  0  0  0  0  0  0
   12.9250   -2.2750    0.0000 C   0  0  0  0  0  0  0  0  0  0  0  0
    3.4500   -5.9167    0.0000 C   0  0  0  0  0  0  0  0  0  0  0  0
   10.9500   -5.7292    0.0000 O   0  0  0  0  0  0  0  0  0  0  0  0
   14.2667   -2.2750    0.0000 C   0  0  0  0  0  0  0  0  0  0  0  0
    2.2750   -5.2542    0.0000 C   0  0  0  0  0  0  0  0  0  0  0  0
    3.4500   -7.2500    0.0000 C   0  0  0  0  0  0  0  0  0  0  0  0
   14.2667   -4.6000    0.0000 C   0  0  0  0  0  0  0  0  0  0  0  0
    1.1250   -7.2500    0.0000 C   0  0  0  0  0  0  0  0  0  0  0  0
   14.9250   -3.4500    0.0000 C   0  0  0  0  0  0  0  0  0  0  0  0
    2.2750   -7.9167    0.0000 C   0  0  0  0  0  0  0  0  0  0  0  0
    1.1250   -5.9167    0.0000 C   0  0  0  0  0  0  0  0  0  0  0  0
    0.0000   -7.9167    0.0000 Cl  0  0  0  0  0  0  0  0  0  0  0  0
   12.2667   -1.1250    0.0000 O   0  0  0  0  0  0  0  0  0  0  0  0
   14.9250   -5.7292    0.0000 O   0  0  0  0  0  0  0  0  0  0  0  0
   10.9500   -1.1250    0.0000 C   0  0  0  0  0  0  0  0  0  0  0  0
   16.2542   -5.7292    0.0000 C   0  0  0  0  0  0  0  0  0  0  0  0
   16.9250   -6.9000    0.0000 C   0  0  0  0  0  0  0  0  0  0  0  0
   10.2667   -0.0000    0.0000 C   0  0  0  0  0  0  0  0  0  0  0  0
  2  3  1  0  0  0  0
  1  3  2  0  0  0  0
  4  5  2  0  0  0  0
  1  5  1  0  0  0  0
  1  6  1  0  0  0  0
  6  7  1  0  0  0  0
  2  8  1  0  0  0  0
  7  9  1  0  0  0  0
 10 13  1  0  0  0  0
  8 11  1  0  0  0  0
  9 12  2  0  0  0  0
  4 13  1  0  0  0  0
  9 14  1  0  0  0  0
 11 15  1  0  0  0  0
  6 16  2  0  0  0  0
 14 17  2  0  0  0  0
 15 18  1  0  0  0  0
 15 19  2  0  0  0  0
 12 20  1  0  0  0  0
 21 23  2  0  0  0  0
 17 22  1  0  0  0  0
 19 23  1  0  0  0  0
 18 24  2  0  0  0  0
 21 25  1  0  0  0  0
 14 26  1  0  0  0  0
 20 27  1  0  0  0  0
 26 28  1  0  0  0  0
 27 29  1  0  0  0  0
 29 30  1  0  0  0  0
 28 31  1  0  0  0  0
  2  4  1  0  0  0  0
 10 11  1  0  0  0  0
 20 22  2  0  0  0  0
 21 24  1  0  0  0  0
M  END
> <MOLFORMULA>
C23 H24 Cl N3 O4

> <MOLWEIGHT>
4.419126000000000e+002

> <IDNUMBER>
AT-687/PE21204

> <PRICE>
EUR 80/10 mg

> <Similarity score>
0.20

$$$$

  -OEChem-04222410502D

 30 33  0     0  0  0  0  0  0999 V2000
    8.0542   -5.9417    0.0000 C   0  0  0  0  0  0  0  0  0  0  0  0
    6.9167   -6.6000    0.0000 N   0  0  0  0  0  0  0  0  0  0  0  0
    8.0500   -4.6292    0.0000 N   0  0  3  0  0  0  0  0  0  0  0  0
    9.2250   -6.6000    0.0000 N   0  0  0  0  0  0  0  0  0  0  0  0
    6.9167   -7.9417    0.0000 C   0  0  0  0  0  0  0  0  0  0  0  0
    6.9000   -3.9667    0.0000 C   0  0  0  0  0  0  0  0  0  0  0  0
    2.2917   -7.9417    0.0000 N   0  0  0  0  0  0  0  0  0  0  0  0
    2.2917   -6.6000    0.0000 C   0  0  0  0  0  0  0  0  0  0  0  0
    8.0542   -8.6042    0.0000 C   0  0  0  0  0  0  0  0  0  0  0  0
    1.1292   -5.9667    0.0000 C   0  0  0  0  0  0  0  0  0  0  0  0
    3.4500   -8.6042    0.0000 C   0  0  0  0  0  0  0  0  0  0  0  0
    6.9000   -2.6500    0.0000 C   0  0  0  0  0  0  0  0  0  0  0  0
    9.2250   -7.9417    0.0000 C   0  0  0  0  0  0  0  0  0  0  0  0
    9.2000   -3.9667    0.0000 C   0  0  0  0  0  0  0  0  0  0  0  0
    8.0417   -1.9667    0.0000 C   0  0  0  0  0  0  0  0  0  0  0  0
    1.1292   -4.6292    0.0000 C   0  0  0  0  0  0  0  0  0  0  0  0
    5.7417   -8.6042    0.0000 O   0  0  0  0  0  0  0  0  0  0  0  0
    3.4500   -9.9500    0.0000 O   0  0  0  0  0  0  0  0  0  0  0  0
    9.1917   -2.6250    0.0000 C   0  0  0  0  0  0  0  0  0  0  0  0
    3.4500   -5.9667    0.0000 C   0  0  0  0  0  0  0  0  0  0  0  0
    4.6000   -7.9417    0.0000 C   0  0  0  0  0  0  0  0  0  0  0  0
    0.0000   -6.6250    0.0000 Cl  0  0  0  0  0  0  0  0  0  0  0  0
    2.2917   -3.9500    0.0000 C   0  0  0  0  0  0  0  0  0  0  0  0
    3.4500   -4.6292    0.0000 C   0  0  0  0  0  0  0  0  0  0  0  0
    5.7417   -2.0000    0.0000 C   0  0  0  0  0  0  0  0  0  0  0  0
   10.3750   -8.6042    0.0000 C   0  0  0  0  0  0  0  0  0  0  0  0
    8.0167   -0.6417    0.0000 C   0  0  0  0  0  0  0  0  0  0  0  0
    2.2917   -2.6250    0.0000 C   0  0  0  0  0  0  0  0  0  0  0  0
    5.7250   -0.6750    0.0000 C   0  0  0  0  0  0  0  0  0  0  0  0
    6.8667   -0.0000    0.0000 C   0  0  0  0  0  0  0  0  0  0  0  0
  1  2  2  0  0  0  0
  1  3  1  0  0  0  0
  1  4  1  0  0  0  0
  2  5  1  0  0  0  0
  3  6  1  0  0  0  0
  7 11  1  0  0  0  0
  7  8  1  0  0  0  0
  9 13  1  0  0  0  0
  8 10  2  0  0  0  0
 11 21  1  0  0  0  0
  6 12  1  0  0  0  0
  4 13  2  0  0  0  0
  3 14  1  0  0  0  0
 15 19  1  0  0  0  0
 10 16  1  0  0  0  0
  5 17  1  0  0  0  0
 11 18  2  0  0  0  0
 14 19  1  0  0  0  0
  8 20  1  0  0  0  0
 17 21  1  0  0  0  0
 10 22  1  0  0  0  0
 23 24  1  0  0  0  0
 20 24  2  0  0  0  0
 12 25  1  0  0  0  0
 13 26  1  0  0  0  0
 15 27  1  0  0  0  0
 23 28  1  0  0  0  0
 25 29  2  0  0  0  0
 27 30  2  0  0  0  0
  5  9  2  0  0  0  0
 12 15  2  0  0  0  0
 29 30  1  0  0  0  0
 16 23  2  0  0  0  0
M  END
> <MOLFORMULA>
C23 H23 Cl N4 O2

> <MOLWEIGHT>
4.229137000000000e+002

> <IDNUMBER>
AT-687/PE16675

> <PRICE>
EUR 80/10 mg

> <Similarity score>
0.20

$$$$

  -OEChem-04222410502D

 27 30  0     0  0  0  0  0  0999 V2000
    5.2667   -5.8167    0.0000 C   0  0  0  0  0  0  0  0  0  0  0  0
    6.0250   -4.7417    0.0000 N   0  0  0  0  0  0  0  0  0  0  0  0
    7.2750   -5.1667    0.0000 N   0  0  3  0  0  0  0  0  0  0  0  0
    7.2750   -6.4917    0.0000 C   0  0  0  0  0  0  0  0  0  0  0  0
    6.0250   -6.9000    0.0000 C   0  0  0  0  0  0  0  0  0  0  0  0
    3.9250   -5.7917    0.0000 C   0  0  0  0  0  0  0  0  0  0  0  0
    3.2750   -4.6417    0.0000 N   0  0  3  0  0  0  0  0  0  0  0  0
    8.4292   -4.5000    0.0000 C   0  0  0  0  0  0  0  0  0  0  0  0
    1.9667   -2.3250    0.0000 N   0  0  3  0  0  0  0  0  0  0  0  0
    9.5792   -6.4917    0.0000 O   0  0  0  0  0  0  0  0  0  0  0  0
    9.5792   -5.1667    0.0000 C   0  0  3  0  0  0  0  0  0  0  0  0
    8.4292   -7.1500    0.0000 C   0  0  0  0  0  0  0  0  0  0  0  0
   10.7292   -4.5000    0.0000 C   0  0  0  0  0  0  0  0  0  0  0  0
    3.2500   -6.9417    0.0000 O   0  0  0  0  0  0  0  0  0  0  0  0
    1.9500   -4.6417    0.0000 C   0  0  0  0  0  0  0  0  0  0  0  0
    3.9542   -3.4917    0.0000 C   0  0  0  0  0  0  0  0  0  0  0  0
    3.3000   -2.3417    0.0000 C   0  0  0  0  0  0  0  0  0  0  0  0
    1.2917   -3.5000    0.0000 C   0  0  0  0  0  0  0  0  0  0  0  0
   10.7292   -3.1750    0.0000 C   0  0  0  0  0  0  0  0  0  0  0  0
   11.8792   -5.1667    0.0000 C   0  0  0  0  0  0  0  0  0  0  0  0
    1.3250   -1.1500    0.0000 C   0  0  3  0  0  0  0  0  0  0  0  0
   13.0292   -3.1750    0.0000 C   0  0  0  0  0  0  0  0  0  0  0  0
   11.8792   -2.5042    0.0000 C   0  0  0  0  0  0  0  0  0  0  0  0
   13.0292   -4.5000    0.0000 C   0  0  0  0  0  0  0  0  0  0  0  0
   14.2000   -2.5042    0.0000 Br  0  0  0  0  0  0  0  0  0  0  0  0
    0.0000   -1.1000    0.0000 C   0  0  0  0  0  0  0  0  0  0  0  0
    2.0250   -0.0000    0.0000 C   0  0  0  0  0  0  0  0  0  0  0  0
  1  2  2  0  0  0  0
  2  3  1  0  0  0  0
  4  5  2  0  0  0  0
  1  5  1  0  0  0  0
  1  6  1  0  0  0  0
  6  7  1  0  0  0  0
  3  8  1  0  0  0  0
  9 17  1  0  0  0  0
 10 12  1  0  0  0  0
  8 11  1  0  0  0  0
  4 12  1  0  0  0  0
 11 13  1  0  0  0  0
  6 14  2  0  0  0  0
  7 15  1  0  0  0  0
  7 16  1  0  0  0  0
 16 17  1  0  0  0  0
 15 18  1  0  0  0  0
 13 19  2  0  0  0  0
 13 20  1  0  0  0  0
  9 21  1  0  0  0  0
 22 24  1  0  0  0  0
 19 23  1  0  0  0  0
 20 24  2  0  0  0  0
 22 25  1  0  0  0  0
 21 26  1  0  0  0  0
 21 27  1  0  0  0  0
  3  4  1  0  0  0  0
  9 18  1  0  0  0  0
 10 11  1  0  0  0  0
 22 23  2  0  0  0  0
M  END
> <MOLFORMULA>
C20 H25 Br N4 O2

> <MOLWEIGHT>
4.333475000000000e+002

> <IDNUMBER>
AT-687/PE21180

> <PRICE>
EUR 80/10 mg

> <Similarity score>
0.20

$$$$

  -OEChem-04222410502D

 23 26  0     0  0  0  0  0  0999 V2000
   -0.3625   -0.3417    0.0000 C   0  0  0  0  0  0  0  0  0  0  0  0
    1.1417    0.5333    0.0000 N   0  0  3  0  0  0  0  0  0  0  0  0
   -1.3708   -0.3417    0.0000 C   0  0  0  0  0  0  0  0  0  0  0  0
   -0.3625   -2.0917    0.0000 C   0  0  0  0  0  0  0  0  0  0  0  0
    0.1417   -1.2167    0.0000 C   0  0  0  0  0  0  0  0  0  0  0  0
   -1.3708   -2.0917    0.0000 O   0  0  0  0  0  0  0  0  0  0  0  0
   -1.8708   -1.2167    0.0000 C   0  0  0  0  0  0  0  0  0  0  0  0
    0.1292    0.5333    0.0000 C   0  0  0  0  0  0  0  0  0  0  0  0
    1.7167    1.3458    0.0000 C   0  0  0  0  0  0  0  0  0  0  0  0
    1.7167   -0.2792    0.0000 C   0  0  0  0  0  0  0  0  0  0  0  0
   -1.8708    0.5375    0.0000 C   0  0  0  0  0  0  0  0  0  0  0  0
    2.6542    1.0500    0.0000 C   0  0  0  0  0  0  0  0  0  0  0  0
    0.1417   -2.9542    0.0000 O   0  0  0  0  0  0  0  0  0  0  0  0
   -2.8833   -1.2167    0.0000 C   0  0  0  0  0  0  0  0  0  0  0  0
    2.6542    0.0458    0.0000 C   0  0  0  0  0  0  0  0  0  0  0  0
   -2.8750    0.5250    0.0000 C   0  0  0  0  0  0  0  0  0  0  0  0
   -3.3833   -0.3542    0.0000 C   0  0  0  0  0  0  0  0  0  0  0  0
   -3.3750    1.3875    0.0000 O   0  0  0  0  0  0  0  0  0  0  0  0
    1.4917    2.2875    0.0000 C   0  0  0  0  0  0  0  0  0  0  0  0
    3.3792    1.6958    0.0000 C   0  0  0  0  0  0  0  0  0  0  0  0
   -2.8750    2.2583    0.0000 C   0  0  0  0  0  0  0  0  0  0  0  0
    2.2417    2.9625    0.0000 C   0  0  0  0  0  0  0  0  0  0  0  0
    3.1667    2.6708    0.0000 C   0  0  0  0  0  0  0  0  0  0  0  0
  2  8  1  0  0  0  0
  1  3  1  0  0  0  0
  4  5  1  0  0  0  0
  1  5  2  0  0  0  0
  4  6  1  0  0  0  0
  3  7  1  0  0  0  0
  1  8  1  0  0  0  0
  2  9  1  0  0  0  0
  2 10  1  0  0  0  0
  3 11  2  0  0  0  0
  9 12  2  0  0  0  0
  4 13  2  0  0  0  0
  7 14  2  0  0  0  0
 10 15  1  0  0  0  0
 11 16  1  0  0  0  0
 16 17  2  0  0  0  0
 16 18  1  0  0  0  0
  9 19  1  0  0  0  0
 12 20  1  0  0  0  0
 18 21  1  0  0  0  0
 19 22  2  0  0  0  0
 22 23  1  0  0  0  0
  6  7  1  0  0  0  0
 12 15  1  0  0  0  0
 14 17  1  0  0  0  0
 20 23  2  0  0  0  0
M  END
> <MOLFORMULA>
C19 H17 N O3

> <MOLWEIGHT>
3.073473000000000e+002

> <IDNUMBER>
AT-057/J151066

> <PRICE>
EUR 42.31/10 mg

> <Similarity score>
0.20

$$$$

  -OEChem-04222410502D

 30 34  0     0  0  0  0  0  0999 V2000
   -1.5458    2.5208    0.0000 C   0  0  0  0  0  0  0  0  0  0  0  0
   -1.5458    3.5208    0.0000 N   0  0  3  0  0  0  0  0  0  0  0  0
   -0.6833    2.0083    0.0000 C   0  0  0  0  0  0  0  0  0  0  0  0
   -2.5000    3.8333    0.0000 N   0  0  0  0  0  0  0  0  0  0  0  0
   -2.5000    2.2083    0.0000 C   0  0  0  0  0  0  0  0  0  0  0  0
   -0.6833    1.0083    0.0000 N   0  0  3  0  0  0  0  0  0  0  0  0
   -3.0833    3.0083    0.0000 C   0  0  0  0  0  0  0  0  0  0  0  0
    1.0500   -0.9917    0.0000 C   0  0  0  0  0  0  0  0  0  0  0  0
    0.1875    2.5208    0.0000 N   0  0  0  0  0  0  0  0  0  0  0  0
    0.1792   -0.4875    0.0000 C   0  0  3  0  0  0  0  0  0  0  0  0
    1.0417   -1.9917    0.0000 N   0  0  0  0  0  0  0  0  0  0  0  0
    0.1875    0.5083    0.0000 C   0  0  0  0  0  0  0  0  0  0  0  0
   -0.6833    4.0042    0.0000 C   0  0  0  0  0  0  0  0  0  0  0  0
    1.9042   -2.4917    0.0000 C   0  0  0  0  0  0  0  0  0  0  0  0
    0.1875    3.5208    0.0000 C   0  0  0  0  0  0  0  0  0  0  0  0
    2.7750   -1.9917    0.0000 C   0  0  0  0  0  0  0  0  0  0  0  0
    1.9125   -0.4917    0.0000 O   0  0  0  0  0  0  0  0  0  0  0  0
    3.6375   -2.5042    0.0000 C   0  0  0  0  0  0  0  0  0  0  0  0
    1.8917   -3.4875    0.0000 C   0  0  0  0  0  0  0  0  0  0  0  0
    3.6375   -3.4917    0.0000 C   0  0  0  0  0  0  0  0  0  0  0  0
   -1.5458    0.5083    0.0000 C   0  0  0  0  0  0  0  0  0  0  0  0
   -2.9083    1.2833    0.0000 C   0  0  0  0  0  0  0  0  0  0  0  0
    2.7542   -4.0000    0.0000 C   0  0  0  0  0  0  0  0  0  0  0  0
    4.4917   -4.0042    0.0000 F   0  0  0  0  0  0  0  0  0  0  0  0
   -0.6833   -0.9792    0.0000 C   0  0  0  0  0  0  0  0  0  0  0  0
   -4.0833    2.9000    0.0000 C   0  0  0  0  0  0  0  0  0  0  0  0
   -1.5458   -0.4792    0.0000 C   0  0  0  0  0  0  0  0  0  0  0  0
    2.7792   -1.0000    0.0000 C   0  0  0  0  0  0  0  0  0  0  0  0
   -3.9000    1.1833    0.0000 C   0  0  0  0  0  0  0  0  0  0  0  0
   -4.4958    1.9958    0.0000 C   0  0  0  0  0  0  0  0  0  0  0  0
  1  2  1  0  0  0  0
  1  3  1  0  0  0  0
  2  4  1  0  0  0  0
  1  5  2  0  0  0  0
  3  6  1  0  0  0  0
  5  7  1  0  0  0  0
  8 10  1  0  0  0  0
  3  9  2  0  0  0  0
 10 12  1  0  0  0  0
  8 11  1  0  0  0  0
  6 12  1  0  0  0  0
  2 13  1  0  0  0  0
 11 14  1  0  0  0  0
  9 15  1  0  0  0  0
 14 16  2  0  0  0  0
  8 17  2  0  0  0  0
 16 18  1  0  0  0  0
 14 19  1  0  0  0  0
 20 23  1  0  0  0  0
  6 21  1  0  0  0  0
  5 22  1  0  0  0  0
 19 23  2  0  0  0  0
 20 24  1  0  0  0  0
 25 27  1  0  0  0  0
  7 26  1  0  0  0  0
 21 27  1  0  0  0  0
 16 28  1  0  0  0  0
 22 29  1  0  0  0  0
 29 30  1  0  0  0  0
  4  7  2  0  0  0  0
 13 15  2  0  0  0  0
 26 30  1  0  0  0  0
 10 25  1  0  0  0  0
 18 20  2  0  0  0  0
M  END
> <MOLFORMULA>
C23 H26 F N5 O

> <MOLWEIGHT>
4.074904000000000e+002

> <IDNUMBER>
AT-687/PE21875

> <PRICE>
EUR 80/10 mg

> <Similarity score>
0.20

$$$$

  -OEChem-04222410502D

 29 33  0     0  0  0  0  0  0999 V2000
    5.9667   -4.7750    0.0000 C   0  0  0  0  0  0  0  0  0  0  0  0
    8.0250   -4.0917    0.0000 N   0  0  3  0  0  0  0  0  0  0  0  0
    6.7500   -3.6917    0.0000 N   0  0  0  0  0  0  0  0  0  0  0  0
    8.0250   -5.4250    0.0000 C   0  0  0  0  0  0  0  0  0  0  0  0
    6.7667   -5.8500    0.0000 C   0  0  0  0  0  0  0  0  0  0  0  0
    4.6417   -4.7792    0.0000 C   0  0  0  0  0  0  0  0  0  0  0  0
    3.9750   -3.6250    0.0000 N   0  0  0  0  0  0  0  0  0  0  0  0
    9.1750   -3.4250    0.0000 C   0  0  0  0  0  0  0  0  0  0  0  0
    2.6417   -3.6500    0.0000 C   0  0  0  0  0  0  0  0  0  0  0  0
   10.3250   -5.4250    0.0000 O   0  0  0  0  0  0  0  0  0  0  0  0
   10.3250   -4.0917    0.0000 C   0  0  3  0  0  0  0  0  0  0  0  0
   12.6292   -1.4417    0.0000 C   0  0  0  0  0  0  0  0  0  0  0  0
   11.4750   -3.4417    0.0000 C   0  0  0  0  0  0  0  0  0  0  0  0
   11.4750   -2.1042    0.0000 C   0  0  0  0  0  0  0  0  0  0  0  0
    1.9750   -2.4917    0.0000 C   0  0  0  0  0  0  0  0  0  0  0  0
    9.1750   -6.0792    0.0000 C   0  0  0  0  0  0  0  0  0  0  0  0
   13.7917   -2.0917    0.0000 C   0  0  0  0  0  0  0  0  0  0  0  0
   12.9167   -0.1417    0.0000 O   0  0  0  0  0  0  0  0  0  0  0  0
    1.9750   -4.8000    0.0000 C   0  0  0  0  0  0  0  0  0  0  0  0
   14.7750   -1.2250    0.0000 O   0  0  0  0  0  0  0  0  0  0  0  0
   14.2500   -0.0000    0.0000 C   0  0  0  0  0  0  0  0  0  0  0  0
    3.9792   -5.9417    0.0000 O   0  0  0  0  0  0  0  0  0  0  0  0
   12.6292   -4.1000    0.0000 C   0  0  0  0  0  0  0  0  0  0  0  0
   13.7917   -3.4417    0.0000 C   0  0  0  0  0  0  0  0  0  0  0  0
    0.6542   -4.8000    0.0000 C   0  0  0  0  0  0  0  0  0  0  0  0
    0.6542   -2.4917    0.0000 C   0  0  0  0  0  0  0  0  0  0  0  0
    2.6417   -5.9500    0.0000 Cl  0  0  0  0  0  0  0  0  0  0  0  0
    0.0000   -3.6542    0.0000 C   0  0  0  0  0  0  0  0  0  0  0  0
    0.0000   -1.3500    0.0000 F   0  0  0  0  0  0  0  0  0  0  0  0
  2  3  1  0  0  0  0
  1  3  2  0  0  0  0
  4  5  2  0  0  0  0
  1  5  1  0  0  0  0
  1  6  1  0  0  0  0
  6  7  1  0  0  0  0
  2  8  1  0  0  0  0
  7  9  1  0  0  0  0
 10 16  1  0  0  0  0
  8 11  1  0  0  0  0
 12 14  1  0  0  0  0
 11 13  1  0  0  0  0
 13 14  2  0  0  0  0
  9 15  2  0  0  0  0
  4 16  1  0  0  0  0
 17 24  1  0  0  0  0
 12 18  1  0  0  0  0
  9 19  1  0  0  0  0
 17 20  1  0  0  0  0
 18 21  1  0  0  0  0
  6 22  2  0  0  0  0
 13 23  1  0  0  0  0
 23 24  2  0  0  0  0
 19 25  2  0  0  0  0
 15 26  1  0  0  0  0
 19 27  1  0  0  0  0
 25 28  1  0  0  0  0
 26 29  1  0  0  0  0
  2  4  1  0  0  0  0
 10 11  1  0  0  0  0
 26 28  2  0  0  0  0
 12 17  2  0  0  0  0
 20 21  1  0  0  0  0
M  END
> <MOLFORMULA>
C20 H15 Cl F N3 O4

> <MOLWEIGHT>
4.158065000000000e+002

> <IDNUMBER>
AT-687/PE21247

> <PRICE>
EUR 80/10 mg

> <Similarity score>
0.20

$$$$

  -OEChem-04222410502D

 32 36  0     0  0  0  0  0  0999 V2000
    9.3417   -4.1000    0.0000 N   0  0  3  0  0  0  0  0  0  0  0  0
    7.3000   -4.7750    0.0000 C   0  0  0  0  0  0  0  0  0  0  0  0
    8.0667   -3.7000    0.0000 N   0  0  0  0  0  0  0  0  0  0  0  0
    9.3542   -5.4417    0.0000 C   0  0  0  0  0  0  0  0  0  0  0  0
    8.0792   -5.8542    0.0000 C   0  0  0  0  0  0  0  0  0  0  0  0
    5.9542   -4.8000    0.0000 C   0  0  0  0  0  0  0  0  0  0  0  0
   10.5000   -3.4417    0.0000 C   0  0  0  0  0  0  0  0  0  0  0  0
   11.6667   -5.4417    0.0000 O   0  0  0  0  0  0  0  0  0  0  0  0
   11.6667   -4.1000    0.0000 C   0  0  3  0  0  0  0  0  0  0  0  0
   13.9667   -1.4542    0.0000 C   0  0  0  0  0  0  0  0  0  0  0  0
   12.8042   -3.4417    0.0000 C   0  0  0  0  0  0  0  0  0  0  0  0
    5.3167   -5.9417    0.0000 N   0  0  0  0  0  0  0  0  0  0  0  0
    3.3167   -4.8250    0.0000 C   0  0  0  0  0  0  0  0  0  0  0  0
    1.9917   -4.8167    0.0000 C   0  0  0  0  0  0  0  0  0  0  0  0
   12.8042   -2.1250    0.0000 C   0  0  0  0  0  0  0  0  0  0  0  0
   10.5000   -6.1000    0.0000 C   0  0  0  0  0  0  0  0  0  0  0  0
    1.3292   -3.6792    0.0000 C   0  0  0  0  0  0  0  0  0  0  0  0
   15.1250   -2.1250    0.0000 C   0  0  0  0  0  0  0  0  0  0  0  0
   14.2542   -0.1500    0.0000 O   0  0  0  0  0  0  0  0  0  0  0  0
   16.1042   -1.2292    0.0000 O   0  0  0  0  0  0  0  0  0  0  0  0
   15.5750   -0.0000    0.0000 C   0  0  0  0  0  0  0  0  0  0  0  0
    3.9542   -5.9542    0.0000 C   0  0  0  0  0  0  0  0  0  0  0  0
    5.3000   -3.6500    0.0000 O   0  0  0  0  0  0  0  0  0  0  0  0
   13.9667   -4.1000    0.0000 C   0  0  0  0  0  0  0  0  0  0  0  0
   15.1250   -3.4542    0.0000 C   0  0  0  0  0  0  0  0  0  0  0  0
    3.9750   -3.6792    0.0000 C   0  0  0  0  0  0  0  0  0  0  0  0
    1.9750   -2.5250    0.0000 C   0  0  0  0  0  0  0  0  0  0  0  0
    3.3167   -2.5250    0.0000 C   0  0  0  0  0  0  0  0  0  0  0  0
    1.3292   -5.9750    0.0000 O   0  0  0  0  0  0  0  0  0  0  0  0
    1.3167   -1.4000    0.0000 O   0  0  0  0  0  0  0  0  0  0  0  0
    0.0000   -5.9750    0.0000 C   0  0  0  0  0  0  0  0  0  0  0  0
    0.0000   -1.4167    0.0000 C   0  0  0  0  0  0  0  0  0  0  0  0
  2  3  2  0  0  0  0
  1  3  1  0  0  0  0
  1  4  1  0  0  0  0
  4  5  2  0  0  0  0
  2  6  1  0  0  0  0
  1  7  1  0  0  0  0
  8  9  1  0  0  0  0
  7  9  1  0  0  0  0
 10 15  1  0  0  0  0
  9 11  1  0  0  0  0
  6 12  1  0  0  0  0
 13 22  1  0  0  0  0
 13 14  2  0  0  0  0
 11 15  2  0  0  0  0
  4 16  1  0  0  0  0
 14 17  1  0  0  0  0
 18 25  1  0  0  0  0
 10 19  1  0  0  0  0
 18 20  1  0  0  0  0
 19 21  1  0  0  0  0
 12 22  1  0  0  0  0
  6 23  2  0  0  0  0
 11 24  1  0  0  0  0
 24 25  2  0  0  0  0
 13 26  1  0  0  0  0
 27 28  1  0  0  0  0
 26 28  2  0  0  0  0
 14 29  1  0  0  0  0
 27 30  1  0  0  0  0
 29 31  1  0  0  0  0
 30 32  1  0  0  0  0
  8 16  1  0  0  0  0
  2  5  1  0  0  0  0
 10 18  2  0  0  0  0
 20 21  1  0  0  0  0
 17 27  2  0  0  0  0
M  END
> <MOLFORMULA>
C23 H23 N3 O6

> <MOLWEIGHT>
4.374497000000000e+002

> <IDNUMBER>
AT-687/PE21321

> <PRICE>
EUR 80/10 mg

> <Similarity score>
0.20

$$$$

  -OEChem-04222410502D

 29 33  0     0  0  0  0  0  0999 V2000
    5.9917   -4.7750    0.0000 C   0  0  0  0  0  0  0  0  0  0  0  0
    8.0292   -4.1000    0.0000 N   0  0  3  0  0  0  0  0  0  0  0  0
    6.7750   -3.7000    0.0000 N   0  0  0  0  0  0  0  0  0  0  0  0
    8.0500   -5.4167    0.0000 C   0  0  0  0  0  0  0  0  0  0  0  0
    6.7917   -5.8542    0.0000 C   0  0  0  0  0  0  0  0  0  0  0  0
    4.6542   -4.7917    0.0000 C   0  0  0  0  0  0  0  0  0  0  0  0
    9.2000   -3.4250    0.0000 C   0  0  0  0  0  0  0  0  0  0  0  0
    3.9917   -3.6417    0.0000 N   0  0  0  0  0  0  0  0  0  0  0  0
   10.3500   -5.4167    0.0000 O   0  0  0  0  0  0  0  0  0  0  0  0
   10.3500   -4.1000    0.0000 C   0  0  3  0  0  0  0  0  0  0  0  0
   12.6750   -1.4500    0.0000 C   0  0  0  0  0  0  0  0  0  0  0  0
   11.5000   -3.4500    0.0000 C   0  0  0  0  0  0  0  0  0  0  0  0
    2.6542   -3.6500    0.0000 C   0  0  0  0  0  0  0  0  0  0  0  0
   11.5000   -2.1250    0.0000 C   0  0  0  0  0  0  0  0  0  0  0  0
    9.2000   -6.1000    0.0000 C   0  0  0  0  0  0  0  0  0  0  0  0
   13.8042   -2.1167    0.0000 C   0  0  0  0  0  0  0  0  0  0  0  0
   12.9500   -0.1250    0.0000 O   0  0  0  0  0  0  0  0  0  0  0  0
   14.8000   -1.2042    0.0000 O   0  0  0  0  0  0  0  0  0  0  0  0
   14.2750   -0.0000    0.0000 C   0  0  0  0  0  0  0  0  0  0  0  0
    3.9917   -5.9500    0.0000 O   0  0  0  0  0  0  0  0  0  0  0  0
   12.6500   -4.1042    0.0000 C   0  0  0  0  0  0  0  0  0  0  0  0
   13.8042   -3.4500    0.0000 C   0  0  0  0  0  0  0  0  0  0  0  0
    0.6917   -4.8250    0.0000 C   0  0  0  0  0  0  0  0  0  0  0  0
    0.6542   -2.5250    0.0000 C   0  0  0  0  0  0  0  0  0  0  0  0
    1.9917   -4.8042    0.0000 C   0  0  0  0  0  0  0  0  0  0  0  0
    1.9750   -2.5167    0.0000 C   0  0  0  0  0  0  0  0  0  0  0  0
    0.0042   -3.6750    0.0000 C   0  0  0  0  0  0  0  0  0  0  0  0
    0.0000   -1.3750    0.0000 C   0  0  0  0  0  0  0  0  0  0  0  0
    0.0250   -5.9667    0.0000 C   0  0  0  0  0  0  0  0  0  0  0  0
  2  3  1  0  0  0  0
  1  3  2  0  0  0  0
  4  5  2  0  0  0  0
  1  5  1  0  0  0  0
  1  6  1  0  0  0  0
  2  7  1  0  0  0  0
  6  8  1  0  0  0  0
  9 15  1  0  0  0  0
  7 10  1  0  0  0  0
 11 14  1  0  0  0  0
 10 12  1  0  0  0  0
  8 13  1  0  0  0  0
 12 14  2  0  0  0  0
  4 15  1  0  0  0  0
 16 22  1  0  0  0  0
 11 17  1  0  0  0  0
 16 18  1  0  0  0  0
 17 19  1  0  0  0  0
  6 20  2  0  0  0  0
 12 21  1  0  0  0  0
 21 22  2  0  0  0  0
 23 25  2  0  0  0  0
 24 26  1  0  0  0  0
 13 25  1  0  0  0  0
 13 26  2  0  0  0  0
 24 27  2  0  0  0  0
 24 28  1  0  0  0  0
 23 29  1  0  0  0  0
  2  4  1  0  0  0  0
  9 10  1  0  0  0  0
 23 27  1  0  0  0  0
 11 16  2  0  0  0  0
 18 19  1  0  0  0  0
M  END
> <MOLFORMULA>
C22 H21 N3 O4

> <MOLWEIGHT>
3.914249000000000e+002

> <IDNUMBER>
AT-687/PE21235

> <PRICE>
EUR 80/10 mg

> <Similarity score>
0.20

$$$$

  -OEChem-04222410502D

 27 30  0     0  0  0  0  0  0999 V2000
    7.3000   -3.4167    0.0000 C   0  0  0  0  0  0  0  0  0  0  0  0
    9.3417   -2.7250    0.0000 N   0  0  3  0  0  0  0  0  0  0  0  0
    8.0792   -2.3417    0.0000 N   0  0  0  0  0  0  0  0  0  0  0  0
    9.3500   -4.0500    0.0000 C   0  0  0  0  0  0  0  0  0  0  0  0
    8.1000   -4.5000    0.0000 C   0  0  0  0  0  0  0  0  0  0  0  0
    5.9500   -3.4250    0.0000 C   0  0  0  0  0  0  0  0  0  0  0  0
   10.5042   -2.0667    0.0000 C   0  0  0  0  0  0  0  0  0  0  0  0
   11.6500   -4.0500    0.0000 O   0  0  0  0  0  0  0  0  0  0  0  0
    5.3000   -2.2750    0.0000 N   0  0  0  0  0  0  0  0  0  0  0  0
   11.6500   -2.7250    0.0000 C   0  0  3  0  0  0  0  0  0  0  0  0
   10.5042   -4.7250    0.0000 C   0  0  0  0  0  0  0  0  0  0  0  0
    1.9667   -1.1667    0.0000 C   0  0  0  0  0  0  0  0  0  0  0  0
    3.9667   -2.2917    0.0000 C   0  0  0  0  0  0  0  0  0  0  0  0
   12.8000   -2.0750    0.0000 C   0  0  0  0  0  0  0  0  0  0  0  0
    5.3000   -4.5792    0.0000 O   0  0  0  0  0  0  0  0  0  0  0  0
    3.2792   -1.1500    0.0000 C   0  0  0  0  0  0  0  0  0  0  0  0
    1.3000   -2.3000    0.0000 C   0  0  0  0  0  0  0  0  0  0  0  0
   12.8000   -0.7417    0.0000 C   0  0  0  0  0  0  0  0  0  0  0  0
   13.9542   -2.7500    0.0000 C   0  0  0  0  0  0  0  0  0  0  0  0
    1.9750   -3.4667    0.0000 C   0  0  0  0  0  0  0  0  0  0  0  0
    3.3000   -3.4500    0.0000 C   0  0  0  0  0  0  0  0  0  0  0  0
   15.1167   -0.7417    0.0000 C   0  0  0  0  0  0  0  0  0  0  0  0
   15.1000   -2.0750    0.0000 C   0  0  0  0  0  0  0  0  0  0  0  0
   13.9542   -0.0750    0.0000 C   0  0  0  0  0  0  0  0  0  0  0  0
   16.2750   -0.0917    0.0000 Cl  0  0  0  0  0  0  0  0  0  0  0  0
    1.3000   -0.0000    0.0000 C   0  0  0  0  0  0  0  0  0  0  0  0
    0.0000   -2.3250    0.0000 C   0  0  0  0  0  0  0  0  0  0  0  0
  2  3  1  0  0  0  0
  1  3  2  0  0  0  0
  4  5  2  0  0  0  0
  1  5  1  0  0  0  0
  1  6  1  0  0  0  0
  2  7  1  0  0  0  0
  8 11  1  0  0  0  0
  6  9  1  0  0  0  0
  7 10  1  0  0  0  0
  4 11  1  0  0  0  0
 12 16  1  0  0  0  0
  9 13  1  0  0  0  0
 10 14  1  0  0  0  0
  6 15  2  0  0  0  0
 13 16  2  0  0  0  0
 17 20  1  0  0  0  0
 14 18  1  0  0  0  0
 14 19  2  0  0  0  0
 20 21  2  0  0  0  0
 13 21  1  0  0  0  0
 22 23  2  0  0  0  0
 19 23  1  0  0  0  0
 18 24  2  0  0  0  0
 22 25  1  0  0  0  0
 12 26  1  0  0  0  0
 17 27  1  0  0  0  0
  2  4  1  0  0  0  0
  8 10  1  0  0  0  0
 12 17  2  0  0  0  0
 22 24  1  0  0  0  0
M  END
> <MOLFORMULA>
C21 H20 Cl N3 O2

> <MOLWEIGHT>
3.818610000000000e+002

> <IDNUMBER>
AT-687/PE21187

> <PRICE>
EUR 80/10 mg

> <Similarity score>
0.20

$$$$

  -OEChem-04222410502D

 40 45  0     0  0  0  0  0  0999 V2000
    9.2167   -5.9750    0.0000 C   0  0  0  0  0  0  0  0  0  0  0  0
    8.0500   -6.6417    0.0000 C   0  0  0  0  0  0  0  0  0  0  0  0
    6.9167   -5.9750    0.0000 O   0  0  0  0  0  0  0  0  0  0  0  0
    6.9167   -4.6667    0.0000 C   0  0  0  0  0  0  0  0  0  0  0  0
    5.7667   -4.0000    0.0000 C   0  0  0  0  0  0  0  0  0  0  0  0
    9.2167   -4.6667    0.0000 C   0  0  0  0  0  0  0  0  0  0  0  0
   10.3750   -6.6500    0.0000 C   0  0  0  0  0  0  0  0  0  0  0  0
    8.0667   -4.0000    0.0000 C   0  0  0  0  0  0  0  0  0  0  0  0
    5.7667   -2.6667    0.0000 C   0  0  0  0  0  0  0  0  0  0  0  0
    8.0500   -7.9750    0.0000 N   0  0  0  0  0  0  0  0  0  0  0  0
    6.9167   -1.9917    0.0000 C   0  0  0  0  0  0  0  0  0  0  0  0
   10.3750   -8.0000    0.0000 N   0  0  0  0  0  0  0  0  0  0  0  0
    4.6250   -1.9917    0.0000 N   0  0  3  0  0  0  0  0  0  0  0  0
    8.0667   -2.6667    0.0000 C   0  0  0  0  0  0  0  0  0  0  0  0
    3.4417   -7.9750    0.0000 C   0  0  0  0  0  0  0  0  0  0  0  0
   11.5250   -8.6500    0.0000 C   0  0  0  0  0  0  0  0  0  0  0  0
    4.6000   -8.6292    0.0000 C   0  0  0  0  0  0  0  0  0  0  0  0
    6.8917   -8.6292    0.0000 C   0  0  0  0  0  0  0  0  0  0  0  0
   11.5250   -5.9917    0.0000 O   0  0  0  0  0  0  0  0  0  0  0  0
    5.7417   -7.9750    0.0000 C   0  0  0  0  0  0  0  0  0  0  0  0
    3.4417   -6.6417    0.0000 O   0  0  0  0  0  0  0  0  0  0  0  0
   12.6917   -8.0000    0.0000 C   0  0  0  0  0  0  0  0  0  0  0  0
    4.6250   -4.6667    0.0000 C   0  0  0  0  0  0  0  0  0  0  0  0
    2.2917   -8.6292    0.0000 O   0  0  0  0  0  0  0  0  0  0  0  0
    6.9167   -0.6542    0.0000 C   0  0  0  0  0  0  0  0  0  0  0  0
    3.4750   -2.6667    0.0000 C   0  0  0  0  0  0  0  0  0  0  0  0
    4.6250   -0.6542    0.0000 C   0  0  0  0  0  0  0  0  0  0  0  0
   12.6917   -6.6667    0.0000 O   0  0  0  0  0  0  0  0  0  0  0  0
    3.4750   -4.0000    0.0000 C   0  0  0  0  0  0  0  0  0  0  0  0
    4.5917   -9.9667    0.0000 C   0  0  0  0  0  0  0  0  0  0  0  0
    5.7667   -0.0000    0.0000 C   0  0  0  0  0  0  0  0  0  0  0  0
    5.7417  -10.6250    0.0000 C   0  0  0  0  0  0  0  0  0  0  0  0
   11.5250   -9.9917    0.0000 C   0  0  0  0  0  0  0  0  0  0  0  0
    6.8917   -9.9667    0.0000 C   0  0  0  0  0  0  0  0  0  0  0  0
   13.8417   -8.6500    0.0000 C   0  0  0  0  0  0  0  0  0  0  0  0
    1.1417   -7.9750    0.0000 C   0  0  0  0  0  0  0  0  0  0  0  0
   13.8417   -6.0000    0.0000 C   0  0  0  0  0  0  0  0  0  0  0  0
    0.0000   -8.6292    0.0000 C   0  0  0  0  0  0  0  0  0  0  0  0
   12.6750  -10.6542    0.0000 C   0  0  0  0  0  0  0  0  0  0  0  0
   13.8417   -9.9917    0.0000 C   0  0  0  0  0  0  0  0  0  0  0  0
  1  2  1  0  0  0  0
  2  3  1  0  0  0  0
  4  8  2  0  0  0  0
  4  5  1  0  0  0  0
  1  6  2  0  0  0  0
  1  7  1  0  0  0  0
  6  8  1  0  0  0  0
  9 11  1  0  0  0  0
  2 10  2  0  0  0  0
 11 14  2  0  0  0  0
  7 12  1  0  0  0  0
  9 13  1  0  0  0  0
  8 14  1  0  0  0  0
 15 17  1  0  0  0  0
 12 16  1  0  0  0  0
 17 20  1  0  0  0  0
 10 18  1  0  0  0  0
  7 19  2  0  0  0  0
 18 20  2  0  0  0  0
 15 21  2  0  0  0  0
 16 22  2  0  0  0  0
  5 23  1  0  0  0  0
 15 24  1  0  0  0  0
 11 25  1  0  0  0  0
 13 26  1  0  0  0  0
 27 31  1  0  0  0  0
 22 28  1  0  0  0  0
 23 29  1  0  0  0  0
 30 32  1  0  0  0  0
 25 31  1  0  0  0  0
 32 34  2  0  0  0  0
 16 33  1  0  0  0  0
 18 34  1  0  0  0  0
 22 35  1  0  0  0  0
 24 36  1  0  0  0  0
 28 37  1  0  0  0  0
 36 38  1  0  0  0  0
 33 39  2  0  0  0  0
 39 40  1  0  0  0  0
  3  4  1  0  0  0  0
  5  9  2  0  0  0  0
 35 40  2  0  0  0  0
 26 29  1  0  0  0  0
 17 30  2  0  0  0  0
 13 27  1  0  0  0  0
M  END
> <MOLFORMULA>
C32 H31 N3 O5

> <MOLWEIGHT>
5.376129000000000e+002

> <IDNUMBER>
AT-687/PE10230

> <PRICE>
EUR 80/10 mg

> <Similarity score>
0.20

$$$$

  -OEChem-04222410502D

 24 27  0     0  0  0  0  0  0999 V2000
    3.9750   -3.5000    0.0000 C   0  0  0  0  0  0  0  0  0  0  0  0
    4.7500   -2.4417    0.0000 N   0  0  0  0  0  0  0  0  0  0  0  0
    6.0000   -2.8500    0.0000 N   0  0  3  0  0  0  0  0  0  0  0  0
    6.0000   -4.1750    0.0000 C   0  0  0  0  0  0  0  0  0  0  0  0
    4.7500   -4.5750    0.0000 C   0  0  0  0  0  0  0  0  0  0  0  0
    2.6417   -3.4750    0.0000 C   0  0  0  0  0  0  0  0  0  0  0  0
    7.1417   -2.1750    0.0000 C   0  0  0  0  0  0  0  0  0  0  0  0
    1.9792   -2.3250    0.0000 N   0  0  3  0  0  0  0  0  0  0  0  0
    8.3000   -4.1750    0.0000 O   0  0  0  0  0  0  0  0  0  0  0  0
    8.3000   -2.8500    0.0000 C   0  0  3  0  0  0  0  0  0  0  0  0
    7.1417   -4.8417    0.0000 C   0  0  0  0  0  0  0  0  0  0  0  0
    9.4500   -2.1750    0.0000 C   0  0  0  0  0  0  0  0  0  0  0  0
    1.9542   -4.6250    0.0000 O   0  0  0  0  0  0  0  0  0  0  0  0
    9.4500   -0.8542    0.0000 C   0  0  0  0  0  0  0  0  0  0  0  0
   10.6000   -2.8500    0.0000 C   0  0  0  0  0  0  0  0  0  0  0  0
   11.7500   -0.8542    0.0000 C   0  0  0  0  0  0  0  0  0  0  0  0
   11.7500   -2.1750    0.0000 C   0  0  0  0  0  0  0  0  0  0  0  0
   10.5917   -0.1917    0.0000 C   0  0  0  0  0  0  0  0  0  0  0  0
   12.9167   -0.1917    0.0000 Cl  0  0  0  0  0  0  0  0  0  0  0  0
    2.6667   -1.1750    0.0000 C   0  0  0  0  0  0  0  0  0  0  0  0
    0.6500   -2.3250    0.0000 C   0  0  0  0  0  0  0  0  0  0  0  0
    0.0000   -1.1792    0.0000 C   0  0  0  0  0  0  0  0  0  0  0  0
    2.0042   -0.0042    0.0000 C   0  0  0  0  0  0  0  0  0  0  0  0
    0.6750   -0.0000    0.0000 C   0  0  0  0  0  0  0  0  0  0  0  0
  1  2  2  0  0  0  0
  2  3  1  0  0  0  0
  4  5  2  0  0  0  0
  1  5  1  0  0  0  0
  1  6  1  0  0  0  0
  3  7  1  0  0  0  0
  6  8  1  0  0  0  0
  9 11  1  0  0  0  0
  7 10  1  0  0  0  0
  4 11  1  0  0  0  0
 10 12  1  0  0  0  0
  6 13  2  0  0  0  0
 12 14  1  0  0  0  0
 12 15  2  0  0  0  0
 16 17  2  0  0  0  0
 15 17  1  0  0  0  0
 14 18  2  0  0  0  0
 16 19  1  0  0  0  0
  8 20  1  0  0  0  0
  8 21  1  0  0  0  0
 21 22  1  0  0  0  0
 20 23  1  0  0  0  0
 22 24  1  0  0  0  0
  3  4  1  0  0  0  0
  9 10  1  0  0  0  0
 23 24  1  0  0  0  0
 16 18  1  0  0  0  0
M  END
> <MOLFORMULA>
C18 H20 Cl N3 O2

> <MOLWEIGHT>
3.458280000000000e+002

> <IDNUMBER>
AT-687/PE21157

> <PRICE>
EUR 80/10 mg

> <Similarity score>
0.20

$$$$

  -OEChem-04222410502D

 30 34  0     0  0  0  0  0  0999 V2000
   -1.5500    2.5208    0.0000 C   0  0  0  0  0  0  0  0  0  0  0  0
   -1.5500    3.5083    0.0000 N   0  0  3  0  0  0  0  0  0  0  0  0
   -0.6875    2.0083    0.0000 C   0  0  0  0  0  0  0  0  0  0  0  0
   -2.5083    3.8208    0.0000 N   0  0  0  0  0  0  0  0  0  0  0  0
   -2.5083    2.1958    0.0000 C   0  0  0  0  0  0  0  0  0  0  0  0
   -0.6875    1.0000    0.0000 N   0  0  3  0  0  0  0  0  0  0  0  0
   -3.0958    3.0083    0.0000 C   0  0  0  0  0  0  0  0  0  0  0  0
    1.0417   -0.9917    0.0000 C   0  0  0  0  0  0  0  0  0  0  0  0
    0.1792    2.5208    0.0000 N   0  0  0  0  0  0  0  0  0  0  0  0
    0.1792   -0.4917    0.0000 C   0  0  3  0  0  0  0  0  0  0  0  0
    1.0417   -1.9917    0.0000 N   0  0  0  0  0  0  0  0  0  0  0  0
    0.1792    0.5208    0.0000 C   0  0  0  0  0  0  0  0  0  0  0  0
   -0.6875    4.0042    0.0000 C   0  0  0  0  0  0  0  0  0  0  0  0
    1.9042   -2.5000    0.0000 C   0  0  0  0  0  0  0  0  0  0  0  0
    0.1792    3.5083    0.0000 C   0  0  0  0  0  0  0  0  0  0  0  0
    2.7750   -2.0042    0.0000 C   0  0  0  0  0  0  0  0  0  0  0  0
    1.9125   -0.5000    0.0000 O   0  0  0  0  0  0  0  0  0  0  0  0
    3.6417   -2.5042    0.0000 C   0  0  0  0  0  0  0  0  0  0  0  0
    1.8917   -3.4917    0.0000 C   0  0  0  0  0  0  0  0  0  0  0  0
    2.7875   -1.0042    0.0000 F   0  0  0  0  0  0  0  0  0  0  0  0
   -1.5500    0.5208    0.0000 C   0  0  0  0  0  0  0  0  0  0  0  0
   -2.9083    1.2833    0.0000 C   0  0  0  0  0  0  0  0  0  0  0  0
    3.6292   -3.5042    0.0000 C   0  0  0  0  0  0  0  0  0  0  0  0
    2.7542   -4.0000    0.0000 C   0  0  0  0  0  0  0  0  0  0  0  0
   -0.6958   -0.9875    0.0000 C   0  0  0  0  0  0  0  0  0  0  0  0
   -4.0833    2.9000    0.0000 C   0  0  0  0  0  0  0  0  0  0  0  0
   -1.5500   -0.4792    0.0000 C   0  0  0  0  0  0  0  0  0  0  0  0
    4.4917   -4.0042    0.0000 C   0  0  0  0  0  0  0  0  0  0  0  0
   -3.9083    1.1833    0.0000 C   0  0  0  0  0  0  0  0  0  0  0  0
   -4.5000    1.9958    0.0000 C   0  0  0  0  0  0  0  0  0  0  0  0
  1  2  1  0  0  0  0
  1  3  1  0  0  0  0
  2  4  1  0  0  0  0
  1  5  2  0  0  0  0
  3  6  1  0  0  0  0
  5  7  1  0  0  0  0
  8 10  1  0  0  0  0
  3  9  2  0  0  0  0
 10 12  1  0  0  0  0
  8 11  1  0  0  0  0
  6 12  1  0  0  0  0
  2 13  1  0  0  0  0
 11 14  1  0  0  0  0
  9 15  1  0  0  0  0
 14 16  2  0  0  0  0
  8 17  2  0  0  0  0
 16 18  1  0  0  0  0
 14 19  1  0  0  0  0
 16 20  1  0  0  0  0
  6 21  1  0  0  0  0
  5 22  1  0  0  0  0
 23 24  1  0  0  0  0
 19 24  2  0  0  0  0
 25 27  1  0  0  0  0
  7 26  1  0  0  0  0
 21 27  1  0  0  0  0
 23 28  1  0  0  0  0
 22 29  1  0  0  0  0
 29 30  1  0  0  0  0
  4  7  2  0  0  0  0
 13 15  2  0  0  0  0
 26 30  1  0  0  0  0
 10 25  1  0  0  0  0
 18 23  2  0  0  0  0
M  END
> <MOLFORMULA>
C23 H26 F N5 O

> <MOLWEIGHT>
4.074904000000000e+002

> <IDNUMBER>
AT-687/PE21874

> <PRICE>
EUR 80/10 mg

> <Similarity score>
0.20

$$$$

  -OEChem-04222410502D

 30 34  0     0  0  0  0  0  0999 V2000
    8.0000   -4.1000    0.0000 N   0  0  3  0  0  0  0  0  0  0  0  0
    5.9500   -4.7667    0.0000 C   0  0  0  0  0  0  0  0  0  0  0  0
    6.7292   -3.7000    0.0000 N   0  0  0  0  0  0  0  0  0  0  0  0
    8.0167   -5.4292    0.0000 C   0  0  0  0  0  0  0  0  0  0  0  0
    6.7500   -5.8500    0.0000 C   0  0  0  0  0  0  0  0  0  0  0  0
    4.6292   -4.7750    0.0000 C   0  0  0  0  0  0  0  0  0  0  0  0
    9.1750   -3.4250    0.0000 C   0  0  0  0  0  0  0  0  0  0  0  0
   10.3250   -5.4292    0.0000 O   0  0  0  0  0  0  0  0  0  0  0  0
   10.3250   -4.1000    0.0000 C   0  0  3  0  0  0  0  0  0  0  0  0
   12.6250   -1.4542    0.0000 C   0  0  0  0  0  0  0  0  0  0  0  0
   11.4750   -3.4417    0.0000 C   0  0  0  0  0  0  0  0  0  0  0  0
    0.6500   -4.8167    0.0000 C   0  0  0  0  0  0  0  0  0  0  0  0
    3.9667   -5.9500    0.0000 N   0  0  0  0  0  0  0  0  0  0  0  0
    1.9750   -4.8250    0.0000 C   0  0  0  0  0  0  0  0  0  0  0  0
   11.4750   -2.1250    0.0000 C   0  0  0  0  0  0  0  0  0  0  0  0
    9.1750   -6.1000    0.0000 C   0  0  0  0  0  0  0  0  0  0  0  0
    0.0000   -3.6750    0.0000 C   0  0  0  0  0  0  0  0  0  0  0  0
   13.7750   -2.1042    0.0000 C   0  0  0  0  0  0  0  0  0  0  0  0
   12.9042   -0.1250    0.0000 O   0  0  0  0  0  0  0  0  0  0  0  0
   14.7750   -1.2250    0.0000 O   0  0  0  0  0  0  0  0  0  0  0  0
   14.2417   -0.0000    0.0000 C   0  0  0  0  0  0  0  0  0  0  0  0
    2.6417   -5.9500    0.0000 C   0  0  0  0  0  0  0  0  0  0  0  0
    3.9500   -3.6417    0.0000 O   0  0  0  0  0  0  0  0  0  0  0  0
   12.6167   -4.1000    0.0000 C   0  0  0  0  0  0  0  0  0  0  0  0
   13.7750   -3.4417    0.0000 C   0  0  0  0  0  0  0  0  0  0  0  0
    2.6417   -3.6750    0.0000 C   0  0  0  0  0  0  0  0  0  0  0  0
    0.6500   -2.5250    0.0000 C   0  0  0  0  0  0  0  0  0  0  0  0
    0.0000   -5.9667    0.0000 Cl  0  0  0  0  0  0  0  0  0  0  0  0
    1.9917   -2.5250    0.0000 C   0  0  0  0  0  0  0  0  0  0  0  0
    0.0000   -1.3667    0.0000 F   0  0  0  0  0  0  0  0  0  0  0  0
  2  3  2  0  0  0  0
  1  3  1  0  0  0  0
  1  4  1  0  0  0  0
  4  5  2  0  0  0  0
  2  6  1  0  0  0  0
  1  7  1  0  0  0  0
  8  9  1  0  0  0  0
  7  9  1  0  0  0  0
 10 15  1  0  0  0  0
  9 11  1  0  0  0  0
 12 14  2  0  0  0  0
  6 13  1  0  0  0  0
 14 22  1  0  0  0  0
 11 15  2  0  0  0  0
  4 16  1  0  0  0  0
 12 17  1  0  0  0  0
 18 25  1  0  0  0  0
 10 19  1  0  0  0  0
 18 20  1  0  0  0  0
 19 21  1  0  0  0  0
 13 22  1  0  0  0  0
  6 23  2  0  0  0  0
 11 24  1  0  0  0  0
 24 25  2  0  0  0  0
 14 26  1  0  0  0  0
 27 29  1  0  0  0  0
 12 28  1  0  0  0  0
 26 29  2  0  0  0  0
 27 30  1  0  0  0  0
  8 16  1  0  0  0  0
  2  5  1  0  0  0  0
 10 18  2  0  0  0  0
 20 21  1  0  0  0  0
 17 27  2  0  0  0  0
M  END
> <MOLFORMULA>
C21 H17 Cl F N3 O4

> <MOLWEIGHT>
4.298333000000000e+002

> <IDNUMBER>
AT-687/PE21327

> <PRICE>
EUR 80/10 mg

> <Similarity score>
0.20

$$$$

  -OEChem-04222410502D

 29 33  0     0  0  0  0  0  0999 V2000
    3.3292   -1.7042    0.0000 C   0  0  0  0  0  0  0  0  0  0  0  0
    4.0000   -2.1792    0.0000 N   0  0  0  0  0  0  0  0  0  0  0  0
    2.6250    2.8333    0.0000 C   0  0  0  0  0  0  0  0  0  0  0  0
    2.6542   -2.1792    0.0000 C   0  0  0  0  0  0  0  0  0  0  0  0
    2.9167   -2.9667    0.0000 C   0  0  0  0  0  0  0  0  0  0  0  0
    3.7417   -2.9667    0.0000 N   0  0  3  0  0  0  0  0  0  0  0  0
    1.9042    3.2500    0.0000 C   0  0  0  0  0  0  0  0  0  0  0  0
    3.3417    3.2458    0.0000 N   0  0  0  0  0  0  0  0  0  0  0  0
    3.3292   -0.8792    0.0000 C   0  0  0  0  0  0  0  0  0  0  0  0
    2.6167    2.0083    0.0000 N   0  0  3  0  0  0  0  0  0  0  0  0
    2.6292    4.4667    0.0000 N   0  0  0  0  0  0  0  0  0  0  0  0
    1.9167    4.0625    0.0000 C   0  0  0  0  0  0  0  0  0  0  0  0
    3.3417    4.0542    0.0000 C   0  0  0  0  0  0  0  0  0  0  0  0
    2.6167   -0.4667    0.0000 N   0  0  0  0  0  0  0  0  0  0  0  0
    2.5042   -3.6917    0.0000 O   0  0  0  0  0  0  0  0  0  0  0  0
    3.3417    1.5958    0.0000 C   0  0  0  0  0  0  0  0  0  0  0  0
    1.9042    1.5958    0.0000 C   0  0  0  0  0  0  0  0  0  0  0  0
    4.0417   -0.4667    0.0000 O   0  0  0  0  0  0  0  0  0  0  0  0
    2.6167    0.3583    0.0000 C   0  0  3  0  0  0  0  0  0  0  0  0
    1.9042    0.7708    0.0000 C   0  0  0  0  0  0  0  0  0  0  0  0
    3.3417    0.7708    0.0000 C   0  0  0  0  0  0  0  0  0  0  0  0
    4.1542   -3.6917    0.0000 C   0  0  0  0  0  0  0  0  0  0  0  0
    1.1917    2.8375    0.0000 C   0  0  0  0  0  0  0  0  0  0  0  0
    3.7542   -4.4000    0.0000 C   0  0  0  0  0  0  0  0  0  0  0  0
    1.2042    4.4667    0.0000 C   0  0  0  0  0  0  0  0  0  0  0  0
    2.9167   -4.4042    0.0000 C   0  0  0  0  0  0  0  0  0  0  0  0
    4.0625    4.4542    0.0000 C   0  0  0  0  0  0  0  0  0  0  0  0
    0.4792    3.2708    0.0000 C   0  0  0  0  0  0  0  0  0  0  0  0
    0.4917    4.0750    0.0000 C   0  0  0  0  0  0  0  0  0  0  0  0
  1  2  2  0  0  0  0
  3 10  1  0  0  0  0
  1  4  1  0  0  0  0
  4  5  2  0  0  0  0
  2  6  1  0  0  0  0
  3  7  1  0  0  0  0
  3  8  2  0  0  0  0
  1  9  1  0  0  0  0
 10 16  1  0  0  0  0
 11 13  2  0  0  0  0
  7 12  2  0  0  0  0
  8 13  1  0  0  0  0
  9 14  1  0  0  0  0
  5 15  1  0  0  0  0
 16 21  1  0  0  0  0
 17 20  1  0  0  0  0
  9 18  2  0  0  0  0
 14 19  1  0  0  0  0
 19 20  1  0  0  0  0
 19 21  1  0  0  0  0
  6 22  1  0  0  0  0
  7 23  1  0  0  0  0
 22 24  1  0  0  0  0
 12 25  1  0  0  0  0
 15 26  1  0  0  0  0
 13 27  1  0  0  0  0
 23 28  1  0  0  0  0
 28 29  1  0  0  0  0
  5  6  1  0  0  0  0
 24 26  1  0  0  0  0
 10 17  1  0  0  0  0
 11 12  1  0  0  0  0
 25 29  1  0  0  0  0
M  END
> <MOLFORMULA>
C21 H28 N6 O2

> <MOLWEIGHT>
3.964922000000000e+002

> <IDNUMBER>
AT-687/SK01675

> <PRICE>
EUR 80/10 mg

> <Similarity score>
0.20

$$$$

  -OEChem-04222410502D

 29 33  0     0  0  0  0  0  0999 V2000
    8.0000   -4.1000    0.0000 N   0  0  3  0  0  0  0  0  0  0  0  0
    5.9500   -4.7667    0.0000 C   0  0  0  0  0  0  0  0  0  0  0  0
    6.7250   -3.7000    0.0000 N   0  0  0  0  0  0  0  0  0  0  0  0
    8.0167   -5.4250    0.0000 C   0  0  0  0  0  0  0  0  0  0  0  0
    6.7500   -5.8500    0.0000 C   0  0  0  0  0  0  0  0  0  0  0  0
    4.6292   -4.7750    0.0000 C   0  0  0  0  0  0  0  0  0  0  0  0
    9.1667   -3.4250    0.0000 C   0  0  0  0  0  0  0  0  0  0  0  0
   10.3250   -5.4250    0.0000 O   0  0  0  0  0  0  0  0  0  0  0  0
   10.3250   -4.1000    0.0000 C   0  0  3  0  0  0  0  0  0  0  0  0
   12.6250   -1.4542    0.0000 C   0  0  0  0  0  0  0  0  0  0  0  0
   11.4750   -3.4417    0.0000 C   0  0  0  0  0  0  0  0  0  0  0  0
    3.9667   -5.9500    0.0000 N   0  0  0  0  0  0  0  0  0  0  0  0
   11.4750   -2.1250    0.0000 C   0  0  0  0  0  0  0  0  0  0  0  0
    9.1667   -6.1000    0.0000 C   0  0  0  0  0  0  0  0  0  0  0  0
   13.7750   -2.1042    0.0000 C   0  0  0  0  0  0  0  0  0  0  0  0
   12.9000   -0.1250    0.0000 O   0  0  0  0  0  0  0  0  0  0  0  0
   14.7667   -1.2250    0.0000 O   0  0  0  0  0  0  0  0  0  0  0  0
   14.2417   -0.0000    0.0000 C   0  0  0  0  0  0  0  0  0  0  0  0
    3.9500   -3.6417    0.0000 O   0  0  0  0  0  0  0  0  0  0  0  0
   12.6167   -4.1000    0.0000 C   0  0  0  0  0  0  0  0  0  0  0  0
   13.7750   -3.4417    0.0000 C   0  0  0  0  0  0  0  0  0  0  0  0
    2.6417   -5.9500    0.0000 C   0  0  0  0  0  0  0  0  0  0  0  0
    0.6500   -2.5250    0.0000 C   0  0  0  0  0  0  0  0  0  0  0  0
    1.9750   -4.8250    0.0000 C   0  0  0  0  0  0  0  0  0  0  0  0
    0.0000   -1.3667    0.0000 F   0  0  0  0  0  0  0  0  0  0  0  0
    1.9917   -2.5250    0.0000 C   0  0  0  0  0  0  0  0  0  0  0  0
    0.0000   -3.6750    0.0000 C   0  0  0  0  0  0  0  0  0  0  0  0
    2.6417   -3.6750    0.0000 C   0  0  0  0  0  0  0  0  0  0  0  0
    0.6500   -4.8042    0.0000 C   0  0  0  0  0  0  0  0  0  0  0  0
  2  3  2  0  0  0  0
  1  3  1  0  0  0  0
  1  4  1  0  0  0  0
  4  5  2  0  0  0  0
  2  6  1  0  0  0  0
  1  7  1  0  0  0  0
  8  9  1  0  0  0  0
  7  9  1  0  0  0  0
 10 13  1  0  0  0  0
  9 11  1  0  0  0  0
  6 12  1  0  0  0  0
 11 13  2  0  0  0  0
  4 14  1  0  0  0  0
 15 21  1  0  0  0  0
 10 16  1  0  0  0  0
 15 17  1  0  0  0  0
 16 18  1  0  0  0  0
  6 19  2  0  0  0  0
 11 20  1  0  0  0  0
 20 21  2  0  0  0  0
 12 22  1  0  0  0  0
 23 27  2  0  0  0  0
 22 24  1  0  0  0  0
 23 25  1  0  0  0  0
 26 28  2  0  0  0  0
 27 29  1  0  0  0  0
 24 28  1  0  0  0  0
 24 29  2  0  0  0  0
  8 14  1  0  0  0  0
  2  5  1  0  0  0  0
 10 15  2  0  0  0  0
 17 18  1  0  0  0  0
 23 26  1  0  0  0  0
M  END
> <MOLFORMULA>
C21 H18 F N3 O4

> <MOLWEIGHT>
3.953882000000000e+002

> <IDNUMBER>
AT-687/PE21323

> <PRICE>
EUR 80/10 mg

> <Similarity score>
0.20

$$$$

  -OEChem-04222410502D

 27 31  0     0  0  0  0  0  0999 V2000
    5.9667   -4.7667    0.0000 C   0  0  0  0  0  0  0  0  0  0  0  0
    8.0250   -4.0917    0.0000 N   0  0  3  0  0  0  0  0  0  0  0  0
    6.7500   -3.6917    0.0000 N   0  0  0  0  0  0  0  0  0  0  0  0
    8.0250   -5.4167    0.0000 C   0  0  0  0  0  0  0  0  0  0  0  0
    6.7667   -5.8500    0.0000 C   0  0  0  0  0  0  0  0  0  0  0  0
    4.6292   -4.7792    0.0000 C   0  0  0  0  0  0  0  0  0  0  0  0
    9.1750   -3.4250    0.0000 C   0  0  0  0  0  0  0  0  0  0  0  0
   10.3250   -5.4167    0.0000 O   0  0  0  0  0  0  0  0  0  0  0  0
   10.3250   -4.0917    0.0000 C   0  0  3  0  0  0  0  0  0  0  0  0
    3.9750   -3.6250    0.0000 N   0  0  0  0  0  0  0  0  0  0  0  0
   12.6292   -1.4417    0.0000 C   0  0  0  0  0  0  0  0  0  0  0  0
   11.4750   -3.4417    0.0000 C   0  0  0  0  0  0  0  0  0  0  0  0
   11.4750   -2.1042    0.0000 C   0  0  0  0  0  0  0  0  0  0  0  0
    9.1750   -6.0792    0.0000 C   0  0  0  0  0  0  0  0  0  0  0  0
   13.7792   -2.0917    0.0000 C   0  0  0  0  0  0  0  0  0  0  0  0
   12.9167   -0.1417    0.0000 O   0  0  0  0  0  0  0  0  0  0  0  0
   14.7750   -1.2250    0.0000 O   0  0  0  0  0  0  0  0  0  0  0  0
   14.2417   -0.0000    0.0000 C   0  0  0  0  0  0  0  0  0  0  0  0
    3.9792   -5.9417    0.0000 O   0  0  0  0  0  0  0  0  0  0  0  0
   12.6292   -4.1000    0.0000 C   0  0  0  0  0  0  0  0  0  0  0  0
   13.7792   -3.4417    0.0000 C   0  0  0  0  0  0  0  0  0  0  0  0
    2.6417   -3.6500    0.0000 C   0  0  0  0  0  0  0  0  0  0  0  0
    1.9917   -4.8000    0.0000 C   0  0  0  0  0  0  0  0  0  0  0  0
    1.9750   -2.4917    0.0000 C   0  0  0  0  0  0  0  0  0  0  0  0
    0.6500   -2.5250    0.0000 C   0  0  0  0  0  0  0  0  0  0  0  0
    0.6750   -4.8167    0.0000 C   0  0  0  0  0  0  0  0  0  0  0  0
    0.0000   -3.6542    0.0000 C   0  0  0  0  0  0  0  0  0  0  0  0
  2  3  1  0  0  0  0
  1  3  2  0  0  0  0
  4  5  2  0  0  0  0
  1  5  1  0  0  0  0
  1  6  1  0  0  0  0
  2  7  1  0  0  0  0
  8 14  1  0  0  0  0
  7  9  1  0  0  0  0
  6 10  1  0  0  0  0
 11 13  1  0  0  0  0
  9 12  1  0  0  0  0
 12 13  2  0  0  0  0
  4 14  1  0  0  0  0
 15 21  1  0  0  0  0
 11 16  1  0  0  0  0
 15 17  1  0  0  0  0
 16 18  1  0  0  0  0
  6 19  2  0  0  0  0
 12 20  1  0  0  0  0
 20 21  2  0  0  0  0
 10 22  1  0  0  0  0
 22 23  1  0  0  0  0
 22 24  2  0  0  0  0
 24 25  1  0  0  0  0
 23 26  2  0  0  0  0
 25 27  2  0  0  0  0
  2  4  1  0  0  0  0
  8  9  1  0  0  0  0
 26 27  1  0  0  0  0
 11 15  2  0  0  0  0
 17 18  1  0  0  0  0
M  END
> <MOLFORMULA>
C20 H17 N3 O4

> <MOLWEIGHT>
3.633713000000000e+002

> <IDNUMBER>
AT-687/PE21231

> <PRICE>
EUR 80/10 mg

> <Similarity score>
0.20

$$$$

  -OEChem-04222410502D

 29 32  0     0  0  0  0  0  0999 V2000
    6.1000   -5.1292    0.0000 C   0  0  0  0  0  0  0  0  0  0  0  0
    4.6500   -6.7417    0.0000 N   0  0  3  0  0  0  0  0  0  0  0  0
    5.9500   -6.4667    0.0000 N   0  0  0  0  0  0  0  0  0  0  0  0
    3.9792   -5.5792    0.0000 C   0  0  0  0  0  0  0  0  0  0  0  0
    4.8750   -4.6000    0.0000 C   0  0  0  0  0  0  0  0  0  0  0  0
    7.2500   -4.4750    0.0000 C   0  0  0  0  0  0  0  0  0  0  0  0
   10.7000   -1.1500    0.0000 C   0  0  3  0  0  0  0  0  0  0  0  0
    3.9792   -7.8917    0.0000 C   0  0  0  0  0  0  0  0  0  0  0  0
    2.0000   -6.7417    0.0000 O   0  0  0  0  0  0  0  0  0  0  0  0
    8.4000   -5.1292    0.0000 N   0  0  0  0  0  0  0  0  0  0  0  0
    2.6542   -7.8917    0.0000 C   0  0  3  0  0  0  0  0  0  0  0  0
   10.7000   -2.4792    0.0000 C   0  0  0  0  0  0  0  0  0  0  0  0
    2.6542   -5.5792    0.0000 C   0  0  0  0  0  0  0  0  0  0  0  0
    2.0000   -9.0500    0.0000 C   0  0  0  0  0  0  0  0  0  0  0  0
    7.2500   -3.1500    0.0000 O   0  0  0  0  0  0  0  0  0  0  0  0
    9.5500   -4.4750    0.0000 C   0  0  0  0  0  0  0  0  0  0  0  0
    9.5500   -3.1500    0.0000 C   0  0  0  0  0  0  0  0  0  0  0  0
   11.3667   -0.0000    0.0000 F   0  0  0  0  0  0  0  0  0  0  0  0
   12.0417   -1.1500    0.0000 F   0  0  0  0  0  0  0  0  0  0  0  0
    9.5500   -0.4792    0.0000 F   0  0  0  0  0  0  0  0  0  0  0  0
    2.6542  -10.2000    0.0000 C   0  0  0  0  0  0  0  0  0  0  0  0
    0.6542   -9.0500    0.0000 C   0  0  0  0  0  0  0  0  0  0  0  0
    0.6542  -11.3500    0.0000 C   0  0  0  0  0  0  0  0  0  0  0  0
    0.0000  -10.2000    0.0000 C   0  0  0  0  0  0  0  0  0  0  0  0
    2.0000  -11.3500    0.0000 C   0  0  0  0  0  0  0  0  0  0  0  0
    0.0000  -12.5000    0.0000 F   0  0  0  0  0  0  0  0  0  0  0  0
   11.8500   -3.1500    0.0000 C   0  0  0  0  0  0  0  0  0  0  0  0
   11.8500   -4.4750    0.0000 C   0  0  0  0  0  0  0  0  0  0  0  0
   10.7000   -5.1292    0.0000 C   0  0  0  0  0  0  0  0  0  0  0  0
  2  3  1  0  0  0  0
  1  3  2  0  0  0  0
  4  5  2  0  0  0  0
  1  5  1  0  0  0  0
  1  6  1  0  0  0  0
  7 12  1  0  0  0  0
  2  8  1  0  0  0  0
  9 13  1  0  0  0  0
  6 10  1  0  0  0  0
  8 11  1  0  0  0  0
 12 17  1  0  0  0  0
  4 13  1  0  0  0  0
 11 14  1  0  0  0  0
  6 15  2  0  0  0  0
 10 16  1  0  0  0  0
 16 17  2  0  0  0  0
  7 18  1  0  0  0  0
  7 19  1  0  0  0  0
  7 20  1  0  0  0  0
 14 21  2  0  0  0  0
 14 22  1  0  0  0  0
 23 24  1  0  0  0  0
 22 24  2  0  0  0  0
 21 25  1  0  0  0  0
 23 26  1  0  0  0  0
 27 28  1  0  0  0  0
 28 29  2  0  0  0  0
 16 29  1  0  0  0  0
  2  4  1  0  0  0  0
  9 11  1  0  0  0  0
 12 27  2  0  0  0  0
 23 25  2  0  0  0  0
M  END
> <MOLFORMULA>
C20 H15 F4 N3 O2

> <MOLWEIGHT>
4.053495000000000e+002

> <IDNUMBER>
AT-687/PE26853

> <PRICE>
EUR 80/10 mg

> <Similarity score>
0.20

$$$$
