
  -OEChem-04222410502D

 18 20  0     0  0  0  0  0  0999 V2000
    5.9000    3.7833    0.0000 N   0  0  0  0  0  0  0  0  0  0  0  0
    4.8250    2.7500    0.0000 C   0  0  0  0  0  0  0  0  0  0  0  0
    7.2250    3.0833    0.0000 C   0  0  0  0  0  0  0  0  0  0  0  0
    6.9667    1.6083    0.0000 N   0  0  0  0  0  0  0  0  0  0  0  0
    5.4750    1.4000    0.0000 O   0  0  0  0  0  0  0  0  0  0  0  0
    3.3417    3.0000    0.0000 C   0  0  3  0  0  0  0  0  0  0  0  0
    8.5750    3.7375    0.0000 C   0  0  0  0  0  0  0  0  0  0  0  0
    0.7500    3.0000    0.0000 N   0  0  0  0  0  0  0  0  0  0  0  0
    2.0417    3.7500    0.0000 C   0  0  0  0  0  0  0  0  0  0  0  0
    3.8500    4.4000    0.0000 C   0  0  0  0  0  0  0  0  0  0  0  0
    3.3417    1.5000    0.0000 C   0  0  0  0  0  0  0  0  0  0  0  0
    0.7500    1.5000    0.0000 C   0  0  0  0  0  0  0  0  0  0  0  0
    9.8167    2.9000    0.0000 C   0  0  0  0  0  0  0  0  0  0  0  0
    8.6750    5.2167    0.0000 C   0  0  0  0  0  0  0  0  0  0  0  0
    2.0417    0.7500    0.0000 C   0  0  0  0  0  0  0  0  0  0  0  0
   11.1667    3.5583    0.0000 C   0  0  0  0  0  0  0  0  0  0  0  0
   10.0167    5.8792    0.0000 C   0  0  0  0  0  0  0  0  0  0  0  0
   11.2667    5.0417    0.0000 C   0  0  0  0  0  0  0  0  0  0  0  0
  1  2  2  0  0  0  0
  1  3  1  0  0  0  0
  3  4  2  0  0  0  0
  2  5  1  0  0  0  0
  2  6  1  0  0  0  0
  3  7  1  0  0  0  0
  8  9  1  0  0  0  0
  6  9  1  0  0  0  0
  6 10  1  0  0  0  0
  6 11  1  0  0  0  0
 12 15  1  0  0  0  0
  7 13  2  0  0  0  0
  7 14  1  0  0  0  0
 11 15  1  0  0  0  0
 13 16  1  0  0  0  0
 14 17  2  0  0  0  0
 17 18  1  0  0  0  0
  4  5  1  0  0  0  0
 16 18  2  0  0  0  0
  8 12  1  0  0  0  0
M  END
> <MOLFORMULA>
C14 H17 N3 O

> <MOLWEIGHT>
2.433083000000000e+002

> <IDNUMBER>
AT-687/PE31689

> <SALTDATA>
HCl

> <PRICE>
EUR 80/10 mg

> <Similarity score>
0.22

$$$$

  -OEChem-04222410502D

 18 20  0     0  0  0  0  0  0999 V2000
    3.8667   -4.3167    0.0000 N   0  0  0  0  0  0  0  0  0  0  0  0
    2.6167   -4.8167    0.0000 C   0  0  0  0  0  0  0  0  0  0  0  0
    3.7875   -2.9917    0.0000 C   0  0  0  0  0  0  0  0  0  0  0  0
    2.4917   -2.6542    0.0000 N   0  0  0  0  0  0  0  0  0  0  0  0
    1.7792   -3.7792    0.0000 O   0  0  0  0  0  0  0  0  0  0  0  0
    2.2792   -6.1042    0.0000 C   0  0  3  0  0  0  0  0  0  0  0  0
    4.8167   -2.1542    0.0000 C   0  0  0  0  0  0  0  0  0  0  0  0
    1.1292   -8.0917    0.0000 N   0  0  0  0  0  0  0  0  0  0  0  0
    2.2792   -7.4292    0.0000 C   0  0  0  0  0  0  0  0  0  0  0  0
    3.5667   -6.4417    0.0000 C   0  0  0  0  0  0  0  0  0  0  0  0
    1.1292   -5.4417    0.0000 C   0  0  0  0  0  0  0  0  0  0  0  0
    0.0000   -7.4292    0.0000 C   0  0  0  0  0  0  0  0  0  0  0  0
    6.0625   -2.6125    0.0000 C   0  0  0  0  0  0  0  0  0  0  0  0
    4.6000   -0.8417    0.0000 C   0  0  0  0  0  0  0  0  0  0  0  0
    0.0000   -6.1042    0.0000 C   0  0  0  0  0  0  0  0  0  0  0  0
    5.6167   -0.0000    0.0000 C   0  0  0  0  0  0  0  0  0  0  0  0
    7.0917   -1.7875    0.0000 C   0  0  0  0  0  0  0  0  0  0  0  0
    6.8750   -0.4542    0.0000 C   0  0  0  0  0  0  0  0  0  0  0  0
  1  2  2  0  0  0  0
  1  3  1  0  0  0  0
  3  4  2  0  0  0  0
  2  5  1  0  0  0  0
  2  6  1  0  0  0  0
  3  7  1  0  0  0  0
  8  9  1  0  0  0  0
  6  9  1  0  0  0  0
  6 10  1  0  0  0  0
  6 11  1  0  0  0  0
 12 15  1  0  0  0  0
  7 13  2  0  0  0  0
  7 14  1  0  0  0  0
 11 15  1  0  0  0  0
 14 16  2  0  0  0  0
 13 17  1  0  0  0  0
 16 18  1  0  0  0  0
  4  5  1  0  0  0  0
 17 18  2  0  0  0  0
  8 12  1  0  0  0  0
M  END
> <MOLFORMULA>
C14 H17 N3 O

> <MOLWEIGHT>
2.433083000000000e+002

> <IDNUMBER>
AT-687/NB08502

> <PRICE>
EUR 80/10 mg

> <Similarity score>
0.22

$$$$

  -OEChem-04222410502D

 18 20  0     0  0  0  0  0  0999 V2000
    6.2583   -5.1167    0.0000 N   0  0  0  0  0  0  0  0  0  0  0  0
    5.0167   -5.6083    0.0000 C   0  0  0  0  0  0  0  0  0  0  0  0
    6.1833   -3.7958    0.0000 C   0  0  0  0  0  0  0  0  0  0  0  0
    4.8917   -3.4500    0.0000 N   0  0  0  0  0  0  0  0  0  0  0  0
    4.1667   -4.5750    0.0000 O   0  0  0  0  0  0  0  0  0  0  0  0
    4.6708   -6.9000    0.0000 C   0  0  3  0  0  0  0  0  0  0  0  0
    7.2042   -2.9500    0.0000 C   0  0  0  0  0  0  0  0  0  0  0  0
    3.5208   -8.8958    0.0000 N   0  0  0  0  0  0  0  0  0  0  0  0
    4.6708   -8.2250    0.0000 C   0  0  0  0  0  0  0  0  0  0  0  0
    5.9583   -7.2458    0.0000 C   0  0  0  0  0  0  0  0  0  0  0  0
    3.5208   -6.2375    0.0000 C   0  0  0  0  0  0  0  0  0  0  0  0
    2.3917   -8.2250    0.0000 C   0  0  0  0  0  0  0  0  0  0  0  0
    6.9958   -1.6458    0.0000 C   0  0  0  0  0  0  0  0  0  0  0  0
    8.4583   -3.4125    0.0000 C   0  0  0  0  0  0  0  0  0  0  0  0
    2.3917   -6.9000    0.0000 C   0  0  0  0  0  0  0  0  0  0  0  0
    9.4833   -2.5750    0.0000 C   0  0  0  0  0  0  0  0  0  0  0  0
    8.0167   -0.7958    0.0000 C   0  0  0  0  0  0  0  0  0  0  0  0
    9.2708   -1.2625    0.0000 C   0  0  0  0  0  0  0  0  0  0  0  0
  1  2  2  0  0  0  0
  1  3  1  0  0  0  0
  3  4  2  0  0  0  0
  2  5  1  0  0  0  0
  2  6  1  0  0  0  0
  3  7  1  0  0  0  0
  8  9  1  0  0  0  0
  6  9  1  0  0  0  0
  6 10  1  0  0  0  0
  6 11  1  0  0  0  0
 12 15  1  0  0  0  0
  7 13  1  0  0  0  0
  7 14  2  0  0  0  0
 11 15  1  0  0  0  0
 14 16  1  0  0  0  0
 13 17  2  0  0  0  0
 17 18  1  0  0  0  0
  4  5  1  0  0  0  0
 16 18  2  0  0  0  0
  8 12  1  0  0  0  0
M  END
> <MOLFORMULA>
C14 H17 N3 O

> <MOLWEIGHT>
2.433083000000000e+002

> <IDNUMBER>
AT-687/NB00035

> <SALTDATA>
HCl

> <PRICE>
EUR 80/10 mg

> <Similarity score>
0.22

$$$$

  -OEChem-04222410502D

 11 12  0     0  0  0  0  0  0999 V2000
    3.4875   -2.1542    0.0000 C   0  0  0  0  0  0  0  0  0  0  0  0
    3.8917   -3.4250    0.0000 C   0  0  0  0  0  0  0  0  0  0  0  0
    2.1542   -2.1542    0.0000 C   0  0  0  0  0  0  0  0  0  0  0  0
    2.8292   -4.2042    0.0000 S   0  0  0  0  0  0  0  0  0  0  0  0
    1.7542   -3.4250    0.0000 C   0  0  0  0  0  0  0  0  0  0  0  0
    4.2667   -1.0792    0.0000 C   0  0  0  0  0  0  0  0  0  0  0  0
    5.0542   -0.0000    0.0000 N   0  0  0  0  0  0  0  0  0  0  0  0
    5.1542   -3.8292    0.0000 N   0  0  0  0  0  0  0  0  0  0  0  0
    1.0792   -1.3792    0.0000 C   0  0  0  0  0  0  0  0  0  0  0  0
    0.4167   -3.4250    0.0000 C   0  0  0  0  0  0  0  0  0  0  0  0
    0.0000   -2.1750    0.0000 C   0  0  0  0  0  0  0  0  0  0  0  0
  1  2  2  0  0  0  0
  1  3  1  0  0  0  0
  2  4  1  0  0  0  0
  3  5  2  0  0  0  0
  1  6  1  0  0  0  0
  6  7  3  0  0  0  0
  2  8  1  0  0  0  0
  3  9  1  0  0  0  0
  5 10  1  0  0  0  0
  9 11  1  0  0  0  0
  4  5  1  0  0  0  0
 10 11  1  0  0  0  0
M  END
> <MOLFORMULA>
C8 H8 N2 S

> <MOLWEIGHT>
1.642312000000000e+002

> <IDNUMBER>
AT-687/NB01828

> <PRICE>
EUR 80/10 mg

> <Similarity score>
0.21

$$$$

  -OEChem-04222410502D

 11 12  0     0  0  0  0  0  0999 V2000
   -0.5542   -0.3542    0.0000 C   0  0  0  0  0  0  0  0  0  0  0  0
   -0.9625    0.5583    0.0000 C   0  0  0  0  0  0  0  0  0  0  0  0
    0.4417   -0.2500    0.0000 C   0  0  0  0  0  0  0  0  0  0  0  0
   -0.2167    1.2250    0.0000 S   0  0  0  0  0  0  0  0  0  0  0  0
    0.6500    0.7250    0.0000 C   0  0  0  0  0  0  0  0  0  0  0  0
   -1.0542   -1.2208    0.0000 C   0  0  0  0  0  0  0  0  0  0  0  0
   -2.0542   -1.2208    0.0000 N   0  0  0  0  0  0  0  0  0  0  0  0
   -1.9375    0.7667    0.0000 N   0  0  0  0  0  0  0  0  0  0  0  0
    1.3083   -0.7500    0.0000 C   0  0  0  0  0  0  0  0  0  0  0  0
    1.6417    0.8292    0.0000 C   0  0  0  0  0  0  0  0  0  0  0  0
    2.0500   -0.0833    0.0000 C   0  0  0  0  0  0  0  0  0  0  0  0
  1  2  2  0  0  0  0
  1  3  1  0  0  0  0
  2  4  1  0  0  0  0
  3  5  2  0  0  0  0
  1  6  1  0  0  0  0
  6  7  3  0  0  0  0
  2  8  1  0  0  0  0
  3  9  1  0  0  0  0
  5 10  1  0  0  0  0
  9 11  1  0  0  0  0
  4  5  1  0  0  0  0
 10 11  1  0  0  0  0
M  END
> <MOLFORMULA>
C8 H8 N2 S

> <MOLWEIGHT>
1.642312000000000e+002

> <IDNUMBER>
AN-153/I105018

> <PRICE>
EUR 130/10 mg

> <Similarity score>
0.21

$$$$

  -OEChem-04222410502D

 11 12  0     0  0  0  0  0  0999 V2000
    3.0667   -2.4667    0.0000 C   0  0  0  0  0  0  0  0  0  0  0  0
    2.4167   -3.6417    0.0000 C   0  0  0  0  0  0  0  0  0  0  0  0
    2.1542   -1.5125    0.0000 C   0  0  0  0  0  0  0  0  0  0  0  0
    1.1250   -3.4167    0.0000 S   0  0  0  0  0  0  0  0  0  0  0  0
    0.9375   -2.1042    0.0000 C   0  0  0  0  0  0  0  0  0  0  0  0
    4.3875   -2.2792    0.0000 C   0  0  0  0  0  0  0  0  0  0  0  0
    5.7000   -2.1000    0.0000 N   0  0  0  0  0  0  0  0  0  0  0  0
    3.0125   -4.8417    0.0000 N   0  0  0  0  0  0  0  0  0  0  0  0
    1.9417   -0.2042    0.0000 C   0  0  0  0  0  0  0  0  0  0  0  0
    0.0000   -1.1542    0.0000 C   0  0  0  0  0  0  0  0  0  0  0  0
    0.6167   -0.0000    0.0000 C   0  0  0  0  0  0  0  0  0  0  0  0
  1  2  2  0  0  0  0
  1  3  1  0  0  0  0
  2  4  1  0  0  0  0
  3  5  2  0  0  0  0
  1  6  1  0  0  0  0
  6  7  3  0  0  0  0
  2  8  1  0  0  0  0
  3  9  1  0  0  0  0
  5 10  1  0  0  0  0
  9 11  1  0  0  0  0
  4  5  1  0  0  0  0
 10 11  1  0  0  0  0
M  END
> <MOLFORMULA>
C8 H8 N2 S

> <MOLWEIGHT>
1.642312000000000e+002

> <IDNUMBER>
AT-084/J157520

> <PRICE>
EUR 37.00/10 mg

> <Similarity score>
0.21

$$$$

  -OEChem-04222410502D

 11 12  0     0  0  0  0  0  0999 V2000
    5.9500   -3.8167    0.0000 C   0  0  0  0  0  0  0  0  0  0  0  0
    6.2000   -4.6000    0.0000 C   0  0  0  0  0  0  0  0  0  0  0  0
    5.1250   -3.8167    0.0000 C   0  0  0  0  0  0  0  0  0  0  0  0
    5.5500   -5.0792    0.0000 S   0  0  0  0  0  0  0  0  0  0  0  0
    4.8750   -4.6000    0.0000 C   0  0  0  0  0  0  0  0  0  0  0  0
    6.4417   -3.1500    0.0000 C   0  0  0  0  0  0  0  0  0  0  0  0
    6.9250   -2.4750    0.0000 N   0  0  0  0  0  0  0  0  0  0  0  0
    6.9917   -4.8500    0.0000 N   0  0  0  0  0  0  0  0  0  0  0  0
    4.4542   -3.3292    0.0000 C   0  0  0  0  0  0  0  0  0  0  0  0
    4.0500   -4.6000    0.0000 C   0  0  0  0  0  0  0  0  0  0  0  0
    3.7917   -3.8250    0.0000 C   0  0  0  0  0  0  0  0  0  0  0  0
  1  2  2  0  0  0  0
  1  3  1  0  0  0  0
  2  4  1  0  0  0  0
  3  5  2  0  0  0  0
  1  6  1  0  0  0  0
  6  7  3  0  0  0  0
  2  8  1  0  0  0  0
  3  9  1  0  0  0  0
  5 10  1  0  0  0  0
  9 11  1  0  0  0  0
  4  5  1  0  0  0  0
 10 11  1  0  0  0  0
M  END
> <MOLFORMULA>
C8 H8 N2 S

> <MOLWEIGHT>
1.642312000000000e+002

> <IDNUMBER>
AT-687/PE32837

> <PRICE>
EUR 80/10 mg

> <Similarity score>
0.21

$$$$

  -OEChem-04222410502D

 11 12  0     0  0  0  0  0  0999 V2000
    0.1000    1.0958    0.0000 C   0  0  0  0  0  0  0  0  0  0  0  0
    0.3167    0.4125    0.0000 C   0  0  0  0  0  0  0  0  0  0  0  0
   -0.6208    1.0958    0.0000 C   0  0  0  0  0  0  0  0  0  0  0  0
   -0.2625   -0.0042    0.0000 S   0  0  0  0  0  0  0  0  0  0  0  0
   -0.8458    0.4125    0.0000 C   0  0  0  0  0  0  0  0  0  0  0  0
    0.5167    1.6958    0.0000 C   0  0  0  0  0  0  0  0  0  0  0  0
    0.9375    2.2708    0.0000 N   0  0  0  0  0  0  0  0  0  0  0  0
    1.0167    0.1958    0.0000 N   0  0  0  0  0  0  0  0  0  0  0  0
   -1.2000    1.4958    0.0000 C   0  0  0  0  0  0  0  0  0  0  0  0
   -1.5458    0.3958    0.0000 C   0  0  0  0  0  0  0  0  0  0  0  0
   -1.7625    1.0500    0.0000 C   0  0  0  0  0  0  0  0  0  0  0  0
  1  2  2  0  0  0  0
  1  3  1  0  0  0  0
  2  4  1  0  0  0  0
  3  5  2  0  0  0  0
  1  6  1  0  0  0  0
  6  7  3  0  0  0  0
  2  8  1  0  0  0  0
  3  9  1  0  0  0  0
  5 10  1  0  0  0  0
  9 11  1  0  0  0  0
  4  5  1  0  0  0  0
 10 11  1  0  0  0  0
M  END
> <MOLFORMULA>
C8 H8 N2 S

> <MOLWEIGHT>
1.642312000000000e+002

> <IDNUMBER>
AT-225/JK21174

> <PRICE>
EUR 140/10 mg

> <Similarity score>
0.21

$$$$

  -OEChem-04222410502D

 12 13  0     0  0  0  0  0  0999 V2000
    2.7917   -1.2292    0.0000 C   0  0  0  0  0  0  0  0  0  0  0  0
    3.2750   -1.8917    0.0000 C   0  0  0  0  0  0  0  0  0  0  0  0
    2.0000   -1.4917    0.0000 C   0  0  0  0  0  0  0  0  0  0  0  0
    2.8000   -2.5667    0.0000 S   0  0  0  0  0  0  0  0  0  0  0  0
    2.0167   -2.3167    0.0000 C   0  0  0  0  0  0  0  0  0  0  0  0
    3.0417   -0.4500    0.0000 C   0  0  0  0  0  0  0  0  0  0  0  0
    3.2500    0.3500    0.0000 N   0  0  0  0  0  0  0  0  0  0  0  0
    4.1000   -1.8917    0.0000 N   0  0  0  0  0  0  0  0  0  0  0  0
    1.3000   -1.0750    0.0000 C   0  0  0  0  0  0  0  0  0  0  0  0
    1.3000   -2.7250    0.0000 C   0  0  0  0  0  0  0  0  0  0  0  0
    0.5917   -1.4917    0.0000 C   0  0  0  0  0  0  0  0  0  0  0  0
    0.5917   -2.3167    0.0000 C   0  0  0  0  0  0  0  0  0  0  0  0
  1  2  2  0  0  0  0
  1  3  1  0  0  0  0
  2  4  1  0  0  0  0
  3  5  2  0  0  0  0
  1  6  1  0  0  0  0
  6  7  3  0  0  0  0
  2  8  1  0  0  0  0
  3  9  1  0  0  0  0
  5 10  1  0  0  0  0
  9 11  1  0  0  0  0
 11 12  1  0  0  0  0
  4  5  1  0  0  0  0
 10 12  1  0  0  0  0
M  END
> <MOLFORMULA>
C9 H10 N2 S

> <MOLWEIGHT>
1.782580000000000e+002

> <IDNUMBER>
AT-687/PE31884

> <PRICE>
EUR 80/10 mg

> <Similarity score>
0.21

$$$$

  -OEChem-04222410502D

 12 13  0     0  0  0  0  0  0999 V2000
    6.2292   -7.9292    0.0000 C   0  0  0  0  0  0  0  0  0  0  0  0
    6.4875   -8.7167    0.0000 C   0  0  0  0  0  0  0  0  0  0  0  0
    5.4042   -7.9292    0.0000 C   0  0  0  0  0  0  0  0  0  0  0  0
    5.8167   -9.2000    0.0000 S   0  0  0  0  0  0  0  0  0  0  0  0
    5.1500   -8.7167    0.0000 C   0  0  0  0  0  0  0  0  0  0  0  0
    6.7167   -7.2625    0.0000 C   0  0  0  0  0  0  0  0  0  0  0  0
    7.2000   -6.5917    0.0000 N   0  0  0  0  0  0  0  0  0  0  0  0
    7.2667   -8.9750    0.0000 N   0  0  0  0  0  0  0  0  0  0  0  0
    4.8542   -7.3167    0.0000 C   0  0  0  0  0  0  0  0  0  0  0  0
    4.3417   -8.8917    0.0000 C   0  0  0  0  0  0  0  0  0  0  0  0
    4.0417   -7.4875    0.0000 C   0  0  0  0  0  0  0  0  0  0  0  0
    3.7875   -8.2750    0.0000 C   0  0  0  0  0  0  0  0  0  0  0  0
  1  2  2  0  0  0  0
  1  3  1  0  0  0  0
  2  4  1  0  0  0  0
  3  5  2  0  0  0  0
  1  6  1  0  0  0  0
  6  7  3  0  0  0  0
  2  8  1  0  0  0  0
  3  9  1  0  0  0  0
  5 10  1  0  0  0  0
  9 11  1  0  0  0  0
 11 12  1  0  0  0  0
  4  5  1  0  0  0  0
 10 12  1  0  0  0  0
M  END
> <MOLFORMULA>
C9 H10 N2 S

> <MOLWEIGHT>
1.782580000000000e+002

> <IDNUMBER>
AP-853/J242318

> <Similarity score>
0.21

$$$$

  -OEChem-04222410502D

 12 13  0     0  0  0  0  0  0999 V2000
   -0.7000   -0.3542    0.0000 C   0  0  0  0  0  0  0  0  0  0  0  0
   -1.1083    0.5583    0.0000 C   0  0  0  0  0  0  0  0  0  0  0  0
    0.2958   -0.2500    0.0000 C   0  0  0  0  0  0  0  0  0  0  0  0
   -0.3625    1.2250    0.0000 S   0  0  0  0  0  0  0  0  0  0  0  0
    0.5042    0.7250    0.0000 C   0  0  0  0  0  0  0  0  0  0  0  0
   -1.2000   -1.2208    0.0000 C   0  0  0  0  0  0  0  0  0  0  0  0
   -2.2000   -1.2208    0.0000 N   0  0  0  0  0  0  0  0  0  0  0  0
   -2.0833    0.7667    0.0000 N   0  0  0  0  0  0  0  0  0  0  0  0
    1.0375   -0.9208    0.0000 C   0  0  0  0  0  0  0  0  0  0  0  0
    1.4542    1.0375    0.0000 C   0  0  0  0  0  0  0  0  0  0  0  0
    1.9875   -0.6125    0.0000 C   0  0  0  0  0  0  0  0  0  0  0  0
    2.1958    0.3667    0.0000 C   0  0  0  0  0  0  0  0  0  0  0  0
  1  2  2  0  0  0  0
  1  3  1  0  0  0  0
  2  4  1  0  0  0  0
  3  5  2  0  0  0  0
  1  6  1  0  0  0  0
  6  7  3  0  0  0  0
  2  8  1  0  0  0  0
  3  9  1  0  0  0  0
  5 10  1  0  0  0  0
  9 11  1  0  0  0  0
 11 12  1  0  0  0  0
  4  5  1  0  0  0  0
 10 12  1  0  0  0  0
M  END
> <MOLFORMULA>
C9 H10 N2 S

> <MOLWEIGHT>
1.782580000000000e+002

> <IDNUMBER>
AN-153/I100232

> <PRICE>
EUR 130/10 mg

> <Similarity score>
0.21

$$$$

  -OEChem-04222410502D

 12 13  0     0  0  0  0  0  0999 V2000
    4.0542   -2.1250    0.0000 C   0  0  0  0  0  0  0  0  0  0  0  0
    4.0542   -2.8750    0.0000 C   0  0  0  0  0  0  0  0  0  0  0  0
    2.7542   -2.1250    0.0000 C   0  0  0  0  0  0  0  0  0  0  0  0
    3.4042   -3.2500    0.0000 S   0  0  0  0  0  0  0  0  0  0  0  0
    2.7542   -2.8750    0.0000 C   0  0  0  0  0  0  0  0  0  0  0  0
    4.5875   -1.5917    0.0000 C   0  0  0  0  0  0  0  0  0  0  0  0
    5.1167   -1.0625    0.0000 N   0  0  0  0  0  0  0  0  0  0  0  0
    4.7042   -3.2500    0.0000 N   0  0  0  0  0  0  0  0  0  0  0  0
    2.1042   -1.7500    0.0000 C   0  0  0  0  0  0  0  0  0  0  0  0
    2.1042   -3.2500    0.0000 C   0  0  0  0  0  0  0  0  0  0  0  0
    1.4625   -2.1250    0.0000 C   0  0  0  0  0  0  0  0  0  0  0  0
    1.4625   -2.8750    0.0000 C   0  0  0  0  0  0  0  0  0  0  0  0
  1  2  2  0  0  0  0
  1  3  1  0  0  0  0
  2  4  1  0  0  0  0
  3  5  2  0  0  0  0
  1  6  1  0  0  0  0
  6  7  3  0  0  0  0
  2  8  1  0  0  0  0
  3  9  1  0  0  0  0
  5 10  1  0  0  0  0
  9 11  1  0  0  0  0
 11 12  1  0  0  0  0
  4  5  1  0  0  0  0
 10 12  1  0  0  0  0
M  END
> <MOLFORMULA>
C9 H10 N2 S

> <MOLWEIGHT>
1.782580000000000e+002

> <IDNUMBER>
AT-819/OC00072

> <PRICE>
EUR 128/10 mg

> <Similarity score>
0.21

$$$$

  -OEChem-04222410502D

 12 13  0     0  0  0  0  0  0999 V2000
    3.5667   -2.5167    0.0000 C   0  0  0  0  0  0  0  0  0  0  0  0
    4.3375   -3.5917    0.0000 C   0  0  0  0  0  0  0  0  0  0  0  0
    2.3292   -2.9167    0.0000 C   0  0  0  0  0  0  0  0  0  0  0  0
    3.5792   -4.6750    0.0000 S   0  0  0  0  0  0  0  0  0  0  0  0
    2.3292   -4.2542    0.0000 C   0  0  0  0  0  0  0  0  0  0  0  0
    4.0000   -1.2542    0.0000 C   0  0  0  0  0  0  0  0  0  0  0  0
    4.4375   -0.0000    0.0000 N   0  0  0  0  0  0  0  0  0  0  0  0
    5.6792   -3.5500    0.0000 N   0  0  0  0  0  0  0  0  0  0  0  0
    1.1500   -2.2875    0.0000 C   0  0  0  0  0  0  0  0  0  0  0  0
    1.1750   -4.9292    0.0000 C   0  0  0  0  0  0  0  0  0  0  0  0
    0.0000   -2.9375    0.0000 C   0  0  0  0  0  0  0  0  0  0  0  0
    0.0000   -4.2667    0.0000 C   0  0  0  0  0  0  0  0  0  0  0  0
  1  2  2  0  0  0  0
  1  3  1  0  0  0  0
  2  4  1  0  0  0  0
  3  5  2  0  0  0  0
  1  6  1  0  0  0  0
  6  7  3  0  0  0  0
  2  8  1  0  0  0  0
  3  9  1  0  0  0  0
  5 10  1  0  0  0  0
  9 11  1  0  0  0  0
 11 12  1  0  0  0  0
  4  5  1  0  0  0  0
 10 12  1  0  0  0  0
M  END
> <MOLFORMULA>
C9 H10 N2 S

> <MOLWEIGHT>
1.782580000000000e+002

> <IDNUMBER>
AT-084/J157521

> <PRICE>
EUR 37.00/10 mg

> <Similarity score>
0.21

$$$$

  -OEChem-04222410502D

 12 13  0     0  0  0  0  0  0999 V2000
    3.5500   -2.5625    0.0000 C   0  0  0  0  0  0  0  0  0  0  0  0
    4.3375   -3.6167    0.0000 C   0  0  0  0  0  0  0  0  0  0  0  0
    2.2792   -2.9750    0.0000 C   0  0  0  0  0  0  0  0  0  0  0  0
    3.5667   -4.7125    0.0000 S   0  0  0  0  0  0  0  0  0  0  0  0
    2.3000   -4.3042    0.0000 C   0  0  0  0  0  0  0  0  0  0  0  0
    3.9542   -1.2917    0.0000 C   0  0  0  0  0  0  0  0  0  0  0  0
    4.2917   -0.0000    0.0000 N   0  0  0  0  0  0  0  0  0  0  0  0
    5.6667   -3.6167    0.0000 N   0  0  0  0  0  0  0  0  0  0  0  0
    1.1417   -2.3042    0.0000 C   0  0  0  0  0  0  0  0  0  0  0  0
    1.1417   -4.9667    0.0000 C   0  0  0  0  0  0  0  0  0  0  0  0
    0.0000   -2.9750    0.0000 C   0  0  0  0  0  0  0  0  0  0  0  0
    0.0000   -4.3042    0.0000 C   0  0  0  0  0  0  0  0  0  0  0  0
  1  2  2  0  0  0  0
  1  3  1  0  0  0  0
  2  4  1  0  0  0  0
  3  5  2  0  0  0  0
  1  6  1  0  0  0  0
  6  7  3  0  0  0  0
  2  8  1  0  0  0  0
  3  9  1  0  0  0  0
  5 10  1  0  0  0  0
  9 11  1  0  0  0  0
 11 12  1  0  0  0  0
  4  5  1  0  0  0  0
 10 12  1  0  0  0  0
M  END
> <MOLFORMULA>
C9 H10 N2 S

> <MOLWEIGHT>
1.782580000000000e+002

> <IDNUMBER>
AT-687/NB00447

> <PRICE>
EUR 80/10 mg

> <Similarity score>
0.21

$$$$

  -OEChem-04222410502D

 13 14  0     0  0  0  0  0  0999 V2000
    0.2292    0.0458    0.0000 C   0  0  0  0  0  0  0  0  0  0  0  0
    0.5667   -1.0375    0.0000 C   0  0  0  0  0  0  0  0  0  0  0  0
   -0.9625    0.0458    0.0000 C   0  0  0  0  0  0  0  0  0  0  0  0
   -0.3125   -1.7292    0.0000 S   0  0  0  0  0  0  0  0  0  0  0  0
   -1.2958   -1.0542    0.0000 C   0  0  0  0  0  0  0  0  0  0  0  0
    0.9292    0.9208    0.0000 C   0  0  0  0  0  0  0  0  0  0  0  0
    1.6375    1.8208    0.0000 N   0  0  0  0  0  0  0  0  0  0  0  0
    1.6542   -1.3875    0.0000 N   0  0  0  0  0  0  0  0  0  0  0  0
   -1.5958    0.9708    0.0000 C   0  0  0  0  0  0  0  0  0  0  0  0
   -2.3625   -1.4792    0.0000 C   0  0  0  0  0  0  0  0  0  0  0  0
   -2.7458    1.0958    0.0000 C   0  0  0  0  0  0  0  0  0  0  0  0
   -3.3500   -0.8667    0.0000 C   0  0  0  0  0  0  0  0  0  0  0  0
   -3.5208    0.2625    0.0000 C   0  0  0  0  0  0  0  0  0  0  0  0
  1  2  2  0  0  0  0
  1  3  1  0  0  0  0
  2  4  1  0  0  0  0
  3  5  2  0  0  0  0
  1  6  1  0  0  0  0
  6  7  3  0  0  0  0
  2  8  1  0  0  0  0
  3  9  1  0  0  0  0
  5 10  1  0  0  0  0
  9 11  1  0  0  0  0
 10 12  1  0  0  0  0
 11 13  1  0  0  0  0
  4  5  1  0  0  0  0
 12 13  1  0  0  0  0
M  END
> <MOLFORMULA>
C10 H12 N2 S

> <MOLWEIGHT>
1.922848000000000e+002

> <IDNUMBER>
AT-225/JK21285

> <PRICE>
EUR 140/10 mg

> <Similarity score>
0.21

$$$$

  -OEChem-04222410502D

 13 14  0     0  0  0  0  0  0999 V2000
    2.1167   -2.5750    0.0000 C   0  0  0  0  0  0  0  0  0  0  0  0
    1.3292   -1.5000    0.0000 C   0  0  0  0  0  0  0  0  0  0  0  0
    3.3667   -2.1667    0.0000 C   0  0  0  0  0  0  0  0  0  0  0  0
    2.1167   -0.4167    0.0000 S   0  0  0  0  0  0  0  0  0  0  0  0
    3.3667   -0.8417    0.0000 C   0  0  0  0  0  0  0  0  0  0  0  0
    1.7000   -3.8375    0.0000 C   0  0  0  0  0  0  0  0  0  0  0  0
    1.2875   -5.1042    0.0000 N   0  0  0  0  0  0  0  0  0  0  0  0
    0.0000   -1.5000    0.0000 N   0  0  0  0  0  0  0  0  0  0  0  0
    4.4042   -2.9875    0.0000 C   0  0  0  0  0  0  0  0  0  0  0  0
    4.4042   -0.0000    0.0000 C   0  0  0  0  0  0  0  0  0  0  0  0
    5.7042   -2.6917    0.0000 C   0  0  0  0  0  0  0  0  0  0  0  0
    5.7042   -0.3000    0.0000 C   0  0  0  0  0  0  0  0  0  0  0  0
    6.2792   -1.5000    0.0000 C   0  0  0  0  0  0  0  0  0  0  0  0
  1  2  2  0  0  0  0
  1  3  1  0  0  0  0
  2  4  1  0  0  0  0
  3  5  2  0  0  0  0
  1  6  1  0  0  0  0
  6  7  3  0  0  0  0
  2  8  1  0  0  0  0
  3  9  1  0  0  0  0
  5 10  1  0  0  0  0
  9 11  1  0  0  0  0
 10 12  1  0  0  0  0
 11 13  1  0  0  0  0
  4  5  1  0  0  0  0
 12 13  1  0  0  0  0
M  END
> <MOLFORMULA>
C10 H12 N2 S

> <MOLWEIGHT>
1.922848000000000e+002

> <IDNUMBER>
AT-687/SK12402

> <PRICE>
EUR 80/10 mg

> <Similarity score>
0.21

$$$$

  -OEChem-04222410502D

 13 14  0     0  0  0  0  0  0999 V2000
   -2.4625   -0.0167    0.0000 C   0  0  0  0  0  0  0  0  0  0  0  0
   -2.0833   -0.5375    0.0000 C   0  0  0  0  0  0  0  0  0  0  0  0
   -3.0833   -0.2167    0.0000 C   0  0  0  0  0  0  0  0  0  0  0  0
   -2.4625   -1.0792    0.0000 S   0  0  0  0  0  0  0  0  0  0  0  0
   -3.0833   -0.8792    0.0000 C   0  0  0  0  0  0  0  0  0  0  0  0
   -2.2458    0.6458    0.0000 C   0  0  0  0  0  0  0  0  0  0  0  0
   -2.0458    1.2833    0.0000 N   0  0  0  0  0  0  0  0  0  0  0  0
   -1.4208   -0.5375    0.0000 N   0  0  0  0  0  0  0  0  0  0  0  0
   -3.5833    0.2000    0.0000 C   0  0  0  0  0  0  0  0  0  0  0  0
   -3.5833   -1.2792    0.0000 C   0  0  0  0  0  0  0  0  0  0  0  0
   -4.2208    0.0625    0.0000 C   0  0  0  0  0  0  0  0  0  0  0  0
   -4.2208   -1.1375    0.0000 C   0  0  0  0  0  0  0  0  0  0  0  0
   -4.5000   -0.5167    0.0000 C   0  0  0  0  0  0  0  0  0  0  0  0
  1  2  2  0  0  0  0
  1  3  1  0  0  0  0
  2  4  1  0  0  0  0
  3  5  2  0  0  0  0
  1  6  1  0  0  0  0
  6  7  3  0  0  0  0
  2  8  1  0  0  0  0
  3  9  1  0  0  0  0
  5 10  1  0  0  0  0
  9 11  1  0  0  0  0
 10 12  1  0  0  0  0
 11 13  1  0  0  0  0
  4  5  1  0  0  0  0
 12 13  1  0  0  0  0
M  END
> <MOLFORMULA>
C10 H12 N2 S

> <MOLWEIGHT>
1.922848000000000e+002

> <IDNUMBER>
AT-225/JK15582

> <PRICE>
EUR 140/10 mg

> <Similarity score>
0.21

$$$$

  -OEChem-04222410502D

 14 15  0     0  0  0  0  0  0999 V2000
    1.8167   -0.0292    0.0000 C   0  0  0  0  0  0  0  0  0  0  0  0
    1.2167   -0.8875    0.0000 C   0  0  0  0  0  0  0  0  0  0  0  0
    2.8000   -0.3500    0.0000 C   0  0  0  0  0  0  0  0  0  0  0  0
    1.8167   -1.7042    0.0000 S   0  0  0  0  0  0  0  0  0  0  0  0
    2.8000   -1.3875    0.0000 C   0  0  0  0  0  0  0  0  0  0  0  0
    1.5000    0.9708    0.0000 C   0  0  0  0  0  0  0  0  0  0  0  0
    1.1792    1.9708    0.0000 N   0  0  0  0  0  0  0  0  0  0  0  0
    0.1792   -0.8875    0.0000 N   0  0  0  0  0  0  0  0  0  0  0  0
    3.5375    0.3958    0.0000 C   0  0  0  0  0  0  0  0  0  0  0  0
    3.5375   -2.1292    0.0000 C   0  0  0  0  0  0  0  0  0  0  0  0
    4.5542    0.3958    0.0000 C   0  0  0  0  0  0  0  0  0  0  0  0
    4.5542   -2.1292    0.0000 C   0  0  0  0  0  0  0  0  0  0  0  0
    5.2792   -1.3875    0.0000 C   0  0  0  0  0  0  0  0  0  0  0  0
    5.2792   -0.3500    0.0000 C   0  0  0  0  0  0  0  0  0  0  0  0
  1  2  2  0  0  0  0
  1  3  1  0  0  0  0
  2  4  1  0  0  0  0
  3  5  2  0  0  0  0
  1  6  1  0  0  0  0
  6  7  3  0  0  0  0
  2  8  1  0  0  0  0
  3  9  1  0  0  0  0
  5 10  1  0  0  0  0
  9 11  1  0  0  0  0
 10 12  1  0  0  0  0
 13 14  1  0  0  0  0
 11 14  1  0  0  0  0
  4  5  1  0  0  0  0
 12 13  1  0  0  0  0
M  END
> <MOLFORMULA>
C11 H14 N2 S

> <MOLWEIGHT>
2.063116000000000e+002

> <IDNUMBER>
AT-225/JK15581

> <PRICE>
EUR 140/10 mg

> <Similarity score>
0.21

$$$$

  -OEChem-04222410502D

 26 29  0     0  0  0  0  0  0999 V2000
    4.6250   -2.4667    0.0000 N   0  0  0  0  0  0  0  0  0  0  0  0
    5.4167   -3.5500    0.0000 C   0  0  0  0  0  0  0  0  0  0  0  0
    3.3500   -2.8750    0.0000 C   0  0  0  0  0  0  0  0  0  0  0  0
    6.7500   -3.5500    0.0000 C   0  0  3  0  0  0  0  0  0  0  0  0
    8.9542   -4.1250    0.0000 N   0  0  3  0  0  0  0  0  0  0  0  0
    3.3500   -4.2042    0.0000 N   0  0  0  0  0  0  0  0  0  0  0  0
   10.2500   -3.7917    0.0000 C   0  0  0  0  0  0  0  0  0  0  0  0
    4.6250   -4.6042    0.0000 O   0  0  0  0  0  0  0  0  0  0  0  0
    8.0167   -3.2000    0.0000 C   0  0  0  0  0  0  0  0  0  0  0  0
   11.1917   -4.7250    0.0000 C   0  0  0  0  0  0  0  0  0  0  0  0
   10.8500   -6.0250    0.0000 N   0  0  0  0  0  0  0  0  0  0  0  0
   10.5792   -2.5000    0.0000 O   0  0  0  0  0  0  0  0  0  0  0  0
    2.2917   -2.0917    0.0000 C   0  0  0  0  0  0  0  0  0  0  0  0
   13.4167   -5.3292    0.0000 N   0  0  0  0  0  0  0  0  0  0  0  0
    8.6250   -5.4250    0.0000 C   0  0  0  0  0  0  0  0  0  0  0  0
    6.4000   -4.8250    0.0000 C   0  0  0  0  0  0  0  0  0  0  0  0
   12.4750   -4.4000    0.0000 C   0  0  0  0  0  0  0  0  0  0  0  0
    7.2417   -2.3167    0.0000 C   0  0  0  0  0  0  0  0  0  0  0  0
    7.3250   -5.7667    0.0000 C   0  0  0  0  0  0  0  0  0  0  0  0
   11.7917   -6.9542    0.0000 C   0  0  0  0  0  0  0  0  0  0  0  0
   13.0667   -6.6042    0.0000 C   0  0  0  0  0  0  0  0  0  0  0  0
    1.0667   -2.6417    0.0000 C   0  0  0  0  0  0  0  0  0  0  0  0
    2.4250   -0.7750    0.0000 C   0  0  0  0  0  0  0  0  0  0  0  0
    1.3417   -0.0000    0.0000 C   0  0  0  0  0  0  0  0  0  0  0  0
    0.0000   -1.8542    0.0000 C   0  0  0  0  0  0  0  0  0  0  0  0
    0.1250   -0.5167    0.0000 C   0  0  0  0  0  0  0  0  0  0  0  0
  1  2  2  0  0  0  0
  1  3  1  0  0  0  0
  2  4  1  0  0  0  0
  5  9  1  0  0  0  0
  3  6  2  0  0  0  0
  5  7  1  0  0  0  0
  2  8  1  0  0  0  0
  4  9  1  0  0  0  0
  7 10  1  0  0  0  0
 10 11  1  0  0  0  0
  7 12  2  0  0  0  0
  3 13  1  0  0  0  0
 14 17  1  0  0  0  0
 15 19  1  0  0  0  0
  4 16  1  0  0  0  0
 10 17  2  0  0  0  0
  4 18  1  0  0  0  0
 16 19  1  0  0  0  0
 11 20  2  0  0  0  0
 14 21  2  0  0  0  0
 13 22  2  0  0  0  0
 13 23  1  0  0  0  0
 23 24  2  0  0  0  0
 22 25  1  0  0  0  0
 24 26  1  0  0  0  0
  6  8  1  0  0  0  0
 25 26  2  0  0  0  0
  5 15  1  0  0  0  0
 20 21  1  0  0  0  0
M  END
> <MOLFORMULA>
C19 H19 N5 O2

> <MOLWEIGHT>
3.493921000000000e+002

> <IDNUMBER>
AT-687/PE19329

> <PRICE>
EUR 80/10 mg

> <Similarity score>
0.21

$$$$

  -OEChem-04222410502D

 26 29  0     0  0  0  0  0  0999 V2000
    4.3125   -3.0625    0.0000 N   0  0  0  0  0  0  0  0  0  0  0  0
    4.7917   -2.4000    0.0000 C   0  0  0  0  0  0  0  0  0  0  0  0
    3.5292   -2.8167    0.0000 C   0  0  0  0  0  0  0  0  0  0  0  0
    5.6167   -2.4000    0.0000 C   0  0  3  0  0  0  0  0  0  0  0  0
    3.5292   -1.9875    0.0000 N   0  0  0  0  0  0  0  0  0  0  0  0
    7.0042   -2.0292    0.0000 N   0  0  3  0  0  0  0  0  0  0  0  0
    4.3125   -1.7292    0.0000 O   0  0  0  0  0  0  0  0  0  0  0  0
    7.7917   -2.2375    0.0000 C   0  0  0  0  0  0  0  0  0  0  0  0
    6.4167   -2.6125    0.0000 C   0  0  0  0  0  0  0  0  0  0  0  0
    9.1792   -1.8750    0.0000 N   0  0  3  0  0  0  0  0  0  0  0  0
   10.3042   -2.6000    0.0000 N   0  0  0  0  0  0  0  0  0  0  0  0
    9.4792   -2.6417    0.0000 C   0  0  0  0  0  0  0  0  0  0  0  0
    8.3792   -1.6625    0.0000 C   0  0  0  0  0  0  0  0  0  0  0  0
   10.5167   -1.8042    0.0000 C   0  0  0  0  0  0  0  0  0  0  0  0
    9.8167   -1.3542    0.0000 C   0  0  0  0  0  0  0  0  0  0  0  0
    2.8542   -3.3000    0.0000 C   0  0  0  0  0  0  0  0  0  0  0  0
    8.0125   -3.0417    0.0000 O   0  0  0  0  0  0  0  0  0  0  0  0
    5.4125   -1.6000    0.0000 C   0  0  0  0  0  0  0  0  0  0  0  0
    5.9375   -3.1667    0.0000 C   0  0  0  0  0  0  0  0  0  0  0  0
    6.7875   -1.2292    0.0000 C   0  0  0  0  0  0  0  0  0  0  0  0
    5.9917   -1.0167    0.0000 C   0  0  0  0  0  0  0  0  0  0  0  0
    2.1042   -2.9625    0.0000 C   0  0  0  0  0  0  0  0  0  0  0  0
    2.9417   -4.1167    0.0000 C   0  0  0  0  0  0  0  0  0  0  0  0
    2.2792   -4.6000    0.0000 C   0  0  0  0  0  0  0  0  0  0  0  0
    1.4292   -3.4417    0.0000 C   0  0  0  0  0  0  0  0  0  0  0  0
    1.5167   -4.2667    0.0000 C   0  0  0  0  0  0  0  0  0  0  0  0
  1  2  2  0  0  0  0
  1  3  1  0  0  0  0
  2  4  1  0  0  0  0
  3  5  2  0  0  0  0
  6  9  1  0  0  0  0
  2  7  1  0  0  0  0
  6  8  1  0  0  0  0
  4  9  1  0  0  0  0
 10 13  1  0  0  0  0
 11 12  2  0  0  0  0
 10 12  1  0  0  0  0
  8 13  1  0  0  0  0
 14 15  2  0  0  0  0
 10 15  1  0  0  0  0
  3 16  1  0  0  0  0
  8 17  2  0  0  0  0
  4 18  1  0  0  0  0
  4 19  1  0  0  0  0
 20 21  1  0  0  0  0
 18 21  1  0  0  0  0
 16 22  2  0  0  0  0
 16 23  1  0  0  0  0
 23 24  2  0  0  0  0
 22 25  1  0  0  0  0
 24 26  1  0  0  0  0
  5  7  1  0  0  0  0
 25 26  2  0  0  0  0
  6 20  1  0  0  0  0
 11 14  1  0  0  0  0
M  END
> <MOLFORMULA>
C19 H21 N5 O2

> <MOLWEIGHT>
3.514079000000000e+002

> <IDNUMBER>
AT-687/SK17723

> <PRICE>
EUR 80/10 mg

> <Similarity score>
0.21

$$$$

  -OEChem-04222410502D

 13 14  0     0  0  0  0  0  0999 V2000
    3.2542    2.4375    0.0000 C   0  0  0  0  0  0  0  0  0  0  0  0
    5.5792   -0.7417    0.0000 C   0  0  0  0  0  0  0  0  0  0  0  0
   -0.5083    1.2333    0.0000 C   0  0  0  0  0  0  0  0  0  0  0  0
   -0.5083   -2.7292    0.0000 C   0  0  0  0  0  0  0  0  0  0  0  0
    3.2542   -3.9500    0.0000 S   0  0  0  0  0  0  0  0  0  0  0  0
    4.4750    6.2125    0.0000 C   0  0  0  0  0  0  0  0  0  0  0  0
    8.3625    7.0292    0.0000 N   0  0  0  0  0  0  0  0  0  0  0  0
   -3.9333    3.2125    0.0000 C   0  0  0  0  0  0  0  0  0  0  0  0
   -3.9333   -4.7125    0.0000 C   0  0  0  0  0  0  0  0  0  0  0  0
    9.4042   -1.7667    0.0000 N   0  0  0  0  0  0  0  0  0  0  0  0
   -7.3542    1.2333    0.0000 C   0  0  0  0  0  0  0  0  0  0  0  0
   -7.3542   -2.7292    0.0000 C   0  0  3  0  0  0  0  0  0  0  0  0
  -10.7792   -4.7125    0.0000 C   0  0  0  0  0  0  0  0  0  0  0  0
  1  2  2  0  0  0  0
  1  3  1  0  0  0  0
  3  4  2  0  0  0  0
  2  5  1  0  0  0  0
  1  6  1  0  0  0  0
  6  7  3  0  0  0  0
  3  8  1  0  0  0  0
  4  9  1  0  0  0  0
  2 10  1  0  0  0  0
  8 11  1  0  0  0  0
 11 12  1  0  0  0  0
 12 13  1  4  0  0  0
  4  5  1  0  0  0  0
  9 12  1  0  0  0  0
M  END
> <MOLFORMULA>
C10 H12 N2 S

> <MOLWEIGHT>
1.922848000000000e+002

> <IDNUMBER>
AT-084/J162226

> <PRICE>
EUR 37.00/10 mg

> <Similarity score>
0.20

$$$$

  -OEChem-04222410502D

 13 14  0     0  0  0  0  0  0999 V2000
   -1.2333    0.0750    0.0000 C   0  0  0  0  0  0  0  0  0  0  0  0
   -1.6417    0.9917    0.0000 C   0  0  0  0  0  0  0  0  0  0  0  0
   -0.2375    0.1833    0.0000 C   0  0  0  0  0  0  0  0  0  0  0  0
   -0.0292    1.1583    0.0000 C   0  0  0  0  0  0  0  0  0  0  0  0
   -0.8958    1.6583    0.0000 S   0  0  0  0  0  0  0  0  0  0  0  0
   -1.7333   -0.7875    0.0000 C   0  0  0  0  0  0  0  0  0  0  0  0
   -1.2333   -1.6542    0.0000 N   0  0  0  0  0  0  0  0  0  0  0  0
    0.5042   -0.4875    0.0000 C   0  0  0  0  0  0  0  0  0  0  0  0
    0.9208    1.4667    0.0000 C   0  0  0  0  0  0  0  0  0  0  0  0
   -2.6167    1.2000    0.0000 N   0  0  0  0  0  0  0  0  0  0  0  0
    1.4542   -0.1792    0.0000 C   0  0  0  0  0  0  0  0  0  0  0  0
    1.6625    0.8000    0.0000 C   0  0  3  0  0  0  0  0  0  0  0  0
    2.6125    1.1083    0.0000 C   0  0  0  0  0  0  0  0  0  0  0  0
  1  2  2  0  0  0  0
  1  3  1  0  0  0  0
  3  4  2  0  0  0  0
  2  5  1  0  0  0  0
  1  6  1  0  0  0  0
  6  7  3  0  0  0  0
  3  8  1  0  0  0  0
  4  9  1  0  0  0  0
  2 10  1  0  0  0  0
  8 11  1  0  0  0  0
 11 12  1  0  0  0  0
 12 13  1  0  0  0  0
  4  5  1  0  0  0  0
  9 12  1  0  0  0  0
M  END
> <MOLFORMULA>
C10 H12 N2 S

> <MOLWEIGHT>
1.922848000000000e+002

> <IDNUMBER>
AN-153/I124580

> <PRICE>
EUR 130/10 mg

> <Similarity score>
0.20

$$$$

  -OEChem-04222410502D

 23 25  0     0  0  0  0  0  0999 V2000
    7.8250   -9.7000    0.0000 C   0  0  0  0  0  0  0  0  0  0  0  0
    8.5750   -9.3625    0.0000 C   0  0  0  0  0  0  0  0  0  0  0  0
    7.9167  -10.5250    0.0000 S   0  0  0  0  0  0  0  0  0  0  0  0
    9.1292   -9.9542    0.0000 C   0  0  0  0  0  0  0  0  0  0  0  0
    8.7167  -10.6792    0.0000 C   0  0  0  0  0  0  0  0  0  0  0  0
    4.9542   -7.2417    0.0000 N   0  0  0  0  0  0  0  0  0  0  0  0
    7.1042   -9.2917    0.0000 N   0  0  0  0  0  0  0  0  0  0  0  0
    4.9542   -8.0667    0.0000 C   0  0  0  0  0  0  0  0  0  0  0  0
    8.7375   -8.5542    0.0000 C   0  0  0  0  0  0  0  0  0  0  0  0
    8.9000   -7.7417    0.0000 N   0  0  0  0  0  0  0  0  0  0  0  0
    7.1000   -8.4667    0.0000 C   0  0  0  0  0  0  0  0  0  0  0  0
    4.2375   -6.8292    0.0000 C   0  0  0  0  0  0  0  0  0  0  0  0
    4.2375   -8.4792    0.0000 N   0  0  0  0  0  0  0  0  0  0  0  0
    5.6667   -8.4792    0.0000 S   0  0  0  0  0  0  0  0  0  0  0  0
    3.5250   -7.2417    0.0000 C   0  0  0  0  0  0  0  0  0  0  0  0
    7.8125   -8.0500    0.0000 O   0  0  0  0  0  0  0  0  0  0  0  0
    6.3792   -8.0667    0.0000 C   0  0  0  0  0  0  0  0  0  0  0  0
    3.5250   -8.0667    0.0000 C   0  0  0  0  0  0  0  0  0  0  0  0
    4.2292   -6.0042    0.0000 O   0  0  0  0  0  0  0  0  0  0  0  0
    9.9667   -9.9417    0.0000 C   0  0  0  0  0  0  0  0  0  0  0  0
    9.1417  -11.4000    0.0000 C   0  0  0  0  0  0  0  0  0  0  0  0
   10.3875  -10.6667    0.0000 C   0  0  0  0  0  0  0  0  0  0  0  0
    9.9750  -11.3917    0.0000 C   0  0  0  0  0  0  0  0  0  0  0  0
  1  2  2  0  0  0  0
  1  3  1  0  0  0  0
  2  4  1  0  0  0  0
  3  5  1  0  0  0  0
  6  8  1  0  0  0  0
  1  7  1  0  0  0  0
  8 14  1  0  0  0  0
  2  9  1  0  0  0  0
  9 10  3  0  0  0  0
  7 11  1  0  0  0  0
  6 12  2  0  0  0  0
  8 13  2  0  0  0  0
 14 17  1  0  0  0  0
 15 18  2  0  0  0  0
 11 16  2  0  0  0  0
 11 17  1  0  0  0  0
 13 18  1  0  0  0  0
 12 19  1  0  0  0  0
  4 20  1  0  0  0  0
  5 21  1  0  0  0  0
 20 22  1  0  0  0  0
 21 23  1  0  0  0  0
  4  5  2  0  0  0  0
 22 23  1  0  0  0  0
 12 15  1  0  0  0  0
M  END
> <MOLFORMULA>
C15 H14 N4 O2 S2

> <MOLWEIGHT>
3.464336000000000e+002

> <IDNUMBER>
AP-853/J242162

> <Similarity score>
0.20

$$$$

  -OEChem-04222410502D

 26 29  0     0  0  0  0  0  0999 V2000
    4.6250   -2.4750    0.0000 N   0  0  0  0  0  0  0  0  0  0  0  0
   10.5917   -2.5000    0.0000 C   0  0  0  0  0  0  0  0  0  0  0  0
    5.4042   -3.5292    0.0000 C   0  0  0  0  0  0  0  0  0  0  0  0
    3.3500   -2.8750    0.0000 C   0  0  0  0  0  0  0  0  0  0  0  0
    6.7500   -3.5292    0.0000 C   0  0  3  0  0  0  0  0  0  0  0  0
    3.3500   -4.1917    0.0000 N   0  0  0  0  0  0  0  0  0  0  0  0
   11.7750   -0.7042    0.0000 N   0  0  0  0  0  0  0  0  0  0  0  0
    4.6250   -4.6042    0.0000 O   0  0  0  0  0  0  0  0  0  0  0  0
   10.4917   -0.3542    0.0000 O   0  0  0  0  0  0  0  0  0  0  0  0
    9.7667   -1.4750    0.0000 C   0  0  0  0  0  0  0  0  0  0  0  0
   11.8417   -2.0250    0.0000 C   0  0  0  0  0  0  0  0  0  0  0  0
    8.9667   -4.1250    0.0000 N   0  0  3  0  0  0  0  0  0  0  0  0
   10.2542   -3.7917    0.0000 C   0  0  0  0  0  0  0  0  0  0  0  0
    8.0250   -3.2000    0.0000 C   0  0  0  0  0  0  0  0  0  0  0  0
    2.2917   -2.0750    0.0000 C   0  0  0  0  0  0  0  0  0  0  0  0
    6.4000   -4.8250    0.0000 C   0  0  0  0  0  0  0  0  0  0  0  0
    7.2500   -2.3000    0.0000 C   0  0  0  0  0  0  0  0  0  0  0  0
    8.6250   -5.4250    0.0000 C   0  0  0  0  0  0  0  0  0  0  0  0
    8.4250   -1.5417    0.0000 C   0  0  0  0  0  0  0  0  0  0  0  0
    7.3250   -5.7542    0.0000 C   0  0  0  0  0  0  0  0  0  0  0  0
   12.9500   -2.7500    0.0000 C   0  0  0  0  0  0  0  0  0  0  0  0
    1.0750   -2.6417    0.0000 C   0  0  0  0  0  0  0  0  0  0  0  0
    2.4167   -0.7750    0.0000 C   0  0  0  0  0  0  0  0  0  0  0  0
    1.3417   -0.0000    0.0000 C   0  0  0  0  0  0  0  0  0  0  0  0
    0.0000   -1.8500    0.0000 C   0  0  0  0  0  0  0  0  0  0  0  0
    0.1250   -0.5250    0.0000 C   0  0  0  0  0  0  0  0  0  0  0  0
  2 13  1  0  0  0  0
  1  3  2  0  0  0  0
  1  4  1  0  0  0  0
  3  5  1  0  0  0  0
  4  6  2  0  0  0  0
  7 11  2  0  0  0  0
  3  8  1  0  0  0  0
  9 10  1  0  0  0  0
  2 10  2  0  0  0  0
  2 11  1  0  0  0  0
 12 14  1  0  0  0  0
 12 13  1  0  0  0  0
  5 14  1  0  0  0  0
  4 15  1  0  0  0  0
  5 16  1  0  0  0  0
  5 17  1  0  0  0  0
 18 20  1  0  0  0  0
 10 19  1  0  0  0  0
 16 20  1  0  0  0  0
 11 21  1  0  0  0  0
 15 22  2  0  0  0  0
 15 23  1  0  0  0  0
 23 24  2  0  0  0  0
 22 25  1  0  0  0  0
 24 26  1  0  0  0  0
  6  8  1  0  0  0  0
 25 26  2  0  0  0  0
 12 18  1  0  0  0  0
  7  9  1  0  0  0  0
M  END
> <MOLFORMULA>
C20 H24 N4 O2

> <MOLWEIGHT>
3.524356000000000e+002

> <IDNUMBER>
AT-687/PE19330

> <PRICE>
EUR 80/10 mg

> <Similarity score>
0.20

$$$$

  -OEChem-04222410502D

 25 28  0     0  0  0  0  0  0999 V2000
    3.6667   -1.5792    0.0000 N   0  0  0  0  0  0  0  0  0  0  0  0
    4.4500   -2.6750    0.0000 C   0  0  0  0  0  0  0  0  0  0  0  0
    2.4000   -2.0000    0.0000 C   0  0  0  0  0  0  0  0  0  0  0  0
    5.7750   -2.6750    0.0000 C   0  0  3  0  0  0  0  0  0  0  0  0
    7.9917   -3.2667    0.0000 N   0  0  3  0  0  0  0  0  0  0  0  0
    2.4000   -3.3292    0.0000 N   0  0  0  0  0  0  0  0  0  0  0  0
    9.2792   -2.9167    0.0000 C   0  0  0  0  0  0  0  0  0  0  0  0
    3.6667   -3.7500    0.0000 O   0  0  0  0  0  0  0  0  0  0  0  0
    1.3250   -1.2250    0.0000 C   0  0  3  0  0  0  0  0  0  0  0  0
   10.2250   -3.8667    0.0000 C   0  0  0  0  0  0  0  0  0  0  0  0
    7.0667   -2.3167    0.0000 C   0  0  0  0  0  0  0  0  0  0  0  0
    0.0000   -1.0750    0.0000 C   0  0  0  0  0  0  0  0  0  0  0  0
    0.8000   -0.0000    0.0000 C   0  0  0  0  0  0  0  0  0  0  0  0
   10.8167   -6.0750    0.0000 N   0  0  0  0  0  0  0  0  0  0  0  0
    9.8917   -5.1417    0.0000 C   0  0  0  0  0  0  0  0  0  0  0  0
   12.1042   -5.7417    0.0000 C   0  0  0  0  0  0  0  0  0  0  0  0
    9.6250   -1.6417    0.0000 O   0  0  0  0  0  0  0  0  0  0  0  0
   11.5000   -3.5250    0.0000 C   0  0  0  0  0  0  0  0  0  0  0  0
   12.4417   -4.4417    0.0000 C   0  0  0  0  0  0  0  0  0  0  0  0
    7.6500   -4.5500    0.0000 C   0  0  0  0  0  0  0  0  0  0  0  0
    5.4250   -3.9500    0.0000 C   0  0  0  0  0  0  0  0  0  0  0  0
    6.2750   -1.4417    0.0000 C   0  0  0  0  0  0  0  0  0  0  0  0
   13.0417   -6.6750    0.0000 O   0  0  0  0  0  0  0  0  0  0  0  0
    6.3750   -4.9000    0.0000 C   0  0  0  0  0  0  0  0  0  0  0  0
   14.3250   -6.3500    0.0000 C   0  0  0  0  0  0  0  0  0  0  0  0
  1  2  2  0  0  0  0
  1  3  1  0  0  0  0
  2  4  1  0  0  0  0
  5 11  1  0  0  0  0
  3  6  2  0  0  0  0
  5  7  1  0  0  0  0
  2  8  1  0  0  0  0
  3  9  1  0  0  0  0
  7 10  1  0  0  0  0
  4 11  1  0  0  0  0
  9 12  1  0  0  0  0
  9 13  1  0  0  0  0
 14 15  1  0  0  0  0
 10 15  2  0  0  0  0
 16 19  1  0  0  0  0
  7 17  2  0  0  0  0
 10 18  1  0  0  0  0
 18 19  2  0  0  0  0
 20 24  1  0  0  0  0
  4 21  1  0  0  0  0
  4 22  1  0  0  0  0
 16 23  1  0  0  0  0
 21 24  1  0  0  0  0
 23 25  1  0  0  0  0
  6  8  1  0  0  0  0
 12 13  1  0  0  0  0
  5 20  1  0  0  0  0
 14 16  2  0  0  0  0
M  END
> <MOLFORMULA>
C18 H22 N4 O3

> <MOLWEIGHT>
3.423968000000000e+002

> <IDNUMBER>
AT-687/PE19320

> <PRICE>
EUR 80/10 mg

> <Similarity score>
0.20

$$$$

  -OEChem-04222410502D

 25 28  0     0  0  0  0  0  0999 V2000
    4.6250   -2.5917    0.0000 N   0  0  0  0  0  0  0  0  0  0  0  0
    5.4000   -3.6667    0.0000 C   0  0  0  0  0  0  0  0  0  0  0  0
    3.3542   -3.0000    0.0000 C   0  0  0  0  0  0  0  0  0  0  0  0
   11.8250   -2.1500    0.0000 N   0  0  0  0  0  0  0  0  0  0  0  0
    6.7292   -3.6667    0.0000 C   0  0  3  0  0  0  0  0  0  0  0  0
    3.3542   -4.3167    0.0000 N   0  0  0  0  0  0  0  0  0  0  0  0
   10.5917   -2.6417    0.0000 C   0  0  0  0  0  0  0  0  0  0  0  0
    4.6250   -4.7417    0.0000 O   0  0  0  0  0  0  0  0  0  0  0  0
   10.4750   -0.4917    0.0000 N   0  0  0  0  0  0  0  0  0  0  0  0
   11.7500   -0.8250    0.0000 C   0  0  0  0  0  0  0  0  0  0  0  0
    9.7500   -1.6000    0.0000 O   0  0  0  0  0  0  0  0  0  0  0  0
    8.9667   -4.2667    0.0000 N   0  0  3  0  0  0  0  0  0  0  0  0
    8.0167   -3.3250    0.0000 C   0  0  0  0  0  0  0  0  0  0  0  0
   10.2417   -3.9250    0.0000 C   0  0  0  0  0  0  0  0  0  0  0  0
    2.2792   -2.2250    0.0000 C   0  0  0  0  0  0  0  0  0  0  0  0
    6.3917   -4.9500    0.0000 C   0  0  0  0  0  0  0  0  0  0  0  0
    7.2500   -2.4417    0.0000 C   0  0  0  0  0  0  0  0  0  0  0  0
    8.6000   -5.5500    0.0000 C   0  0  0  0  0  0  0  0  0  0  0  0
    7.3417   -5.8917    0.0000 C   0  0  0  0  0  0  0  0  0  0  0  0
   12.7917   -0.0000    0.0000 C   0  0  0  0  0  0  0  0  0  0  0  0
    2.4417   -0.9000    0.0000 C   0  0  0  0  0  0  0  0  0  0  0  0
    1.0667   -2.7750    0.0000 C   0  0  0  0  0  0  0  0  0  0  0  0
    0.0000   -1.9917    0.0000 C   0  0  0  0  0  0  0  0  0  0  0  0
    1.3500   -0.1042    0.0000 C   0  0  0  0  0  0  0  0  0  0  0  0
    0.1250   -0.6542    0.0000 C   0  0  0  0  0  0  0  0  0  0  0  0
  1  2  2  0  0  0  0
  1  3  1  0  0  0  0
  4  7  2  0  0  0  0
  2  5  1  0  0  0  0
  3  6  2  0  0  0  0
  7 14  1  0  0  0  0
  2  8  1  0  0  0  0
  9 11  1  0  0  0  0
  4 10  1  0  0  0  0
  7 11  1  0  0  0  0
 12 13  1  0  0  0  0
  5 13  1  0  0  0  0
 12 14  1  0  0  0  0
  3 15  1  0  0  0  0
  5 16  1  0  0  0  0
  5 17  1  0  0  0  0
 18 19  1  0  0  0  0
 16 19  1  0  0  0  0
 10 20  1  0  0  0  0
 15 21  2  0  0  0  0
 15 22  1  0  0  0  0
 22 23  2  0  0  0  0
 21 24  1  0  0  0  0
 23 25  1  0  0  0  0
  6  8  1  0  0  0  0
 24 25  2  0  0  0  0
 12 18  1  0  0  0  0
  9 10  2  0  0  0  0
M  END
> <MOLFORMULA>
C18 H21 N5 O2

> <MOLWEIGHT>
3.393969000000000e+002

> <IDNUMBER>
AT-687/PE19331

> <PRICE>
EUR 80/10 mg

> <Similarity score>
0.20

$$$$

  -OEChem-04222410502D

 26 29  0     0  0  0  0  0  0999 V2000
    4.4917   -2.5875    0.0000 N   0  0  0  0  0  0  0  0  0  0  0  0
    4.9792   -3.2542    0.0000 C   0  0  0  0  0  0  0  0  0  0  0  0
    3.7042   -2.8417    0.0000 C   0  0  0  0  0  0  0  0  0  0  0  0
    8.9625   -2.3167    0.0000 N   0  0  0  0  0  0  0  0  0  0  0  0
    5.8042   -3.2542    0.0000 C   0  0  3  0  0  0  0  0  0  0  0  0
    3.7042   -3.6667    0.0000 N   0  0  0  0  0  0  0  0  0  0  0  0
    8.1917   -2.6167    0.0000 C   0  0  0  0  0  0  0  0  0  0  0  0
    7.6667   -1.9792    0.0000 N   0  0  0  0  0  0  0  0  0  0  0  0
    4.4917   -3.9250    0.0000 O   0  0  0  0  0  0  0  0  0  0  0  0
    8.9167   -1.4917    0.0000 C   0  0  0  0  0  0  0  0  0  0  0  0
    7.1792   -3.6292    0.0000 N   0  0  3  0  0  0  0  0  0  0  0  0
    8.1167   -1.2875    0.0000 O   0  0  0  0  0  0  0  0  0  0  0  0
    6.6000   -3.0417    0.0000 C   0  0  0  0  0  0  0  0  0  0  0  0
    7.9792   -3.4125    0.0000 C   0  0  0  0  0  0  0  0  0  0  0  0
    3.0417   -2.3625    0.0000 C   0  0  0  0  0  0  0  0  0  0  0  0
    5.5875   -4.0542    0.0000 C   0  0  0  0  0  0  0  0  0  0  0  0
    6.1167   -2.4917    0.0000 C   0  0  0  0  0  0  0  0  0  0  0  0
    6.9667   -4.4250    0.0000 C   0  0  0  0  0  0  0  0  0  0  0  0
    9.5542   -0.9792    0.0000 C   0  0  0  0  0  0  0  0  0  0  0  0
    6.1750   -4.6417    0.0000 C   0  0  0  0  0  0  0  0  0  0  0  0
    3.1250   -1.5417    0.0000 C   0  0  0  0  0  0  0  0  0  0  0  0
    2.2875   -2.7000    0.0000 C   0  0  0  0  0  0  0  0  0  0  0  0
   10.3292   -1.2750    0.0000 C   0  0  0  0  0  0  0  0  0  0  0  0
    2.4542   -1.0542    0.0000 C   0  0  0  0  0  0  0  0  0  0  0  0
    1.6167   -2.2125    0.0000 C   0  0  0  0  0  0  0  0  0  0  0  0
    1.7000   -1.3917    0.0000 C   0  0  0  0  0  0  0  0  0  0  0  0
  1  2  2  0  0  0  0
  1  3  1  0  0  0  0
  4  7  1  0  0  0  0
  2  5  1  0  0  0  0
  3  6  2  0  0  0  0
  7 14  1  0  0  0  0
  7  8  2  0  0  0  0
  2  9  1  0  0  0  0
  4 10  2  0  0  0  0
 11 13  1  0  0  0  0
  8 12  1  0  0  0  0
  5 13  1  0  0  0  0
 11 14  1  0  0  0  0
  3 15  1  0  0  0  0
  5 16  1  0  0  0  0
  5 17  1  0  0  0  0
 18 20  1  0  0  0  0
 10 19  1  0  0  0  0
 16 20  1  0  0  0  0
 15 21  1  0  0  0  0
 15 22  2  0  0  0  0
 19 23  1  0  0  0  0
 21 24  2  0  0  0  0
 22 25  1  0  0  0  0
 25 26  2  0  0  0  0
  6  9  1  0  0  0  0
 24 26  1  0  0  0  0
 11 18  1  0  0  0  0
 10 12  1  0  0  0  0
M  END
> <MOLFORMULA>
C19 H23 N5 O2

> <MOLWEIGHT>
3.534237000000000e+002

> <IDNUMBER>
AT-687/SK17725

> <PRICE>
EUR 80/10 mg

> <Similarity score>
0.20

$$$$

  -OEChem-04222410502D

 26 29  0     0  0  0  0  0  0999 V2000
    8.4542   -3.6250    0.0000 C   0  0  0  0  0  0  0  0  0  0  0  0
    4.3667   -2.2042    0.0000 N   0  0  0  0  0  0  0  0  0  0  0  0
    4.8542   -2.8667    0.0000 C   0  0  0  0  0  0  0  0  0  0  0  0
    3.5792   -2.4667    0.0000 C   0  0  0  0  0  0  0  0  0  0  0  0
    7.8667   -3.0375    0.0000 C   0  0  0  0  0  0  0  0  0  0  0  0
    5.6792   -2.8667    0.0000 C   0  0  3  0  0  0  0  0  0  0  0  0
    7.0667   -3.2542    0.0000 N   0  0  3  0  0  0  0  0  0  0  0  0
    3.5792   -3.2917    0.0000 N   0  0  0  0  0  0  0  0  0  0  0  0
    8.3167   -4.4417    0.0000 N   0  0  0  0  0  0  0  0  0  0  0  0
    9.2750   -3.4917    0.0000 C   0  0  0  0  0  0  0  0  0  0  0  0
    4.3667   -3.5417    0.0000 O   0  0  0  0  0  0  0  0  0  0  0  0
    9.0667   -4.8167    0.0000 N   0  0  0  0  0  0  0  0  0  0  0  0
    6.4875   -2.6667    0.0000 C   0  0  0  0  0  0  0  0  0  0  0  0
    9.6417   -4.2292    0.0000 C   0  0  0  0  0  0  0  0  0  0  0  0
    8.0792   -2.2375    0.0000 O   0  0  0  0  0  0  0  0  0  0  0  0
    2.9042   -1.9792    0.0000 C   0  0  0  0  0  0  0  0  0  0  0  0
    6.8500   -4.0542    0.0000 C   0  0  0  0  0  0  0  0  0  0  0  0
    5.4667   -3.6792    0.0000 C   0  0  0  0  0  0  0  0  0  0  0  0
    6.0000   -2.1167    0.0000 C   0  0  0  0  0  0  0  0  0  0  0  0
    6.0542   -4.2667    0.0000 C   0  0  0  0  0  0  0  0  0  0  0  0
   10.4667   -4.3542    0.0000 C   0  0  0  0  0  0  0  0  0  0  0  0
    2.1500   -2.3125    0.0000 C   0  0  0  0  0  0  0  0  0  0  0  0
    3.0000   -1.1542    0.0000 C   0  0  0  0  0  0  0  0  0  0  0  0
    2.3167   -0.6667    0.0000 C   0  0  0  0  0  0  0  0  0  0  0  0
    1.4792   -1.8250    0.0000 C   0  0  0  0  0  0  0  0  0  0  0  0
    1.5667   -1.0042    0.0000 C   0  0  0  0  0  0  0  0  0  0  0  0
  2  3  2  0  0  0  0
  3  6  1  0  0  0  0
  2  4  1  0  0  0  0
  1  5  1  0  0  0  0
  6 13  1  0  0  0  0
  5  7  1  0  0  0  0
  8 11  1  0  0  0  0
  1  9  1  0  0  0  0
  1 10  2  0  0  0  0
  3 11  1  0  0  0  0
  9 12  1  0  0  0  0
  7 13  1  0  0  0  0
 10 14  1  0  0  0  0
  5 15  2  0  0  0  0
  4 16  1  0  0  0  0
  7 17  1  0  0  0  0
 18 20  1  0  0  0  0
  6 19  1  0  0  0  0
 17 20  1  0  0  0  0
 14 21  1  0  0  0  0
 16 22  2  0  0  0  0
 16 23  1  0  0  0  0
 23 24  2  0  0  0  0
 22 25  1  0  0  0  0
 24 26  1  0  0  0  0
 12 14  2  0  0  0  0
  6 18  1  0  0  0  0
  4  8  2  0  0  0  0
 25 26  2  0  0  0  0
M  END
> <MOLFORMULA>
C19 H21 N5 O2

> <MOLWEIGHT>
3.514079000000000e+002

> <IDNUMBER>
AT-687/SK17721

> <PRICE>
EUR 80/10 mg

> <Similarity score>
0.20

$$$$

  -OEChem-04222410502D

 16 17  0     0  0  0  0  0  0999 V2000
    0.1375    0.9458    0.0000 C   0  0  0  0  0  0  0  0  0  0  0  0
    0.1375    0.2833    0.0000 C   0  0  0  0  0  0  0  0  0  0  0  0
   -1.0208    0.2833    0.0000 C   0  0  0  0  0  0  0  0  0  0  0  0
   -1.0208    0.9458    0.0000 C   0  0  0  0  0  0  0  0  0  0  0  0
   -0.4458   -0.0500    0.0000 S   0  0  0  0  0  0  0  0  0  0  0  0
    0.7500    1.2833    0.0000 C   0  0  0  0  0  0  0  0  0  0  0  0
   -1.6000   -0.0500    0.0000 C   0  0  0  0  0  0  0  0  0  0  0  0
    1.3542    1.6208    0.0000 N   0  0  0  0  0  0  0  0  0  0  0  0
   -1.6000    1.2708    0.0000 C   0  0  0  0  0  0  0  0  0  0  0  0
   -2.1833    0.2833    0.0000 C   0  0  3  0  0  0  0  0  0  0  0  0
   -2.7958   -0.0667    0.0000 C   0  0  3  0  0  0  0  0  0  0  0  0
    0.7500   -0.0667    0.0000 N   0  0  0  0  0  0  0  0  0  0  0  0
   -2.1833    0.9458    0.0000 C   0  0  0  0  0  0  0  0  0  0  0  0
   -3.4833   -0.3542    0.0000 C   0  0  0  0  0  0  0  0  0  0  0  0
   -3.0458    0.5208    0.0000 C   0  0  0  0  0  0  0  0  0  0  0  0
   -2.5000   -0.7375    0.0000 C   0  0  0  0  0  0  0  0  0  0  0  0
  1  2  2  0  0  0  0
  3  4  2  0  0  0  0
  1  4  1  0  0  0  0
  2  5  1  0  0  0  0
  1  6  1  0  0  0  0
  3  7  1  0  0  0  0
  6  8  3  0  0  0  0
  4  9  1  0  0  0  0
 10 13  1  0  0  0  0
 10 11  1  0  0  0  0
  2 12  1  0  0  0  0
  9 13  1  0  0  0  0
 11 14  1  0  0  0  0
 11 15  1  0  0  0  0
 11 16  1  0  0  0  0
  3  5  1  0  0  0  0
  7 10  1  0  0  0  0
M  END
> <MOLFORMULA>
C13 H18 N2 S

> <MOLWEIGHT>
2.343652000000000e+002

> <IDNUMBER>
AT-225/JK21267

> <PRICE>
EUR 140/10 mg

> <Similarity score>
0.20

$$$$

  -OEChem-04222410502D

 16 17  0     0  0  0  0  0  0999 V2000
    5.8667   -2.5542    0.0000 C   0  0  0  0  0  0  0  0  0  0  0  0
    6.6417   -3.6292    0.0000 C   0  0  0  0  0  0  0  0  0  0  0  0
    4.6042   -4.2917    0.0000 C   0  0  0  0  0  0  0  0  0  0  0  0
    4.6042   -2.9667    0.0000 C   0  0  0  0  0  0  0  0  0  0  0  0
    5.8667   -4.7042    0.0000 S   0  0  0  0  0  0  0  0  0  0  0  0
    6.2792   -1.2917    0.0000 C   0  0  0  0  0  0  0  0  0  0  0  0
    3.4542   -4.9542    0.0000 C   0  0  0  0  0  0  0  0  0  0  0  0
    6.6292   -0.0000    0.0000 N   0  0  0  0  0  0  0  0  0  0  0  0
    3.4542   -2.2917    0.0000 C   0  0  0  0  0  0  0  0  0  0  0  0
    2.3042   -4.3000    0.0000 C   0  0  3  0  0  0  0  0  0  0  0  0
    1.1542   -4.9667    0.0000 C   0  0  3  0  0  0  0  0  0  0  0  0
    7.9750   -3.6292    0.0000 N   0  0  0  0  0  0  0  0  0  0  0  0
    2.3042   -2.9667    0.0000 C   0  0  0  0  0  0  0  0  0  0  0  0
    0.0000   -5.6167    0.0000 C   0  0  0  0  0  0  0  0  0  0  0  0
    1.8250   -6.1167    0.0000 C   0  0  0  0  0  0  0  0  0  0  0  0
    0.4917   -3.8125    0.0000 C   0  0  0  0  0  0  0  0  0  0  0  0
  1  2  2  0  0  0  0
  3  4  2  0  0  0  0
  1  4  1  0  0  0  0
  2  5  1  0  0  0  0
  1  6  1  0  0  0  0
  3  7  1  0  0  0  0
  6  8  3  0  0  0  0
  4  9  1  0  0  0  0
 10 13  1  0  0  0  0
 10 11  1  0  0  0  0
  2 12  1  0  0  0  0
  9 13  1  0  0  0  0
 11 14  1  0  0  0  0
 11 15  1  0  0  0  0
 11 16  1  0  0  0  0
  3  5  1  0  0  0  0
  7 10  1  0  0  0  0
M  END
> <MOLFORMULA>
C13 H18 N2 S

> <MOLWEIGHT>
2.343652000000000e+002

> <IDNUMBER>
AT-687/NB00958

> <PRICE>
EUR 80/10 mg

> <Similarity score>
0.20

$$$$

  -OEChem-04222410502D

 16 17  0     0  0  0  0  0  0999 V2000
   -1.6500   -0.5542    0.0000 C   0  0  0  0  0  0  0  0  0  0  0  0
   -2.0583    0.3583    0.0000 C   0  0  0  0  0  0  0  0  0  0  0  0
   -0.4500    0.5250    0.0000 C   0  0  0  0  0  0  0  0  0  0  0  0
   -0.6583   -0.4500    0.0000 C   0  0  0  0  0  0  0  0  0  0  0  0
   -1.3167    1.0250    0.0000 S   0  0  0  0  0  0  0  0  0  0  0  0
   -2.1500   -1.4208    0.0000 C   0  0  0  0  0  0  0  0  0  0  0  0
    0.5000    0.8333    0.0000 C   0  0  0  0  0  0  0  0  0  0  0  0
   -3.1500   -1.4208    0.0000 N   0  0  0  0  0  0  0  0  0  0  0  0
    0.0875   -1.1208    0.0000 C   0  0  0  0  0  0  0  0  0  0  0  0
    1.2458    0.1667    0.0000 C   0  0  3  0  0  0  0  0  0  0  0  0
    2.1958    0.4750    0.0000 C   0  0  3  0  0  0  0  0  0  0  0  0
   -3.0375    0.5667    0.0000 N   0  0  0  0  0  0  0  0  0  0  0  0
    1.0375   -0.8125    0.0000 C   0  0  0  0  0  0  0  0  0  0  0  0
    1.8875    1.4250    0.0000 C   0  0  0  0  0  0  0  0  0  0  0  0
    2.5042   -0.4750    0.0000 C   0  0  0  0  0  0  0  0  0  0  0  0
    3.1458    0.7833    0.0000 C   0  0  0  0  0  0  0  0  0  0  0  0
  1  2  2  0  0  0  0
  3  4  2  0  0  0  0
  1  4  1  0  0  0  0
  2  5  1  0  0  0  0
  1  6  1  0  0  0  0
  3  7  1  0  0  0  0
  6  8  3  0  0  0  0
  4  9  1  0  0  0  0
 10 13  1  0  0  0  0
 10 11  1  0  0  0  0
  2 12  1  0  0  0  0
  9 13  1  0  0  0  0
 11 14  1  0  0  0  0
 11 15  1  0  0  0  0
 11 16  1  0  0  0  0
  3  5  1  0  0  0  0
  7 10  1  0  0  0  0
M  END
> <MOLFORMULA>
C13 H18 N2 S

> <MOLWEIGHT>
2.343652000000000e+002

> <IDNUMBER>
AN-153/I124583

> <PRICE>
EUR 130/10 mg

> <Similarity score>
0.20

$$$$

  -OEChem-04222410502D

 16 17  0     0  0  0  0  0  0999 V2000
    4.0292   -0.4000    0.0000 C   0  0  0  0  0  0  0  0  0  0  0  0
    4.5167   -1.0542    0.0000 C   0  0  0  0  0  0  0  0  0  0  0  0
    3.2500   -1.4750    0.0000 C   0  0  0  0  0  0  0  0  0  0  0  0
    3.2500   -0.6500    0.0000 C   0  0  0  0  0  0  0  0  0  0  0  0
    4.0292   -1.7250    0.0000 S   0  0  0  0  0  0  0  0  0  0  0  0
    4.2917    0.3875    0.0000 C   0  0  0  0  0  0  0  0  0  0  0  0
    2.5417   -1.8792    0.0000 C   0  0  0  0  0  0  0  0  0  0  0  0
    4.5000    1.1875    0.0000 N   0  0  0  0  0  0  0  0  0  0  0  0
    2.5417   -0.2292    0.0000 C   0  0  0  0  0  0  0  0  0  0  0  0
    1.8250   -1.4750    0.0000 C   0  0  3  0  0  0  0  0  0  0  0  0
    1.1167   -1.8917    0.0000 C   0  0  3  0  0  0  0  0  0  0  0  0
    5.3417   -1.0542    0.0000 N   0  0  0  0  0  0  0  0  0  0  0  0
    1.8250   -0.6500    0.0000 C   0  0  0  0  0  0  0  0  0  0  0  0
    0.4000   -2.3000    0.0000 C   0  0  0  0  0  0  0  0  0  0  0  0
    1.5250   -2.6000    0.0000 C   0  0  0  0  0  0  0  0  0  0  0  0
    0.7000   -1.1750    0.0000 C   0  0  0  0  0  0  0  0  0  0  0  0
  1  2  2  0  0  0  0
  3  4  2  0  0  0  0
  1  4  1  0  0  0  0
  2  5  1  0  0  0  0
  1  6  1  0  0  0  0
  3  7  1  0  0  0  0
  6  8  3  0  0  0  0
  4  9  1  0  0  0  0
 10 13  1  0  0  0  0
 10 11  1  0  0  0  0
  2 12  1  0  0  0  0
  9 13  1  0  0  0  0
 11 14  1  0  0  0  0
 11 15  1  0  0  0  0
 11 16  1  0  0  0  0
  3  5  1  0  0  0  0
  7 10  1  0  0  0  0
M  END
> <MOLFORMULA>
C13 H18 N2 S

> <MOLWEIGHT>
2.343652000000000e+002

> <IDNUMBER>
AT-687/PE32216

> <PRICE>
EUR 80/10 mg

> <Similarity score>
0.20

$$$$

  -OEChem-04222410502D

 14 15  0     0  0  0  0  0  0999 V2000
    0.1375    0.9458    0.0000 C   0  0  0  0  0  0  0  0  0  0  0  0
    0.1375    0.2833    0.0000 C   0  0  0  0  0  0  0  0  0  0  0  0
   -1.0208    0.9458    0.0000 C   0  0  0  0  0  0  0  0  0  0  0  0
   -1.0208    0.2833    0.0000 C   0  0  0  0  0  0  0  0  0  0  0  0
   -0.4458   -0.0500    0.0000 S   0  0  0  0  0  0  0  0  0  0  0  0
    0.7500    1.2833    0.0000 C   0  0  0  0  0  0  0  0  0  0  0  0
    1.3542    1.6208    0.0000 N   0  0  0  0  0  0  0  0  0  0  0  0
   -1.6000    1.2708    0.0000 C   0  0  0  0  0  0  0  0  0  0  0  0
   -1.6000   -0.0500    0.0000 C   0  0  0  0  0  0  0  0  0  0  0  0
    0.7500   -0.0667    0.0000 N   0  0  0  0  0  0  0  0  0  0  0  0
   -2.1833    0.9458    0.0000 C   0  0  0  0  0  0  0  0  0  0  0  0
   -2.1833    0.2833    0.0000 C   0  0  3  0  0  0  0  0  0  0  0  0
   -2.7958   -0.0667    0.0000 C   0  0  0  0  0  0  0  0  0  0  0  0
   -3.4000    0.2833    0.0000 C   0  0  0  0  0  0  0  0  0  0  0  0
  1  2  2  0  0  0  0
  1  3  1  0  0  0  0
  3  4  2  0  0  0  0
  2  5  1  0  0  0  0
  1  6  1  0  0  0  0
  6  7  3  0  0  0  0
  3  8  1  0  0  0  0
  4  9  1  0  0  0  0
  2 10  1  0  0  0  0
  8 11  1  0  0  0  0
 11 12  1  0  0  0  0
 12 13  1  0  0  0  0
 13 14  1  0  0  0  0
  4  5  1  0  0  0  0
  9 12  1  0  0  0  0
M  END
> <MOLFORMULA>
C11 H14 N2 S

> <MOLWEIGHT>
2.063116000000000e+002

> <IDNUMBER>
AT-225/JK21271

> <PRICE>
EUR 140/10 mg

> <Similarity score>
0.20

$$$$

  -OEChem-04222410502D

 26 29  0     0  0  0  0  0  0999 V2000
    4.6125   -3.9042    0.0000 N   0  0  0  0  0  0  0  0  0  0  0  0
    5.1000   -3.2292    0.0000 C   0  0  0  0  0  0  0  0  0  0  0  0
    3.8292   -3.6500    0.0000 C   0  0  0  0  0  0  0  0  0  0  0  0
    8.5750   -1.6667    0.0000 N   0  0  0  0  0  0  0  0  0  0  0  0
    5.9292   -3.2292    0.0000 C   0  0  3  0  0  0  0  0  0  0  0  0
    3.8292   -2.8167    0.0000 N   0  0  0  0  0  0  0  0  0  0  0  0
    8.7042   -2.4875    0.0000 C   0  0  0  0  0  0  0  0  0  0  0  0
    4.6125   -2.5625    0.0000 O   0  0  0  0  0  0  0  0  0  0  0  0
    9.8917   -1.8875    0.0000 N   0  0  0  0  0  0  0  0  0  0  0  0
    9.3167   -1.3000    0.0000 C   0  0  0  0  0  0  0  0  0  0  0  0
    9.5167   -2.6250    0.0000 O   0  0  0  0  0  0  0  0  0  0  0  0
    7.3167   -2.8625    0.0000 N   0  0  3  0  0  0  0  0  0  0  0  0
    6.7292   -3.4500    0.0000 C   0  0  0  0  0  0  0  0  0  0  0  0
    8.1167   -3.0792    0.0000 C   0  0  0  0  0  0  0  0  0  0  0  0
    3.1625   -4.1292    0.0000 C   0  0  0  0  0  0  0  0  0  0  0  0
    5.7167   -2.4375    0.0000 C   0  0  0  0  0  0  0  0  0  0  0  0
    6.2500   -4.0000    0.0000 C   0  0  0  0  0  0  0  0  0  0  0  0
    7.1042   -2.0667    0.0000 C   0  0  0  0  0  0  0  0  0  0  0  0
    9.4417   -0.4792    0.0000 C   0  0  0  0  0  0  0  0  0  0  0  0
    6.3042   -1.8417    0.0000 C   0  0  0  0  0  0  0  0  0  0  0  0
    3.2417   -4.9625    0.0000 C   0  0  0  0  0  0  0  0  0  0  0  0
    2.4042   -3.8000    0.0000 C   0  0  0  0  0  0  0  0  0  0  0  0
   10.2042   -0.1792    0.0000 C   0  0  0  0  0  0  0  0  0  0  0  0
    2.5750   -5.4417    0.0000 C   0  0  0  0  0  0  0  0  0  0  0  0
    1.7292   -4.2875    0.0000 C   0  0  0  0  0  0  0  0  0  0  0  0
    1.8167   -5.1042    0.0000 C   0  0  0  0  0  0  0  0  0  0  0  0
  1  2  2  0  0  0  0
  1  3  1  0  0  0  0
  4  7  2  0  0  0  0
  2  5  1  0  0  0  0
  3  6  2  0  0  0  0
  7 14  1  0  0  0  0
  2  8  1  0  0  0  0
  9 11  1  0  0  0  0
  4 10  1  0  0  0  0
  7 11  1  0  0  0  0
 12 13  1  0  0  0  0
  5 13  1  0  0  0  0
 12 14  1  0  0  0  0
  3 15  1  0  0  0  0
  5 16  1  0  0  0  0
  5 17  1  0  0  0  0
 18 20  1  0  0  0  0
 10 19  1  0  0  0  0
 16 20  1  0  0  0  0
 15 21  1  0  0  0  0
 15 22  2  0  0  0  0
 19 23  1  0  0  0  0
 21 24  2  0  0  0  0
 22 25  1  0  0  0  0
 25 26  2  0  0  0  0
  6  8  1  0  0  0  0
 24 26  1  0  0  0  0
 12 18  1  0  0  0  0
  9 10  2  0  0  0  0
M  END
> <MOLFORMULA>
C19 H23 N5 O2

> <MOLWEIGHT>
3.534237000000000e+002

> <IDNUMBER>
AT-687/SK17724

> <PRICE>
EUR 80/10 mg

> <Similarity score>
0.20

$$$$

  -OEChem-04222410502D

 26 29  0     0  0  0  0  0  0999 V2000
    8.8542   -3.6917    0.0000 C   0  0  0  0  0  0  0  0  0  0  0  0
    4.7667   -2.2792    0.0000 N   0  0  0  0  0  0  0  0  0  0  0  0
    8.2750   -3.1042    0.0000 C   0  0  0  0  0  0  0  0  0  0  0  0
    5.2542   -2.9417    0.0000 C   0  0  0  0  0  0  0  0  0  0  0  0
    3.9792   -2.5292    0.0000 C   0  0  0  0  0  0  0  0  0  0  0  0
    7.4750   -3.3167    0.0000 N   0  0  3  0  0  0  0  0  0  0  0  0
    6.0875   -2.9417    0.0000 C   0  0  3  0  0  0  0  0  0  0  0  0
    3.9792   -3.3625    0.0000 N   0  0  0  0  0  0  0  0  0  0  0  0
    9.6792   -3.5625    0.0000 N   0  0  3  0  0  0  0  0  0  0  0  0
    4.7667   -3.6125    0.0000 O   0  0  0  0  0  0  0  0  0  0  0  0
    6.8875   -2.7292    0.0000 C   0  0  0  0  0  0  0  0  0  0  0  0
   10.0542   -4.2917    0.0000 N   0  0  0  0  0  0  0  0  0  0  0  0
    8.7292   -4.5042    0.0000 C   0  0  0  0  0  0  0  0  0  0  0  0
    9.4625   -4.8875    0.0000 C   0  0  0  0  0  0  0  0  0  0  0  0
    8.4917   -2.3042    0.0000 O   0  0  0  0  0  0  0  0  0  0  0  0
    3.3125   -2.0417    0.0000 C   0  0  0  0  0  0  0  0  0  0  0  0
    7.2542   -4.1167    0.0000 C   0  0  0  0  0  0  0  0  0  0  0  0
    5.8667   -3.7500    0.0000 C   0  0  0  0  0  0  0  0  0  0  0  0
    6.4000   -2.1792    0.0000 C   0  0  0  0  0  0  0  0  0  0  0  0
   10.0542   -2.8167    0.0000 C   0  0  0  0  0  0  0  0  0  0  0  0
    6.4625   -4.3292    0.0000 C   0  0  0  0  0  0  0  0  0  0  0  0
    2.5542   -2.3792    0.0000 C   0  0  0  0  0  0  0  0  0  0  0  0
    3.3917   -1.2167    0.0000 C   0  0  0  0  0  0  0  0  0  0  0  0
    2.7292   -0.7292    0.0000 C   0  0  0  0  0  0  0  0  0  0  0  0
    1.8792   -1.8917    0.0000 C   0  0  0  0  0  0  0  0  0  0  0  0
    1.9667   -1.0667    0.0000 C   0  0  0  0  0  0  0  0  0  0  0  0
  2  4  2  0  0  0  0
  1  3  1  0  0  0  0
  4  7  1  0  0  0  0
  2  5  1  0  0  0  0
  3  6  1  0  0  0  0
  7 11  1  0  0  0  0
  8 10  1  0  0  0  0
  1  9  1  0  0  0  0
  4 10  1  0  0  0  0
  6 11  1  0  0  0  0
  9 12  1  0  0  0  0
  1 13  2  0  0  0  0
 13 14  1  0  0  0  0
  3 15  2  0  0  0  0
  5 16  1  0  0  0  0
  6 17  1  0  0  0  0
 18 21  1  0  0  0  0
  7 19  1  0  0  0  0
  9 20  1  0  0  0  0
 17 21  1  0  0  0  0
 16 22  2  0  0  0  0
 16 23  1  0  0  0  0
 23 24  2  0  0  0  0
 22 25  1  0  0  0  0
 24 26  1  0  0  0  0
 12 14  2  0  0  0  0
  7 18  1  0  0  0  0
  5  8  2  0  0  0  0
 25 26  2  0  0  0  0
M  END
> <MOLFORMULA>
C19 H21 N5 O2

> <MOLWEIGHT>
3.514079000000000e+002

> <IDNUMBER>
AT-687/SK17722

> <PRICE>
EUR 80/10 mg

> <Similarity score>
0.19

$$$$

  -OEChem-04222410502D

 26 29  0     0  0  0  0  0  0999 V2000
    4.7750   -2.2792    0.0000 N   0  0  0  0  0  0  0  0  0  0  0  0
    5.2625   -2.9417    0.0000 C   0  0  0  0  0  0  0  0  0  0  0  0
    8.2792   -3.1042    0.0000 C   0  0  0  0  0  0  0  0  0  0  0  0
    3.9875   -2.5292    0.0000 C   0  0  0  0  0  0  0  0  0  0  0  0
    7.4792   -3.3167    0.0000 N   0  0  3  0  0  0  0  0  0  0  0  0
    8.8542   -3.6917    0.0000 C   0  0  0  0  0  0  0  0  0  0  0  0
    6.0917   -2.9417    0.0000 C   0  0  3  0  0  0  0  0  0  0  0  0
    3.9875   -3.3625    0.0000 N   0  0  0  0  0  0  0  0  0  0  0  0
    4.7750   -3.6125    0.0000 O   0  0  0  0  0  0  0  0  0  0  0  0
    8.7292   -4.5042    0.0000 N   0  0  3  0  0  0  0  0  0  0  0  0
    6.8917   -2.7292    0.0000 C   0  0  0  0  0  0  0  0  0  0  0  0
    9.6875   -3.5625    0.0000 C   0  0  0  0  0  0  0  0  0  0  0  0
    9.4667   -4.8875    0.0000 C   0  0  0  0  0  0  0  0  0  0  0  0
   10.0542   -4.2917    0.0000 C   0  0  0  0  0  0  0  0  0  0  0  0
    8.4917   -2.3042    0.0000 O   0  0  0  0  0  0  0  0  0  0  0  0
    3.3167   -2.0417    0.0000 C   0  0  0  0  0  0  0  0  0  0  0  0
    7.2625   -4.1167    0.0000 C   0  0  0  0  0  0  0  0  0  0  0  0
    5.8750   -3.7500    0.0000 C   0  0  0  0  0  0  0  0  0  0  0  0
    6.4042   -2.1792    0.0000 C   0  0  0  0  0  0  0  0  0  0  0  0
    7.9917   -4.8875    0.0000 C   0  0  0  0  0  0  0  0  0  0  0  0
    6.4667   -4.3292    0.0000 C   0  0  0  0  0  0  0  0  0  0  0  0
    2.5625   -2.3792    0.0000 C   0  0  0  0  0  0  0  0  0  0  0  0
    3.4000   -1.2167    0.0000 C   0  0  0  0  0  0  0  0  0  0  0  0
    2.7292   -0.7292    0.0000 C   0  0  0  0  0  0  0  0  0  0  0  0
    1.8875   -1.8917    0.0000 C   0  0  0  0  0  0  0  0  0  0  0  0
    1.9667   -1.0667    0.0000 C   0  0  0  0  0  0  0  0  0  0  0  0
  1  2  2  0  0  0  0
  3  5  1  0  0  0  0
  1  4  1  0  0  0  0
  5 11  1  0  0  0  0
  3  6  1  0  0  0  0
  2  7  1  0  0  0  0
  4  8  2  0  0  0  0
  2  9  1  0  0  0  0
  6 10  1  0  0  0  0
  7 11  1  0  0  0  0
  6 12  2  0  0  0  0
 10 13  1  0  0  0  0
 12 14  1  0  0  0  0
  3 15  2  0  0  0  0
  4 16  1  0  0  0  0
 17 21  1  0  0  0  0
  7 18  1  0  0  0  0
  7 19  1  0  0  0  0
 10 20  1  0  0  0  0
 18 21  1  0  0  0  0
 16 22  2  0  0  0  0
 16 23  1  0  0  0  0
 23 24  2  0  0  0  0
 22 25  1  0  0  0  0
 24 26  1  0  0  0  0
  8  9  1  0  0  0  0
 25 26  2  0  0  0  0
  5 17  1  0  0  0  0
 13 14  2  0  0  0  0
M  END
> <MOLFORMULA>
C20 H22 N4 O2

> <MOLWEIGHT>
3.504198000000000e+002

> <IDNUMBER>
AT-687/SK17720

> <PRICE>
EUR 80/10 mg

> <Similarity score>
0.19

$$$$

  -OEChem-04222410502D

 19 21  0     0  0  0  0  0  0999 V2000
    2.1583    0.9500    0.0000 C   0  0  0  0  0  0  0  0  0  0  0  0
    2.4458   -0.0083    0.0000 C   0  0  0  0  0  0  0  0  0  0  0  0
    0.8542   -0.0083    0.0000 C   0  0  0  0  0  0  0  0  0  0  0  0
    1.1625    0.9208    0.0000 C   0  0  0  0  0  0  0  0  0  0  0  0
    1.6792   -0.6000    0.0000 S   0  0  0  0  0  0  0  0  0  0  0  0
    2.7583    1.7583    0.0000 C   0  0  0  0  0  0  0  0  0  0  0  0
   -0.7792    0.4833    0.0000 N   0  0  3  0  0  0  0  0  0  0  0  0
    3.3583    2.5625    0.0000 N   0  0  0  0  0  0  0  0  0  0  0  0
   -0.1167   -0.2250    0.0000 C   0  0  0  0  0  0  0  0  0  0  0  0
    0.4792    1.6625    0.0000 C   0  0  0  0  0  0  0  0  0  0  0  0
    3.4208   -0.3542    0.0000 N   0  0  0  0  0  0  0  0  0  0  0  0
   -0.4833    1.4417    0.0000 C   0  0  0  0  0  0  0  0  0  0  0  0
   -1.7917    0.2958    0.0000 C   0  0  0  0  0  0  0  0  0  0  0  0
   -2.1208   -0.6583    0.0000 C   0  0  0  0  0  0  0  0  0  0  0  0
   -1.4583   -1.4125    0.0000 C   0  0  0  0  0  0  0  0  0  0  0  0
   -3.0917   -0.8500    0.0000 C   0  0  0  0  0  0  0  0  0  0  0  0
   -3.4250   -1.8125    0.0000 C   0  0  0  0  0  0  0  0  0  0  0  0
   -1.7917   -2.3417    0.0000 C   0  0  0  0  0  0  0  0  0  0  0  0
   -2.7625   -2.5583    0.0000 C   0  0  0  0  0  0  0  0  0  0  0  0
  1  2  2  0  0  0  0
  3  4  2  0  0  0  0
  1  4  1  0  0  0  0
  2  5  1  0  0  0  0
  1  6  1  0  0  0  0
  7 12  1  0  0  0  0
  6  8  3  0  0  0  0
  3  9  1  0  0  0  0
  4 10  1  0  0  0  0
  2 11  1  0  0  0  0
 10 12  1  0  0  0  0
  7 13  1  0  0  0  0
 13 14  1  0  0  0  0
 14 15  1  0  0  0  0
 14 16  2  0  0  0  0
 16 17  1  0  0  0  0
 15 18  2  0  0  0  0
 18 19  1  0  0  0  0
  3  5  1  0  0  0  0
  7  9  1  0  0  0  0
 17 19  2  0  0  0  0
M  END
> <MOLFORMULA>
C15 H15 N3 S

> <MOLWEIGHT>
2.693705000000000e+002

> <IDNUMBER>
AN-153/NB12164

> <PRICE>
EUR 130/10 mg

> <Similarity score>
0.19

$$$$

  -OEChem-04222410502D

 19 21  0     0  0  0  0  0  0999 V2000
    1.4292    0.2000    0.0000 C   0  0  0  0  0  0  0  0  0  0  0  0
    1.4292   -0.5500    0.0000 C   0  0  0  0  0  0  0  0  0  0  0  0
    0.1167   -0.5500    0.0000 C   0  0  0  0  0  0  0  0  0  0  0  0
    0.1167    0.2083    0.0000 C   0  0  0  0  0  0  0  0  0  0  0  0
    0.7750   -0.9250    0.0000 S   0  0  0  0  0  0  0  0  0  0  0  0
    2.0667    0.5833    0.0000 C   0  0  0  0  0  0  0  0  0  0  0  0
   -1.1833   -0.5500    0.0000 N   0  0  3  0  0  0  0  0  0  0  0  0
    2.7292    0.2208    0.0000 N   0  0  0  0  0  0  0  0  0  0  0  0
   -0.5333   -0.9250    0.0000 C   0  0  0  0  0  0  0  0  0  0  0  0
   -0.5333    0.5833    0.0000 C   0  0  0  0  0  0  0  0  0  0  0  0
    2.0792   -0.9250    0.0000 N   0  0  0  0  0  0  0  0  0  0  0  0
   -1.1833    0.2083    0.0000 C   0  0  0  0  0  0  0  0  0  0  0  0
   -1.8333   -0.9250    0.0000 C   0  0  0  0  0  0  0  0  0  0  0  0
   -2.4833   -0.5500    0.0000 C   0  0  0  0  0  0  0  0  0  0  0  0
   -3.1333   -0.9250    0.0000 C   0  0  0  0  0  0  0  0  0  0  0  0
   -2.4833    0.2000    0.0000 C   0  0  0  0  0  0  0  0  0  0  0  0
   -3.1333    0.5750    0.0000 C   0  0  0  0  0  0  0  0  0  0  0  0
   -3.7833   -0.5500    0.0000 C   0  0  0  0  0  0  0  0  0  0  0  0
   -3.7833    0.2000    0.0000 C   0  0  0  0  0  0  0  0  0  0  0  0
  1  2  2  0  0  0  0
  3  4  2  0  0  0  0
  1  4  1  0  0  0  0
  2  5  1  0  0  0  0
  1  6  1  0  0  0  0
  7 12  1  0  0  0  0
  6  8  3  0  0  0  0
  3  9  1  0  0  0  0
  4 10  1  0  0  0  0
  2 11  1  0  0  0  0
 10 12  1  0  0  0  0
  7 13  1  0  0  0  0
 13 14  1  0  0  0  0
 14 15  2  0  0  0  0
 14 16  1  0  0  0  0
 16 17  2  0  0  0  0
 15 18  1  0  0  0  0
 17 19  1  0  0  0  0
  3  5  1  0  0  0  0
  7  9  1  0  0  0  0
 18 19  2  0  0  0  0
M  END
> <MOLFORMULA>
C15 H15 N3 S

> <MOLWEIGHT>
2.693705000000000e+002

> <IDNUMBER>
AT-225/JK18545

> <PRICE>
EUR 140/10 mg

> <Similarity score>
0.19

$$$$

  -OEChem-04222410502D

 23 26  0     0  0  0  0  0  0999 V2000
    4.0000   -2.2792    0.0000 N   0  0  0  0  0  0  0  0  0  0  0  0
    4.4875   -2.9417    0.0000 C   0  0  0  0  0  0  0  0  0  0  0  0
    3.2125   -2.5375    0.0000 C   0  0  0  0  0  0  0  0  0  0  0  0
    5.3167   -2.9417    0.0000 C   0  0  3  0  0  0  0  0  0  0  0  0
    3.2125   -3.3667    0.0000 N   0  0  0  0  0  0  0  0  0  0  0  0
    6.7042   -3.3167    0.0000 N   0  0  3  0  0  0  0  0  0  0  0  0
    7.5000   -3.1042    0.0000 C   0  0  0  0  0  0  0  0  0  0  0  0
    4.0000   -3.6167    0.0000 O   0  0  0  0  0  0  0  0  0  0  0  0
    2.5417   -2.0500    0.0000 C   0  0  3  0  0  0  0  0  0  0  0  0
    8.0917   -3.6875    0.0000 C   0  0  0  0  0  0  0  0  0  0  0  0
    6.1125   -2.7375    0.0000 C   0  0  0  0  0  0  0  0  0  0  0  0
    8.8917   -3.4792    0.0000 C   0  0  0  0  0  0  0  0  0  0  0  0
    2.2042   -1.2917    0.0000 C   0  0  0  0  0  0  0  0  0  0  0  0
    1.7125   -1.9542    0.0000 C   0  0  0  0  0  0  0  0  0  0  0  0
    9.1875   -2.7042    0.0000 S   0  0  0  0  0  0  0  0  0  0  0  0
    7.7167   -2.3042    0.0000 O   0  0  0  0  0  0  0  0  0  0  0  0
   10.0167   -2.7417    0.0000 C   0  0  0  0  0  0  0  0  0  0  0  0
    9.5375   -4.0000    0.0000 C   0  0  0  0  0  0  0  0  0  0  0  0
   10.2292   -3.5417    0.0000 C   0  0  0  0  0  0  0  0  0  0  0  0
    5.1000   -3.7500    0.0000 C   0  0  0  0  0  0  0  0  0  0  0  0
    5.6375   -2.1792    0.0000 C   0  0  0  0  0  0  0  0  0  0  0  0
    6.4875   -4.1250    0.0000 C   0  0  0  0  0  0  0  0  0  0  0  0
    5.6875   -4.3292    0.0000 C   0  0  0  0  0  0  0  0  0  0  0  0
  1  2  2  0  0  0  0
  1  3  1  0  0  0  0
  2  4  1  0  0  0  0
  3  5  2  0  0  0  0
  6 11  1  0  0  0  0
  6  7  1  0  0  0  0
  2  8  1  0  0  0  0
  3  9  1  0  0  0  0
  7 10  1  0  0  0  0
  4 11  1  0  0  0  0
 10 12  1  0  0  0  0
  9 13  1  0  0  0  0
  9 14  1  0  0  0  0
 12 15  1  0  0  0  0
  7 16  2  0  0  0  0
 15 17  1  0  0  0  0
 12 18  2  0  0  0  0
 18 19  1  0  0  0  0
  4 20  1  0  0  0  0
  4 21  1  0  0  0  0
 22 23  1  0  0  0  0
 20 23  1  0  0  0  0
  5  8  1  0  0  0  0
 13 14  1  0  0  0  0
  6 22  1  0  0  0  0
 17 19  2  0  0  0  0
M  END
> <MOLFORMULA>
C17 H21 N3 O2 S

> <MOLWEIGHT>
3.314379000000000e+002

> <IDNUMBER>
AT-687/SK17710

> <PRICE>
EUR 80/10 mg

> <Similarity score>
0.19

$$$$

  -OEChem-04222410502D

 17 18  0     0  0  0  0  0  0999 V2000
    0.1375    0.9458    0.0000 C   0  0  0  0  0  0  0  0  0  0  0  0
    0.1375    0.2833    0.0000 C   0  0  0  0  0  0  0  0  0  0  0  0
   -1.0208    0.2833    0.0000 C   0  0  0  0  0  0  0  0  0  0  0  0
   -1.0208    0.9458    0.0000 C   0  0  0  0  0  0  0  0  0  0  0  0
   -0.4458   -0.0500    0.0000 S   0  0  0  0  0  0  0  0  0  0  0  0
    0.7500    1.2833    0.0000 C   0  0  0  0  0  0  0  0  0  0  0  0
   -1.6000   -0.0500    0.0000 C   0  0  0  0  0  0  0  0  0  0  0  0
    1.3542    1.6208    0.0000 N   0  0  0  0  0  0  0  0  0  0  0  0
   -1.6000    1.2708    0.0000 C   0  0  0  0  0  0  0  0  0  0  0  0
   -2.1833    0.2833    0.0000 C   0  0  3  0  0  0  0  0  0  0  0  0
   -2.7958   -0.0667    0.0000 C   0  0  3  0  0  0  0  0  0  0  0  0
    0.7500   -0.0667    0.0000 N   0  0  0  0  0  0  0  0  0  0  0  0
   -2.1833    0.9458    0.0000 C   0  0  0  0  0  0  0  0  0  0  0  0
   -3.4833   -0.3542    0.0000 C   0  0  0  0  0  0  0  0  0  0  0  0
   -3.0458    0.5208    0.0000 C   0  0  0  0  0  0  0  0  0  0  0  0
   -2.5000   -0.7375    0.0000 C   0  0  0  0  0  0  0  0  0  0  0  0
   -3.5625   -1.0542    0.0000 C   0  0  0  0  0  0  0  0  0  0  0  0
  1  2  2  0  0  0  0
  3  4  2  0  0  0  0
  1  4  1  0  0  0  0
  2  5  1  0  0  0  0
  1  6  1  0  0  0  0
  3  7  1  0  0  0  0
  6  8  3  0  0  0  0
  4  9  1  0  0  0  0
 10 13  1  0  0  0  0
 10 11  1  0  0  0  0
  2 12  1  0  0  0  0
  9 13  1  0  0  0  0
 11 14  1  0  0  0  0
 11 15  1  0  0  0  0
 11 16  1  0  0  0  0
 14 17  1  0  0  0  0
  3  5  1  0  0  0  0
  7 10  1  0  0  0  0
M  END
> <MOLFORMULA>
C14 H20 N2 S

> <MOLWEIGHT>
2.483920000000000e+002

> <IDNUMBER>
AT-225/JK21280

> <PRICE>
EUR 140/10 mg

> <Similarity score>
0.19

$$$$

  -OEChem-04222410502D

 23 26  0     0  0  0  0  0  0999 V2000
    3.6667   -1.5750    0.0000 N   0  0  0  0  0  0  0  0  0  0  0  0
    4.4500   -2.6500    0.0000 C   0  0  0  0  0  0  0  0  0  0  0  0
    2.4000   -1.9917    0.0000 C   0  0  0  0  0  0  0  0  0  0  0  0
    5.7750   -2.6500    0.0000 C   0  0  3  0  0  0  0  0  0  0  0  0
    2.4000   -3.3250    0.0000 N   0  0  0  0  0  0  0  0  0  0  0  0
    8.0000   -3.2292    0.0000 N   0  0  3  0  0  0  0  0  0  0  0  0
    3.6667   -3.7167    0.0000 O   0  0  0  0  0  0  0  0  0  0  0  0
    9.2792   -2.9042    0.0000 C   0  0  0  0  0  0  0  0  0  0  0  0
    1.3250   -1.2042    0.0000 C   0  0  3  0  0  0  0  0  0  0  0  0
    7.0500   -2.3042    0.0000 C   0  0  0  0  0  0  0  0  0  0  0  0
    0.7750   -0.0000    0.0000 C   0  0  0  0  0  0  0  0  0  0  0  0
    0.0000   -1.0667    0.0000 C   0  0  0  0  0  0  0  0  0  0  0  0
   10.8917   -1.2750    0.0000 C   0  0  0  0  0  0  0  0  0  0  0  0
   12.7250   -0.0917    0.0000 S   0  0  0  0  0  0  0  0  0  0  0  0
    9.6250   -1.6250    0.0000 C   0  0  0  0  0  0  0  0  0  0  0  0
   11.3917   -0.0292    0.0000 C   0  0  0  0  0  0  0  0  0  0  0  0
   10.2250   -3.8417    0.0000 O   0  0  0  0  0  0  0  0  0  0  0  0
   13.0667   -1.3917    0.0000 C   0  0  0  0  0  0  0  0  0  0  0  0
   11.9500   -2.1167    0.0000 C   0  0  0  0  0  0  0  0  0  0  0  0
    5.4250   -3.9417    0.0000 C   0  0  0  0  0  0  0  0  0  0  0  0
    6.2750   -1.4167    0.0000 C   0  0  0  0  0  0  0  0  0  0  0  0
    7.6500   -4.5417    0.0000 C   0  0  0  0  0  0  0  0  0  0  0  0
    6.3750   -4.8667    0.0000 C   0  0  0  0  0  0  0  0  0  0  0  0
  1  2  2  0  0  0  0
  1  3  1  0  0  0  0
  2  4  1  0  0  0  0
  3  5  2  0  0  0  0
  6 10  1  0  0  0  0
  2  7  1  0  0  0  0
  6  8  1  0  0  0  0
  3  9  1  0  0  0  0
  4 10  1  0  0  0  0
  9 11  1  0  0  0  0
  9 12  1  0  0  0  0
 13 15  1  0  0  0  0
 14 16  1  0  0  0  0
  8 15  1  0  0  0  0
 13 16  2  0  0  0  0
  8 17  2  0  0  0  0
 18 19  2  0  0  0  0
 13 19  1  0  0  0  0
  4 20  1  0  0  0  0
  4 21  1  0  0  0  0
 22 23  1  0  0  0  0
 20 23  1  0  0  0  0
  5  7  1  0  0  0  0
 11 12  1  0  0  0  0
  6 22  1  0  0  0  0
 14 18  1  0  0  0  0
M  END
> <MOLFORMULA>
C17 H21 N3 O2 S

> <MOLWEIGHT>
3.314379000000000e+002

> <IDNUMBER>
AT-687/PE19316

> <PRICE>
EUR 80/10 mg

> <Similarity score>
0.19

$$$$

  -OEChem-04222410502D

 23 26  0     0  0  0  0  0  0999 V2000
    2.2542   -2.7167    0.0000 N   0  0  0  0  0  0  0  0  0  0  0  0
    2.7500   -2.0417    0.0000 C   0  0  0  0  0  0  0  0  0  0  0  0
    1.4750   -2.4542    0.0000 C   0  0  0  0  0  0  0  0  0  0  0  0
    3.5750   -2.0417    0.0000 C   0  0  3  0  0  0  0  0  0  0  0  0
    4.9625   -1.6667    0.0000 N   0  0  3  0  0  0  0  0  0  0  0  0
    1.4750   -1.6292    0.0000 N   0  0  0  0  0  0  0  0  0  0  0  0
    5.7667   -1.8875    0.0000 C   0  0  0  0  0  0  0  0  0  0  0  0
    2.2542   -1.3792    0.0000 O   0  0  0  0  0  0  0  0  0  0  0  0
    0.8042   -2.9417    0.0000 C   0  0  3  0  0  0  0  0  0  0  0  0
    4.3792   -2.2542    0.0000 C   0  0  0  0  0  0  0  0  0  0  0  0
    0.4667   -3.7000    0.0000 C   0  0  0  0  0  0  0  0  0  0  0  0
   -0.0208   -3.0292    0.0000 C   0  0  0  0  0  0  0  0  0  0  0  0
    6.3500   -1.3042    0.0000 C   0  0  0  0  0  0  0  0  0  0  0  0
    7.1500   -1.5125    0.0000 N   0  0  0  0  0  0  0  0  0  0  0  0
    5.9792   -2.6792    0.0000 O   0  0  0  0  0  0  0  0  0  0  0  0
    4.7542   -0.8667    0.0000 C   0  0  0  0  0  0  0  0  0  0  0  0
    3.3667   -1.2417    0.0000 C   0  0  0  0  0  0  0  0  0  0  0  0
    3.8917   -2.8042    0.0000 C   0  0  0  0  0  0  0  0  0  0  0  0
    3.9500   -0.6542    0.0000 C   0  0  0  0  0  0  0  0  0  0  0  0
    7.7417   -0.9292    0.0000 C   0  0  0  0  0  0  0  0  0  0  0  0
    6.1292   -0.5000    0.0000 C   0  0  0  0  0  0  0  0  0  0  0  0
    7.5167   -0.1250    0.0000 C   0  0  0  0  0  0  0  0  0  0  0  0
    6.7250    0.0833    0.0000 C   0  0  0  0  0  0  0  0  0  0  0  0
  1  2  2  0  0  0  0
  1  3  1  0  0  0  0
  2  4  1  0  0  0  0
  5 10  1  0  0  0  0
  3  6  2  0  0  0  0
  5  7  1  0  0  0  0
  2  8  1  0  0  0  0
  3  9  1  0  0  0  0
  4 10  1  0  0  0  0
  9 11  1  0  0  0  0
  9 12  1  0  0  0  0
  7 13  1  0  0  0  0
 13 14  2  0  0  0  0
  7 15  2  0  0  0  0
 16 19  1  0  0  0  0
  4 17  1  0  0  0  0
  4 18  1  0  0  0  0
 17 19  1  0  0  0  0
 14 20  1  0  0  0  0
 13 21  1  0  0  0  0
 22 23  1  0  0  0  0
 21 23  2  0  0  0  0
  6  8  1  0  0  0  0
 11 12  1  0  0  0  0
  5 16  1  0  0  0  0
 20 22  2  0  0  0  0
M  END
> <MOLFORMULA>
C17 H20 N4 O2

> <MOLWEIGHT>
3.123710000000000e+002

> <IDNUMBER>
AT-687/SK17711

> <PRICE>
EUR 80/10 mg

> <Similarity score>
0.19

$$$$

  -OEChem-04222410502D

 13 14  0     0  0  0  0  0  0999 V2000
    0.9042    0.3458    0.0000 C   0  0  0  0  0  0  0  0  0  0  0  0
    1.1500   -0.3375    0.0000 C   0  0  0  0  0  0  0  0  0  0  0  0
    0.2000    0.3458    0.0000 C   0  0  0  0  0  0  0  0  0  0  0  0
    0.0000   -0.3375    0.0000 C   0  0  0  0  0  0  0  0  0  0  0  0
    0.5875   -0.7542    0.0000 S   0  0  0  0  0  0  0  0  0  0  0  0
    1.3292    0.9458    0.0000 C   0  0  0  0  0  0  0  0  0  0  0  0
    1.7292    1.5333    0.0000 N   0  0  0  0  0  0  0  0  0  0  0  0
   -1.1958    0.0125    0.0000 N   0  0  3  0  0  0  0  0  0  0  0  0
   -0.7125   -0.5042    0.0000 C   0  0  0  0  0  0  0  0  0  0  0  0
   -0.2958    0.8708    0.0000 C   0  0  0  0  0  0  0  0  0  0  0  0
    1.8500   -0.5667    0.0000 N   0  0  0  0  0  0  0  0  0  0  0  0
   -0.9833    0.7125    0.0000 C   0  0  0  0  0  0  0  0  0  0  0  0
   -1.8958   -0.1667    0.0000 C   0  0  0  0  0  0  0  0  0  0  0  0
  1  2  2  0  0  0  0
  1  3  1  0  0  0  0
  3  4  2  0  0  0  0
  2  5  1  0  0  0  0
  1  6  1  0  0  0  0
  6  7  3  0  0  0  0
  8 12  1  0  0  0  0
  4  9  1  0  0  0  0
  3 10  1  0  0  0  0
  2 11  1  0  0  0  0
 10 12  1  0  0  0  0
  8 13  1  0  0  0  0
  4  5  1  0  0  0  0
  8  9  1  0  0  0  0
M  END
> <MOLFORMULA>
C9 H11 N3 S

> <MOLWEIGHT>
1.932729000000000e+002

> <IDNUMBER>
AT-225/JK15585

> <PRICE>
EUR 140/10 mg

> <Similarity score>
0.19

$$$$

  -OEChem-04222410502D

 13 14  0     0  0  0  0  0  0999 V2000
    7.0667   -2.7917    0.0000 C   0  0  0  0  0  0  0  0  0  0  0  0
    7.3167   -3.5750    0.0000 C   0  0  0  0  0  0  0  0  0  0  0  0
    6.2417   -2.7917    0.0000 C   0  0  0  0  0  0  0  0  0  0  0  0
    5.9917   -3.5750    0.0000 C   0  0  0  0  0  0  0  0  0  0  0  0
    6.6625   -4.0542    0.0000 S   0  0  0  0  0  0  0  0  0  0  0  0
    7.5542   -2.1167    0.0000 C   0  0  0  0  0  0  0  0  0  0  0  0
    8.0417   -1.4500    0.0000 N   0  0  0  0  0  0  0  0  0  0  0  0
    4.6292   -3.1375    0.0000 N   0  0  3  0  0  0  0  0  0  0  0  0
    5.1875   -3.7500    0.0000 C   0  0  0  0  0  0  0  0  0  0  0  0
    5.6917   -2.1792    0.0000 C   0  0  0  0  0  0  0  0  0  0  0  0
    8.1042   -3.8292    0.0000 N   0  0  0  0  0  0  0  0  0  0  0  0
    4.8917   -2.3542    0.0000 C   0  0  0  0  0  0  0  0  0  0  0  0
    3.8167   -3.3042    0.0000 C   0  0  0  0  0  0  0  0  0  0  0  0
  1  2  2  0  0  0  0
  1  3  1  0  0  0  0
  3  4  2  0  0  0  0
  2  5  1  0  0  0  0
  1  6  1  0  0  0  0
  6  7  3  0  0  0  0
  8 12  1  0  0  0  0
  4  9  1  0  0  0  0
  3 10  1  0  0  0  0
  2 11  1  0  0  0  0
 10 12  1  0  0  0  0
  8 13  1  0  0  0  0
  4  5  1  0  0  0  0
  8  9  1  0  0  0  0
M  END
> <MOLFORMULA>
C9 H11 N3 S

> <MOLWEIGHT>
1.932729000000000e+002

> <IDNUMBER>
AT-687/SK15998

> <PRICE>
EUR 80/10 mg

> <Similarity score>
0.19

$$$$

  -OEChem-04222410502D

 13 14  0     0  0  0  0  0  0999 V2000
   -1.1750   -0.3542    0.0000 C   0  0  0  0  0  0  0  0  0  0  0  0
   -1.5833    0.5583    0.0000 C   0  0  0  0  0  0  0  0  0  0  0  0
   -0.1833   -0.2500    0.0000 C   0  0  0  0  0  0  0  0  0  0  0  0
    0.0250    0.7250    0.0000 C   0  0  0  0  0  0  0  0  0  0  0  0
   -0.8375    1.2250    0.0000 S   0  0  0  0  0  0  0  0  0  0  0  0
   -1.6750   -1.2208    0.0000 C   0  0  0  0  0  0  0  0  0  0  0  0
   -2.6750   -1.2208    0.0000 N   0  0  0  0  0  0  0  0  0  0  0  0
    1.7208    0.3667    0.0000 N   0  0  3  0  0  0  0  0  0  0  0  0
    0.9792    1.0375    0.0000 C   0  0  0  0  0  0  0  0  0  0  0  0
    0.5625   -0.9208    0.0000 C   0  0  0  0  0  0  0  0  0  0  0  0
   -2.5625    0.7667    0.0000 N   0  0  0  0  0  0  0  0  0  0  0  0
    1.5125   -0.6125    0.0000 C   0  0  0  0  0  0  0  0  0  0  0  0
    2.6708    0.6750    0.0000 C   0  0  0  0  0  0  0  0  0  0  0  0
  1  2  2  0  0  0  0
  1  3  1  0  0  0  0
  3  4  2  0  0  0  0
  2  5  1  0  0  0  0
  1  6  1  0  0  0  0
  6  7  3  0  0  0  0
  8 12  1  0  0  0  0
  4  9  1  0  0  0  0
  3 10  1  0  0  0  0
  2 11  1  0  0  0  0
 10 12  1  0  0  0  0
  8 13  1  0  0  0  0
  4  5  1  0  0  0  0
  8  9  1  0  0  0  0
M  END
> <MOLFORMULA>
C9 H11 N3 S

> <MOLWEIGHT>
1.932729000000000e+002

> <IDNUMBER>
AN-153/I108034

> <PRICE>
EUR 130/10 mg

> <Similarity score>
0.19

$$$$

  -OEChem-04222410502D

 19 20  0     0  0  0  0  0  0999 V2000
    2.3667   -5.3542    0.0000 C   0  0  0  0  0  0  0  0  0  0  0  0
    2.8542   -6.0250    0.0000 C   0  0  0  0  0  0  0  0  0  0  0  0
    1.5875   -6.4292    0.0000 C   0  0  0  0  0  0  0  0  0  0  0  0
    1.5875   -5.6042    0.0000 C   0  0  0  0  0  0  0  0  0  0  0  0
    2.3667   -6.6875    0.0000 S   0  0  0  0  0  0  0  0  0  0  0  0
   -0.5625   -6.8542    0.0000 C   0  0  0  0  0  0  0  0  0  0  0  0
    0.1542   -6.4292    0.0000 N   0  0  3  0  0  0  0  0  0  0  0  0
    0.8750   -6.8417    0.0000 C   0  0  0  0  0  0  0  0  0  0  0  0
    2.6250   -4.5667    0.0000 C   0  0  0  0  0  0  0  0  0  0  0  0
    2.8792   -3.7792    0.0000 N   0  0  0  0  0  0  0  0  0  0  0  0
    0.8750   -5.1917    0.0000 C   0  0  0  0  0  0  0  0  0  0  0  0
   -1.2833   -6.4417    0.0000 O   0  0  0  0  0  0  0  0  0  0  0  0
    0.1542   -5.6042    0.0000 C   0  0  0  0  0  0  0  0  0  0  0  0
   -0.5583   -7.6792    0.0000 O   0  0  0  0  0  0  0  0  0  0  0  0
    3.6792   -6.0292    0.0000 N   0  0  0  0  0  0  0  0  0  0  0  0
   -1.9958   -6.8542    0.0000 C   0  0  3  0  0  0  0  0  0  0  0  0
   -2.7125   -7.2792    0.0000 C   0  0  0  0  0  0  0  0  0  0  0  0
   -2.4208   -6.1417    0.0000 C   0  0  0  0  0  0  0  0  0  0  0  0
   -1.5750   -7.5750    0.0000 C   0  0  0  0  0  0  0  0  0  0  0  0
  1  2  2  0  0  0  0
  3  4  2  0  0  0  0
  1  4  1  0  0  0  0
  2  5  1  0  0  0  0
  6  7  1  0  0  0  0
  7 13  1  0  0  0  0
  3  8  1  0  0  0  0
  1  9  1  0  0  0  0
  9 10  3  0  0  0  0
  4 11  1  0  0  0  0
  6 12  1  0  0  0  0
 11 13  1  0  0  0  0
  6 14  2  0  0  0  0
  2 15  1  0  0  0  0
 12 16  1  0  0  0  0
 16 17  1  0  0  0  0
 16 18  1  0  0  0  0
 16 19  1  0  0  0  0
  3  5  1  0  0  0  0
  7  8  1  0  0  0  0
M  END
> <MOLFORMULA>
C13 H17 N3 O2 S

> <MOLWEIGHT>
2.793623000000000e+002

> <IDNUMBER>
AT-687/SK08594

> <PRICE>
EUR 80/10 mg

> <Similarity score>
0.18

$$$$

  -OEChem-04222410502D

 27 30  0     0  0  0  0  0  0999 V2000
    2.0667   -3.2000    0.0000 C   0  0  0  0  0  0  0  0  0  0  0  0
    1.3625   -2.7917    0.0000 C   0  0  0  0  0  0  0  0  0  0  0  0
    0.7417   -3.3417    0.0000 C   0  0  0  0  0  0  0  0  0  0  0  0
    1.8917   -4.0042    0.0000 C   0  0  0  0  0  0  0  0  0  0  0  0
    1.0792   -4.0917    0.0000 S   0  0  0  0  0  0  0  0  0  0  0  0
    2.7875    0.5083    0.0000 C   0  0  0  0  0  0  0  0  0  0  0  0
    2.7875   -0.3125    0.0000 C   0  0  0  0  0  0  0  0  0  0  0  0
    3.5667    0.7583    0.0000 S   0  0  0  0  0  0  0  0  0  0  0  0
    3.5667   -0.5667    0.0000 C   0  0  0  0  0  0  0  0  0  0  0  0
    4.0500    0.1000    0.0000 C   0  0  0  0  0  0  0  0  0  0  0  0
    2.0667   -0.7167    0.0000 C   0  0  0  0  0  0  0  0  0  0  0  0
    2.0667    0.9250    0.0000 N   0  0  0  0  0  0  0  0  0  0  0  0
   -0.0625   -3.1917    0.0000 C   0  0  0  0  0  0  0  0  0  0  0  0
    2.8417   -2.8667    0.0000 C   0  0  0  0  0  0  0  0  0  0  0  0
    1.3625   -1.9625    0.0000 C   0  0  0  0  0  0  0  0  0  0  0  0
    1.3625   -0.3125    0.0000 N   0  0  0  0  0  0  0  0  0  0  0  0
    3.6000   -2.5375    0.0000 N   0  0  0  0  0  0  0  0  0  0  0  0
    2.0667   -1.5417    0.0000 S   0  0  0  0  0  0  0  0  0  0  0  0
    1.3625    0.5083    0.0000 C   0  0  0  0  0  0  0  0  0  0  0  0
    2.4417   -4.6292    0.0000 N   0  0  0  0  0  0  0  0  0  0  0  0
   -0.3375   -2.4167    0.0000 O   0  0  0  0  0  0  0  0  0  0  0  0
   -0.6000   -3.8167    0.0000 O   0  0  0  0  0  0  0  0  0  0  0  0
    4.0542   -1.2375    0.0000 C   0  0  0  0  0  0  0  0  0  0  0  0
    4.8417   -0.1417    0.0000 C   0  0  0  0  0  0  0  0  0  0  0  0
    4.8417   -0.9667    0.0000 C   0  0  0  0  0  0  0  0  0  0  0  0
   -0.3250   -4.5917    0.0000 C   0  0  0  0  0  0  0  0  0  0  0  0
   -0.8583   -5.2167    0.0000 C   0  0  0  0  0  0  0  0  0  0  0  0
  1  2  1  0  0  0  0
  2  3  2  0  0  0  0
  1  4  2  0  0  0  0
  4  5  1  0  0  0  0
  6  7  1  0  0  0  0
  7 11  2  0  0  0  0
  6  8  1  0  0  0  0
  7  9  1  0  0  0  0
  9 10  2  0  0  0  0
 11 18  1  0  0  0  0
 12 19  1  0  0  0  0
  3 13  1  0  0  0  0
  1 14  1  0  0  0  0
  2 15  1  0  0  0  0
 11 16  1  0  0  0  0
 14 17  3  0  0  0  0
 15 18  1  0  0  0  0
 16 19  2  0  0  0  0
  4 20  1  0  0  0  0
 13 21  2  0  0  0  0
 13 22  1  0  0  0  0
  9 23  1  0  0  0  0
 10 24  1  0  0  0  0
 23 25  1  0  0  0  0
 22 26  1  0  0  0  0
 26 27  1  0  0  0  0
  3  5  1  0  0  0  0
  6 12  2  0  0  0  0
  8 10  1  0  0  0  0
 24 25  1  0  0  0  0
M  END
> <MOLFORMULA>
C18 H16 N4 O2 S3

> <MOLWEIGHT>
4.165484000000000e+002

> <IDNUMBER>
AT-687/SK06793

> <PRICE>
EUR 80/10 mg

> <Similarity score>
0.18

$$$$

  -OEChem-04222410502D

 23 26  0     0  0  0  0  0  0999 V2000
    1.1917   -0.2542    0.0000 N   0  0  0  0  0  0  0  0  0  0  0  0
    1.6792   -0.9292    0.0000 C   0  0  0  0  0  0  0  0  0  0  0  0
    0.4125   -0.5125    0.0000 C   0  0  0  0  0  0  0  0  0  0  0  0
    2.5042   -0.9292    0.0000 C   0  0  3  0  0  0  0  0  0  0  0  0
    3.8875   -1.2917    0.0000 N   0  0  3  0  0  0  0  0  0  0  0  0
    0.4125   -1.3417    0.0000 N   0  0  0  0  0  0  0  0  0  0  0  0
    4.6917   -1.0792    0.0000 C   0  0  0  0  0  0  0  0  0  0  0  0
    1.1917   -1.5875    0.0000 O   0  0  0  0  0  0  0  0  0  0  0  0
   -0.2500   -0.0292    0.0000 C   0  0  3  0  0  0  0  0  0  0  0  0
    3.3042   -0.7125    0.0000 C   0  0  0  0  0  0  0  0  0  0  0  0
    5.2667   -1.6667    0.0000 C   0  0  0  0  0  0  0  0  0  0  0  0
   -1.0708    0.0625    0.0000 C   0  0  0  0  0  0  0  0  0  0  0  0
   -0.5875    0.7250    0.0000 C   0  0  0  0  0  0  0  0  0  0  0  0
    5.0542   -2.4667    0.0000 N   0  0  0  0  0  0  0  0  0  0  0  0
    4.9000   -0.2875    0.0000 O   0  0  0  0  0  0  0  0  0  0  0  0
    6.6542   -2.0292    0.0000 N   0  0  0  0  0  0  0  0  0  0  0  0
    3.6792   -2.0917    0.0000 C   0  0  0  0  0  0  0  0  0  0  0  0
    2.2917   -1.7167    0.0000 C   0  0  0  0  0  0  0  0  0  0  0  0
    6.0667   -1.4542    0.0000 C   0  0  0  0  0  0  0  0  0  0  0  0
    2.8250   -0.1667    0.0000 C   0  0  0  0  0  0  0  0  0  0  0  0
    2.8792   -2.3125    0.0000 C   0  0  0  0  0  0  0  0  0  0  0  0
    5.6417   -3.0417    0.0000 C   0  0  0  0  0  0  0  0  0  0  0  0
    6.4375   -2.8375    0.0000 C   0  0  0  0  0  0  0  0  0  0  0  0
  1  2  2  0  0  0  0
  1  3  1  0  0  0  0
  2  4  1  0  0  0  0
  5 10  1  0  0  0  0
  3  6  2  0  0  0  0
  5  7  1  0  0  0  0
  2  8  1  0  0  0  0
  3  9  1  0  0  0  0
  4 10  1  0  0  0  0
  7 11  1  0  0  0  0
  9 12  1  0  0  0  0
  9 13  1  0  0  0  0
 11 14  2  0  0  0  0
  7 15  2  0  0  0  0
 16 19  2  0  0  0  0
 17 21  1  0  0  0  0
  4 18  1  0  0  0  0
 11 19  1  0  0  0  0
  4 20  1  0  0  0  0
 18 21  1  0  0  0  0
 14 22  1  0  0  0  0
 16 23  1  0  0  0  0
  6  8  1  0  0  0  0
 12 13  1  0  0  0  0
  5 17  1  0  0  0  0
 22 23  2  0  0  0  0
M  END
> <MOLFORMULA>
C16 H19 N5 O2

> <MOLWEIGHT>
3.133591000000000e+002

> <IDNUMBER>
AT-687/SK17712

> <PRICE>
EUR 80/10 mg

> <Similarity score>
0.18

$$$$

  -OEChem-04222410502D

 27 30  0     0  0  0  0  0  0999 V2000
    2.6125    1.3000    0.0000 C   0  0  0  0  0  0  0  0  0  0  0  0
    3.6083    1.4042    0.0000 C   0  0  0  0  0  0  0  0  0  0  0  0
    2.2083    2.2167    0.0000 S   0  0  0  0  0  0  0  0  0  0  0  0
    3.8167    2.3833    0.0000 C   0  0  0  0  0  0  0  0  0  0  0  0
   -0.8875   -1.2958    0.0000 C   0  0  0  0  0  0  0  0  0  0  0  0
   -1.8792   -1.4000    0.0000 N   0  0  0  0  0  0  0  0  0  0  0  0
    2.9500    2.8833    0.0000 C   0  0  0  0  0  0  0  0  0  0  0  0
   -0.4792   -2.2125    0.0000 N   0  0  0  0  0  0  0  0  0  0  0  0
    2.1125    0.4333    0.0000 N   0  0  0  0  0  0  0  0  0  0  0  0
   -2.0875   -2.3792    0.0000 C   0  0  0  0  0  0  0  0  0  0  0  0
    4.2792    0.6625    0.0000 C   0  0  0  0  0  0  0  0  0  0  0  0
   -1.2208   -2.8792    0.0000 C   0  0  0  0  0  0  0  0  0  0  0  0
    3.9667   -0.2875    0.0000 N   0  0  0  0  0  0  0  0  0  0  0  0
    1.1125    0.4333    0.0000 C   0  0  0  0  0  0  0  0  0  0  0  0
   -2.9542   -2.8792    0.0000 C   0  0  0  0  0  0  0  0  0  0  0  0
   -0.3875   -0.4292    0.0000 S   0  0  0  0  0  0  0  0  0  0  0  0
    0.6125    1.3000    0.0000 O   0  0  0  0  0  0  0  0  0  0  0  0
   -1.2208   -3.8792    0.0000 C   0  0  0  0  0  0  0  0  0  0  0  0
    0.6125   -0.4292    0.0000 C   0  0  0  0  0  0  0  0  0  0  0  0
   -2.9542   -3.8792    0.0000 C   0  0  0  0  0  0  0  0  0  0  0  0
   -2.0875   -4.3792    0.0000 C   0  0  0  0  0  0  0  0  0  0  0  0
    4.6833    2.8833    0.0000 C   0  0  0  0  0  0  0  0  0  0  0  0
    2.9500    3.8833    0.0000 C   0  0  0  0  0  0  0  0  0  0  0  0
   -3.8208   -4.3792    0.0000 O   0  0  0  0  0  0  0  0  0  0  0  0
   -4.6875   -3.8792    0.0000 C   0  0  0  0  0  0  0  0  0  0  0  0
    4.6833    3.8833    0.0000 C   0  0  0  0  0  0  0  0  0  0  0  0
    3.8167    4.3792    0.0000 C   0  0  0  0  0  0  0  0  0  0  0  0
  1  2  2  0  0  0  0
  1  3  1  0  0  0  0
  2  4  1  0  0  0  0
  5 16  1  0  0  0  0
  5  6  2  0  0  0  0
  3  7  1  0  0  0  0
  5  8  1  0  0  0  0
  1  9  1  0  0  0  0
  6 10  1  0  0  0  0
  2 11  1  0  0  0  0
  8 12  1  0  0  0  0
 11 13  3  0  0  0  0
  9 14  1  0  0  0  0
 10 15  1  0  0  0  0
 16 19  1  0  0  0  0
 14 17  2  0  0  0  0
 12 18  1  0  0  0  0
 14 19  1  0  0  0  0
 15 20  2  0  0  0  0
 18 21  2  0  0  0  0
  4 22  1  0  0  0  0
  7 23  1  0  0  0  0
 20 24  1  0  0  0  0
 24 25  1  0  0  0  0
 22 26  1  0  0  0  0
 23 27  1  0  0  0  0
  4  7  2  0  0  0  0
 26 27  1  0  0  0  0
 10 12  2  0  0  0  0
 20 21  1  0  0  0  0
M  END
> <MOLFORMULA>
C19 H18 N4 O2 S2

> <MOLWEIGHT>
3.985092000000000e+002

> <IDNUMBER>
AN-153/I137971

> <PRICE>
EUR 130/10 mg

> <Similarity score>
0.18

$$$$

  -OEChem-04222410502D

 12 13  0     0  0  0  0  0  0999 V2000
    2.1125   -2.4125    0.0000 C   0  0  0  0  0  0  0  0  0  0  0  0
    1.3292   -1.3292    0.0000 C   0  0  0  0  0  0  0  0  0  0  0  0
    3.3667   -1.9917    0.0000 C   0  0  0  0  0  0  0  0  0  0  0  0
    2.1125   -0.2542    0.0000 S   0  0  0  0  0  0  0  0  0  0  0  0
    3.3667   -0.6625    0.0000 C   0  0  0  0  0  0  0  0  0  0  0  0
    1.6917   -3.6792    0.0000 C   0  0  0  0  0  0  0  0  0  0  0  0
    1.2875   -4.9375    0.0000 N   0  0  0  0  0  0  0  0  0  0  0  0
    5.6792   -0.6625    0.0000 N   0  0  0  0  0  0  0  0  0  0  0  0
    0.0000   -1.3292    0.0000 N   0  0  0  0  0  0  0  0  0  0  0  0
    4.5292   -0.0000    0.0000 C   0  0  0  0  0  0  0  0  0  0  0  0
    4.5292   -2.6542    0.0000 C   0  0  0  0  0  0  0  0  0  0  0  0
    5.6792   -1.9917    0.0000 C   0  0  0  0  0  0  0  0  0  0  0  0
  1  2  2  0  0  0  0
  1  3  1  0  0  0  0
  2  4  1  0  0  0  0
  3  5  2  0  0  0  0
  1  6  1  0  0  0  0
  6  7  3  0  0  0  0
  8 12  1  0  0  0  0
  2  9  1  0  0  0  0
  5 10  1  0  0  0  0
  3 11  1  0  0  0  0
 11 12  1  0  0  0  0
  4  5  1  0  0  0  0
  8 10  1  0  0  0  0
M  END
> <MOLFORMULA>
C8 H9 N3 S

> <MOLWEIGHT>
1.792461000000000e+002

> <IDNUMBER>
AT-687/SK11951

> <PRICE>
EUR 80/10 mg

> <Similarity score>
0.18

$$$$

  -OEChem-04222410502D

 25 28  0     0  0  0  0  0  0999 V2000
    3.6500   -3.3000    0.0000 N   0  0  0  0  0  0  0  0  0  0  0  0
    4.4417   -2.2250    0.0000 C   0  0  0  0  0  0  0  0  0  0  0  0
    2.3917   -2.8792    0.0000 C   0  0  0  0  0  0  0  0  0  0  0  0
    5.7750   -2.2250    0.0000 C   0  0  3  0  0  0  0  0  0  0  0  0
    2.3917   -1.5500    0.0000 N   0  0  0  0  0  0  0  0  0  0  0  0
    8.0000   -1.6167    0.0000 N   0  0  3  0  0  0  0  0  0  0  0  0
    3.6500   -1.1417    0.0000 O   0  0  0  0  0  0  0  0  0  0  0  0
    1.3042   -3.6667    0.0000 C   0  0  3  0  0  0  0  0  0  0  0  0
    9.2750   -1.9667    0.0000 C   0  0  0  0  0  0  0  0  0  0  0  0
    7.0542   -2.5542    0.0000 C   0  0  0  0  0  0  0  0  0  0  0  0
    0.7750   -4.8750    0.0000 C   0  0  0  0  0  0  0  0  0  0  0  0
    0.0000   -3.8000    0.0000 C   0  0  0  0  0  0  0  0  0  0  0  0
   10.2292   -1.0250    0.0000 O   0  0  0  0  0  0  0  0  0  0  0  0
    9.6250   -3.2500    0.0000 C   0  0  0  0  0  0  0  0  0  0  0  0
    5.4292   -0.9292    0.0000 C   0  0  0  0  0  0  0  0  0  0  0  0
    6.2917   -3.4500    0.0000 C   0  0  0  0  0  0  0  0  0  0  0  0
    7.6500   -0.3417    0.0000 C   0  0  0  0  0  0  0  0  0  0  0  0
   10.8917   -3.6000    0.0000 C   0  0  0  0  0  0  0  0  0  0  0  0
   11.2667   -4.8750    0.0000 C   0  0  0  0  0  0  0  0  0  0  0  0
    6.3667   -0.0000    0.0000 C   0  0  0  0  0  0  0  0  0  0  0  0
   12.5417   -5.2250    0.0000 C   0  0  0  0  0  0  0  0  0  0  0  0
   10.3250   -5.8292    0.0000 C   0  0  0  0  0  0  0  0  0  0  0  0
   10.6542   -7.1167    0.0000 C   0  0  0  0  0  0  0  0  0  0  0  0
   12.8917   -6.5000    0.0000 C   0  0  0  0  0  0  0  0  0  0  0  0
   11.9500   -7.4542    0.0000 C   0  0  0  0  0  0  0  0  0  0  0  0
  1  2  2  0  0  0  0
  1  3  1  0  0  0  0
  2  4  1  0  0  0  0
  3  5  2  0  0  0  0
  6 10  1  0  0  0  0
  2  7  1  0  0  0  0
  3  8  1  0  0  0  0
  6  9  1  0  0  0  0
  4 10  1  0  0  0  0
  8 11  1  0  0  0  0
  8 12  1  0  0  0  0
  9 13  2  0  0  0  0
  9 14  1  0  0  0  0
  4 15  1  0  0  0  0
  4 16  1  0  0  0  0
 17 20  1  0  0  0  0
 14 18  1  0  0  0  0
 18 19  1  0  0  0  0
 15 20  1  0  0  0  0
 19 21  2  0  0  0  0
 19 22  1  0  0  0  0
 22 23  2  0  0  0  0
 21 24  1  0  0  0  0
 23 25  1  0  0  0  0
  5  7  1  0  0  0  0
 11 12  1  0  0  0  0
  6 17  1  0  0  0  0
 24 25  2  0  0  0  0
M  END
> <MOLFORMULA>
C20 H25 N3 O2

> <MOLWEIGHT>
3.394365000000000e+002

> <IDNUMBER>
AT-687/PE19321

> <PRICE>
EUR 80/10 mg

> <Similarity score>
0.18

$$$$

  -OEChem-04222410502D

 26 30  0     0  0  0  0  0  0999 V2000
    4.2667   -1.3542    0.0000 N   0  0  0  0  0  0  0  0  0  0  0  0
    4.7500   -2.0125    0.0000 C   0  0  0  0  0  0  0  0  0  0  0  0
    3.4792   -1.6000    0.0000 C   0  0  0  0  0  0  0  0  0  0  0  0
    5.5750   -2.0125    0.0000 C   0  0  3  0  0  0  0  0  0  0  0  0
    6.9542   -2.3792    0.0000 N   0  0  3  0  0  0  0  0  0  0  0  0
    3.4792   -2.4250    0.0000 N   0  0  0  0  0  0  0  0  0  0  0  0
    7.7542   -2.1792    0.0000 C   0  0  0  0  0  0  0  0  0  0  0  0
    4.2667   -2.6792    0.0000 O   0  0  0  0  0  0  0  0  0  0  0  0
    2.8125   -1.1167    0.0000 C   0  0  3  0  0  0  0  0  0  0  0  0
    6.3667   -1.8042    0.0000 C   0  0  0  0  0  0  0  0  0  0  0  0
    8.3417   -2.7542    0.0000 C   0  0  0  0  0  0  0  0  0  0  0  0
    1.9875   -1.0292    0.0000 C   0  0  0  0  0  0  0  0  0  0  0  0
    2.4792   -0.3625    0.0000 C   0  0  0  0  0  0  0  0  0  0  0  0
    8.7125   -4.1292    0.0000 C   0  0  0  0  0  0  0  0  0  0  0  0
    8.1250   -3.5500    0.0000 C   0  0  0  0  0  0  0  0  0  0  0  0
    9.9500   -4.6125    0.0000 N   0  0  0  0  0  0  0  0  0  0  0  0
    9.5042   -3.9167    0.0000 C   0  0  0  0  0  0  0  0  0  0  0  0
    9.4292   -5.2542    0.0000 C   0  0  0  0  0  0  0  0  0  0  0  0
    7.9667   -1.3667    0.0000 O   0  0  0  0  0  0  0  0  0  0  0  0
    8.6542   -4.9625    0.0000 C   0  0  0  0  0  0  0  0  0  0  0  0
    9.1292   -2.5417    0.0000 C   0  0  0  0  0  0  0  0  0  0  0  0
    9.7167   -3.1250    0.0000 C   0  0  0  0  0  0  0  0  0  0  0  0
    6.7417   -3.1792    0.0000 C   0  0  0  0  0  0  0  0  0  0  0  0
    5.3542   -2.8125    0.0000 C   0  0  0  0  0  0  0  0  0  0  0  0
    5.8917   -1.2500    0.0000 C   0  0  0  0  0  0  0  0  0  0  0  0
    5.9417   -3.3917    0.0000 C   0  0  0  0  0  0  0  0  0  0  0  0
  1  2  2  0  0  0  0
  1  3  1  0  0  0  0
  2  4  1  0  0  0  0
  5 10  1  0  0  0  0
  3  6  2  0  0  0  0
  5  7  1  0  0  0  0
  2  8  1  0  0  0  0
  3  9  1  0  0  0  0
  4 10  1  0  0  0  0
  7 11  1  0  0  0  0
  9 12  1  0  0  0  0
  9 13  1  0  0  0  0
 14 15  2  0  0  0  0
 11 15  1  0  0  0  0
 16 17  1  0  0  0  0
 17 22  2  0  0  0  0
 18 20  2  0  0  0  0
  7 19  2  0  0  0  0
 14 20  1  0  0  0  0
 11 21  2  0  0  0  0
 21 22  1  0  0  0  0
 23 26  1  0  0  0  0
  4 24  1  0  0  0  0
  4 25  1  0  0  0  0
 24 26  1  0  0  0  0
  6  8  1  0  0  0  0
 12 13  1  0  0  0  0
  5 23  1  0  0  0  0
 14 17  1  0  0  0  0
 16 18  1  0  0  0  0
M  END
> <MOLFORMULA>
C20 H22 N4 O2

> <MOLWEIGHT>
3.504198000000000e+002

> <IDNUMBER>
AT-687/SK17713

> <PRICE>
EUR 80/10 mg

> <Similarity score>
0.18

$$$$

  -OEChem-04222410502D

 22 25  0     0  0  0  0  0  0999 V2000
    4.4792   -1.9292    0.0000 N   0  0  0  0  0  0  0  0  0  0  0  0
    4.9667   -2.6042    0.0000 C   0  0  0  0  0  0  0  0  0  0  0  0
    3.7000   -2.1917    0.0000 C   0  0  0  0  0  0  0  0  0  0  0  0
    5.7917   -2.6042    0.0000 C   0  0  3  0  0  0  0  0  0  0  0  0
    7.1667   -2.9750    0.0000 N   0  0  3  0  0  0  0  0  0  0  0  0
    3.7000   -3.0167    0.0000 N   0  0  0  0  0  0  0  0  0  0  0  0
    7.9667   -2.7542    0.0000 C   0  0  0  0  0  0  0  0  0  0  0  0
    8.5417   -3.3417    0.0000 C   0  0  0  0  0  0  0  0  0  0  0  0
    4.4792   -3.2667    0.0000 O   0  0  0  0  0  0  0  0  0  0  0  0
    3.0292   -1.7042    0.0000 C   0  0  3  0  0  0  0  0  0  0  0  0
    6.5875   -2.3875    0.0000 C   0  0  0  0  0  0  0  0  0  0  0  0
    2.2042   -1.6167    0.0000 C   0  0  0  0  0  0  0  0  0  0  0  0
    2.6875   -0.9542    0.0000 C   0  0  0  0  0  0  0  0  0  0  0  0
    9.1542   -4.5292    0.0000 S   0  0  0  0  0  0  0  0  0  0  0  0
    8.4250   -4.1542    0.0000 C   0  0  0  0  0  0  0  0  0  0  0  0
    9.3625   -3.2125    0.0000 C   0  0  0  0  0  0  0  0  0  0  0  0
    8.1792   -1.9667    0.0000 O   0  0  0  0  0  0  0  0  0  0  0  0
    9.7417   -3.9542    0.0000 C   0  0  0  0  0  0  0  0  0  0  0  0
    6.9542   -3.7667    0.0000 C   0  0  0  0  0  0  0  0  0  0  0  0
    5.5750   -3.4000    0.0000 C   0  0  0  0  0  0  0  0  0  0  0  0
    6.1042   -1.8417    0.0000 C   0  0  0  0  0  0  0  0  0  0  0  0
    6.1625   -3.9875    0.0000 C   0  0  0  0  0  0  0  0  0  0  0  0
  1  2  2  0  0  0  0
  1  3  1  0  0  0  0
  2  4  1  0  0  0  0
  5 11  1  0  0  0  0
  3  6  2  0  0  0  0
  5  7  1  0  0  0  0
  7  8  1  0  0  0  0
  2  9  1  0  0  0  0
  3 10  1  0  0  0  0
  4 11  1  0  0  0  0
 10 12  1  0  0  0  0
 10 13  1  0  0  0  0
 14 15  1  0  0  0  0
  8 15  2  0  0  0  0
  8 16  1  0  0  0  0
  7 17  2  0  0  0  0
 16 18  2  0  0  0  0
 19 22  1  0  0  0  0
  4 20  1  0  0  0  0
  4 21  1  0  0  0  0
 20 22  1  0  0  0  0
  6  9  1  0  0  0  0
 12 13  1  0  0  0  0
  5 19  1  0  0  0  0
 14 18  1  0  0  0  0
M  END
> <MOLFORMULA>
C16 H19 N3 O2 S

> <MOLWEIGHT>
3.174111000000000e+002

> <IDNUMBER>
AT-687/SK17714

> <PRICE>
EUR 80/10 mg

> <Similarity score>
0.18

$$$$

  -OEChem-04222410502D

 23 26  0     0  0  0  0  0  0999 V2000
    4.0125   -3.3417    0.0000 N   0  0  0  0  0  0  0  0  0  0  0  0
    4.5000   -2.6750    0.0000 C   0  0  0  0  0  0  0  0  0  0  0  0
    3.2292   -3.0875    0.0000 C   0  0  0  0  0  0  0  0  0  0  0  0
    5.3250   -2.6750    0.0000 C   0  0  3  0  0  0  0  0  0  0  0  0
    3.2292   -2.2625    0.0000 N   0  0  0  0  0  0  0  0  0  0  0  0
    6.7042   -2.3125    0.0000 N   0  0  3  0  0  0  0  0  0  0  0  0
    4.0125   -2.0125    0.0000 O   0  0  0  0  0  0  0  0  0  0  0  0
    7.5000   -2.5167    0.0000 C   0  0  0  0  0  0  0  0  0  0  0  0
    2.5542   -3.5667    0.0000 C   0  0  3  0  0  0  0  0  0  0  0  0
    6.1167   -2.8917    0.0000 C   0  0  0  0  0  0  0  0  0  0  0  0
    8.8792   -2.1500    0.0000 N   0  0  3  0  0  0  0  0  0  0  0  0
   10.0042   -2.8792    0.0000 N   0  0  0  0  0  0  0  0  0  0  0  0
    2.2292   -4.3167    0.0000 C   0  0  0  0  0  0  0  0  0  0  0  0
    1.7292   -3.6667    0.0000 C   0  0  0  0  0  0  0  0  0  0  0  0
    9.1792   -2.9167    0.0000 C   0  0  0  0  0  0  0  0  0  0  0  0
    8.0875   -1.9375    0.0000 C   0  0  0  0  0  0  0  0  0  0  0  0
   10.2167   -2.0792    0.0000 C   0  0  0  0  0  0  0  0  0  0  0  0
    9.5167   -1.6292    0.0000 C   0  0  0  0  0  0  0  0  0  0  0  0
    7.7167   -3.3125    0.0000 O   0  0  0  0  0  0  0  0  0  0  0  0
    5.1042   -1.8792    0.0000 C   0  0  0  0  0  0  0  0  0  0  0  0
    5.6417   -3.4375    0.0000 C   0  0  0  0  0  0  0  0  0  0  0  0
    6.4875   -1.5042    0.0000 C   0  0  0  0  0  0  0  0  0  0  0  0
    5.6917   -1.3000    0.0000 C   0  0  0  0  0  0  0  0  0  0  0  0
  1  2  2  0  0  0  0
  1  3  1  0  0  0  0
  2  4  1  0  0  0  0
  3  5  2  0  0  0  0
  6 10  1  0  0  0  0
  2  7  1  0  0  0  0
  6  8  1  0  0  0  0
  3  9  1  0  0  0  0
  4 10  1  0  0  0  0
 11 16  1  0  0  0  0
 12 15  2  0  0  0  0
  9 13  1  0  0  0  0
  9 14  1  0  0  0  0
 11 15  1  0  0  0  0
  8 16  1  0  0  0  0
 17 18  2  0  0  0  0
 11 18  1  0  0  0  0
  8 19  2  0  0  0  0
  4 20  1  0  0  0  0
  4 21  1  0  0  0  0
 22 23  1  0  0  0  0
 20 23  1  0  0  0  0
  5  7  1  0  0  0  0
 13 14  1  0  0  0  0
  6 22  1  0  0  0  0
 12 17  1  0  0  0  0
M  END
> <MOLFORMULA>
C16 H21 N5 O2

> <MOLWEIGHT>
3.153749000000000e+002

> <IDNUMBER>
AT-687/SK17717

> <PRICE>
EUR 80/10 mg

> <Similarity score>
0.18

$$$$

  -OEChem-04222410502D

 15 16  0     0  0  0  0  0  0999 V2000
    1.4250    0.4667    0.0000 C   0  0  0  0  0  0  0  0  0  0  0  0
    2.0000   -0.3583    0.0000 C   0  0  0  0  0  0  0  0  0  0  0  0
    0.4750   -0.8333    0.0000 C   0  0  0  0  0  0  0  0  0  0  0  0
    0.4750    0.1667    0.0000 C   0  0  0  0  0  0  0  0  0  0  0  0
    1.4250   -1.1333    0.0000 S   0  0  0  0  0  0  0  0  0  0  0  0
   -1.2500   -0.8333    0.0000 N   0  0  3  0  0  0  0  0  0  0  0  0
   -0.3750   -1.3333    0.0000 C   0  0  0  0  0  0  0  0  0  0  0  0
    1.7750    1.4167    0.0000 C   0  0  0  0  0  0  0  0  0  0  0  0
    2.1208    2.3625    0.0000 N   0  0  0  0  0  0  0  0  0  0  0  0
   -0.3750    0.6625    0.0000 C   0  0  0  0  0  0  0  0  0  0  0  0
   -1.2500    0.1667    0.0000 C   0  0  0  0  0  0  0  0  0  0  0  0
    2.9958   -0.3583    0.0000 N   0  0  0  0  0  0  0  0  0  0  0  0
   -2.1500   -1.3583    0.0000 C   0  0  3  0  0  0  0  0  0  0  0  0
   -3.0000   -0.8583    0.0000 C   0  0  0  0  0  0  0  0  0  0  0  0
   -2.1500   -2.3583    0.0000 C   0  0  0  0  0  0  0  0  0  0  0  0
  1  2  2  0  0  0  0
  3  4  2  0  0  0  0
  1  4  1  0  0  0  0
  2  5  1  0  0  0  0
  6 11  1  0  0  0  0
  3  7  1  0  0  0  0
  1  8  1  0  0  0  0
  8  9  3  0  0  0  0
  4 10  1  0  0  0  0
 10 11  1  0  0  0  0
  2 12  1  0  0  0  0
  6 13  1  0  0  0  0
 13 14  1  0  0  0  0
 13 15  1  0  0  0  0
  3  5  1  0  0  0  0
  6  7  1  0  0  0  0
M  END
> <MOLFORMULA>
C11 H15 N3 S

> <MOLWEIGHT>
2.213265000000000e+002

> <IDNUMBER>
AN-153/PE00329

> <PRICE>
EUR 130/10 mg

> <Similarity score>
0.18

$$$$

  -OEChem-04222410502D

 26 30  0     0  0  0  0  0  0999 V2000
    7.9250   -3.3417    0.0000 C   0  0  0  0  0  0  0  0  0  0  0  0
    3.8500   -1.9292    0.0000 N   0  0  0  0  0  0  0  0  0  0  0  0
    7.7917   -4.1542    0.0000 N   0  0  0  0  0  0  0  0  0  0  0  0
    7.3375   -2.7542    0.0000 C   0  0  0  0  0  0  0  0  0  0  0  0
    8.7375   -3.2125    0.0000 C   0  0  0  0  0  0  0  0  0  0  0  0
    4.3292   -2.6042    0.0000 C   0  0  0  0  0  0  0  0  0  0  0  0
    3.0667   -2.1917    0.0000 C   0  0  0  0  0  0  0  0  0  0  0  0
    6.5417   -2.9750    0.0000 N   0  0  3  0  0  0  0  0  0  0  0  0
    5.1542   -2.6042    0.0000 C   0  0  3  0  0  0  0  0  0  0  0  0
    3.0667   -3.0167    0.0000 N   0  0  0  0  0  0  0  0  0  0  0  0
    8.5167   -4.5292    0.0000 N   0  0  0  0  0  0  0  0  0  0  0  0
    3.8500   -3.2667    0.0000 O   0  0  0  0  0  0  0  0  0  0  0  0
    9.1042   -3.9542    0.0000 C   0  0  0  0  0  0  0  0  0  0  0  0
    2.3917   -1.7042    0.0000 C   0  0  3  0  0  0  0  0  0  0  0  0
    5.9542   -2.3875    0.0000 C   0  0  0  0  0  0  0  0  0  0  0  0
    1.5667   -1.6167    0.0000 C   0  0  0  0  0  0  0  0  0  0  0  0
    2.0667   -0.9542    0.0000 C   0  0  0  0  0  0  0  0  0  0  0  0
    7.5542   -1.9667    0.0000 O   0  0  0  0  0  0  0  0  0  0  0  0
    6.3250   -3.7667    0.0000 C   0  0  0  0  0  0  0  0  0  0  0  0
    4.9417   -3.4000    0.0000 C   0  0  0  0  0  0  0  0  0  0  0  0
    9.1792   -2.5167    0.0000 C   0  0  0  0  0  0  0  0  0  0  0  0
    5.4792   -1.8417    0.0000 C   0  0  0  0  0  0  0  0  0  0  0  0
    9.9292   -3.9917    0.0000 C   0  0  0  0  0  0  0  0  0  0  0  0
    5.5292   -3.9875    0.0000 C   0  0  0  0  0  0  0  0  0  0  0  0
   10.0042   -2.5625    0.0000 C   0  0  0  0  0  0  0  0  0  0  0  0
   10.3792   -3.3042    0.0000 C   0  0  0  0  0  0  0  0  0  0  0  0
  2  6  2  0  0  0  0
  1  3  2  0  0  0  0
  1  4  1  0  0  0  0
  1  5  1  0  0  0  0
  6  9  1  0  0  0  0
  2  7  1  0  0  0  0
  4  8  1  0  0  0  0
  9 15  1  0  0  0  0
 10 12  1  0  0  0  0
  3 11  1  0  0  0  0
  6 12  1  0  0  0  0
  5 13  2  0  0  0  0
  7 14  1  0  0  0  0
  8 15  1  0  0  0  0
 14 16  1  0  0  0  0
 14 17  1  0  0  0  0
  4 18  2  0  0  0  0
  8 19  1  0  0  0  0
 20 24  1  0  0  0  0
  5 21  1  0  0  0  0
  9 22  1  0  0  0  0
 13 23  1  0  0  0  0
 19 24  1  0  0  0  0
 21 25  1  0  0  0  0
 25 26  1  0  0  0  0
 11 13  1  0  0  0  0
 23 26  1  0  0  0  0
  9 20  1  0  0  0  0
  7 10  2  0  0  0  0
 16 17  1  0  0  0  0
M  END
> <MOLFORMULA>
C19 H25 N5 O2

> <MOLWEIGHT>
3.554395000000000e+002

> <IDNUMBER>
AT-687/SK17716

> <PRICE>
EUR 80/10 mg

> <Similarity score>
0.18

$$$$

  -OEChem-04222410502D

 31 34  0     0  0  0  0  0  0999 V2000
   11.3875   -4.8167    0.0000 C   0  0  0  0  0  0  0  0  0  0  0  0
   12.0542   -5.3042    0.0000 C   0  0  0  0  0  0  0  0  0  0  0  0
    7.1375   -3.9792    0.0000 N   0  0  0  0  0  0  0  0  0  0  0  0
   11.6417   -4.0375    0.0000 S   0  0  0  0  0  0  0  0  0  0  0  0
    6.4667   -4.4667    0.0000 C   0  0  0  0  0  0  0  0  0  0  0  0
   12.7292   -4.8292    0.0000 C   0  0  0  0  0  0  0  0  0  0  0  0
    6.7167   -5.2542    0.0000 N   0  0  0  0  0  0  0  0  0  0  0  0
   12.4667   -4.0292    0.0000 C   0  0  0  0  0  0  0  0  0  0  0  0
    7.8042   -4.4667    0.0000 C   0  0  0  0  0  0  0  0  0  0  0  0
    7.5500   -5.2542    0.0000 N   0  0  0  0  0  0  0  0  0  0  0  0
   10.6042   -5.0667    0.0000 N   0  0  0  0  0  0  0  0  0  0  0  0
    5.6792   -4.2125    0.0000 C   0  0  0  0  0  0  0  0  0  0  0  0
   12.0542   -6.1292    0.0000 C   0  0  0  0  0  0  0  0  0  0  0  0
   11.3417   -6.5417    0.0000 N   0  0  0  0  0  0  0  0  0  0  0  0
    9.9917   -4.5167    0.0000 C   0  0  0  0  0  0  0  0  0  0  0  0
    8.5917   -4.2167    0.0000 S   0  0  0  0  0  0  0  0  0  0  0  0
    5.5042   -3.4000    0.0000 C   0  0  0  0  0  0  0  0  0  0  0  0
    5.0667   -4.7625    0.0000 C   0  0  0  0  0  0  0  0  0  0  0  0
    4.1000   -3.6917    0.0000 C   0  0  0  0  0  0  0  0  0  0  0  0
    4.2792   -4.5042    0.0000 C   0  0  0  0  0  0  0  0  0  0  0  0
    4.7167   -3.1417    0.0000 C   0  0  0  0  0  0  0  0  0  0  0  0
   10.1667   -3.7125    0.0000 O   0  0  0  0  0  0  0  0  0  0  0  0
    9.2042   -4.7667    0.0000 C   0  0  0  0  0  0  0  0  0  0  0  0
   13.5375   -5.0042    0.0000 C   0  0  0  0  0  0  0  0  0  0  0  0
   13.0292   -3.4167    0.0000 C   0  0  0  0  0  0  0  0  0  0  0  0
    3.6625   -5.0667    0.0000 O   0  0  0  0  0  0  0  0  0  0  0  0
    4.5500   -2.3292    0.0000 O   0  0  0  0  0  0  0  0  0  0  0  0
    2.8750   -4.8167    0.0000 C   0  0  0  0  0  0  0  0  0  0  0  0
    5.1625   -1.7792    0.0000 C   0  0  0  0  0  0  0  0  0  0  0  0
   14.1000   -4.3792    0.0000 C   0  0  0  0  0  0  0  0  0  0  0  0
   13.8417   -3.5917    0.0000 C   0  0  0  0  0  0  0  0  0  0  0  0
  1  2  2  0  0  0  0
  3  9  1  0  0  0  0
  1  4  1  0  0  0  0
  3  5  1  0  0  0  0
  2  6  1  0  0  0  0
  7 10  1  0  0  0  0
  4  8  1  0  0  0  0
  9 16  1  0  0  0  0
  9 10  2  0  0  0  0
  1 11  1  0  0  0  0
  5 12  1  0  0  0  0
  2 13  1  0  0  0  0
 13 14  3  0  0  0  0
 11 15  1  0  0  0  0
 16 23  1  0  0  0  0
 12 17  2  0  0  0  0
 12 18  1  0  0  0  0
 19 20  1  0  0  0  0
 18 20  2  0  0  0  0
 17 21  1  0  0  0  0
 15 22  2  0  0  0  0
 15 23  1  0  0  0  0
  6 24  1  0  0  0  0
  8 25  1  0  0  0  0
 20 26  1  0  0  0  0
 21 27  1  0  0  0  0
 26 28  1  0  0  0  0
 27 29  1  0  0  0  0
 24 30  1  0  0  0  0
 25 31  1  0  0  0  0
  6  8  2  0  0  0  0
 30 31  1  0  0  0  0
  5  7  2  0  0  0  0
 19 21  2  0  0  0  0
M  END
> <MOLFORMULA>
C21 H21 N5 O3 S2

> <MOLWEIGHT>
4.555609000000000e+002

> <IDNUMBER>
AM-879/J185590

> <PRICE>
EUR 55.00/10 mg

> <Similarity score>
0.18

$$$$

  -OEChem-04222410502D

 15 17  0     0  0  0  0  0  0999 V2000
    4.9167    1.9583    0.0000 N   0  0  0  0  0  0  0  0  0  0  0  0
    5.9917    3.0000    0.0000 C   0  0  0  0  0  0  0  0  0  0  0  0
    3.5917    2.6583    0.0000 C   0  0  0  0  0  0  0  0  0  0  0  0
    3.8500    4.1250    0.0000 N   0  0  0  0  0  0  0  0  0  0  0  0
    5.3292    4.3250    0.0000 O   0  0  0  0  0  0  0  0  0  0  0  0
    7.4750    2.7333    0.0000 C   0  0  3  0  0  0  0  0  0  0  0  0
    2.2417    2.0000    0.0000 C   0  0  3  0  0  0  0  0  0  0  0  0
    0.7500    2.1000    0.0000 C   0  0  0  0  0  0  0  0  0  0  0  0
    1.4000    0.7500    0.0000 C   0  0  0  0  0  0  0  0  0  0  0  0
   10.0667    2.7333    0.0000 N   0  0  0  0  0  0  0  0  0  0  0  0
    8.7667    1.9833    0.0000 C   0  0  0  0  0  0  0  0  0  0  0  0
    6.9500    1.3250    0.0000 C   0  0  0  0  0  0  0  0  0  0  0  0
    7.4750    4.2167    0.0000 C   0  0  0  0  0  0  0  0  0  0  0  0
   10.0667    4.2167    0.0000 C   0  0  0  0  0  0  0  0  0  0  0  0
    8.7667    4.9667    0.0000 C   0  0  0  0  0  0  0  0  0  0  0  0
  1  2  2  0  0  0  0
  1  3  1  0  0  0  0
  3  4  2  0  0  0  0
  2  5  1  0  0  0  0
  2  6  1  0  0  0  0
  3  7  1  0  0  0  0
  7  8  1  0  0  0  0
  7  9  1  0  0  0  0
 10 11  1  0  0  0  0
  6 11  1  0  0  0  0
  6 12  1  0  0  0  0
  6 13  1  0  0  0  0
 14 15  1  0  0  0  0
 13 15  1  0  0  0  0
  4  5  1  0  0  0  0
  8  9  1  0  0  0  0
 10 14  1  0  0  0  0
M  END
> <MOLFORMULA>
C11 H17 N3 O

> <MOLWEIGHT>
2.072753000000000e+002

> <IDNUMBER>
AT-687/PE34656

> <PRICE>
EUR 80/10 mg

> <Similarity score>
0.18

$$$$

  -OEChem-04222410502D

 24 27  0     0  0  0  0  0  0999 V2000
    4.0125   -3.3417    0.0000 N   0  0  0  0  0  0  0  0  0  0  0  0
    4.5000   -2.6750    0.0000 C   0  0  0  0  0  0  0  0  0  0  0  0
    3.2292   -3.0875    0.0000 C   0  0  0  0  0  0  0  0  0  0  0  0
    5.3250   -2.6750    0.0000 C   0  0  3  0  0  0  0  0  0  0  0  0
    3.2292   -2.2625    0.0000 N   0  0  0  0  0  0  0  0  0  0  0  0
    8.8792   -2.1500    0.0000 N   0  0  3  0  0  0  0  0  0  0  0  0
    6.7042   -2.3125    0.0000 N   0  0  3  0  0  0  0  0  0  0  0  0
    7.5000   -2.5167    0.0000 C   0  0  0  0  0  0  0  0  0  0  0  0
    4.0125   -2.0125    0.0000 O   0  0  0  0  0  0  0  0  0  0  0  0
    9.1792   -2.9167    0.0000 C   0  0  0  0  0  0  0  0  0  0  0  0
    2.5542   -3.5667    0.0000 C   0  0  3  0  0  0  0  0  0  0  0  0
   10.0042   -2.8792    0.0000 N   0  0  0  0  0  0  0  0  0  0  0  0
    6.1167   -2.8917    0.0000 C   0  0  0  0  0  0  0  0  0  0  0  0
    8.0875   -1.9375    0.0000 C   0  0  0  0  0  0  0  0  0  0  0  0
    2.2292   -4.3167    0.0000 C   0  0  0  0  0  0  0  0  0  0  0  0
    1.7292   -3.6667    0.0000 C   0  0  0  0  0  0  0  0  0  0  0  0
   10.2167   -2.0792    0.0000 C   0  0  0  0  0  0  0  0  0  0  0  0
    9.5167   -1.6292    0.0000 C   0  0  0  0  0  0  0  0  0  0  0  0
    7.7167   -3.3125    0.0000 O   0  0  0  0  0  0  0  0  0  0  0  0
    5.1042   -1.8792    0.0000 C   0  0  0  0  0  0  0  0  0  0  0  0
    5.6417   -3.4375    0.0000 C   0  0  0  0  0  0  0  0  0  0  0  0
    6.4875   -1.5042    0.0000 C   0  0  0  0  0  0  0  0  0  0  0  0
    8.7250   -3.6125    0.0000 C   0  0  0  0  0  0  0  0  0  0  0  0
    5.6917   -1.3000    0.0000 C   0  0  0  0  0  0  0  0  0  0  0  0
  1  2  2  0  0  0  0
  1  3  1  0  0  0  0
  2  4  1  0  0  0  0
  3  5  2  0  0  0  0
  6 14  1  0  0  0  0
  7 13  1  0  0  0  0
  7  8  1  0  0  0  0
  2  9  1  0  0  0  0
  6 10  1  0  0  0  0
  3 11  1  0  0  0  0
 10 12  2  0  0  0  0
  4 13  1  0  0  0  0
  8 14  1  0  0  0  0
 11 15  1  0  0  0  0
 11 16  1  0  0  0  0
 17 18  2  0  0  0  0
  6 18  1  0  0  0  0
  8 19  2  0  0  0  0
  4 20  1  0  0  0  0
  4 21  1  0  0  0  0
 22 24  1  0  0  0  0
 10 23  1  0  0  0  0
 20 24  1  0  0  0  0
  5  9  1  0  0  0  0
 15 16  1  0  0  0  0
  7 22  1  0  0  0  0
 12 17  1  0  0  0  0
M  END
> <MOLFORMULA>
C17 H23 N5 O2

> <MOLWEIGHT>
3.294017000000000e+002

> <IDNUMBER>
AT-687/SK17718

> <PRICE>
EUR 80/10 mg

> <Similarity score>
0.18

$$$$

  -OEChem-04222410502D

 25 28  0     0  0  0  0  0  0999 V2000
    2.7000   -0.4708    0.0000 C   0  0  0  0  0  0  0  0  0  0  0  0
    3.7000   -0.5750    0.0000 C   0  0  0  0  0  0  0  0  0  0  0  0
    2.3000   -1.3833    0.0000 S   0  0  0  0  0  0  0  0  0  0  0  0
    3.9083   -1.5500    0.0000 C   0  0  0  0  0  0  0  0  0  0  0  0
   -2.3958    2.9417    0.0000 N   0  0  0  0  0  0  0  0  0  0  0  0
    3.0458   -2.0542    0.0000 C   0  0  0  0  0  0  0  0  0  0  0  0
   -1.8125    2.1292    0.0000 C   0  0  0  0  0  0  0  0  0  0  0  0
    2.2000    0.3958    0.0000 N   0  0  0  0  0  0  0  0  0  0  0  0
   -2.3958    1.3250    0.0000 O   0  0  0  0  0  0  0  0  0  0  0  0
    4.3667    0.1708    0.0000 C   0  0  0  0  0  0  0  0  0  0  0  0
   -3.3458    2.6292    0.0000 C   0  0  0  0  0  0  0  0  0  0  0  0
    1.1958    0.3958    0.0000 C   0  0  0  0  0  0  0  0  0  0  0  0
    5.0750    0.8833    0.0000 N   0  0  0  0  0  0  0  0  0  0  0  0
   -3.3458    1.6333    0.0000 C   0  0  0  0  0  0  0  0  0  0  0  0
    0.6958    1.2625    0.0000 C   0  0  0  0  0  0  0  0  0  0  0  0
   -0.8125    2.1208    0.0000 S   0  0  0  0  0  0  0  0  0  0  0  0
    0.6917   -0.4708    0.0000 O   0  0  0  0  0  0  0  0  0  0  0  0
   -0.3125    1.2625    0.0000 C   0  0  0  0  0  0  0  0  0  0  0  0
    4.6500   -2.2167    0.0000 C   0  0  0  0  0  0  0  0  0  0  0  0
    3.2583   -3.0292    0.0000 C   0  0  0  0  0  0  0  0  0  0  0  0
    4.2500   -3.1292    0.0000 C   0  0  0  0  0  0  0  0  0  0  0  0
   -4.2083    3.1333    0.0000 C   0  0  0  0  0  0  0  0  0  0  0  0
   -4.2083    1.1333    0.0000 C   0  0  0  0  0  0  0  0  0  0  0  0
   -5.0750    1.6292    0.0000 C   0  0  0  0  0  0  0  0  0  0  0  0
   -5.0792    2.6333    0.0000 C   0  0  0  0  0  0  0  0  0  0  0  0
  1  2  2  0  0  0  0
  1  3  1  0  0  0  0
  2  4  1  0  0  0  0
  5  7  2  0  0  0  0
  3  6  1  0  0  0  0
  7 16  1  0  0  0  0
  1  8  1  0  0  0  0
  7  9  1  0  0  0  0
  2 10  1  0  0  0  0
  5 11  1  0  0  0  0
  8 12  1  0  0  0  0
 10 13  3  0  0  0  0
  9 14  1  0  0  0  0
 12 15  1  0  0  0  0
 16 18  1  0  0  0  0
 12 17  2  0  0  0  0
 15 18  1  0  0  0  0
  4 19  1  0  0  0  0
  6 20  1  0  0  0  0
 20 21  1  0  0  0  0
 11 22  1  0  0  0  0
 14 23  1  0  0  0  0
 23 24  2  0  0  0  0
 22 25  2  0  0  0  0
  4  6  2  0  0  0  0
 19 21  1  0  0  0  0
 11 14  2  0  0  0  0
 24 25  1  0  0  0  0
M  END
> <MOLFORMULA>
C18 H15 N3 O2 S2

> <MOLWEIGHT>
3.694675000000000e+002

> <IDNUMBER>
AN-153/NB25396

> <PRICE>
EUR 130/10 mg

> <Similarity score>
0.18

$$$$

  -OEChem-04222410502D

 26 30  0     0  0  0  0  0  0999 V2000
    3.6500   -4.8667    0.0000 N   0  0  0  0  0  0  0  0  0  0  0  0
    4.4417   -3.8000    0.0000 C   0  0  0  0  0  0  0  0  0  0  0  0
    2.3917   -4.4667    0.0000 C   0  0  0  0  0  0  0  0  0  0  0  0
    5.7667   -3.8000    0.0000 C   0  0  3  0  0  0  0  0  0  0  0  0
    7.9917   -3.2000    0.0000 N   0  0  3  0  0  0  0  0  0  0  0  0
    2.3917   -3.1250    0.0000 N   0  0  0  0  0  0  0  0  0  0  0  0
    9.2667   -3.5500    0.0000 C   0  0  0  0  0  0  0  0  0  0  0  0
    3.6500   -2.7250    0.0000 O   0  0  0  0  0  0  0  0  0  0  0  0
    1.3167   -5.2500    0.0000 C   0  0  3  0  0  0  0  0  0  0  0  0
    7.0500   -4.1417    0.0000 C   0  0  0  0  0  0  0  0  0  0  0  0
   10.2250   -2.6000    0.0000 C   0  0  0  0  0  0  0  0  0  0  0  0
   13.7750   -2.0750    0.0000 N   0  0  0  0  0  0  0  0  0  0  0  0
   12.4500   -2.0000    0.0000 C   0  0  0  0  0  0  0  0  0  0  0  0
   14.2417   -0.8292    0.0000 C   0  0  0  0  0  0  0  0  0  0  0  0
    0.7667   -6.4667    0.0000 C   0  0  0  0  0  0  0  0  0  0  0  0
    0.0000   -5.3750    0.0000 C   0  0  0  0  0  0  0  0  0  0  0  0
   11.5000   -2.9417    0.0000 C   0  0  0  0  0  0  0  0  0  0  0  0
   13.2167   -0.0000    0.0000 N   0  0  0  0  0  0  0  0  0  0  0  0
   12.1000   -0.7000    0.0000 C   0  0  0  0  0  0  0  0  0  0  0  0
    9.6250   -4.8417    0.0000 O   0  0  0  0  0  0  0  0  0  0  0  0
    9.8667   -1.3167    0.0000 C   0  0  0  0  0  0  0  0  0  0  0  0
   10.8250   -0.3750    0.0000 C   0  0  0  0  0  0  0  0  0  0  0  0
    7.6417   -1.9167    0.0000 C   0  0  0  0  0  0  0  0  0  0  0  0
    5.4250   -2.5000    0.0000 C   0  0  0  0  0  0  0  0  0  0  0  0
    6.2750   -5.0417    0.0000 C   0  0  0  0  0  0  0  0  0  0  0  0
    6.3667   -1.5750    0.0000 C   0  0  0  0  0  0  0  0  0  0  0  0
  1  2  2  0  0  0  0
  1  3  1  0  0  0  0
  2  4  1  0  0  0  0
  5 10  1  0  0  0  0
  3  6  2  0  0  0  0
  5  7  1  0  0  0  0
  2  8  1  0  0  0  0
  3  9  1  0  0  0  0
  4 10  1  0  0  0  0
  7 11  1  0  0  0  0
 12 13  1  0  0  0  0
 13 17  1  0  0  0  0
 12 14  2  0  0  0  0
  9 15  1  0  0  0  0
  9 16  1  0  0  0  0
 11 17  2  0  0  0  0
 18 19  1  0  0  0  0
 19 22  1  0  0  0  0
  7 20  2  0  0  0  0
 11 21  1  0  0  0  0
 21 22  2  0  0  0  0
 23 26  1  0  0  0  0
  4 24  1  0  0  0  0
  4 25  1  0  0  0  0
 24 26  1  0  0  0  0
  6  8  1  0  0  0  0
 15 16  1  0  0  0  0
  5 23  1  0  0  0  0
 13 19  2  0  0  0  0
 14 18  1  0  0  0  0
M  END
> <MOLFORMULA>
C19 H21 N5 O2

> <MOLWEIGHT>
3.514079000000000e+002

> <IDNUMBER>
AT-687/PE19318

> <PRICE>
EUR 80/10 mg

> <Similarity score>
0.18

$$$$

  -OEChem-04222410502D

 26 30  0     0  0  0  0  0  0999 V2000
    3.6667   -1.6000    0.0000 N   0  0  0  0  0  0  0  0  0  0  0  0
    4.4500   -2.6500    0.0000 C   0  0  0  0  0  0  0  0  0  0  0  0
    2.4000   -2.0000    0.0000 C   0  0  0  0  0  0  0  0  0  0  0  0
    5.7750   -2.6500    0.0000 C   0  0  3  0  0  0  0  0  0  0  0  0
    8.0000   -3.2500    0.0000 N   0  0  3  0  0  0  0  0  0  0  0  0
    2.4000   -3.3167    0.0000 N   0  0  0  0  0  0  0  0  0  0  0  0
    9.2750   -2.9167    0.0000 C   0  0  0  0  0  0  0  0  0  0  0  0
    3.6667   -3.7417    0.0000 O   0  0  0  0  0  0  0  0  0  0  0  0
    1.3250   -1.2167    0.0000 C   0  0  3  0  0  0  0  0  0  0  0  0
    7.0667   -2.3167    0.0000 C   0  0  0  0  0  0  0  0  0  0  0  0
   10.2250   -3.8500    0.0000 C   0  0  0  0  0  0  0  0  0  0  0  0
    0.0000   -1.0750    0.0000 C   0  0  0  0  0  0  0  0  0  0  0  0
    0.7917   -0.0000    0.0000 C   0  0  0  0  0  0  0  0  0  0  0  0
   10.8292   -6.0750    0.0000 C   0  0  0  0  0  0  0  0  0  0  0  0
    9.8792   -5.1250    0.0000 C   0  0  0  0  0  0  0  0  0  0  0  0
   12.1000   -5.7250    0.0000 C   0  0  0  0  0  0  0  0  0  0  0  0
   10.7417   -7.4042    0.0000 O   0  0  0  0  0  0  0  0  0  0  0  0
   12.8250   -6.8500    0.0000 O   0  0  0  0  0  0  0  0  0  0  0  0
    9.6250   -1.6250    0.0000 O   0  0  0  0  0  0  0  0  0  0  0  0
   11.9917   -7.8792    0.0000 C   0  0  0  0  0  0  0  0  0  0  0  0
   11.5167   -3.5042    0.0000 C   0  0  0  0  0  0  0  0  0  0  0  0
   12.4667   -4.4417    0.0000 C   0  0  0  0  0  0  0  0  0  0  0  0
    7.6500   -4.5500    0.0000 C   0  0  0  0  0  0  0  0  0  0  0  0
    5.4292   -3.9500    0.0000 C   0  0  0  0  0  0  0  0  0  0  0  0
    6.2917   -1.4250    0.0000 C   0  0  0  0  0  0  0  0  0  0  0  0
    6.3750   -4.8750    0.0000 C   0  0  0  0  0  0  0  0  0  0  0  0
  1  2  2  0  0  0  0
  1  3  1  0  0  0  0
  2  4  1  0  0  0  0
  5 10  1  0  0  0  0
  3  6  2  0  0  0  0
  5  7  1  0  0  0  0
  2  8  1  0  0  0  0
  3  9  1  0  0  0  0
  4 10  1  0  0  0  0
  7 11  1  0  0  0  0
  9 12  1  0  0  0  0
  9 13  1  0  0  0  0
 14 15  1  0  0  0  0
 11 15  2  0  0  0  0
 16 22  1  0  0  0  0
 14 17  1  0  0  0  0
 16 18  1  0  0  0  0
  7 19  2  0  0  0  0
 17 20  1  0  0  0  0
 11 21  1  0  0  0  0
 21 22  2  0  0  0  0
 23 26  1  0  0  0  0
  4 24  1  0  0  0  0
  4 25  1  0  0  0  0
 24 26  1  0  0  0  0
  6  8  1  0  0  0  0
 12 13  1  0  0  0  0
  5 23  1  0  0  0  0
 14 16  2  0  0  0  0
 18 20  1  0  0  0  0
M  END
> <MOLFORMULA>
C19 H21 N3 O4

> <MOLWEIGHT>
3.553919000000000e+002

> <IDNUMBER>
AT-687/PE19317

> <PRICE>
EUR 80/10 mg

> <Similarity score>
0.18

$$$$

  -OEChem-04222410502D

 26 29  0     0  0  0  0  0  0999 V2000
   -1.8125    1.9083    0.0000 C   0  0  0  0  0  0  0  0  0  0  0  0
   -2.4042    2.7167    0.0000 C   0  0  0  0  0  0  0  0  0  0  0  0
   -2.4042    1.1000    0.0000 S   0  0  0  0  0  0  0  0  0  0  0  0
   -3.3542    2.4125    0.0000 C   0  0  0  0  0  0  0  0  0  0  0  0
    2.4542   -1.5833    0.0000 N   0  0  0  0  0  0  0  0  0  0  0  0
    2.7708   -0.6375    0.0000 C   0  0  0  0  0  0  0  0  0  0  0  0
   -3.3542    1.4083    0.0000 C   0  0  0  0  0  0  0  0  0  0  0  0
   -0.8167    1.9083    0.0000 N   0  0  0  0  0  0  0  0  0  0  0  0
    3.7708   -0.6417    0.0000 O   0  0  0  0  0  0  0  0  0  0  0  0
   -1.9042    3.5875    0.0000 C   0  0  0  0  0  0  0  0  0  0  0  0
    3.2625   -2.1750    0.0000 C   0  0  0  0  0  0  0  0  0  0  0  0
   -0.3125    1.0458    0.0000 C   0  0  0  0  0  0  0  0  0  0  0  0
   -0.9000    3.5875    0.0000 N   0  0  0  0  0  0  0  0  0  0  0  0
    4.0708   -1.5958    0.0000 C   0  0  0  0  0  0  0  0  0  0  0  0
    0.6875    1.0458    0.0000 C   0  0  0  0  0  0  0  0  0  0  0  0
    2.1875    0.1792    0.0000 S   0  0  0  0  0  0  0  0  0  0  0  0
   -0.8167    0.1792    0.0000 O   0  0  0  0  0  0  0  0  0  0  0  0
    1.1833    0.1792    0.0000 C   0  0  0  0  0  0  0  0  0  0  0  0
   -4.2167    2.9083    0.0000 C   0  0  0  0  0  0  0  0  0  0  0  0
   -4.2167    0.9083    0.0000 C   0  0  0  0  0  0  0  0  0  0  0  0
    3.3583   -3.1667    0.0000 C   0  0  0  0  0  0  0  0  0  0  0  0
    4.9833   -2.0042    0.0000 C   0  0  0  0  0  0  0  0  0  0  0  0
   -5.0833    2.4125    0.0000 C   0  0  0  0  0  0  0  0  0  0  0  0
   -5.0833    1.4083    0.0000 C   0  0  0  0  0  0  0  0  0  0  0  0
    5.0792   -3.0000    0.0000 C   0  0  0  0  0  0  0  0  0  0  0  0
    4.2708   -3.5833    0.0000 C   0  0  0  0  0  0  0  0  0  0  0  0
  1  2  2  0  0  0  0
  1  3  1  0  0  0  0
  2  4  1  0  0  0  0
  5  6  2  0  0  0  0
  6 16  1  0  0  0  0
  3  7  1  0  0  0  0
  1  8  1  0  0  0  0
  6  9  1  0  0  0  0
  2 10  1  0  0  0  0
  5 11  1  0  0  0  0
  8 12  1  0  0  0  0
 10 13  3  0  0  0  0
  9 14  1  0  0  0  0
 12 15  1  0  0  0  0
 16 18  1  0  0  0  0
 12 17  2  0  0  0  0
 15 18  1  0  0  0  0
  4 19  1  0  0  0  0
  7 20  1  0  0  0  0
 11 21  1  0  0  0  0
 14 22  1  0  0  0  0
 19 23  1  0  0  0  0
 20 24  1  0  0  0  0
 22 25  2  0  0  0  0
 21 26  2  0  0  0  0
  4  7  2  0  0  0  0
 23 24  1  0  0  0  0
 11 14  2  0  0  0  0
 25 26  1  0  0  0  0
M  END
> <MOLFORMULA>
C19 H17 N3 O2 S2

> <MOLWEIGHT>
3.834943000000000e+002

> <IDNUMBER>
AN-153/NB15616

> <PRICE>
EUR 130/10 mg

> <Similarity score>
0.18

$$$$

  -OEChem-04222410502D

 25 29  0     0  0  0  0  0  0999 V2000
   10.2167   -4.4667    0.0000 C   0  0  0  0  0  0  0  0  0  0  0  0
    3.6667   -6.7417    0.0000 N   0  0  0  0  0  0  0  0  0  0  0  0
    4.4417   -5.6500    0.0000 C   0  0  0  0  0  0  0  0  0  0  0  0
    2.3750   -6.3250    0.0000 C   0  0  0  0  0  0  0  0  0  0  0  0
    9.2750   -5.4000    0.0000 C   0  0  0  0  0  0  0  0  0  0  0  0
    5.7750   -5.6500    0.0000 C   0  0  3  0  0  0  0  0  0  0  0  0
   10.0042   -3.1500    0.0000 C   0  0  0  0  0  0  0  0  0  0  0  0
    7.9917   -5.0667    0.0000 N   0  0  3  0  0  0  0  0  0  0  0  0
    2.3750   -4.9917    0.0000 N   0  0  0  0  0  0  0  0  0  0  0  0
   11.5250   -4.6750    0.0000 N   0  0  0  0  0  0  0  0  0  0  0  0
   12.1250   -3.4792    0.0000 N   0  0  0  0  0  0  0  0  0  0  0  0
   11.1792   -2.5500    0.0000 C   0  0  0  0  0  0  0  0  0  0  0  0
    3.6667   -4.5792    0.0000 O   0  0  0  0  0  0  0  0  0  0  0  0
    1.3250   -7.1042    0.0000 C   0  0  3  0  0  0  0  0  0  0  0  0
    7.0500   -6.0000    0.0000 C   0  0  0  0  0  0  0  0  0  0  0  0
   11.3917   -1.2167    0.0000 C   0  0  3  0  0  0  0  0  0  0  0  0
    0.0000   -7.2417    0.0000 C   0  0  0  0  0  0  0  0  0  0  0  0
    0.7750   -8.3250    0.0000 C   0  0  0  0  0  0  0  0  0  0  0  0
   10.9250   -0.0000    0.0000 C   0  0  0  0  0  0  0  0  0  0  0  0
   12.2417   -0.1917    0.0000 C   0  0  0  0  0  0  0  0  0  0  0  0
    9.6167   -6.6917    0.0000 O   0  0  0  0  0  0  0  0  0  0  0  0
    7.6500   -3.7750    0.0000 C   0  0  0  0  0  0  0  0  0  0  0  0
    5.4250   -4.3667    0.0000 C   0  0  0  0  0  0  0  0  0  0  0  0
    6.2750   -6.8917    0.0000 C   0  0  0  0  0  0  0  0  0  0  0  0
    6.3542   -3.4292    0.0000 C   0  0  0  0  0  0  0  0  0  0  0  0
  2  3  2  0  0  0  0
  3  6  1  0  0  0  0
  2  4  1  0  0  0  0
  1  5  1  0  0  0  0
  6 15  1  0  0  0  0
  1  7  2  0  0  0  0
  5  8  1  0  0  0  0
  9 13  1  0  0  0  0
  1 10  1  0  0  0  0
 10 11  1  0  0  0  0
  7 12  1  0  0  0  0
  3 13  1  0  0  0  0
  4 14  1  0  0  0  0
  8 15  1  0  0  0  0
 12 16  1  0  0  0  0
 14 17  1  0  0  0  0
 14 18  1  0  0  0  0
 16 19  1  0  0  0  0
 16 20  1  0  0  0  0
  5 21  2  0  0  0  0
  8 22  1  0  0  0  0
 23 25  1  0  0  0  0
  6 24  1  0  0  0  0
 22 25  1  0  0  0  0
 11 12  2  0  0  0  0
 19 20  1  0  0  0  0
  6 23  1  0  0  0  0
  4  9  2  0  0  0  0
 17 18  1  0  0  0  0
M  END
> <MOLFORMULA>
C18 H23 N5 O2

> <MOLWEIGHT>
3.414127000000000e+002

> <IDNUMBER>
AT-687/PE19324

> <PRICE>
EUR 80/10 mg

> <Similarity score>
0.17

$$$$

  -OEChem-04222410502D

 26 30  0     0  0  0  0  0  0999 V2000
   10.2250   -3.8417    0.0000 C   0  0  0  0  0  0  0  0  0  0  0  0
    3.6667   -1.5667    0.0000 N   0  0  0  0  0  0  0  0  0  0  0  0
   10.0042   -5.1417    0.0000 N   0  0  0  0  0  0  0  0  0  0  0  0
    9.2792   -2.9000    0.0000 C   0  0  0  0  0  0  0  0  0  0  0  0
    4.4500   -2.6500    0.0000 C   0  0  0  0  0  0  0  0  0  0  0  0
    2.4000   -1.9750    0.0000 C   0  0  0  0  0  0  0  0  0  0  0  0
    7.9917   -3.2417    0.0000 N   0  0  3  0  0  0  0  0  0  0  0  0
    5.7667   -2.6500    0.0000 C   0  0  3  0  0  0  0  0  0  0  0  0
    2.4000   -3.3167    0.0000 N   0  0  0  0  0  0  0  0  0  0  0  0
   11.5417   -3.6250    0.0000 C   0  0  0  0  0  0  0  0  0  0  0  0
   11.1792   -5.7500    0.0000 N   0  0  0  0  0  0  0  0  0  0  0  0
    3.6667   -3.7250    0.0000 O   0  0  0  0  0  0  0  0  0  0  0  0
    1.3250   -1.2000    0.0000 C   0  0  3  0  0  0  0  0  0  0  0  0
    7.0542   -2.2917    0.0000 C   0  0  0  0  0  0  0  0  0  0  0  0
    0.7917   -0.0000    0.0000 C   0  0  0  0  0  0  0  0  0  0  0  0
    0.0000   -1.0542    0.0000 C   0  0  0  0  0  0  0  0  0  0  0  0
   12.1417   -4.8167    0.0000 C   0  0  0  0  0  0  0  0  0  0  0  0
    9.6250   -1.6167    0.0000 O   0  0  0  0  0  0  0  0  0  0  0  0
    7.6500   -4.5167    0.0000 C   0  0  0  0  0  0  0  0  0  0  0  0
    5.4250   -3.9250    0.0000 C   0  0  0  0  0  0  0  0  0  0  0  0
    6.2917   -1.4167    0.0000 C   0  0  0  0  0  0  0  0  0  0  0  0
   12.2500   -2.5167    0.0000 C   0  0  0  0  0  0  0  0  0  0  0  0
    6.3750   -4.8750    0.0000 C   0  0  0  0  0  0  0  0  0  0  0  0
   13.4750   -4.8917    0.0000 C   0  0  0  0  0  0  0  0  0  0  0  0
   13.5792   -2.5750    0.0000 C   0  0  0  0  0  0  0  0  0  0  0  0
   14.1750   -3.7667    0.0000 C   0  0  0  0  0  0  0  0  0  0  0  0
  2  5  2  0  0  0  0
  1  3  2  0  0  0  0
  1  4  1  0  0  0  0
  5  8  1  0  0  0  0
  2  6  1  0  0  0  0
  4  7  1  0  0  0  0
  8 14  1  0  0  0  0
  9 12  1  0  0  0  0
  1 10  1  0  0  0  0
  3 11  1  0  0  0  0
  5 12  1  0  0  0  0
  6 13  1  0  0  0  0
  7 14  1  0  0  0  0
 13 15  1  0  0  0  0
 13 16  1  0  0  0  0
 10 17  2  0  0  0  0
  4 18  2  0  0  0  0
  7 19  1  0  0  0  0
 20 23  1  0  0  0  0
  8 21  1  0  0  0  0
 10 22  1  0  0  0  0
 19 23  1  0  0  0  0
 17 24  1  0  0  0  0
 22 25  2  0  0  0  0
 25 26  1  0  0  0  0
 11 17  1  0  0  0  0
 24 26  2  0  0  0  0
  8 20  1  0  0  0  0
  6  9  2  0  0  0  0
 15 16  1  0  0  0  0
M  END
> <MOLFORMULA>
C19 H21 N5 O2

> <MOLWEIGHT>
3.514079000000000e+002

> <IDNUMBER>
AT-687/PE19322

> <PRICE>
EUR 80/10 mg

> <Similarity score>
0.17

$$$$

  -OEChem-04222410502D

 25 28  0     0  0  0  0  0  0999 V2000
    3.6500   -4.1000    0.0000 N   0  0  0  0  0  0  0  0  0  0  0  0
    4.4250   -3.0250    0.0000 C   0  0  0  0  0  0  0  0  0  0  0  0
    2.4000   -3.6917    0.0000 C   0  0  0  0  0  0  0  0  0  0  0  0
   11.4917   -2.1750    0.0000 C   0  0  0  0  0  0  0  0  0  0  0  0
    5.7667   -3.0250    0.0000 C   0  0  3  0  0  0  0  0  0  0  0  0
    2.4000   -2.3500    0.0000 N   0  0  0  0  0  0  0  0  0  0  0  0
   13.6292   -2.0500    0.0000 N   0  0  0  0  0  0  0  0  0  0  0  0
    7.9917   -2.4250    0.0000 N   0  0  3  0  0  0  0  0  0  0  0  0
    9.2750   -2.7750    0.0000 C   0  0  0  0  0  0  0  0  0  0  0  0
    3.6500   -1.9500    0.0000 O   0  0  0  0  0  0  0  0  0  0  0  0
   10.2042   -1.8250    0.0000 C   0  0  0  0  0  0  0  0  0  0  0  0
   13.2917   -3.3500    0.0000 O   0  0  0  0  0  0  0  0  0  0  0  0
   11.9750   -3.4167    0.0000 C   0  0  0  0  0  0  0  0  0  0  0  0
    1.3000   -4.4667    0.0000 C   0  0  3  0  0  0  0  0  0  0  0  0
   12.5167   -1.3500    0.0000 C   0  0  0  0  0  0  0  0  0  0  0  0
    7.0292   -3.3750    0.0000 C   0  0  0  0  0  0  0  0  0  0  0  0
    0.7750   -5.6792    0.0000 C   0  0  0  0  0  0  0  0  0  0  0  0
    0.0000   -4.6000    0.0000 C   0  0  0  0  0  0  0  0  0  0  0  0
    9.6042   -4.0542    0.0000 O   0  0  0  0  0  0  0  0  0  0  0  0
    5.4042   -1.7417    0.0000 C   0  0  0  0  0  0  0  0  0  0  0  0
    6.2667   -4.2500    0.0000 C   0  0  0  0  0  0  0  0  0  0  0  0
    7.6292   -1.1417    0.0000 C   0  0  0  0  0  0  0  0  0  0  0  0
   11.2500   -4.5417    0.0000 C   0  0  0  0  0  0  0  0  0  0  0  0
    6.3667   -0.8000    0.0000 C   0  0  0  0  0  0  0  0  0  0  0  0
   12.4667   -0.0000    0.0000 C   0  0  0  0  0  0  0  0  0  0  0  0
  1  2  2  0  0  0  0
  1  3  1  0  0  0  0
  4 11  1  0  0  0  0
  2  5  1  0  0  0  0
  3  6  2  0  0  0  0
  7 15  2  0  0  0  0
  8 16  1  0  0  0  0
  8  9  1  0  0  0  0
  2 10  1  0  0  0  0
  9 11  1  0  0  0  0
 12 13  1  0  0  0  0
  4 13  2  0  0  0  0
  3 14  1  0  0  0  0
  4 15  1  0  0  0  0
  5 16  1  0  0  0  0
 14 17  1  0  0  0  0
 14 18  1  0  0  0  0
  9 19  2  0  0  0  0
  5 20  1  0  0  0  0
  5 21  1  0  0  0  0
 22 24  1  0  0  0  0
 13 23  1  0  0  0  0
 20 24  1  0  0  0  0
 15 25  1  0  0  0  0
  6 10  1  0  0  0  0
 17 18  1  0  0  0  0
  8 22  1  0  0  0  0
  7 12  1  0  0  0  0
M  END
> <MOLFORMULA>
C18 H24 N4 O3

> <MOLWEIGHT>
3.444126000000000e+002

> <IDNUMBER>
AT-687/PE19323

> <PRICE>
EUR 80/10 mg

> <Similarity score>
0.17

$$$$

  -OEChem-04222410502D

 22 25  0     0  0  0  0  0  0999 V2000
    4.4792   -1.9292    0.0000 N   0  0  0  0  0  0  0  0  0  0  0  0
    4.9667   -2.6042    0.0000 C   0  0  0  0  0  0  0  0  0  0  0  0
    3.7000   -2.1917    0.0000 C   0  0  0  0  0  0  0  0  0  0  0  0
    5.7917   -2.6042    0.0000 C   0  0  3  0  0  0  0  0  0  0  0  0
    7.1667   -2.9750    0.0000 N   0  0  3  0  0  0  0  0  0  0  0  0
    3.7000   -3.0167    0.0000 N   0  0  0  0  0  0  0  0  0  0  0  0
    7.9667   -2.7542    0.0000 C   0  0  0  0  0  0  0  0  0  0  0  0
    8.5417   -3.3417    0.0000 C   0  0  0  0  0  0  0  0  0  0  0  0
    4.4792   -3.2667    0.0000 O   0  0  0  0  0  0  0  0  0  0  0  0
    3.0292   -1.7042    0.0000 C   0  0  3  0  0  0  0  0  0  0  0  0
    6.5875   -2.3875    0.0000 C   0  0  0  0  0  0  0  0  0  0  0  0
    2.2042   -1.6167    0.0000 C   0  0  0  0  0  0  0  0  0  0  0  0
    2.6875   -0.9542    0.0000 C   0  0  0  0  0  0  0  0  0  0  0  0
    8.4250   -4.1542    0.0000 C   0  0  0  0  0  0  0  0  0  0  0  0
    9.3625   -3.2125    0.0000 C   0  0  0  0  0  0  0  0  0  0  0  0
    9.1542   -4.5292    0.0000 O   0  0  0  0  0  0  0  0  0  0  0  0
    8.1792   -1.9667    0.0000 O   0  0  0  0  0  0  0  0  0  0  0  0
    9.7417   -3.9542    0.0000 C   0  0  0  0  0  0  0  0  0  0  0  0
    6.9542   -3.7667    0.0000 C   0  0  0  0  0  0  0  0  0  0  0  0
    5.5750   -3.4000    0.0000 C   0  0  0  0  0  0  0  0  0  0  0  0
    6.1042   -1.8417    0.0000 C   0  0  0  0  0  0  0  0  0  0  0  0
    6.1625   -3.9875    0.0000 C   0  0  0  0  0  0  0  0  0  0  0  0
  1  2  2  0  0  0  0
  1  3  1  0  0  0  0
  2  4  1  0  0  0  0
  5 11  1  0  0  0  0
  3  6  2  0  0  0  0
  5  7  1  0  0  0  0
  7  8  1  0  0  0  0
  2  9  1  0  0  0  0
  3 10  1  0  0  0  0
  4 11  1  0  0  0  0
 10 12  1  0  0  0  0
 10 13  1  0  0  0  0
  8 14  2  0  0  0  0
  8 15  1  0  0  0  0
 14 16  1  0  0  0  0
  7 17  2  0  0  0  0
 15 18  2  0  0  0  0
 19 22  1  0  0  0  0
  4 20  1  0  0  0  0
  4 21  1  0  0  0  0
 20 22  1  0  0  0  0
  6  9  1  0  0  0  0
 12 13  1  0  0  0  0
  5 19  1  0  0  0  0
 16 18  1  0  0  0  0
M  END
> <MOLFORMULA>
C16 H19 N3 O3

> <MOLWEIGHT>
3.013441000000000e+002

> <IDNUMBER>
AT-687/SK17709

> <PRICE>
EUR 80/10 mg

> <Similarity score>
0.17

$$$$

  -OEChem-04222410502D

 23 26  0     0  0  0  0  0  0999 V2000
    4.4792   -2.0000    0.0000 N   0  0  0  0  0  0  0  0  0  0  0  0
    4.9667   -2.6667    0.0000 C   0  0  0  0  0  0  0  0  0  0  0  0
    3.7000   -2.2542    0.0000 C   0  0  0  0  0  0  0  0  0  0  0  0
    7.9667   -2.8250    0.0000 C   0  0  0  0  0  0  0  0  0  0  0  0
    7.1667   -3.0417    0.0000 N   0  0  3  0  0  0  0  0  0  0  0  0
    8.5417   -3.4125    0.0000 C   0  0  0  0  0  0  0  0  0  0  0  0
    5.7917   -2.6667    0.0000 C   0  0  3  0  0  0  0  0  0  0  0  0
    3.7000   -3.0792    0.0000 N   0  0  0  0  0  0  0  0  0  0  0  0
    4.4792   -3.3375    0.0000 O   0  0  0  0  0  0  0  0  0  0  0  0
    8.4250   -4.2250    0.0000 N   0  0  3  0  0  0  0  0  0  0  0  0
    3.0292   -1.7750    0.0000 C   0  0  3  0  0  0  0  0  0  0  0  0
    6.5875   -2.4542    0.0000 C   0  0  0  0  0  0  0  0  0  0  0  0
    2.6875   -1.0167    0.0000 C   0  0  0  0  0  0  0  0  0  0  0  0
    2.2042   -1.6875    0.0000 C   0  0  0  0  0  0  0  0  0  0  0  0
    9.3625   -3.2792    0.0000 C   0  0  0  0  0  0  0  0  0  0  0  0
    9.1542   -4.6000    0.0000 C   0  0  0  0  0  0  0  0  0  0  0  0
    9.7417   -4.0167    0.0000 C   0  0  0  0  0  0  0  0  0  0  0  0
    8.1792   -2.0292    0.0000 O   0  0  0  0  0  0  0  0  0  0  0  0
    6.9542   -3.8375    0.0000 C   0  0  0  0  0  0  0  0  0  0  0  0
    5.5750   -3.4667    0.0000 C   0  0  0  0  0  0  0  0  0  0  0  0
    6.1042   -1.9042    0.0000 C   0  0  0  0  0  0  0  0  0  0  0  0
    7.6792   -4.6000    0.0000 C   0  0  0  0  0  0  0  0  0  0  0  0
    6.1625   -4.0542    0.0000 C   0  0  0  0  0  0  0  0  0  0  0  0
  1  2  2  0  0  0  0
  1  3  1  0  0  0  0
  4  5  1  0  0  0  0
  5 12  1  0  0  0  0
  4  6  1  0  0  0  0
  2  7  1  0  0  0  0
  3  8  2  0  0  0  0
  2  9  1  0  0  0  0
  6 10  1  0  0  0  0
  3 11  1  0  0  0  0
  7 12  1  0  0  0  0
 11 13  1  0  0  0  0
 11 14  1  0  0  0  0
  6 15  2  0  0  0  0
 10 16  1  0  0  0  0
 15 17  1  0  0  0  0
  4 18  2  0  0  0  0
 19 23  1  0  0  0  0
  7 20  1  0  0  0  0
  7 21  1  0  0  0  0
 10 22  1  0  0  0  0
 20 23  1  0  0  0  0
  8  9  1  0  0  0  0
 13 14  1  0  0  0  0
  5 19  1  0  0  0  0
 16 17  2  0  0  0  0
M  END
> <MOLFORMULA>
C17 H22 N4 O2

> <MOLWEIGHT>
3.143868000000000e+002

> <IDNUMBER>
AT-687/SK17715

> <PRICE>
EUR 80/10 mg

> <Similarity score>
0.17

$$$$

  -OEChem-04222410502D

 25 28  0     0  0  0  0  0  0999 V2000
    1.7500    1.3000    0.0000 C   0  0  0  0  0  0  0  0  0  0  0  0
    2.7417    1.4042    0.0000 C   0  0  0  0  0  0  0  0  0  0  0  0
    1.3417    2.2167    0.0000 S   0  0  0  0  0  0  0  0  0  0  0  0
    2.9500    2.3833    0.0000 C   0  0  0  0  0  0  0  0  0  0  0  0
   -1.7542   -1.2958    0.0000 C   0  0  0  0  0  0  0  0  0  0  0  0
   -1.3458   -2.2125    0.0000 N   0  0  0  0  0  0  0  0  0  0  0  0
    2.0833    2.8833    0.0000 C   0  0  0  0  0  0  0  0  0  0  0  0
    1.2458    0.4333    0.0000 N   0  0  0  0  0  0  0  0  0  0  0  0
   -2.7458   -1.4000    0.0000 O   0  0  0  0  0  0  0  0  0  0  0  0
    3.4125    0.6625    0.0000 C   0  0  0  0  0  0  0  0  0  0  0  0
   -2.0875   -2.8792    0.0000 C   0  0  0  0  0  0  0  0  0  0  0  0
    3.1042   -0.2875    0.0000 N   0  0  0  0  0  0  0  0  0  0  0  0
   -2.9542   -2.3792    0.0000 C   0  0  0  0  0  0  0  0  0  0  0  0
    0.2500    0.4333    0.0000 C   0  0  0  0  0  0  0  0  0  0  0  0
   -1.2500   -0.4292    0.0000 S   0  0  0  0  0  0  0  0  0  0  0  0
   -0.2500    1.3000    0.0000 O   0  0  0  0  0  0  0  0  0  0  0  0
   -0.2500   -0.4292    0.0000 C   0  0  0  0  0  0  0  0  0  0  0  0
    3.8167    2.8833    0.0000 C   0  0  0  0  0  0  0  0  0  0  0  0
    2.0833    3.8833    0.0000 C   0  0  0  0  0  0  0  0  0  0  0  0
   -2.0875   -3.8792    0.0000 C   0  0  0  0  0  0  0  0  0  0  0  0
   -3.8208   -2.8792    0.0000 C   0  0  0  0  0  0  0  0  0  0  0  0
    3.8167    3.8833    0.0000 C   0  0  0  0  0  0  0  0  0  0  0  0
    2.9500    4.3792    0.0000 C   0  0  0  0  0  0  0  0  0  0  0  0
   -3.8208   -3.8792    0.0000 C   0  0  0  0  0  0  0  0  0  0  0  0
   -2.9542   -4.3792    0.0000 C   0  0  0  0  0  0  0  0  0  0  0  0
  1  2  2  0  0  0  0
  1  3  1  0  0  0  0
  2  4  1  0  0  0  0
  5 15  1  0  0  0  0
  5  6  2  0  0  0  0
  3  7  1  0  0  0  0
  1  8  1  0  0  0  0
  5  9  1  0  0  0  0
  2 10  1  0  0  0  0
  6 11  1  0  0  0  0
 10 12  3  0  0  0  0
  9 13  1  0  0  0  0
  8 14  1  0  0  0  0
 15 17  1  0  0  0  0
 14 16  2  0  0  0  0
 14 17  1  0  0  0  0
  4 18  1  0  0  0  0
  7 19  1  0  0  0  0
 11 20  2  0  0  0  0
 13 21  2  0  0  0  0
 18 22  1  0  0  0  0
 19 23  1  0  0  0  0
 21 24  1  0  0  0  0
 20 25  1  0  0  0  0
  4  7  2  0  0  0  0
 22 23  1  0  0  0  0
 11 13  1  0  0  0  0
 24 25  2  0  0  0  0
M  END
> <MOLFORMULA>
C18 H15 N3 O2 S2

> <MOLWEIGHT>
3.694675000000000e+002

> <IDNUMBER>
AN-153/I135718

> <PRICE>
EUR 130/10 mg

> <Similarity score>
0.17

$$$$

  -OEChem-04222410502D

 18 20  0     0  0  0  0  0  0999 V2000
   -0.3542    1.7500    0.0000 C   0  0  0  0  0  0  0  0  0  0  0  0
    0.0542    0.8333    0.0000 C   0  0  0  0  0  0  0  0  0  0  0  0
    1.0458    0.9375    0.0000 S   0  0  0  0  0  0  0  0  0  0  0  0
    0.3875    2.4167    0.0000 C   0  0  0  0  0  0  0  0  0  0  0  0
    1.2542    1.9167    0.0000 C   0  0  0  0  0  0  0  0  0  0  0  0
   -0.4458   -0.0333    0.0000 N   0  0  0  0  0  0  0  0  0  0  0  0
   -1.3333    1.9542    0.0000 C   0  0  0  0  0  0  0  0  0  0  0  0
   -2.0000    1.2125    0.0000 N   0  0  0  0  0  0  0  0  0  0  0  0
    0.0542   -0.8958    0.0000 C   0  0  0  0  0  0  0  0  0  0  0  0
   -0.4458   -3.4958    0.0000 N   0  0  0  0  0  0  0  0  0  0  0  0
   -0.4458   -1.7625    0.0000 C   0  0  0  0  0  0  0  0  0  0  0  0
    0.5958    3.3958    0.0000 C   0  0  0  0  0  0  0  0  0  0  0  0
    1.9958    2.5875    0.0000 C   0  0  0  0  0  0  0  0  0  0  0  0
    0.0542   -2.6292    0.0000 C   0  0  0  0  0  0  0  0  0  0  0  0
    1.5917    3.5000    0.0000 C   0  0  0  0  0  0  0  0  0  0  0  0
   -1.4458   -3.4958    0.0000 C   0  0  0  0  0  0  0  0  0  0  0  0
   -1.4458   -1.7625    0.0000 C   0  0  0  0  0  0  0  0  0  0  0  0
   -1.9500   -2.6292    0.0000 C   0  0  0  0  0  0  0  0  0  0  0  0
  1  2  2  0  0  0  0
  2  3  1  0  0  0  0
  1  4  1  0  0  0  0
  4  5  2  0  0  0  0
  2  6  1  0  0  0  0
  1  7  1  0  0  0  0
  7  8  3  0  0  0  0
  6  9  2  0  0  0  0
 10 14  2  0  0  0  0
  9 11  1  0  0  0  0
  4 12  1  0  0  0  0
  5 13  1  0  0  0  0
 11 14  1  0  0  0  0
 12 15  1  0  0  0  0
 16 18  2  0  0  0  0
 11 17  2  0  0  0  0
 17 18  1  0  0  0  0
  3  5  1  0  0  0  0
 13 15  1  0  0  0  0
 10 16  1  0  0  0  0
M  END
> <MOLFORMULA>
C14 H11 N3 S

> <MOLWEIGHT>
2.533279000000000e+002

> <IDNUMBER>
AN-153/I120893

> <PRICE>
EUR 130/10 mg

> <Similarity score>
0.17

$$$$

  -OEChem-04222410502D

 18 20  0     0  0  0  0  0  0999 V2000
   -1.0875    0.1583    0.0000 C   0  0  0  0  0  0  0  0  0  0  0  0
   -0.4333   -0.1417    0.0000 C   0  0  0  0  0  0  0  0  0  0  0  0
   -0.5083   -0.8625    0.0000 S   0  0  0  0  0  0  0  0  0  0  0  0
   -1.5708   -0.3792    0.0000 C   0  0  0  0  0  0  0  0  0  0  0  0
   -1.2083   -1.0125    0.0000 C   0  0  0  0  0  0  0  0  0  0  0  0
    0.2125    0.2208    0.0000 N   0  0  0  0  0  0  0  0  0  0  0  0
   -1.2375    0.8708    0.0000 C   0  0  0  0  0  0  0  0  0  0  0  0
   -1.3875    1.5833    0.0000 N   0  0  0  0  0  0  0  0  0  0  0  0
    0.8500   -0.1667    0.0000 C   0  0  0  0  0  0  0  0  0  0  0  0
    2.7500    0.1708    0.0000 N   0  0  0  0  0  0  0  0  0  0  0  0
    1.4917    0.1708    0.0000 C   0  0  0  0  0  0  0  0  0  0  0  0
   -2.2875   -0.5625    0.0000 C   0  0  0  0  0  0  0  0  0  0  0  0
   -1.7083   -1.5500    0.0000 C   0  0  0  0  0  0  0  0  0  0  0  0
    2.1167   -0.2000    0.0000 C   0  0  0  0  0  0  0  0  0  0  0  0
   -2.3500   -1.2500    0.0000 C   0  0  0  0  0  0  0  0  0  0  0  0
    2.7500    0.8875    0.0000 C   0  0  0  0  0  0  0  0  0  0  0  0
    1.4917    0.8833    0.0000 C   0  0  0  0  0  0  0  0  0  0  0  0
    2.1167    1.2375    0.0000 C   0  0  0  0  0  0  0  0  0  0  0  0
  1  2  2  0  0  0  0
  2  3  1  0  0  0  0
  1  4  1  0  0  0  0
  4  5  2  0  0  0  0
  2  6  1  0  0  0  0
  1  7  1  0  0  0  0
  7  8  3  0  0  0  0
  6  9  2  0  0  0  0
 10 14  1  0  0  0  0
  9 11  1  0  0  0  0
  4 12  1  0  0  0  0
  5 13  1  0  0  0  0
 11 14  2  0  0  0  0
 12 15  1  0  0  0  0
 16 18  1  0  0  0  0
 11 17  1  0  0  0  0
 17 18  2  0  0  0  0
  3  5  1  0  0  0  0
 13 15  1  0  0  0  0
 10 16  2  0  0  0  0
M  END
> <MOLFORMULA>
C14 H11 N3 S

> <MOLWEIGHT>
2.533279000000000e+002

> <IDNUMBER>
AT-084/J158713

> <PRICE>
EUR 37.00/10 mg

> <Similarity score>
0.17

$$$$

  -OEChem-04222410502D

 25 28  0     0  0  0  0  0  0999 V2000
    3.6667   -1.5917    0.0000 N   0  0  0  0  0  0  0  0  0  0  0  0
    4.4500   -2.6667    0.0000 C   0  0  0  0  0  0  0  0  0  0  0  0
    9.2917   -2.9042    0.0000 C   0  0  0  0  0  0  0  0  0  0  0  0
   10.2250   -3.8500    0.0000 C   0  0  0  0  0  0  0  0  0  0  0  0
    2.4000   -1.9917    0.0000 C   0  0  0  0  0  0  0  0  0  0  0  0
    8.0042   -3.2417    0.0000 N   0  0  3  0  0  0  0  0  0  0  0  0
    5.7750   -2.6667    0.0000 C   0  0  3  0  0  0  0  0  0  0  0  0
    2.4000   -3.3250    0.0000 N   0  0  0  0  0  0  0  0  0  0  0  0
    3.6667   -3.7292    0.0000 O   0  0  0  0  0  0  0  0  0  0  0  0
    1.3250   -1.2167    0.0000 C   0  0  3  0  0  0  0  0  0  0  0  0
    7.0667   -2.3167    0.0000 C   0  0  0  0  0  0  0  0  0  0  0  0
    0.0000   -1.0667    0.0000 C   0  0  0  0  0  0  0  0  0  0  0  0
    0.7750   -0.0000    0.0000 C   0  0  0  0  0  0  0  0  0  0  0  0
    9.8667   -5.1417    0.0000 C   0  0  0  0  0  0  0  0  0  0  0  0
   11.5167   -3.5167    0.0000 C   0  0  0  0  0  0  0  0  0  0  0  0
    9.6250   -1.6250    0.0000 O   0  0  0  0  0  0  0  0  0  0  0  0
   10.8167   -6.0750    0.0000 C   0  0  0  0  0  0  0  0  0  0  0  0
   12.4500   -4.4292    0.0000 C   0  0  0  0  0  0  0  0  0  0  0  0
    7.6500   -4.5500    0.0000 C   0  0  0  0  0  0  0  0  0  0  0  0
    5.4250   -3.9417    0.0000 C   0  0  0  0  0  0  0  0  0  0  0  0
    8.6000   -5.4667    0.0000 F   0  0  0  0  0  0  0  0  0  0  0  0
    6.2750   -1.4417    0.0000 C   0  0  0  0  0  0  0  0  0  0  0  0
   12.1042   -5.7417    0.0000 C   0  0  0  0  0  0  0  0  0  0  0  0
   13.7500   -4.1000    0.0000 F   0  0  0  0  0  0  0  0  0  0  0  0
    6.3750   -4.8917    0.0000 C   0  0  0  0  0  0  0  0  0  0  0  0
  1  2  2  0  0  0  0
  3  6  1  0  0  0  0
  3  4  1  0  0  0  0
  1  5  1  0  0  0  0
  6 11  1  0  0  0  0
  2  7  1  0  0  0  0
  5  8  2  0  0  0  0
  2  9  1  0  0  0  0
  5 10  1  0  0  0  0
  7 11  1  0  0  0  0
 10 12  1  0  0  0  0
 10 13  1  0  0  0  0
  4 14  2  0  0  0  0
  4 15  1  0  0  0  0
  3 16  2  0  0  0  0
 14 17  1  0  0  0  0
 15 18  2  0  0  0  0
 19 25  1  0  0  0  0
  7 20  1  0  0  0  0
 14 21  1  0  0  0  0
  7 22  1  0  0  0  0
 18 23  1  0  0  0  0
 18 24  1  0  0  0  0
 20 25  1  0  0  0  0
  8  9  1  0  0  0  0
 12 13  1  0  0  0  0
  6 19  1  0  0  0  0
 17 23  2  0  0  0  0
M  END
> <MOLFORMULA>
C18 H19 F2 N3 O2

> <MOLWEIGHT>
3.473631000000000e+002

> <IDNUMBER>
AT-687/PE19315

> <PRICE>
EUR 80/10 mg

> <Similarity score>
0.17

$$$$

  -OEChem-04222410502D

 21 23  0     0  0  0  0  0  0999 V2000
    0.0250    1.7000    0.0000 C   0  0  0  0  0  0  0  0  0  0  0  0
   -0.3833    2.6125    0.0000 C   0  0  0  0  0  0  0  0  0  0  0  0
    1.0208    1.8042    0.0000 S   0  0  0  0  0  0  0  0  0  0  0  0
    0.3625    3.2833    0.0000 C   0  0  0  0  0  0  0  0  0  0  0  0
   -0.4750    0.8333    0.0000 N   0  0  0  0  0  0  0  0  0  0  0  0
    1.2292    2.7833    0.0000 C   0  0  0  0  0  0  0  0  0  0  0  0
    0.0250   -0.0333    0.0000 C   0  0  0  0  0  0  0  0  0  0  0  0
   -1.3583    2.8208    0.0000 C   0  0  0  0  0  0  0  0  0  0  0  0
   -1.6708    3.7708    0.0000 N   0  0  0  0  0  0  0  0  0  0  0  0
   -0.4750   -0.8958    0.0000 C   0  0  0  0  0  0  0  0  0  0  0  0
    1.0250   -0.0333    0.0000 O   0  0  0  0  0  0  0  0  0  0  0  0
   -1.4750   -0.8958    0.0000 C   0  0  0  0  0  0  0  0  0  0  0  0
    0.0250   -1.7625    0.0000 C   0  0  0  0  0  0  0  0  0  0  0  0
    0.5708    4.2583    0.0000 C   0  0  0  0  0  0  0  0  0  0  0  0
   -1.4750   -2.6292    0.0000 C   0  0  0  0  0  0  0  0  0  0  0  0
    1.9708    3.4542    0.0000 C   0  0  0  0  0  0  0  0  0  0  0  0
   -0.4750   -2.6292    0.0000 C   0  0  0  0  0  0  0  0  0  0  0  0
   -1.9750   -1.7625    0.0000 C   0  0  0  0  0  0  0  0  0  0  0  0
   -1.9750   -3.4958    0.0000 O   0  0  0  0  0  0  0  0  0  0  0  0
    1.5625    4.3625    0.0000 C   0  0  0  0  0  0  0  0  0  0  0  0
   -1.4750   -4.3625    0.0000 C   0  0  0  0  0  0  0  0  0  0  0  0
  1  2  2  0  0  0  0
  1  3  1  0  0  0  0
  2  4  1  0  0  0  0
  1  5  1  0  0  0  0
  3  6  1  0  0  0  0
  5  7  1  0  0  0  0
  2  8  1  0  0  0  0
  8  9  3  0  0  0  0
  7 10  1  0  0  0  0
  7 11  2  0  0  0  0
 10 12  1  0  0  0  0
 10 13  2  0  0  0  0
  4 14  1  0  0  0  0
 15 17  2  0  0  0  0
  6 16  1  0  0  0  0
 13 17  1  0  0  0  0
 12 18  2  0  0  0  0
 15 19  1  0  0  0  0
 16 20  1  0  0  0  0
 19 21  1  0  0  0  0
  4  6  2  0  0  0  0
 14 20  1  0  0  0  0
 15 18  1  0  0  0  0
M  END
> <MOLFORMULA>
C16 H14 N2 O2 S

> <MOLWEIGHT>
2.983646000000000e+002

> <IDNUMBER>
AN-153/I236325

> <PRICE>
EUR 130/10 mg

> <Similarity score>
0.17

$$$$

  -OEChem-04222410502D

 23 25  0     0  0  0  0  0  0999 V2000
   -0.6833    2.0250    0.0000 C   0  0  0  0  0  0  0  0  0  0  0  0
   -0.0542    2.8000    0.0000 C   0  0  0  0  0  0  0  0  0  0  0  0
   -1.6167    2.3833    0.0000 S   0  0  0  0  0  0  0  0  0  0  0  0
   -0.5958    3.6417    0.0000 C   0  0  0  0  0  0  0  0  0  0  0  0
   -0.4208    1.0583    0.0000 N   0  0  0  0  0  0  0  0  0  0  0  0
   -1.5625    3.3792    0.0000 C   0  0  0  0  0  0  0  0  0  0  0  0
   -1.1292    0.3500    0.0000 C   0  0  0  0  0  0  0  0  0  0  0  0
    0.9458    2.7500    0.0000 C   0  0  0  0  0  0  0  0  0  0  0  0
    1.4917    3.5875    0.0000 N   0  0  0  0  0  0  0  0  0  0  0  0
   -0.8667   -0.6167    0.0000 C   0  0  0  0  0  0  0  0  0  0  0  0
   -2.0958    0.6083    0.0000 O   0  0  0  0  0  0  0  0  0  0  0  0
    0.1000   -0.8708    0.0000 C   0  0  0  0  0  0  0  0  0  0  0  0
   -1.5750   -1.3250    0.0000 C   0  0  0  0  0  0  0  0  0  0  0  0
   -0.5458    4.6333    0.0000 C   0  0  0  0  0  0  0  0  0  0  0  0
   -0.3500   -2.5458    0.0000 C   0  0  0  0  0  0  0  0  0  0  0  0
   -2.1083    4.2125    0.0000 C   0  0  0  0  0  0  0  0  0  0  0  0
   -1.3125   -2.2875    0.0000 C   0  0  0  0  0  0  0  0  0  0  0  0
    0.3583   -1.8375    0.0000 C   0  0  0  0  0  0  0  0  0  0  0  0
   -0.0875   -3.5125    0.0000 O   0  0  0  0  0  0  0  0  0  0  0  0
   -1.4792    4.9917    0.0000 C   0  0  0  0  0  0  0  0  0  0  0  0
    0.8792   -3.7708    0.0000 C   0  0  0  0  0  0  0  0  0  0  0  0
    1.1375   -4.7333    0.0000 C   0  0  0  0  0  0  0  0  0  0  0  0
    2.1042   -4.9917    0.0000 C   0  0  0  0  0  0  0  0  0  0  0  0
  1  2  2  0  0  0  0
  1  3  1  0  0  0  0
  2  4  1  0  0  0  0
  1  5  1  0  0  0  0
  3  6  1  0  0  0  0
  5  7  1  0  0  0  0
  2  8  1  0  0  0  0
  8  9  3  0  0  0  0
  7 10  1  0  0  0  0
  7 11  2  0  0  0  0
 10 12  1  0  0  0  0
 10 13  2  0  0  0  0
  4 14  1  0  0  0  0
 15 17  2  0  0  0  0
  6 16  1  0  0  0  0
 13 17  1  0  0  0  0
 12 18  2  0  0  0  0
 15 19  1  0  0  0  0
 16 20  1  0  0  0  0
 19 21  1  0  0  0  0
 21 22  1  0  0  0  0
 22 23  1  0  0  0  0
  4  6  2  0  0  0  0
 14 20  1  0  0  0  0
 15 18  1  0  0  0  0
M  END
> <MOLFORMULA>
C18 H18 N2 O2 S

> <MOLWEIGHT>
3.264182000000000e+002

> <IDNUMBER>
AN-153/I215686

> <PRICE>
EUR 130/10 mg

> <Similarity score>
0.17

$$$$

  -OEChem-04222410502D

 33 37  0     0  0  0  0  0  0999 V2000
    4.9917    4.0792    0.0000 C   0  0  0  0  0  0  0  0  0  0  0  0
    4.8917    3.2833    0.0000 N   0  0  3  0  0  0  0  0  0  0  0  0
    5.7125    4.4792    0.0000 C   0  0  0  0  0  0  0  0  0  0  0  0
    4.4042    4.6417    0.0000 S   0  0  0  0  0  0  0  0  0  0  0  0
    4.3167    0.5583    0.0000 C   0  0  0  0  0  0  0  0  0  0  0  0
    5.1542    1.9833    0.0000 C   0  0  0  0  0  0  0  0  0  0  0  0
    3.8292   -0.1042    0.0000 N   0  0  0  0  0  0  0  0  0  0  0  0
    5.1417    0.5583    0.0000 C   0  0  0  0  0  0  0  0  0  0  0  0
    4.1917    2.8750    0.0000 C   0  0  0  0  0  0  0  0  0  0  0  0
    5.5042    2.7250    0.0000 C   0  0  0  0  0  0  0  0  0  0  0  0
    5.5542    5.2792    0.0000 C   0  0  0  0  0  0  0  0  0  0  0  0
    4.7417    5.3875    0.0000 C   0  0  0  0  0  0  0  0  0  0  0  0
    3.8292    1.2333    0.0000 N   0  0  0  0  0  0  0  0  0  0  0  0
    5.5542    1.2750    0.0000 C   0  0  0  0  0  0  0  0  0  0  0  0
    4.3417    2.0708    0.0000 C   0  0  0  0  0  0  0  0  0  0  0  0
    3.0417    0.1458    0.0000 C   0  0  0  0  0  0  0  0  0  0  0  0
    6.4542    4.1375    0.0000 C   0  0  0  0  0  0  0  0  0  0  0  0
    3.0417    0.9708    0.0000 C   0  0  0  0  0  0  0  0  0  0  0  0
    5.5542   -0.1542    0.0000 C   0  0  0  0  0  0  0  0  0  0  0  0
    7.2000    3.8000    0.0000 N   0  0  0  0  0  0  0  0  0  0  0  0
    5.9625   -0.8667    0.0000 N   0  0  0  0  0  0  0  0  0  0  0  0
    2.3292   -0.2667    0.0000 C   0  0  0  0  0  0  0  0  0  0  0  0
    2.3292    1.3833    0.0000 C   0  0  0  0  0  0  0  0  0  0  0  0
    1.6167    0.1458    0.0000 C   0  0  0  0  0  0  0  0  0  0  0  0
    3.4375    3.2208    0.0000 C   0  0  0  0  0  0  0  0  0  0  0  0
    6.0417    5.9292    0.0000 C   0  0  0  0  0  0  0  0  0  0  0  0
    6.3042    2.8833    0.0000 C   0  0  0  0  0  0  0  0  0  0  0  0
    1.6167    0.9708    0.0000 C   0  0  0  0  0  0  0  0  0  0  0  0
    4.4167    6.1292    0.0000 C   0  0  0  0  0  0  0  0  0  0  0  0
    0.9042   -0.2667    0.0000 O   0  0  0  0  0  0  0  0  0  0  0  0
    0.9042   -1.0917    0.0000 C   0  0  0  0  0  0  0  0  0  0  0  0
    5.7292    6.6917    0.0000 C   0  0  0  0  0  0  0  0  0  0  0  0
    4.9167    6.7917    0.0000 C   0  0  0  0  0  0  0  0  0  0  0  0
  1  2  1  0  0  0  0
  1  3  2  0  0  0  0
  1  4  1  0  0  0  0
  5  8  1  0  0  0  0
  6 10  2  0  0  0  0
  5  7  2  0  0  0  0
  8 14  2  0  0  0  0
  2  9  1  0  0  0  0
  2 10  1  0  0  0  0
  3 11  1  0  0  0  0
  4 12  1  0  0  0  0
  5 13  1  0  0  0  0
  6 14  1  0  0  0  0
  9 15  2  0  0  0  0
  7 16  1  0  0  0  0
  3 17  1  0  0  0  0
 13 18  1  0  0  0  0
  8 19  1  0  0  0  0
 17 20  3  0  0  0  0
 19 21  3  0  0  0  0
 16 22  2  0  0  0  0
 18 23  2  0  0  0  0
 22 24  1  0  0  0  0
  9 25  1  0  0  0  0
 11 26  1  0  0  0  0
 10 27  1  0  0  0  0
 23 28  1  0  0  0  0
 12 29  1  0  0  0  0
 24 30  1  0  0  0  0
 30 31  1  0  0  0  0
 26 32  1  0  0  0  0
 29 33  1  0  0  0  0
 11 12  2  0  0  0  0
  6 15  1  0  0  0  0
 32 33  1  0  0  0  0
 16 18  1  0  0  0  0
 24 28  2  0  0  0  0
M  END
> <MOLFORMULA>
C26 H23 N5 O S

> <MOLWEIGHT>
4.535677000000000e+002

> <IDNUMBER>
AM-879/MD25802

> <PRICE>
EUR 55.00/10 mg

> <Similarity score>
0.17

$$$$

  -OEChem-04222410502D

 33 37  0     0  0  0  0  0  0999 V2000
    8.6875   -5.5000    0.0000 C   0  0  0  0  0  0  0  0  0  0  0  0
    8.0125   -5.9750    0.0000 N   0  0  3  0  0  0  0  0  0  0  0  0
    8.7000   -4.6750    0.0000 C   0  0  0  0  0  0  0  0  0  0  0  0
    9.4750   -5.7667    0.0000 S   0  0  0  0  0  0  0  0  0  0  0  0
    4.6417   -7.0917    0.0000 C   0  0  0  0  0  0  0  0  0  0  0  0
    6.7292   -6.3875    0.0000 C   0  0  0  0  0  0  0  0  0  0  0  0
    4.1542   -6.4125    0.0000 N   0  0  0  0  0  0  0  0  0  0  0  0
    5.4750   -7.1042    0.0000 C   0  0  0  0  0  0  0  0  0  0  0  0
    8.0000   -6.8042    0.0000 C   0  0  0  0  0  0  0  0  0  0  0  0
    7.2292   -5.7125    0.0000 C   0  0  0  0  0  0  0  0  0  0  0  0
    9.4750   -4.4250    0.0000 C   0  0  0  0  0  0  0  0  0  0  0  0
    9.9542   -5.1042    0.0000 C   0  0  0  0  0  0  0  0  0  0  0  0
    4.1542   -7.7625    0.0000 N   0  0  0  0  0  0  0  0  0  0  0  0
    5.8917   -6.3875    0.0000 C   0  0  0  0  0  0  0  0  0  0  0  0
    7.2042   -7.0542    0.0000 C   0  0  0  0  0  0  0  0  0  0  0  0
    3.3792   -6.6667    0.0000 C   0  0  0  0  0  0  0  0  0  0  0  0
    8.0292   -4.1792    0.0000 C   0  0  0  0  0  0  0  0  0  0  0  0
    3.3667   -7.4917    0.0000 C   0  0  0  0  0  0  0  0  0  0  0  0
    5.8875   -7.8250    0.0000 C   0  0  0  0  0  0  0  0  0  0  0  0
    7.4417   -3.5917    0.0000 N   0  0  0  0  0  0  0  0  0  0  0  0
    6.2917   -8.5500    0.0000 N   0  0  0  0  0  0  0  0  0  0  0  0
    2.6625   -6.2417    0.0000 C   0  0  0  0  0  0  0  0  0  0  0  0
    2.6500   -7.9042    0.0000 C   0  0  0  0  0  0  0  0  0  0  0  0
    1.9417   -6.6542    0.0000 C   0  0  0  0  0  0  0  0  0  0  0  0
    8.6625   -7.3042    0.0000 C   0  0  0  0  0  0  0  0  0  0  0  0
    9.8167   -3.6667    0.0000 C   0  0  0  0  0  0  0  0  0  0  0  0
    6.9792   -4.9292    0.0000 C   0  0  0  0  0  0  0  0  0  0  0  0
    1.9292   -7.4792    0.0000 C   0  0  0  0  0  0  0  0  0  0  0  0
   10.7792   -5.0250    0.0000 C   0  0  0  0  0  0  0  0  0  0  0  0
    1.2292   -6.2375    0.0000 O   0  0  0  0  0  0  0  0  0  0  0  0
    1.2417   -5.4125    0.0000 C   0  0  0  0  0  0  0  0  0  0  0  0
   10.6417   -3.5792    0.0000 C   0  0  0  0  0  0  0  0  0  0  0  0
   11.1292   -4.2667    0.0000 C   0  0  0  0  0  0  0  0  0  0  0  0
  1  2  1  0  0  0  0
  1  3  2  0  0  0  0
  1  4  1  0  0  0  0
  5  8  1  0  0  0  0
  6 10  2  0  0  0  0
  5  7  2  0  0  0  0
  8 14  2  0  0  0  0
  2  9  1  0  0  0  0
  2 10  1  0  0  0  0
  3 11  1  0  0  0  0
  4 12  1  0  0  0  0
  5 13  1  0  0  0  0
  6 14  1  0  0  0  0
  9 15  2  0  0  0  0
  7 16  1  0  0  0  0
  3 17  1  0  0  0  0
 13 18  1  0  0  0  0
  8 19  1  0  0  0  0
 17 20  3  0  0  0  0
 19 21  3  0  0  0  0
 16 22  1  0  0  0  0
 18 23  1  0  0  0  0
 22 24  2  0  0  0  0
  9 25  1  0  0  0  0
 11 26  1  0  0  0  0
 10 27  1  0  0  0  0
 23 28  2  0  0  0  0
 12 29  1  0  0  0  0
 24 30  1  0  0  0  0
 30 31  1  0  0  0  0
 26 32  1  0  0  0  0
 29 33  1  0  0  0  0
 11 12  2  0  0  0  0
  6 15  1  0  0  0  0
 32 33  1  0  0  0  0
 16 18  2  0  0  0  0
 24 28  1  0  0  0  0
M  END
> <MOLFORMULA>
C26 H23 N5 O S

> <MOLWEIGHT>
4.535677000000000e+002

> <IDNUMBER>
AT-139/J204542

> <PRICE>
EUR 125.00/10 mg

> <Similarity score>
0.17

$$$$

  -OEChem-04222410502D

 21 23  0     0  0  0  0  0  0999 V2000
   -0.4750   -1.5167    0.0000 C   0  0  0  0  0  0  0  0  0  0  0  0
   -0.6833   -2.4958    0.0000 C   0  0  0  0  0  0  0  0  0  0  0  0
   -1.3417   -1.0167    0.0000 S   0  0  0  0  0  0  0  0  0  0  0  0
   -1.6792   -2.6000    0.0000 C   0  0  0  0  0  0  0  0  0  0  0  0
    0.4375   -1.1125    0.0000 N   0  0  0  0  0  0  0  0  0  0  0  0
   -2.0833   -1.6875    0.0000 C   0  0  0  0  0  0  0  0  0  0  0  0
    0.5417   -0.1167    0.0000 C   0  0  0  0  0  0  0  0  0  0  0  0
   -0.0125   -3.2375    0.0000 C   0  0  0  0  0  0  0  0  0  0  0  0
    0.9625   -3.0292    0.0000 N   0  0  0  0  0  0  0  0  0  0  0  0
    1.4542    0.2917    0.0000 C   0  0  0  0  0  0  0  0  0  0  0  0
   -0.2667    0.4708    0.0000 O   0  0  0  0  0  0  0  0  0  0  0  0
    1.5583    1.2833    0.0000 C   0  0  0  0  0  0  0  0  0  0  0  0
   -2.4208   -3.2708    0.0000 C   0  0  0  0  0  0  0  0  0  0  0  0
    2.4750    1.6917    0.0000 C   0  0  0  0  0  0  0  0  0  0  0  0
   -3.0792   -1.7917    0.0000 C   0  0  0  0  0  0  0  0  0  0  0  0
    2.5792    2.6875    0.0000 O   0  0  0  0  0  0  0  0  0  0  0  0
    2.2667   -0.2958    0.0000 C   0  0  0  0  0  0  0  0  0  0  0  0
   -3.2875   -2.7708    0.0000 C   0  0  0  0  0  0  0  0  0  0  0  0
    3.1792    0.1083    0.0000 C   0  0  0  0  0  0  0  0  0  0  0  0
    3.2833    1.1042    0.0000 C   0  0  0  0  0  0  0  0  0  0  0  0
    1.7708    3.2750    0.0000 C   0  0  0  0  0  0  0  0  0  0  0  0
  1  2  2  0  0  0  0
  1  3  1  0  0  0  0
  2  4  1  0  0  0  0
  1  5  1  0  0  0  0
  3  6  1  0  0  0  0
  5  7  1  0  0  0  0
  2  8  1  0  0  0  0
  8  9  3  0  0  0  0
  7 10  1  0  0  0  0
  7 11  2  0  0  0  0
 10 12  2  0  0  0  0
  4 13  1  0  0  0  0
 12 14  1  0  0  0  0
  6 15  1  0  0  0  0
 14 16  1  0  0  0  0
 10 17  1  0  0  0  0
 15 18  1  0  0  0  0
 17 19  2  0  0  0  0
 19 20  1  0  0  0  0
 16 21  1  0  0  0  0
  4  6  2  0  0  0  0
 13 18  1  0  0  0  0
 14 20  2  0  0  0  0
M  END
> <MOLFORMULA>
C16 H14 N2 O2 S

> <MOLWEIGHT>
2.983646000000000e+002

> <IDNUMBER>
AN-153/I181368

> <PRICE>
EUR 130/10 mg

> <Similarity score>
0.17

$$$$

  -OEChem-04222410502D

 25 27  0     0  0  0  0  0  0999 V2000
   -0.2500    1.8375    0.0000 C   0  0  0  0  0  0  0  0  0  0  0  0
    0.2625    2.6958    0.0000 C   0  0  0  0  0  0  0  0  0  0  0  0
   -0.2708   -2.5208    0.0000 C   0  0  0  0  0  0  0  0  0  0  0  0
   -0.8708   -3.3208    0.0000 N   0  0  0  0  0  0  0  0  0  0  0  0
   -1.2250    2.0625    0.0000 S   0  0  0  0  0  0  0  0  0  0  0  0
    0.7250   -2.6375    0.0000 N   0  0  0  0  0  0  0  0  0  0  0  0
   -0.3958    3.4500    0.0000 C   0  0  0  0  0  0  0  0  0  0  0  0
    0.1458    0.9208    0.0000 N   0  0  0  0  0  0  0  0  0  0  0  0
   -1.3125    3.0583    0.0000 C   0  0  0  0  0  0  0  0  0  0  0  0
   -0.4750   -4.2375    0.0000 C   0  0  0  0  0  0  0  0  0  0  0  0
    0.5167   -4.3583    0.0000 C   0  0  0  0  0  0  0  0  0  0  0  0
    1.1167   -3.5583    0.0000 C   0  0  0  0  0  0  0  0  0  0  0  0
   -0.4542    0.1208    0.0000 C   0  0  0  0  0  0  0  0  0  0  0  0
    1.2583    2.7875    0.0000 C   0  0  0  0  0  0  0  0  0  0  0  0
   -0.6625   -1.6000    0.0000 S   0  0  0  0  0  0  0  0  0  0  0  0
    1.6792    3.6958    0.0000 N   0  0  0  0  0  0  0  0  0  0  0  0
   -0.0625   -0.8000    0.0000 C   0  0  3  0  0  0  0  0  0  0  0  0
   -1.4500    0.2375    0.0000 O   0  0  0  0  0  0  0  0  0  0  0  0
    2.1083   -3.6792    0.0000 O   0  0  0  0  0  0  0  0  0  0  0  0
   -1.0750   -5.0375    0.0000 N   0  0  0  0  0  0  0  0  0  0  0  0
   -0.2750    4.4375    0.0000 C   0  0  0  0  0  0  0  0  0  0  0  0
   -2.1125    3.6583    0.0000 C   0  0  0  0  0  0  0  0  0  0  0  0
    0.9292   -0.9208    0.0000 C   0  0  0  0  0  0  0  0  0  0  0  0
   -1.0750    5.0375    0.0000 C   0  0  0  0  0  0  0  0  0  0  0  0
   -1.9958    4.6458    0.0000 C   0  0  0  0  0  0  0  0  0  0  0  0
  1  2  2  0  0  0  0
  3 15  1  0  0  0  0
  3  4  2  0  0  0  0
  1  5  1  0  0  0  0
  3  6  1  0  0  0  0
  2  7  1  0  0  0  0
  1  8  1  0  0  0  0
  5  9  1  0  0  0  0
  4 10  1  0  0  0  0
 11 12  1  0  0  0  0
  6 12  1  0  0  0  0
  8 13  1  0  0  0  0
  2 14  1  0  0  0  0
 15 17  1  0  0  0  0
 14 16  3  0  0  0  0
 13 17  1  0  0  0  0
 13 18  2  0  0  0  0
 12 19  2  0  0  0  0
 10 20  1  0  0  0  0
  7 21  1  0  0  0  0
  9 22  1  0  0  0  0
 17 23  1  0  0  0  0
 21 24  1  0  0  0  0
 22 25  1  0  0  0  0
  7  9  2  0  0  0  0
 24 25  1  0  0  0  0
 10 11  2  0  0  0  0
M  END
> <MOLFORMULA>
C16 H17 N5 O2 S2

> <MOLWEIGHT>
3.754753000000000e+002

> <IDNUMBER>
AN-153/I240410

> <PRICE>
EUR 130/10 mg

> <Similarity score>
0.17

$$$$

  -OEChem-04222410502D

 21 23  0     0  0  0  0  0  0999 V2000
    1.5250    0.8333    0.0000 C   0  0  0  0  0  0  0  0  0  0  0  0
    2.5208    0.9375    0.0000 C   0  0  0  0  0  0  0  0  0  0  0  0
    1.1167    1.7500    0.0000 S   0  0  0  0  0  0  0  0  0  0  0  0
    2.7292    1.9167    0.0000 C   0  0  0  0  0  0  0  0  0  0  0  0
    1.8625    2.4167    0.0000 C   0  0  0  0  0  0  0  0  0  0  0  0
    1.0250   -0.0333    0.0000 N   0  0  0  0  0  0  0  0  0  0  0  0
    3.1875    0.1958    0.0000 C   0  0  0  0  0  0  0  0  0  0  0  0
    2.8792   -0.7542    0.0000 N   0  0  0  0  0  0  0  0  0  0  0  0
    0.0250   -0.0333    0.0000 C   0  0  0  0  0  0  0  0  0  0  0  0
   -1.9750   -1.7625    0.0000 C   0  0  0  0  0  0  0  0  0  0  0  0
   -1.4750   -2.6292    0.0000 N   0  0  0  0  0  0  0  0  0  0  0  0
   -1.4750   -0.8958    0.0000 S   0  0  0  0  0  0  0  0  0  0  0  0
   -0.4750    0.8333    0.0000 O   0  0  0  0  0  0  0  0  0  0  0  0
   -0.4750   -0.8958    0.0000 C   0  0  0  0  0  0  0  0  0  0  0  0
    3.4708    2.5875    0.0000 C   0  0  0  0  0  0  0  0  0  0  0  0
    2.0708    3.3958    0.0000 C   0  0  0  0  0  0  0  0  0  0  0  0
    3.0625    3.5000    0.0000 C   0  0  0  0  0  0  0  0  0  0  0  0
   -1.9750   -3.4958    0.0000 C   0  0  0  0  0  0  0  0  0  0  0  0
   -2.9750   -1.7625    0.0000 C   0  0  0  0  0  0  0  0  0  0  0  0
   -2.9750   -3.4958    0.0000 C   0  0  0  0  0  0  0  0  0  0  0  0
   -3.4750   -2.6292    0.0000 C   0  0  0  0  0  0  0  0  0  0  0  0
  1  2  2  0  0  0  0
  1  3  1  0  0  0  0
  2  4  1  0  0  0  0
  3  5  1  0  0  0  0
  1  6  1  0  0  0  0
  2  7  1  0  0  0  0
  7  8  3  0  0  0  0
  6  9  1  0  0  0  0
 10 12  1  0  0  0  0
 10 11  2  0  0  0  0
 12 14  1  0  0  0  0
  9 13  2  0  0  0  0
  9 14  1  0  0  0  0
  4 15  1  0  0  0  0
  5 16  1  0  0  0  0
 16 17  1  0  0  0  0
 11 18  1  0  0  0  0
 10 19  1  0  0  0  0
 20 21  1  0  0  0  0
 19 21  2  0  0  0  0
  4  5  2  0  0  0  0
 15 17  1  0  0  0  0
 18 20  2  0  0  0  0
M  END
> <MOLFORMULA>
C15 H13 N3 O S2

> <MOLWEIGHT>
3.154197000000000e+002

> <IDNUMBER>
AN-153/I135555

> <PRICE>
EUR 130/10 mg

> <Similarity score>
0.17

$$$$

  -OEChem-04222410502D

 21 23  0     0  0  0  0  0  0999 V2000
    3.6500   -2.2750    0.0000 C   0  0  0  0  0  0  0  0  0  0  0  0
    4.1167   -2.9292    0.0000 C   0  0  0  0  0  0  0  0  0  0  0  0
    3.6500   -3.5875    0.0000 S   0  0  0  0  0  0  0  0  0  0  0  0
    2.8792   -2.5292    0.0000 C   0  0  0  0  0  0  0  0  0  0  0  0
    2.8792   -3.3375    0.0000 C   0  0  0  0  0  0  0  0  0  0  0  0
    4.9250   -2.9292    0.0000 N   0  0  0  0  0  0  0  0  0  0  0  0
    3.9000   -1.5167    0.0000 C   0  0  0  0  0  0  0  0  0  0  0  0
    4.1417   -0.7500    0.0000 N   0  0  0  0  0  0  0  0  0  0  0  0
    5.3292   -3.6292    0.0000 C   0  0  0  0  0  0  0  0  0  0  0  0
    6.1375   -3.6292    0.0000 C   0  0  0  0  0  0  0  0  0  0  0  0
    7.7542   -3.6292    0.0000 C   0  0  0  0  0  0  0  0  0  0  0  0
    2.1750   -2.1250    0.0000 C   0  0  0  0  0  0  0  0  0  0  0  0
    2.1750   -3.7417    0.0000 C   0  0  0  0  0  0  0  0  0  0  0  0
    6.5417   -4.3292    0.0000 C   0  0  0  0  0  0  0  0  0  0  0  0
    6.5417   -2.9292    0.0000 C   0  0  0  0  0  0  0  0  0  0  0  0
    7.3500   -2.9292    0.0000 C   0  0  0  0  0  0  0  0  0  0  0  0
    7.3500   -4.3292    0.0000 C   0  0  0  0  0  0  0  0  0  0  0  0
    8.5625   -3.6292    0.0000 O   0  0  0  0  0  0  0  0  0  0  0  0
    8.9667   -4.3292    0.0000 C   0  0  0  0  0  0  0  0  0  0  0  0
    1.4792   -2.5292    0.0000 C   0  0  0  0  0  0  0  0  0  0  0  0
    1.4792   -3.3375    0.0000 C   0  0  0  0  0  0  0  0  0  0  0  0
  1  2  2  0  0  0  0
  2  3  1  0  0  0  0
  1  4  1  0  0  0  0
  4  5  2  0  0  0  0
  2  6  1  0  0  0  0
  1  7  1  0  0  0  0
  7  8  3  0  0  0  0
  6  9  2  0  0  0  0
  9 10  1  0  0  0  0
 11 16  2  0  0  0  0
  4 12  1  0  0  0  0
  5 13  1  0  0  0  0
 10 14  1  0  0  0  0
 10 15  2  0  0  0  0
 15 16  1  0  0  0  0
 14 17  2  0  0  0  0
 11 18  1  0  0  0  0
 18 19  1  0  0  0  0
 12 20  1  0  0  0  0
 20 21  1  0  0  0  0
  3  5  1  0  0  0  0
 13 21  1  0  0  0  0
 11 17  1  0  0  0  0
M  END
> <MOLFORMULA>
C17 H16 N2 O S

> <MOLWEIGHT>
2.963924000000000e+002

> <IDNUMBER>
AM-879/PD02471

> <PRICE>
EUR 55.00/10 mg

> <Similarity score>
0.17

$$$$

  -OEChem-04222410502D

 25 28  0     0  0  0  0  0  0999 V2000
   -2.5333    0.3833    0.0000 C   0  0  0  0  0  0  0  0  0  0  0  0
   -3.1208    1.1917    0.0000 C   0  0  0  0  0  0  0  0  0  0  0  0
   -3.1208   -0.4250    0.0000 S   0  0  0  0  0  0  0  0  0  0  0  0
   -4.0708    0.8833    0.0000 C   0  0  0  0  0  0  0  0  0  0  0  0
    1.4667   -1.3458    0.0000 C   0  0  0  0  0  0  0  0  0  0  0  0
    2.0542   -0.5375    0.0000 N   0  0  0  0  0  0  0  0  0  0  0  0
   -4.0708   -0.1167    0.0000 C   0  0  0  0  0  0  0  0  0  0  0  0
    2.0542   -2.1583    0.0000 N   0  0  0  0  0  0  0  0  0  0  0  0
   -1.5333    0.3833    0.0000 N   0  0  0  0  0  0  0  0  0  0  0  0
    3.0083   -0.8500    0.0000 C   0  0  0  0  0  0  0  0  0  0  0  0
   -2.8125    2.1458    0.0000 C   0  0  0  0  0  0  0  0  0  0  0  0
    3.0083   -1.8500    0.0000 C   0  0  0  0  0  0  0  0  0  0  0  0
   -1.8333    2.3500    0.0000 N   0  0  0  0  0  0  0  0  0  0  0  0
   -1.0333   -0.4833    0.0000 C   0  0  0  0  0  0  0  0  0  0  0  0
    0.4667   -1.3458    0.0000 S   0  0  0  0  0  0  0  0  0  0  0  0
    3.8750   -0.3500    0.0000 C   0  0  0  0  0  0  0  0  0  0  0  0
   -1.5333   -1.3458    0.0000 O   0  0  0  0  0  0  0  0  0  0  0  0
    3.8750   -2.3500    0.0000 C   0  0  0  0  0  0  0  0  0  0  0  0
   -0.0333   -0.4833    0.0000 C   0  0  0  0  0  0  0  0  0  0  0  0
    4.7375   -0.8500    0.0000 C   0  0  0  0  0  0  0  0  0  0  0  0
   -5.0208    1.1917    0.0000 C   0  0  0  0  0  0  0  0  0  0  0  0
   -5.0208   -0.4250    0.0000 C   0  0  0  0  0  0  0  0  0  0  0  0
    4.7375   -1.8500    0.0000 C   0  0  0  0  0  0  0  0  0  0  0  0
   -5.6083    0.3833    0.0000 C   0  0  0  0  0  0  0  0  0  0  0  0
    5.6042   -0.3500    0.0000 C   0  0  0  0  0  0  0  0  0  0  0  0
  1  2  2  0  0  0  0
  1  3  1  0  0  0  0
  2  4  1  0  0  0  0
  5 15  1  0  0  0  0
  5  6  2  0  0  0  0
  3  7  1  0  0  0  0
  5  8  1  0  0  0  0
  1  9  1  0  0  0  0
  6 10  1  0  0  0  0
  2 11  1  0  0  0  0
  8 12  1  0  0  0  0
 11 13  3  0  0  0  0
  9 14  1  0  0  0  0
 15 19  1  0  0  0  0
 10 16  1  0  0  0  0
 14 17  2  0  0  0  0
 12 18  1  0  0  0  0
 14 19  1  0  0  0  0
 16 20  2  0  0  0  0
  4 21  1  0  0  0  0
  7 22  1  0  0  0  0
 18 23  2  0  0  0  0
 22 24  1  0  0  0  0
 20 25  1  0  0  0  0
  4  7  2  0  0  0  0
 21 24  1  0  0  0  0
 10 12  2  0  0  0  0
 20 23  1  0  0  0  0
M  END
> <MOLFORMULA>
C18 H16 N4 O S2

> <MOLWEIGHT>
3.684834000000000e+002

> <IDNUMBER>
AN-153/I152895

> <PRICE>
EUR 130/10 mg

> <Similarity score>
0.17

$$$$

  -OEChem-04222410502D

 24 26  0     0  0  0  0  0  0999 V2000
   -0.1458    2.2750    0.0000 C   0  0  0  0  0  0  0  0  0  0  0  0
    0.3958    3.1167    0.0000 C   0  0  0  0  0  0  0  0  0  0  0  0
   -1.1125    2.5333    0.0000 S   0  0  0  0  0  0  0  0  0  0  0  0
   -0.2333    3.8917    0.0000 C   0  0  0  0  0  0  0  0  0  0  0  0
    0.2125    1.3417    0.0000 N   0  0  0  0  0  0  0  0  0  0  0  0
   -1.1667    3.5292    0.0000 C   0  0  0  0  0  0  0  0  0  0  0  0
   -0.4125    0.5625    0.0000 C   0  0  0  0  0  0  0  0  0  0  0  0
    1.3958    3.1708    0.0000 C   0  0  0  0  0  0  0  0  0  0  0  0
    1.9417    2.3292    0.0000 N   0  0  0  0  0  0  0  0  0  0  0  0
   -0.0542   -0.3708    0.0000 C   0  0  0  0  0  0  0  0  0  0  0  0
   -1.4042    0.7167    0.0000 O   0  0  0  0  0  0  0  0  0  0  0  0
   -0.6833   -1.1458    0.0000 C   0  0  0  0  0  0  0  0  0  0  0  0
   -0.3208   -2.0792    0.0000 C   0  0  0  0  0  0  0  0  0  0  0  0
   -0.0792    4.8750    0.0000 C   0  0  0  0  0  0  0  0  0  0  0  0
   -1.9458    4.1542    0.0000 C   0  0  0  0  0  0  0  0  0  0  0  0
   -0.9500   -2.8583    0.0000 O   0  0  0  0  0  0  0  0  0  0  0  0
    0.9333   -0.5250    0.0000 C   0  0  0  0  0  0  0  0  0  0  0  0
    1.2958   -1.4583    0.0000 C   0  0  0  0  0  0  0  0  0  0  0  0
    0.6667   -2.2333    0.0000 C   0  0  0  0  0  0  0  0  0  0  0  0
   -0.5875   -3.7917    0.0000 C   0  0  0  0  0  0  0  0  0  0  0  0
   -1.2167   -4.5708    0.0000 C   0  0  0  0  0  0  0  0  0  0  0  0
   -0.8583    5.5042    0.0000 C   0  0  0  0  0  0  0  0  0  0  0  0
   -1.7917    5.1417    0.0000 C   0  0  0  0  0  0  0  0  0  0  0  0
   -0.8583   -5.5042    0.0000 C   0  0  0  0  0  0  0  0  0  0  0  0
  1  2  2  0  0  0  0
  1  3  1  0  0  0  0
  2  4  1  0  0  0  0
  1  5  1  0  0  0  0
  3  6  1  0  0  0  0
  5  7  1  0  0  0  0
  2  8  1  0  0  0  0
  8  9  3  0  0  0  0
  7 10  1  0  0  0  0
  7 11  2  0  0  0  0
 10 12  2  0  0  0  0
 12 13  1  0  0  0  0
  4 14  1  0  0  0  0
  6 15  1  0  0  0  0
 13 16  1  0  0  0  0
 10 17  1  0  0  0  0
 17 18  2  0  0  0  0
 18 19  1  0  0  0  0
 16 20  1  0  0  0  0
 20 21  1  0  0  0  0
 14 22  1  0  0  0  0
 15 23  1  0  0  0  0
 21 24  1  0  0  0  0
  4  6  2  0  0  0  0
 22 23  1  0  0  0  0
 13 19  2  0  0  0  0
M  END
> <MOLFORMULA>
C19 H20 N2 O2 S

> <MOLWEIGHT>
3.404450000000000e+002

> <IDNUMBER>
AN-153/I224048

> <PRICE>
EUR 130/10 mg

> <Similarity score>
0.17

$$$$

  -OEChem-04222410502D

 24 28  0     0  0  0  0  0  0999 V2000
    3.6500   -3.8250    0.0000 N   0  0  0  0  0  0  0  0  0  0  0  0
   10.8750   -3.3917    0.0000 N   0  0  0  0  0  0  0  0  0  0  0  0
    4.4417   -4.9000    0.0000 C   0  0  0  0  0  0  0  0  0  0  0  0
    2.3917   -4.2250    0.0000 C   0  0  0  0  0  0  0  0  0  0  0  0
   10.8000   -2.0542    0.0000 C   0  0  0  0  0  0  0  0  0  0  0  0
    9.6250   -3.8667    0.0000 C   0  0  0  0  0  0  0  0  0  0  0  0
    2.3917   -5.5542    0.0000 N   0  0  0  0  0  0  0  0  0  0  0  0
    5.7750   -4.9000    0.0000 C   0  0  3  0  0  0  0  0  0  0  0  0
    8.8000   -2.8417    0.0000 N   0  0  0  0  0  0  0  0  0  0  0  0
    3.6500   -5.9750    0.0000 O   0  0  0  0  0  0  0  0  0  0  0  0
    9.5042   -1.7167    0.0000 O   0  0  0  0  0  0  0  0  0  0  0  0
    1.3042   -3.4500    0.0000 C   0  0  3  0  0  0  0  0  0  0  0  0
   11.8417   -1.2167    0.0000 C   0  0  3  0  0  0  0  0  0  0  0  0
    8.0000   -5.5000    0.0000 N   0  0  3  0  0  0  0  0  0  0  0  0
   12.3042   -0.0000    0.0000 C   0  0  0  0  0  0  0  0  0  0  0  0
   13.1500   -1.0250    0.0000 C   0  0  0  0  0  0  0  0  0  0  0  0
    0.0000   -3.3042    0.0000 C   0  0  0  0  0  0  0  0  0  0  0  0
    0.7750   -2.2250    0.0000 C   0  0  0  0  0  0  0  0  0  0  0  0
    7.0542   -4.5542    0.0000 C   0  0  0  0  0  0  0  0  0  0  0  0
    9.2792   -5.1500    0.0000 C   0  0  0  0  0  0  0  0  0  0  0  0
    5.4250   -6.1917    0.0000 C   0  0  0  0  0  0  0  0  0  0  0  0
    6.2792   -3.6750    0.0000 C   0  0  0  0  0  0  0  0  0  0  0  0
    7.6500   -6.7792    0.0000 C   0  0  0  0  0  0  0  0  0  0  0  0
    6.3667   -7.1250    0.0000 C   0  0  0  0  0  0  0  0  0  0  0  0
  2  6  1  0  0  0  0
  1  3  2  0  0  0  0
  1  4  1  0  0  0  0
  2  5  2  0  0  0  0
  6 20  1  0  0  0  0
  4  7  2  0  0  0  0
  3  8  1  0  0  0  0
  6  9  2  0  0  0  0
  3 10  1  0  0  0  0
  9 11  1  0  0  0  0
  4 12  1  0  0  0  0
  5 13  1  0  0  0  0
 14 19  1  0  0  0  0
 13 15  1  0  0  0  0
 13 16  1  0  0  0  0
 12 17  1  0  0  0  0
 12 18  1  0  0  0  0
  8 19  1  0  0  0  0
 14 20  1  0  0  0  0
  8 21  1  0  0  0  0
  8 22  1  0  0  0  0
 23 24  1  0  0  0  0
 21 24  1  0  0  0  0
  7 10  1  0  0  0  0
 17 18  1  0  0  0  0
 14 23  1  0  0  0  0
  5 11  1  0  0  0  0
 15 16  1  0  0  0  0
M  END
> <MOLFORMULA>
C17 H23 N5 O2

> <MOLWEIGHT>
3.294017000000000e+002

> <IDNUMBER>
AT-687/PE19326

> <PRICE>
EUR 80/10 mg

> <Similarity score>
0.17

$$$$

  -OEChem-04222410502D

 26 29  0     0  0  0  0  0  0999 V2000
    2.1792    1.3000    0.0000 C   0  0  0  0  0  0  0  0  0  0  0  0
    3.1750    1.4042    0.0000 C   0  0  0  0  0  0  0  0  0  0  0  0
    1.7750    2.2167    0.0000 S   0  0  0  0  0  0  0  0  0  0  0  0
    3.3833    2.3833    0.0000 C   0  0  0  0  0  0  0  0  0  0  0  0
   -1.3208   -1.2958    0.0000 C   0  0  0  0  0  0  0  0  0  0  0  0
   -2.3125   -1.4000    0.0000 N   0  0  0  0  0  0  0  0  0  0  0  0
    2.5167    2.8833    0.0000 C   0  0  0  0  0  0  0  0  0  0  0  0
   -0.9125   -2.2083    0.0000 N   0  0  0  0  0  0  0  0  0  0  0  0
    1.6792    0.4333    0.0000 N   0  0  0  0  0  0  0  0  0  0  0  0
   -2.5208   -2.3792    0.0000 C   0  0  0  0  0  0  0  0  0  0  0  0
    3.8458    0.6625    0.0000 C   0  0  0  0  0  0  0  0  0  0  0  0
   -1.6542   -2.8792    0.0000 C   0  0  0  0  0  0  0  0  0  0  0  0
    3.5375   -0.2875    0.0000 N   0  0  0  0  0  0  0  0  0  0  0  0
    0.6792    0.4333    0.0000 C   0  0  0  0  0  0  0  0  0  0  0  0
   -0.8208   -0.4292    0.0000 S   0  0  0  0  0  0  0  0  0  0  0  0
   -3.3875   -2.8792    0.0000 C   0  0  0  0  0  0  0  0  0  0  0  0
    0.1792    1.3000    0.0000 O   0  0  0  0  0  0  0  0  0  0  0  0
   -1.6542   -3.8792    0.0000 C   0  0  0  0  0  0  0  0  0  0  0  0
    0.1792   -0.4292    0.0000 C   0  0  0  0  0  0  0  0  0  0  0  0
   -3.3875   -3.8792    0.0000 C   0  0  0  0  0  0  0  0  0  0  0  0
    4.2500    2.8833    0.0000 C   0  0  0  0  0  0  0  0  0  0  0  0
   -2.5208   -4.3792    0.0000 C   0  0  0  0  0  0  0  0  0  0  0  0
    2.5167    3.8833    0.0000 C   0  0  0  0  0  0  0  0  0  0  0  0
   -4.2542   -4.3792    0.0000 C   0  0  0  0  0  0  0  0  0  0  0  0
    4.2500    3.8833    0.0000 C   0  0  0  0  0  0  0  0  0  0  0  0
    3.3833    4.3792    0.0000 C   0  0  0  0  0  0  0  0  0  0  0  0
  1  2  2  0  0  0  0
  1  3  1  0  0  0  0
  2  4  1  0  0  0  0
  5 15  1  0  0  0  0
  5  6  2  0  0  0  0
  3  7  1  0  0  0  0
  5  8  1  0  0  0  0
  1  9  1  0  0  0  0
  6 10  1  0  0  0  0
  2 11  1  0  0  0  0
  8 12  1  0  0  0  0
 11 13  3  0  0  0  0
  9 14  1  0  0  0  0
 15 19  1  0  0  0  0
 10 16  1  0  0  0  0
 14 17  2  0  0  0  0
 12 18  1  0  0  0  0
 14 19  1  0  0  0  0
 16 20  2  0  0  0  0
  4 21  1  0  0  0  0
 18 22  2  0  0  0  0
  7 23  1  0  0  0  0
 20 24  1  0  0  0  0
 21 25  1  0  0  0  0
 23 26  1  0  0  0  0
  4  7  2  0  0  0  0
 25 26  1  0  0  0  0
 10 12  2  0  0  0  0
 20 22  1  0  0  0  0
M  END
> <MOLFORMULA>
C19 H18 N4 O S2

> <MOLWEIGHT>
3.825102000000000e+002

> <IDNUMBER>
AN-153/I137970

> <PRICE>
EUR 130/10 mg

> <Similarity score>
0.17

$$$$

  -OEChem-04222410502D

 22 24  0     0  0  0  0  0  0999 V2000
    0.7750    1.7000    0.0000 C   0  0  0  0  0  0  0  0  0  0  0  0
    1.7708    1.8042    0.0000 C   0  0  0  0  0  0  0  0  0  0  0  0
    0.3667    2.6125    0.0000 S   0  0  0  0  0  0  0  0  0  0  0  0
    1.9792    2.7833    0.0000 C   0  0  0  0  0  0  0  0  0  0  0  0
    0.2750    0.8333    0.0000 N   0  0  0  0  0  0  0  0  0  0  0  0
    1.1125    3.2833    0.0000 C   0  0  0  0  0  0  0  0  0  0  0  0
   -0.7250    0.8333    0.0000 C   0  0  0  0  0  0  0  0  0  0  0  0
    2.4375    1.0625    0.0000 C   0  0  0  0  0  0  0  0  0  0  0  0
    2.1292    0.1125    0.0000 N   0  0  0  0  0  0  0  0  0  0  0  0
   -1.2250   -0.0333    0.0000 C   0  0  0  0  0  0  0  0  0  0  0  0
   -1.2250    1.7000    0.0000 O   0  0  0  0  0  0  0  0  0  0  0  0
   -0.7250   -0.8958    0.0000 C   0  0  0  0  0  0  0  0  0  0  0  0
   -2.2250   -0.0333    0.0000 C   0  0  0  0  0  0  0  0  0  0  0  0
    2.7208    3.4542    0.0000 C   0  0  0  0  0  0  0  0  0  0  0  0
   -2.2250   -1.7625    0.0000 C   0  0  0  0  0  0  0  0  0  0  0  0
    1.3208    4.2583    0.0000 C   0  0  0  0  0  0  0  0  0  0  0  0
   -1.2250   -1.7625    0.0000 C   0  0  0  0  0  0  0  0  0  0  0  0
   -2.7250   -0.8958    0.0000 C   0  0  0  0  0  0  0  0  0  0  0  0
   -2.7250   -2.6292    0.0000 O   0  0  0  0  0  0  0  0  0  0  0  0
    2.3125    4.3625    0.0000 C   0  0  0  0  0  0  0  0  0  0  0  0
   -2.2250   -3.4958    0.0000 C   0  0  0  0  0  0  0  0  0  0  0  0
   -2.7250   -4.3625    0.0000 C   0  0  0  0  0  0  0  0  0  0  0  0
  1  2  2  0  0  0  0
  1  3  1  0  0  0  0
  2  4  1  0  0  0  0
  1  5  1  0  0  0  0
  3  6  1  0  0  0  0
  5  7  1  0  0  0  0
  2  8  1  0  0  0  0
  8  9  3  0  0  0  0
  7 10  1  0  0  0  0
  7 11  2  0  0  0  0
 10 12  1  0  0  0  0
 10 13  2  0  0  0  0
  4 14  1  0  0  0  0
 15 18  2  0  0  0  0
  6 16  1  0  0  0  0
 12 17  2  0  0  0  0
 13 18  1  0  0  0  0
 15 19  1  0  0  0  0
 16 20  1  0  0  0  0
 19 21  1  0  0  0  0
 21 22  1  0  0  0  0
  4  6  2  0  0  0  0
 14 20  1  0  0  0  0
 15 17  1  0  0  0  0
M  END
> <MOLFORMULA>
C17 H16 N2 O2 S

> <MOLWEIGHT>
3.123914000000000e+002

> <IDNUMBER>
AN-153/I226308

> <PRICE>
EUR 130/10 mg

> <Similarity score>
0.17

$$$$

  -OEChem-04222410502D

 24 27  0     0  0  0  0  0  0999 V2000
    3.6500   -3.3000    0.0000 N   0  0  0  0  0  0  0  0  0  0  0  0
    4.4250   -2.2167    0.0000 C   0  0  0  0  0  0  0  0  0  0  0  0
    2.3917   -2.8917    0.0000 C   0  0  0  0  0  0  0  0  0  0  0  0
    5.7667   -2.2167    0.0000 C   0  0  3  0  0  0  0  0  0  0  0  0
    2.3917   -1.5542    0.0000 N   0  0  0  0  0  0  0  0  0  0  0  0
    7.9917   -1.6250    0.0000 N   0  0  3  0  0  0  0  0  0  0  0  0
    3.6500   -1.1417    0.0000 O   0  0  0  0  0  0  0  0  0  0  0  0
    9.2667   -1.9750    0.0000 C   0  0  0  0  0  0  0  0  0  0  0  0
    1.3000   -3.6750    0.0000 C   0  0  3  0  0  0  0  0  0  0  0  0
    7.0542   -2.5667    0.0000 C   0  0  0  0  0  0  0  0  0  0  0  0
    0.7750   -4.8917    0.0000 C   0  0  0  0  0  0  0  0  0  0  0  0
    0.0000   -3.8000    0.0000 C   0  0  0  0  0  0  0  0  0  0  0  0
    9.6167   -3.2500    0.0000 C   0  0  0  0  0  0  0  0  0  0  0  0
   10.2042   -1.0167    0.0000 O   0  0  0  0  0  0  0  0  0  0  0  0
    5.4250   -0.9417    0.0000 C   0  0  0  0  0  0  0  0  0  0  0  0
    6.2750   -3.4500    0.0000 C   0  0  0  0  0  0  0  0  0  0  0  0
    7.6500   -0.3500    0.0000 C   0  0  0  0  0  0  0  0  0  0  0  0
   10.8917   -3.6000    0.0000 C   0  0  3  0  0  0  0  0  0  0  0  0
    6.3500   -0.0000    0.0000 C   0  0  0  0  0  0  0  0  0  0  0  0
   11.2500   -4.8917    0.0000 C   0  0  0  0  0  0  0  0  0  0  0  0
   11.8417   -2.6500    0.0000 C   0  0  0  0  0  0  0  0  0  0  0  0
   13.1250   -3.0000    0.0000 C   0  0  0  0  0  0  0  0  0  0  0  0
   12.5250   -5.2250    0.0000 C   0  0  0  0  0  0  0  0  0  0  0  0
   13.4750   -4.2750    0.0000 C   0  0  0  0  0  0  0  0  0  0  0  0
  1  2  2  0  0  0  0
  1  3  1  0  0  0  0
  2  4  1  0  0  0  0
  3  5  2  0  0  0  0
  6 10  1  0  0  0  0
  2  7  1  0  0  0  0
  6  8  1  0  0  0  0
  3  9  1  0  0  0  0
  4 10  1  0  0  0  0
  9 11  1  0  0  0  0
  9 12  1  0  0  0  0
  8 13  1  0  0  0  0
  8 14  2  0  0  0  0
  4 15  1  0  0  0  0
  4 16  1  0  0  0  0
 17 19  1  0  0  0  0
 13 18  1  0  0  0  0
 15 19  1  0  0  0  0
 18 20  1  0  0  0  0
 18 21  1  0  0  0  0
 21 22  1  0  0  0  0
 20 23  1  0  0  0  0
 22 24  1  0  0  0  0
  5  7  1  0  0  0  0
 11 12  1  0  0  0  0
  6 17  1  0  0  0  0
 23 24  1  0  0  0  0
M  END
> <MOLFORMULA>
C19 H29 N3 O2

> <MOLWEIGHT>
3.314571000000000e+002

> <IDNUMBER>
AT-687/PE19312

> <PRICE>
EUR 80/10 mg

> <Similarity score>
0.17

$$$$

  -OEChem-04222410502D

 26 28  0     0  0  0  0  0  0999 V2000
    2.2125    6.0417    0.0000 C   0  0  0  0  0  0  0  0  0  0  0  0
    0.1667    4.2542    0.0000 C   0  0  0  0  0  0  0  0  0  0  0  0
    4.4250    4.6375    0.0000 S   0  0  0  0  0  0  0  0  0  0  0  0
    1.2750    1.8333    0.0000 C   0  0  0  0  0  0  0  0  0  0  0  0
    9.7792    3.3625    0.0000 N   0  0  0  0  0  0  0  0  0  0  0  0
    9.2750    6.0417    0.0000 C   0  0  0  0  0  0  0  0  0  0  0  0
    3.8292    1.9583    0.0000 C   0  0  0  0  0  0  0  0  0  0  0  0
   11.4042    7.8292    0.0000 N   0  0  0  0  0  0  0  0  0  0  0  0
   12.3375    2.4708    0.0000 C   0  0  0  0  0  0  0  0  0  0  0  0
    1.6167    8.5917    0.0000 N   0  0  0  0  0  0  0  0  0  0  0  0
   14.3792    4.2542    0.0000 C   0  0  0  0  0  0  0  0  0  0  0  0
   13.8667    6.8042    0.0000 C   0  0  0  0  0  0  0  0  0  0  0  0
   -2.5583    4.7625    0.0000 C   0  0  0  0  0  0  0  0  0  0  0  0
   -5.2833    5.2750    0.0000 N   0  0  0  0  0  0  0  0  0  0  0  0
    3.6542   10.3792    0.0000 C   0  0  0  0  0  0  0  0  0  0  0  0
    6.7167    6.9292    0.0000 S   0  0  0  0  0  0  0  0  0  0  0  0
   12.7625   -0.3375    0.0000 O   0  0  0  0  0  0  0  0  0  0  0  0
    3.0625   12.9292    0.0000 O   0  0  0  0  0  0  0  0  0  0  0  0
    6.1250    9.4875    0.0000 C   0  0  0  0  0  0  0  0  0  0  0  0
   -0.5958   -0.2125    0.0000 C   0  0  0  0  0  0  0  0  0  0  0  0
    5.7792    0.1708    0.0000 C   0  0  0  0  0  0  0  0  0  0  0  0
   16.0000    8.5917    0.0000 C   0  0  0  0  0  0  0  0  0  0  0  0
   -0.4333   -2.8917    0.0000 C   0  0  0  0  0  0  0  0  0  0  0  0
    5.9542   -2.5042    0.0000 C   0  0  0  0  0  0  0  0  0  0  0  0
    1.5292   -4.6792    0.0000 C   0  0  0  0  0  0  0  0  0  0  0  0
    4.0792   -4.5500    0.0000 C   0  0  0  0  0  0  0  0  0  0  0  0
  1  2  2  0  0  0  0
  1  3  1  0  0  0  0
  2  4  1  0  0  0  0
  5  6  1  0  0  0  0
  6 16  1  0  0  0  0
  3  7  1  0  0  0  0
  6  8  2  0  0  0  0
  5  9  1  0  0  0  0
  1 10  1  0  0  0  0
 11 12  2  0  0  0  0
  8 12  1  0  0  0  0
  2 13  1  0  0  0  0
 13 14  3  0  0  0  0
 10 15  1  0  0  0  0
 16 19  1  0  0  0  0
  9 17  2  0  0  0  0
 15 18  2  0  0  0  0
 15 19  1  0  0  0  0
  4 20  1  0  0  0  0
  7 21  1  0  0  0  0
 12 22  1  0  0  0  0
 20 23  1  0  0  0  0
 21 24  1  0  0  0  0
 23 25  1  0  0  0  0
 24 26  1  0  0  0  0
  4  7  2  0  0  0  0
 25 26  1  0  0  0  0
  9 11  1  0  0  0  0
M  END
> <MOLFORMULA>
C18 H20 N4 O2 S2

> <MOLWEIGHT>
3.885140000000000e+002

> <IDNUMBER>
AT-225/NB85496

> <PRICE>
EUR 140/10 mg

> <Similarity score>
0.17

$$$$

  -OEChem-04222410502D

 24 26  0     0  0  0  0  0  0999 V2000
   -1.4000    0.3833    0.0000 C   0  0  0  0  0  0  0  0  0  0  0  0
   -1.9750    1.1958    0.0000 C   0  0  0  0  0  0  0  0  0  0  0  0
    3.1208   -0.4792    0.0000 N   0  0  0  0  0  0  0  0  0  0  0  0
    2.6125   -1.3417    0.0000 C   0  0  0  0  0  0  0  0  0  0  0  0
   -1.9750   -0.4042    0.0000 S   0  0  0  0  0  0  0  0  0  0  0  0
   -2.9208    0.8917    0.0000 C   0  0  0  0  0  0  0  0  0  0  0  0
    3.1208   -2.2083    0.0000 N   0  0  0  0  0  0  0  0  0  0  0  0
   -2.9208   -0.1000    0.0000 C   0  0  0  0  0  0  0  0  0  0  0  0
    4.1208   -0.4792    0.0000 C   0  0  0  0  0  0  0  0  0  0  0  0
    4.6292   -1.3417    0.0000 C   0  0  0  0  0  0  0  0  0  0  0  0
    4.1208   -2.2083    0.0000 C   0  0  0  0  0  0  0  0  0  0  0  0
   -0.4000    0.3833    0.0000 N   0  0  0  0  0  0  0  0  0  0  0  0
   -1.6708    2.1333    0.0000 C   0  0  0  0  0  0  0  0  0  0  0  0
   -1.3458    3.1000    0.0000 N   0  0  0  0  0  0  0  0  0  0  0  0
    0.0917   -0.4792    0.0000 C   0  0  0  0  0  0  0  0  0  0  0  0
    1.6125   -1.3417    0.0000 S   0  0  0  0  0  0  0  0  0  0  0  0
    4.6458   -3.0958    0.0000 O   0  0  0  0  0  0  0  0  0  0  0  0
   -0.4000   -1.3417    0.0000 O   0  0  0  0  0  0  0  0  0  0  0  0
    4.6458    0.3833    0.0000 N   0  0  0  0  0  0  0  0  0  0  0  0
    1.1083   -0.4792    0.0000 C   0  0  0  0  0  0  0  0  0  0  0  0
   -3.7833    1.4000    0.0000 C   0  0  0  0  0  0  0  0  0  0  0  0
   -3.7833   -0.6083    0.0000 C   0  0  0  0  0  0  0  0  0  0  0  0
   -4.6500    0.8917    0.0000 C   0  0  0  0  0  0  0  0  0  0  0  0
   -4.6500   -0.1000    0.0000 C   0  0  0  0  0  0  0  0  0  0  0  0
  1  2  2  0  0  0  0
  3  4  2  0  0  0  0
  4 16  1  0  0  0  0
  1  5  1  0  0  0  0
  2  6  1  0  0  0  0
  4  7  1  0  0  0  0
  5  8  1  0  0  0  0
  3  9  1  0  0  0  0
 10 11  1  0  0  0  0
  7 11  1  0  0  0  0
  1 12  1  0  0  0  0
  2 13  1  0  0  0  0
 13 14  3  0  0  0  0
 12 15  1  0  0  0  0
 16 20  1  0  0  0  0
 11 17  2  0  0  0  0
 15 18  2  0  0  0  0
  9 19  1  0  0  0  0
 15 20  1  0  0  0  0
  6 21  1  0  0  0  0
  8 22  1  0  0  0  0
 21 23  1  0  0  0  0
 22 24  1  0  0  0  0
  6  8  2  0  0  0  0
 23 24  1  0  0  0  0
  9 10  2  0  0  0  0
M  END
> <MOLFORMULA>
C15 H15 N5 O2 S2

> <MOLWEIGHT>
3.614485000000000e+002

> <IDNUMBER>
AN-153/I162547

> <PRICE>
EUR 130/10 mg

> <Similarity score>
0.17

$$$$

  -OEChem-04222410502D

 24 26  0     0  0  0  0  0  0999 V2000
    0.4625    1.9250    0.0000 C   0  0  0  0  0  0  0  0  0  0  0  0
    0.0583    2.8375    0.0000 C   0  0  0  0  0  0  0  0  0  0  0  0
   -1.0375   -2.4042    0.0000 N   0  0  0  0  0  0  0  0  0  0  0  0
   -0.0375   -2.4042    0.0000 C   0  0  0  0  0  0  0  0  0  0  0  0
    1.4583    2.0292    0.0000 S   0  0  0  0  0  0  0  0  0  0  0  0
    0.4625   -3.2708    0.0000 N   0  0  0  0  0  0  0  0  0  0  0  0
    0.8000    3.5083    0.0000 C   0  0  0  0  0  0  0  0  0  0  0  0
    1.6667    3.0083    0.0000 C   0  0  0  0  0  0  0  0  0  0  0  0
   -0.0375   -4.1375    0.0000 C   0  0  0  0  0  0  0  0  0  0  0  0
   -1.5375   -3.2708    0.0000 C   0  0  0  0  0  0  0  0  0  0  0  0
   -1.0375   -4.1375    0.0000 C   0  0  0  0  0  0  0  0  0  0  0  0
   -0.0375    1.0583    0.0000 N   0  0  0  0  0  0  0  0  0  0  0  0
   -0.9208    3.0458    0.0000 C   0  0  0  0  0  0  0  0  0  0  0  0
   -1.2292    3.9958    0.0000 N   0  0  0  0  0  0  0  0  0  0  0  0
    0.4625    0.1917    0.0000 C   0  0  0  0  0  0  0  0  0  0  0  0
    0.4625   -1.5375    0.0000 S   0  0  0  0  0  0  0  0  0  0  0  0
   -2.5375   -3.2708    0.0000 O   0  0  0  0  0  0  0  0  0  0  0  0
    1.4625    0.1917    0.0000 O   0  0  0  0  0  0  0  0  0  0  0  0
    0.4625   -5.0042    0.0000 N   0  0  0  0  0  0  0  0  0  0  0  0
   -0.0375   -0.6750    0.0000 C   0  0  0  0  0  0  0  0  0  0  0  0
    0.8000    4.5042    0.0000 C   0  0  0  0  0  0  0  0  0  0  0  0
    2.5333    3.5083    0.0000 C   0  0  0  0  0  0  0  0  0  0  0  0
    1.6667    5.0042    0.0000 C   0  0  0  0  0  0  0  0  0  0  0  0
    2.5333    4.5042    0.0000 C   0  0  0  0  0  0  0  0  0  0  0  0
  1  2  2  0  0  0  0
  3  4  2  0  0  0  0
  4 16  1  0  0  0  0
  1  5  1  0  0  0  0
  4  6  1  0  0  0  0
  2  7  1  0  0  0  0
  5  8  1  0  0  0  0
  6  9  1  0  0  0  0
  3 10  1  0  0  0  0
  9 11  2  0  0  0  0
  1 12  1  0  0  0  0
  2 13  1  0  0  0  0
 13 14  3  0  0  0  0
 12 15  1  0  0  0  0
 16 20  1  0  0  0  0
 10 17  2  0  0  0  0
 15 18  2  0  0  0  0
  9 19  1  0  0  0  0
 15 20  1  0  0  0  0
  7 21  1  0  0  0  0
  8 22  1  0  0  0  0
 21 23  1  0  0  0  0
 22 24  1  0  0  0  0
  7  8  2  0  0  0  0
 23 24  1  0  0  0  0
 10 11  1  0  0  0  0
M  END
> <MOLFORMULA>
C15 H15 N5 O2 S2

> <MOLWEIGHT>
3.614485000000000e+002

> <IDNUMBER>
AN-153/I169830

> <PRICE>
EUR 130/10 mg

> <Similarity score>
0.17

$$$$

  -OEChem-04222410502D

 26 30  0     0  0  0  0  0  0999 V2000
    3.9542   -2.4667    0.0000 N   0  0  0  0  0  0  0  0  0  0  0  0
    8.4250   -2.7292    0.0000 N   0  0  0  0  0  0  0  0  0  0  0  0
    8.3792   -3.5542    0.0000 C   0  0  0  0  0  0  0  0  0  0  0  0
    4.4375   -1.8042    0.0000 C   0  0  0  0  0  0  0  0  0  0  0  0
    3.1625   -2.2167    0.0000 C   0  0  0  0  0  0  0  0  0  0  0  0
    7.6500   -2.4417    0.0000 C   0  0  0  0  0  0  0  0  0  0  0  0
    3.1625   -1.3917    0.0000 N   0  0  0  0  0  0  0  0  0  0  0  0
    5.2625   -1.8042    0.0000 C   0  0  3  0  0  0  0  0  0  0  0  0
    7.1292   -3.0792    0.0000 N   0  0  0  0  0  0  0  0  0  0  0  0
    7.5792   -3.7750    0.0000 O   0  0  0  0  0  0  0  0  0  0  0  0
    3.9542   -1.1375    0.0000 O   0  0  0  0  0  0  0  0  0  0  0  0
    2.4917   -2.7042    0.0000 C   0  0  3  0  0  0  0  0  0  0  0  0
    9.0167   -4.0792    0.0000 C   0  0  0  0  0  0  0  0  0  0  0  0
    6.6375   -1.4292    0.0000 N   0  0  3  0  0  0  0  0  0  0  0  0
    1.6792   -2.7875    0.0000 C   0  0  0  0  0  0  0  0  0  0  0  0
    2.1625   -3.4542    0.0000 C   0  0  0  0  0  0  0  0  0  0  0  0
    6.0542   -2.0125    0.0000 C   0  0  0  0  0  0  0  0  0  0  0  0
    9.8167   -3.8667    0.0000 O   0  0  0  0  0  0  0  0  0  0  0  0
    7.4417   -1.6417    0.0000 C   0  0  0  0  0  0  0  0  0  0  0  0
    8.9792   -4.9042    0.0000 C   0  0  0  0  0  0  0  0  0  0  0  0
   10.2667   -4.5542    0.0000 C   0  0  0  0  0  0  0  0  0  0  0  0
    9.7500   -5.2000    0.0000 C   0  0  0  0  0  0  0  0  0  0  0  0
    5.0417   -1.0000    0.0000 C   0  0  0  0  0  0  0  0  0  0  0  0
    5.5750   -2.5667    0.0000 C   0  0  0  0  0  0  0  0  0  0  0  0
    6.4292   -0.6292    0.0000 C   0  0  0  0  0  0  0  0  0  0  0  0
    5.6292   -0.4250    0.0000 C   0  0  0  0  0  0  0  0  0  0  0  0
  2  6  1  0  0  0  0
  2  3  2  0  0  0  0
  1  4  2  0  0  0  0
  1  5  1  0  0  0  0
  6 19  1  0  0  0  0
  5  7  2  0  0  0  0
  4  8  1  0  0  0  0
  6  9  2  0  0  0  0
  9 10  1  0  0  0  0
  4 11  1  0  0  0  0
  5 12  1  0  0  0  0
  3 13  1  0  0  0  0
 14 17  1  0  0  0  0
 12 15  1  0  0  0  0
 12 16  1  0  0  0  0
  8 17  1  0  0  0  0
 13 18  1  0  0  0  0
 14 19  1  0  0  0  0
 13 20  2  0  0  0  0
 18 21  1  0  0  0  0
 20 22  1  0  0  0  0
  8 23  1  0  0  0  0
  8 24  1  0  0  0  0
 25 26  1  0  0  0  0
 23 26  1  0  0  0  0
  7 11  1  0  0  0  0
 15 16  1  0  0  0  0
 14 25  1  0  0  0  0
  3 10  1  0  0  0  0
 21 22  2  0  0  0  0
M  END
> <MOLFORMULA>
C18 H21 N5 O3

> <MOLWEIGHT>
3.553959000000000e+002

> <IDNUMBER>
AT-687/SK17719

> <PRICE>
EUR 80/10 mg

> <Similarity score>
0.17

$$$$

  -OEChem-04222410502D

 28 32  0     0  0  0  0  0  0999 V2000
    9.5000   -3.0000    0.0000 C   0  0  0  0  0  0  0  0  0  0  0  0
   10.3417   -4.0500    0.0000 C   0  0  0  0  0  0  0  0  0  0  0  0
    8.1917   -3.0000    0.0000 C   0  0  0  0  0  0  0  0  0  0  0  0
   11.6667   -3.9167    0.0000 N   0  0  0  0  0  0  0  0  0  0  0  0
    7.7750   -1.7250    0.0000 N   0  0  3  0  0  0  0  0  0  0  0  0
    9.9250   -1.7417    0.0000 N   0  0  0  0  0  0  0  0  0  0  0  0
    8.8667   -0.9500    0.0000 N   0  0  0  0  0  0  0  0  0  0  0  0
   12.1750   -5.1500    0.0000 C   0  0  0  0  0  0  0  0  0  0  0  0
   10.0500   -5.3417    0.0000 N   0  0  0  0  0  0  0  0  0  0  0  0
   11.1917   -6.0167    0.0000 O   0  0  0  0  0  0  0  0  0  0  0  0
    6.4750   -1.4292    0.0000 C   0  0  0  0  0  0  0  0  0  0  0  0
    7.3000   -3.9750    0.0000 C   0  0  0  0  0  0  0  0  0  0  0  0
    6.0000   -3.6917    0.0000 O   0  0  0  0  0  0  0  0  0  0  0  0
    5.6000   -2.4250    0.0000 C   0  0  3  0  0  0  0  0  0  0  0  0
   13.4667   -5.5167    0.0000 C   0  0  0  0  0  0  0  0  0  0  0  0
    4.3000   -2.1417    0.0000 C   0  0  0  0  0  0  0  0  0  0  0  0
   14.4250   -4.6000    0.0000 N   0  0  0  0  0  0  0  0  0  0  0  0
    3.4000   -3.1167    0.0000 C   0  0  0  0  0  0  0  0  0  0  0  0
    3.8792   -0.8750    0.0000 C   0  0  0  0  0  0  0  0  0  0  0  0
    1.6917   -1.5667    0.0000 C   0  0  0  0  0  0  0  0  0  0  0  0
    2.5917   -0.5750    0.0000 C   0  0  0  0  0  0  0  0  0  0  0  0
    2.1042   -2.8500    0.0000 C   0  0  0  0  0  0  0  0  0  0  0  0
    0.3750   -1.2750    0.0000 O   0  0  0  0  0  0  0  0  0  0  0  0
   15.7000   -4.9750    0.0000 C   0  0  0  0  0  0  0  0  0  0  0  0
   13.7750   -6.8167    0.0000 C   0  0  0  0  0  0  0  0  0  0  0  0
    0.0000   -0.0000    0.0000 C   0  0  0  0  0  0  0  0  0  0  0  0
   16.0042   -6.2750    0.0000 C   0  0  0  0  0  0  0  0  0  0  0  0
   15.0500   -7.1792    0.0000 C   0  0  0  0  0  0  0  0  0  0  0  0
  1  2  1  0  0  0  0
  1  3  2  0  0  0  0
  2  4  1  0  0  0  0
  3  5  1  0  0  0  0
  1  6  1  0  0  0  0
  6  7  2  0  0  0  0
  4  8  2  0  0  0  0
  2  9  2  0  0  0  0
  9 10  1  0  0  0  0
  5 11  1  0  0  0  0
  3 12  1  0  0  0  0
 12 13  1  0  0  0  0
 13 14  1  0  0  0  0
  8 15  1  0  0  0  0
 14 16  1  0  0  0  0
 15 17  1  0  0  0  0
 16 18  2  0  0  0  0
 16 19  1  0  0  0  0
 20 21  1  0  0  0  0
 19 21  2  0  0  0  0
 18 22  1  0  0  0  0
 20 23  1  0  0  0  0
 17 24  2  0  0  0  0
 15 25  2  0  0  0  0
 23 26  1  0  0  0  0
 27 28  2  0  0  0  0
 25 28  1  0  0  0  0
  5  7  1  0  0  0  0
  8 10  1  0  0  0  0
 11 14  1  0  0  0  0
 20 22  2  0  0  0  0
 24 27  1  0  0  0  0
M  END
> <MOLFORMULA>
C19 H16 N6 O3

> <MOLWEIGHT>
3.763744000000000e+002

> <IDNUMBER>
AT-687/PE23614

> <PRICE>
EUR 80/10 mg

> <Similarity score>
0.17

$$$$

  -OEChem-04222410502D

 24 26  0     0  0  0  0  0  0999 V2000
    0.4625    1.9250    0.0000 C   0  0  0  0  0  0  0  0  0  0  0  0
    0.0583    2.8375    0.0000 C   0  0  0  0  0  0  0  0  0  0  0  0
    1.4583    2.0292    0.0000 S   0  0  0  0  0  0  0  0  0  0  0  0
    0.8000    3.5083    0.0000 C   0  0  0  0  0  0  0  0  0  0  0  0
    1.6667    3.0083    0.0000 C   0  0  0  0  0  0  0  0  0  0  0  0
   -1.0375   -2.4042    0.0000 N   0  0  0  0  0  0  0  0  0  0  0  0
    0.4625   -3.2708    0.0000 N   0  0  0  0  0  0  0  0  0  0  0  0
   -0.0375   -2.4042    0.0000 C   0  0  0  0  0  0  0  0  0  0  0  0
   -0.0375    1.0583    0.0000 N   0  0  0  0  0  0  0  0  0  0  0  0
   -0.9208    3.0458    0.0000 C   0  0  0  0  0  0  0  0  0  0  0  0
   -1.5375   -3.2708    0.0000 C   0  0  0  0  0  0  0  0  0  0  0  0
   -0.0375   -4.1375    0.0000 C   0  0  0  0  0  0  0  0  0  0  0  0
   -1.0375   -4.1375    0.0000 C   0  0  0  0  0  0  0  0  0  0  0  0
   -1.2292    3.9958    0.0000 N   0  0  0  0  0  0  0  0  0  0  0  0
    0.4625    0.1917    0.0000 C   0  0  0  0  0  0  0  0  0  0  0  0
    0.4625   -1.5375    0.0000 S   0  0  0  0  0  0  0  0  0  0  0  0
    1.4625    0.1917    0.0000 O   0  0  0  0  0  0  0  0  0  0  0  0
   -0.0375   -0.6750    0.0000 C   0  0  0  0  0  0  0  0  0  0  0  0
   -2.5375   -3.2708    0.0000 N   0  0  0  0  0  0  0  0  0  0  0  0
    0.4625   -5.0042    0.0000 O   0  0  0  0  0  0  0  0  0  0  0  0
    0.8000    4.5042    0.0000 C   0  0  0  0  0  0  0  0  0  0  0  0
    2.5333    3.5083    0.0000 C   0  0  0  0  0  0  0  0  0  0  0  0
    1.6667    5.0042    0.0000 C   0  0  0  0  0  0  0  0  0  0  0  0
    2.5333    4.5042    0.0000 C   0  0  0  0  0  0  0  0  0  0  0  0
  1  2  2  0  0  0  0
  1  3  1  0  0  0  0
  2  4  1  0  0  0  0
  3  5  1  0  0  0  0
  6  8  2  0  0  0  0
  7  8  1  0  0  0  0
  8 16  1  0  0  0  0
  1  9  1  0  0  0  0
  2 10  1  0  0  0  0
  6 11  1  0  0  0  0
  7 12  2  0  0  0  0
 12 13  1  0  0  0  0
 10 14  3  0  0  0  0
  9 15  1  0  0  0  0
 16 18  1  0  0  0  0
 15 17  2  0  0  0  0
 15 18  1  0  0  0  0
 11 19  1  0  0  0  0
 12 20  1  0  0  0  0
  4 21  1  0  0  0  0
  5 22  1  0  0  0  0
 21 23  1  0  0  0  0
 22 24  1  0  0  0  0
  4  5  2  0  0  0  0
 23 24  1  0  0  0  0
 11 13  2  0  0  0  0
M  END
> <MOLFORMULA>
C15 H15 N5 O2 S2

> <MOLWEIGHT>
3.614485000000000e+002

> <IDNUMBER>
AN-153/I189190

> <PRICE>
EUR 130/10 mg

> <Similarity score>
0.17

$$$$

  -OEChem-04222410502D

 30 33  0     0  0  0  0  0  0999 V2000
   -0.9250   -2.9125    0.0000 C   0  0  0  0  0  0  0  0  0  0  0  0
   -0.0583   -3.4125    0.0000 C   0  0  0  0  0  0  0  0  0  0  0  0
   -1.6667   -3.5792    0.0000 S   0  0  0  0  0  0  0  0  0  0  0  0
   -0.2667   -4.3875    0.0000 C   0  0  0  0  0  0  0  0  0  0  0  0
   -1.0292   -1.9167    0.0000 N   0  0  0  0  0  0  0  0  0  0  0  0
   -1.2625   -4.4958    0.0000 C   0  0  0  0  0  0  0  0  0  0  0  0
   -0.2208   -1.3292    0.0000 C   0  0  0  0  0  0  0  0  0  0  0  0
    0.3792    1.2500    0.0000 C   0  0  0  0  0  0  0  0  0  0  0  0
   -0.6375    2.6500    0.0000 N   0  0  0  0  0  0  0  0  0  0  0  0
    0.8542   -3.0042    0.0000 C   0  0  0  0  0  0  0  0  0  0  0  0
   -0.5333    1.6542    0.0000 N   0  0  0  0  0  0  0  0  0  0  0  0
    1.1875    1.8375    0.0000 N   0  0  0  0  0  0  0  0  0  0  0  0
    0.1708    3.2375    0.0000 C   0  0  0  0  0  0  0  0  0  0  0  0
    1.6625   -3.5917    0.0000 N   0  0  0  0  0  0  0  0  0  0  0  0
    0.4833    0.2542    0.0000 S   0  0  0  0  0  0  0  0  0  0  0  0
   -0.3250   -0.3333    0.0000 C   0  0  3  0  0  0  0  0  0  0  0  0
    1.0833    2.8292    0.0000 C   0  0  0  0  0  0  0  0  0  0  0  0
    0.6917   -1.7375    0.0000 O   0  0  0  0  0  0  0  0  0  0  0  0
    0.0667    4.2292    0.0000 C   0  0  0  0  0  0  0  0  0  0  0  0
    0.3208   -5.2000    0.0000 C   0  0  0  0  0  0  0  0  0  0  0  0
   -1.6667   -5.4083    0.0000 C   0  0  0  0  0  0  0  0  0  0  0  0
   -1.2375    0.0708    0.0000 C   0  0  0  0  0  0  0  0  0  0  0  0
   -0.8500    4.6333    0.0000 C   0  0  0  0  0  0  0  0  0  0  0  0
    0.8750    4.8167    0.0000 C   0  0  0  0  0  0  0  0  0  0  0  0
   -0.0875   -6.1125    0.0000 C   0  0  0  0  0  0  0  0  0  0  0  0
   -1.0792   -6.2167    0.0000 C   0  0  0  0  0  0  0  0  0  0  0  0
   -1.3417    1.0667    0.0000 C   0  0  0  0  0  0  0  0  0  0  0  0
   -0.9542    5.6292    0.0000 C   0  0  0  0  0  0  0  0  0  0  0  0
    0.7708    5.8083    0.0000 C   0  0  0  0  0  0  0  0  0  0  0  0
   -0.1458    6.2167    0.0000 C   0  0  0  0  0  0  0  0  0  0  0  0
  1  2  2  0  0  0  0
  1  3  1  0  0  0  0
  2  4  1  0  0  0  0
  1  5  1  0  0  0  0
  3  6  1  0  0  0  0
  5  7  1  0  0  0  0
  8 15  1  0  0  0  0
  9 11  1  0  0  0  0
  2 10  1  0  0  0  0
  8 11  2  0  0  0  0
  8 12  1  0  0  0  0
 13 17  1  0  0  0  0
 10 14  3  0  0  0  0
 15 16  1  0  0  0  0
  7 16  1  0  0  0  0
 12 17  2  0  0  0  0
  7 18  2  0  0  0  0
 13 19  1  0  0  0  0
  4 20  1  0  0  0  0
  6 21  1  0  0  0  0
 16 22  1  0  0  0  0
 19 23  2  0  0  0  0
 19 24  1  0  0  0  0
 20 25  1  0  0  0  0
 21 26  1  0  0  0  0
 22 27  1  0  0  0  0
 23 28  1  0  0  0  0
 24 29  2  0  0  0  0
 29 30  1  0  0  0  0
  4  6  2  0  0  0  0
 25 26  1  0  0  0  0
  9 13  2  0  0  0  0
 28 30  2  0  0  0  0
M  END
> <MOLFORMULA>
C22 H21 N5 O S2

> <MOLWEIGHT>
4.355739000000000e+002

> <IDNUMBER>
AN-153/I283643

> <PRICE>
EUR 130/10 mg

> <Similarity score>
0.17

$$$$

  -OEChem-04222410502D

 23 25  0     0  0  0  0  0  0999 V2000
    1.5250    1.2667    0.0000 C   0  0  0  0  0  0  0  0  0  0  0  0
    2.5208    1.3708    0.0000 C   0  0  0  0  0  0  0  0  0  0  0  0
    1.1167    2.1792    0.0000 S   0  0  0  0  0  0  0  0  0  0  0  0
    2.7292    2.3500    0.0000 C   0  0  0  0  0  0  0  0  0  0  0  0
    1.0250    0.4000    0.0000 N   0  0  0  0  0  0  0  0  0  0  0  0
    1.8625    2.8500    0.0000 C   0  0  0  0  0  0  0  0  0  0  0  0
    0.0250    0.4000    0.0000 C   0  0  0  0  0  0  0  0  0  0  0  0
    3.1875    0.6292    0.0000 C   0  0  0  0  0  0  0  0  0  0  0  0
   -0.4750   -0.4667    0.0000 C   0  0  0  0  0  0  0  0  0  0  0  0
    2.8792   -0.3208    0.0000 N   0  0  0  0  0  0  0  0  0  0  0  0
   -1.4750   -0.4667    0.0000 C   0  0  0  0  0  0  0  0  0  0  0  0
    0.0250   -1.3292    0.0000 C   0  0  0  0  0  0  0  0  0  0  0  0
   -0.4750    1.2667    0.0000 O   0  0  0  0  0  0  0  0  0  0  0  0
   -1.4750   -2.1958    0.0000 C   0  0  0  0  0  0  0  0  0  0  0  0
   -1.9750   -1.3292    0.0000 C   0  0  0  0  0  0  0  0  0  0  0  0
   -0.4750   -2.1958    0.0000 C   0  0  0  0  0  0  0  0  0  0  0  0
    3.4708    3.0208    0.0000 C   0  0  0  0  0  0  0  0  0  0  0  0
    2.0708    3.8292    0.0000 C   0  0  0  0  0  0  0  0  0  0  0  0
    0.0250   -3.0625    0.0000 O   0  0  0  0  0  0  0  0  0  0  0  0
   -2.9750   -1.3292    0.0000 O   0  0  0  0  0  0  0  0  0  0  0  0
    3.0625    3.9333    0.0000 C   0  0  0  0  0  0  0  0  0  0  0  0
   -0.4750   -3.9292    0.0000 C   0  0  0  0  0  0  0  0  0  0  0  0
   -3.4750   -2.1958    0.0000 C   0  0  0  0  0  0  0  0  0  0  0  0
  1  2  2  0  0  0  0
  1  3  1  0  0  0  0
  2  4  1  0  0  0  0
  1  5  1  0  0  0  0
  3  6  1  0  0  0  0
  5  7  1  0  0  0  0
  2  8  1  0  0  0  0
  7  9  1  0  0  0  0
  8 10  3  0  0  0  0
  9 11  2  0  0  0  0
  9 12  1  0  0  0  0
  7 13  2  0  0  0  0
 14 16  1  0  0  0  0
 11 15  1  0  0  0  0
 12 16  2  0  0  0  0
  4 17  1  0  0  0  0
  6 18  1  0  0  0  0
 16 19  1  0  0  0  0
 15 20  1  0  0  0  0
 18 21  1  0  0  0  0
 19 22  1  0  0  0  0
 20 23  1  0  0  0  0
  4  6  2  0  0  0  0
 17 21  1  0  0  0  0
 14 15  2  0  0  0  0
M  END
> <MOLFORMULA>
C17 H16 N2 O3 S

> <MOLWEIGHT>
3.283904000000000e+002

> <IDNUMBER>
AN-153/I226312

> <PRICE>
EUR 130/10 mg

> <Similarity score>
0.17

$$$$

  -OEChem-04222410502D

 24 27  0     0  0  0  0  0  0999 V2000
    3.6750   -3.3000    0.0000 N   0  0  0  0  0  0  0  0  0  0  0  0
    4.4500   -2.2250    0.0000 C   0  0  0  0  0  0  0  0  0  0  0  0
    2.4042   -2.8792    0.0000 C   0  0  0  0  0  0  0  0  0  0  0  0
    5.7792   -2.2250    0.0000 C   0  0  3  0  0  0  0  0  0  0  0  0
    2.4042   -1.5542    0.0000 N   0  0  0  0  0  0  0  0  0  0  0  0
    8.0042   -1.6292    0.0000 N   0  0  3  0  0  0  0  0  0  0  0  0
    3.6750   -1.1500    0.0000 O   0  0  0  0  0  0  0  0  0  0  0  0
    1.3250   -3.6750    0.0000 C   0  0  3  0  0  0  0  0  0  0  0  0
    9.2792   -1.9750    0.0000 C   0  0  0  0  0  0  0  0  0  0  0  0
    7.0542   -2.5542    0.0000 C   0  0  0  0  0  0  0  0  0  0  0  0
    0.8000   -4.8792    0.0000 C   0  0  0  0  0  0  0  0  0  0  0  0
    0.0000   -3.8042    0.0000 C   0  0  0  0  0  0  0  0  0  0  0  0
   10.2292   -1.0292    0.0000 O   0  0  0  0  0  0  0  0  0  0  0  0
    9.6292   -3.2542    0.0000 C   0  0  0  0  0  0  0  0  0  0  0  0
    5.4292   -0.9292    0.0000 C   0  0  0  0  0  0  0  0  0  0  0  0
    6.3000   -3.4542    0.0000 C   0  0  0  0  0  0  0  0  0  0  0  0
    7.6542   -0.3292    0.0000 C   0  0  0  0  0  0  0  0  0  0  0  0
   10.9250   -3.6042    0.0000 C   0  0  0  0  0  0  0  0  0  0  0  0
    6.3792   -0.0000    0.0000 C   0  0  0  0  0  0  0  0  0  0  0  0
   11.2750   -4.8792    0.0000 C   0  0  3  0  0  0  0  0  0  0  0  0
   12.5000   -5.3750    0.0000 C   0  0  0  0  0  0  0  0  0  0  0  0
   10.4250   -5.9250    0.0000 C   0  0  0  0  0  0  0  0  0  0  0  0
   11.1500   -7.0292    0.0000 C   0  0  0  0  0  0  0  0  0  0  0  0
   12.4292   -6.6792    0.0000 C   0  0  0  0  0  0  0  0  0  0  0  0
  1  2  2  0  0  0  0
  1  3  1  0  0  0  0
  2  4  1  0  0  0  0
  3  5  2  0  0  0  0
  6 10  1  0  0  0  0
  2  7  1  0  0  0  0
  3  8  1  0  0  0  0
  6  9  1  0  0  0  0
  4 10  1  0  0  0  0
  8 11  1  0  0  0  0
  8 12  1  0  0  0  0
  9 13  2  0  0  0  0
  9 14  1  0  0  0  0
  4 15  1  0  0  0  0
  4 16  1  0  0  0  0
 17 19  1  0  0  0  0
 14 18  1  0  0  0  0
 15 19  1  0  0  0  0
 18 20  1  0  0  0  0
 20 21  1  0  0  0  0
 20 22  1  0  0  0  0
 22 23  1  0  0  0  0
 21 24  1  0  0  0  0
  5  7  1  0  0  0  0
 11 12  1  0  0  0  0
  6 17  1  0  0  0  0
 23 24  1  0  0  0  0
M  END
> <MOLFORMULA>
C19 H29 N3 O2

> <MOLWEIGHT>
3.314571000000000e+002

> <IDNUMBER>
AT-687/PE19313

> <PRICE>
EUR 80/10 mg

> <Similarity score>
0.17

$$$$

  -OEChem-04222410502D

 23 25  0     0  0  0  0  0  0999 V2000
   -0.2250    2.0125    0.0000 C   0  0  0  0  0  0  0  0  0  0  0  0
    0.4750    2.7250    0.0000 C   0  0  0  0  0  0  0  0  0  0  0  0
    0.2375    1.1250    0.0000 S   0  0  0  0  0  0  0  0  0  0  0  0
    1.3708    2.2792    0.0000 C   0  0  0  0  0  0  0  0  0  0  0  0
   -1.2125    2.1583    0.0000 N   0  0  0  0  0  0  0  0  0  0  0  0
    1.2250    1.2917    0.0000 C   0  0  0  0  0  0  0  0  0  0  0  0
   -1.8333    1.3750    0.0000 C   0  0  0  0  0  0  0  0  0  0  0  0
    0.3125    3.7125    0.0000 C   0  0  0  0  0  0  0  0  0  0  0  0
   -0.6250    4.0583    0.0000 N   0  0  0  0  0  0  0  0  0  0  0  0
   -1.4708    0.4458    0.0000 C   0  0  0  0  0  0  0  0  0  0  0  0
   -2.8250    1.5250    0.0000 O   0  0  0  0  0  0  0  0  0  0  0  0
   -0.4792    0.3000    0.0000 C   0  0  0  0  0  0  0  0  0  0  0  0
   -2.0917   -0.3375    0.0000 C   0  0  0  0  0  0  0  0  0  0  0  0
   -0.3708   -2.3458    0.0000 O   0  0  0  0  0  0  0  0  0  0  0  0
   -0.7375   -1.4125    0.0000 C   0  0  0  0  0  0  0  0  0  0  0  0
    2.3583    2.4458    0.0000 C   0  0  0  0  0  0  0  0  0  0  0  0
    2.1208    0.8458    0.0000 C   0  0  0  0  0  0  0  0  0  0  0  0
   -1.7250   -1.2667    0.0000 C   0  0  0  0  0  0  0  0  0  0  0  0
   -0.1125   -0.6333    0.0000 C   0  0  0  0  0  0  0  0  0  0  0  0
    2.8208    1.5583    0.0000 C   0  0  0  0  0  0  0  0  0  0  0  0
   -0.9917   -3.1292    0.0000 C   0  0  3  0  0  0  0  0  0  0  0  0
   -0.6250   -4.0583    0.0000 C   0  0  0  0  0  0  0  0  0  0  0  0
   -1.9792   -2.9792    0.0000 C   0  0  0  0  0  0  0  0  0  0  0  0
  1  2  2  0  0  0  0
  1  3  1  0  0  0  0
  2  4  1  0  0  0  0
  1  5  1  0  0  0  0
  3  6  1  0  0  0  0
  5  7  1  0  0  0  0
  2  8  1  0  0  0  0
  8  9  3  0  0  0  0
  7 10  1  0  0  0  0
  7 11  2  0  0  0  0
 10 12  2  0  0  0  0
 10 13  1  0  0  0  0
 14 15  1  0  0  0  0
 15 18  1  0  0  0  0
  4 16  1  0  0  0  0
  6 17  1  0  0  0  0
 13 18  2  0  0  0  0
 12 19  1  0  0  0  0
 17 20  1  0  0  0  0
 14 21  1  0  0  0  0
 21 22  1  0  0  0  0
 21 23  1  0  0  0  0
  4  6  2  0  0  0  0
 16 20  1  0  0  0  0
 15 19  2  0  0  0  0
M  END
> <MOLFORMULA>
C18 H18 N2 O2 S

> <MOLWEIGHT>
3.264182000000000e+002

> <IDNUMBER>
AN-153/I224141

> <PRICE>
EUR 130/10 mg

> <Similarity score>
0.17

$$$$

  -OEChem-04222410502D

 25 28  0     0  0  0  0  0  0999 V2000
    3.6500   -1.5750    0.0000 N   0  0  0  0  0  0  0  0  0  0  0  0
    4.4417   -2.6500    0.0000 C   0  0  0  0  0  0  0  0  0  0  0  0
    2.3917   -1.9917    0.0000 C   0  0  0  0  0  0  0  0  0  0  0  0
    5.7667   -2.6500    0.0000 C   0  0  3  0  0  0  0  0  0  0  0  0
    7.9792   -3.2500    0.0000 N   0  0  3  0  0  0  0  0  0  0  0  0
    2.3917   -3.3167    0.0000 N   0  0  0  0  0  0  0  0  0  0  0  0
    9.2667   -2.9000    0.0000 C   0  0  0  0  0  0  0  0  0  0  0  0
    3.6500   -3.7292    0.0000 O   0  0  0  0  0  0  0  0  0  0  0  0
    1.3250   -1.2000    0.0000 C   0  0  3  0  0  0  0  0  0  0  0  0
    7.0500   -2.3000    0.0000 C   0  0  0  0  0  0  0  0  0  0  0  0
   10.2000   -3.8500    0.0000 C   0  0  0  0  0  0  0  0  0  0  0  0
    0.0000   -1.0667    0.0000 C   0  0  0  0  0  0  0  0  0  0  0  0
    0.7750   -0.0000    0.0000 C   0  0  0  0  0  0  0  0  0  0  0  0
    9.8667   -5.1250    0.0000 C   0  0  0  0  0  0  0  0  0  0  0  0
   10.8000   -6.0667    0.0000 C   0  0  0  0  0  0  0  0  0  0  0  0
   12.0750   -5.7250    0.0000 C   0  0  0  0  0  0  0  0  0  0  0  0
    9.6167   -1.6250    0.0000 O   0  0  0  0  0  0  0  0  0  0  0  0
   11.4750   -3.5000    0.0000 C   0  0  0  0  0  0  0  0  0  0  0  0
   12.4250   -4.4417    0.0000 C   0  0  0  0  0  0  0  0  0  0  0  0
   10.4500   -7.3500    0.0000 F   0  0  0  0  0  0  0  0  0  0  0  0
    7.6500   -4.5250    0.0000 C   0  0  0  0  0  0  0  0  0  0  0  0
    5.4167   -3.9250    0.0000 C   0  0  0  0  0  0  0  0  0  0  0  0
   13.0250   -6.6667    0.0000 F   0  0  0  0  0  0  0  0  0  0  0  0
    6.2750   -1.4167    0.0000 C   0  0  0  0  0  0  0  0  0  0  0  0
    6.3500   -4.8792    0.0000 C   0  0  0  0  0  0  0  0  0  0  0  0
  1  2  2  0  0  0  0
  1  3  1  0  0  0  0
  2  4  1  0  0  0  0
  5 10  1  0  0  0  0
  3  6  2  0  0  0  0
  5  7  1  0  0  0  0
  2  8  1  0  0  0  0
  3  9  1  0  0  0  0
  4 10  1  0  0  0  0
  7 11  1  0  0  0  0
  9 12  1  0  0  0  0
  9 13  1  0  0  0  0
 11 14  2  0  0  0  0
 14 15  1  0  0  0  0
 16 19  1  0  0  0  0
  7 17  2  0  0  0  0
 11 18  1  0  0  0  0
 18 19  2  0  0  0  0
 15 20  1  0  0  0  0
 21 25  1  0  0  0  0
  4 22  1  0  0  0  0
 16 23  1  0  0  0  0
  4 24  1  0  0  0  0
 22 25  1  0  0  0  0
  6  8  1  0  0  0  0
 12 13  1  0  0  0  0
  5 21  1  0  0  0  0
 15 16  2  0  0  0  0
M  END
> <MOLFORMULA>
C18 H19 F2 N3 O2

> <MOLWEIGHT>
3.473631000000000e+002

> <IDNUMBER>
AT-687/PE19314

> <PRICE>
EUR 80/10 mg

> <Similarity score>
0.17

$$$$

  -OEChem-04222410502D

 27 30  0     0  0  0  0  0  0999 V2000
   -3.3958   -0.1125    0.0000 C   0  0  0  0  0  0  0  0  0  0  0  0
   -3.9875   -0.9208    0.0000 C   0  0  0  0  0  0  0  0  0  0  0  0
   -3.9875    0.6958    0.0000 S   0  0  0  0  0  0  0  0  0  0  0  0
   -4.9375   -0.6125    0.0000 C   0  0  0  0  0  0  0  0  0  0  0  0
    0.6042    1.6208    0.0000 C   0  0  0  0  0  0  0  0  0  0  0  0
    1.1917    2.4292    0.0000 N   0  0  0  0  0  0  0  0  0  0  0  0
   -4.9375    0.3875    0.0000 C   0  0  0  0  0  0  0  0  0  0  0  0
    1.1917    0.8125    0.0000 S   0  0  0  0  0  0  0  0  0  0  0  0
   -2.3958   -0.1125    0.0000 N   0  0  0  0  0  0  0  0  0  0  0  0
    2.1417    1.1208    0.0000 C   0  0  0  0  0  0  0  0  0  0  0  0
   -3.6750   -1.8708    0.0000 C   0  0  0  0  0  0  0  0  0  0  0  0
    2.1417    2.1208    0.0000 C   0  0  0  0  0  0  0  0  0  0  0  0
   -4.3458   -2.6167    0.0000 N   0  0  0  0  0  0  0  0  0  0  0  0
   -1.8958    0.7542    0.0000 C   0  0  0  0  0  0  0  0  0  0  0  0
    3.0083    0.6208    0.0000 C   0  0  0  0  0  0  0  0  0  0  0  0
   -0.3958    1.6208    0.0000 S   0  0  0  0  0  0  0  0  0  0  0  0
   -2.3958    1.6208    0.0000 O   0  0  0  0  0  0  0  0  0  0  0  0
    3.0083    2.6208    0.0000 C   0  0  0  0  0  0  0  0  0  0  0  0
   -0.8958    0.7542    0.0000 C   0  0  0  0  0  0  0  0  0  0  0  0
    3.8750    1.1208    0.0000 C   0  0  0  0  0  0  0  0  0  0  0  0
   -5.8875   -0.9208    0.0000 C   0  0  0  0  0  0  0  0  0  0  0  0
   -5.8875    0.6958    0.0000 C   0  0  0  0  0  0  0  0  0  0  0  0
    3.8750    2.1208    0.0000 C   0  0  0  0  0  0  0  0  0  0  0  0
    4.7375    0.6208    0.0000 O   0  0  0  0  0  0  0  0  0  0  0  0
   -6.4708   -0.1125    0.0000 C   0  0  0  0  0  0  0  0  0  0  0  0
    5.6042    1.1208    0.0000 C   0  0  0  0  0  0  0  0  0  0  0  0
    6.4708    0.6208    0.0000 C   0  0  0  0  0  0  0  0  0  0  0  0
  1  2  2  0  0  0  0
  1  3  1  0  0  0  0
  2  4  1  0  0  0  0
  5 16  1  0  0  0  0
  5  6  2  0  0  0  0
  3  7  1  0  0  0  0
  5  8  1  0  0  0  0
  1  9  1  0  0  0  0
  8 10  1  0  0  0  0
  2 11  1  0  0  0  0
  6 12  1  0  0  0  0
 11 13  3  0  0  0  0
  9 14  1  0  0  0  0
 10 15  2  0  0  0  0
 16 19  1  0  0  0  0
 14 17  2  0  0  0  0
 12 18  2  0  0  0  0
 14 19  1  0  0  0  0
 15 20  1  0  0  0  0
  4 21  1  0  0  0  0
  7 22  1  0  0  0  0
 18 23  1  0  0  0  0
 20 24  1  0  0  0  0
 22 25  1  0  0  0  0
 24 26  1  0  0  0  0
 26 27  1  0  0  0  0
  4  7  2  0  0  0  0
 21 25  1  0  0  0  0
 10 12  1  0  0  0  0
 20 23  2  0  0  0  0
M  END
> <MOLFORMULA>
C19 H17 N3 O2 S3

> <MOLWEIGHT>
4.155603000000000e+002

> <IDNUMBER>
AN-153/I184185

> <PRICE>
EUR 130/10 mg

> <Similarity score>
0.17

$$$$

  -OEChem-04222410502D

 24 26  0     0  0  0  0  0  0999 V2000
    0.7125    1.4917    0.0000 C   0  0  0  0  0  0  0  0  0  0  0  0
    0.3042    2.4042    0.0000 C   0  0  0  0  0  0  0  0  0  0  0  0
    1.7083    1.5958    0.0000 S   0  0  0  0  0  0  0  0  0  0  0  0
    1.0500    3.0750    0.0000 C   0  0  0  0  0  0  0  0  0  0  0  0
    0.2125    0.6250    0.0000 N   0  0  0  0  0  0  0  0  0  0  0  0
    1.9167    2.5750    0.0000 C   0  0  0  0  0  0  0  0  0  0  0  0
    0.7125   -0.2417    0.0000 C   0  0  0  0  0  0  0  0  0  0  0  0
   -0.6708    2.6125    0.0000 C   0  0  0  0  0  0  0  0  0  0  0  0
    0.2125   -1.1042    0.0000 C   0  0  0  0  0  0  0  0  0  0  0  0
   -1.3417    1.8708    0.0000 N   0  0  0  0  0  0  0  0  0  0  0  0
    0.7125   -1.9708    0.0000 C   0  0  0  0  0  0  0  0  0  0  0  0
   -0.7875   -1.1083    0.0000 C   0  0  0  0  0  0  0  0  0  0  0  0
    1.7125   -0.2417    0.0000 O   0  0  0  0  0  0  0  0  0  0  0  0
   -0.7875   -2.8375    0.0000 C   0  0  0  0  0  0  0  0  0  0  0  0
    0.2125   -2.8375    0.0000 C   0  0  0  0  0  0  0  0  0  0  0  0
   -1.2875   -1.9708    0.0000 C   0  0  0  0  0  0  0  0  0  0  0  0
    1.0500    4.0708    0.0000 C   0  0  0  0  0  0  0  0  0  0  0  0
    2.7833    3.0750    0.0000 C   0  0  0  0  0  0  0  0  0  0  0  0
   -2.2875   -1.9708    0.0000 O   0  0  0  0  0  0  0  0  0  0  0  0
    0.7125   -3.7042    0.0000 O   0  0  0  0  0  0  0  0  0  0  0  0
   -2.7875   -2.8375    0.0000 C   0  0  0  0  0  0  0  0  0  0  0  0
    0.2125   -4.5708    0.0000 C   0  0  0  0  0  0  0  0  0  0  0  0
    1.9167    4.5708    0.0000 C   0  0  0  0  0  0  0  0  0  0  0  0
    2.7833    4.0708    0.0000 C   0  0  0  0  0  0  0  0  0  0  0  0
  1  2  2  0  0  0  0
  1  3  1  0  0  0  0
  2  4  1  0  0  0  0
  1  5  1  0  0  0  0
  3  6  1  0  0  0  0
  5  7  1  0  0  0  0
  2  8  1  0  0  0  0
  7  9  1  0  0  0  0
  8 10  3  0  0  0  0
  9 11  2  0  0  0  0
  9 12  1  0  0  0  0
  7 13  2  0  0  0  0
 14 16  1  0  0  0  0
 11 15  1  0  0  0  0
 12 16  2  0  0  0  0
  4 17  1  0  0  0  0
  6 18  1  0  0  0  0
 16 19  1  0  0  0  0
 15 20  1  0  0  0  0
 19 21  1  0  0  0  0
 20 22  1  0  0  0  0
 17 23  1  0  0  0  0
 18 24  1  0  0  0  0
  4  6  2  0  0  0  0
 23 24  1  0  0  0  0
 14 15  2  0  0  0  0
M  END
> <MOLFORMULA>
C18 H18 N2 O3 S

> <MOLWEIGHT>
3.424172000000000e+002

> <IDNUMBER>
AN-153/I176664

> <PRICE>
EUR 130/10 mg

> <Similarity score>
0.17

$$$$

  -OEChem-04222410502D

 23 26  0     0  0  0  0  0  0999 V2000
    3.6667   -3.3000    0.0000 N   0  0  0  0  0  0  0  0  0  0  0  0
    4.4417   -2.2167    0.0000 C   0  0  0  0  0  0  0  0  0  0  0  0
    2.4000   -2.8750    0.0000 C   0  0  0  0  0  0  0  0  0  0  0  0
    5.7667   -2.2167    0.0000 C   0  0  3  0  0  0  0  0  0  0  0  0
    2.4000   -1.5500    0.0000 N   0  0  0  0  0  0  0  0  0  0  0  0
    8.0000   -1.6250    0.0000 N   0  0  3  0  0  0  0  0  0  0  0  0
    3.6667   -1.1417    0.0000 O   0  0  0  0  0  0  0  0  0  0  0  0
    9.2792   -1.9667    0.0000 C   0  0  0  0  0  0  0  0  0  0  0  0
    1.3167   -3.6667    0.0000 C   0  0  3  0  0  0  0  0  0  0  0  0
    7.0500   -2.5667    0.0000 C   0  0  0  0  0  0  0  0  0  0  0  0
    0.7667   -4.8750    0.0000 C   0  0  0  0  0  0  0  0  0  0  0  0
    0.0000   -3.8250    0.0000 C   0  0  0  0  0  0  0  0  0  0  0  0
    9.6417   -3.2500    0.0000 C   0  0  0  0  0  0  0  0  0  0  0  0
   10.2417   -1.0250    0.0000 O   0  0  0  0  0  0  0  0  0  0  0  0
    5.4250   -0.9292    0.0000 C   0  0  0  0  0  0  0  0  0  0  0  0
    6.2750   -3.4417    0.0000 C   0  0  0  0  0  0  0  0  0  0  0  0
    7.6500   -0.3292    0.0000 C   0  0  0  0  0  0  0  0  0  0  0  0
   10.9167   -3.6000    0.0000 C   0  0  3  0  0  0  0  0  0  0  0  0
    6.3750   -0.0000    0.0000 C   0  0  0  0  0  0  0  0  0  0  0  0
   11.4000   -4.8417    0.0000 C   0  0  0  0  0  0  0  0  0  0  0  0
   11.9500   -2.7667    0.0000 C   0  0  0  0  0  0  0  0  0  0  0  0
   13.0542   -3.4792    0.0000 C   0  0  0  0  0  0  0  0  0  0  0  0
   12.7292   -4.7750    0.0000 C   0  0  0  0  0  0  0  0  0  0  0  0
  1  2  2  0  0  0  0
  1  3  1  0  0  0  0
  2  4  1  0  0  0  0
  3  5  2  0  0  0  0
  6 10  1  0  0  0  0
  2  7  1  0  0  0  0
  6  8  1  0  0  0  0
  3  9  1  0  0  0  0
  4 10  1  0  0  0  0
  9 11  1  0  0  0  0
  9 12  1  0  0  0  0
  8 13  1  0  0  0  0
  8 14  2  0  0  0  0
  4 15  1  0  0  0  0
  4 16  1  0  0  0  0
 17 19  1  0  0  0  0
 13 18  1  0  0  0  0
 15 19  1  0  0  0  0
 18 20  1  0  0  0  0
 18 21  1  0  0  0  0
 21 22  1  0  0  0  0
 20 23  1  0  0  0  0
  5  7  1  0  0  0  0
 11 12  1  0  0  0  0
  6 17  1  0  0  0  0
 22 23  1  0  0  0  0
M  END
> <MOLFORMULA>
C18 H27 N3 O2

> <MOLWEIGHT>
3.174303000000000e+002

> <IDNUMBER>
AT-687/PE19319

> <PRICE>
EUR 80/10 mg

> <Similarity score>
0.17

$$$$
