2-amino-5,6-dihydro-4H-cyclopenta[b]thiophene-3-carbonitrile
  -OEChem-04222410502D

 11 12  0     0  0  0  0  0  0999 V2000
    0.6813   -0.0354    0.0000 C   0  0  0  0  0  0  0  0  0  0  0  0
    0.9841   -0.9894    0.0000 C   0  0  0  0  0  0  0  0  0  0  0  0
   -0.3181   -0.0354    0.0000 C   0  0  0  0  0  0  0  0  0  0  0  0
    0.1766   -1.5748    0.0000 S   0  0  0  0  0  0  0  0  0  0  0  0
   -0.6260   -0.9894    0.0000 C   0  0  0  0  0  0  0  0  0  0  0  0
    1.2667    0.7673    0.0000 C   0  0  0  0  0  0  0  0  0  0  0  0
    1.8575    1.5748    0.0000 N   0  0  0  0  0  0  0  0  0  0  0  0
    1.9382   -1.3022    0.0000 N   0  0  0  0  0  0  0  0  0  0  0  0
   -1.1258    0.5552    0.0000 C   0  0  0  0  0  0  0  0  0  0  0  0
   -1.6254   -0.9894    0.0000 C   0  0  0  0  0  0  0  0  0  0  0  0
   -1.9382   -0.0354    0.0000 C   0  0  0  0  0  0  0  0  0  0  0  0
  1  2  2  0  0  0  0
  1  3  1  0  0  0  0
  2  4  1  0  0  0  0
  3  5  2  0  0  0  0
  4  5  1  0  0  0  0
  1  6  1  0  0  0  0
  6  7  3  0  0  0  0
  2  8  1  0  0  0  0
  3  9  1  0  0  0  0
  5 10  1  0  0  0  0
  9 11  1  0  0  0  0
 10 11  1  0  0  0  0
M  END
> <IDNUMBER>
R052-2295

> <available>
1082

> <H_acceptor>
1

> <H_donor>
2

> <B_rotN>
1

> <N_O>
2

> <logP>
1.736

> <logD>
1.736

> <logSw>
-1.8508

> <PSA>
38.857

> <pKa_ma>
15.973

> <pKa_mb>
-1.8136

> <N_Chirals>
0

> <Name>
2-amino-5,6-dihydro-4H-cyclopenta[b]thiophene-3-carbonitrile

> <Smile>
Nc(sc1c2CCC1)c2C#N

> <Color>
ORANGE

> <Collection>
NC

> <InChI>
InChI=1S/C8H8N2S/c9-4-6-5-2-1-3-7(5)11-8(6)10/h1-3,10H2

> <InChI Key>
RILAXFOADRDGPQ-UHFFFAOYSA-N

> <PERCENTSP3>
37.5

> <Link>
https://www.chemdiv.com/catalog/screening-compounds/compound-R052-2295/

> <MFCDNUMBER>
MFCD00121495

> <STEREO>
ACHIRAL

> <State>
Solid

> <Similarity score>
0.21

$$$$
N-(3-cyano-6-methyl-4,5,6,7-tetrahydro-1-benzothiophen-2-yl)-4-[3-(4-methoxyphen
  -OEChem-04222410502D

 31 34  0     0  0  0  0  0  0999 V2000
    2.5373    2.0664    0.0000 C   0  0  0  0  0  0  0  0  0  0  0  0
    2.7498    1.0665    0.0000 C   0  0  0  0  0  0  0  0  0  0  0  0
    3.7247    0.9666    0.0000 C   0  0  0  0  0  0  0  0  0  0  0  0
    4.1372    1.8915    0.0000 C   0  0  0  0  0  0  0  0  0  0  0  0
    3.3998    2.5415    0.0000 S   0  0  0  0  0  0  0  0  0  0  0  0
   -1.5582   -0.9207    0.0000 N   0  0  0  0  0  0  0  0  0  0  0  0
   -2.1749   -1.7080    0.0000 C   0  0  0  0  0  0  0  0  0  0  0  0
   -1.6083   -2.5415    0.0000 N   0  0  0  0  0  0  0  0  0  0  0  0
    1.6166    2.4665    0.0000 N   0  0  0  0  0  0  0  0  0  0  0  0
    2.0666    0.3165    0.0000 C   0  0  0  0  0  0  0  0  0  0  0  0
   -0.6207   -1.2538    0.0000 C   0  0  0  0  0  0  0  0  0  0  0  0
   -0.6500   -2.2663    0.0000 O   0  0  0  0  0  0  0  0  0  0  0  0
    1.3916   -0.4290    0.0000 N   0  0  0  0  0  0  0  0  0  0  0  0
    4.2996    0.1544    0.0000 C   0  0  0  0  0  0  0  0  0  0  0  0
    0.8166    1.8915    0.0000 C   0  0  0  0  0  0  0  0  0  0  0  0
   -3.1872   -1.6914    0.0000 C   0  0  0  0  0  0  0  0  0  0  0  0
    5.1371    1.9793    0.0000 C   0  0  0  0  0  0  0  0  0  0  0  0
   -0.0750    2.2790    0.0000 O   0  0  0  0  0  0  0  0  0  0  0  0
   -3.7080   -2.5415    0.0000 C   0  0  0  0  0  0  0  0  0  0  0  0
   -3.6705   -0.8040    0.0000 C   0  0  0  0  0  0  0  0  0  0  0  0
    5.2913    0.2415    0.0000 C   0  0  0  0  0  0  0  0  0  0  0  0
   -5.1953   -1.6288    0.0000 C   0  0  0  0  0  0  0  0  0  0  0  0
   -4.6829   -0.7833    0.0000 C   0  0  0  0  0  0  0  0  0  0  0  0
   -4.7204   -2.5206    0.0000 C   0  0  0  0  0  0  0  0  0  0  0  0
    5.7038    1.1585    0.0000 C   0  0  3  0  0  0  0  0  0  0  0  0
    0.1917   -0.6708    0.0000 C   0  0  0  0  0  0  0  0  0  0  0  0
   -6.1871   -1.5913    0.0000 O   0  0  0  0  0  0  0  0  0  0  0  0
    0.9167    0.9165    0.0000 C   0  0  0  0  0  0  0  0  0  0  0  0
    0.1041    0.3291    0.0000 C   0  0  0  0  0  0  0  0  0  0  0  0
   -6.7037   -2.4456    0.0000 C   0  0  0  0  0  0  0  0  0  0  0  0
    6.7037    1.2540    0.0000 C   0  0  0  0  0  0  0  0  0  0  0  0
  1  2  2  0  0  0  0
  2  3  1  0  0  0  0
  4  5  1  0  0  0  0
  3  4  2  0  0  0  0
  1  5  1  0  0  0  0
  6 11  2  0  0  0  0
  6  7  1  0  0  0  0
  8 12  1  0  0  0  0
  7  8  2  0  0  0  0
  1  9  1  0  0  0  0
  2 10  1  0  0  0  0
 11 26  1  0  0  0  0
 11 12  1  0  0  0  0
 10 13  3  0  0  0  0
  3 14  1  0  0  0  0
  9 15  1  0  0  0  0
  7 16  1  0  0  0  0
  4 17  1  0  0  0  0
 15 18  2  0  0  0  0
 16 19  2  0  0  0  0
 16 20  1  0  0  0  0
 14 21  1  0  0  0  0
 22 23  1  0  0  0  0
 20 23  2  0  0  0  0
 19 24  1  0  0  0  0
 22 24  2  0  0  0  0
 17 25  1  0  0  0  0
 21 25  1  0  0  0  0
 26 29  1  0  0  0  0
 22 27  1  0  0  0  0
 15 28  1  0  0  0  0
 28 29  1  0  0  0  0
 27 30  1  0  0  0  0
 25 31  1  0  0  0  0
M  END
> <IDNUMBER>
D321-0807

> <available>
128

> <H_acceptor>
7

> <H_donor>
1

> <B_rotN>
9

> <N_O>
7

> <logP>
4.8665

> <logD>
3.5533

> <logSw>
-4.7326

> <PSA>
78.774

> <pKa_ma>
6.1085

> <pKa_mb>
-4.0588

> <N_Chirals>
1

> <Name>
N-(3-cyano-6-methyl-4,5,6,7-tetrahydro-1-benzothiophen-2-yl)-4-[3-(4-methoxyphenyl)-1,2,4-oxadiazol-5-yl]butanamide

> <Smile>
CC(CC1)Cc2c1c(C#N)c(NC(CCCc1nc(-c(cc3)ccc3OC)no1)=O)s2

> <Color>
ORANGE

> <Collection>
DC

> <InChI>
InChI=1S/C23H24N4O3S/c1-14-6-11-17-18(13-24)23(31-19(17)12-14)25-20(28)4-3-5-21-26-22(27-30-21)15-7-9-16(29-2)10-8-15/h7-10,14H,3-6,11-12H2,1-2H3,(H,25,28)/t14-/m1/s1

> <InChI Key>
XLLNDVBSZBVZLD-CQSZACIVSA-N

> <PERCENTSP3>
39.1

> <Link>
https://www.chemdiv.com/catalog/screening-compounds/compound-D321-0807/

> <MFCDNUMBER>
MFCD09764581

> <CLNUMBER>
CL5000

> <STEREO>
RACEMIC MIXTURE

> <State>
Solid

> <Similarity score>
0.21

$$$$
2-amino-4,5,6,7-tetrahydro-1-benzothiophene-3-carbonitrile
  -OEChem-04222410502D

 12 13  0     0  0  0  0  0  0999 V2000
    0.5778   -0.0290    0.0000 C   0  0  0  0  0  0  0  0  0  0  0  0
    1.1355   -0.8321    0.0000 C   0  0  0  0  0  0  0  0  0  0  0  0
   -0.3994   -0.3280    0.0000 C   0  0  0  0  0  0  0  0  0  0  0  0
    0.5778   -1.6352    0.0000 S   0  0  0  0  0  0  0  0  0  0  0  0
   -0.3994   -1.3319    0.0000 C   0  0  0  0  0  0  0  0  0  0  0  0
    0.9213    0.9035    0.0000 C   0  0  0  0  0  0  0  0  0  0  0  0
    1.2604    1.8404    0.0000 N   0  0  0  0  0  0  0  0  0  0  0  0
    2.1304   -0.8321    0.0000 N   0  0  0  0  0  0  0  0  0  0  0  0
   -1.2693    0.1718    0.0000 C   0  0  0  0  0  0  0  0  0  0  0  0
   -1.2693   -1.8404    0.0000 C   0  0  0  0  0  0  0  0  0  0  0  0
   -2.1304   -0.3280    0.0000 C   0  0  0  0  0  0  0  0  0  0  0  0
   -2.1304   -1.3319    0.0000 C   0  0  0  0  0  0  0  0  0  0  0  0
  1  2  2  0  0  0  0
  1  3  1  0  0  0  0
  2  4  1  0  0  0  0
  3  5  2  0  0  0  0
  4  5  1  0  0  0  0
  1  6  1  0  0  0  0
  6  7  3  0  0  0  0
  2  8  1  0  0  0  0
  3  9  1  0  0  0  0
  5 10  1  0  0  0  0
  9 11  1  0  0  0  0
 11 12  1  0  0  0  0
 10 12  1  0  0  0  0
M  END
> <IDNUMBER>
0848-0050

> <available>
7

> <H_acceptor>
1

> <H_donor>
2

> <B_rotN>
1

> <N_O>
2

> <logP>
2.1463

> <logD>
2.1463

> <logSw>
-2.0208

> <PSA>
38.492

> <pKa_ma>
15.9936

> <pKa_mb>
-2.0609

> <N_Chirals>
0

> <Name>
2-amino-4,5,6,7-tetrahydro-1-benzothiophene-3-carbonitrile

> <Smile>
Nc(sc1c2CCCC1)c2C#N

> <Color>
ORANGE

> <Collection>
DC

> <InChI>
InChI=1S/C9H10N2S/c10-5-7-6-3-1-2-4-8(6)12-9(7)11/h1-4,11H2

> <InChI Key>
ADHVMGAFAKSNOM-UHFFFAOYSA-N

> <PERCENTSP3>
44.4

> <Link>
https://www.chemdiv.com/catalog/screening-compounds/compound-0848-0050/

> <MFCDNUMBER>
MFCD00128278

> <STEREO>
ACHIRAL

> <State>
Solid

> <Similarity score>
0.21

$$$$
2-amino-5,6,7,8-tetrahydro-4H-cyclohepta[b]thiophene-3-carbonitrile
  -OEChem-04222410502D

 13 14  0     0  0  0  0  0  0999 V2000
   -0.3355   -0.3963    0.0000 C   0  0  0  0  0  0  0  0  0  0  0  0
    0.1678   -1.2911    0.0000 C   0  0  0  0  0  0  0  0  0  0  0  0
    0.3449    0.3307    0.0000 C   0  0  0  0  0  0  0  0  0  0  0  0
    1.1282   -1.0674    0.0000 S   0  0  0  0  0  0  0  0  0  0  0  0
    1.2400   -0.0794    0.0000 C   0  0  0  0  0  0  0  0  0  0  0  0
   -1.3329   -0.2751    0.0000 C   0  0  0  0  0  0  0  0  0  0  0  0
   -2.3492   -0.1633    0.0000 N   0  0  0  0  0  0  0  0  0  0  0  0
   -0.3355   -2.1207    0.0000 N   0  0  0  0  0  0  0  0  0  0  0  0
    0.1118    1.3097    0.0000 C   0  0  0  0  0  0  0  0  0  0  0  0
    2.1348    0.3683    0.0000 C   0  0  0  0  0  0  0  0  0  0  0  0
    0.7270    2.1207    0.0000 C   0  0  0  0  0  0  0  0  0  0  0  0
    2.3492    1.3097    0.0000 C   0  0  0  0  0  0  0  0  0  0  0  0
    1.7340    2.1207    0.0000 C   0  0  0  0  0  0  0  0  0  0  0  0
  1  2  2  0  0  0  0
  1  3  1  0  0  0  0
  2  4  1  0  0  0  0
  3  5  2  0  0  0  0
  4  5  1  0  0  0  0
  1  6  1  0  0  0  0
  6  7  3  0  0  0  0
  2  8  1  0  0  0  0
  3  9  1  0  0  0  0
  5 10  1  0  0  0  0
  9 11  1  0  0  0  0
 10 12  1  0  0  0  0
 11 13  1  0  0  0  0
 12 13  1  0  0  0  0
M  END
> <IDNUMBER>
R052-0786

> <available>
327

> <H_acceptor>
1

> <H_donor>
2

> <B_rotN>
1

> <N_O>
2

> <logP>
2.6422

> <logD>
2.6422

> <logSw>
-2.7776

> <PSA>
38.822

> <pKa_ma>
15.9936

> <pKa_mb>
-1.0762

> <N_Chirals>
0

> <Name>
2-amino-5,6,7,8-tetrahydro-4H-cyclohepta[b]thiophene-3-carbonitrile

> <Smile>
Nc(sc1c2CCCCC1)c2C#N

> <Color>
ORANGE

> <Collection>
NC

> <InChI>
InChI=1S/C10H12N2S/c11-6-8-7-4-2-1-3-5-9(7)13-10(8)12/h1-5,12H2

> <InChI Key>
GBQACFCEZPKMTA-UHFFFAOYSA-N

> <PERCENTSP3>
50

> <Link>
https://www.chemdiv.com/catalog/screening-compounds/compound-R052-0786/

> <MFCDNUMBER>
MFCD00121496

> <STEREO>
ACHIRAL

> <State>
Solid

> <Similarity score>
0.21

$$$$
2-amino-4,5,6,7,8,9,10,11,12,13-decahydrocyclododeca[b]thiophene-3-carbonitrile
  -OEChem-04222410502D

 18 19  0     0  0  0  0  0  0999 V2000
    2.1285    0.2218    0.0000 C   0  0  0  0  0  0  0  0  0  0  0  0
    2.1285   -0.7769    0.0000 C   0  0  0  0  0  0  0  0  0  0  0  0
    0.5566    0.2218    0.0000 C   0  0  0  0  0  0  0  0  0  0  0  0
    1.3501   -1.2233    0.0000 S   0  0  0  0  0  0  0  0  0  0  0  0
    0.5566   -0.7527    0.0000 C   0  0  0  0  0  0  0  0  0  0  0  0
    2.9642    0.7457    0.0000 C   0  0  0  0  0  0  0  0  0  0  0  0
    3.8029    1.2687    0.0000 N   0  0  0  0  0  0  0  0  0  0  0  0
    2.9431   -1.2687    0.0000 N   0  0  0  0  0  0  0  0  0  0  0  0
   -0.4118    0.2218    0.0000 C   0  0  0  0  0  0  0  0  0  0  0  0
   -0.4058   -0.7527    0.0000 C   0  0  0  0  0  0  0  0  0  0  0  0
   -1.2505    0.6945    0.0000 C   0  0  0  0  0  0  0  0  0  0  0  0
   -1.2505   -1.2385    0.0000 C   0  0  0  0  0  0  0  0  0  0  0  0
   -3.8029    0.2067    0.0000 C   0  0  0  0  0  0  0  0  0  0  0  0
   -2.9582    0.6945    0.0000 C   0  0  0  0  0  0  0  0  0  0  0  0
   -2.1044    0.2067    0.0000 C   0  0  0  0  0  0  0  0  0  0  0  0
   -2.1044   -0.7527    0.0000 C   0  0  0  0  0  0  0  0  0  0  0  0
   -2.9582   -1.2385    0.0000 C   0  0  0  0  0  0  0  0  0  0  0  0
   -3.8029   -0.7527    0.0000 C   0  0  0  0  0  0  0  0  0  0  0  0
  1  2  2  0  0  0  0
  1  3  1  0  0  0  0
  2  4  1  0  0  0  0
  4  5  1  0  0  0  0
  3  5  2  0  0  0  0
  1  6  1  0  0  0  0
  6  7  3  0  0  0  0
  2  8  1  0  0  0  0
  3  9  1  0  0  0  0
  5 10  1  0  0  0  0
  9 11  1  0  0  0  0
 10 12  1  0  0  0  0
 13 14  1  0  0  0  0
 14 15  1  0  0  0  0
 11 15  1  0  0  0  0
 12 16  1  0  0  0  0
 16 17  1  0  0  0  0
 17 18  1  0  0  0  0
 13 18  1  0  0  0  0
M  END
> <IDNUMBER>
8003-0436

> <available>
24

> <H_acceptor>
1

> <H_donor>
2

> <B_rotN>
1

> <N_O>
2

> <logP>
5.1218

> <logD>
5.1218

> <logSw>
-5.2389

> <PSA>
38.822

> <pKa_ma>
15.9936

> <pKa_mb>
-1.1592

> <N_Chirals>
0

> <Name>
2-amino-4,5,6,7,8,9,10,11,12,13-decahydrocyclododeca[b]thiophene-3-carbonitrile

> <Smile>
Nc(sc1c2CCCCCCCCCC1)c2C#N

> <Color>
ORANGE

> <Collection>
DC

> <InChI>
InChI=1S/C15H22N2S/c16-11-13-12-9-7-5-3-1-2-4-6-8-10-14(12)18-15(13)17/h1-10,17H2

> <InChI Key>
NJKJOVJKMPBQIL-UHFFFAOYSA-N

> <PERCENTSP3>
66.7

> <Link>
https://www.chemdiv.com/catalog/screening-compounds/compound-8003-0436/

> <MFCDNUMBER>
MFCD00742783

> <STEREO>
ACHIRAL

> <State>
Solid

> <Similarity score>
0.21

$$$$
N-(3-cyano-4,5,6,7-tetrahydro-1-benzothiophen-2-yl)-4-(3-phenyl-1,2,4-oxadiazol-
  -OEChem-04222410502D

 28 31  0     0  0  0  0  0  0999 V2000
    2.2770    2.0584    0.0000 C   0  0  0  0  0  0  0  0  0  0  0  0
    2.4813    1.0708    0.0000 C   0  0  0  0  0  0  0  0  0  0  0  0
   -1.8189   -0.9293    0.0000 N   0  0  0  0  0  0  0  0  0  0  0  0
    3.1313    2.5502    0.0000 S   0  0  0  0  0  0  0  0  0  0  0  0
    3.4689    0.9707    0.0000 C   0  0  0  0  0  0  0  0  0  0  0  0
   -2.4314   -1.7167    0.0000 C   0  0  0  0  0  0  0  0  0  0  0  0
    3.8773    1.8958    0.0000 C   0  0  0  0  0  0  0  0  0  0  0  0
   -1.8688   -2.5502    0.0000 N   0  0  0  0  0  0  0  0  0  0  0  0
    1.3646    2.4626    0.0000 N   0  0  0  0  0  0  0  0  0  0  0  0
    1.8189    0.3209    0.0000 C   0  0  0  0  0  0  0  0  0  0  0  0
   -0.8812   -1.2543    0.0000 C   0  0  0  0  0  0  0  0  0  0  0  0
   -0.9105   -2.2668    0.0000 O   0  0  0  0  0  0  0  0  0  0  0  0
    1.1564   -0.4292    0.0000 N   0  0  0  0  0  0  0  0  0  0  0  0
    0.5520    1.8709    0.0000 C   0  0  0  0  0  0  0  0  0  0  0  0
   -3.4437   -1.6918    0.0000 C   0  0  0  0  0  0  0  0  0  0  0  0
   -0.3313    2.2709    0.0000 O   0  0  0  0  0  0  0  0  0  0  0  0
    4.0439    0.1582    0.0000 C   0  0  0  0  0  0  0  0  0  0  0  0
    4.8690    1.9832    0.0000 C   0  0  0  0  0  0  0  0  0  0  0  0
   -0.0563   -0.6751    0.0000 C   0  0  0  0  0  0  0  0  0  0  0  0
    0.6561    0.9126    0.0000 C   0  0  0  0  0  0  0  0  0  0  0  0
   -0.1564    0.3209    0.0000 C   0  0  0  0  0  0  0  0  0  0  0  0
   -3.9607   -2.5502    0.0000 C   0  0  0  0  0  0  0  0  0  0  0  0
   -3.9230   -0.8125    0.0000 C   0  0  0  0  0  0  0  0  0  0  0  0
    5.0564    0.2583    0.0000 C   0  0  0  0  0  0  0  0  0  0  0  0
    5.4564    1.1709    0.0000 C   0  0  0  0  0  0  0  0  0  0  0  0
   -4.9357   -0.7876    0.0000 C   0  0  0  0  0  0  0  0  0  0  0  0
   -4.9732   -2.5166    0.0000 C   0  0  0  0  0  0  0  0  0  0  0  0
   -5.4564   -1.6293    0.0000 C   0  0  0  0  0  0  0  0  0  0  0  0
  1  2  2  0  0  0  0
  3 11  2  0  0  0  0
  1  4  1  0  0  0  0
  2  5  1  0  0  0  0
  3  6  1  0  0  0  0
  4  7  1  0  0  0  0
  5  7  2  0  0  0  0
  8 12  1  0  0  0  0
  6  8  2  0  0  0  0
  1  9  1  0  0  0  0
  2 10  1  0  0  0  0
 11 19  1  0  0  0  0
 11 12  1  0  0  0  0
 10 13  3  0  0  0  0
  9 14  1  0  0  0  0
  6 15  1  0  0  0  0
 14 16  2  0  0  0  0
  5 17  1  0  0  0  0
  7 18  1  0  0  0  0
 19 21  1  0  0  0  0
 14 20  1  0  0  0  0
 20 21  1  0  0  0  0
 15 22  2  0  0  0  0
 15 23  1  0  0  0  0
 17 24  1  0  0  0  0
 18 25  1  0  0  0  0
 24 25  1  0  0  0  0
 23 26  2  0  0  0  0
 22 27  1  0  0  0  0
 27 28  2  0  0  0  0
 26 28  1  0  0  0  0
M  END
> <IDNUMBER>
D321-0073

> <available>
73

> <H_acceptor>
6

> <H_donor>
1

> <B_rotN>
8

> <N_O>
6

> <logP>
4.3451

> <logD>
3.0319

> <logSw>
-4.5909

> <PSA>
71.23

> <pKa_ma>
6.1085

> <pKa_mb>
-3.8515

> <N_Chirals>
0

> <Name>
N-(3-cyano-4,5,6,7-tetrahydro-1-benzothiophen-2-yl)-4-(3-phenyl-1,2,4-oxadiazol-5-yl)butanamide

> <Smile>
N#Cc1c(NC(CCCc2nc(-c3ccccc3)no2)=O)sc2c1CCCC2

> <Color>
BROWN

> <Collection>
DC

> <InChI>
InChI=1S/C21H20N4O2S/c22-13-16-15-9-4-5-10-17(15)28-21(16)23-18(26)11-6-12-19-24-20(25-27-19)14-7-2-1-3-8-14/h1-3,7-8H,4-6,9-12H2,(H,23,26)

> <InChI Key>
JSCZVXYKOMCNNE-UHFFFAOYSA-N

> <PERCENTSP3>
33.3

> <Link>
https://www.chemdiv.com/catalog/screening-compounds/compound-D321-0073/

> <MFCDNUMBER>
MFCD14819067

> <CLNUMBER>
CL5000

> <STEREO>
ACHIRAL

> <State>
Solid

> <Similarity score>
0.21

$$$$
N-(3-cyano-4,5,6,7-tetrahydro-1-benzothiophen-2-yl)-2-[(4-methylpyrimidin-2-yl)s
  -OEChem-04222410502D

 23 25  0     0  0  0  0  0  0999 V2000
    1.9102    0.1312    0.0000 C   0  0  0  0  0  0  0  0  0  0  0  0
    2.8311   -0.2729    0.0000 C   0  0  0  0  0  0  0  0  0  0  0  0
    2.0145    1.1312    0.0000 S   0  0  0  0  0  0  0  0  0  0  0  0
    3.4937    0.4646    0.0000 C   0  0  0  0  0  0  0  0  0  0  0  0
    2.9812    1.3438    0.0000 C   0  0  0  0  0  0  0  0  0  0  0  0
    1.0477   -0.3645    0.0000 N   0  0  0  0  0  0  0  0  0  0  0  0
    3.0394   -1.2395    0.0000 C   0  0  0  0  0  0  0  0  0  0  0  0
   -2.4062   -0.3812    0.0000 C   0  0  0  0  0  0  0  0  0  0  0  0
   -3.2731    0.1188    0.0000 N   0  0  0  0  0  0  0  0  0  0  0  0
    3.2518   -2.2188    0.0000 N   0  0  0  0  0  0  0  0  0  0  0  0
    0.1852    0.1188    0.0000 C   0  0  0  0  0  0  0  0  0  0  0  0
   -2.4062   -1.3936    0.0000 N   0  0  0  0  0  0  0  0  0  0  0  0
   -1.5479    0.1188    0.0000 S   0  0  0  0  0  0  0  0  0  0  0  0
    0.1770    1.1147    0.0000 O   0  0  0  0  0  0  0  0  0  0  0  0
   -4.1352   -0.3937    0.0000 C   0  0  0  0  0  0  0  0  0  0  0  0
   -0.6731   -0.3812    0.0000 C   0  0  0  0  0  0  0  0  0  0  0  0
   -3.2731   -1.8895    0.0000 C   0  0  0  0  0  0  0  0  0  0  0  0
    4.4935    0.4813    0.0000 C   0  0  0  0  0  0  0  0  0  0  0  0
   -4.1352   -1.3936    0.0000 C   0  0  0  0  0  0  0  0  0  0  0  0
    3.4812    2.2188    0.0000 C   0  0  0  0  0  0  0  0  0  0  0  0
   -4.9937    0.1021    0.0000 C   0  0  0  0  0  0  0  0  0  0  0  0
    4.9937    1.3438    0.0000 C   0  0  0  0  0  0  0  0  0  0  0  0
    4.4935    2.2188    0.0000 C   0  0  0  0  0  0  0  0  0  0  0  0
  1  2  2  0  0  0  0
  1  3  1  0  0  0  0
  2  4  1  0  0  0  0
  4  5  2  0  0  0  0
  3  5  1  0  0  0  0
  1  6  1  0  0  0  0
  2  7  1  0  0  0  0
  8 13  1  0  0  0  0
  8  9  2  0  0  0  0
  7 10  3  0  0  0  0
  6 11  1  0  0  0  0
  8 12  1  0  0  0  0
 13 16  1  0  0  0  0
 11 14  2  0  0  0  0
  9 15  1  0  0  0  0
 11 16  1  0  0  0  0
 12 17  2  0  0  0  0
  4 18  1  0  0  0  0
 17 19  1  0  0  0  0
 15 19  2  0  0  0  0
  5 20  1  0  0  0  0
 15 21  1  0  0  0  0
 18 22  1  0  0  0  0
 20 23  1  0  0  0  0
 22 23  1  0  0  0  0
M  END
> <IDNUMBER>
IB05-5403

> <available>
50

> <H_acceptor>
6

> <H_donor>
1

> <B_rotN>
6

> <N_O>
5

> <logP>
3.05

> <logD>
2.02

> <logSw>
-3.84

> <PSA>
163.76

> <pKa_ma>
6.41

> <pKa_mb>
1.45

> <N_Chirals>
0

> <Name>
N-(3-cyano-4,5,6,7-tetrahydro-1-benzothiophen-2-yl)-2-[(4-methylpyrimidin-2-yl)sulfanyl]acetamide

> <Smile>
Cc1ccnc(SCC(Nc(sc2c3CCCC2)c3C#N)=O)n1

> <Color>
NOT COLORED

> <Collection>
DC

> <InChI>
InChI=1S/C16H16N4OS2/c1-10-6-7-18-16(19-10)22-9-14(21)20-15-12(8-17)11-4-2-3-5-13(11)23-15/h6-7H,2-5,9H2,1H3,(H,20,21)

> <InChI Key>
JEZSJYMVVWXKKF-UHFFFAOYSA-N

> <PERCENTSP3>
37.5

> <Link>
https://www.chemdiv.com/catalog/screening-compounds/compound-IB05-5403/

> <STEREO>
ACHIRAL

> <State>
Solid

> <Similarity score>
0.21

$$$$
4-[3-(4-chlorophenyl)-1,2,4-oxadiazol-5-yl]-N-(3-cyano-4,5,6,7-tetrahydro-1-benz
  -OEChem-04222410502D

 29 32  0     0  0  0  0  0  0999 V2000
    2.7760    2.0576    0.0000 C   0  0  0  0  0  0  0  0  0  0  0  0
    2.9926    1.0663    0.0000 C   0  0  0  0  0  0  0  0  0  0  0  0
   -1.3182   -0.9327    0.0000 N   0  0  0  0  0  0  0  0  0  0  0  0
    3.6298    2.5447    0.0000 S   0  0  0  0  0  0  0  0  0  0  0  0
    3.9671    0.9705    0.0000 C   0  0  0  0  0  0  0  0  0  0  0  0
   -1.9346   -1.7201    0.0000 C   0  0  0  0  0  0  0  0  0  0  0  0
    4.3794    1.8909    0.0000 C   0  0  0  0  0  0  0  0  0  0  0  0
   -1.3683   -2.5447    0.0000 N   0  0  0  0  0  0  0  0  0  0  0  0
    1.8556    2.4575    0.0000 N   0  0  0  0  0  0  0  0  0  0  0  0
    2.3136    0.3081    0.0000 C   0  0  0  0  0  0  0  0  0  0  0  0
   -0.3812   -1.2578    0.0000 C   0  0  0  0  0  0  0  0  0  0  0  0
   -0.4062   -2.2699    0.0000 O   0  0  0  0  0  0  0  0  0  0  0  0
    1.6555   -0.4331    0.0000 N   0  0  0  0  0  0  0  0  0  0  0  0
    1.0559    1.8784    0.0000 C   0  0  0  0  0  0  0  0  0  0  0  0
   -2.9466   -1.6952    0.0000 C   0  0  0  0  0  0  0  0  0  0  0  0
    0.1645    2.2699    0.0000 O   0  0  0  0  0  0  0  0  0  0  0  0
   -3.4672   -2.5447    0.0000 C   0  0  0  0  0  0  0  0  0  0  0  0
   -3.4298   -0.8081    0.0000 C   0  0  0  0  0  0  0  0  0  0  0  0
   -4.9542   -1.6408    0.0000 C   0  0  0  0  0  0  0  0  0  0  0  0
    4.5419    0.1541    0.0000 C   0  0  0  0  0  0  0  0  0  0  0  0
   -4.4420   -0.7911    0.0000 C   0  0  0  0  0  0  0  0  0  0  0  0
   -4.4794   -2.5323    0.0000 C   0  0  0  0  0  0  0  0  0  0  0  0
    5.3749    1.9826    0.0000 C   0  0  0  0  0  0  0  0  0  0  0  0
   -5.9539   -1.5951    0.0000 Cl  0  0  0  0  0  0  0  0  0  0  0  0
    0.4395   -0.6787    0.0000 C   0  0  0  0  0  0  0  0  0  0  0  0
    1.1640    0.9082    0.0000 C   0  0  0  0  0  0  0  0  0  0  0  0
    0.3436    0.3208    0.0000 C   0  0  0  0  0  0  0  0  0  0  0  0
    5.5416    0.2582    0.0000 C   0  0  0  0  0  0  0  0  0  0  0  0
    5.9539    1.1662    0.0000 C   0  0  0  0  0  0  0  0  0  0  0  0
  1  2  2  0  0  0  0
  3 11  2  0  0  0  0
  1  4  1  0  0  0  0
  2  5  1  0  0  0  0
  3  6  1  0  0  0  0
  4  7  1  0  0  0  0
  5  7  2  0  0  0  0
  8 12  1  0  0  0  0
  6  8  2  0  0  0  0
  1  9  1  0  0  0  0
  2 10  1  0  0  0  0
 11 25  1  0  0  0  0
 11 12  1  0  0  0  0
 10 13  3  0  0  0  0
  9 14  1  0  0  0  0
  6 15  1  0  0  0  0
 14 16  2  0  0  0  0
 15 17  2  0  0  0  0
 15 18  1  0  0  0  0
 19 21  1  0  0  0  0
  5 20  1  0  0  0  0
 18 21  2  0  0  0  0
 17 22  1  0  0  0  0
 19 22  2  0  0  0  0
  7 23  1  0  0  0  0
 19 24  1  0  0  0  0
 25 27  1  0  0  0  0
 14 26  1  0  0  0  0
 26 27  1  0  0  0  0
 20 28  1  0  0  0  0
 23 29  1  0  0  0  0
 28 29  1  0  0  0  0
M  END
> <IDNUMBER>
D321-0411

> <available>
131

> <H_acceptor>
6

> <H_donor>
1

> <B_rotN>
8

> <N_O>
6

> <logP>
5.0449

> <logD>
3.7317

> <logSw>
-5.5402

> <PSA>
71.23

> <pKa_ma>
6.1085

> <pKa_mb>
-3.8515

> <N_Chirals>
0

> <Name>
4-[3-(4-chlorophenyl)-1,2,4-oxadiazol-5-yl]-N-(3-cyano-4,5,6,7-tetrahydro-1-benzothiophen-2-yl)butanamide

> <Smile>
N#Cc1c(NC(CCCc2nc(-c(cc3)ccc3Cl)no2)=O)sc2c1CCCC2

> <Color>
NOT COLORED

> <Collection>
DC

> <InChI>
InChI=1S/C21H19ClN4O2S/c22-14-10-8-13(9-11-14)20-25-19(28-26-20)7-3-6-18(27)24-21-16(12-23)15-4-1-2-5-17(15)29-21/h8-11H,1-7H2,(H,24,27)

> <InChI Key>
RLKNCKNRMYVAGU-UHFFFAOYSA-N

> <PERCENTSP3>
33.3

> <Link>
https://www.chemdiv.com/catalog/screening-compounds/compound-D321-0411/

> <MFCDNUMBER>
MFCD14819087

> <CLNUMBER>
CL5000

> <STEREO>
ACHIRAL

> <State>
Solid

> <Similarity score>
0.21

$$$$
N-(3-cyano-5,6,7,8-tetrahydro-4H-cyclohepta[b]thiophen-2-yl)-2-[(4-methylpyrimid
  -OEChem-04222410502D

 24 26  0     0  0  0  0  0  0999 V2000
    1.8143   -0.0229    0.0000 C   0  0  0  0  0  0  0  0  0  0  0  0
    2.7307   -0.4394    0.0000 C   0  0  0  0  0  0  0  0  0  0  0  0
    1.9184    0.9562    0.0000 S   0  0  0  0  0  0  0  0  0  0  0  0
    3.3973    0.3104    0.0000 C   0  0  0  0  0  0  0  0  0  0  0  0
    2.8973    1.1644    0.0000 C   0  0  0  0  0  0  0  0  0  0  0  0
    0.9435   -0.5229    0.0000 N   0  0  0  0  0  0  0  0  0  0  0  0
    2.9390   -1.4101    0.0000 C   0  0  0  0  0  0  0  0  0  0  0  0
   -2.5223   -0.5229    0.0000 C   0  0  0  0  0  0  0  0  0  0  0  0
   -3.3931   -0.0229    0.0000 N   0  0  0  0  0  0  0  0  0  0  0  0
    3.1347   -2.3932    0.0000 N   0  0  0  0  0  0  0  0  0  0  0  0
    0.0771   -0.0229    0.0000 C   0  0  0  0  0  0  0  0  0  0  0  0
   -2.5223   -1.5268    0.0000 N   0  0  0  0  0  0  0  0  0  0  0  0
   -1.6559   -0.0229    0.0000 S   0  0  0  0  0  0  0  0  0  0  0  0
    0.0771    0.9562    0.0000 O   0  0  0  0  0  0  0  0  0  0  0  0
   -4.2638   -0.5229    0.0000 C   0  0  0  0  0  0  0  0  0  0  0  0
   -0.7936   -0.5229    0.0000 C   0  0  0  0  0  0  0  0  0  0  0  0
   -3.3931   -2.0267    0.0000 C   0  0  0  0  0  0  0  0  0  0  0  0
    4.3845    0.1563    0.0000 C   0  0  0  0  0  0  0  0  0  0  0  0
   -4.2638   -1.5268    0.0000 C   0  0  0  0  0  0  0  0  0  0  0  0
    3.2640    2.1018    0.0000 C   0  0  0  0  0  0  0  0  0  0  0  0
   -5.1261   -0.0229    0.0000 C   0  0  0  0  0  0  0  0  0  0  0  0
    5.1261    0.8352    0.0000 C   0  0  0  0  0  0  0  0  0  0  0  0
    4.2221    2.3932    0.0000 C   0  0  0  0  0  0  0  0  0  0  0  0
    5.0511    1.8351    0.0000 C   0  0  0  0  0  0  0  0  0  0  0  0
  1  2  2  0  0  0  0
  1  3  1  0  0  0  0
  2  4  1  0  0  0  0
  4  5  2  0  0  0  0
  3  5  1  0  0  0  0
  1  6  1  0  0  0  0
  2  7  1  0  0  0  0
  8 13  1  0  0  0  0
  8  9  1  0  0  0  0
  7 10  3  0  0  0  0
  6 11  1  0  0  0  0
  8 12  2  0  0  0  0
 13 16  1  0  0  0  0
 11 14  2  0  0  0  0
  9 15  2  0  0  0  0
 11 16  1  0  0  0  0
 12 17  1  0  0  0  0
  4 18  1  0  0  0  0
 17 19  2  0  0  0  0
 15 19  1  0  0  0  0
  5 20  1  0  0  0  0
 15 21  1  0  0  0  0
 18 22  1  0  0  0  0
 22 24  1  0  0  0  0
 20 23  1  0  0  0  0
 23 24  1  0  0  0  0
M  END
> <IDNUMBER>
Y206-0447

> <available>
12

> <H_acceptor>
6

> <H_donor>
1

> <B_rotN>
6

> <N_O>
5

> <logP>
3.5509

> <logD>
2.5181

> <logSw>
-3.8866

> <PSA>
57.75

> <pKa_ma>
6.4095

> <pKa_mb>
0.036

> <N_Chirals>
0

> <Name>
N-(3-cyano-5,6,7,8-tetrahydro-4H-cyclohepta[b]thiophen-2-yl)-2-[(4-methylpyrimidin-2-yl)sulfanyl]acetamide

> <Smile>
Cc1ccnc(SCC(Nc(sc2c3CCCCC2)c3C#N)=O)n1

> <Color>
BROWN

> <Collection>
DC

> <InChI>
InChI=1S/C17H18N4OS2/c1-11-7-8-19-17(20-11)23-10-15(22)21-16-13(9-18)12-5-3-2-4-6-14(12)24-16/h7-8H,2-6,10H2,1H3,(H,21,22)

> <InChI Key>
XFJHMWAIDNSWDH-UHFFFAOYSA-N

> <PERCENTSP3>
41.18

> <Link>
https://www.chemdiv.com/catalog/screening-compounds/compound-Y206-0447/

> <MFCDNUMBER>
MFCD06157225

> <STEREO>
ACHIRAL

> <State>
Solid

> <Similarity score>
0.21

$$$$
N-(3-cyano-6-methyl-4,5,6,7-tetrahydro-1-benzothiophen-2-yl)-4-(3-phenyl-1,2,4-o
  -OEChem-04222410502D

 29 32  0     0  0  0  0  0  0999 V2000
    1.7771    2.0606    0.0000 C   0  0  0  0  0  0  0  0  0  0  0  0
    1.9897    1.0688    0.0000 C   0  0  0  0  0  0  0  0  0  0  0  0
    2.9690    0.9605    0.0000 C   0  0  0  0  0  0  0  0  0  0  0  0
    3.3897    1.8814    0.0000 C   0  0  0  0  0  0  0  0  0  0  0  0
    2.6440    2.5440    0.0000 S   0  0  0  0  0  0  0  0  0  0  0  0
   -2.3188   -0.9272    0.0000 N   0  0  0  0  0  0  0  0  0  0  0  0
   -2.9230   -1.7189    0.0000 C   0  0  0  0  0  0  0  0  0  0  0  0
   -2.3607   -2.5440    0.0000 N   0  0  0  0  0  0  0  0  0  0  0  0
    0.8646    2.4688    0.0000 N   0  0  0  0  0  0  0  0  0  0  0  0
    1.3188    0.3105    0.0000 C   0  0  0  0  0  0  0  0  0  0  0  0
   -1.3814   -1.2438    0.0000 C   0  0  0  0  0  0  0  0  0  0  0  0
   -1.4104   -2.2564    0.0000 O   0  0  0  0  0  0  0  0  0  0  0  0
    0.6396   -0.4272    0.0000 N   0  0  0  0  0  0  0  0  0  0  0  0
    3.5440    0.1562    0.0000 C   0  0  0  0  0  0  0  0  0  0  0  0
    0.0562    1.8814    0.0000 C   0  0  0  0  0  0  0  0  0  0  0  0
    4.3815    1.9689    0.0000 C   0  0  0  0  0  0  0  0  0  0  0  0
   -3.9357   -1.6813    0.0000 C   0  0  0  0  0  0  0  0  0  0  0  0
   -0.8311    2.2689    0.0000 O   0  0  0  0  0  0  0  0  0  0  0  0
    4.5397    0.2357    0.0000 C   0  0  0  0  0  0  0  0  0  0  0  0
    4.9565    1.1563    0.0000 C   0  0  3  0  0  0  0  0  0  0  0  0
   -0.5562   -0.6688    0.0000 C   0  0  0  0  0  0  0  0  0  0  0  0
    0.1562    0.9186    0.0000 C   0  0  0  0  0  0  0  0  0  0  0  0
   -0.6563    0.3230    0.0000 C   0  0  0  0  0  0  0  0  0  0  0  0
   -4.4690   -2.5440    0.0000 C   0  0  0  0  0  0  0  0  0  0  0  0
   -4.4191   -0.8064    0.0000 C   0  0  0  0  0  0  0  0  0  0  0  0
    5.9566    1.2438    0.0000 C   0  0  0  0  0  0  0  0  0  0  0  0
   -5.4732   -2.5187    0.0000 C   0  0  0  0  0  0  0  0  0  0  0  0
   -5.4315   -0.7812    0.0000 C   0  0  0  0  0  0  0  0  0  0  0  0
   -5.9566   -1.6271    0.0000 C   0  0  0  0  0  0  0  0  0  0  0  0
  1  2  2  0  0  0  0
  2  3  1  0  0  0  0
  4  5  1  0  0  0  0
  3  4  2  0  0  0  0
  1  5  1  0  0  0  0
  6 11  2  0  0  0  0
  6  7  1  0  0  0  0
  8 12  1  0  0  0  0
  7  8  2  0  0  0  0
  1  9  1  0  0  0  0
  2 10  1  0  0  0  0
 11 21  1  0  0  0  0
 11 12  1  0  0  0  0
 10 13  3  0  0  0  0
  3 14  1  0  0  0  0
  9 15  1  0  0  0  0
  4 16  1  0  0  0  0
  7 17  1  0  0  0  0
 15 18  2  0  0  0  0
 14 19  1  0  0  0  0
 16 20  1  0  0  0  0
 19 20  1  0  0  0  0
 21 23  1  0  0  0  0
 15 22  1  0  0  0  0
 22 23  1  0  0  0  0
 17 24  2  0  0  0  0
 17 25  1  0  0  0  0
 20 26  1  0  0  0  0
 24 27  1  0  0  0  0
 27 29  2  0  0  0  0
 25 28  2  0  0  0  0
 28 29  1  0  0  0  0
M  END
> <IDNUMBER>
D321-0131

> <available>
150

> <H_acceptor>
6

> <H_donor>
1

> <B_rotN>
8

> <N_O>
6

> <logP>
4.7791

> <logD>
3.4659

> <logSw>
-4.7143

> <PSA>
71.23

> <pKa_ma>
6.1085

> <pKa_mb>
-3.8515

> <N_Chirals>
1

> <Name>
N-(3-cyano-6-methyl-4,5,6,7-tetrahydro-1-benzothiophen-2-yl)-4-(3-phenyl-1,2,4-oxadiazol-5-yl)butanamide

> <Smile>
CC(CC1)Cc2c1c(C#N)c(NC(CCCc1nc(-c3ccccc3)no1)=O)s2

> <Color>
ORANGE

> <Collection>
DC

> <InChI>
InChI=1S/C22H22N4O2S/c1-14-10-11-16-17(13-23)22(29-18(16)12-14)24-19(27)8-5-9-20-25-21(26-28-20)15-6-3-2-4-7-15/h2-4,6-7,14H,5,8-12H2,1H3,(H,24,27)/t14-/m1/s1

> <InChI Key>
NLKYBZFYKWKHNJ-CQSZACIVSA-N

> <PERCENTSP3>
36.4

> <Link>
https://www.chemdiv.com/catalog/screening-compounds/compound-D321-0131/

> <MFCDNUMBER>
MFCD14819072

> <CLNUMBER>
CL5000

> <STEREO>
RACEMIC MIXTURE

> <State>
Solid

> <Similarity score>
0.21

$$$$
4-[3-(4-chlorophenyl)-1,2,4-oxadiazol-5-yl]-N-(3-cyano-6-methyl-4,5,6,7-tetrahyd
  -OEChem-04222410502D

 30 33  0     0  0  0  0  0  0999 V2000
    2.2786    2.0660    0.0000 C   0  0  0  0  0  0  0  0  0  0  0  0
    2.4911    1.0662    0.0000 C   0  0  0  0  0  0  0  0  0  0  0  0
    3.4657    0.9664    0.0000 C   0  0  0  0  0  0  0  0  0  0  0  0
    3.8781    1.8912    0.0000 C   0  0  0  0  0  0  0  0  0  0  0  0
    3.1367    2.5410    0.0000 S   0  0  0  0  0  0  0  0  0  0  0  0
   -1.8203   -0.9207    0.0000 N   0  0  0  0  0  0  0  0  0  0  0  0
   -2.4327   -1.7080    0.0000 C   0  0  0  0  0  0  0  0  0  0  0  0
   -1.8620   -2.5410    0.0000 N   0  0  0  0  0  0  0  0  0  0  0  0
    1.3538    2.4659    0.0000 N   0  0  0  0  0  0  0  0  0  0  0  0
    1.8038    0.3166    0.0000 C   0  0  0  0  0  0  0  0  0  0  0  0
   -0.8831   -1.2540    0.0000 C   0  0  0  0  0  0  0  0  0  0  0  0
   -0.9080   -2.2661    0.0000 O   0  0  0  0  0  0  0  0  0  0  0  0
    1.1288   -0.4291    0.0000 N   0  0  0  0  0  0  0  0  0  0  0  0
    4.0407    0.1540    0.0000 C   0  0  0  0  0  0  0  0  0  0  0  0
    0.5540    1.8912    0.0000 C   0  0  0  0  0  0  0  0  0  0  0  0
   -3.4448   -1.6913    0.0000 C   0  0  0  0  0  0  0  0  0  0  0  0
    4.8737    1.9785    0.0000 C   0  0  0  0  0  0  0  0  0  0  0  0
   -0.3333    2.2786    0.0000 O   0  0  0  0  0  0  0  0  0  0  0  0
   -3.9614   -2.5410    0.0000 C   0  0  0  0  0  0  0  0  0  0  0  0
   -3.9322   -0.8040    0.0000 C   0  0  0  0  0  0  0  0  0  0  0  0
    5.0361    0.2415    0.0000 C   0  0  0  0  0  0  0  0  0  0  0  0
   -5.4569   -1.6287    0.0000 C   0  0  0  0  0  0  0  0  0  0  0  0
   -4.9445   -0.7833    0.0000 C   0  0  0  0  0  0  0  0  0  0  0  0
   -4.9737   -2.5203    0.0000 C   0  0  0  0  0  0  0  0  0  0  0  0
    5.4487    1.1580    0.0000 C   0  0  3  0  0  0  0  0  0  0  0  0
   -6.4400   -1.5913    0.0000 Cl  0  0  0  0  0  0  0  0  0  0  0  0
   -0.0624   -0.6708    0.0000 C   0  0  0  0  0  0  0  0  0  0  0  0
    0.6623    0.9163    0.0000 C   0  0  0  0  0  0  0  0  0  0  0  0
   -0.1582    0.3290    0.0000 C   0  0  0  0  0  0  0  0  0  0  0  0
    6.4400    1.2538    0.0000 C   0  0  0  0  0  0  0  0  0  0  0  0
  1  2  2  0  0  0  0
  2  3  1  0  0  0  0
  4  5  1  0  0  0  0
  3  4  2  0  0  0  0
  1  5  1  0  0  0  0
  6 11  2  0  0  0  0
  6  7  1  0  0  0  0
  8 12  1  0  0  0  0
  7  8  2  0  0  0  0
  1  9  1  0  0  0  0
  2 10  1  0  0  0  0
 11 27  1  0  0  0  0
 11 12  1  0  0  0  0
 10 13  3  0  0  0  0
  3 14  1  0  0  0  0
  9 15  1  0  0  0  0
  7 16  1  0  0  0  0
  4 17  1  0  0  0  0
 15 18  2  0  0  0  0
 16 19  2  0  0  0  0
 16 20  1  0  0  0  0
 14 21  1  0  0  0  0
 22 23  1  0  0  0  0
 20 23  2  0  0  0  0
 19 24  1  0  0  0  0
 22 24  2  0  0  0  0
 17 25  1  0  0  0  0
 21 25  1  0  0  0  0
 22 26  1  0  0  0  0
 27 29  1  0  0  0  0
 15 28  1  0  0  0  0
 28 29  1  0  0  0  0
 25 30  1  0  0  0  0
M  END
> <IDNUMBER>
D321-0469

> <available>
97

> <H_acceptor>
6

> <H_donor>
1

> <B_rotN>
8

> <N_O>
6

> <logP>
5.4789

> <logD>
4.1657

> <logSw>
-6.1582

> <PSA>
71.23

> <pKa_ma>
6.1085

> <pKa_mb>
-3.8515

> <N_Chirals>
1

> <Name>
4-[3-(4-chlorophenyl)-1,2,4-oxadiazol-5-yl]-N-(3-cyano-6-methyl-4,5,6,7-tetrahydro-1-benzothiophen-2-yl)butanamide

> <Smile>
CC(CC1)Cc2c1c(C#N)c(NC(CCCc1nc(-c(cc3)ccc3Cl)no1)=O)s2

> <Color>
NOT COLORED

> <Collection>
DC

> <InChI>
InChI=1S/C22H21ClN4O2S/c1-13-5-10-16-17(12-24)22(30-18(16)11-13)25-19(28)3-2-4-20-26-21(27-29-20)14-6-8-15(23)9-7-14/h6-9,13H,2-5,10-11H2,1H3,(H,25,28)/t13-/m1/s1

> <InChI Key>
WEKULDGCPFUSPF-CYBMUJFWSA-N

> <PERCENTSP3>
36.4

> <Link>
https://www.chemdiv.com/catalog/screening-compounds/compound-D321-0469/

> <MFCDNUMBER>
MFCD14819089

> <CLNUMBER>
CL5000

> <STEREO>
RACEMIC MIXTURE

> <State>
Solid

> <Similarity score>
0.20

$$$$
2-({3-fluoro-3-[3-(pyridin-4-yl)-1,2,4-oxadiazol-5-yl]piperidin-1-yl}methyl)-6-m
  -OEChem-04222410502D

 27 30  0     0  0  0  0  0  0999 V2000
   -0.1395    2.2389    0.0000 N   0  0  0  0  0  0  0  0  0  0  0  0
    0.8444    2.3955    0.0000 C   0  0  0  0  0  0  0  0  0  0  0  0
   -0.5907    3.1320    0.0000 C   0  0  0  0  0  0  0  0  0  0  0  0
    1.5528    1.6906    0.0000 C   0  0  3  0  0  0  0  0  0  0  0  0
    0.1051    3.8338    0.0000 N   0  0  0  0  0  0  0  0  0  0  0  0
    0.9980    3.3763    0.0000 O   0  0  0  0  0  0  0  0  0  0  0  0
    3.0567    0.8256    0.0000 N   0  0  0  0  0  0  0  0  0  0  0  0
    3.5549   -1.7751    0.0000 N   0  0  0  0  0  0  0  0  0  0  0  0
    2.0510    0.8256    0.0000 C   0  0  0  0  0  0  0  0  0  0  0  0
    3.0567   -2.6431    0.0000 C   0  0  0  0  0  0  0  0  0  0  0  0
   -1.5776    3.2790    0.0000 C   0  0  0  0  0  0  0  0  0  0  0  0
    3.0567   -0.9104    0.0000 C   0  0  0  0  0  0  0  0  0  0  0  0
    3.5549   -0.0454    0.0000 C   0  0  0  0  0  0  0  0  0  0  0  0
    1.1671    0.7598    0.0000 F   0  0  0  0  0  0  0  0  0  0  0  0
   -3.5549    3.5988    0.0000 N   0  0  0  0  0  0  0  0  0  0  0  0
    2.0510    2.5554    0.0000 C   0  0  0  0  0  0  0  0  0  0  0  0
    3.5549   -3.5081    0.0000 O   0  0  0  0  0  0  0  0  0  0  0  0
    3.5549    1.6906    0.0000 C   0  0  0  0  0  0  0  0  0  0  0  0
    3.0567    2.5554    0.0000 C   0  0  0  0  0  0  0  0  0  0  0  0
    1.5528   -1.7751    0.0000 C   0  0  0  0  0  0  0  0  0  0  0  0
    2.0510   -2.6431    0.0000 C   0  0  0  0  0  0  0  0  0  0  0  0
   -3.1977    2.6587    0.0000 C   0  0  0  0  0  0  0  0  0  0  0  0
   -2.9250    4.3728    0.0000 C   0  0  0  0  0  0  0  0  0  0  0  0
    2.0510   -0.9104    0.0000 C   0  0  0  0  0  0  0  0  0  0  0  0
   -1.9381    4.2192    0.0000 C   0  0  0  0  0  0  0  0  0  0  0  0
   -2.2076    2.5116    0.0000 C   0  0  0  0  0  0  0  0  0  0  0  0
    3.0567   -4.3728    0.0000 C   0  0  0  0  0  0  0  0  0  0  0  0
  1  2  2  0  0  0  0
  1  3  1  0  0  0  0
  2  4  1  0  0  0  0
  3  5  2  0  0  0  0
  5  6  1  0  0  0  0
  2  6  1  0  0  0  0
  7  9  1  0  0  0  0
  8 12  2  0  0  0  0
  4  9  1  0  0  0  0
  8 10  1  0  0  0  0
  3 11  1  0  0  0  0
 12 13  1  0  0  0  0
  7 13  1  0  0  0  0
  4 14  1  0  0  0  0
 15 22  1  0  0  0  0
 15 23  2  0  0  0  0
  4 16  1  0  0  0  0
 10 17  1  0  0  0  0
 18 19  1  0  0  0  0
  7 18  1  0  0  0  0
 16 19  1  0  0  0  0
 20 24  2  0  0  0  0
 20 21  1  0  0  0  0
 10 21  2  0  0  0  0
 22 26  2  0  0  0  0
 23 25  1  0  0  0  0
 12 24  1  0  0  0  0
 11 25  2  0  0  0  0
 11 26  1  0  0  0  0
 17 27  1  0  0  0  0
M  END
> <IDNUMBER>
SA92-0282

> <available>
35

> <H_acceptor>
7

> <H_donor>
0

> <B_rotN>
5

> <N_O>
7

> <logP>
2.8635

> <logD>
2.5807

> <logSw>
-2.837

> <PSA>
61.294

> <pKa_ma>
26.9519

> <pKa_mb>
7.3627

> <N_Chirals>
1

> <Name>
2-({3-fluoro-3-[3-(pyridin-4-yl)-1,2,4-oxadiazol-5-yl]piperidin-1-yl}methyl)-6-methoxypyridine

> <Smile>
COc1cccc(CN(CCC2)CC2(c2nc(-c3ccncc3)no2)F)n1

> <Color>
BROWN

> <Collection>
IC

> <InChI>
InChI=1S/C19H20FN5O2/c1-26-16-5-2-4-15(22-16)12-25-11-3-8-19(20,13-25)18-23-17(24-27-18)14-6-9-21-10-7-14/h2,4-7,9-10H,3,8,11-13H2,1H3/t19-/m0/s1

> <InChI Key>
GCMWKYPPKPEIQH-IBGZPJMESA-N

> <PERCENTSP3>
36.84

> <Link>
https://www.chemdiv.com/catalog/screening-compounds/compound-SA92-0282/

> <MFCDNUMBER>
MFCD32242463

> <CLNUMBER>
CM4899

> <STEREO>
RACEMIC MIXTURE

> <State>
Oil

> <Similarity score>
0.20

$$$$
2-amino-6-methyl-4,5,6,7-tetrahydro-1-benzothiophene-3-carbonitrile
  -OEChem-04222410502D

 13 14  0     0  0  0  0  0  0999 V2000
    1.1928    0.2240    0.0000 C   0  0  0  0  0  0  0  0  0  0  0  0
    1.1928   -0.7084    0.0000 C   0  0  0  0  0  0  0  0  0  0  0  0
   -0.4331    0.2240    0.0000 C   0  0  0  0  0  0  0  0  0  0  0  0
   -0.4331   -0.7084    0.0000 C   0  0  0  0  0  0  0  0  0  0  0  0
    0.3787   -1.1700    0.0000 S   0  0  0  0  0  0  0  0  0  0  0  0
    2.0543    0.7163    0.0000 C   0  0  0  0  0  0  0  0  0  0  0  0
    2.9181    1.2102    0.0000 N   0  0  0  0  0  0  0  0  0  0  0  0
   -1.2449    0.6761    0.0000 C   0  0  0  0  0  0  0  0  0  0  0  0
   -1.2449   -1.1700    0.0000 C   0  0  0  0  0  0  0  0  0  0  0  0
    2.0543   -1.2102    0.0000 N   0  0  0  0  0  0  0  0  0  0  0  0
   -2.0567    0.2240    0.0000 C   0  0  0  0  0  0  0  0  0  0  0  0
   -2.0567   -0.7084    0.0000 C   0  0  3  0  0  0  0  0  0  0  0  0
   -2.9181   -1.2102    0.0000 C   0  0  0  0  0  0  0  0  0  0  0  0
  1  2  2  0  0  0  0
  1  3  1  0  0  0  0
  3  4  2  0  0  0  0
  4  5  1  0  0  0  0
  2  5  1  0  0  0  0
  1  6  1  0  0  0  0
  6  7  3  0  0  0  0
  3  8  1  0  0  0  0
  4  9  1  0  0  0  0
  9 12  1  0  0  0  0
  2 10  1  0  0  0  0
  8 11  1  0  0  0  0
 11 12  1  0  0  0  0
 12 13  1  0  0  0  0
M  END
> <IDNUMBER>
8002-2657

> <available>
19

> <H_acceptor>
1

> <H_donor>
2

> <B_rotN>
1

> <N_O>
2

> <logP>
2.5802

> <logD>
2.5802

> <logSw>
-2.7257

> <PSA>
38.492

> <pKa_ma>
15.9936

> <pKa_mb>
-2.1439

> <N_Chirals>
1

> <Name>
2-amino-6-methyl-4,5,6,7-tetrahydro-1-benzothiophene-3-carbonitrile

> <Smile>
CC(CC1)Cc2c1c(C#N)c(N)s2

> <Color>
NOT COLORED

> <Collection>
DC

> <InChI>
InChI=1S/C10H12N2S/c1-6-2-3-7-8(5-11)10(12)13-9(7)4-6/h6H,2-4,12H2,1H3/t6-/m1/s1

> <InChI Key>
VDMBPDMXBJUYMB-ZCFIWIBFSA-N

> <PERCENTSP3>
50

> <Link>
https://www.chemdiv.com/catalog/screening-compounds/compound-8002-2657/

> <MFCDNUMBER>
MFCD00128282

> <STEREO>
RACEMIC MIXTURE

> <State>
Solid

> <Similarity score>
0.20

$$$$
2-amino-7-methoxy-4,5-dihydronaphtho[2,1-b]thiophene-1-carbonitrile
  -OEChem-04222410502D

 18 20  0     0  0  0  0  0  0999 V2000
    1.8553    0.0355    0.0000 C   0  0  0  0  0  0  0  0  0  0  0  0
    0.9640   -0.4268    0.0000 C   0  0  0  0  0  0  0  0  0  0  0  0
    2.5632   -0.6642    0.0000 C   0  0  0  0  0  0  0  0  0  0  0  0
    1.1348   -1.4180    0.0000 C   0  0  0  0  0  0  0  0  0  0  0  0
    2.1426   -1.5428    0.0000 S   0  0  0  0  0  0  0  0  0  0  0  0
    0.0439   -0.1103    0.0000 C   0  0  0  0  0  0  0  0  0  0  0  0
    1.9802    1.0349    0.0000 C   0  0  0  0  0  0  0  0  0  0  0  0
   -0.7267   -0.7559    0.0000 C   0  0  0  0  0  0  0  0  0  0  0  0
    2.1176    2.0550    0.0000 N   0  0  0  0  0  0  0  0  0  0  0  0
   -0.1270    0.8724    0.0000 C   0  0  0  0  0  0  0  0  0  0  0  0
    0.3645   -2.0550    0.0000 C   0  0  0  0  0  0  0  0  0  0  0  0
   -1.6637   -0.4102    0.0000 C   0  0  0  0  0  0  0  0  0  0  0  0
   -0.5558   -1.7178    0.0000 C   0  0  0  0  0  0  0  0  0  0  0  0
    3.5709   -0.4976    0.0000 N   0  0  0  0  0  0  0  0  0  0  0  0
   -1.8426    0.5644    0.0000 C   0  0  0  0  0  0  0  0  0  0  0  0
   -1.0556    1.2097    0.0000 C   0  0  0  0  0  0  0  0  0  0  0  0
   -2.8088    0.9099    0.0000 O   0  0  0  0  0  0  0  0  0  0  0  0
   -3.5709    0.2728    0.0000 C   0  0  0  0  0  0  0  0  0  0  0  0
  1  2  1  0  0  0  0
  1  3  2  0  0  0  0
  2  4  2  0  0  0  0
  4  5  1  0  0  0  0
  3  5  1  0  0  0  0
  2  6  1  0  0  0  0
  1  7  1  0  0  0  0
  6  8  1  0  0  0  0
  7  9  3  0  0  0  0
  6 10  2  0  0  0  0
  4 11  1  0  0  0  0
  8 12  2  0  0  0  0
 12 15  1  0  0  0  0
  8 13  1  0  0  0  0
 11 13  1  0  0  0  0
  3 14  1  0  0  0  0
 15 16  2  0  0  0  0
 10 16  1  0  0  0  0
 15 17  1  0  0  0  0
 17 18  1  0  0  0  0
M  END
> <IDNUMBER>
Y203-3906

> <available>
14

> <H_acceptor>
2

> <H_donor>
2

> <B_rotN>
2

> <N_O>
3

> <logP>
3.1388

> <logD>
3.1388

> <logSw>
-3.3986

> <PSA>
45.764

> <pKa_ma>
19.2967

> <pKa_mb>
-4.5006

> <N_Chirals>
0

> <Name>
2-amino-7-methoxy-4,5-dihydronaphtho[2,1-b]thiophene-1-carbonitrile

> <Smile>
COc(cc1)cc(CC2)c1-c1c2sc(N)c1C#N

> <Color>
BROWN

> <Collection>
DC

> <InChI>
InChI=1S/C14H12N2OS/c1-17-9-3-4-10-8(6-9)2-5-12-13(10)11(7-15)14(16)18-12/h3-4,6H,2,5,16H2,1H3

> <InChI Key>
DARFGQSXUDRHIP-UHFFFAOYSA-N

> <PERCENTSP3>
21.43

> <Link>
https://www.chemdiv.com/catalog/screening-compounds/compound-Y203-3906/

> <MFCDNUMBER>
MFCD02853930

> <STEREO>
ACHIRAL

> <State>
Solid

> <Similarity score>
0.20

$$$$
4-[3-(2-chlorophenyl)-1,2,4-oxadiazol-5-yl]-N-(3-cyano-6-methyl-4,5,6,7-tetrahyd
  -OEChem-04222410502D

 30 33  0     0  0  0  0  0  0999 V2000
    1.7822    2.0654    0.0000 C   0  0  0  0  0  0  0  0  0  0  0  0
    1.9947    1.0661    0.0000 C   0  0  0  0  0  0  0  0  0  0  0  0
   -2.9272   -1.7074    0.0000 C   0  0  0  0  0  0  0  0  0  0  0  0
    2.9691    0.9660    0.0000 C   0  0  0  0  0  0  0  0  0  0  0  0
    3.3813    1.8906    0.0000 C   0  0  0  0  0  0  0  0  0  0  0  0
   -2.3151   -0.9203    0.0000 N   0  0  0  0  0  0  0  0  0  0  0  0
    2.6442    2.5401    0.0000 S   0  0  0  0  0  0  0  0  0  0  0  0
   -2.3567   -2.5401    0.0000 N   0  0  0  0  0  0  0  0  0  0  0  0
   -3.9394   -1.6907    0.0000 C   0  0  0  0  0  0  0  0  0  0  0  0
    0.8580    2.4652    0.0000 N   0  0  0  0  0  0  0  0  0  0  0  0
    1.3160    0.3165    0.0000 C   0  0  0  0  0  0  0  0  0  0  0  0
   -1.3701   -1.2535    0.0000 C   0  0  0  0  0  0  0  0  0  0  0  0
   -1.4032   -2.2653    0.0000 O   0  0  0  0  0  0  0  0  0  0  0  0
    0.6330   -0.4290    0.0000 N   0  0  0  0  0  0  0  0  0  0  0  0
    3.5437    0.1540    0.0000 C   0  0  0  0  0  0  0  0  0  0  0  0
    0.0584    1.8906    0.0000 C   0  0  0  0  0  0  0  0  0  0  0  0
    4.3806    1.9780    0.0000 C   0  0  0  0  0  0  0  0  0  0  0  0
   -4.4180   -0.8039    0.0000 C   0  0  0  0  0  0  0  0  0  0  0  0
   -0.8284    2.2777    0.0000 O   0  0  0  0  0  0  0  0  0  0  0  0
    4.5389    0.2414    0.0000 C   0  0  0  0  0  0  0  0  0  0  0  0
   -3.9018    0.0459    0.0000 Cl  0  0  0  0  0  0  0  0  0  0  0  0
    4.9513    1.1575    0.0000 C   0  0  3  0  0  0  0  0  0  0  0  0
   -4.4638   -2.5401    0.0000 C   0  0  0  0  0  0  0  0  0  0  0  0
   -0.5580   -0.6705    0.0000 C   0  0  0  0  0  0  0  0  0  0  0  0
    0.1666    0.9160    0.0000 C   0  0  0  0  0  0  0  0  0  0  0  0
   -0.6454    0.3289    0.0000 C   0  0  0  0  0  0  0  0  0  0  0  0
   -5.4300   -0.7829    0.0000 C   0  0  0  0  0  0  0  0  0  0  0  0
    5.9504    1.2535    0.0000 C   0  0  0  0  0  0  0  0  0  0  0  0
   -5.4675   -2.5193    0.0000 C   0  0  0  0  0  0  0  0  0  0  0  0
   -5.9504   -1.6282    0.0000 C   0  0  0  0  0  0  0  0  0  0  0  0
  1  2  2  0  0  0  0
  3  6  1  0  0  0  0
  2  4  1  0  0  0  0
  5  7  1  0  0  0  0
  4  5  2  0  0  0  0
  6 12  2  0  0  0  0
  1  7  1  0  0  0  0
  8 13  1  0  0  0  0
  3  8  2  0  0  0  0
  3  9  1  0  0  0  0
  1 10  1  0  0  0  0
  2 11  1  0  0  0  0
 12 24  1  0  0  0  0
 12 13  1  0  0  0  0
 11 14  3  0  0  0  0
  4 15  1  0  0  0  0
 10 16  1  0  0  0  0
  5 17  1  0  0  0  0
  9 18  1  0  0  0  0
 16 19  2  0  0  0  0
 15 20  1  0  0  0  0
 18 21  1  0  0  0  0
 17 22  1  0  0  0  0
 20 22  1  0  0  0  0
  9 23  2  0  0  0  0
 24 26  1  0  0  0  0
 16 25  1  0  0  0  0
 25 26  1  0  0  0  0
 18 27  2  0  0  0  0
 27 30  1  0  0  0  0
 22 28  1  0  0  0  0
 23 29  1  0  0  0  0
 29 30  2  0  0  0  0
M  END
> <IDNUMBER>
D321-0300

> <available>
275

> <H_acceptor>
6

> <H_donor>
1

> <B_rotN>
8

> <N_O>
6

> <logP>
5.0503

> <logD>
3.7371

> <logSw>
-5.1567

> <PSA>
71.23

> <pKa_ma>
6.1085

> <pKa_mb>
-3.8515

> <N_Chirals>
1

> <Name>
4-[3-(2-chlorophenyl)-1,2,4-oxadiazol-5-yl]-N-(3-cyano-6-methyl-4,5,6,7-tetrahydro-1-benzothiophen-2-yl)butanamide

> <Smile>
CC(CC1)Cc2c1c(C#N)c(NC(CCCc1nc(-c(cccc3)c3Cl)no1)=O)s2

> <Color>
BROWN

> <Collection>
DC

> <InChI>
InChI=1S/C22H21ClN4O2S/c1-13-9-10-14-16(12-24)22(30-18(14)11-13)25-19(28)7-4-8-20-26-21(27-29-20)15-5-2-3-6-17(15)23/h2-3,5-6,13H,4,7-11H2,1H3,(H,25,28)/t13-/m1/s1

> <InChI Key>
JEIZBYACTGUTQR-CYBMUJFWSA-N

> <PERCENTSP3>
36.4

> <Link>
https://www.chemdiv.com/catalog/screening-compounds/compound-D321-0300/

> <MFCDNUMBER>
MFCD09764499

> <CLNUMBER>
CL5000

> <STEREO>
RACEMIC MIXTURE

> <State>
Solid

> <Similarity score>
0.20

$$$$
2-({3-fluoro-3-[3-(pyridin-3-yl)-1,2,4-oxadiazol-5-yl]piperidin-1-yl}methyl)-6-m
  -OEChem-04222410502D

 27 30  0     0  0  0  0  0  0999 V2000
    0.0958   -1.3056    0.0000 N   0  0  0  0  0  0  0  0  0  0  0  0
    0.4539   -2.2427    0.0000 C   0  0  0  0  0  0  0  0  0  0  0  0
   -0.9037   -1.3639    0.0000 C   0  0  0  0  0  0  0  0  0  0  0  0
    1.4202   -2.5010    0.0000 C   0  0  3  0  0  0  0  0  0  0  0  0
   -1.1661   -2.3302    0.0000 N   0  0  0  0  0  0  0  0  0  0  0  0
   -0.3207   -2.8674    0.0000 O   0  0  0  0  0  0  0  0  0  0  0  0
    2.2822   -1.0058    0.0000 N   0  0  0  0  0  0  0  0  0  0  0  0
   -1.5326   -0.5810    0.0000 C   0  0  0  0  0  0  0  0  0  0  0  0
    1.4202    1.4973    0.0000 N   0  0  0  0  0  0  0  0  0  0  0  0
    1.4202   -1.5056    0.0000 C   0  0  0  0  0  0  0  0  0  0  0  0
    0.5539    1.9928    0.0000 C   0  0  0  0  0  0  0  0  0  0  0  0
    1.4202    0.4934    0.0000 C   0  0  0  0  0  0  0  0  0  0  0  0
   -3.1527    0.0354    0.0000 N   0  0  0  0  0  0  0  0  0  0  0  0
    2.2822   -0.0062    0.0000 C   0  0  0  0  0  0  0  0  0  0  0  0
    1.5451   -3.4921    0.0000 F   0  0  0  0  0  0  0  0  0  0  0  0
    2.2822   -3.0007    0.0000 C   0  0  0  0  0  0  0  0  0  0  0  0
   -2.5195   -0.7434    0.0000 C   0  0  0  0  0  0  0  0  0  0  0  0
    0.5539    2.9923    0.0000 O   0  0  0  0  0  0  0  0  0  0  0  0
    3.1527   -1.5056    0.0000 C   0  0  0  0  0  0  0  0  0  0  0  0
   -1.1786    0.3478    0.0000 C   0  0  0  0  0  0  0  0  0  0  0  0
    3.1527   -2.5010    0.0000 C   0  0  0  0  0  0  0  0  0  0  0  0
   -0.3166    0.4934    0.0000 C   0  0  0  0  0  0  0  0  0  0  0  0
   -0.3166    1.4973    0.0000 C   0  0  0  0  0  0  0  0  0  0  0  0
   -2.7903    0.9683    0.0000 C   0  0  0  0  0  0  0  0  0  0  0  0
    0.5539   -0.0062    0.0000 C   0  0  0  0  0  0  0  0  0  0  0  0
   -0.3166    3.4921    0.0000 C   0  0  0  0  0  0  0  0  0  0  0  0
   -1.8033    1.1224    0.0000 C   0  0  0  0  0  0  0  0  0  0  0  0
  1  2  2  0  0  0  0
  1  3  1  0  0  0  0
  2  4  1  0  0  0  0
  3  5  2  0  0  0  0
  5  6  1  0  0  0  0
  2  6  1  0  0  0  0
  7 10  1  0  0  0  0
  7 19  1  0  0  0  0
  3  8  1  0  0  0  0
  9 12  2  0  0  0  0
  4 10  1  0  0  0  0
  9 11  1  0  0  0  0
 11 23  2  0  0  0  0
 12 14  1  0  0  0  0
 13 17  2  0  0  0  0
 13 24  1  0  0  0  0
  7 14  1  0  0  0  0
  4 15  1  0  0  0  0
  4 16  1  0  0  0  0
  8 17  1  0  0  0  0
 11 18  1  0  0  0  0
 19 21  1  0  0  0  0
  8 20  2  0  0  0  0
 16 21  1  0  0  0  0
 22 25  2  0  0  0  0
 22 23  1  0  0  0  0
 24 27  2  0  0  0  0
 12 25  1  0  0  0  0
 18 26  1  0  0  0  0
 20 27  1  0  0  0  0
M  END
> <IDNUMBER>
SA92-0603

> <available>
65

> <H_acceptor>
7

> <H_donor>
0

> <B_rotN>
5

> <N_O>
7

> <logP>
2.6319

> <logD>
1.9932

> <logSw>
-2.3518

> <PSA>
61.383

> <pKa_ma>
26.9519

> <pKa_mb>
7.9253

> <N_Chirals>
1

> <Name>
2-({3-fluoro-3-[3-(pyridin-3-yl)-1,2,4-oxadiazol-5-yl]piperidin-1-yl}methyl)-6-methoxypyridine

> <Smile>
COc1cccc(CN(CCC2)CC2(c2nc(-c3cnccc3)no2)F)n1

> <Color>
BROWN

> <Collection>
IC

> <InChI>
InChI=1S/C19H20FN5O2/c1-26-16-7-2-6-15(22-16)12-25-10-4-8-19(20,13-25)18-23-17(24-27-18)14-5-3-9-21-11-14/h2-3,5-7,9,11H,4,8,10,12-13H2,1H3/t19-/m0/s1

> <InChI Key>
UCLWADBLORRJDC-IBGZPJMESA-N

> <PERCENTSP3>
36.84

> <Link>
https://www.chemdiv.com/catalog/screening-compounds/compound-SA92-0603/

> <MFCDNUMBER>
MFCD32243092

> <CLNUMBER>
CM4899

> <STEREO>
RACEMIC MIXTURE

> <State>
Liquid

> <Similarity score>
0.20

$$$$
2-amino-6-tert-butyl-4,5,6,7-tetrahydro-1-benzothiophene-3-carbonitrile
  -OEChem-04222410502D

 16 17  0     0  0  0  0  0  0999 V2000
    1.4271    0.4072    0.0000 C   0  0  0  0  0  0  0  0  0  0  0  0
    1.9993   -0.4100    0.0000 C   0  0  0  0  0  0  0  0  0  0  0  0
    0.4664   -0.9057    0.0000 C   0  0  0  0  0  0  0  0  0  0  0  0
    0.4664    0.1106    0.0000 C   0  0  0  0  0  0  0  0  0  0  0  0
    1.4271   -1.2203    0.0000 S   0  0  0  0  0  0  0  0  0  0  0  0
    1.7528    1.3386    0.0000 C   0  0  0  0  0  0  0  0  0  0  0  0
   -0.3996   -1.4208    0.0000 C   0  0  0  0  0  0  0  0  0  0  0  0
    2.0786    2.2687    0.0000 N   0  0  0  0  0  0  0  0  0  0  0  0
   -0.3996    0.6063    0.0000 C   0  0  0  0  0  0  0  0  0  0  0  0
   -1.2655   -0.9057    0.0000 C   0  0  3  0  0  0  0  0  0  0  0  0
   -2.1343   -1.4027    0.0000 C   0  0  0  0  0  0  0  0  0  0  0  0
    2.9934   -0.4100    0.0000 N   0  0  0  0  0  0  0  0  0  0  0  0
   -1.2655    0.1106    0.0000 C   0  0  0  0  0  0  0  0  0  0  0  0
   -2.9934   -1.8831    0.0000 C   0  0  0  0  0  0  0  0  0  0  0  0
   -1.6372   -2.2687    0.0000 C   0  0  0  0  0  0  0  0  0  0  0  0
   -2.6313   -0.5340    0.0000 C   0  0  0  0  0  0  0  0  0  0  0  0
  1  2  2  0  0  0  0
  3  4  2  0  0  0  0
  3  5  1  0  0  0  0
  1  4  1  0  0  0  0
  2  5  1  0  0  0  0
  1  6  1  0  0  0  0
  3  7  1  0  0  0  0
  6  8  3  0  0  0  0
  4  9  1  0  0  0  0
 10 13  1  0  0  0  0
 10 11  1  0  0  0  0
  7 10  1  0  0  0  0
 11 14  1  0  0  0  0
  2 12  1  0  0  0  0
  9 13  1  0  0  0  0
 11 15  1  0  0  0  0
 11 16  1  0  0  0  0
M  END
> <IDNUMBER>
8010-3876

> <available>
13

> <H_acceptor>
1

> <H_donor>
2

> <B_rotN>
2

> <N_O>
2

> <logP>
3.7035

> <logD>
3.7035

> <logSw>
-4.2816

> <PSA>
38.492

> <pKa_ma>
15.9936

> <pKa_mb>
-2.1439

> <N_Chirals>
1

> <Name>
2-amino-6-tert-butyl-4,5,6,7-tetrahydro-1-benzothiophene-3-carbonitrile

> <Smile>
CC(C)(C)C(CC1)Cc2c1c(C#N)c(N)s2

> <Color>
NOT COLORED

> <Collection>
DC

> <InChI>
InChI=1S/C13H18N2S/c1-13(2,3)8-4-5-9-10(7-14)12(15)16-11(9)6-8/h8H,4-6,15H2,1-3H3/t8-/m1/s1

> <InChI Key>
QDIYAWBTKKYATE-MRVPVSSYSA-N

> <PERCENTSP3>
61.5

> <Link>
https://www.chemdiv.com/catalog/screening-compounds/compound-8010-3876/

> <MFCDNUMBER>
MFCD00128283

> <STEREO>
RACEMIC MIXTURE

> <State>
Solid

> <Similarity score>
0.20

$$$$
N-(3-cyano-6-methyl-4,5,6,7-tetrahydro-1-benzothiophen-2-yl)-2-[(4-methylpyrimid
  -OEChem-04222410502D

 24 26  0     0  0  0  0  0  0999 V2000
    1.9234   -0.2854    0.0000 C   0  0  0  0  0  0  0  0  0  0  0  0
    2.8402   -0.6898    0.0000 C   0  0  0  0  0  0  0  0  0  0  0  0
    3.5071    0.0602    0.0000 C   0  0  0  0  0  0  0  0  0  0  0  0
    3.0111    0.9148    0.0000 C   0  0  0  0  0  0  0  0  0  0  0  0
    2.0276    0.7104    0.0000 S   0  0  0  0  0  0  0  0  0  0  0  0
    1.0564   -0.7856    0.0000 N   0  0  0  0  0  0  0  0  0  0  0  0
    3.0403   -1.6650    0.0000 C   0  0  0  0  0  0  0  0  0  0  0  0
   -2.4069   -0.7856    0.0000 C   0  0  0  0  0  0  0  0  0  0  0  0
   -3.2737   -0.2854    0.0000 N   0  0  0  0  0  0  0  0  0  0  0  0
    3.2529   -2.6485    0.0000 N   0  0  0  0  0  0  0  0  0  0  0  0
    0.1937   -0.2854    0.0000 C   0  0  0  0  0  0  0  0  0  0  0  0
    4.5115    0.0602    0.0000 C   0  0  0  0  0  0  0  0  0  0  0  0
   -2.4069   -1.7817    0.0000 N   0  0  0  0  0  0  0  0  0  0  0  0
    3.5071    1.7816    0.0000 C   0  0  0  0  0  0  0  0  0  0  0  0
   -1.5401   -0.2854    0.0000 S   0  0  0  0  0  0  0  0  0  0  0  0
    0.1937    0.7272    0.0000 O   0  0  0  0  0  0  0  0  0  0  0  0
   -4.1364   -0.7856    0.0000 C   0  0  0  0  0  0  0  0  0  0  0  0
   -0.6732   -0.7856    0.0000 C   0  0  0  0  0  0  0  0  0  0  0  0
   -3.2737   -2.2819    0.0000 C   0  0  0  0  0  0  0  0  0  0  0  0
    5.0075    0.9148    0.0000 C   0  0  0  0  0  0  0  0  0  0  0  0
   -4.1364   -1.7817    0.0000 C   0  0  0  0  0  0  0  0  0  0  0  0
    4.5115    1.7816    0.0000 C   0  0  3  0  0  0  0  0  0  0  0  0
   -5.0075   -0.2854    0.0000 C   0  0  0  0  0  0  0  0  0  0  0  0
    5.0075    2.6485    0.0000 C   0  0  0  0  0  0  0  0  0  0  0  0
  1  2  2  0  0  0  0
  2  3  1  0  0  0  0
  4  5  1  0  0  0  0
  3  4  2  0  0  0  0
  1  5  1  0  0  0  0
  1  6  1  0  0  0  0
  2  7  1  0  0  0  0
  8 15  1  0  0  0  0
  8  9  1  0  0  0  0
  7 10  3  0  0  0  0
  6 11  1  0  0  0  0
  3 12  1  0  0  0  0
  8 13  2  0  0  0  0
  4 14  1  0  0  0  0
 15 18  1  0  0  0  0
 11 16  2  0  0  0  0
  9 17  2  0  0  0  0
 11 18  1  0  0  0  0
 13 19  1  0  0  0  0
 12 20  1  0  0  0  0
 19 21  2  0  0  0  0
 17 21  1  0  0  0  0
 14 22  1  0  0  0  0
 20 22  1  0  0  0  0
 17 23  1  0  0  0  0
 22 24  1  0  0  0  0
M  END
> <IDNUMBER>
Y205-9572

> <available>
15

> <H_acceptor>
6

> <H_donor>
1

> <B_rotN>
6

> <N_O>
5

> <logP>
3.4889

> <logD>
2.4562

> <logSw>
-3.9517

> <PSA>
57.419

> <pKa_ma>
6.4095

> <pKa_mb>
0.036

> <N_Chirals>
1

> <Name>
N-(3-cyano-6-methyl-4,5,6,7-tetrahydro-1-benzothiophen-2-yl)-2-[(4-methylpyrimidin-2-yl)sulfanyl]acetamide

> <Smile>
CC(CC1)Cc2c1c(C#N)c(NC(CSc1nc(C)ccn1)=O)s2

> <Color>
YELLOW

> <Collection>
DC

> <InChI>
InChI=1S/C17H18N4OS2/c1-10-3-4-12-13(8-18)16(24-14(12)7-10)21-15(22)9-23-17-19-6-5-11(2)20-17/h5-6,10H,3-4,7,9H2,1-2H3,(H,21,22)/t10-/m1/s1

> <InChI Key>
GQRWEEVSTZMFDM-SNVBAGLBSA-N

> <PERCENTSP3>
41.18

> <Link>
https://www.chemdiv.com/catalog/screening-compounds/compound-Y205-9572/

> <MFCDNUMBER>
MFCD07048720

> <STEREO>
RACEMIC MIXTURE

> <State>
Solid

> <Similarity score>
0.20

$$$$
2-amino-6-ethyl-4,5,6,7-tetrahydro-1-benzothiophene-3-carbonitrile
  -OEChem-04222410502D

 14 15  0     0  0  0  0  0  0999 V2000
    1.2479   -0.1146    0.0000 C   0  0  0  0  0  0  0  0  0  0  0  0
    0.9189   -1.0647    0.0000 C   0  0  0  0  0  0  0  0  0  0  0  0
    0.4271    0.4772    0.0000 C   0  0  0  0  0  0  0  0  0  0  0  0
   -0.3604   -0.1146    0.0000 C   0  0  0  0  0  0  0  0  0  0  0  0
   -0.0646   -1.0647    0.0000 S   0  0  0  0  0  0  0  0  0  0  0  0
    2.1856    0.1812    0.0000 C   0  0  0  0  0  0  0  0  0  0  0  0
    3.1233    0.4772    0.0000 N   0  0  0  0  0  0  0  0  0  0  0  0
    0.3271    1.4606    0.0000 C   0  0  0  0  0  0  0  0  0  0  0  0
   -1.2813    0.3146    0.0000 C   0  0  0  0  0  0  0  0  0  0  0  0
    1.5440   -1.8898    0.0000 N   0  0  0  0  0  0  0  0  0  0  0  0
   -0.5605    1.8898    0.0000 C   0  0  0  0  0  0  0  0  0  0  0  0
   -1.4148    1.2980    0.0000 C   0  0  3  0  0  0  0  0  0  0  0  0
   -2.3357    1.6606    0.0000 C   0  0  0  0  0  0  0  0  0  0  0  0
   -3.1233    1.0355    0.0000 C   0  0  0  0  0  0  0  0  0  0  0  0
  1  2  2  0  0  0  0
  1  3  1  0  0  0  0
  3  4  2  0  0  0  0
  4  5  1  0  0  0  0
  2  5  1  0  0  0  0
  1  6  1  0  0  0  0
  6  7  3  0  0  0  0
  3  8  1  0  0  0  0
  4  9  1  0  0  0  0
  9 12  1  0  0  0  0
  2 10  1  0  0  0  0
  8 11  1  0  0  0  0
 11 12  1  0  0  0  0
 12 13  1  0  0  0  0
 13 14  1  0  0  0  0
M  END
> <IDNUMBER>
Y503-0029

> <available>
19

> <H_acceptor>
1

> <H_donor>
2

> <B_rotN>
2

> <N_O>
2

> <logP>
3.1257

> <logD>
3.1257

> <logSw>
-3.2209

> <PSA>
38.492

> <pKa_ma>
15.9936

> <pKa_mb>
-2.1439

> <N_Chirals>
1

> <Name>
2-amino-6-ethyl-4,5,6,7-tetrahydro-1-benzothiophene-3-carbonitrile

> <Smile>
CCC(CC1)Cc2c1c(C#N)c(N)s2

> <Color>
ORANGE

> <Collection>
DC

> <InChI>
InChI=1S/C11H14N2S/c1-2-7-3-4-8-9(6-12)11(13)14-10(8)5-7/h7H,2-5,13H2,1H3/t7-/m1/s1

> <InChI Key>
UJSSIVVJQQNBCO-SSDOTTSWSA-N

> <PERCENTSP3>
54.55

> <Link>
https://www.chemdiv.com/catalog/screening-compounds/compound-Y503-0029/

> <MFCDNUMBER>
MFCD01114964

> <STEREO>
RACEMIC MIXTURE

> <State>
Solid

> <Similarity score>
0.20

$$$$
2-{[3-fluoro-3-(3-phenyl-1,2,4-oxadiazol-5-yl)piperidin-1-yl]methyl}-6-methoxypy
  -OEChem-04222410502D

 27 30  0     0  0  0  0  0  0999 V2000
    0.1362    2.2426    0.0000 N   0  0  0  0  0  0  0  0  0  0  0  0
   -0.8566    2.3994    0.0000 C   0  0  0  0  0  0  0  0  0  0  0  0
    0.5905    3.1356    0.0000 C   0  0  0  0  0  0  0  0  0  0  0  0
   -1.5551    1.6946    0.0000 C   0  0  3  0  0  0  0  0  0  0  0  0
   -0.1176    3.8371    0.0000 N   0  0  0  0  0  0  0  0  0  0  0  0
   -1.0070    3.3798    0.0000 O   0  0  0  0  0  0  0  0  0  0  0  0
   -3.0587    0.8238    0.0000 N   0  0  0  0  0  0  0  0  0  0  0  0
   -3.5568   -1.7728    0.0000 N   0  0  0  0  0  0  0  0  0  0  0  0
   -2.0627    0.8238    0.0000 C   0  0  0  0  0  0  0  0  0  0  0  0
   -3.0587   -2.6376    0.0000 C   0  0  0  0  0  0  0  0  0  0  0  0
    1.5772    3.2827    0.0000 C   0  0  0  0  0  0  0  0  0  0  0  0
   -3.0587   -0.9083    0.0000 C   0  0  0  0  0  0  0  0  0  0  0  0
   -3.5568   -0.0438    0.0000 C   0  0  0  0  0  0  0  0  0  0  0  0
   -1.1763    0.7644    0.0000 F   0  0  0  0  0  0  0  0  0  0  0  0
   -2.0627    2.5591    0.0000 C   0  0  0  0  0  0  0  0  0  0  0  0
   -3.5568   -3.5081    0.0000 O   0  0  0  0  0  0  0  0  0  0  0  0
   -3.5568    1.6946    0.0000 C   0  0  0  0  0  0  0  0  0  0  0  0
   -3.0587    2.5591    0.0000 C   0  0  0  0  0  0  0  0  0  0  0  0
   -1.5551   -1.7728    0.0000 C   0  0  0  0  0  0  0  0  0  0  0  0
   -2.0627   -2.6376    0.0000 C   0  0  0  0  0  0  0  0  0  0  0  0
   -2.0627   -0.9083    0.0000 C   0  0  0  0  0  0  0  0  0  0  0  0
    1.9341    4.2223    0.0000 C   0  0  0  0  0  0  0  0  0  0  0  0
    2.2068    2.5120    0.0000 C   0  0  0  0  0  0  0  0  0  0  0  0
   -3.0587   -4.3759    0.0000 C   0  0  0  0  0  0  0  0  0  0  0  0
    2.9272    4.3759    0.0000 C   0  0  0  0  0  0  0  0  0  0  0  0
    3.1996    2.6625    0.0000 C   0  0  0  0  0  0  0  0  0  0  0  0
    3.5568    3.6022    0.0000 C   0  0  0  0  0  0  0  0  0  0  0  0
  1  2  2  0  0  0  0
  1  3  1  0  0  0  0
  2  4  1  0  0  0  0
  3  5  2  0  0  0  0
  5  6  1  0  0  0  0
  2  6  1  0  0  0  0
  7  9  1  0  0  0  0
  8 12  2  0  0  0  0
  4  9  1  0  0  0  0
  8 10  1  0  0  0  0
  3 11  1  0  0  0  0
 12 13  1  0  0  0  0
  7 13  1  0  0  0  0
  4 14  1  0  0  0  0
  4 15  1  0  0  0  0
 10 16  1  0  0  0  0
 17 18  1  0  0  0  0
  7 17  1  0  0  0  0
 15 18  1  0  0  0  0
 19 21  2  0  0  0  0
 19 20  1  0  0  0  0
 10 20  2  0  0  0  0
 12 21  1  0  0  0  0
 11 22  2  0  0  0  0
 11 23  1  0  0  0  0
 16 24  1  0  0  0  0
 22 25  1  0  0  0  0
 23 26  2  0  0  0  0
 26 27  1  0  0  0  0
 25 27  2  0  0  0  0
M  END
> <IDNUMBER>
SA92-0077

> <available>
49

> <H_acceptor>
6

> <H_donor>
0

> <B_rotN>
5

> <N_O>
6

> <logP>
4.0075

> <logD>
3.7247

> <logSw>
-4.1279

> <PSA>
51.866

> <pKa_ma>
26.9519

> <pKa_mb>
7.3627

> <N_Chirals>
1

> <Name>
2-{[3-fluoro-3-(3-phenyl-1,2,4-oxadiazol-5-yl)piperidin-1-yl]methyl}-6-methoxypyridine

> <Smile>
COc1cccc(CN(CCC2)CC2(c2nc(-c3ccccc3)no2)F)n1

> <Color>
YELLOW

> <Collection>
IC

> <InChI>
InChI=1S/C20H21FN4O2/c1-26-17-10-5-9-16(22-17)13-25-12-6-11-20(21,14-25)19-23-18(24-27-19)15-7-3-2-4-8-15/h2-5,7-10H,6,11-14H2,1H3/t20-/m0/s1

> <InChI Key>
LRELFQGZKVTTRX-FQEVSTJZSA-N

> <PERCENTSP3>
35

> <Link>
https://www.chemdiv.com/catalog/screening-compounds/compound-SA92-0077/

> <MFCDNUMBER>
MFCD32242320

> <CLNUMBER>
CM4899

> <STEREO>
RACEMIC MIXTURE

> <State>
Liquid

> <Similarity score>
0.20

$$$$
2-amino-5-propyl-4,7-dihydro-5H-thieno[2,3-c]pyran-3-carbonitrile
  -OEChem-04222410502D

 17 18  0     0  0  0  0  0  0999 V2000
    2.0668    0.4792    0.0000 C   0  0  0  0  0  0  0  0  0  0  0  0
    0.4166    0.4667    0.0000 C   0  0  0  0  0  0  0  0  0  0  0  0
    2.0710   -0.4959    0.0000 C   0  0  0  0  0  0  0  0  0  0  0  0
    1.2334   -0.9709    0.0000 S   0  0  0  0  0  0  0  0  0  0  0  0
    0.4166   -0.4959    0.0000 C   0  0  0  0  0  0  0  0  0  0  0  0
    2.8960    0.9709    0.0000 C   0  0  0  0  0  0  0  0  0  0  0  0
    2.8918    1.9293    0.0000 N   0  0  0  0  0  0  0  0  0  0  0  0
   -0.4335    0.9542    0.0000 C   0  0  0  0  0  0  0  0  0  0  0  0
   -1.2543   -0.5042    0.0000 O   0  0  0  0  0  0  0  0  0  0  0  0
   -0.4166   -0.9917    0.0000 C   0  0  0  0  0  0  0  0  0  0  0  0
    2.9210   -0.9709    0.0000 N   0  0  0  0  0  0  0  0  0  0  0  0
   -1.2543    0.4667    0.0000 C   0  0  3  0  0  0  0  0  0  0  0  0
   -2.0835    0.9334    0.0000 C   0  0  0  0  0  0  0  0  0  0  0  0
   -2.9085    0.4542    0.0000 C   0  0  0  0  0  0  0  0  0  0  0  0
   -3.7336    0.9292    0.0000 C   0  0  0  0  0  0  0  0  0  0  0  0
    2.9335   -1.9293    0.0000 H   0  0  0  0  0  0  0  0  0  0  0  0
    3.7336   -0.4834    0.0000 H   0  0  0  0  0  0  0  0  0  0  0  0
  1  2  1  0  0  0  0
  1  3  2  0  0  0  0
  3  4  1  0  0  0  0
  4  5  1  0  0  0  0
  2  5  2  0  0  0  0
  1  6  1  0  0  0  0
  6  7  3  0  0  0  0
  2  8  1  0  0  0  0
  9 12  1  0  0  0  0
  5 10  1  0  0  0  0
  9 10  1  0  0  0  0
  3 11  1  0  0  0  0
  8 12  1  0  0  0  0
 12 13  1  0  0  0  0
 13 14  1  0  0  0  0
 14 15  1  0  0  0  0
 11 16  1  0  0  0  0
 11 17  1  0  0  0  0
M  END
> <IDNUMBER>
8640-0074

> <available>
79

> <H_acceptor>
2

> <H_donor>
2

> <B_rotN>
3

> <N_O>
3

> <logP>
2.381

> <logD>
2.381

> <logSw>
-2.2284

> <PSA>
47.086

> <pKa_ma>
15.973

> <pKa_mb>
-1.5134

> <N_Chirals>
1

> <Name>
2-amino-5-propyl-4,7-dihydro-5H-thieno[2,3-c]pyran-3-carbonitrile

> <Smile>
CCCC(C1)OCc2c1c(C#N)c(N)s2

> <Color>
BROWN

> <Collection>
DC

> <InChI>
InChI=1S/C11H14N2OS/c1-2-3-7-4-8-9(5-12)11(13)15-10(8)6-14-7/h7H,2-4,6,13H2,1H3/t7-/m1/s1

> <InChI Key>
FGTHHTWHWXEGFI-SSDOTTSWSA-N

> <PERCENTSP3>
54.5

> <Link>
https://www.chemdiv.com/catalog/screening-compounds/compound-8640-0074/

> <MFCDNUMBER>
MFCD03675056

> <STEREO>
RACEMIC MIXTURE

> <State>
Solid

> <Similarity score>
0.19

$$$$
2-amino-6-benzyl-4,5,6,7-tetrahydrothieno[2,3-c]pyridine-3-carbonitrile
  -OEChem-04222410502D

 19 21  0     0  0  0  0  0  0999 V2000
    2.4979   -0.1417    0.0000 C   0  0  0  0  0  0  0  0  0  0  0  0
    2.7980   -1.1050    0.0000 C   0  0  0  0  0  0  0  0  0  0  0  0
    1.1843   -1.1050    0.0000 C   0  0  0  0  0  0  0  0  0  0  0  0
    1.4969   -0.1417    0.0000 C   0  0  0  0  0  0  0  0  0  0  0  0
    1.9973   -1.6721    0.0000 S   0  0  0  0  0  0  0  0  0  0  0  0
    3.0857    0.6588    0.0000 C   0  0  0  0  0  0  0  0  0  0  0  0
   -0.4669   -0.5670    0.0000 N   0  0  0  0  0  0  0  0  0  0  0  0
    3.6735    1.4720    0.0000 N   0  0  0  0  0  0  0  0  0  0  0  0
    0.1960   -1.3176    0.0000 C   0  0  0  0  0  0  0  0  0  0  0  0
    0.8214    0.5920    0.0000 C   0  0  0  0  0  0  0  0  0  0  0  0
    3.7486   -1.4053    0.0000 N   0  0  0  0  0  0  0  0  0  0  0  0
   -0.1458    0.3918    0.0000 C   0  0  0  0  0  0  0  0  0  0  0  0
   -1.4426   -0.7839    0.0000 C   0  0  0  0  0  0  0  0  0  0  0  0
   -2.1181   -0.0333    0.0000 C   0  0  0  0  0  0  0  0  0  0  0  0
   -1.8055    0.9299    0.0000 C   0  0  0  0  0  0  0  0  0  0  0  0
   -3.0814   -0.2335    0.0000 C   0  0  0  0  0  0  0  0  0  0  0  0
   -3.7486    0.5171    0.0000 C   0  0  0  0  0  0  0  0  0  0  0  0
   -2.4685    1.6721    0.0000 C   0  0  0  0  0  0  0  0  0  0  0  0
   -3.4567    1.4595    0.0000 C   0  0  0  0  0  0  0  0  0  0  0  0
  1  2  2  0  0  0  0
  3  4  2  0  0  0  0
  3  5  1  0  0  0  0
  1  4  1  0  0  0  0
  2  5  1  0  0  0  0
  1  6  1  0  0  0  0
  7 12  1  0  0  0  0
  7  9  1  0  0  0  0
  6  8  3  0  0  0  0
  3  9  1  0  0  0  0
  4 10  1  0  0  0  0
  2 11  1  0  0  0  0
 10 12  1  0  0  0  0
  7 13  1  0  0  0  0
 13 14  1  0  0  0  0
 14 15  1  0  0  0  0
 14 16  2  0  0  0  0
 16 17  1  0  0  0  0
 15 18  2  0  0  0  0
 18 19  1  0  0  0  0
 17 19  2  0  0  0  0
M  END
> <IDNUMBER>
Y512-7452

> <available>
33

> <H_acceptor>
2

> <H_donor>
2

> <B_rotN>
3

> <N_O>
3

> <logP>
2.536

> <logD>
2.535

> <logSw>
-2.519

> <PSA>
41.97

> <pKa_ma>
15.47

> <pKa_mb>
4.753

> <N_Chirals>
0

> <Name>
2-amino-6-benzyl-4,5,6,7-tetrahydrothieno[2,3-c]pyridine-3-carbonitrile

> <Smile>
c1(c(sc2c1CCN(C2)Cc1ccccc1)N)C#N

> <Color>
BROWN

> <Collection>
DC

> <InChI>
InChI=1S/C15H15N3S/c16-8-13-12-6-7-18(10-14(12)19-15(13)17)9-11-4-2-1-3-5-11/h1-5H,6-7,9-10,17H2

> <InChI Key>
BWNBNBHFRHCKTK-UHFFFAOYSA-N

> <PERCENTSP3>
26.67

> <Link>
https://www.chemdiv.com/catalog/screening-compounds/compound-Y512-7452/

> <MFCDNUMBER>
MFCD00425859

> <STEREO>
ACHIRAL

> <State>
Solid

> <Similarity score>
0.19

$$$$
2-amino-4,5-dihydronaphtho[2,1-b]thiophene-1-carbonitrile
  -OEChem-04222410502D

 16 18  0     0  0  0  0  0  0999 V2000
    0.9270   -0.3728    0.0000 C   0  0  0  0  0  0  0  0  0  0  0  0
   -0.0562   -0.4354    0.0000 C   0  0  0  0  0  0  0  0  0  0  0  0
    1.3062   -1.3187    0.0000 C   0  0  0  0  0  0  0  0  0  0  0  0
   -0.3146   -1.3978    0.0000 C   0  0  0  0  0  0  0  0  0  0  0  0
    0.5270   -1.9519    0.0000 S   0  0  0  0  0  0  0  0  0  0  0  0
   -0.7604    0.2771    0.0000 C   0  0  0  0  0  0  0  0  0  0  0  0
    1.4561    0.4603    0.0000 C   0  0  0  0  0  0  0  0  0  0  0  0
    2.4435    0.4187    0.0000 N   0  0  0  0  0  0  0  0  0  0  0  0
   -1.2645   -1.6645    0.0000 C   0  0  0  0  0  0  0  0  0  0  0  0
   -1.7270    0.0062    0.0000 C   0  0  0  0  0  0  0  0  0  0  0  0
    2.2769   -1.5687    0.0000 N   0  0  0  0  0  0  0  0  0  0  0  0
   -1.9686   -0.9729    0.0000 C   0  0  0  0  0  0  0  0  0  0  0  0
   -0.5104    1.2520    0.0000 C   0  0  0  0  0  0  0  0  0  0  0  0
   -2.4435    0.7061    0.0000 C   0  0  0  0  0  0  0  0  0  0  0  0
   -1.2311    1.9519    0.0000 C   0  0  0  0  0  0  0  0  0  0  0  0
   -2.2061    1.6728    0.0000 C   0  0  0  0  0  0  0  0  0  0  0  0
  1  2  1  0  0  0  0
  1  3  2  0  0  0  0
  2  4  2  0  0  0  0
  4  5  1  0  0  0  0
  3  5  1  0  0  0  0
  2  6  1  0  0  0  0
  1  7  1  0  0  0  0
  7  8  3  0  0  0  0
  4  9  1  0  0  0  0
  9 12  1  0  0  0  0
  6 10  2  0  0  0  0
  3 11  1  0  0  0  0
 10 12  1  0  0  0  0
  6 13  1  0  0  0  0
 10 14  1  0  0  0  0
 13 15  2  0  0  0  0
 15 16  1  0  0  0  0
 14 16  2  0  0  0  0
M  END
> <IDNUMBER>
8019-5962

> <available>
15

> <H_acceptor>
1

> <H_donor>
2

> <B_rotN>
1

> <N_O>
2

> <logP>
3.0359

> <logD>
3.0359

> <logSw>
-3.4122

> <PSA>
38.22

> <pKa_ma>
19.2967

> <pKa_mb>
-4.5006

> <N_Chirals>
0

> <Name>
2-amino-4,5-dihydronaphtho[2,1-b]thiophene-1-carbonitrile

> <Smile>
Nc(sc(CC1)c2-c3c1cccc3)c2C#N

> <Color>
BROWN

> <Collection>
DC

> <InChI>
InChI=1S/C13H10N2S/c14-7-10-12-9-4-2-1-3-8(9)5-6-11(12)16-13(10)15/h1-4H,5-6,15H2

> <InChI Key>
KMUDCZOBMKTNNP-UHFFFAOYSA-N

> <PERCENTSP3>
15.38

> <Link>
https://www.chemdiv.com/catalog/screening-compounds/compound-8019-5962/

> <MFCDNUMBER>
MFCD00128275

> <STEREO>
ACHIRAL

> <State>
Solid

> <Similarity score>
0.19

$$$$
{3-fluoro-3-[3-(pyridin-4-yl)-1,2,4-oxadiazol-5-yl]piperidin-1-yl}(6-methoxypyri
  -OEChem-04222410502D

 28 31  0     0  0  0  0  0  0999 V2000
   -2.3906   -0.5015    0.0000 N   0  0  0  0  0  0  0  0  0  0  0  0
   -1.4036   -0.6517    0.0000 C   0  0  0  0  0  0  0  0  0  0  0  0
   -0.6985    0.0533    0.0000 C   0  0  3  0  0  0  0  0  0  0  0  0
   -2.8449   -1.4007    0.0000 C   0  0  0  0  0  0  0  0  0  0  0  0
    0.8019    0.9119    0.0000 N   0  0  0  0  0  0  0  0  0  0  0  0
   -2.1369   -2.1086    0.0000 N   0  0  0  0  0  0  0  0  0  0  0  0
    1.3034    1.7828    0.0000 C   0  0  0  0  0  0  0  0  0  0  0  0
   -1.2439   -1.6449    0.0000 O   0  0  0  0  0  0  0  0  0  0  0  0
    2.3093    1.7828    0.0000 C   0  0  0  0  0  0  0  0  0  0  0  0
   -0.2007    0.9119    0.0000 C   0  0  0  0  0  0  0  0  0  0  0  0
    3.8101    0.9119    0.0000 N   0  0  0  0  0  0  0  0  0  0  0  0
    2.8137    0.9119    0.0000 C   0  0  0  0  0  0  0  0  0  0  0  0
    4.3112    1.7828    0.0000 C   0  0  0  0  0  0  0  0  0  0  0  0
    0.8019    2.6413    0.0000 O   0  0  0  0  0  0  0  0  0  0  0  0
   -3.8319   -1.5509    0.0000 C   0  0  0  0  0  0  0  0  0  0  0  0
    2.8137    2.6413    0.0000 C   0  0  0  0  0  0  0  0  0  0  0  0
   -1.0777    0.9743    0.0000 F   0  0  0  0  0  0  0  0  0  0  0  0
   -5.8059   -1.8644    0.0000 N   0  0  0  0  0  0  0  0  0  0  0  0
    3.8101    2.6413    0.0000 C   0  0  0  0  0  0  0  0  0  0  0  0
   -0.2007   -0.8179    0.0000 C   0  0  0  0  0  0  0  0  0  0  0  0
    1.3034    0.0533    0.0000 C   0  0  0  0  0  0  0  0  0  0  0  0
    5.3077    1.7828    0.0000 O   0  0  0  0  0  0  0  0  0  0  0  0
    0.8019   -0.8179    0.0000 C   0  0  0  0  0  0  0  0  0  0  0  0
   -5.4488   -0.9337    0.0000 C   0  0  0  0  0  0  0  0  0  0  0  0
   -5.1825   -2.6413    0.0000 C   0  0  0  0  0  0  0  0  0  0  0  0
   -4.4586   -0.7740    0.0000 C   0  0  0  0  0  0  0  0  0  0  0  0
   -4.1955   -2.4911    0.0000 C   0  0  0  0  0  0  0  0  0  0  0  0
    5.8059    2.6413    0.0000 C   0  0  0  0  0  0  0  0  0  0  0  0
  1  2  2  0  0  0  0
  2  3  1  0  0  0  0
  1  4  1  0  0  0  0
  5 10  1  0  0  0  0
  4  6  2  0  0  0  0
  6  8  1  0  0  0  0
  5  7  1  0  0  0  0
  2  8  1  0  0  0  0
  7  9  1  0  0  0  0
  3 10  1  0  0  0  0
 11 12  1  0  0  0  0
  9 12  2  0  0  0  0
 13 19  1  0  0  0  0
 11 13  2  0  0  0  0
  7 14  2  0  0  0  0
  4 15  1  0  0  0  0
  9 16  1  0  0  0  0
  3 17  1  0  0  0  0
 18 25  2  0  0  0  0
 18 24  1  0  0  0  0
 16 19  2  0  0  0  0
  3 20  1  0  0  0  0
 21 23  1  0  0  0  0
  5 21  1  0  0  0  0
 13 22  1  0  0  0  0
 20 23  1  0  0  0  0
 24 26  2  0  0  0  0
 25 27  1  0  0  0  0
 15 26  1  0  0  0  0
 15 27  2  0  0  0  0
 22 28  1  0  0  0  0
M  END
> <IDNUMBER>
SA92-0193

> <available>
86

> <H_acceptor>
8

> <H_donor>
0

> <B_rotN>
5

> <N_O>
8

> <logP>
2.0953

> <logD>
2.0952

> <logSw>
-2.123

> <PSA>
74.236

> <pKa_ma>
27.08

> <pKa_mb>
3.6841

> <N_Chirals>
1

> <Name>
{3-fluoro-3-[3-(pyridin-4-yl)-1,2,4-oxadiazol-5-yl]piperidin-1-yl}(6-methoxypyridin-3-yl)methanone

> <Smile>
COc(cc1)ncc1C(N(CCC1)CC1(c1nc(-c2ccncc2)no1)F)=O

> <Color>
BROWN

> <Collection>
IC

> <InChI>
InChI=1S/C19H18FN5O3/c1-27-15-4-3-14(11-22-15)17(26)25-10-2-7-19(20,12-25)18-23-16(24-28-18)13-5-8-21-9-6-13/h3-6,8-9,11H,2,7,10,12H2,1H3/t19-/m0/s1

> <InChI Key>
BERFUGYEBNEHOP-IBGZPJMESA-N

> <PERCENTSP3>
31.58

> <Link>
https://www.chemdiv.com/catalog/screening-compounds/compound-SA92-0193/

> <MFCDNUMBER>
MFCD32241574

> <CLNUMBER>
CM4899

> <STEREO>
RACEMIC MIXTURE

> <State>
Solid

> <Similarity score>
0.19

$$$$
N-(3-cyano-4,5,6,7-tetrahydro-1-benzothiophen-2-yl)-5-(2-methyl-2,3-dihydro-1-be
  -OEChem-04222410502D

 30 34  0     0  0  0  0  0  0999 V2000
   -1.9170    1.4959    0.0000 C   0  0  0  0  0  0  0  0  0  0  0  0
   -2.5045    2.3002    0.0000 C   0  0  0  0  0  0  0  0  0  0  0  0
    0.5708    0.6083    0.0000 C   0  0  0  0  0  0  0  0  0  0  0  0
   -2.5087    0.6833    0.0000 S   0  0  0  0  0  0  0  0  0  0  0  0
   -3.4547    1.9961    0.0000 C   0  0  0  0  0  0  0  0  0  0  0  0
    1.1585    1.4084    0.0000 N   0  0  0  0  0  0  0  0  0  0  0  0
   -0.9168    1.4834    0.0000 N   0  0  0  0  0  0  0  0  0  0  0  0
    1.1585   -0.2043    0.0000 C   0  0  0  0  0  0  0  0  0  0  0  0
   -3.4588    0.9960    0.0000 C   0  0  0  0  0  0  0  0  0  0  0  0
   -0.4168    0.6125    0.0000 C   0  0  0  0  0  0  0  0  0  0  0  0
    2.1086    0.0875    0.0000 C   0  0  0  0  0  0  0  0  0  0  0  0
    2.1086    1.0876    0.0000 O   0  0  0  0  0  0  0  0  0  0  0  0
   -2.1920    3.2504    0.0000 C   0  0  0  0  0  0  0  0  0  0  0  0
    3.5964   -2.0794    0.0000 C   0  0  0  0  0  0  0  0  0  0  0  0
    5.1924   -2.4295    0.0000 O   0  0  0  0  0  0  0  0  0  0  0  0
    4.5216   -1.6877    0.0000 C   0  0  0  0  0  0  0  0  0  0  0  0
    2.9171   -0.5041    0.0000 C   0  0  0  0  0  0  0  0  0  0  0  0
   -1.9337    4.2172    0.0000 N   0  0  0  0  0  0  0  0  0  0  0  0
    2.7964   -1.4920    0.0000 C   0  0  0  0  0  0  0  0  0  0  0  0
    3.6965   -3.0878    0.0000 C   0  0  0  0  0  0  0  0  0  0  0  0
   -0.9293   -0.2500    0.0000 O   0  0  0  0  0  0  0  0  0  0  0  0
    4.6840   -3.3046    0.0000 C   0  0  3  0  0  0  0  0  0  0  0  0
    4.6298   -0.6794    0.0000 C   0  0  0  0  0  0  0  0  0  0  0  0
    3.8172   -0.0957    0.0000 C   0  0  0  0  0  0  0  0  0  0  0  0
   -4.3090    2.5003    0.0000 C   0  0  0  0  0  0  0  0  0  0  0  0
   -4.3298    0.5084    0.0000 C   0  0  0  0  0  0  0  0  0  0  0  0
    5.0716   -4.2172    0.0000 C   0  0  0  0  0  0  0  0  0  0  0  0
   -5.1799    2.0169    0.0000 C   0  0  0  0  0  0  0  0  0  0  0  0
   -5.1924    1.0127    0.0000 C   0  0  0  0  0  0  0  0  0  0  0  0
   -0.4168    2.3460    0.0000 H   0  0  0  0  0  0  0  0  0  0  0  0
  1  2  2  0  0  0  0
  3 10  1  0  0  0  0
  1  4  1  0  0  0  0
  2  5  1  0  0  0  0
  3  6  2  0  0  0  0
  1  7  1  0  0  0  0
  3  8  1  0  0  0  0
  4  9  1  0  0  0  0
  5  9  2  0  0  0  0
  7 10  1  0  0  0  0
  8 11  2  0  0  0  0
 11 12  1  0  0  0  0
  6 12  1  0  0  0  0
  2 13  1  0  0  0  0
 14 19  1  0  0  0  0
 15 16  1  0  0  0  0
 16 23  1  0  0  0  0
 14 16  2  0  0  0  0
 11 17  1  0  0  0  0
 13 18  3  0  0  0  0
 17 19  2  0  0  0  0
 14 20  1  0  0  0  0
 10 21  2  0  0  0  0
 20 22  1  0  0  0  0
 15 22  1  0  0  0  0
 23 24  2  0  0  0  0
 17 24  1  0  0  0  0
  5 25  1  0  0  0  0
  9 26  1  0  0  0  0
 22 27  1  0  0  0  0
 25 28  1  0  0  0  0
 26 29  1  0  0  0  0
 28 29  1  0  0  0  0
  7 30  1  0  0  0  0
M  END
> <IDNUMBER>
D337-1093

> <available>
64

> <H_acceptor>
6

> <H_donor>
1

> <B_rotN>
5

> <N_O>
6

> <logP>
4.8655

> <logD>
3.5744

> <logSw>
-4.7257

> <PSA>
69.038

> <pKa_ma>
6.1318

> <pKa_mb>
-6.3269

> <N_Chirals>
1

> <Name>
N-(3-cyano-4,5,6,7-tetrahydro-1-benzothiophen-2-yl)-5-(2-methyl-2,3-dihydro-1-benzofuran-5-yl)-1,2-oxazole-3-carboxamide

> <Smile>
CC(C1)Oc(cc2)c1cc2-c1cc(C(Nc(sc2c3CCCC2)c3C#N)=O)no1

> <Color>
ORANGE

> <Collection>
DC

> <InChI>
InChI=1S/C22H19N3O3S/c1-12-8-14-9-13(6-7-18(14)27-12)19-10-17(25-28-19)21(26)24-22-16(11-23)15-4-2-3-5-20(15)29-22/h6-7,9-10,12H,2-5,8H2,1H3,(H,24,26)/t12-/m1/s1

> <InChI Key>
ZRFPTQSWEYXVAA-GFCCVEGCSA-N

> <PERCENTSP3>
31.8

> <Link>
https://www.chemdiv.com/catalog/screening-compounds/compound-D337-1093/

> <MFCDNUMBER>
MFCD08545738

> <CLNUMBER>
CL2028

> <STEREO>
RACEMIC MIXTURE

> <State>
Solid

> <Similarity score>
0.19

$$$$
6-acetyl-2-amino-4,5,6,7-tetrahydrothieno[2,3-c]pyridine-3-carbonitrile
  -OEChem-04222410502D

 15 16  0     0  0  0  0  0  0999 V2000
   -1.6639   -0.0438    0.0000 C   0  0  0  0  0  0  0  0  0  0  0  0
   -1.9763   -0.9850    0.0000 C   0  0  0  0  0  0  0  0  0  0  0  0
   -0.3602   -1.0016    0.0000 C   0  0  0  0  0  0  0  0  0  0  0  0
   -0.6684   -0.0438    0.0000 C   0  0  0  0  0  0  0  0  0  0  0  0
   -1.1682   -1.5764    0.0000 S   0  0  0  0  0  0  0  0  0  0  0  0
    1.2808   -0.4685    0.0000 N   0  0  0  0  0  0  0  0  0  0  0  0
    0.6143   -1.2141    0.0000 C   0  0  0  0  0  0  0  0  0  0  0  0
   -2.2512    0.7643    0.0000 C   0  0  0  0  0  0  0  0  0  0  0  0
    2.2637   -0.6810    0.0000 C   0  0  0  0  0  0  0  0  0  0  0  0
   -2.7593    1.6306    0.0000 N   0  0  0  0  0  0  0  0  0  0  0  0
   -0.0021    0.7060    0.0000 C   0  0  0  0  0  0  0  0  0  0  0  0
    0.9809    0.4935    0.0000 C   0  0  0  0  0  0  0  0  0  0  0  0
   -2.9259   -1.3015    0.0000 N   0  0  0  0  0  0  0  0  0  0  0  0
    2.9259    0.0604    0.0000 O   0  0  0  0  0  0  0  0  0  0  0  0
    2.5636   -1.6306    0.0000 C   0  0  0  0  0  0  0  0  0  0  0  0
  1  2  2  0  0  0  0
  3  4  2  0  0  0  0
  3  5  1  0  0  0  0
  1  4  1  0  0  0  0
  2  5  1  0  0  0  0
  6 12  1  0  0  0  0
  6  7  1  0  0  0  0
  3  7  1  0  0  0  0
  1  8  1  0  0  0  0
  6  9  1  0  0  0  0
  8 10  3  0  0  0  0
  4 11  1  0  0  0  0
 11 12  1  0  0  0  0
  2 13  1  0  0  0  0
  9 14  2  0  0  0  0
  9 15  1  0  0  0  0
M  END
> <IDNUMBER>
FF01-4909

> <available>
617

> <H_acceptor>
3

> <H_donor>
2

> <B_rotN>
2

> <N_O>
4

> <logP>
0.6311

> <logD>
0.6311

> <logSw>
-1.0388

> <PSA>
55.62

> <pKa_ma>
15.7067

> <pKa_mb>
-0.8396

> <N_Chirals>
0

> <Name>
6-acetyl-2-amino-4,5,6,7-tetrahydrothieno[2,3-c]pyridine-3-carbonitrile

> <Smile>
CC(N(CC1)Cc2c1c(C#N)c(N)s2)=O

> <Color>
ORANGE

> <Collection>
NC

> <InChI>
InChI=1S/C10H11N3OS/c1-6(14)13-3-2-7-8(4-11)10(12)15-9(7)5-13/h2-3,5,12H2,1H3

> <InChI Key>
ONWFDBVICXATKK-UHFFFAOYSA-N

> <PERCENTSP3>
40

> <Link>
https://www.chemdiv.com/catalog/screening-compounds/compound-FF01-4909/

> <MFCDNUMBER>
MFCD09743161

> <STEREO>
ACHIRAL

> <State>
Solid

> <Similarity score>
0.19

$$$$
2-amino-6-(2-methylbutan-2-yl)-4,5,6,7-tetrahydro-1-benzothiophene-3-carbonitril
  -OEChem-04222410502D

 17 18  0     0  0  0  0  0  0999 V2000
    1.6932   -0.4603    0.0000 C   0  0  0  0  0  0  0  0  0  0  0  0
    1.3725   -1.3892    0.0000 C   0  0  0  0  0  0  0  0  0  0  0  0
    0.0688   -0.4603    0.0000 C   0  0  0  0  0  0  0  0  0  0  0  0
    0.8643    0.1437    0.0000 C   0  0  0  0  0  0  0  0  0  0  0  0
    0.4186   -1.3892    0.0000 S   0  0  0  0  0  0  0  0  0  0  0  0
    2.6471   -0.2062    0.0000 C   0  0  0  0  0  0  0  0  0  0  0  0
   -0.8267   -0.0479    0.0000 C   0  0  0  0  0  0  0  0  0  0  0  0
    3.6093    0.0479    0.0000 N   0  0  0  0  0  0  0  0  0  0  0  0
    0.7685    1.1350    0.0000 C   0  0  0  0  0  0  0  0  0  0  0  0
   -0.9559    0.9434    0.0000 C   0  0  3  0  0  0  0  0  0  0  0  0
   -1.9139    1.3225    0.0000 C   0  0  0  0  0  0  0  0  0  0  0  0
    1.9472   -2.2514    0.0000 N   0  0  0  0  0  0  0  0  0  0  0  0
   -0.1561    1.5474    0.0000 C   0  0  0  0  0  0  0  0  0  0  0  0
   -2.8428    1.6766    0.0000 C   0  0  0  0  0  0  0  0  0  0  0  0
   -1.5307    2.2514    0.0000 C   0  0  0  0  0  0  0  0  0  0  0  0
   -2.2639    0.3686    0.0000 C   0  0  0  0  0  0  0  0  0  0  0  0
   -3.6093    1.0559    0.0000 C   0  0  0  0  0  0  0  0  0  0  0  0
  1  2  2  0  0  0  0
  3  4  2  0  0  0  0
  3  5  1  0  0  0  0
  1  4  1  0  0  0  0
  2  5  1  0  0  0  0
  1  6  1  0  0  0  0
  3  7  1  0  0  0  0
  7 10  1  0  0  0  0
  6  8  3  0  0  0  0
  4  9  1  0  0  0  0
 10 13  1  0  0  0  0
 10 11  1  0  0  0  0
  2 12  1  0  0  0  0
  9 13  1  0  0  0  0
 11 14  1  0  0  0  0
 11 15  1  0  0  0  0
 11 16  1  0  0  0  0
 14 17  1  0  0  0  0
M  END
> <IDNUMBER>
Y503-0012

> <available>
20

> <H_acceptor>
1

> <H_donor>
2

> <B_rotN>
3

> <N_O>
2

> <logP>
3.612

> <logD>
3.612

> <logSw>
-3.9177

> <PSA>
38.492

> <pKa_ma>
15.9936

> <pKa_mb>
-2.1439

> <N_Chirals>
1

> <Name>
2-amino-6-(2-methylbutan-2-yl)-4,5,6,7-tetrahydro-1-benzothiophene-3-carbonitrile

> <Smile>
CCC(C)(C)C(CC1)Cc2c1c(C#N)c(N)s2

> <Color>
ORANGE

> <Collection>
DC

> <InChI>
InChI=1S/C14H20N2S/c1-4-14(2,3)9-5-6-10-11(8-15)13(16)17-12(10)7-9/h9H,4-7,16H2,1-3H3/t9-/m1/s1

> <InChI Key>
KWZDWUOSGNGFOU-SECBINFHSA-N

> <PERCENTSP3>
64.29

> <Link>
https://www.chemdiv.com/catalog/screening-compounds/compound-Y503-0012/

> <MFCDNUMBER>
MFCD01335783

> <STEREO>
RACEMIC MIXTURE

> <State>
Solid

> <Similarity score>
0.19

$$$$
2-amino-6-(2-phenylethyl)-4,5,6,7-tetrahydrothieno[2,3-c]pyridine-3-carbonitrile
  -OEChem-04222410502D

 20 22  0     0  0  0  0  0  0999 V2000
    2.7431    0.6914    0.0000 C   0  0  0  0  0  0  0  0  0  0  0  0
    3.3055   -0.1084    0.0000 C   0  0  0  0  0  0  0  0  0  0  0  0
    1.7934    0.3791    0.0000 C   0  0  0  0  0  0  0  0  0  0  0  0
    1.7934   -0.6208    0.0000 C   0  0  0  0  0  0  0  0  0  0  0  0
    2.7431   -0.9289    0.0000 S   0  0  0  0  0  0  0  0  0  0  0  0
    3.0680    1.6331    0.0000 C   0  0  0  0  0  0  0  0  0  0  0  0
    0.0562   -0.6208    0.0000 N   0  0  0  0  0  0  0  0  0  0  0  0
    3.3931    2.5787    0.0000 N   0  0  0  0  0  0  0  0  0  0  0  0
    0.9267   -1.1206    0.0000 C   0  0  0  0  0  0  0  0  0  0  0  0
    0.9267    0.8915    0.0000 C   0  0  0  0  0  0  0  0  0  0  0  0
    4.3055   -0.1084    0.0000 N   0  0  0  0  0  0  0  0  0  0  0  0
    0.0562    0.3791    0.0000 C   0  0  0  0  0  0  0  0  0  0  0  0
   -0.8436   -1.1206    0.0000 C   0  0  0  0  0  0  0  0  0  0  0  0
   -1.6935   -0.6041    0.0000 C   0  0  0  0  0  0  0  0  0  0  0  0
   -2.5683   -1.0914    0.0000 C   0  0  0  0  0  0  0  0  0  0  0  0
   -3.4181   -0.5791    0.0000 C   0  0  0  0  0  0  0  0  0  0  0  0
   -2.5807   -2.0912    0.0000 C   0  0  0  0  0  0  0  0  0  0  0  0
   -3.4473   -2.5787    0.0000 C   0  0  0  0  0  0  0  0  0  0  0  0
   -4.2928   -1.0707    0.0000 C   0  0  0  0  0  0  0  0  0  0  0  0
   -4.3055   -2.0704    0.0000 C   0  0  0  0  0  0  0  0  0  0  0  0
  1  2  2  0  0  0  0
  1  3  1  0  0  0  0
  3  4  2  0  0  0  0
  4  5  1  0  0  0  0
  2  5  1  0  0  0  0
  1  6  1  0  0  0  0
  7 12  1  0  0  0  0
  6  8  3  0  0  0  0
  4  9  1  0  0  0  0
  7  9  1  0  0  0  0
  3 10  1  0  0  0  0
  2 11  1  0  0  0  0
 10 12  1  0  0  0  0
  7 13  1  0  0  0  0
 13 14  1  0  0  0  0
 14 15  1  0  0  0  0
 15 16  2  0  0  0  0
 15 17  1  0  0  0  0
 17 18  2  0  0  0  0
 16 19  1  0  0  0  0
 19 20  2  0  0  0  0
 18 20  1  0  0  0  0
M  END
> <IDNUMBER>
Y512-6622

> <available>
10

> <H_acceptor>
2

> <H_donor>
2

> <B_rotN>
4

> <N_O>
3

> <logP>
2.769

> <logD>
2.767

> <logSw>
-2.953

> <PSA>
41.94

> <pKa_ma>
15.47

> <pKa_mb>
5.053

> <N_Chirals>
0

> <Name>
2-amino-6-(2-phenylethyl)-4,5,6,7-tetrahydrothieno[2,3-c]pyridine-3-carbonitrile

> <Smile>
c1(c(sc2c1CCN(C2)CCc1ccccc1)N)C#N

> <Color>
BROWN

> <Collection>
DC

> <InChI>
InChI=1S/C16H17N3S/c17-10-14-13-7-9-19(11-15(13)20-16(14)18)8-6-12-4-2-1-3-5-12/h1-5H,6-9,11,18H2

> <InChI Key>
NEZXGGXPFJZLFK-UHFFFAOYSA-N

> <PERCENTSP3>
31.3

> <Link>
https://www.chemdiv.com/catalog/screening-compounds/compound-Y512-6622/

> <MFCDNUMBER>
MFCD01565102

> <STEREO>
ACHIRAL

> <State>
Solid

> <Similarity score>
0.19

$$$$
3-(3-{[(1H-benzimidazol-2-yl)sulfanyl]methyl}-1,2,4-oxadiazol-5-yl)-N-(3-cyano-4
  -OEChem-04222410502D

 32 36  0     0  0  0  0  0  0999 V2000
    3.8430    1.2736    0.0000 C   0  0  0  0  0  0  0  0  0  0  0  0
    4.8181    0.9817    0.0000 C   0  0  0  0  0  0  0  0  0  0  0  0
    3.8303    2.2697    0.0000 S   0  0  0  0  0  0  0  0  0  0  0  0
    5.3767    1.7859    0.0000 C   0  0  0  0  0  0  0  0  0  0  0  0
   -3.5136   -2.6280    0.0000 C   0  0  0  0  0  0  0  0  0  0  0  0
   -4.1095   -1.8024    0.0000 N   0  0  0  0  0  0  0  0  0  0  0  0
   -0.3710   -0.9066    0.0000 N   0  0  0  0  0  0  0  0  0  0  0  0
    4.7764    2.5948    0.0000 C   0  0  0  0  0  0  0  0  0  0  0  0
   -0.9711   -1.7400    0.0000 C   0  0  0  0  0  0  0  0  0  0  0  0
   -4.0970   -3.4322    0.0000 N   0  0  0  0  0  0  0  0  0  0  0  0
    3.0551    0.6733    0.0000 N   0  0  0  0  0  0  0  0  0  0  0  0
   -0.3710   -2.5779    0.0000 N   0  0  0  0  0  0  0  0  0  0  0  0
    5.1517    0.0313    0.0000 C   0  0  0  0  0  0  0  0  0  0  0  0
    0.6043   -1.2190    0.0000 C   0  0  0  0  0  0  0  0  0  0  0  0
    0.6128   -2.2570    0.0000 O   0  0  0  0  0  0  0  0  0  0  0  0
   -5.0474   -2.1195    0.0000 C   0  0  0  0  0  0  0  0  0  0  0  0
   -5.0474   -3.1155    0.0000 C   0  0  0  0  0  0  0  0  0  0  0  0
    5.4766   -0.9066    0.0000 N   0  0  0  0  0  0  0  0  0  0  0  0
    2.1298    1.0608    0.0000 C   0  0  0  0  0  0  0  0  0  0  0  0
   -2.5216   -2.6193    0.0000 S   0  0  0  0  0  0  0  0  0  0  0  0
    2.0507    1.7819    0.0000 O   0  0  0  0  0  0  0  0  0  0  0  0
   -2.0131   -1.7527    0.0000 C   0  0  0  0  0  0  0  0  0  0  0  0
    1.4422   -0.5940    0.0000 C   0  0  0  0  0  0  0  0  0  0  0  0
    1.3129    0.4233    0.0000 C   0  0  0  0  0  0  0  0  0  0  0  0
    6.3686    1.8986    0.0000 C   0  0  0  0  0  0  0  0  0  0  0  0
    5.1766    3.5073    0.0000 C   0  0  0  0  0  0  0  0  0  0  0  0
   -5.9102   -1.6190    0.0000 C   0  0  0  0  0  0  0  0  0  0  0  0
   -5.9102   -3.6200    0.0000 C   0  0  0  0  0  0  0  0  0  0  0  0
    6.7688    2.8321    0.0000 C   0  0  0  0  0  0  0  0  0  0  0  0
    6.1687    3.6200    0.0000 C   0  0  0  0  0  0  0  0  0  0  0  0
   -6.7646   -3.1198    0.0000 C   0  0  0  0  0  0  0  0  0  0  0  0
   -6.7688   -2.1195    0.0000 C   0  0  0  0  0  0  0  0  0  0  0  0
  1  2  2  0  0  0  0
  1  3  1  0  0  0  0
  2  4  1  0  0  0  0
  5 20  1  0  0  0  0
  5  6  2  0  0  0  0
  7 14  2  0  0  0  0
  3  8  1  0  0  0  0
  4  8  2  0  0  0  0
  7  9  1  0  0  0  0
  5 10  1  0  0  0  0
  1 11  1  0  0  0  0
 12 15  1  0  0  0  0
  9 12  2  0  0  0  0
  2 13  1  0  0  0  0
 14 23  1  0  0  0  0
 14 15  1  0  0  0  0
  6 16  1  0  0  0  0
 10 17  1  0  0  0  0
 16 17  2  0  0  0  0
 13 18  3  0  0  0  0
 11 19  1  0  0  0  0
 20 22  1  0  0  0  0
 19 21  2  0  0  0  0
  9 22  1  0  0  0  0
 23 24  1  0  0  0  0
 19 24  1  0  0  0  0
  4 25  1  0  0  0  0
  8 26  1  0  0  0  0
 16 27  1  0  0  0  0
 17 28  1  0  0  0  0
 25 29  1  0  0  0  0
 26 30  1  0  0  0  0
 29 30  1  0  0  0  0
 28 31  2  0  0  0  0
 27 32  2  0  0  0  0
 31 32  1  0  0  0  0
M  END
> <IDNUMBER>
J021-0366

> <available>
82

> <H_acceptor>
8

> <H_donor>
2

> <B_rotN>
9

> <N_O>
8

> <logP>
3.7147

> <logD>
2.3958

> <logSw>
-4.4343

> <PSA>
90.234

> <pKa_ma>
6.1024

> <pKa_mb>
6.7942

> <N_Chirals>
0

> <Name>
3-(3-{[(1H-benzimidazol-2-yl)sulfanyl]methyl}-1,2,4-oxadiazol-5-yl)-N-(3-cyano-4,5,6,7-tetrahydro-1-benzothiophen-2-yl)propanamide

> <Smile>
N#Cc1c(NC(CCc2nc(CSc3nc(cccc4)c4[nH]3)no2)=O)sc2c1CCCC2

> <Color>
NOT COLORED

> <Collection>
DC

> <InChI>
InChI=1S/C22H20N6O2S2/c23-11-14-13-5-1-4-8-17(13)32-21(14)27-19(29)9-10-20-26-18(28-30-20)12-31-22-24-15-6-2-3-7-16(15)25-22/h2-3,6-7H,1,4-5,8-10,12H2,(H,24,25)(H,27,29)

> <InChI Key>
VCTVEJYTLRSQRV-UHFFFAOYSA-N

> <PERCENTSP3>
31.8

> <Link>
https://www.chemdiv.com/catalog/screening-compounds/compound-J021-0366/

> <MFCDNUMBER>
MFCD27218401

> <CLNUMBER>
CL8315

> <STEREO>
ACHIRAL

> <State>
Solid

> <Similarity score>
0.19

$$$$
2-(2-bromophenoxy)-N-(3-cyano-5,6-dihydro-4H-cyclopenta[b]thiophen-2-yl)propanam
  -OEChem-04222410502D

 23 25  0     0  0  0  0  0  0999 V2000
   -0.5177    1.4451    0.0000 C   0  0  0  0  0  0  0  0  0  0  0  0
   -0.5177    2.3413    0.0000 C   0  0  0  0  0  0  0  0  0  0  0  0
   -1.2957    1.0004    0.0000 S   0  0  0  0  0  0  0  0  0  0  0  0
   -2.0877    2.3413    0.0000 C   0  0  0  0  0  0  0  0  0  0  0  0
    0.3231    0.9725    0.0000 N   0  0  0  0  0  0  0  0  0  0  0  0
   -2.0877    1.4590    0.0000 C   0  0  0  0  0  0  0  0  0  0  0  0
    0.3231   -0.0000    0.0000 C   0  0  0  0  0  0  0  0  0  0  0  0
    0.3856    2.8623    0.0000 C   0  0  0  0  0  0  0  0  0  0  0  0
    1.2957    3.3626    0.0000 N   0  0  0  0  0  0  0  0  0  0  0  0
    1.1637   -1.4451    0.0000 O   0  0  0  0  0  0  0  0  0  0  0  0
    1.9904   -1.9175    0.0000 C   0  0  0  0  0  0  0  0  0  0  0  0
    1.1567   -0.4794    0.0000 C   0  0  3  0  0  0  0  0  0  0  0  0
   -0.5106   -0.4724    0.0000 O   0  0  0  0  0  0  0  0  0  0  0  0
    2.8309   -1.4451    0.0000 C   0  0  0  0  0  0  0  0  0  0  0  0
   -2.8797    2.7998    0.0000 C   0  0  0  0  0  0  0  0  0  0  0  0
    2.8450   -0.4933    0.0000 Br  0  0  0  0  0  0  0  0  0  0  0  0
   -3.6648    1.4590    0.0000 C   0  0  0  0  0  0  0  0  0  0  0  0
   -3.6648    2.3552    0.0000 C   0  0  0  0  0  0  0  0  0  0  0  0
    1.9904   -2.8832    0.0000 C   0  0  0  0  0  0  0  0  0  0  0  0
    1.9904   -0.0000    0.0000 C   0  0  0  0  0  0  0  0  0  0  0  0
    3.6578   -1.9197    0.0000 C   0  0  0  0  0  0  0  0  0  0  0  0
    2.8172   -3.3626    0.0000 C   0  0  0  0  0  0  0  0  0  0  0  0
    3.6648   -2.8901    0.0000 C   0  0  0  0  0  0  0  0  0  0  0  0
  1  2  2  0  0  0  0
  1  3  1  0  0  0  0
  2  4  1  0  0  0  0
  4  6  2  0  0  0  0
  1  5  1  0  0  0  0
  3  6  1  0  0  0  0
  5  7  1  0  0  0  0
  2  8  1  0  0  0  0
  8  9  3  0  0  0  0
 10 11  1  0  0  0  0
 10 12  1  0  0  0  0
  7 12  1  0  0  0  0
  7 13  2  0  0  0  0
 11 14  2  0  0  0  0
  4 15  1  0  0  0  0
 15 18  1  0  0  0  0
 14 16  1  0  0  0  0
  6 17  1  0  0  0  0
 17 18  1  0  0  0  0
 11 19  1  0  0  0  0
 12 20  1  0  0  0  0
 14 21  1  0  0  0  0
 19 22  2  0  0  0  0
 22 23  1  0  0  0  0
 21 23  2  0  0  0  0
M  END
> <IDNUMBER>
8011-9345

> <available>
21

> <H_acceptor>
4

> <H_donor>
1

> <B_rotN>
6

> <N_O>
4

> <logP>
4.2925

> <logD>
2.8547

> <logSw>
-4.4401

> <PSA>
47.342

> <pKa_ma>
5.9783

> <pKa_mb>
-5.9657

> <N_Chirals>
1

> <Name>
2-(2-bromophenoxy)-N-(3-cyano-5,6-dihydro-4H-cyclopenta[b]thiophen-2-yl)propanamide

> <Smile>
CC(C(Nc(sc1c2CCC1)c2C#N)=O)Oc(cccc1)c1Br

> <Color>
BROWN

> <Collection>
DC

> <InChI>
InChI=1S/C17H15BrN2O2S/c1-10(22-14-7-3-2-6-13(14)18)16(21)20-17-12(9-19)11-5-4-8-15(11)23-17/h2-3,6-7,10H,4-5,8H2,1H3,(H,20,21)/t10-/m0/s1

> <InChI Key>
FCIOKRPXKFICSS-JTQLQIEISA-N

> <PERCENTSP3>
29.41

> <Link>
https://www.chemdiv.com/catalog/screening-compounds/compound-8011-9345/

> <MFCDNUMBER>
MFCD02928295

> <STEREO>
RACEMIC MIXTURE

> <State>
Solid

> <Similarity score>
0.19

$$$$
N-(3-cyano-5,6,7,8-tetrahydro-4H-cyclohepta[b]thiophen-2-yl)-2-(4-propylphenoxy)
  -OEChem-04222410502D

 27 29  0     0  0  0  0  0  0999 V2000
   -2.3662    0.0462    0.0000 C   0  0  0  0  0  0  0  0  0  0  0  0
   -2.3662    0.9946    0.0000 C   0  0  0  0  0  0  0  0  0  0  0  0
   -3.1983   -0.4257    0.0000 S   0  0  0  0  0  0  0  0  0  0  0  0
   -4.0530    0.9946    0.0000 C   0  0  0  0  0  0  0  0  0  0  0  0
   -1.5612   -0.4257    0.0000 N   0  0  0  0  0  0  0  0  0  0  0  0
   -4.0530    0.0205    0.0000 C   0  0  0  0  0  0  0  0  0  0  0  0
   -0.6999    0.0462    0.0000 C   0  0  0  0  0  0  0  0  0  0  0  0
   -1.5100    1.4716    0.0000 C   0  0  0  0  0  0  0  0  0  0  0  0
   -0.6487    1.9380    0.0000 N   0  0  0  0  0  0  0  0  0  0  0  0
    0.1359   -0.4257    0.0000 C   0  0  3  0  0  0  0  0  0  0  0  0
    1.0075    0.0616    0.0000 O   0  0  0  0  0  0  0  0  0  0  0  0
   -0.6999    1.0204    0.0000 O   0  0  0  0  0  0  0  0  0  0  0  0
    1.9713   -0.4409    0.0000 C   0  0  0  0  0  0  0  0  0  0  0  0
   -4.8630    1.5858    0.0000 C   0  0  0  0  0  0  0  0  0  0  0  0
   -4.8630   -0.5641    0.0000 C   0  0  0  0  0  0  0  0  0  0  0  0
    3.6275   -1.3895    0.0000 C   0  0  0  0  0  0  0  0  0  0  0  0
    1.9713   -1.3638    0.0000 C   0  0  0  0  0  0  0  0  0  0  0  0
    2.7917    0.0462    0.0000 C   0  0  0  0  0  0  0  0  0  0  0  0
    2.8174   -1.8355    0.0000 C   0  0  0  0  0  0  0  0  0  0  0  0
    3.6275   -0.4409    0.0000 C   0  0  0  0  0  0  0  0  0  0  0  0
    0.1462   -1.4254    0.0000 C   0  0  0  0  0  0  0  0  0  0  0  0
    4.4853   -1.8612    0.0000 C   0  0  0  0  0  0  0  0  0  0  0  0
    5.3246   -1.3895    0.0000 C   0  0  0  0  0  0  0  0  0  0  0  0
   -5.7962    1.4047    0.0000 C   0  0  0  0  0  0  0  0  0  0  0  0
   -5.7962   -0.3641    0.0000 C   0  0  0  0  0  0  0  0  0  0  0  0
    6.2371   -1.9380    0.0000 C   0  0  0  0  0  0  0  0  0  0  0  0
   -6.2371    0.5229    0.0000 C   0  0  0  0  0  0  0  0  0  0  0  0
  1  2  2  0  0  0  0
  1  3  1  0  0  0  0
  2  4  1  0  0  0  0
  1  5  1  0  0  0  0
  3  6  1  0  0  0  0
  4  6  2  0  0  0  0
  5  7  1  0  0  0  0
  2  8  1  0  0  0  0
  8  9  3  0  0  0  0
  7 10  1  0  0  0  0
 10 11  1  0  0  0  0
  7 12  2  0  0  0  0
 11 13  1  0  0  0  0
  4 14  1  0  0  0  0
  6 15  1  0  0  0  0
 16 20  2  0  0  0  0
 13 17  1  0  0  0  0
 13 18  2  0  0  0  0
 17 19  2  0  0  0  0
 16 19  1  0  0  0  0
 18 20  1  0  0  0  0
 10 21  1  0  0  0  0
 16 22  1  0  0  0  0
 22 23  1  0  0  0  0
 14 24  1  0  0  0  0
 15 25  1  0  0  0  0
 23 26  1  0  0  0  0
 25 27  1  0  0  0  0
 24 27  1  0  0  0  0
M  END
> <IDNUMBER>
8010-3485

> <available>
23

> <H_acceptor>
4

> <H_donor>
1

> <B_rotN>
8

> <N_O>
4

> <logP>
5.9046

> <logD>
4.4866

> <logSw>
-5.3852

> <PSA>
47.221

> <pKa_ma>
5.9989

> <pKa_mb>
-4.7655

> <N_Chirals>
1

> <Name>
N-(3-cyano-5,6,7,8-tetrahydro-4H-cyclohepta[b]thiophen-2-yl)-2-(4-propylphenoxy)propanamide

> <Smile>
CCCc(cc1)ccc1OC(C)C(Nc(sc1c2CCCCC1)c2C#N)=O

> <Color>
NOT COLORED

> <Collection>
DC

> <InChI>
InChI=1S/C22H26N2O2S/c1-3-7-16-10-12-17(13-11-16)26-15(2)21(25)24-22-19(14-23)18-8-5-4-6-9-20(18)27-22/h10-13,15H,3-9H2,1-2H3,(H,24,25)/t15-/m0/s1

> <InChI Key>
XDQQVUDIOGXBDB-HNNXBMFYSA-N

> <PERCENTSP3>
45.46

> <Link>
https://www.chemdiv.com/catalog/screening-compounds/compound-8010-3485/

> <MFCDNUMBER>
MFCD01871928

> <STEREO>
RACEMIC MIXTURE

> <State>
Solid

> <Similarity score>
0.19

$$$$
1-{3-fluoro-3-[3-(pyridin-4-yl)-1,2,4-oxadiazol-5-yl]piperidin-1-yl}-2-(4-methox
  -OEChem-04222410502D

 29 32  0     0  0  0  0  0  0999 V2000
   -0.8929    2.6707    0.0000 N   0  0  0  0  0  0  0  0  0  0  0  0
    0.0970    2.8271    0.0000 C   0  0  0  0  0  0  0  0  0  0  0  0
    0.8083    2.1161    0.0000 C   0  0  3  0  0  0  0  0  0  0  0  0
   -1.3502    3.5603    0.0000 C   0  0  0  0  0  0  0  0  0  0  0  0
   -0.6359    4.2683    0.0000 N   0  0  0  0  0  0  0  0  0  0  0  0
    2.3056    1.2484    0.0000 N   0  0  0  0  0  0  0  0  0  0  0  0
    0.2474    3.8170    0.0000 O   0  0  0  0  0  0  0  0  0  0  0  0
    2.8037    0.3837    0.0000 C   0  0  0  0  0  0  0  0  0  0  0  0
    1.3064    1.2484    0.0000 C   0  0  0  0  0  0  0  0  0  0  0  0
    2.3056   -0.4810    0.0000 C   0  0  0  0  0  0  0  0  0  0  0  0
   -2.3371    3.7200    0.0000 C   0  0  0  0  0  0  0  0  0  0  0  0
    3.8062    0.3837    0.0000 O   0  0  0  0  0  0  0  0  0  0  0  0
    0.4227    1.1920    0.0000 F   0  0  0  0  0  0  0  0  0  0  0  0
   -4.3043    4.0302    0.0000 N   0  0  0  0  0  0  0  0  0  0  0  0
    2.8037   -1.3454    0.0000 C   0  0  0  0  0  0  0  0  0  0  0  0
    1.3064    2.9901    0.0000 C   0  0  0  0  0  0  0  0  0  0  0  0
    2.8037    2.1161    0.0000 C   0  0  0  0  0  0  0  0  0  0  0  0
    3.8062   -3.0748    0.0000 C   0  0  0  0  0  0  0  0  0  0  0  0
    2.3056   -2.2101    0.0000 C   0  0  0  0  0  0  0  0  0  0  0  0
    3.8062   -1.3454    0.0000 C   0  0  0  0  0  0  0  0  0  0  0  0
    4.3043   -2.2101    0.0000 C   0  0  0  0  0  0  0  0  0  0  0  0
    2.8037   -3.0748    0.0000 C   0  0  0  0  0  0  0  0  0  0  0  0
    4.3043   -3.9392    0.0000 O   0  0  0  0  0  0  0  0  0  0  0  0
    2.3056    2.9901    0.0000 C   0  0  0  0  0  0  0  0  0  0  0  0
   -3.6810    4.8039    0.0000 C   0  0  0  0  0  0  0  0  0  0  0  0
   -3.9533    3.0934    0.0000 C   0  0  0  0  0  0  0  0  0  0  0  0
   -2.6941    4.6505    0.0000 C   0  0  0  0  0  0  0  0  0  0  0  0
   -2.9604    2.9400    0.0000 C   0  0  0  0  0  0  0  0  0  0  0  0
    3.8062   -4.8039    0.0000 C   0  0  0  0  0  0  0  0  0  0  0  0
  1  2  2  0  0  0  0
  2  3  1  0  0  0  0
  1  4  1  0  0  0  0
  4  5  2  0  0  0  0
  5  7  1  0  0  0  0
  6  9  1  0  0  0  0
  2  7  1  0  0  0  0
  6  8  1  0  0  0  0
  3  9  1  0  0  0  0
  8 10  1  0  0  0  0
  4 11  1  0  0  0  0
  8 12  2  0  0  0  0
  3 13  1  0  0  0  0
 14 26  1  0  0  0  0
 14 25  2  0  0  0  0
 10 15  1  0  0  0  0
  3 16  1  0  0  0  0
 17 24  1  0  0  0  0
  6 17  1  0  0  0  0
 18 21  1  0  0  0  0
 15 19  2  0  0  0  0
 15 20  1  0  0  0  0
 20 21  2  0  0  0  0
 19 22  1  0  0  0  0
 18 22  2  0  0  0  0
 18 23  1  0  0  0  0
 16 24  1  0  0  0  0
 25 27  1  0  0  0  0
 26 28  2  0  0  0  0
 11 27  2  0  0  0  0
 11 28  1  0  0  0  0
 23 29  1  0  0  0  0
M  END
> <IDNUMBER>
SA92-0168

> <available>
28

> <H_acceptor>
7

> <H_donor>
0

> <B_rotN>
6

> <N_O>
7

> <logP>
2.982

> <logD>
2.9819

> <logSw>
-2.9525

> <PSA>
64.671

> <pKa_ma>
17.9425

> <pKa_mb>
3.6841

> <N_Chirals>
1

> <Name>
1-{3-fluoro-3-[3-(pyridin-4-yl)-1,2,4-oxadiazol-5-yl]piperidin-1-yl}-2-(4-methoxyphenyl)ethan-1-one

> <Smile>
COc1ccc(CC(N(CCC2)CC2(c2nc(-c3ccncc3)no2)F)=O)cc1

> <Color>
YELLOW

> <Collection>
IC

> <InChI>
InChI=1S/C21H21FN4O3/c1-28-17-5-3-15(4-6-17)13-18(27)26-12-2-9-21(22,14-26)20-24-19(25-29-20)16-7-10-23-11-8-16/h3-8,10-11H,2,9,12-14H2,1H3/t21-/m0/s1

> <InChI Key>
PZWRWFORUQNVMQ-NRFANRHFSA-N

> <PERCENTSP3>
33.33

> <Link>
https://www.chemdiv.com/catalog/screening-compounds/compound-SA92-0168/

> <MFCDNUMBER>
MFCD32243200

> <CLNUMBER>
CM4899

> <STEREO>
RACEMIC MIXTURE

> <State>
Liquid

> <Similarity score>
0.19

$$$$
N-(3-cyano-4,5,6,7-tetrahydro-1-benzothiophen-2-yl)-5-(propan-2-yl)-1,2-oxazole-
  -OEChem-04222410502D

 22 24  0     0  0  0  0  0  0999 V2000
   -0.5790   -1.4913    0.0000 C   0  0  0  0  0  0  0  0  0  0  0  0
    0.0277   -2.2642    0.0000 C   0  0  0  0  0  0  0  0  0  0  0  0
    0.2397    1.6850    0.0000 C   0  0  0  0  0  0  0  0  0  0  0  0
   -1.5043   -1.8257    0.0000 S   0  0  0  0  0  0  0  0  0  0  0  0
   -0.5030   -3.0808    0.0000 C   0  0  0  0  0  0  0  0  0  0  0  0
   -0.4592    2.3218    0.0000 N   0  0  0  0  0  0  0  0  0  0  0  0
   -0.5790   -0.4763    0.0000 N   0  0  0  0  0  0  0  0  0  0  0  0
    1.0126    2.3032    0.0000 C   0  0  0  0  0  0  0  0  0  0  0  0
   -1.4627   -2.8200    0.0000 C   0  0  0  0  0  0  0  0  0  0  0  0
    0.2859    0.0243    0.0000 C   0  0  0  0  0  0  0  0  0  0  0  0
    0.7336    3.1729    0.0000 C   0  0  0  0  0  0  0  0  0  0  0  0
   -0.1755    3.1822    0.0000 O   0  0  0  0  0  0  0  0  0  0  0  0
    1.0426   -2.2018    0.0000 C   0  0  0  0  0  0  0  0  0  0  0  0
    2.0506   -2.1718    0.0000 N   0  0  0  0  0  0  0  0  0  0  0  0
    1.0588   -0.4602    0.0000 O   0  0  0  0  0  0  0  0  0  0  0  0
    1.2847    3.9134    0.0000 C   0  0  0  0  0  0  0  0  0  0  0  0
   -0.2469   -4.0518    0.0000 C   0  0  0  0  0  0  0  0  0  0  0  0
   -2.1868   -3.5212    0.0000 C   0  0  0  0  0  0  0  0  0  0  0  0
    0.9225    4.7646    0.0000 C   0  0  0  0  0  0  0  0  0  0  0  0
    2.1868    3.8234    0.0000 C   0  0  0  0  0  0  0  0  0  0  0  0
   -0.9575   -4.7646    0.0000 C   0  0  0  0  0  0  0  0  0  0  0  0
   -1.9285   -4.5016    0.0000 C   0  0  0  0  0  0  0  0  0  0  0  0
  1  2  2  0  0  0  0
  3 10  1  0  0  0  0
  1  4  1  0  0  0  0
  2  5  1  0  0  0  0
  3  6  2  0  0  0  0
  1  7  1  0  0  0  0
  3  8  1  0  0  0  0
  4  9  1  0  0  0  0
  5  9  2  0  0  0  0
  7 10  1  0  0  0  0
  8 11  2  0  0  0  0
 11 12  1  0  0  0  0
  6 12  1  0  0  0  0
  2 13  1  0  0  0  0
 13 14  3  0  0  0  0
 10 15  2  0  0  0  0
 11 16  1  0  0  0  0
  5 17  1  0  0  0  0
  9 18  1  0  0  0  0
 16 19  1  0  0  0  0
 16 20  1  0  0  0  0
 17 21  1  0  0  0  0
 21 22  1  0  0  0  0
 18 22  1  0  0  0  0
M  END
> <IDNUMBER>
C226-2941

> <available>
48

> <H_acceptor>
5

> <H_donor>
1

> <B_rotN>
5

> <N_O>
5

> <logP>
3.9048

> <logD>
2.2344

> <logSw>
-4.1434

> <PSA>
61.908

> <pKa_ma>
5.739

> <pKa_mb>
-5.3583

> <N_Chirals>
0

> <Name>
N-(3-cyano-4,5,6,7-tetrahydro-1-benzothiophen-2-yl)-5-(propan-2-yl)-1,2-oxazole-3-carboxamide

> <Smile>
CC(C)c1cc(C(Nc(sc2c3CCCC2)c3C#N)=O)no1

> <Color>
ORANGE

> <Collection>
DC

> <InChI>
InChI=1S/C16H17N3O2S/c1-9(2)13-7-12(19-21-13)15(20)18-16-11(8-17)10-5-3-4-6-14(10)22-16/h7,9H,3-6H2,1-2H3,(H,18,20)

> <InChI Key>
DFPPLONANWUOAM-UHFFFAOYSA-N

> <PERCENTSP3>
43.8

> <Link>
https://www.chemdiv.com/catalog/screening-compounds/compound-C226-2941/

> <MFCDNUMBER>
MFCD09782910

> <CLNUMBER>
CL2030

> <STEREO>
ACHIRAL

> <State>
Solid

> <Similarity score>
0.19

$$$$
N-(3-cyano-4,5,6,7-tetrahydro-1-benzothiophen-2-yl)-6-cyclopropyl-3-(4-methoxyph
  -OEChem-04222410502D

 34 39  0     0  0  0  0  0  0999 V2000
    0.1208    1.0978    0.0000 C   0  0  0  0  0  0  0  0  0  0  0  0
    0.3457    2.0935    0.0000 C   0  0  0  0  0  0  0  0  0  0  0  0
    0.7833   -2.2935    0.0000 C   0  0  0  0  0  0  0  0  0  0  0  0
    1.4415   -3.0433    0.0000 C   0  0  0  0  0  0  0  0  0  0  0  0
    1.1081   -1.3435    0.0000 C   0  0  0  0  0  0  0  0  0  0  0  0
   -0.0458   -3.6808    0.0000 N   0  0  0  0  0  0  0  0  0  0  0  0
   -0.8707    1.0102    0.0000 S   0  0  0  0  0  0  0  0  0  0  0  0
   -0.5083    2.5934    0.0000 C   0  0  0  0  0  0  0  0  0  0  0  0
   -0.1332   -2.6809    0.0000 C   0  0  0  0  0  0  0  0  0  0  0  0
    0.7790    0.3562    0.0000 N   0  0  0  0  0  0  0  0  0  0  0  0
    0.4542   -0.5935    0.0000 C   0  0  0  0  0  0  0  0  0  0  0  0
    2.4206   -2.8559    0.0000 N   0  0  0  0  0  0  0  0  0  0  0  0
   -1.2706    1.9518    0.0000 C   0  0  0  0  0  0  0  0  0  0  0  0
    0.9291   -3.9057    0.0000 O   0  0  0  0  0  0  0  0  0  0  0  0
    2.7454   -1.9058    0.0000 C   0  0  0  0  0  0  0  0  0  0  0  0
    2.0913   -1.1560    0.0000 C   0  0  0  0  0  0  0  0  0  0  0  0
    1.2456    2.4975    0.0000 C   0  0  0  0  0  0  0  0  0  0  0  0
    3.7286   -1.7184    0.0000 C   0  0  0  0  0  0  0  0  0  0  0  0
    2.1371    2.9058    0.0000 N   0  0  0  0  0  0  0  0  0  0  0  0
    4.6701   -2.0435    0.0000 C   0  0  0  0  0  0  0  0  0  0  0  0
    4.4827   -1.0562    0.0000 C   0  0  0  0  0  0  0  0  0  0  0  0
   -1.0789   -2.3642    0.0000 C   0  0  0  0  0  0  0  0  0  0  0  0
   -0.5290   -0.7812    0.0000 O   0  0  0  0  0  0  0  0  0  0  0  0
   -1.8372   -3.0183    0.0000 C   0  0  0  0  0  0  0  0  0  0  0  0
   -1.2706   -1.3810    0.0000 C   0  0  0  0  0  0  0  0  0  0  0  0
   -2.9705   -1.7144    0.0000 C   0  0  0  0  0  0  0  0  0  0  0  0
   -0.6833    3.5599    0.0000 C   0  0  0  0  0  0  0  0  0  0  0  0
   -2.2205   -1.0562    0.0000 C   0  0  0  0  0  0  0  0  0  0  0  0
   -2.7787   -2.6933    0.0000 C   0  0  0  0  0  0  0  0  0  0  0  0
   -2.2288    2.2683    0.0000 C   0  0  0  0  0  0  0  0  0  0  0  0
   -3.9162   -1.3810    0.0000 O   0  0  0  0  0  0  0  0  0  0  0  0
   -4.6701   -2.0435    0.0000 C   0  0  0  0  0  0  0  0  0  0  0  0
   -1.6332    3.9057    0.0000 C   0  0  0  0  0  0  0  0  0  0  0  0
   -2.3955    3.2641    0.0000 C   0  0  0  0  0  0  0  0  0  0  0  0
  1  2  2  0  0  0  0
  3  5  1  0  0  0  0
  3  4  2  0  0  0  0
  5 11  1  0  0  0  0
  6  9  2  0  0  0  0
  6 14  1  0  0  0  0
  1  7  1  0  0  0  0
  2  8  1  0  0  0  0
  3  9  1  0  0  0  0
  1 10  1  0  0  0  0
 10 11  1  0  0  0  0
 12 15  2  0  0  0  0
  4 12  1  0  0  0  0
  7 13  1  0  0  0  0
  8 13  2  0  0  0  0
  4 14  1  0  0  0  0
 15 16  1  0  0  0  0
  5 16  2  0  0  0  0
  2 17  1  0  0  0  0
 15 18  1  0  0  0  0
 17 19  3  0  0  0  0
 18 20  1  0  0  0  0
 18 21  1  0  0  0  0
 20 21  1  0  0  0  0
  9 22  1  0  0  0  0
 11 23  2  0  0  0  0
 22 24  2  0  0  0  0
 22 25  1  0  0  0  0
 26 28  1  0  0  0  0
 26 29  2  0  0  0  0
  8 27  1  0  0  0  0
 25 28  2  0  0  0  0
 24 29  1  0  0  0  0
 13 30  1  0  0  0  0
 26 31  1  0  0  0  0
 31 32  1  0  0  0  0
 27 33  1  0  0  0  0
 30 34  1  0  0  0  0
 33 34  1  0  0  0  0
M  END
> <IDNUMBER>
Y505-2298

> <available>
17

> <H_acceptor>
7

> <H_donor>
1

> <B_rotN>
7

> <N_O>
7

> <logP>
5.6464

> <logD>
4.141

> <logSw>
-5.6909

> <PSA>
78.613

> <pKa_ma>
5.9084

> <pKa_mb>
-0.3426

> <N_Chirals>
0

> <Name>
N-(3-cyano-4,5,6,7-tetrahydro-1-benzothiophen-2-yl)-6-cyclopropyl-3-(4-methoxyphenyl)[1,2]oxazolo[5,4-b]pyridine-4-carboxamide

> <Smile>
COc(cc1)ccc1-c1noc2nc(C3CC3)cc(C(Nc(sc3c4CCCC3)c4C#N)=O)c12

> <Color>
BROWN

> <Collection>
DC

> <InChI>
InChI=1S/C26H22N4O3S/c1-32-16-10-8-15(9-11-16)23-22-18(12-20(14-6-7-14)28-25(22)33-30-23)24(31)29-26-19(13-27)17-4-2-3-5-21(17)34-26/h8-12,14H,2-7H2,1H3,(H,29,31)

> <InChI Key>
FSQSTPJPFLTSGF-UHFFFAOYSA-N

> <PERCENTSP3>
30.8

> <Link>
https://www.chemdiv.com/catalog/screening-compounds/compound-Y505-2298/

> <MFCDNUMBER>
MFCD10701920

> <CLNUMBER>
CL7490

> <STEREO>
ACHIRAL

> <State>
Solid

> <Similarity score>
0.19

$$$$
N-(3-cyano-5,6,7,8-tetrahydro-4H-cyclohepta[b]thiophen-2-yl)-6-cyclopropyl-3-(4-
  -OEChem-04222410502D

 35 40  0     0  0  0  0  0  0999 V2000
    1.6182    0.6311    0.0000 C   0  0  0  0  0  0  0  0  0  0  0  0
    2.3057    1.3808    0.0000 C   0  0  0  0  0  0  0  0  0  0  0  0
   -0.2062   -1.7683    0.0000 C   0  0  0  0  0  0  0  0  0  0  0  0
    0.1813   -2.6888    0.0000 C   0  0  0  0  0  0  0  0  0  0  0  0
    0.3936   -0.9686    0.0000 C   0  0  0  0  0  0  0  0  0  0  0  0
   -1.4308   -2.8304    0.0000 N   0  0  0  0  0  0  0  0  0  0  0  0
    2.1181   -0.2145    0.0000 S   0  0  0  0  0  0  0  0  0  0  0  0
    3.2136    0.9559    0.0000 C   0  0  0  0  0  0  0  0  0  0  0  0
   -1.2058   -1.8557    0.0000 C   0  0  0  0  0  0  0  0  0  0  0  0
    0.6018    0.7560    0.0000 N   0  0  0  0  0  0  0  0  0  0  0  0
    0.0022   -0.0439    0.0000 C   0  0  0  0  0  0  0  0  0  0  0  0
    1.1768   -2.8055    0.0000 N   0  0  0  0  0  0  0  0  0  0  0  0
    3.0888   -0.0312    0.0000 C   0  0  0  0  0  0  0  0  0  0  0  0
   -0.5686   -3.3427    0.0000 O   0  0  0  0  0  0  0  0  0  0  0  0
    1.7766   -2.0059    0.0000 C   0  0  0  0  0  0  0  0  0  0  0  0
    1.3810   -1.0892    0.0000 C   0  0  0  0  0  0  0  0  0  0  0  0
    2.1348    2.3680    0.0000 C   0  0  0  0  0  0  0  0  0  0  0  0
    2.7679   -2.1307    0.0000 C   0  0  0  0  0  0  0  0  0  0  0  0
    1.9682    3.3427    0.0000 N   0  0  0  0  0  0  0  0  0  0  0  0
    3.5678   -2.7305    0.0000 C   0  0  0  0  0  0  0  0  0  0  0  0
    3.6926   -1.7309    0.0000 C   0  0  0  0  0  0  0  0  0  0  0  0
   -2.0056   -1.2558    0.0000 C   0  0  0  0  0  0  0  0  0  0  0  0
   -0.9935    0.0729    0.0000 O   0  0  0  0  0  0  0  0  0  0  0  0
   -2.9221   -1.6432    0.0000 C   0  0  0  0  0  0  0  0  0  0  0  0
   -1.8806   -0.2645    0.0000 C   0  0  0  0  0  0  0  0  0  0  0  0
   -3.6052   -0.0563    0.0000 C   0  0  0  0  0  0  0  0  0  0  0  0
    4.0801    1.4808    0.0000 C   0  0  0  0  0  0  0  0  0  0  0  0
   -2.6805    0.3355    0.0000 C   0  0  0  0  0  0  0  0  0  0  0  0
   -3.7177   -1.0435    0.0000 C   0  0  0  0  0  0  0  0  0  0  0  0
    3.7760   -0.7519    0.0000 C   0  0  0  0  0  0  0  0  0  0  0  0
   -4.4008    0.5478    0.0000 O   0  0  0  0  0  0  0  0  0  0  0  0
   -5.3172    0.1562    0.0000 C   0  0  0  0  0  0  0  0  0  0  0  0
    5.0048    1.1058    0.0000 C   0  0  0  0  0  0  0  0  0  0  0  0
    4.7675   -0.6811    0.0000 C   0  0  0  0  0  0  0  0  0  0  0  0
    5.3172    0.1562    0.0000 C   0  0  0  0  0  0  0  0  0  0  0  0
  1  2  2  0  0  0  0
  3  5  1  0  0  0  0
  3  4  2  0  0  0  0
  5 11  1  0  0  0  0
  6  9  2  0  0  0  0
  6 14  1  0  0  0  0
  1  7  1  0  0  0  0
  2  8  1  0  0  0  0
  3  9  1  0  0  0  0
  1 10  1  0  0  0  0
 10 11  1  0  0  0  0
 12 15  2  0  0  0  0
  4 12  1  0  0  0  0
  7 13  1  0  0  0  0
  8 13  2  0  0  0  0
  4 14  1  0  0  0  0
 15 16  1  0  0  0  0
  5 16  2  0  0  0  0
  2 17  1  0  0  0  0
 15 18  1  0  0  0  0
 17 19  3  0  0  0  0
 18 20  1  0  0  0  0
 18 21  1  0  0  0  0
 20 21  1  0  0  0  0
  9 22  1  0  0  0  0
 11 23  2  0  0  0  0
 22 24  2  0  0  0  0
 22 25  1  0  0  0  0
 26 28  1  0  0  0  0
 26 29  2  0  0  0  0
  8 27  1  0  0  0  0
 25 28  2  0  0  0  0
 24 29  1  0  0  0  0
 13 30  1  0  0  0  0
 26 31  1  0  0  0  0
 31 32  1  0  0  0  0
 27 33  1  0  0  0  0
 33 35  1  0  0  0  0
 30 34  1  0  0  0  0
 34 35  1  0  0  0  0
M  END
> <IDNUMBER>
Y505-2299

> <available>
17

> <H_acceptor>
7

> <H_donor>
1

> <B_rotN>
7

> <N_O>
7

> <logP>
6.1423

> <logD>
4.6369

> <logSw>
-5.6765

> <PSA>
78.944

> <pKa_ma>
5.9084

> <pKa_mb>
-0.3426

> <N_Chirals>
0

> <Name>
N-(3-cyano-5,6,7,8-tetrahydro-4H-cyclohepta[b]thiophen-2-yl)-6-cyclopropyl-3-(4-methoxyphenyl)[1,2]oxazolo[5,4-b]pyridine-4-carboxamide

> <Smile>
COc(cc1)ccc1-c1noc2nc(C3CC3)cc(C(Nc(sc3c4CCCCC3)c4C#N)=O)c12

> <Color>
BROWN

> <Collection>
DC

> <InChI>
InChI=1S/C27H24N4O3S/c1-33-17-11-9-16(10-12-17)24-23-19(13-21(15-7-8-15)29-26(23)34-31-24)25(32)30-27-20(14-28)18-5-3-2-4-6-22(18)35-27/h9-13,15H,2-8H2,1H3,(H,30,32)

> <InChI Key>
WVKCYYZLRAXGGS-UHFFFAOYSA-N

> <PERCENTSP3>
33.3

> <Link>
https://www.chemdiv.com/catalog/screening-compounds/compound-Y505-2299/

> <MFCDNUMBER>
MFCD10701637

> <CLNUMBER>
CL7490

> <STEREO>
ACHIRAL

> <State>
Solid

> <Similarity score>
0.19

$$$$
2-{[4-(difluoromethyl)-6-(3,4-dimethoxyphenyl)pyrimidin-2-yl]amino}-4,5,6,7-tetr
  -OEChem-04222410502D

 31 34  0     0  0  0  0  0  0999 V2000
    2.2087    0.0042    0.0000 C   0  0  0  0  0  0  0  0  0  0  0  0
    1.7962   -0.9210    0.0000 C   0  0  0  0  0  0  0  0  0  0  0  0
    0.7085    0.8668    0.0000 C   0  0  0  0  0  0  0  0  0  0  0  0
    3.2089   -0.0959    0.0000 S   0  0  0  0  0  0  0  0  0  0  0  0
    1.7086    0.8668    0.0000 N   0  0  0  0  0  0  0  0  0  0  0  0
    2.5462   -1.5793    0.0000 C   0  0  0  0  0  0  0  0  0  0  0  0
    3.4171   -1.0960    0.0000 C   0  0  0  0  0  0  0  0  0  0  0  0
    0.2084    0.0042    0.0000 N   0  0  0  0  0  0  0  0  0  0  0  0
    0.2168    1.7294    0.0000 N   0  0  0  0  0  0  0  0  0  0  0  0
   -0.7918    0.0042    0.0000 C   0  0  0  0  0  0  0  0  0  0  0  0
   -0.7833    1.7336    0.0000 C   0  0  0  0  0  0  0  0  0  0  0  0
    0.8418   -1.1461    0.0000 C   0  0  0  0  0  0  0  0  0  0  0  0
   -1.2919    0.8709    0.0000 C   0  0  0  0  0  0  0  0  0  0  0  0
   -0.1167   -1.3711    0.0000 N   0  0  0  0  0  0  0  0  0  0  0  0
   -1.2919   -0.8585    0.0000 C   0  0  0  0  0  0  0  0  0  0  0  0
   -2.2920   -0.8585    0.0000 C   0  0  0  0  0  0  0  0  0  0  0  0
   -2.7920   -1.7294    0.0000 C   0  0  0  0  0  0  0  0  0  0  0  0
   -1.2837    2.5962    0.0000 C   0  0  0  0  0  0  0  0  0  0  0  0
   -2.2920   -2.5962    0.0000 C   0  0  0  0  0  0  0  0  0  0  0  0
   -0.7918   -1.7294    0.0000 C   0  0  0  0  0  0  0  0  0  0  0  0
   -1.2919   -2.5962    0.0000 C   0  0  0  0  0  0  0  0  0  0  0  0
   -0.7709    3.4589    0.0000 F   0  0  0  0  0  0  0  0  0  0  0  0
   -2.2836    2.6046    0.0000 F   0  0  0  0  0  0  0  0  0  0  0  0
    2.5295   -2.5588    0.0000 C   0  0  0  0  0  0  0  0  0  0  0  0
   -3.7921   -1.7294    0.0000 O   0  0  0  0  0  0  0  0  0  0  0  0
    4.2923   -1.5920    0.0000 C   0  0  0  0  0  0  0  0  0  0  0  0
   -2.7920   -3.4589    0.0000 O   0  0  0  0  0  0  0  0  0  0  0  0
   -4.2923   -0.8585    0.0000 C   0  0  0  0  0  0  0  0  0  0  0  0
   -3.7921   -3.4589    0.0000 C   0  0  0  0  0  0  0  0  0  0  0  0
    3.3963   -3.0838    0.0000 C   0  0  0  0  0  0  0  0  0  0  0  0
    4.2674   -2.5962    0.0000 C   0  0  0  0  0  0  0  0  0  0  0  0
  1  2  2  0  0  0  0
  3  5  1  0  0  0  0
  1  4  1  0  0  0  0
  1  5  1  0  0  0  0
  2  6  1  0  0  0  0
  4  7  1  0  0  0  0
  6  7  2  0  0  0  0
  3  8  1  0  0  0  0
  3  9  2  0  0  0  0
  8 10  2  0  0  0  0
 10 13  1  0  0  0  0
  9 11  1  0  0  0  0
  2 12  1  0  0  0  0
 11 13  2  0  0  0  0
 12 14  3  0  0  0  0
 10 15  1  0  0  0  0
 15 16  1  0  0  0  0
 16 17  2  0  0  0  0
 11 18  1  0  0  0  0
 19 21  2  0  0  0  0
 17 19  1  0  0  0  0
 15 20  2  0  0  0  0
 20 21  1  0  0  0  0
 18 22  1  0  0  0  0
 18 23  1  0  0  0  0
  6 24  1  0  0  0  0
 17 25  1  0  0  0  0
  7 26  1  0  0  0  0
 19 27  1  0  0  0  0
 25 28  1  0  0  0  0
 27 29  1  0  0  0  0
 24 30  1  0  0  0  0
 26 31  1  0  0  0  0
 30 31  1  0  0  0  0
M  END
> <IDNUMBER>
Y505-1727

> <available>
21

> <H_acceptor>
5

> <H_donor>
1

> <B_rotN>
7

> <N_O>
6

> <logP>
5.304

> <logD>
5.2988

> <logSw>
-5.4523

> <PSA>
60.617

> <pKa_ma>
11.8181

> <pKa_mb>
5.4812

> <N_Chirals>
0

> <Name>
2-{[4-(difluoromethyl)-6-(3,4-dimethoxyphenyl)pyrimidin-2-yl]amino}-4,5,6,7-tetrahydro-1-benzothiophene-3-carbonitrile

> <Smile>
COc(ccc(-c1cc(C(F)F)nc(Nc(sc2c3CCCC2)c3C#N)n1)c1)c1OC

> <Color>
BROWN

> <Collection>
DC

> <InChI>
InChI=1S/C22H20F2N4O2S/c1-29-17-8-7-12(9-18(17)30-2)15-10-16(20(23)24)27-22(26-15)28-21-14(11-25)13-5-3-4-6-19(13)31-21/h7-10,20H,3-6H2,1-2H3,(H,26,27,28)

> <InChI Key>
SFFNXGXGTBBPOK-UHFFFAOYSA-N

> <PERCENTSP3>
31.8

> <Link>
https://www.chemdiv.com/catalog/screening-compounds/compound-Y505-1727/

> <MFCDNUMBER>
MFCD10700556

> <STEREO>
ACHIRAL

> <State>
Solid

> <Similarity score>
0.19

$$$$
2-amino-6-methyl-4,5,6,7-tetrahydrothieno[2,3-c]pyridine-3-carbonitrile
  -OEChem-04222410502D

 13 14  0     0  0  0  0  0  0999 V2000
    0.9791   -0.0515    0.0000 C   0  0  0  0  0  0  0  0  0  0  0  0
    1.5684   -0.8581    0.0000 C   0  0  0  0  0  0  0  0  0  0  0  0
    0.0292   -0.3540    0.0000 C   0  0  0  0  0  0  0  0  0  0  0  0
    0.0292   -1.3555    0.0000 C   0  0  0  0  0  0  0  0  0  0  0  0
    0.9791   -1.6693    0.0000 S   0  0  0  0  0  0  0  0  0  0  0  0
    1.2861    0.9030    0.0000 C   0  0  0  0  0  0  0  0  0  0  0  0
    1.5415    1.8663    0.0000 N   0  0  0  0  0  0  0  0  0  0  0  0
   -1.6983   -1.3622    0.0000 N   0  0  0  0  0  0  0  0  0  0  0  0
   -0.8379   -1.8529    0.0000 C   0  0  0  0  0  0  0  0  0  0  0  0
   -0.8379    0.1434    0.0000 C   0  0  0  0  0  0  0  0  0  0  0  0
    2.5700   -0.8581    0.0000 N   0  0  0  0  0  0  0  0  0  0  0  0
   -1.6983   -0.3540    0.0000 C   0  0  0  0  0  0  0  0  0  0  0  0
   -2.5700   -1.8663    0.0000 C   0  0  0  0  0  0  0  0  0  0  0  0
  1  2  2  0  0  0  0
  1  3  1  0  0  0  0
  3  4  2  0  0  0  0
  4  5  1  0  0  0  0
  2  5  1  0  0  0  0
  1  6  1  0  0  0  0
  6  7  3  0  0  0  0
  8 12  1  0  0  0  0
  4  9  1  0  0  0  0
  8  9  1  0  0  0  0
  3 10  1  0  0  0  0
  2 11  1  0  0  0  0
 10 12  1  0  0  0  0
  8 13  1  0  0  0  0
M  END
> <IDNUMBER>
K815-1018

> <available>
11

> <H_acceptor>
2

> <H_donor>
2

> <B_rotN>
1

> <N_O>
3

> <logP>
0.7961

> <logD>
0.7867

> <logSw>
-0.8538

> <PSA>
41.902

> <pKa_ma>
15.4685

> <pKa_mb>
5.7408

> <N_Chirals>
0

> <Name>
2-amino-6-methyl-4,5,6,7-tetrahydrothieno[2,3-c]pyridine-3-carbonitrile

> <Smile>
CN(CC1)Cc2c1c(C#N)c(N)s2

> <Color>
YELLOW

> <Collection>
DC

> <InChI>
InChI=1S/C9H11N3S/c1-12-3-2-6-7(4-10)9(11)13-8(6)5-12/h2-3,5,11H2,1H3

> <InChI Key>
WVPOJZUKIIRHOQ-UHFFFAOYSA-N

> <PERCENTSP3>
44.4

> <Link>
https://www.chemdiv.com/catalog/screening-compounds/compound-K815-1018/

> <MFCDNUMBER>
MFCD00712387

> <CLNUMBER>
CL5675

> <STEREO>
ACHIRAL

> <State>
Solid

> <Similarity score>
0.19

$$$$
1-{3-fluoro-3-[3-(pyridin-4-yl)-1,2,4-oxadiazol-5-yl]piperidin-1-yl}-3-(4-methox
  -OEChem-04222410502D

 30 33  0     0  0  0  0  0  0999 V2000
   -0.6426    3.1060    0.0000 N   0  0  0  0  0  0  0  0  0  0  0  0
    0.3447    3.2656    0.0000 C   0  0  0  0  0  0  0  0  0  0  0  0
    1.0591    2.5604    0.0000 C   0  0  3  0  0  0  0  0  0  0  0  0
   -1.0939    3.9990    0.0000 C   0  0  0  0  0  0  0  0  0  0  0  0
   -0.3887    4.7137    0.0000 N   0  0  0  0  0  0  0  0  0  0  0  0
    2.5604    1.6893    0.0000 N   0  0  0  0  0  0  0  0  0  0  0  0
    0.5047    4.2468    0.0000 O   0  0  0  0  0  0  0  0  0  0  0  0
    1.5543    1.6893    0.0000 C   0  0  0  0  0  0  0  0  0  0  0  0
    3.0526    0.8212    0.0000 C   0  0  0  0  0  0  0  0  0  0  0  0
   -2.0904    4.1527    0.0000 C   0  0  0  0  0  0  0  0  0  0  0  0
    4.0586    0.8212    0.0000 O   0  0  0  0  0  0  0  0  0  0  0  0
    2.5604   -0.0439    0.0000 C   0  0  0  0  0  0  0  0  0  0  0  0
    0.6708    1.6297    0.0000 F   0  0  0  0  0  0  0  0  0  0  0  0
   -4.0586    4.4693    0.0000 N   0  0  0  0  0  0  0  0  0  0  0  0
    1.5543    3.4193    0.0000 C   0  0  0  0  0  0  0  0  0  0  0  0
    2.5604   -1.7834    0.0000 C   0  0  0  0  0  0  0  0  0  0  0  0
    3.0526    2.5604    0.0000 C   0  0  0  0  0  0  0  0  0  0  0  0
    1.5543   -3.5133    0.0000 C   0  0  0  0  0  0  0  0  0  0  0  0
    3.0526   -0.9153    0.0000 C   0  0  0  0  0  0  0  0  0  0  0  0
    1.5543   -1.7834    0.0000 C   0  0  0  0  0  0  0  0  0  0  0  0
    3.0526   -2.6452    0.0000 C   0  0  0  0  0  0  0  0  0  0  0  0
    1.0591   -2.6452    0.0000 C   0  0  0  0  0  0  0  0  0  0  0  0
    2.5604   -3.5133    0.0000 C   0  0  0  0  0  0  0  0  0  0  0  0
    1.0591   -4.3752    0.0000 O   0  0  0  0  0  0  0  0  0  0  0  0
    2.5604    3.4193    0.0000 C   0  0  0  0  0  0  0  0  0  0  0  0
   -3.7077    3.5383    0.0000 C   0  0  0  0  0  0  0  0  0  0  0  0
   -3.4350    5.2433    0.0000 C   0  0  0  0  0  0  0  0  0  0  0  0
   -2.7203    3.3787    0.0000 C   0  0  0  0  0  0  0  0  0  0  0  0
   -2.4476    5.0896    0.0000 C   0  0  0  0  0  0  0  0  0  0  0  0
    1.5543   -5.2433    0.0000 C   0  0  0  0  0  0  0  0  0  0  0  0
  1  2  2  0  0  0  0
  2  3  1  0  0  0  0
  1  4  1  0  0  0  0
  4  5  2  0  0  0  0
  5  7  1  0  0  0  0
  6  8  1  0  0  0  0
  2  7  1  0  0  0  0
  3  8  1  0  0  0  0
  6  9  1  0  0  0  0
  4 10  1  0  0  0  0
  9 11  2  0  0  0  0
  9 12  1  0  0  0  0
  3 13  1  0  0  0  0
 14 27  2  0  0  0  0
 14 26  1  0  0  0  0
  3 15  1  0  0  0  0
 16 19  1  0  0  0  0
 17 25  1  0  0  0  0
  6 17  1  0  0  0  0
 18 23  1  0  0  0  0
 12 19  1  0  0  0  0
 16 20  2  0  0  0  0
 16 21  1  0  0  0  0
 20 22  1  0  0  0  0
 18 22  2  0  0  0  0
 21 23  2  0  0  0  0
 18 24  1  0  0  0  0
 15 25  1  0  0  0  0
 26 28  2  0  0  0  0
 27 29  1  0  0  0  0
 10 28  1  0  0  0  0
 10 29  2  0  0  0  0
 24 30  1  0  0  0  0
M  END
> <IDNUMBER>
SA92-0183

> <available>
70

> <H_acceptor>
7

> <H_donor>
0

> <B_rotN>
7

> <N_O>
7

> <logP>
3.2908

> <logD>
3.2907

> <logSw>
-3.2472

> <PSA>
64.671

> <pKa_ma>
22.9745

> <pKa_mb>
3.6841

> <N_Chirals>
1

> <Name>
1-{3-fluoro-3-[3-(pyridin-4-yl)-1,2,4-oxadiazol-5-yl]piperidin-1-yl}-3-(4-methoxyphenyl)propan-1-one

> <Smile>
COc1ccc(CCC(N(CCC2)CC2(c2nc(-c3ccncc3)no2)F)=O)cc1

> <Color>
YELLOW

> <Collection>
IC

> <InChI>
InChI=1S/C22H23FN4O3/c1-29-18-6-3-16(4-7-18)5-8-19(28)27-14-2-11-22(23,15-27)21-25-20(26-30-21)17-9-12-24-13-10-17/h3-4,6-7,9-10,12-13H,2,5,8,11,14-15H2,1H3/t22-/m0/s1

> <InChI Key>
JNNBZZARQNPXQU-QFIPXVFZSA-N

> <PERCENTSP3>
36.36

> <Link>
https://www.chemdiv.com/catalog/screening-compounds/compound-SA92-0183/

> <MFCDNUMBER>
MFCD32241446

> <CLNUMBER>
CM4899

> <STEREO>
RACEMIC MIXTURE

> <State>
Liquid

> <Similarity score>
0.18

$$$$
4-(5-{3-fluoro-1-[(4-methyl-1,3-thiazol-5-yl)methyl]piperidin-3-yl}-1,2,4-oxadia
  -OEChem-04222410502D

 25 28  0     0  0  0  0  0  0999 V2000
   -0.5845   -1.2957    0.0000 N   0  0  0  0  0  0  0  0  0  0  0  0
    0.4027   -1.4522    0.0000 C   0  0  0  0  0  0  0  0  0  0  0  0
   -1.0355   -2.1886    0.0000 C   0  0  0  0  0  0  0  0  0  0  0  0
    1.1077   -0.7472    0.0000 C   0  0  3  0  0  0  0  0  0  0  0  0
   -0.3305   -2.8999    0.0000 N   0  0  0  0  0  0  0  0  0  0  0  0
    2.6116    1.8534    0.0000 C   0  0  0  0  0  0  0  0  0  0  0  0
    0.5592   -2.4424    0.0000 O   0  0  0  0  0  0  0  0  0  0  0  0
    2.2796    3.4358    0.0000 N   0  0  0  0  0  0  0  0  0  0  0  0
    3.0221    2.7654    0.0000 C   0  0  0  0  0  0  0  0  0  0  0  0
    2.6116    0.1175    0.0000 N   0  0  0  0  0  0  0  0  0  0  0  0
    1.6154    1.9569    0.0000 S   0  0  0  0  0  0  0  0  0  0  0  0
    1.4084    2.9344    0.0000 C   0  0  0  0  0  0  0  0  0  0  0  0
    1.6154    0.1175    0.0000 C   0  0  0  0  0  0  0  0  0  0  0  0
    3.1099    0.9887    0.0000 C   0  0  0  0  0  0  0  0  0  0  0  0
   -2.0257   -2.3484    0.0000 C   0  0  0  0  0  0  0  0  0  0  0  0
    0.7285    0.1802    0.0000 F   0  0  0  0  0  0  0  0  0  0  0  0
   -3.9998   -2.6586    0.0000 N   0  0  0  0  0  0  0  0  0  0  0  0
    1.6154   -1.6122    0.0000 C   0  0  0  0  0  0  0  0  0  0  0  0
    3.1099   -0.7472    0.0000 C   0  0  0  0  0  0  0  0  0  0  0  0
    3.9998    2.9721    0.0000 C   0  0  0  0  0  0  0  0  0  0  0  0
    2.6116   -1.6122    0.0000 C   0  0  0  0  0  0  0  0  0  0  0  0
   -3.6426   -1.7249    0.0000 C   0  0  0  0  0  0  0  0  0  0  0  0
   -3.3701   -3.4358    0.0000 C   0  0  0  0  0  0  0  0  0  0  0  0
   -2.6556   -1.5682    0.0000 C   0  0  0  0  0  0  0  0  0  0  0  0
   -2.3891   -3.2758    0.0000 C   0  0  0  0  0  0  0  0  0  0  0  0
  1  2  2  0  0  0  0
  1  3  1  0  0  0  0
  2  4  1  0  0  0  0
  3  5  2  0  0  0  0
  5  7  1  0  0  0  0
  6 14  1  0  0  0  0
  2  7  1  0  0  0  0
  8  9  1  0  0  0  0
  6  9  2  0  0  0  0
 10 13  1  0  0  0  0
  6 11  1  0  0  0  0
 11 12  1  0  0  0  0
  8 12  2  0  0  0  0
  4 13  1  0  0  0  0
 10 14  1  0  0  0  0
  3 15  1  0  0  0  0
  4 16  1  0  0  0  0
 17 23  2  0  0  0  0
 17 22  1  0  0  0  0
  4 18  1  0  0  0  0
 19 21  1  0  0  0  0
 10 19  1  0  0  0  0
  9 20  1  0  0  0  0
 18 21  1  0  0  0  0
 22 24  2  0  0  0  0
 23 25  1  0  0  0  0
 15 24  1  0  0  0  0
 15 25  2  0  0  0  0
M  END
> <IDNUMBER>
SA92-0264

> <available>
65

> <H_acceptor>
6

> <H_donor>
0

> <B_rotN>
4

> <N_O>
6

> <logP>
2.4633

> <logD>
2.3955

> <logSw>
-2.4011

> <PSA>
54.943

> <pKa_ma>
26.9519

> <pKa_mb>
6.6276

> <N_Chirals>
1

> <Name>
4-(5-{3-fluoro-1-[(4-methyl-1,3-thiazol-5-yl)methyl]piperidin-3-yl}-1,2,4-oxadiazol-3-yl)pyridine

> <Smile>
Cc1c(CN(CCC2)CC2(c2nc(-c3ccncc3)no2)F)scn1

> <Color>
YELLOW

> <Collection>
IC

> <InChI>
InChI=1S/C17H18FN5OS/c1-12-14(25-11-20-12)9-23-8-2-5-17(18,10-23)16-21-15(22-24-16)13-3-6-19-7-4-13/h3-4,6-7,11H,2,5,8-10H2,1H3/t17-/m0/s1

> <InChI Key>
ARFZORDUHWTOHJ-KRWDZBQOSA-N

> <PERCENTSP3>
41.18

> <Link>
https://www.chemdiv.com/catalog/screening-compounds/compound-SA92-0264/

> <MFCDNUMBER>
MFCD32242329

> <CLNUMBER>
CM4899

> <STEREO>
RACEMIC MIXTURE

> <State>
Oil

> <Similarity score>
0.18

$$$$
N-(3-cyano-4,5,6,7-tetrahydro-1-benzothiophen-2-yl)-3-(3-{[(5-methyl-1H-benzimid
  -OEChem-04222410502D

 33 37  0     0  0  0  0  0  0999 V2000
    4.2804    1.2734    0.0000 C   0  0  0  0  0  0  0  0  0  0  0  0
    5.2513    0.9815    0.0000 C   0  0  0  0  0  0  0  0  0  0  0  0
    4.2678    2.2693    0.0000 S   0  0  0  0  0  0  0  0  0  0  0  0
    5.8056    1.7858    0.0000 C   0  0  0  0  0  0  0  0  0  0  0  0
   -3.0842   -2.6278    0.0000 C   0  0  0  0  0  0  0  0  0  0  0  0
   -3.6718   -1.8025    0.0000 N   0  0  0  0  0  0  0  0  0  0  0  0
    0.0626   -0.9065    0.0000 N   0  0  0  0  0  0  0  0  0  0  0  0
    5.2056    2.5945    0.0000 C   0  0  0  0  0  0  0  0  0  0  0  0
   -3.6592   -3.4321    0.0000 N   0  0  0  0  0  0  0  0  0  0  0  0
   -0.5377   -1.7399    0.0000 C   0  0  0  0  0  0  0  0  0  0  0  0
    3.4884    0.6731    0.0000 N   0  0  0  0  0  0  0  0  0  0  0  0
    0.0666   -2.5776    0.0000 N   0  0  0  0  0  0  0  0  0  0  0  0
   -4.6094   -2.1194    0.0000 C   0  0  0  0  0  0  0  0  0  0  0  0
    5.5805    0.0313    0.0000 C   0  0  0  0  0  0  0  0  0  0  0  0
    1.0420   -1.2191    0.0000 C   0  0  0  0  0  0  0  0  0  0  0  0
   -4.6094   -3.1153    0.0000 C   0  0  0  0  0  0  0  0  0  0  0  0
    1.0420   -2.2569    0.0000 O   0  0  0  0  0  0  0  0  0  0  0  0
    5.9058   -0.9065    0.0000 N   0  0  0  0  0  0  0  0  0  0  0  0
    2.5675    1.0607    0.0000 C   0  0  0  0  0  0  0  0  0  0  0  0
   -2.0838   -2.6195    0.0000 S   0  0  0  0  0  0  0  0  0  0  0  0
   -5.4763   -1.6191    0.0000 C   0  0  0  0  0  0  0  0  0  0  0  0
    2.4799    1.7818    0.0000 O   0  0  0  0  0  0  0  0  0  0  0  0
   -1.5837   -1.7525    0.0000 C   0  0  0  0  0  0  0  0  0  0  0  0
   -5.4723   -3.6196    0.0000 C   0  0  0  0  0  0  0  0  0  0  0  0
    1.8797   -0.5939    0.0000 C   0  0  0  0  0  0  0  0  0  0  0  0
    1.7422    0.4231    0.0000 C   0  0  0  0  0  0  0  0  0  0  0  0
   -6.3392   -2.1194    0.0000 C   0  0  0  0  0  0  0  0  0  0  0  0
    6.8017    1.8984    0.0000 C   0  0  0  0  0  0  0  0  0  0  0  0
   -6.3309   -3.1195    0.0000 C   0  0  0  0  0  0  0  0  0  0  0  0
    5.6058    3.5071    0.0000 C   0  0  0  0  0  0  0  0  0  0  0  0
   -7.2019   -1.6191    0.0000 C   0  0  0  0  0  0  0  0  0  0  0  0
    7.2019    2.8319    0.0000 C   0  0  0  0  0  0  0  0  0  0  0  0
    6.5933    3.6196    0.0000 C   0  0  0  0  0  0  0  0  0  0  0  0
  1  2  2  0  0  0  0
  1  3  1  0  0  0  0
  2  4  1  0  0  0  0
  5 20  1  0  0  0  0
  5  6  2  0  0  0  0
  7 15  2  0  0  0  0
  3  8  1  0  0  0  0
  4  8  2  0  0  0  0
  5  9  1  0  0  0  0
  7 10  1  0  0  0  0
  1 11  1  0  0  0  0
 12 17  1  0  0  0  0
 10 12  2  0  0  0  0
  6 13  1  0  0  0  0
  2 14  1  0  0  0  0
 15 25  1  0  0  0  0
  9 16  1  0  0  0  0
 13 16  2  0  0  0  0
 15 17  1  0  0  0  0
 14 18  3  0  0  0  0
 11 19  1  0  0  0  0
 20 23  1  0  0  0  0
 13 21  1  0  0  0  0
 19 22  2  0  0  0  0
 10 23  1  0  0  0  0
 16 24  1  0  0  0  0
 25 26  1  0  0  0  0
 19 26  1  0  0  0  0
 21 27  2  0  0  0  0
 27 29  1  0  0  0  0
  4 28  1  0  0  0  0
 24 29  2  0  0  0  0
  8 30  1  0  0  0  0
 27 31  1  0  0  0  0
 28 32  1  0  0  0  0
 30 33  1  0  0  0  0
 32 33  1  0  0  0  0
M  END
> <IDNUMBER>
J021-0448

> <available>
65

> <H_acceptor>
8

> <H_donor>
2

> <B_rotN>
9

> <N_O>
8

> <logP>
4.1744

> <logD>
2.8555

> <logSw>
-4.4324

> <PSA>
90.234

> <pKa_ma>
6.1024

> <pKa_mb>
6.5756

> <N_Chirals>
0

> <Name>
N-(3-cyano-4,5,6,7-tetrahydro-1-benzothiophen-2-yl)-3-(3-{[(5-methyl-1H-benzimidazol-2-yl)sulfanyl]methyl}-1,2,4-oxadiazol-5-yl)propanamide

> <Smile>
Cc(cc1)cc2c1[nH]c(SCc1noc(CCC(Nc(sc3c4CCCC3)c4C#N)=O)n1)n2

> <Color>
NOT COLORED

> <Collection>
DC

> <InChI>
InChI=1S/C23H22N6O2S2/c1-13-6-7-16-17(10-13)26-23(25-16)32-12-19-27-21(31-29-19)9-8-20(30)28-22-15(11-24)14-4-2-3-5-18(14)33-22/h6-7,10H,2-5,8-9,12H2,1H3,(H,25,26)(H,28,30)

> <InChI Key>
HWAHMFFBRXTCGC-UHFFFAOYSA-N

> <PERCENTSP3>
34.8

> <Link>
https://www.chemdiv.com/catalog/screening-compounds/compound-J021-0448/

> <MFCDNUMBER>
MFCD27218420

> <CLNUMBER>
CL8315

> <STEREO>
ACHIRAL

> <State>
Solid

> <Similarity score>
0.18

$$$$
N-(3-cyano-4,5,6,7-tetrahydro-1-benzothiophen-2-yl)-2-[(5-methoxy-1H-benzimidazo
  -OEChem-04222410502D

 27 30  0     0  0  0  0  0  0999 V2000
    2.3969   -1.2795    0.0000 C   0  0  0  0  0  0  0  0  0  0  0  0
    3.0304   -0.4710    0.0000 C   0  0  0  0  0  0  0  0  0  0  0  0
    2.9220   -2.0843    0.0000 S   0  0  0  0  0  0  0  0  0  0  0  0
    3.9476   -0.8337    0.0000 C   0  0  0  0  0  0  0  0  0  0  0  0
   -1.6172    0.4544    0.0000 C   0  0  0  0  0  0  0  0  0  0  0  0
   -2.1798    1.2672    0.0000 N   0  0  0  0  0  0  0  0  0  0  0  0
    3.8723   -1.8465    0.0000 C   0  0  0  0  0  0  0  0  0  0  0  0
   -2.1798   -0.3459    0.0000 N   0  0  0  0  0  0  0  0  0  0  0  0
    1.3965   -1.2795    0.0000 N   0  0  0  0  0  0  0  0  0  0  0  0
   -3.1219    0.9421    0.0000 C   0  0  0  0  0  0  0  0  0  0  0  0
    2.7970    0.4961    0.0000 C   0  0  0  0  0  0  0  0  0  0  0  0
   -3.1219   -0.0708    0.0000 C   0  0  0  0  0  0  0  0  0  0  0  0
    2.5720    1.4673    0.0000 N   0  0  0  0  0  0  0  0  0  0  0  0
    0.9169   -0.4335    0.0000 C   0  0  0  0  0  0  0  0  0  0  0  0
   -3.9807    1.4673    0.0000 C   0  0  0  0  0  0  0  0  0  0  0  0
   -0.5919    0.4544    0.0000 S   0  0  0  0  0  0  0  0  0  0  0  0
    1.3965    0.4544    0.0000 O   0  0  0  0  0  0  0  0  0  0  0  0
   -3.9807   -0.5542    0.0000 C   0  0  0  0  0  0  0  0  0  0  0  0
   -0.1041   -0.4335    0.0000 C   0  0  0  0  0  0  0  0  0  0  0  0
   -4.8435    0.9421    0.0000 C   0  0  0  0  0  0  0  0  0  0  0  0
   -4.8435   -0.0708    0.0000 C   0  0  0  0  0  0  0  0  0  0  0  0
    4.8602   -0.4335    0.0000 C   0  0  0  0  0  0  0  0  0  0  0  0
    4.7103   -2.4218    0.0000 C   0  0  0  0  0  0  0  0  0  0  0  0
   -5.7064    1.4298    0.0000 O   0  0  0  0  0  0  0  0  0  0  0  0
   -5.7064    2.4218    0.0000 C   0  0  0  0  0  0  0  0  0  0  0  0
    5.7064   -0.9712    0.0000 C   0  0  0  0  0  0  0  0  0  0  0  0
    5.6358   -1.9799    0.0000 C   0  0  0  0  0  0  0  0  0  0  0  0
  1  2  2  0  0  0  0
  1  3  1  0  0  0  0
  2  4  1  0  0  0  0
  4  7  2  0  0  0  0
  5 16  1  0  0  0  0
  5  6  2  0  0  0  0
  3  7  1  0  0  0  0
  5  8  1  0  0  0  0
  1  9  1  0  0  0  0
  6 10  1  0  0  0  0
 10 12  2  0  0  0  0
  2 11  1  0  0  0  0
  8 12  1  0  0  0  0
 11 13  3  0  0  0  0
  9 14  1  0  0  0  0
 10 15  1  0  0  0  0
 16 19  1  0  0  0  0
 14 17  2  0  0  0  0
 12 18  1  0  0  0  0
 14 19  1  0  0  0  0
 15 20  2  0  0  0  0
 20 21  1  0  0  0  0
 18 21  2  0  0  0  0
  4 22  1  0  0  0  0
  7 23  1  0  0  0  0
 20 24  1  0  0  0  0
 24 25  1  0  0  0  0
 22 26  1  0  0  0  0
 26 27  1  0  0  0  0
 23 27  1  0  0  0  0
M  END
> <IDNUMBER>
Y505-4845

> <available>
26

> <H_acceptor>
6

> <H_donor>
2

> <B_rotN>
7

> <N_O>
6

> <logP>
3.5256

> <logD>
2.4929

> <logSw>
-4.2098

> <PSA>
65.444

> <pKa_ma>
6.4095

> <pKa_mb>
4.2873

> <N_Chirals>
0

> <Name>
N-(3-cyano-4,5,6,7-tetrahydro-1-benzothiophen-2-yl)-2-[(5-methoxy-1H-benzimidazol-2-yl)sulfanyl]acetamide

> <Smile>
c1(c(c2c(s1)CCCC2)C#N)NC(=O)CSc1nc2c([nH]1)ccc(c2)OC

> <Color>
ORANGE

> <Collection>
DC

> <InChI>
InChI=1S/C19H18N4O2S2/c1-25-11-6-7-14-15(8-11)22-19(21-14)26-10-17(24)23-18-13(9-20)12-4-2-3-5-16(12)27-18/h6-8H,2-5,10H2,1H3,(H,21,22)(H,23,24)

> <InChI Key>
JPLSNKJYBYFQJI-UHFFFAOYSA-N

> <PERCENTSP3>
8

> <Link>
https://www.chemdiv.com/catalog/screening-compounds/compound-Y505-4845/

> <MFCDNUMBER>
MFCD02008494

> <STEREO>
ACHIRAL

> <State>
Solid

> <Similarity score>
0.18

$$$$
N-(3-cyano-4,5,6,7-tetrahydro-1-benzothiophen-2-yl)-2-phenoxybutanamide
  -OEChem-04222410502D

 24 26  0     0  0  0  0  0  0999 V2000
    1.3694   -0.8691    0.0000 C   0  0  0  0  0  0  0  0  0  0  0  0
    1.9403   -0.0647    0.0000 C   0  0  0  0  0  0  0  0  0  0  0  0
    1.9403   -1.6736    0.0000 S   0  0  0  0  0  0  0  0  0  0  0  0
    2.8950   -0.3607    0.0000 C   0  0  0  0  0  0  0  0  0  0  0  0
    0.3730   -0.8691    0.0000 N   0  0  0  0  0  0  0  0  0  0  0  0
    2.8950   -1.3569    0.0000 C   0  0  0  0  0  0  0  0  0  0  0  0
   -0.1147   -0.0022    0.0000 C   0  0  0  0  0  0  0  0  0  0  0  0
    1.6235    0.8900    0.0000 C   0  0  0  0  0  0  0  0  0  0  0  0
    1.2818    1.8653    0.0000 N   0  0  0  0  0  0  0  0  0  0  0  0
   -1.1358   -0.0022    0.0000 C   0  0  3  0  0  0  0  0  0  0  0  0
   -1.6236    0.8690    0.0000 O   0  0  0  0  0  0  0  0  0  0  0  0
    0.3730    0.8483    0.0000 O   0  0  0  0  0  0  0  0  0  0  0  0
   -2.6199    0.8690    0.0000 C   0  0  0  0  0  0  0  0  0  0  0  0
    3.7662    0.1271    0.0000 C   0  0  0  0  0  0  0  0  0  0  0  0
    3.7662   -1.8653    0.0000 C   0  0  0  0  0  0  0  0  0  0  0  0
   -1.6236   -0.8691    0.0000 C   0  0  0  0  0  0  0  0  0  0  0  0
   -3.1285    0.0230    0.0000 C   0  0  0  0  0  0  0  0  0  0  0  0
   -3.1285    1.7403    0.0000 C   0  0  0  0  0  0  0  0  0  0  0  0
    4.6332   -0.3607    0.0000 C   0  0  0  0  0  0  0  0  0  0  0  0
    4.6332   -1.3569    0.0000 C   0  0  0  0  0  0  0  0  0  0  0  0
   -1.1358   -1.7403    0.0000 C   0  0  0  0  0  0  0  0  0  0  0  0
   -4.1247    0.0230    0.0000 C   0  0  0  0  0  0  0  0  0  0  0  0
   -4.1247    1.7612    0.0000 C   0  0  0  0  0  0  0  0  0  0  0  0
   -4.6332    0.8690    0.0000 C   0  0  0  0  0  0  0  0  0  0  0  0
  1  2  2  0  0  0  0
  1  3  1  0  0  0  0
  2  4  1  0  0  0  0
  1  5  1  0  0  0  0
  3  6  1  0  0  0  0
  4  6  2  0  0  0  0
  5  7  1  0  0  0  0
  2  8  1  0  0  0  0
  8  9  3  0  0  0  0
  7 10  1  0  0  0  0
 10 11  1  0  0  0  0
  7 12  2  0  0  0  0
 11 13  1  0  0  0  0
  4 14  1  0  0  0  0
  6 15  1  0  0  0  0
 10 16  1  0  0  0  0
 13 17  2  0  0  0  0
 13 18  1  0  0  0  0
 14 19  1  0  0  0  0
 19 20  1  0  0  0  0
 15 20  1  0  0  0  0
 16 21  1  0  0  0  0
 17 22  1  0  0  0  0
 18 23  2  0  0  0  0
 23 24  1  0  0  0  0
 22 24  2  0  0  0  0
M  END
> <IDNUMBER>
Y203-6112

> <available>
12

> <H_acceptor>
4

> <H_donor>
1

> <B_rotN>
7

> <N_O>
4

> <logP>
4.5466

> <logD>
2.9389

> <logSw>
-4.4714

> <PSA>
46.773

> <pKa_ma>
5.8032

> <pKa_mb>
-4.8807

> <N_Chirals>
1

> <Name>
N-(3-cyano-4,5,6,7-tetrahydro-1-benzothiophen-2-yl)-2-phenoxybutanamide

> <Smile>
CCC(C(Nc(sc1c2CCCC1)c2C#N)=O)Oc1ccccc1

> <Color>
BROWN

> <Collection>
DC

> <InChI>
InChI=1S/C19H20N2O2S/c1-2-16(23-13-8-4-3-5-9-13)18(22)21-19-15(12-20)14-10-6-7-11-17(14)24-19/h3-5,8-9,16H,2,6-7,10-11H2,1H3,(H,21,22)/t16-/m0/s1

> <InChI Key>
FYMKJXIUOQGUHW-INIZCTEOSA-N

> <PERCENTSP3>
36.84

> <Link>
https://www.chemdiv.com/catalog/screening-compounds/compound-Y203-6112/

> <MFCDNUMBER>
MFCD00851728

> <STEREO>
RACEMIC MIXTURE

> <State>
Solid

> <Similarity score>
0.18

$$$$
3-(3-{[(1,3-benzoxazol-2-yl)sulfanyl]methyl}-1,2,4-oxadiazol-5-yl)-N-(3-cyano-4,
  -OEChem-04222410502D

 32 36  0     0  0  0  0  0  0999 V2000
    3.8430    1.2736    0.0000 C   0  0  0  0  0  0  0  0  0  0  0  0
    4.8181    0.9817    0.0000 C   0  0  0  0  0  0  0  0  0  0  0  0
    3.8303    2.2697    0.0000 S   0  0  0  0  0  0  0  0  0  0  0  0
    5.3767    1.7859    0.0000 C   0  0  0  0  0  0  0  0  0  0  0  0
   -3.5136   -2.6280    0.0000 C   0  0  0  0  0  0  0  0  0  0  0  0
   -4.1095   -1.8024    0.0000 N   0  0  0  0  0  0  0  0  0  0  0  0
   -0.3710   -0.9066    0.0000 N   0  0  0  0  0  0  0  0  0  0  0  0
    4.7764    2.5948    0.0000 C   0  0  0  0  0  0  0  0  0  0  0  0
   -0.9711   -1.7400    0.0000 C   0  0  0  0  0  0  0  0  0  0  0  0
    3.0551    0.6733    0.0000 N   0  0  0  0  0  0  0  0  0  0  0  0
   -0.3710   -2.5779    0.0000 N   0  0  0  0  0  0  0  0  0  0  0  0
   -4.0970   -3.4322    0.0000 O   0  0  0  0  0  0  0  0  0  0  0  0
    5.1517    0.0313    0.0000 C   0  0  0  0  0  0  0  0  0  0  0  0
    0.6043   -1.2190    0.0000 C   0  0  0  0  0  0  0  0  0  0  0  0
    0.6128   -2.2570    0.0000 O   0  0  0  0  0  0  0  0  0  0  0  0
   -5.0474   -2.1195    0.0000 C   0  0  0  0  0  0  0  0  0  0  0  0
    5.4766   -0.9066    0.0000 N   0  0  0  0  0  0  0  0  0  0  0  0
   -5.0474   -3.1155    0.0000 C   0  0  0  0  0  0  0  0  0  0  0  0
    2.1298    1.0608    0.0000 C   0  0  0  0  0  0  0  0  0  0  0  0
   -2.5216   -2.6193    0.0000 S   0  0  0  0  0  0  0  0  0  0  0  0
    2.0507    1.7819    0.0000 O   0  0  0  0  0  0  0  0  0  0  0  0
   -2.0131   -1.7527    0.0000 C   0  0  0  0  0  0  0  0  0  0  0  0
    1.4422   -0.5940    0.0000 C   0  0  0  0  0  0  0  0  0  0  0  0
    1.3129    0.4233    0.0000 C   0  0  0  0  0  0  0  0  0  0  0  0
    6.3686    1.8986    0.0000 C   0  0  0  0  0  0  0  0  0  0  0  0
    5.1766    3.5073    0.0000 C   0  0  0  0  0  0  0  0  0  0  0  0
   -5.9102   -1.6190    0.0000 C   0  0  0  0  0  0  0  0  0  0  0  0
   -5.9102   -3.6200    0.0000 C   0  0  0  0  0  0  0  0  0  0  0  0
    6.7688    2.8321    0.0000 C   0  0  0  0  0  0  0  0  0  0  0  0
    6.1687    3.6200    0.0000 C   0  0  0  0  0  0  0  0  0  0  0  0
   -6.7646   -3.1198    0.0000 C   0  0  0  0  0  0  0  0  0  0  0  0
   -6.7688   -2.1195    0.0000 C   0  0  0  0  0  0  0  0  0  0  0  0
  1  2  2  0  0  0  0
  1  3  1  0  0  0  0
  2  4  1  0  0  0  0
  5 20  1  0  0  0  0
  5  6  2  0  0  0  0
  7 14  2  0  0  0  0
  3  8  1  0  0  0  0
  4  8  2  0  0  0  0
  7  9  1  0  0  0  0
  1 10  1  0  0  0  0
 11 15  1  0  0  0  0
  9 11  2  0  0  0  0
  5 12  1  0  0  0  0
  2 13  1  0  0  0  0
 14 23  1  0  0  0  0
 14 15  1  0  0  0  0
  6 16  1  0  0  0  0
 13 17  3  0  0  0  0
 12 18  1  0  0  0  0
 16 18  2  0  0  0  0
 10 19  1  0  0  0  0
 20 22  1  0  0  0  0
 19 21  2  0  0  0  0
  9 22  1  0  0  0  0
 23 24  1  0  0  0  0
 19 24  1  0  0  0  0
  4 25  1  0  0  0  0
  8 26  1  0  0  0  0
 16 27  1  0  0  0  0
 18 28  1  0  0  0  0
 25 29  1  0  0  0  0
 26 30  1  0  0  0  0
 29 30  1  0  0  0  0
 28 31  2  0  0  0  0
 27 32  2  0  0  0  0
 31 32  1  0  0  0  0
M  END
> <IDNUMBER>
J021-0120

> <available>
92

> <H_acceptor>
9

> <H_donor>
1

> <B_rotN>
9

> <N_O>
8

> <logP>
4.5264

> <logD>
3.2074

> <logSw>
-4.5742

> <PSA>
88.884

> <pKa_ma>
6.1024

> <pKa_mb>
0.428

> <N_Chirals>
0

> <Name>
3-(3-{[(1,3-benzoxazol-2-yl)sulfanyl]methyl}-1,2,4-oxadiazol-5-yl)-N-(3-cyano-4,5,6,7-tetrahydro-1-benzothiophen-2-yl)propanamide

> <Smile>
N#Cc1c(NC(CCc2nc(CSc3nc(cccc4)c4o3)no2)=O)sc2c1CCCC2

> <Color>
BROWN

> <Collection>
DC

> <InChI>
InChI=1S/C22H19N5O3S2/c23-11-14-13-5-1-4-8-17(13)32-21(14)26-19(28)9-10-20-25-18(27-30-20)12-31-22-24-15-6-2-3-7-16(15)29-22/h2-3,6-7H,1,4-5,8-10,12H2,(H,26,28)

> <InChI Key>
QWKGQSJEUSKONT-UHFFFAOYSA-N

> <PERCENTSP3>
31.8

> <Link>
https://www.chemdiv.com/catalog/screening-compounds/compound-J021-0120/

> <MFCDNUMBER>
MFCD24847622

> <CLNUMBER>
CL8315

> <STEREO>
ACHIRAL

> <State>
Solid

> <Similarity score>
0.18

$$$$
3-fluoro-N-(2-methoxyethyl)-3-[3-(pyridin-4-yl)-1,2,4-oxadiazol-5-yl]piperidine-
  -OEChem-04222410502D

 25 27  0     0  0  0  0  0  0999 V2000
   -0.6438   -2.2415    0.0000 N   0  0  0  0  0  0  0  0  0  0  0  0
    0.3460   -2.3949    0.0000 C   0  0  0  0  0  0  0  0  0  0  0  0
    1.0509   -1.6900    0.0000 C   0  0  3  0  0  0  0  0  0  0  0  0
   -1.0916   -3.1342    0.0000 C   0  0  0  0  0  0  0  0  0  0  0  0
   -0.3900   -3.8327    0.0000 N   0  0  0  0  0  0  0  0  0  0  0  0
    2.5610   -0.8224    0.0000 N   0  0  0  0  0  0  0  0  0  0  0  0
    0.5027   -3.3787    0.0000 O   0  0  0  0  0  0  0  0  0  0  0  0
    3.0588    0.0484    0.0000 C   0  0  0  0  0  0  0  0  0  0  0  0
    1.5491   -0.8224    0.0000 C   0  0  0  0  0  0  0  0  0  0  0  0
    4.0552    0.0484    0.0000 O   0  0  0  0  0  0  0  0  0  0  0  0
   -2.0784   -3.2783    0.0000 C   0  0  0  0  0  0  0  0  0  0  0  0
    0.6656   -0.7596    0.0000 F   0  0  0  0  0  0  0  0  0  0  0  0
   -4.0552   -3.5979    0.0000 N   0  0  0  0  0  0  0  0  0  0  0  0
    2.5610    0.9132    0.0000 N   0  0  0  0  0  0  0  0  0  0  0  0
    1.5491   -2.5546    0.0000 C   0  0  0  0  0  0  0  0  0  0  0  0
    3.0588   -1.6900    0.0000 C   0  0  0  0  0  0  0  0  0  0  0  0
    2.5610   -2.5546    0.0000 C   0  0  0  0  0  0  0  0  0  0  0  0
    3.0588    3.5102    0.0000 O   0  0  0  0  0  0  0  0  0  0  0  0
   -3.4255   -4.3747    0.0000 C   0  0  0  0  0  0  0  0  0  0  0  0
   -3.6981   -2.6674    0.0000 C   0  0  0  0  0  0  0  0  0  0  0  0
   -2.4388   -4.2181    0.0000 C   0  0  0  0  0  0  0  0  0  0  0  0
   -2.7080   -2.5078    0.0000 C   0  0  0  0  0  0  0  0  0  0  0  0
    3.0588    1.7778    0.0000 C   0  0  0  0  0  0  0  0  0  0  0  0
    2.5610    2.6423    0.0000 C   0  0  0  0  0  0  0  0  0  0  0  0
    2.5610    4.3747    0.0000 C   0  0  0  0  0  0  0  0  0  0  0  0
  1  2  2  0  0  0  0
  2  3  1  0  0  0  0
  1  4  1  0  0  0  0
  4  5  2  0  0  0  0
  5  7  1  0  0  0  0
  6  9  1  0  0  0  0
  2  7  1  0  0  0  0
  6  8  1  0  0  0  0
  3  9  1  0  0  0  0
  8 10  2  0  0  0  0
  4 11  1  0  0  0  0
  3 12  1  0  0  0  0
 13 20  1  0  0  0  0
 13 19  2  0  0  0  0
  8 14  1  0  0  0  0
  3 15  1  0  0  0  0
 16 17  1  0  0  0  0
  6 16  1  0  0  0  0
 15 17  1  0  0  0  0
 18 24  1  0  0  0  0
 19 21  1  0  0  0  0
 20 22  2  0  0  0  0
 11 21  2  0  0  0  0
 11 22  1  0  0  0  0
 14 23  1  0  0  0  0
 23 24  1  0  0  0  0
 18 25  1  0  0  0  0
M  END
> <IDNUMBER>
SA92-0235

> <available>
57

> <H_acceptor>
7

> <H_donor>
1

> <B_rotN>
7

> <N_O>
8

> <logP>
1.6173

> <logD>
1.6172

> <logSw>
-1.6835

> <PSA>
76.253

> <pKa_ma>
15.8688

> <pKa_mb>
3.6841

> <N_Chirals>
1

> <Name>
3-fluoro-N-(2-methoxyethyl)-3-[3-(pyridin-4-yl)-1,2,4-oxadiazol-5-yl]piperidine-1-carboxamide

> <Smile>
COCCNC(N(CCC1)CC1(c1nc(-c2ccncc2)no1)F)=O

> <Color>
NOT COLORED

> <Collection>
IC

> <InChI>
InChI=1S/C16H20FN5O3/c1-24-10-8-19-15(23)22-9-2-5-16(17,11-22)14-20-13(21-25-14)12-3-6-18-7-4-12/h3-4,6-7H,2,5,8-11H2,1H3,(H,19,23)/t16-/m0/s1

> <InChI Key>
YDVUVBREVBJBEC-INIZCTEOSA-N

> <PERCENTSP3>
50

> <Link>
https://www.chemdiv.com/catalog/screening-compounds/compound-SA92-0235/

> <MFCDNUMBER>
MFCD32242071

> <CLNUMBER>
CM4899

> <STEREO>
RACEMIC MIXTURE

> <State>
Solid

> <Similarity score>
0.18

$$$$
(2,6-dimethoxypyridin-3-yl){3-fluoro-3-[3-(pyridin-3-yl)-1,2,4-oxadiazol-5-yl]pi
  -OEChem-04222410502D

 30 33  0     0  0  0  0  0  0999 V2000
    0.0958    0.5602    0.0000 N   0  0  0  0  0  0  0  0  0  0  0  0
    0.4540    1.4934    0.0000 C   0  0  0  0  0  0  0  0  0  0  0  0
    1.4206   -1.2435    0.0000 C   0  0  0  0  0  0  0  0  0  0  0  0
   -0.9040    0.6186    0.0000 C   0  0  0  0  0  0  0  0  0  0  0  0
    2.2828   -0.7435    0.0000 C   0  0  0  0  0  0  0  0  0  0  0  0
    1.4206    1.7558    0.0000 C   0  0  3  0  0  0  0  0  0  0  0  0
    2.2828    0.2562    0.0000 N   0  0  0  0  0  0  0  0  0  0  0  0
   -1.1665    1.5809    0.0000 N   0  0  0  0  0  0  0  0  0  0  0  0
    1.4206   -2.2432    0.0000 C   0  0  0  0  0  0  0  0  0  0  0  0
    0.5541   -2.7433    0.0000 N   0  0  0  0  0  0  0  0  0  0  0  0
   -0.3208    2.1225    0.0000 O   0  0  0  0  0  0  0  0  0  0  0  0
    1.4206    0.7561    0.0000 C   0  0  0  0  0  0  0  0  0  0  0  0
   -1.5331   -0.1562    0.0000 C   0  0  0  0  0  0  0  0  0  0  0  0
    0.5541   -0.7435    0.0000 C   0  0  0  0  0  0  0  0  0  0  0  0
   -0.3166   -2.2432    0.0000 C   0  0  0  0  0  0  0  0  0  0  0  0
    3.1535   -1.2435    0.0000 O   0  0  0  0  0  0  0  0  0  0  0  0
   -3.1535   -0.7811    0.0000 N   0  0  0  0  0  0  0  0  0  0  0  0
    1.5455    2.7433    0.0000 F   0  0  0  0  0  0  0  0  0  0  0  0
   -0.3166   -1.2435    0.0000 C   0  0  0  0  0  0  0  0  0  0  0  0
    2.2828   -2.7433    0.0000 O   0  0  0  0  0  0  0  0  0  0  0  0
    2.2828    2.2557    0.0000 C   0  0  0  0  0  0  0  0  0  0  0  0
    3.1535    0.7561    0.0000 C   0  0  0  0  0  0  0  0  0  0  0  0
   -2.5202   -0.0063    0.0000 C   0  0  0  0  0  0  0  0  0  0  0  0
   -1.1788   -2.7433    0.0000 O   0  0  0  0  0  0  0  0  0  0  0  0
   -1.1788   -1.0936    0.0000 C   0  0  0  0  0  0  0  0  0  0  0  0
    3.1535    1.7558    0.0000 C   0  0  0  0  0  0  0  0  0  0  0  0
   -2.7910   -1.7185    0.0000 C   0  0  0  0  0  0  0  0  0  0  0  0
    3.1535   -2.2432    0.0000 C   0  0  0  0  0  0  0  0  0  0  0  0
   -2.0412   -2.2432    0.0000 C   0  0  0  0  0  0  0  0  0  0  0  0
   -1.8037   -1.8684    0.0000 C   0  0  0  0  0  0  0  0  0  0  0  0
  1  2  2  0  0  0  0
  3  5  1  0  0  0  0
  1  4  1  0  0  0  0
  5  7  1  0  0  0  0
  2  6  1  0  0  0  0
  7 12  1  0  0  0  0
  7 22  1  0  0  0  0
  4  8  2  0  0  0  0
  8 11  1  0  0  0  0
  3  9  2  0  0  0  0
  9 10  1  0  0  0  0
 10 15  2  0  0  0  0
  2 11  1  0  0  0  0
  6 12  1  0  0  0  0
  4 13  1  0  0  0  0
  3 14  1  0  0  0  0
 15 19  1  0  0  0  0
  5 16  2  0  0  0  0
 17 23  2  0  0  0  0
 17 27  1  0  0  0  0
  6 18  1  0  0  0  0
 14 19  2  0  0  0  0
  9 20  1  0  0  0  0
  6 21  1  0  0  0  0
 22 26  1  0  0  0  0
 13 23  1  0  0  0  0
 15 24  1  0  0  0  0
 13 25  2  0  0  0  0
 21 26  1  0  0  0  0
 27 30  2  0  0  0  0
 20 28  1  0  0  0  0
 24 29  1  0  0  0  0
 25 30  1  0  0  0  0
M  END
> <IDNUMBER>
SA92-0535

> <available>
51

> <H_acceptor>
9

> <H_donor>
0

> <B_rotN>
6

> <N_O>
9

> <logP>
2.6858

> <logD>
2.0471

> <logSw>
-2.6159

> <PSA>
82.105

> <pKa_ma>
27.08

> <pKa_mb>
7.9253

> <N_Chirals>
1

> <Name>
(2,6-dimethoxypyridin-3-yl){3-fluoro-3-[3-(pyridin-3-yl)-1,2,4-oxadiazol-5-yl]piperidin-1-yl}methanone

> <Smile>
COc(cc1)nc(OC)c1C(N(CCC1)CC1(c1nc(-c2cnccc2)no1)F)=O

> <Color>
BROWN

> <Collection>
IC

> <InChI>
InChI=1S/C20H20FN5O4/c1-28-15-7-6-14(17(23-15)29-2)18(27)26-10-4-8-20(21,12-26)19-24-16(25-30-19)13-5-3-9-22-11-13/h3,5-7,9,11H,4,8,10,12H2,1-2H3/t20-/m0/s1

> <InChI Key>
RCGDLOZSWISFNB-FQEVSTJZSA-N

> <PERCENTSP3>
35

> <Link>
https://www.chemdiv.com/catalog/screening-compounds/compound-SA92-0535/

> <MFCDNUMBER>
MFCD32242335

> <CLNUMBER>
CM4899

> <STEREO>
RACEMIC MIXTURE

> <State>
Oil

> <Similarity score>
0.18

$$$$
N-(3-cyano-5,6,7,8-tetrahydro-4H-cyclohepta[b]thiophen-2-yl)-2-(2,4-difluorophen
  -OEChem-04222410502D

 26 28  0     0  0  0  0  0  0999 V2000
   -1.9189    0.6020    0.0000 C   0  0  0  0  0  0  0  0  0  0  0  0
   -2.0813   -0.3605    0.0000 C   0  0  0  0  0  0  0  0  0  0  0  0
   -2.8190    1.0771    0.0000 S   0  0  0  0  0  0  0  0  0  0  0  0
   -3.0649   -0.5230    0.0000 C   0  0  0  0  0  0  0  0  0  0  0  0
   -0.9770    0.9856    0.0000 N   0  0  0  0  0  0  0  0  0  0  0  0
   -3.5190    0.3397    0.0000 C   0  0  0  0  0  0  0  0  0  0  0  0
   -0.1854    0.3397    0.0000 C   0  0  0  0  0  0  0  0  0  0  0  0
   -1.3524   -1.0773    0.0000 C   0  0  0  0  0  0  0  0  0  0  0  0
   -0.6647   -1.7772    0.0000 N   0  0  0  0  0  0  0  0  0  0  0  0
    1.5440    0.0646    0.0000 O   0  0  0  0  0  0  0  0  0  0  0  0
    2.4981    0.4521    0.0000 C   0  0  0  0  0  0  0  0  0  0  0  0
    3.2566   -0.1771    0.0000 C   0  0  0  0  0  0  0  0  0  0  0  0
    0.7564    0.6938    0.0000 C   0  0  3  0  0  0  0  0  0  0  0  0
    4.1776    0.1771    0.0000 C   0  0  0  0  0  0  0  0  0  0  0  0
   -0.3397   -0.6315    0.0000 O   0  0  0  0  0  0  0  0  0  0  0  0
    2.6482    1.4439    0.0000 C   0  0  0  0  0  0  0  0  0  0  0  0
    4.3400    1.1480    0.0000 C   0  0  0  0  0  0  0  0  0  0  0  0
    3.1149   -1.1605    0.0000 F   0  0  0  0  0  0  0  0  0  0  0  0
    3.5691    1.7772    0.0000 C   0  0  0  0  0  0  0  0  0  0  0  0
   -3.4190   -1.4523    0.0000 C   0  0  0  0  0  0  0  0  0  0  0  0
    5.2608    1.4855    0.0000 F   0  0  0  0  0  0  0  0  0  0  0  0
   -4.5315    0.5312    0.0000 C   0  0  0  0  0  0  0  0  0  0  0  0
    0.9063    1.6772    0.0000 C   0  0  0  0  0  0  0  0  0  0  0  0
   -4.3691   -1.7481    0.0000 C   0  0  0  0  0  0  0  0  0  0  0  0
   -5.2608   -0.1563    0.0000 C   0  0  0  0  0  0  0  0  0  0  0  0
   -5.1983   -1.1605    0.0000 C   0  0  0  0  0  0  0  0  0  0  0  0
  1  2  2  0  0  0  0
  1  3  1  0  0  0  0
  2  4  1  0  0  0  0
  4  6  2  0  0  0  0
  1  5  1  0  0  0  0
  3  6  1  0  0  0  0
  5  7  1  0  0  0  0
  2  8  1  0  0  0  0
  8  9  3  0  0  0  0
 10 13  1  0  0  0  0
 10 11  1  0  0  0  0
 11 12  2  0  0  0  0
  7 13  1  0  0  0  0
 12 14  1  0  0  0  0
  7 15  2  0  0  0  0
 11 16  1  0  0  0  0
 17 19  1  0  0  0  0
 14 17  2  0  0  0  0
 12 18  1  0  0  0  0
 16 19  2  0  0  0  0
  4 20  1  0  0  0  0
 17 21  1  0  0  0  0
  6 22  1  0  0  0  0
 13 23  1  0  0  0  0
 20 24  1  0  0  0  0
 22 25  1  0  0  0  0
 25 26  1  0  0  0  0
 24 26  1  0  0  0  0
M  END
> <IDNUMBER>
Y205-6163

> <available>
2

> <H_acceptor>
4

> <H_donor>
1

> <B_rotN>
6

> <N_O>
4

> <logP>
4.7094

> <logD>
3.2914

> <logSw>
-4.5444

> <PSA>
47.307

> <pKa_ma>
5.9989

> <pKa_mb>
-5.1628

> <N_Chirals>
1

> <Name>
N-(3-cyano-5,6,7,8-tetrahydro-4H-cyclohepta[b]thiophen-2-yl)-2-(2,4-difluorophenoxy)propanamide

> <Smile>
CC(C(Nc(sc1c2CCCCC1)c2C#N)=O)Oc(ccc(F)c1)c1F

> <Color>
BROWN

> <Collection>
DC

> <InChI>
InChI=1S/C19H18F2N2O2S/c1-11(25-16-8-7-12(20)9-15(16)21)18(24)23-19-14(10-22)13-5-3-2-4-6-17(13)26-19/h7-9,11H,2-6H2,1H3,(H,23,24)/t11-/m0/s1

> <InChI Key>
DUTGSXOBDMKFML-NSHDSACASA-N

> <PERCENTSP3>
36.84

> <Link>
https://www.chemdiv.com/catalog/screening-compounds/compound-Y205-6163/

> <MFCDNUMBER>
MFCD07182342

> <STEREO>
RACEMIC MIXTURE

> <State>
Solid

> <Similarity score>
0.18

$$$$
4-(5-{3-fluoro-1-[(3-methylthiophen-2-yl)methyl]piperidin-3-yl}-1,2,4-oxadiazol-
  -OEChem-04222410502D

 25 28  0     0  0  0  0  0  0999 V2000
   -0.5816    1.2995    0.0000 N   0  0  0  0  0  0  0  0  0  0  0  0
    0.4062    1.4502    0.0000 C   0  0  0  0  0  0  0  0  0  0  0  0
   -1.0330    2.1901    0.0000 C   0  0  0  0  0  0  0  0  0  0  0  0
    1.1115    0.7509    0.0000 C   0  0  3  0  0  0  0  0  0  0  0  0
   -0.3277    2.8985    0.0000 N   0  0  0  0  0  0  0  0  0  0  0  0
    0.5629    2.4440    0.0000 O   0  0  0  0  0  0  0  0  0  0  0  0
    2.6165   -1.8546    0.0000 C   0  0  0  0  0  0  0  0  0  0  0  0
    2.6165   -0.1145    0.0000 N   0  0  0  0  0  0  0  0  0  0  0  0
    3.0271   -2.7669    0.0000 C   0  0  0  0  0  0  0  0  0  0  0  0
    1.6194   -1.9581    0.0000 S   0  0  0  0  0  0  0  0  0  0  0  0
    1.6194   -0.1145    0.0000 C   0  0  0  0  0  0  0  0  0  0  0  0
    3.1151   -0.9893    0.0000 C   0  0  0  0  0  0  0  0  0  0  0  0
    1.4095   -2.9364    0.0000 C   0  0  0  0  0  0  0  0  0  0  0  0
    2.2778   -3.4348    0.0000 C   0  0  0  0  0  0  0  0  0  0  0  0
   -2.0238    2.3500    0.0000 C   0  0  0  0  0  0  0  0  0  0  0  0
    0.7259   -0.1802    0.0000 F   0  0  0  0  0  0  0  0  0  0  0  0
   -3.9992    2.6603    0.0000 N   0  0  0  0  0  0  0  0  0  0  0  0
    1.6194    1.6099    0.0000 C   0  0  0  0  0  0  0  0  0  0  0  0
    3.1151    0.7509    0.0000 C   0  0  0  0  0  0  0  0  0  0  0  0
    3.9992   -2.9739    0.0000 C   0  0  0  0  0  0  0  0  0  0  0  0
    2.6165    1.6099    0.0000 C   0  0  0  0  0  0  0  0  0  0  0  0
   -3.6416    1.7229    0.0000 C   0  0  0  0  0  0  0  0  0  0  0  0
   -3.3690    3.4348    0.0000 C   0  0  0  0  0  0  0  0  0  0  0  0
   -2.6603    1.5629    0.0000 C   0  0  0  0  0  0  0  0  0  0  0  0
   -2.3875    3.2748    0.0000 C   0  0  0  0  0  0  0  0  0  0  0  0
  1  2  2  0  0  0  0
  1  3  1  0  0  0  0
  2  4  1  0  0  0  0
  3  5  2  0  0  0  0
  5  6  1  0  0  0  0
  2  6  1  0  0  0  0
  7 12  1  0  0  0  0
  8 11  1  0  0  0  0
  7  9  2  0  0  0  0
  7 10  1  0  0  0  0
  4 11  1  0  0  0  0
  8 12  1  0  0  0  0
 10 13  1  0  0  0  0
  9 14  1  0  0  0  0
 13 14  2  0  0  0  0
  3 15  1  0  0  0  0
  4 16  1  0  0  0  0
 17 23  2  0  0  0  0
 17 22  1  0  0  0  0
  4 18  1  0  0  0  0
 19 21  1  0  0  0  0
  8 19  1  0  0  0  0
  9 20  1  0  0  0  0
 18 21  1  0  0  0  0
 22 24  2  0  0  0  0
 23 25  1  0  0  0  0
 15 24  1  0  0  0  0
 15 25  2  0  0  0  0
M  END
> <IDNUMBER>
SA92-0174

> <available>
49

> <H_acceptor>
5

> <H_donor>
0

> <B_rotN>
4

> <N_O>
5

> <logP>
3.4422

> <logD>
3.4141

> <logSw>
-3.4594

> <PSA>
45.757

> <pKa_ma>
26.9519

> <pKa_mb>
6.2244

> <N_Chirals>
1

> <Name>
4-(5-{3-fluoro-1-[(3-methylthiophen-2-yl)methyl]piperidin-3-yl}-1,2,4-oxadiazol-3-yl)pyridine

> <Smile>
Cc1c(CN(CCC2)CC2(c2nc(-c3ccncc3)no2)F)scc1

> <Color>
ORANGE

> <Collection>
IC

> <InChI>
InChI=1S/C18H19FN4OS/c1-13-5-10-25-15(13)11-23-9-2-6-18(19,12-23)17-21-16(22-24-17)14-3-7-20-8-4-14/h3-5,7-8,10H,2,6,9,11-12H2,1H3/t18-/m0/s1

> <InChI Key>
INJBZCNNLHEUQZ-SFHVURJKSA-N

> <PERCENTSP3>
38.89

> <Link>
https://www.chemdiv.com/catalog/screening-compounds/compound-SA92-0174/

> <MFCDNUMBER>
MFCD32243321

> <CLNUMBER>
CM4899

> <STEREO>
RACEMIC MIXTURE

> <State>
Liquid

> <Similarity score>
0.18

$$$$
3-(3-{[(1H-benzimidazol-2-yl)sulfanyl]methyl}-1,2,4-oxadiazol-5-yl)-N-(3-cyano-6
  -OEChem-04222410502D

 33 37  0     0  0  0  0  0  0999 V2000
    3.8584    0.8300    0.0000 C   0  0  0  0  0  0  0  0  0  0  0  0
    4.8217    0.5296    0.0000 C   0  0  0  0  0  0  0  0  0  0  0  0
    5.3848    1.3306    0.0000 C   0  0  0  0  0  0  0  0  0  0  0  0
    4.7925    2.1441    0.0000 C   0  0  0  0  0  0  0  0  0  0  0  0
    3.8584    1.8188    0.0000 S   0  0  0  0  0  0  0  0  0  0  0  0
   -3.5163   -3.0868    0.0000 C   0  0  0  0  0  0  0  0  0  0  0  0
   -4.1126   -2.2608    0.0000 N   0  0  0  0  0  0  0  0  0  0  0  0
   -0.3713   -1.3723    0.0000 N   0  0  0  0  0  0  0  0  0  0  0  0
   -0.9718   -2.1981    0.0000 C   0  0  0  0  0  0  0  0  0  0  0  0
   -4.1001   -3.8958    0.0000 N   0  0  0  0  0  0  0  0  0  0  0  0
    3.0573    0.2170    0.0000 N   0  0  0  0  0  0  0  0  0  0  0  0
   -0.3713   -3.0364    0.0000 N   0  0  0  0  0  0  0  0  0  0  0  0
    5.1555   -0.4295    0.0000 C   0  0  0  0  0  0  0  0  0  0  0  0
    0.6048   -1.6725    0.0000 C   0  0  0  0  0  0  0  0  0  0  0  0
    0.6173   -2.7195    0.0000 O   0  0  0  0  0  0  0  0  0  0  0  0
   -5.0512   -2.5817    0.0000 C   0  0  0  0  0  0  0  0  0  0  0  0
   -5.0512   -3.5745    0.0000 C   0  0  0  0  0  0  0  0  0  0  0  0
    5.4724   -1.3723    0.0000 N   0  0  0  0  0  0  0  0  0  0  0  0
    2.1314    0.6050    0.0000 C   0  0  0  0  0  0  0  0  0  0  0  0
    6.3734    1.4433    0.0000 C   0  0  0  0  0  0  0  0  0  0  0  0
   -2.5235   -3.0825    0.0000 S   0  0  0  0  0  0  0  0  0  0  0  0
    5.1973    3.0576    0.0000 C   0  0  0  0  0  0  0  0  0  0  0  0
    2.0523    1.3224    0.0000 O   0  0  0  0  0  0  0  0  0  0  0  0
   -2.0146   -2.2106    0.0000 C   0  0  0  0  0  0  0  0  0  0  0  0
    1.4433   -1.0595    0.0000 C   0  0  0  0  0  0  0  0  0  0  0  0
    1.3139   -0.0332    0.0000 C   0  0  0  0  0  0  0  0  0  0  0  0
    6.7739    2.3567    0.0000 C   0  0  0  0  0  0  0  0  0  0  0  0
    6.1858    3.1702    0.0000 C   0  0  3  0  0  0  0  0  0  0  0  0
   -5.9146   -2.0815    0.0000 C   0  0  0  0  0  0  0  0  0  0  0  0
   -5.9146   -4.0753    0.0000 C   0  0  0  0  0  0  0  0  0  0  0  0
    6.5861    4.0753    0.0000 C   0  0  0  0  0  0  0  0  0  0  0  0
   -6.7739   -2.5817    0.0000 C   0  0  0  0  0  0  0  0  0  0  0  0
   -6.7739   -3.5872    0.0000 C   0  0  0  0  0  0  0  0  0  0  0  0
  1  2  2  0  0  0  0
  2  3  1  0  0  0  0
  4  5  1  0  0  0  0
  3  4  2  0  0  0  0
  1  5  1  0  0  0  0
  6 21  1  0  0  0  0
  6  7  2  0  0  0  0
  8 14  2  0  0  0  0
  8  9  1  0  0  0  0
  6 10  1  0  0  0  0
  1 11  1  0  0  0  0
 12 15  1  0  0  0  0
  9 12  2  0  0  0  0
  2 13  1  0  0  0  0
 14 25  1  0  0  0  0
 14 15  1  0  0  0  0
  7 16  1  0  0  0  0
 10 17  1  0  0  0  0
 16 17  2  0  0  0  0
 13 18  3  0  0  0  0
 11 19  1  0  0  0  0
  3 20  1  0  0  0  0
 21 24  1  0  0  0  0
  4 22  1  0  0  0  0
 19 23  2  0  0  0  0
  9 24  1  0  0  0  0
 25 26  1  0  0  0  0
 19 26  1  0  0  0  0
 20 27  1  0  0  0  0
 22 28  1  0  0  0  0
 27 28  1  0  0  0  0
 16 29  1  0  0  0  0
 17 30  1  0  0  0  0
 28 31  1  0  0  0  0
 29 32  2  0  0  0  0
 32 33  1  0  0  0  0
 30 33  2  0  0  0  0
M  END
> <IDNUMBER>
J021-0387

> <available>
64

> <H_acceptor>
8

> <H_donor>
2

> <B_rotN>
9

> <N_O>
8

> <logP>
4.1487

> <logD>
2.8297

> <logSw>
-4.3511

> <PSA>
90.234

> <pKa_ma>
6.1024

> <pKa_mb>
6.7942

> <N_Chirals>
1

> <Name>
3-(3-{[(1H-benzimidazol-2-yl)sulfanyl]methyl}-1,2,4-oxadiazol-5-yl)-N-(3-cyano-6-methyl-4,5,6,7-tetrahydro-1-benzothiophen-2-yl)propanamide

> <Smile>
CC(CC1)Cc2c1c(C#N)c(NC(CCc1nc(CSc3nc(cccc4)c4[nH]3)no1)=O)s2

> <Color>
ORANGE

> <Collection>
DC

> <InChI>
InChI=1S/C23H22N6O2S2/c1-13-6-7-14-15(11-24)22(33-18(14)10-13)28-20(30)8-9-21-27-19(29-31-21)12-32-23-25-16-4-2-3-5-17(16)26-23/h2-5,13H,6-10,12H2,1H3,(H,25,26)(H,28,30)/t13-/m1/s1

> <InChI Key>
BRLJIJCAGJGFDS-CYBMUJFWSA-N

> <PERCENTSP3>
34.8

> <Link>
https://www.chemdiv.com/catalog/screening-compounds/compound-J021-0387/

> <MFCDNUMBER>
MFCD27218404

> <CLNUMBER>
CL8315

> <STEREO>
RACEMIC MIXTURE

> <State>
Solid

> <Similarity score>
0.18

$$$$
3-fluoro-N-(3-methoxyphenyl)-3-[3-(pyridin-4-yl)-1,2,4-oxadiazol-5-yl]piperidine
  -OEChem-04222410502D

 29 32  0     0  0  0  0  0  0999 V2000
   -0.6425   -0.9416    0.0000 N   0  0  0  0  0  0  0  0  0  0  0  0
    0.3447   -1.0920    0.0000 C   0  0  0  0  0  0  0  0  0  0  0  0
    1.0498   -0.3872    0.0000 C   0  0  3  0  0  0  0  0  0  0  0  0
   -1.0967   -1.8256    0.0000 C   0  0  0  0  0  0  0  0  0  0  0  0
    3.0586    1.3523    0.0000 C   0  0  0  0  0  0  0  0  0  0  0  0
   -0.3916   -2.5401    0.0000 N   0  0  0  0  0  0  0  0  0  0  0  0
    2.5541    0.4810    0.0000 N   0  0  0  0  0  0  0  0  0  0  0  0
    0.5014   -2.0855    0.0000 O   0  0  0  0  0  0  0  0  0  0  0  0
    1.5576    0.4810    0.0000 C   0  0  0  0  0  0  0  0  0  0  0  0
    2.5541    2.2172    0.0000 N   0  0  0  0  0  0  0  0  0  0  0  0
    4.0582    1.3523    0.0000 O   0  0  0  0  0  0  0  0  0  0  0  0
    1.5576    2.2172    0.0000 C   0  0  0  0  0  0  0  0  0  0  0  0
   -2.0808   -1.9854    0.0000 C   0  0  0  0  0  0  0  0  0  0  0  0
    1.0498    1.3523    0.0000 C   0  0  0  0  0  0  0  0  0  0  0  0
    0.6737    0.5373    0.0000 F   0  0  0  0  0  0  0  0  0  0  0  0
   -4.0582   -2.2956    0.0000 N   0  0  0  0  0  0  0  0  0  0  0  0
    1.5576   -1.2488    0.0000 C   0  0  0  0  0  0  0  0  0  0  0  0
    0.0533    1.3523    0.0000 C   0  0  0  0  0  0  0  0  0  0  0  0
    3.0586   -0.3872    0.0000 C   0  0  0  0  0  0  0  0  0  0  0  0
   -0.4482    0.4810    0.0000 O   0  0  0  0  0  0  0  0  0  0  0  0
    2.5541   -1.2488    0.0000 C   0  0  0  0  0  0  0  0  0  0  0  0
    0.0533    3.0757    0.0000 C   0  0  0  0  0  0  0  0  0  0  0  0
   -3.4251   -3.0757    0.0000 C   0  0  0  0  0  0  0  0  0  0  0  0
   -3.7072   -1.3617    0.0000 C   0  0  0  0  0  0  0  0  0  0  0  0
    1.0498    3.0757    0.0000 C   0  0  0  0  0  0  0  0  0  0  0  0
   -2.7139   -1.2049    0.0000 C   0  0  0  0  0  0  0  0  0  0  0  0
   -2.4474   -2.9223    0.0000 C   0  0  0  0  0  0  0  0  0  0  0  0
   -0.4482    2.2172    0.0000 C   0  0  0  0  0  0  0  0  0  0  0  0
   -1.4447    0.4810    0.0000 C   0  0  0  0  0  0  0  0  0  0  0  0
  1  2  2  0  0  0  0
  2  3  1  0  0  0  0
  1  4  1  0  0  0  0
  5  7  1  0  0  0  0
  4  6  2  0  0  0  0
  6  8  1  0  0  0  0
  7  9  1  0  0  0  0
  2  8  1  0  0  0  0
  3  9  1  0  0  0  0
  5 10  1  0  0  0  0
  5 11  2  0  0  0  0
 10 12  1  0  0  0  0
  4 13  1  0  0  0  0
 12 14  2  0  0  0  0
  3 15  1  0  0  0  0
 16 23  2  0  0  0  0
 16 24  1  0  0  0  0
  3 17  1  0  0  0  0
 14 18  1  0  0  0  0
 19 21  1  0  0  0  0
  7 19  1  0  0  0  0
 18 20  1  0  0  0  0
 17 21  1  0  0  0  0
 22 25  2  0  0  0  0
 23 27  1  0  0  0  0
 24 26  2  0  0  0  0
 12 25  1  0  0  0  0
 13 26  1  0  0  0  0
 13 27  2  0  0  0  0
 22 28  1  0  0  0  0
 18 28  2  0  0  0  0
 20 29  1  0  0  0  0
M  END
> <IDNUMBER>
SA92-0229

> <available>
203

> <H_acceptor>
7

> <H_donor>
1

> <B_rotN>
6

> <N_O>
8

> <logP>
3.0804

> <logD>
3.0803

> <logSw>
-3.218

> <PSA>
74.019

> <pKa_ma>
12.9537

> <pKa_mb>
3.6841

> <N_Chirals>
1

> <Name>
3-fluoro-N-(3-methoxyphenyl)-3-[3-(pyridin-4-yl)-1,2,4-oxadiazol-5-yl]piperidine-1-carboxamide

> <Smile>
COc1cccc(NC(N(CCC2)CC2(c2nc(-c3ccncc3)no2)F)=O)c1

> <Color>
NOT COLORED

> <Collection>
IC

> <InChI>
InChI=1S/C20H20FN5O3/c1-28-16-5-2-4-15(12-16)23-19(27)26-11-3-8-20(21,13-26)18-24-17(25-29-18)14-6-9-22-10-7-14/h2,4-7,9-10,12H,3,8,11,13H2,1H3,(H,23,27)/t20-/m0/s1

> <InChI Key>
KVLSJNLJEZXJKL-FQEVSTJZSA-N

> <PERCENTSP3>
30

> <Link>
https://www.chemdiv.com/catalog/screening-compounds/compound-SA92-0229/

> <MFCDNUMBER>
MFCD32241949

> <CLNUMBER>
CM4899

> <STEREO>
RACEMIC MIXTURE

> <State>
Solid

> <Similarity score>
0.18

$$$$
3-(3-{[(5-chloro-1H-benzimidazol-2-yl)sulfanyl]methyl}-1,2,4-oxadiazol-5-yl)-N-(
  -OEChem-04222410502D

 33 37  0     0  0  0  0  0  0999 V2000
    4.2765    1.2735    0.0000 C   0  0  0  0  0  0  0  0  0  0  0  0
    5.2435    0.9816    0.0000 C   0  0  0  0  0  0  0  0  0  0  0  0
    4.2682    2.2695    0.0000 S   0  0  0  0  0  0  0  0  0  0  0  0
    5.8062    1.7860    0.0000 C   0  0  0  0  0  0  0  0  0  0  0  0
   -3.0845   -2.6280    0.0000 C   0  0  0  0  0  0  0  0  0  0  0  0
   -3.6762   -1.8027    0.0000 N   0  0  0  0  0  0  0  0  0  0  0  0
    0.0542   -0.9066    0.0000 N   0  0  0  0  0  0  0  0  0  0  0  0
    5.2061    2.5947    0.0000 C   0  0  0  0  0  0  0  0  0  0  0  0
   -3.6639   -3.4325    0.0000 N   0  0  0  0  0  0  0  0  0  0  0  0
   -0.5460   -1.7401    0.0000 C   0  0  0  0  0  0  0  0  0  0  0  0
    3.4887    0.6732    0.0000 N   0  0  0  0  0  0  0  0  0  0  0  0
    0.0626   -2.5778    0.0000 N   0  0  0  0  0  0  0  0  0  0  0  0
   -4.6141   -2.1196    0.0000 C   0  0  0  0  0  0  0  0  0  0  0  0
    5.5811    0.0313    0.0000 C   0  0  0  0  0  0  0  0  0  0  0  0
    1.0421   -1.2193    0.0000 C   0  0  0  0  0  0  0  0  0  0  0  0
   -4.6141   -3.1156    0.0000 C   0  0  0  0  0  0  0  0  0  0  0  0
    1.0421   -2.2571    0.0000 O   0  0  0  0  0  0  0  0  0  0  0  0
    5.9063   -0.9066    0.0000 N   0  0  0  0  0  0  0  0  0  0  0  0
    2.5677    1.0608    0.0000 C   0  0  0  0  0  0  0  0  0  0  0  0
   -5.4852   -1.6192    0.0000 C   0  0  0  0  0  0  0  0  0  0  0  0
   -2.0883   -2.6197    0.0000 S   0  0  0  0  0  0  0  0  0  0  0  0
    2.4802    1.7820    0.0000 O   0  0  0  0  0  0  0  0  0  0  0  0
   -1.5839   -1.7527    0.0000 C   0  0  0  0  0  0  0  0  0  0  0  0
   -5.4728   -3.6200    0.0000 C   0  0  0  0  0  0  0  0  0  0  0  0
   -6.3398   -2.1196    0.0000 C   0  0  0  0  0  0  0  0  0  0  0  0
    1.8756   -0.5940    0.0000 C   0  0  0  0  0  0  0  0  0  0  0  0
    1.7423    0.4232    0.0000 C   0  0  0  0  0  0  0  0  0  0  0  0
   -6.3315   -3.1282    0.0000 C   0  0  0  0  0  0  0  0  0  0  0  0
    6.7940    1.8986    0.0000 C   0  0  0  0  0  0  0  0  0  0  0  0
   -7.2026   -1.6192    0.0000 Cl  0  0  0  0  0  0  0  0  0  0  0  0
    5.6063    3.5074    0.0000 C   0  0  0  0  0  0  0  0  0  0  0  0
    7.2026    2.8281    0.0000 C   0  0  0  0  0  0  0  0  0  0  0  0
    6.5939    3.6200    0.0000 C   0  0  0  0  0  0  0  0  0  0  0  0
  1  2  2  0  0  0  0
  1  3  1  0  0  0  0
  2  4  1  0  0  0  0
  4  8  2  0  0  0  0
  5 21  1  0  0  0  0
  5  6  2  0  0  0  0
  7 15  2  0  0  0  0
  3  8  1  0  0  0  0
  5  9  1  0  0  0  0
  7 10  1  0  0  0  0
 10 12  2  0  0  0  0
  1 11  1  0  0  0  0
 12 17  1  0  0  0  0
  6 13  1  0  0  0  0
 13 16  2  0  0  0  0
  2 14  1  0  0  0  0
 15 26  1  0  0  0  0
  9 16  1  0  0  0  0
 15 17  1  0  0  0  0
 14 18  3  0  0  0  0
 11 19  1  0  0  0  0
 13 20  1  0  0  0  0
 21 23  1  0  0  0  0
 19 22  2  0  0  0  0
 10 23  1  0  0  0  0
 16 24  1  0  0  0  0
 20 25  2  0  0  0  0
 26 27  1  0  0  0  0
 19 27  1  0  0  0  0
 24 28  2  0  0  0  0
 25 28  1  0  0  0  0
  4 29  1  0  0  0  0
 25 30  1  0  0  0  0
  8 31  1  0  0  0  0
 29 32  1  0  0  0  0
 32 33  1  0  0  0  0
 31 33  1  0  0  0  0
M  END
> <IDNUMBER>
J021-3331

> <available>
76

> <H_acceptor>
8

> <H_donor>
2

> <B_rotN>
9

> <N_O>
8

> <logP>
4.3944

> <logD>
3.0755

> <logSw>
-4.8599

> <PSA>
90.234

> <pKa_ma>
6.1024

> <pKa_mb>
6.7942

> <N_Chirals>
0

> <Name>
3-(3-{[(5-chloro-1H-benzimidazol-2-yl)sulfanyl]methyl}-1,2,4-oxadiazol-5-yl)-N-(3-cyano-4,5,6,7-tetrahydro-1-benzothiophen-2-yl)propanamide

> <Smile>
N#Cc1c(NC(CCc2nc(CSc3nc(cc(cc4)Cl)c4[nH]3)no2)=O)sc2c1CCCC2

> <Color>
ORANGE

> <Collection>
DC

> <InChI>
InChI=1S/C22H19ClN6O2S2/c23-12-5-6-15-16(9-12)26-22(25-15)32-11-18-27-20(31-29-18)8-7-19(30)28-21-14(10-24)13-3-1-2-4-17(13)33-21/h5-6,9H,1-4,7-8,11H2,(H,25,26)(H,28,30)

> <InChI Key>
OLJNEIQICRFLRD-UHFFFAOYSA-N

> <PERCENTSP3>
31.8

> <Link>
https://www.chemdiv.com/catalog/screening-compounds/compound-J021-3331/

> <MFCDNUMBER>
MFCD24847733

> <CLNUMBER>
CL8315

> <STEREO>
ACHIRAL

> <State>
Solid

> <Similarity score>
0.18

$$$$
N-(3-cyano-4,5,6,7-tetrahydro-1-benzothiophen-2-yl)-5-(3-methoxyphenyl)-1,2-oxaz
  -OEChem-04222410502D

 27 30  0     0  0  0  0  0  0999 V2000
   -1.6810   -1.8937    0.0000 C   0  0  0  0  0  0  0  0  0  0  0  0
   -1.0746   -2.6665    0.0000 C   0  0  0  0  0  0  0  0  0  0  0  0
   -0.8608    1.3401    0.0000 C   0  0  0  0  0  0  0  0  0  0  0  0
   -2.6048   -2.2259    0.0000 S   0  0  0  0  0  0  0  0  0  0  0  0
   -1.6056   -3.4844    0.0000 C   0  0  0  0  0  0  0  0  0  0  0  0
   -1.6206    1.9215    0.0000 N   0  0  0  0  0  0  0  0  0  0  0  0
   -1.6810   -0.8795    0.0000 N   0  0  0  0  0  0  0  0  0  0  0  0
   -0.0728    1.8761    0.0000 C   0  0  0  0  0  0  0  0  0  0  0  0
   -2.5645   -3.2201    0.0000 C   0  0  0  0  0  0  0  0  0  0  0  0
   -0.8156   -0.3789    0.0000 C   0  0  0  0  0  0  0  0  0  0  0  0
   -0.3446    2.7873    0.0000 C   0  0  0  0  0  0  0  0  0  0  0  0
   -1.3012    2.8124    0.0000 O   0  0  0  0  0  0  0  0  0  0  0  0
   -0.0578   -2.6034    0.0000 C   0  0  0  0  0  0  0  0  0  0  0  0
    0.9511   -2.5732    0.0000 N   0  0  0  0  0  0  0  0  0  0  0  0
    0.2466    3.5396    0.0000 C   0  0  0  0  0  0  0  0  0  0  0  0
   -0.0026   -0.8795    0.0000 O   0  0  0  0  0  0  0  0  0  0  0  0
    1.1828    3.4188    0.0000 C   0  0  0  0  0  0  0  0  0  0  0  0
    1.7591    4.1662    0.0000 C   0  0  0  0  0  0  0  0  0  0  0  0
   -1.3464   -4.4530    0.0000 C   0  0  0  0  0  0  0  0  0  0  0  0
   -3.2868   -3.9246    0.0000 C   0  0  0  0  0  0  0  0  0  0  0  0
    2.7003    4.0302    0.0000 O   0  0  0  0  0  0  0  0  0  0  0  0
   -0.1234    4.4078    0.0000 C   0  0  0  0  0  0  0  0  0  0  0  0
    0.4556    5.1680    0.0000 C   0  0  0  0  0  0  0  0  0  0  0  0
    1.3942    5.0448    0.0000 C   0  0  0  0  0  0  0  0  0  0  0  0
    3.2868    4.7880    0.0000 C   0  0  0  0  0  0  0  0  0  0  0  0
   -2.0586   -5.1680    0.0000 C   0  0  0  0  0  0  0  0  0  0  0  0
   -3.0301   -4.9036    0.0000 C   0  0  0  0  0  0  0  0  0  0  0  0
  1  2  2  0  0  0  0
  3 10  1  0  0  0  0
  1  4  1  0  0  0  0
  2  5  1  0  0  0  0
  3  6  2  0  0  0  0
  1  7  1  0  0  0  0
  3  8  1  0  0  0  0
  4  9  1  0  0  0  0
  5  9  2  0  0  0  0
  7 10  1  0  0  0  0
  8 11  2  0  0  0  0
 11 12  1  0  0  0  0
  6 12  1  0  0  0  0
  2 13  1  0  0  0  0
 13 14  3  0  0  0  0
 11 15  1  0  0  0  0
 10 16  2  0  0  0  0
 15 17  2  0  0  0  0
 17 18  1  0  0  0  0
 18 24  2  0  0  0  0
  5 19  1  0  0  0  0
  9 20  1  0  0  0  0
 18 21  1  0  0  0  0
 15 22  1  0  0  0  0
 22 23  2  0  0  0  0
 23 24  1  0  0  0  0
 21 25  1  0  0  0  0
 19 26  1  0  0  0  0
 26 27  1  0  0  0  0
 20 27  1  0  0  0  0
M  END
> <IDNUMBER>
C226-0889

> <available>
118

> <H_acceptor>
6

> <H_donor>
1

> <B_rotN>
6

> <N_O>
6

> <logP>
4.4551

> <logD>
3.1641

> <logSw>
-4.4893

> <PSA>
69.18

> <pKa_ma>
6.1318

> <pKa_mb>
-6.8683

> <N_Chirals>
0

> <Name>
N-(3-cyano-4,5,6,7-tetrahydro-1-benzothiophen-2-yl)-5-(3-methoxyphenyl)-1,2-oxazole-3-carboxamide

> <Smile>
COc1cccc(-c2cc(C(Nc(sc3c4CCCC3)c4C#N)=O)no2)c1

> <Color>
NOT COLORED

> <Collection>
DC

> <InChI>
InChI=1S/C20H17N3O3S/c1-25-13-6-4-5-12(9-13)17-10-16(23-26-17)19(24)22-20-15(11-21)14-7-2-3-8-18(14)27-20/h4-6,9-10H,2-3,7-8H2,1H3,(H,22,24)

> <InChI Key>
SGBTUQGUXSHNJF-UHFFFAOYSA-N

> <PERCENTSP3>
25

> <Link>
https://www.chemdiv.com/catalog/screening-compounds/compound-C226-0889/

> <MFCDNUMBER>
MFCD09782061

> <CLNUMBER>
CL2028

> <STEREO>
ACHIRAL

> <State>
Solid

> <Similarity score>
0.18

$$$$
N-(3-cyano-5,6-dihydro-4H-cyclopenta[b]thiophen-2-yl)-5-(4-methoxyphenyl)-1,2-ox
  -OEChem-04222410502D

 26 29  0     0  0  0  0  0  0999 V2000
   -1.0049   -2.9090    0.0000 C   0  0  0  0  0  0  0  0  0  0  0  0
   -0.3971   -3.6881    0.0000 C   0  0  0  0  0  0  0  0  0  0  0  0
   -0.0803    0.3956    0.0000 C   0  0  0  0  0  0  0  0  0  0  0  0
   -1.9412   -3.2496    0.0000 S   0  0  0  0  0  0  0  0  0  0  0  0
   -0.9426   -4.5149    0.0000 C   0  0  0  0  0  0  0  0  0  0  0  0
   -0.8654    0.9202    0.0000 N   0  0  0  0  0  0  0  0  0  0  0  0
   -1.0049   -1.9042    0.0000 N   0  0  0  0  0  0  0  0  0  0  0  0
    0.6697    0.9708    0.0000 C   0  0  0  0  0  0  0  0  0  0  0  0
   -1.8967   -4.2336    0.0000 C   0  0  0  0  0  0  0  0  0  0  0  0
   -0.1393   -1.4032    0.0000 C   0  0  0  0  0  0  0  0  0  0  0  0
    0.3408    1.8626    0.0000 C   0  0  0  0  0  0  0  0  0  0  0  0
   -0.5986    1.8331    0.0000 O   0  0  0  0  0  0  0  0  0  0  0  0
    0.6104   -3.6526    0.0000 C   0  0  0  0  0  0  0  0  0  0  0  0
    1.6090   -3.6112    0.0000 N   0  0  0  0  0  0  0  0  0  0  0  0
    0.8711    2.6510    0.0000 C   0  0  0  0  0  0  0  0  0  0  0  0
    0.6992   -1.8567    0.0000 O   0  0  0  0  0  0  0  0  0  0  0  0
    1.8107    2.5856    0.0000 C   0  0  0  0  0  0  0  0  0  0  0  0
    0.4594    3.4985    0.0000 C   0  0  0  0  0  0  0  0  0  0  0  0
   -0.8980   -5.5195    0.0000 C   0  0  0  0  0  0  0  0  0  0  0  0
    1.9263    4.2098    0.0000 C   0  0  0  0  0  0  0  0  0  0  0  0
   -2.4570   -5.0750    0.0000 C   0  0  0  0  0  0  0  0  0  0  0  0
    0.9777    4.2869    0.0000 C   0  0  0  0  0  0  0  0  0  0  0  0
    2.3414    3.3623    0.0000 C   0  0  0  0  0  0  0  0  0  0  0  0
    2.4570    5.0100    0.0000 O   0  0  0  0  0  0  0  0  0  0  0  0
   -1.8523   -5.8635    0.0000 C   0  0  0  0  0  0  0  0  0  0  0  0
    2.0390    5.8635    0.0000 C   0  0  0  0  0  0  0  0  0  0  0  0
  1  2  2  0  0  0  0
  3 10  1  0  0  0  0
  1  4  1  0  0  0  0
  2  5  1  0  0  0  0
  5  9  2  0  0  0  0
  3  6  2  0  0  0  0
  1  7  1  0  0  0  0
  3  8  1  0  0  0  0
  4  9  1  0  0  0  0
  7 10  1  0  0  0  0
  8 11  2  0  0  0  0
 11 12  1  0  0  0  0
  6 12  1  0  0  0  0
  2 13  1  0  0  0  0
 13 14  3  0  0  0  0
 11 15  1  0  0  0  0
 10 16  2  0  0  0  0
 15 17  2  0  0  0  0
 15 18  1  0  0  0  0
  5 19  1  0  0  0  0
 20 22  1  0  0  0  0
  9 21  1  0  0  0  0
 18 22  2  0  0  0  0
 17 23  1  0  0  0  0
 20 23  2  0  0  0  0
 20 24  1  0  0  0  0
 21 25  1  0  0  0  0
 19 25  1  0  0  0  0
 24 26  1  0  0  0  0
M  END
> <IDNUMBER>
C226-0779

> <available>
49

> <H_acceptor>
6

> <H_donor>
1

> <B_rotN>
6

> <N_O>
6

> <logP>
4.0602

> <logD>
2.7496

> <logSw>
-4.3837

> <PSA>
69.546

> <pKa_ma>
6.1111

> <pKa_mb>
-6.8683

> <N_Chirals>
0

> <Name>
N-(3-cyano-5,6-dihydro-4H-cyclopenta[b]thiophen-2-yl)-5-(4-methoxyphenyl)-1,2-oxazole-3-carboxamide

> <Smile>
COc(cc1)ccc1-c1cc(C(Nc(sc2c3CCC2)c3C#N)=O)no1

> <Color>
NOT COLORED

> <Collection>
DC

> <InChI>
InChI=1S/C19H15N3O3S/c1-24-12-7-5-11(6-8-12)16-9-15(22-25-16)18(23)21-19-14(10-20)13-3-2-4-17(13)26-19/h5-9H,2-4H2,1H3,(H,21,23)

> <InChI Key>
JKWBKXHLKIHMPX-UHFFFAOYSA-N

> <PERCENTSP3>
21.1

> <Link>
https://www.chemdiv.com/catalog/screening-compounds/compound-C226-0779/

> <MFCDNUMBER>
MFCD09781980

> <CLNUMBER>
CL2028

> <STEREO>
ACHIRAL

> <State>
Solid

> <Similarity score>
0.18

$$$$
N-(3-cyano-4,5,6,7-tetrahydro-1-benzothiophen-2-yl)-5-(4-methoxyphenyl)-1,2-oxaz
  -OEChem-04222410502D

 27 30  0     0  0  0  0  0  0999 V2000
   -0.9292   -2.7527    0.0000 C   0  0  0  0  0  0  0  0  0  0  0  0
   -0.3215   -3.5263    0.0000 C   0  0  0  0  0  0  0  0  0  0  0  0
   -0.0045    0.5571    0.0000 C   0  0  0  0  0  0  0  0  0  0  0  0
   -1.8506   -3.0878    0.0000 S   0  0  0  0  0  0  0  0  0  0  0  0
   -0.8521   -4.3441    0.0000 C   0  0  0  0  0  0  0  0  0  0  0  0
   -0.7897    1.0815    0.0000 N   0  0  0  0  0  0  0  0  0  0  0  0
   -0.9292   -1.7425    0.0000 N   0  0  0  0  0  0  0  0  0  0  0  0
    0.7453    1.1320    0.0000 C   0  0  0  0  0  0  0  0  0  0  0  0
   -1.8122   -4.0805    0.0000 C   0  0  0  0  0  0  0  0  0  0  0  0
   -0.0636   -1.2416    0.0000 C   0  0  0  0  0  0  0  0  0  0  0  0
    0.4164    2.0240    0.0000 C   0  0  0  0  0  0  0  0  0  0  0  0
   -0.5232    1.9942    0.0000 O   0  0  0  0  0  0  0  0  0  0  0  0
    0.6888   -3.4639    0.0000 C   0  0  0  0  0  0  0  0  0  0  0  0
    1.6994   -3.4344    0.0000 N   0  0  0  0  0  0  0  0  0  0  0  0
    0.9466    2.8122    0.0000 C   0  0  0  0  0  0  0  0  0  0  0  0
    0.7749   -1.6949    0.0000 O   0  0  0  0  0  0  0  0  0  0  0  0
    1.8862    2.7469    0.0000 C   0  0  0  0  0  0  0  0  0  0  0  0
    0.5348    3.6595    0.0000 C   0  0  0  0  0  0  0  0  0  0  0  0
    2.0016    4.3708    0.0000 C   0  0  0  0  0  0  0  0  0  0  0  0
   -0.5941   -5.3130    0.0000 C   0  0  0  0  0  0  0  0  0  0  0  0
    2.4167    3.5234    0.0000 C   0  0  0  0  0  0  0  0  0  0  0  0
    1.0533    4.4478    0.0000 C   0  0  0  0  0  0  0  0  0  0  0  0
   -2.5323   -4.7829    0.0000 C   0  0  0  0  0  0  0  0  0  0  0  0
    2.5323    5.1709    0.0000 O   0  0  0  0  0  0  0  0  0  0  0  0
    2.1143    6.0243    0.0000 C   0  0  0  0  0  0  0  0  0  0  0  0
   -1.3054   -6.0243    0.0000 C   0  0  0  0  0  0  0  0  0  0  0  0
   -2.2743   -5.7635    0.0000 C   0  0  0  0  0  0  0  0  0  0  0  0
  1  2  2  0  0  0  0
  3 10  1  0  0  0  0
  1  4  1  0  0  0  0
  2  5  1  0  0  0  0
  3  6  2  0  0  0  0
  1  7  1  0  0  0  0
  3  8  1  0  0  0  0
  4  9  1  0  0  0  0
  5  9  2  0  0  0  0
  7 10  1  0  0  0  0
  8 11  2  0  0  0  0
 11 12  1  0  0  0  0
  6 12  1  0  0  0  0
  2 13  1  0  0  0  0
 13 14  3  0  0  0  0
 11 15  1  0  0  0  0
 10 16  2  0  0  0  0
 15 17  2  0  0  0  0
 15 18  1  0  0  0  0
 19 22  1  0  0  0  0
  5 20  1  0  0  0  0
 17 21  1  0  0  0  0
 19 21  2  0  0  0  0
 18 22  2  0  0  0  0
  9 23  1  0  0  0  0
 19 24  1  0  0  0  0
 24 25  1  0  0  0  0
 20 26  1  0  0  0  0
 26 27  1  0  0  0  0
 23 27  1  0  0  0  0
M  END
> <IDNUMBER>
C226-0775

> <available>
64

> <H_acceptor>
6

> <H_donor>
1

> <B_rotN>
6

> <N_O>
6

> <logP>
4.4705

> <logD>
3.1794

> <logSw>
-4.4701

> <PSA>
69.18

> <pKa_ma>
6.1318

> <pKa_mb>
-6.8683

> <N_Chirals>
0

> <Name>
N-(3-cyano-4,5,6,7-tetrahydro-1-benzothiophen-2-yl)-5-(4-methoxyphenyl)-1,2-oxazole-3-carboxamide

> <Smile>
COc(cc1)ccc1-c1cc(C(Nc(sc2c3CCCC2)c3C#N)=O)no1

> <Color>
NOT COLORED

> <Collection>
DC

> <InChI>
InChI=1S/C20H17N3O3S/c1-25-13-8-6-12(7-9-13)17-10-16(23-26-17)19(24)22-20-15(11-21)14-4-2-3-5-18(14)27-20/h6-10H,2-5H2,1H3,(H,22,24)

> <InChI Key>
GEOFPCNFWRTZNM-UHFFFAOYSA-N

> <PERCENTSP3>
25

> <Link>
https://www.chemdiv.com/catalog/screening-compounds/compound-C226-0775/

> <MFCDNUMBER>
MFCD08546569

> <CLNUMBER>
CL2028

> <STEREO>
ACHIRAL

> <State>
Solid

> <Similarity score>
0.18

$$$$
1-{3-fluoro-3-[3-(pyridin-4-yl)-1,2,4-oxadiazol-5-yl]piperidin-1-yl}-2-methylpro
  -OEChem-04222410502D

 23 25  0     0  0  0  0  0  0999 V2000
   -0.6408    0.9399    0.0000 N   0  0  0  0  0  0  0  0  0  0  0  0
    0.3463    1.0966    0.0000 C   0  0  0  0  0  0  0  0  0  0  0  0
    1.0512    0.3916    0.0000 C   0  0  3  0  0  0  0  0  0  0  0  0
   -1.0950    1.8327    0.0000 C   0  0  0  0  0  0  0  0  0  0  0  0
    2.5551   -0.4793    0.0000 N   0  0  0  0  0  0  0  0  0  0  0  0
   -0.3901    2.5440    0.0000 N   0  0  0  0  0  0  0  0  0  0  0  0
    0.5029    2.0867    0.0000 O   0  0  0  0  0  0  0  0  0  0  0  0
    3.0532   -1.3379    0.0000 C   0  0  0  0  0  0  0  0  0  0  0  0
    1.5556   -0.4793    0.0000 C   0  0  0  0  0  0  0  0  0  0  0  0
    4.0557   -1.3379    0.0000 O   0  0  0  0  0  0  0  0  0  0  0  0
   -2.0788    1.9893    0.0000 C   0  0  0  0  0  0  0  0  0  0  0  0
    0.6720   -0.5359    0.0000 F   0  0  0  0  0  0  0  0  0  0  0  0
   -4.0557    2.3026    0.0000 N   0  0  0  0  0  0  0  0  0  0  0  0
    2.5551   -2.2025    0.0000 C   0  0  0  0  0  0  0  0  0  0  0  0
    1.5556    1.2563    0.0000 C   0  0  0  0  0  0  0  0  0  0  0  0
    3.0532    0.3916    0.0000 C   0  0  0  0  0  0  0  0  0  0  0  0
    2.5551    1.2563    0.0000 C   0  0  0  0  0  0  0  0  0  0  0  0
   -3.7049    1.3724    0.0000 C   0  0  0  0  0  0  0  0  0  0  0  0
   -3.4261    3.0735    0.0000 C   0  0  0  0  0  0  0  0  0  0  0  0
   -2.7118    1.2094    0.0000 C   0  0  0  0  0  0  0  0  0  0  0  0
   -2.4453    2.9199    0.0000 C   0  0  0  0  0  0  0  0  0  0  0  0
    3.0532   -3.0735    0.0000 C   0  0  0  0  0  0  0  0  0  0  0  0
    1.5556   -2.2025    0.0000 C   0  0  0  0  0  0  0  0  0  0  0  0
  1  2  2  0  0  0  0
  2  3  1  0  0  0  0
  1  4  1  0  0  0  0
  5  9  1  0  0  0  0
  4  6  2  0  0  0  0
  6  7  1  0  0  0  0
  2  7  1  0  0  0  0
  5  8  1  0  0  0  0
  3  9  1  0  0  0  0
  8 10  2  0  0  0  0
  4 11  1  0  0  0  0
  3 12  1  0  0  0  0
 13 19  2  0  0  0  0
 13 18  1  0  0  0  0
  8 14  1  0  0  0  0
  3 15  1  0  0  0  0
 16 17  1  0  0  0  0
  5 16  1  0  0  0  0
 15 17  1  0  0  0  0
 18 20  2  0  0  0  0
 19 21  1  0  0  0  0
 11 20  1  0  0  0  0
 11 21  2  0  0  0  0
 14 22  1  0  0  0  0
 14 23  1  0  0  0  0
M  END
> <IDNUMBER>
SA92-0213

> <available>
54

> <H_acceptor>
6

> <H_donor>
0

> <B_rotN>
4

> <N_O>
6

> <logP>
2.2953

> <logD>
2.2952

> <logSw>
-2.2391

> <PSA>
57.926

> <pKa_ma>
22.648

> <pKa_mb>
3.6841

> <N_Chirals>
1

> <Name>
1-{3-fluoro-3-[3-(pyridin-4-yl)-1,2,4-oxadiazol-5-yl]piperidin-1-yl}-2-methylpropan-1-one

> <Smile>
CC(C)C(N(CCC1)CC1(c1nc(-c2ccncc2)no1)F)=O

> <Color>
YELLOW

> <Collection>
IC

> <InChI>
InChI=1S/C16H19FN4O2/c1-11(2)14(22)21-9-3-6-16(17,10-21)15-19-13(20-23-15)12-4-7-18-8-5-12/h4-5,7-8,11H,3,6,9-10H2,1-2H3/t16-/m0/s1

> <InChI Key>
XAYAYKFRHPGKDT-INIZCTEOSA-N

> <PERCENTSP3>
50

> <Link>
https://www.chemdiv.com/catalog/screening-compounds/compound-SA92-0213/

> <MFCDNUMBER>
MFCD32241822

> <CLNUMBER>
CM4899

> <STEREO>
RACEMIC MIXTURE

> <State>
Liquid

> <Similarity score>
0.18

$$$$
(3,5-dimethoxyphenyl){3-fluoro-3-[3-(pyridin-4-yl)-1,2,4-oxadiazol-5-yl]piperidi
  -OEChem-04222410502D

 30 33  0     0  0  0  0  0  0999 V2000
   -2.1347    0.9351    0.0000 N   0  0  0  0  0  0  0  0  0  0  0  0
   -1.1576    1.0917    0.0000 C   0  0  0  0  0  0  0  0  0  0  0  0
   -0.4497    0.3899    0.0000 C   0  0  3  0  0  0  0  0  0  0  0  0
   -2.5920    1.8246    0.0000 C   0  0  0  0  0  0  0  0  0  0  0  0
    1.0542   -0.4778    0.0000 N   0  0  0  0  0  0  0  0  0  0  0  0
   -1.8906    2.5389    0.0000 N   0  0  0  0  0  0  0  0  0  0  0  0
    1.5521   -1.3424    0.0000 C   0  0  0  0  0  0  0  0  0  0  0  0
   -1.0038    2.0785    0.0000 O   0  0  0  0  0  0  0  0  0  0  0  0
    2.5545   -1.3424    0.0000 C   0  0  0  0  0  0  0  0  0  0  0  0
    0.0549   -0.4778    0.0000 C   0  0  0  0  0  0  0  0  0  0  0  0
    3.0528   -0.4778    0.0000 C   0  0  0  0  0  0  0  0  0  0  0  0
    3.0528   -2.2069    0.0000 C   0  0  0  0  0  0  0  0  0  0  0  0
    1.0542   -2.2069    0.0000 O   0  0  0  0  0  0  0  0  0  0  0  0
   -3.5788    1.9937    0.0000 C   0  0  0  0  0  0  0  0  0  0  0  0
    4.5500   -1.3424    0.0000 C   0  0  0  0  0  0  0  0  0  0  0  0
    4.0521   -0.4778    0.0000 C   0  0  0  0  0  0  0  0  0  0  0  0
    4.0521   -2.2069    0.0000 C   0  0  0  0  0  0  0  0  0  0  0  0
   -0.8253   -0.5309    0.0000 F   0  0  0  0  0  0  0  0  0  0  0  0
   -5.5555    2.3042    0.0000 N   0  0  0  0  0  0  0  0  0  0  0  0
    0.0549    1.2608    0.0000 C   0  0  0  0  0  0  0  0  0  0  0  0
    1.5521    0.3899    0.0000 C   0  0  0  0  0  0  0  0  0  0  0  0
    4.5500    0.3899    0.0000 O   0  0  0  0  0  0  0  0  0  0  0  0
    4.5500   -3.0778    0.0000 O   0  0  0  0  0  0  0  0  0  0  0  0
    1.0542    1.2608    0.0000 C   0  0  0  0  0  0  0  0  0  0  0  0
   -4.9229    3.0778    0.0000 C   0  0  0  0  0  0  0  0  0  0  0  0
   -5.2045    1.3674    0.0000 C   0  0  0  0  0  0  0  0  0  0  0  0
   -3.9361    2.9243    0.0000 C   0  0  0  0  0  0  0  0  0  0  0  0
   -4.2118    1.2139    0.0000 C   0  0  0  0  0  0  0  0  0  0  0  0
    5.5555    0.3899    0.0000 C   0  0  0  0  0  0  0  0  0  0  0  0
    5.5555   -3.0778    0.0000 C   0  0  0  0  0  0  0  0  0  0  0  0
  1  2  2  0  0  0  0
  2  3  1  0  0  0  0
  1  4  1  0  0  0  0
  5 10  1  0  0  0  0
  4  6  2  0  0  0  0
  6  8  1  0  0  0  0
  5  7  1  0  0  0  0
  2  8  1  0  0  0  0
  7  9  1  0  0  0  0
  3 10  1  0  0  0  0
  9 11  2  0  0  0  0
  9 12  1  0  0  0  0
  7 13  2  0  0  0  0
  4 14  1  0  0  0  0
 15 17  1  0  0  0  0
 11 16  1  0  0  0  0
 15 16  2  0  0  0  0
 12 17  2  0  0  0  0
  3 18  1  0  0  0  0
 19 26  1  0  0  0  0
 19 25  2  0  0  0  0
  3 20  1  0  0  0  0
 21 24  1  0  0  0  0
  5 21  1  0  0  0  0
 16 22  1  0  0  0  0
 17 23  1  0  0  0  0
 20 24  1  0  0  0  0
 25 27  1  0  0  0  0
 26 28  2  0  0  0  0
 14 27  2  0  0  0  0
 14 28  1  0  0  0  0
 22 29  1  0  0  0  0
 23 30  1  0  0  0  0
M  END
> <IDNUMBER>
SA92-0205

> <available>
69

> <H_acceptor>
8

> <H_donor>
0

> <B_rotN>
6

> <N_O>
8

> <logP>
2.8318

> <logD>
2.8317

> <logSw>
-2.9931

> <PSA>
72.742

> <pKa_ma>
27.08

> <pKa_mb>
3.6841

> <N_Chirals>
1

> <Name>
(3,5-dimethoxyphenyl){3-fluoro-3-[3-(pyridin-4-yl)-1,2,4-oxadiazol-5-yl]piperidin-1-yl}methanone

> <Smile>
COc1cc(C(N(CCC2)CC2(c2nc(-c3ccncc3)no2)F)=O)cc(OC)c1

> <Color>
YELLOW

> <Collection>
IC

> <InChI>
InChI=1S/C21H21FN4O4/c1-28-16-10-15(11-17(12-16)29-2)19(27)26-9-3-6-21(22,13-26)20-24-18(25-30-20)14-4-7-23-8-5-14/h4-5,7-8,10-12H,3,6,9,13H2,1-2H3/t21-/m0/s1

> <InChI Key>
LRSRYDINSILLBT-NRFANRHFSA-N

> <PERCENTSP3>
33.33

> <Link>
https://www.chemdiv.com/catalog/screening-compounds/compound-SA92-0205/

> <MFCDNUMBER>
MFCD32241696

> <CLNUMBER>
CM4899

> <STEREO>
RACEMIC MIXTURE

> <State>
Liquid

> <Similarity score>
0.18

$$$$
3-(5-{3-fluoro-1-[(5-methylthiophen-2-yl)methyl]piperidin-3-yl}-1,2,4-oxadiazol-
  -OEChem-04222410502D

 25 28  0     0  0  0  0  0  0999 V2000
    1.1966   -0.4168    0.0000 N   0  0  0  0  0  0  0  0  0  0  0  0
    0.8338   -1.3465    0.0000 C   0  0  0  0  0  0  0  0  0  0  0  0
    2.1970   -0.4669    0.0000 C   0  0  0  0  0  0  0  0  0  0  0  0
   -0.1292   -1.6092    0.0000 C   0  0  3  0  0  0  0  0  0  0  0  0
    2.4471   -1.4340    0.0000 N   0  0  0  0  0  0  0  0  0  0  0  0
    1.6175   -1.9802    0.0000 O   0  0  0  0  0  0  0  0  0  0  0  0
   -2.7807    0.9923    0.0000 S   0  0  0  0  0  0  0  0  0  0  0  0
   -0.9964   -0.1085    0.0000 N   0  0  0  0  0  0  0  0  0  0  0  0
   -1.8594    1.3925    0.0000 C   0  0  0  0  0  0  0  0  0  0  0  0
    2.8224    0.3084    0.0000 C   0  0  0  0  0  0  0  0  0  0  0  0
   -0.1292   -0.6086    0.0000 C   0  0  0  0  0  0  0  0  0  0  0  0
   -3.4434    1.7301    0.0000 C   0  0  0  0  0  0  0  0  0  0  0  0
   -1.9676    2.3931    0.0000 C   0  0  0  0  0  0  0  0  0  0  0  0
   -2.9432    2.5973    0.0000 C   0  0  0  0  0  0  0  0  0  0  0  0
   -0.9964    0.8921    0.0000 C   0  0  0  0  0  0  0  0  0  0  0  0
    4.4440    0.9298    0.0000 N   0  0  0  0  0  0  0  0  0  0  0  0
   -0.2584   -2.5973    0.0000 F   0  0  0  0  0  0  0  0  0  0  0  0
   -0.9964   -2.1095    0.0000 C   0  0  0  0  0  0  0  0  0  0  0  0
    3.8105    0.1542    0.0000 C   0  0  0  0  0  0  0  0  0  0  0  0
   -1.8594   -0.6086    0.0000 C   0  0  0  0  0  0  0  0  0  0  0  0
    2.4681    1.2424    0.0000 C   0  0  0  0  0  0  0  0  0  0  0  0
   -1.8594   -1.6092    0.0000 C   0  0  0  0  0  0  0  0  0  0  0  0
   -4.4440    1.6301    0.0000 C   0  0  0  0  0  0  0  0  0  0  0  0
    4.0856    1.8677    0.0000 C   0  0  0  0  0  0  0  0  0  0  0  0
    3.0975    2.0220    0.0000 C   0  0  0  0  0  0  0  0  0  0  0  0
  1  2  2  0  0  0  0
  1  3  1  0  0  0  0
  2  4  1  0  0  0  0
  3  5  2  0  0  0  0
  5  6  1  0  0  0  0
  2  6  1  0  0  0  0
  7  9  1  0  0  0  0
  8 11  1  0  0  0  0
  8 20  1  0  0  0  0
  9 15  1  0  0  0  0
  3 10  1  0  0  0  0
  4 11  1  0  0  0  0
  7 12  1  0  0  0  0
 12 14  2  0  0  0  0
  9 13  2  0  0  0  0
 13 14  1  0  0  0  0
  8 15  1  0  0  0  0
 16 19  2  0  0  0  0
 16 24  1  0  0  0  0
  4 17  1  0  0  0  0
  4 18  1  0  0  0  0
 10 19  1  0  0  0  0
 20 22  1  0  0  0  0
 10 21  2  0  0  0  0
 18 22  1  0  0  0  0
 12 23  1  0  0  0  0
 24 25  2  0  0  0  0
 21 25  1  0  0  0  0
M  END
> <IDNUMBER>
SA92-0555

> <available>
2

> <H_acceptor>
5

> <H_donor>
0

> <B_rotN>
4

> <N_O>
5

> <logP>
3.3148

> <logD>
2.6761

> <logSw>
-3.1843

> <PSA>
45.846

> <pKa_ma>
26.9519

> <pKa_mb>
7.9253

> <N_Chirals>
1

> <Name>
3-(5-{3-fluoro-1-[(5-methylthiophen-2-yl)methyl]piperidin-3-yl}-1,2,4-oxadiazol-3-yl)pyridine

> <Smile>
Cc1ccc(CN(CCC2)CC2(c2nc(-c3cnccc3)no2)F)s1

> <Color>
ORANGE

> <Collection>
IC

> <InChI>
InChI=1S/C18H19FN4OS/c1-13-5-6-15(25-13)11-23-9-3-7-18(19,12-23)17-21-16(22-24-17)14-4-2-8-20-10-14/h2,4-6,8,10H,3,7,9,11-12H2,1H3/t18-/m0/s1

> <InChI Key>
JUCNFSLBQFYAJL-SFHVURJKSA-N

> <PERCENTSP3>
38.89

> <Link>
https://www.chemdiv.com/catalog/screening-compounds/compound-SA92-0555/

> <MFCDNUMBER>
MFCD32242468

> <CLNUMBER>
CM4899

> <STEREO>
RACEMIC MIXTURE

> <State>
Liquid

> <Similarity score>
0.18

$$$$
N-(6-tert-butyl-3-cyano-4,5,6,7-tetrahydro-1-benzothiophen-2-yl)-2-(4-ethylpheno
  -OEChem-04222410502D

 29 31  0     0  0  0  0  0  0999 V2000
    1.2331   -0.4104    0.0000 C   0  0  0  0  0  0  0  0  0  0  0  0
    1.8705    0.3977    0.0000 C   0  0  0  0  0  0  0  0  0  0  0  0
    2.8036   -0.9351    0.0000 C   0  0  0  0  0  0  0  0  0  0  0  0
    2.8036    0.0605    0.0000 C   0  0  0  0  0  0  0  0  0  0  0  0
    1.8080   -1.2228    0.0000 S   0  0  0  0  0  0  0  0  0  0  0  0
    0.2583   -0.3853    0.0000 N   0  0  0  0  0  0  0  0  0  0  0  0
   -0.2624   -1.2599    0.0000 C   0  0  0  0  0  0  0  0  0  0  0  0
    1.6330    1.3477    0.0000 C   0  0  0  0  0  0  0  0  0  0  0  0
    3.6660   -1.4476    0.0000 C   0  0  0  0  0  0  0  0  0  0  0  0
    1.3955    2.2974    0.0000 N   0  0  0  0  0  0  0  0  0  0  0  0
    3.6660    0.5603    0.0000 C   0  0  0  0  0  0  0  0  0  0  0  0
    4.5409   -0.9478    0.0000 C   0  0  3  0  0  0  0  0  0  0  0  0
   -1.2623   -1.2599    0.0000 C   0  0  3  0  0  0  0  0  0  0  0  0
   -1.7621   -0.3853    0.0000 O   0  0  0  0  0  0  0  0  0  0  0  0
    5.3865   -1.4352    0.0000 C   0  0  0  0  0  0  0  0  0  0  0  0
    0.2583   -2.1348    0.0000 O   0  0  0  0  0  0  0  0  0  0  0  0
    4.5409    0.0605    0.0000 C   0  0  0  0  0  0  0  0  0  0  0  0
   -2.7577   -0.3853    0.0000 C   0  0  0  0  0  0  0  0  0  0  0  0
   -4.7532   -0.3853    0.0000 C   0  0  0  0  0  0  0  0  0  0  0  0
   -3.2576   -1.2599    0.0000 C   0  0  0  0  0  0  0  0  0  0  0  0
   -3.2576    0.4855    0.0000 C   0  0  0  0  0  0  0  0  0  0  0  0
   -4.2575    0.4855    0.0000 C   0  0  0  0  0  0  0  0  0  0  0  0
   -4.2575   -1.2599    0.0000 C   0  0  0  0  0  0  0  0  0  0  0  0
    6.2238   -1.9224    0.0000 C   0  0  0  0  0  0  0  0  0  0  0  0
    5.8864   -0.5728    0.0000 C   0  0  0  0  0  0  0  0  0  0  0  0
    4.8908   -2.2974    0.0000 C   0  0  0  0  0  0  0  0  0  0  0  0
   -1.7621   -2.1348    0.0000 C   0  0  0  0  0  0  0  0  0  0  0  0
   -5.7531   -0.4104    0.0000 C   0  0  0  0  0  0  0  0  0  0  0  0
   -6.2238   -1.2852    0.0000 C   0  0  0  0  0  0  0  0  0  0  0  0
  1  2  2  0  0  0  0
  3  5  1  0  0  0  0
  3  4  2  0  0  0  0
  2  4  1  0  0  0  0
  1  5  1  0  0  0  0
  1  6  1  0  0  0  0
  6  7  1  0  0  0  0
  2  8  1  0  0  0  0
  3  9  1  0  0  0  0
  8 10  3  0  0  0  0
  4 11  1  0  0  0  0
  9 12  1  0  0  0  0
  7 13  1  0  0  0  0
 13 14  1  0  0  0  0
 12 15  1  0  0  0  0
  7 16  2  0  0  0  0
 11 17  1  0  0  0  0
 12 17  1  0  0  0  0
 14 18  1  0  0  0  0
 19 22  2  0  0  0  0
 19 23  1  0  0  0  0
 18 20  1  0  0  0  0
 18 21  2  0  0  0  0
 21 22  1  0  0  0  0
 20 23  2  0  0  0  0
 15 24  1  0  0  0  0
 15 25  1  0  0  0  0
 15 26  1  0  0  0  0
 13 27  1  0  0  0  0
 19 28  1  0  0  0  0
 28 29  1  0  0  0  0
M  END
> <IDNUMBER>
Y202-9979

> <available>
19

> <H_acceptor>
4

> <H_donor>
1

> <B_rotN>
8

> <N_O>
4

> <logP>
6.4913

> <logD>
5.0733

> <logSw>
-5.6398

> <PSA>
46.89

> <pKa_ma>
5.9989

> <pKa_mb>
-4.9316

> <N_Chirals>
2

> <Name>
N-(6-tert-butyl-3-cyano-4,5,6,7-tetrahydro-1-benzothiophen-2-yl)-2-(4-ethylphenoxy)propanamide

> <Smile>
CCc(cc1)ccc1OC(C)C(Nc(sc(C1)c2CCC1C(C)(C)C)c2C#N)=O

> <Color>
NOT COLORED

> <Collection>
DC

> <InChI>
InChI=1S/C24H30N2O2S/c1-6-16-7-10-18(11-8-16)28-15(2)22(27)26-23-20(14-25)19-12-9-17(24(3,4)5)13-21(19)29-23/h7-8,10-11,15,17H,6,9,12-13H2,1-5H3,(H,26,27)

> <InChI Key>
PKKSFPGCVYGOKM-UHFFFAOYSA-N

> <PERCENTSP3>
50

> <Link>
https://www.chemdiv.com/catalog/screening-compounds/compound-Y202-9979/

> <MFCDNUMBER>
MFCD03944545

> <STEREO>
MIXTURE OF STEREOISOMERS

> <State>
Solid

> <Similarity score>
0.18

$$$$
2-amino-6-(propan-2-yl)-4,5,6,7-tetrahydrothieno[2,3-c]pyridine-3-carbonitrile
  -OEChem-04222410502D

 15 16  0     0  0  0  0  0  0999 V2000
    1.6707   -0.0209    0.0000 C   0  0  0  0  0  0  0  0  0  0  0  0
    1.9541   -0.9833    0.0000 C   0  0  0  0  0  0  0  0  0  0  0  0
    0.3292   -0.9208    0.0000 C   0  0  0  0  0  0  0  0  0  0  0  0
    0.6708    0.0167    0.0000 C   0  0  0  0  0  0  0  0  0  0  0  0
    1.1166   -1.5459    0.0000 S   0  0  0  0  0  0  0  0  0  0  0  0
   -1.2959   -0.3209    0.0000 N   0  0  0  0  0  0  0  0  0  0  0  0
   -0.6458   -1.0917    0.0000 C   0  0  0  0  0  0  0  0  0  0  0  0
    2.2834    0.7584    0.0000 C   0  0  0  0  0  0  0  0  0  0  0  0
    2.9166    1.5459    0.0000 N   0  0  0  0  0  0  0  0  0  0  0  0
    0.0334    0.7709    0.0000 C   0  0  0  0  0  0  0  0  0  0  0  0
   -0.9541    0.6166    0.0000 C   0  0  0  0  0  0  0  0  0  0  0  0
    2.8833   -1.3167    0.0000 N   0  0  0  0  0  0  0  0  0  0  0  0
   -2.2834   -0.4916    0.0000 C   0  0  0  0  0  0  0  0  0  0  0  0
   -2.6333   -1.4416    0.0000 C   0  0  0  0  0  0  0  0  0  0  0  0
   -2.9166    0.2792    0.0000 C   0  0  0  0  0  0  0  0  0  0  0  0
  1  2  2  0  0  0  0
  3  4  2  0  0  0  0
  1  4  1  0  0  0  0
  2  5  1  0  0  0  0
  3  5  1  0  0  0  0
  6 11  1  0  0  0  0
  3  7  1  0  0  0  0
  6  7  1  0  0  0  0
  1  8  1  0  0  0  0
  8  9  3  0  0  0  0
  4 10  1  0  0  0  0
 10 11  1  0  0  0  0
  2 12  1  0  0  0  0
  6 13  1  0  0  0  0
 13 14  1  0  0  0  0
 13 15  1  0  0  0  0
M  END
> <IDNUMBER>
Y512-6850

> <available>
73

> <H_acceptor>
2

> <H_donor>
2

> <B_rotN>
2

> <N_O>
3

> <logP>
1.827

> <logD>
1.797

> <logSw>
-1.691

> <PSA>
42.29

> <pKa_ma>
15.47

> <pKa_mb>
6.257

> <N_Chirals>
0

> <Name>
2-amino-6-(propan-2-yl)-4,5,6,7-tetrahydrothieno[2,3-c]pyridine-3-carbonitrile

> <Smile>
c1(c(sc2c1CCN(C2)C(C)C)N)C#N

> <Color>
BROWN

> <Collection>
DC

> <InChI>
InChI=1S/C11H15N3S/c1-7(2)14-4-3-8-9(5-12)11(13)15-10(8)6-14/h7H,3-4,6,13H2,1-2H3

> <InChI Key>
GRVDEWDYQKUPSB-UHFFFAOYSA-N

> <PERCENTSP3>
54.5

> <Link>
https://www.chemdiv.com/catalog/screening-compounds/compound-Y512-6850/

> <MFCDNUMBER>
MFCD00742042

> <STEREO>
ACHIRAL

> <State>
Solid

> <Similarity score>
0.18

$$$$
N-ethyl-3-fluoro-3-[3-(pyridin-4-yl)-1,2,4-oxadiazol-5-yl]piperidine-1-carboxami
  -OEChem-04222410502D

 23 25  0     0  0  0  0  0  0999 V2000
   -1.3834    0.5094    0.0000 N   0  0  0  0  0  0  0  0  0  0  0  0
   -0.4028    0.6659    0.0000 C   0  0  0  0  0  0  0  0  0  0  0  0
    0.3088   -0.0487    0.0000 C   0  0  3  0  0  0  0  0  0  0  0  0
   -1.8442    1.3993    0.0000 C   0  0  0  0  0  0  0  0  0  0  0  0
   -1.1359    2.1076    0.0000 N   0  0  0  0  0  0  0  0  0  0  0  0
    1.8066   -0.9134    0.0000 N   0  0  0  0  0  0  0  0  0  0  0  0
   -0.2430    1.6531    0.0000 O   0  0  0  0  0  0  0  0  0  0  0  0
    2.3049   -1.7784    0.0000 C   0  0  0  0  0  0  0  0  0  0  0  0
    0.8070   -0.9134    0.0000 C   0  0  0  0  0  0  0  0  0  0  0  0
    1.8066   -2.6434    0.0000 O   0  0  0  0  0  0  0  0  0  0  0  0
   -2.8281    1.5591    0.0000 C   0  0  0  0  0  0  0  0  0  0  0  0
   -0.0769   -0.9698    0.0000 F   0  0  0  0  0  0  0  0  0  0  0  0
   -4.8056    1.8694    0.0000 N   0  0  0  0  0  0  0  0  0  0  0  0
    3.3078   -1.7784    0.0000 N   0  0  0  0  0  0  0  0  0  0  0  0
    0.8070    0.8197    0.0000 C   0  0  0  0  0  0  0  0  0  0  0  0
    2.3049   -0.0487    0.0000 C   0  0  0  0  0  0  0  0  0  0  0  0
    1.8066    0.8197    0.0000 C   0  0  0  0  0  0  0  0  0  0  0  0
   -4.4545    0.9323    0.0000 C   0  0  0  0  0  0  0  0  0  0  0  0
   -4.1821    2.6434    0.0000 C   0  0  0  0  0  0  0  0  0  0  0  0
   -3.4613    0.7788    0.0000 C   0  0  0  0  0  0  0  0  0  0  0  0
   -3.1948    2.4899    0.0000 C   0  0  0  0  0  0  0  0  0  0  0  0
    3.8091   -2.6434    0.0000 C   0  0  0  0  0  0  0  0  0  0  0  0
    4.8056   -2.6434    0.0000 C   0  0  0  0  0  0  0  0  0  0  0  0
  1  2  2  0  0  0  0
  2  3  1  0  0  0  0
  1  4  1  0  0  0  0
  4  5  2  0  0  0  0
  5  7  1  0  0  0  0
  6  9  1  0  0  0  0
  2  7  1  0  0  0  0
  6  8  1  0  0  0  0
  3  9  1  0  0  0  0
  8 10  2  0  0  0  0
  4 11  1  0  0  0  0
  3 12  1  0  0  0  0
 13 19  2  0  0  0  0
 13 18  1  0  0  0  0
  8 14  1  0  0  0  0
  3 15  1  0  0  0  0
 16 17  1  0  0  0  0
  6 16  1  0  0  0  0
 15 17  1  0  0  0  0
 18 20  2  0  0  0  0
 19 21  1  0  0  0  0
 11 20  1  0  0  0  0
 11 21  2  0  0  0  0
 14 22  1  0  0  0  0
 22 23  1  0  0  0  0
M  END
> <IDNUMBER>
SA92-0267

> <available>
118

> <H_acceptor>
6

> <H_donor>
1

> <B_rotN>
5

> <N_O>
7

> <logP>
1.6405

> <logD>
1.6404

> <logSw>
-1.7848

> <PSA>
67.694

> <pKa_ma>
16.53

> <pKa_mb>
3.6841

> <N_Chirals>
1

> <Name>
N-ethyl-3-fluoro-3-[3-(pyridin-4-yl)-1,2,4-oxadiazol-5-yl]piperidine-1-carboxamide

> <Smile>
CCNC(N(CCC1)CC1(c1nc(-c2ccncc2)no1)F)=O

> <Color>
YELLOW

> <Collection>
IC

> <InChI>
InChI=1S/C15H18FN5O2/c1-2-18-14(22)21-9-3-6-15(16,10-21)13-19-12(20-23-13)11-4-7-17-8-5-11/h4-5,7-8H,2-3,6,9-10H2,1H3,(H,18,22)/t15-/m0/s1

> <InChI Key>
OCHWKHZWKWSLGB-HNNXBMFYSA-N

> <PERCENTSP3>
46.67

> <Link>
https://www.chemdiv.com/catalog/screening-compounds/compound-SA92-0267/

> <MFCDNUMBER>
MFCD32242331

> <CLNUMBER>
CM4899

> <STEREO>
RACEMIC MIXTURE

> <State>
Solid

> <Similarity score>
0.18

$$$$
2-(4-ethoxyphenyl)-1-{3-fluoro-3-[3-(pyridin-3-yl)-1,2,4-oxadiazol-5-yl]piperidi
  -OEChem-04222410502D

 30 33  0     0  0  0  0  0  0999 V2000
    2.0713   -0.1291    0.0000 N   0  0  0  0  0  0  0  0  0  0  0  0
    1.7087   -1.0586    0.0000 C   0  0  0  0  0  0  0  0  0  0  0  0
    3.0717   -0.1791    0.0000 C   0  0  0  0  0  0  0  0  0  0  0  0
    0.7462   -1.3212    0.0000 C   0  0  3  0  0  0  0  0  0  0  0  0
    3.3300   -1.1462    0.0000 N   0  0  0  0  0  0  0  0  0  0  0  0
   -0.1168    0.1791    0.0000 N   0  0  0  0  0  0  0  0  0  0  0  0
    2.4922   -1.6921    0.0000 O   0  0  0  0  0  0  0  0  0  0  0  0
   -0.1168    1.1796    0.0000 C   0  0  0  0  0  0  0  0  0  0  0  0
    0.7462   -0.3211    0.0000 C   0  0  0  0  0  0  0  0  0  0  0  0
    3.6967    0.5959    0.0000 C   0  0  0  0  0  0  0  0  0  0  0  0
   -0.9836    1.6796    0.0000 C   0  0  0  0  0  0  0  0  0  0  0  0
    0.7462    1.6796    0.0000 O   0  0  0  0  0  0  0  0  0  0  0  0
    5.3179    1.2170    0.0000 N   0  0  0  0  0  0  0  0  0  0  0  0
    0.6169   -2.3089    0.0000 F   0  0  0  0  0  0  0  0  0  0  0  0
   -1.8546    1.1796    0.0000 C   0  0  0  0  0  0  0  0  0  0  0  0
   -0.1168   -1.8214    0.0000 C   0  0  0  0  0  0  0  0  0  0  0  0
    4.6844    0.4417    0.0000 C   0  0  0  0  0  0  0  0  0  0  0  0
   -0.9836   -0.3211    0.0000 C   0  0  0  0  0  0  0  0  0  0  0  0
   -3.5842    0.1791    0.0000 C   0  0  0  0  0  0  0  0  0  0  0  0
   -2.7173    1.6796    0.0000 C   0  0  0  0  0  0  0  0  0  0  0  0
   -1.8546    0.1791    0.0000 C   0  0  0  0  0  0  0  0  0  0  0  0
   -2.7173   -0.3211    0.0000 C   0  0  0  0  0  0  0  0  0  0  0  0
   -3.5842    1.1796    0.0000 C   0  0  0  0  0  0  0  0  0  0  0  0
    3.3424    1.5294    0.0000 C   0  0  0  0  0  0  0  0  0  0  0  0
   -4.4552   -0.3211    0.0000 O   0  0  0  0  0  0  0  0  0  0  0  0
   -0.9836   -1.3212    0.0000 C   0  0  0  0  0  0  0  0  0  0  0  0
    4.9594    2.1546    0.0000 C   0  0  0  0  0  0  0  0  0  0  0  0
   -4.4552   -1.3212    0.0000 C   0  0  0  0  0  0  0  0  0  0  0  0
    3.9718    2.3089    0.0000 C   0  0  0  0  0  0  0  0  0  0  0  0
   -5.3179   -1.8214    0.0000 C   0  0  0  0  0  0  0  0  0  0  0  0
  1  2  2  0  0  0  0
  1  3  1  0  0  0  0
  2  4  1  0  0  0  0
  3  5  2  0  0  0  0
  5  7  1  0  0  0  0
  6  9  1  0  0  0  0
  6 18  1  0  0  0  0
  2  7  1  0  0  0  0
  6  8  1  0  0  0  0
  4  9  1  0  0  0  0
  3 10  1  0  0  0  0
  8 11  1  0  0  0  0
  8 12  2  0  0  0  0
 13 17  2  0  0  0  0
 13 27  1  0  0  0  0
  4 14  1  0  0  0  0
 11 15  1  0  0  0  0
  4 16  1  0  0  0  0
 10 17  1  0  0  0  0
 18 26  1  0  0  0  0
 19 22  1  0  0  0  0
 19 23  2  0  0  0  0
 15 20  2  0  0  0  0
 15 21  1  0  0  0  0
 21 22  2  0  0  0  0
 20 23  1  0  0  0  0
 10 24  2  0  0  0  0
 19 25  1  0  0  0  0
 16 26  1  0  0  0  0
 27 29  2  0  0  0  0
 25 28  1  0  0  0  0
 24 29  1  0  0  0  0
 28 30  1  0  0  0  0
M  END
> <IDNUMBER>
SA92-0628

> <available>
82

> <H_acceptor>
7

> <H_donor>
0

> <B_rotN>
7

> <N_O>
7

> <logP>
3.1371

> <logD>
2.4984

> <logSw>
-2.777

> <PSA>
64.34

> <pKa_ma>
17.9425

> <pKa_mb>
7.9253

> <N_Chirals>
1

> <Name>
2-(4-ethoxyphenyl)-1-{3-fluoro-3-[3-(pyridin-3-yl)-1,2,4-oxadiazol-5-yl]piperidin-1-yl}ethan-1-one

> <Smile>
CCOc1ccc(CC(N(CCC2)CC2(c2nc(-c3cnccc3)no2)F)=O)cc1

> <Color>
YELLOW

> <Collection>
IC

> <InChI>
InChI=1S/C22H23FN4O3/c1-2-29-18-8-6-16(7-9-18)13-19(28)27-12-4-10-22(23,15-27)21-25-20(26-30-21)17-5-3-11-24-14-17/h3,5-9,11,14H,2,4,10,12-13,15H2,1H3/t22-/m0/s1

> <InChI Key>
PDPXFHDHVGOJLH-QFIPXVFZSA-N

> <PERCENTSP3>
36.36

> <Link>
https://www.chemdiv.com/catalog/screening-compounds/compound-SA92-0628/

> <MFCDNUMBER>
MFCD32241457

> <CLNUMBER>
CM4899

> <STEREO>
RACEMIC MIXTURE

> <State>
Liquid

> <Similarity score>
0.18

$$$$
1-{3-fluoro-3-[3-(pyridin-3-yl)-1,2,4-oxadiazol-5-yl]piperidin-1-yl}-2-(3-methox
  -OEChem-04222410502D

 29 32  0     0  0  0  0  0  0999 V2000
    2.0828    1.1039    0.0000 N   0  0  0  0  0  0  0  0  0  0  0  0
    1.3080    0.4788    0.0000 C   0  0  0  0  0  0  0  0  0  0  0  0
    2.9201    0.5582    0.0000 C   0  0  0  0  0  0  0  0  0  0  0  0
    0.3414    0.7330    0.0000 C   0  0  3  0  0  0  0  0  0  0  0  0
    2.6658   -0.4082    0.0000 N   0  0  0  0  0  0  0  0  0  0  0  0
   -0.5291   -0.7666    0.0000 N   0  0  0  0  0  0  0  0  0  0  0  0
    1.6663   -0.4583    0.0000 O   0  0  0  0  0  0  0  0  0  0  0  0
   -0.5291   -1.7664    0.0000 C   0  0  0  0  0  0  0  0  0  0  0  0
    0.3414   -0.2667    0.0000 C   0  0  0  0  0  0  0  0  0  0  0  0
    3.8572    0.9164    0.0000 C   0  0  0  0  0  0  0  0  0  0  0  0
   -1.3913   -2.2660    0.0000 C   0  0  0  0  0  0  0  0  0  0  0  0
    0.3414   -2.2660    0.0000 O   0  0  0  0  0  0  0  0  0  0  0  0
    5.5652    0.6456    0.0000 N   0  0  0  0  0  0  0  0  0  0  0  0
    0.2082    1.7285    0.0000 F   0  0  0  0  0  0  0  0  0  0  0  0
   -2.2578   -1.7664    0.0000 C   0  0  0  0  0  0  0  0  0  0  0  0
   -0.5291    1.2329    0.0000 C   0  0  0  0  0  0  0  0  0  0  0  0
   -3.1201   -2.2660    0.0000 C   0  0  0  0  0  0  0  0  0  0  0  0
    4.6321    0.2913    0.0000 C   0  0  0  0  0  0  0  0  0  0  0  0
   -1.3913   -0.2667    0.0000 C   0  0  0  0  0  0  0  0  0  0  0  0
   -3.9908   -1.7664    0.0000 C   0  0  0  0  0  0  0  0  0  0  0  0
    4.0074    1.9035    0.0000 C   0  0  0  0  0  0  0  0  0  0  0  0
   -4.8530   -2.2660    0.0000 O   0  0  0  0  0  0  0  0  0  0  0  0
   -1.3913    0.7330    0.0000 C   0  0  0  0  0  0  0  0  0  0  0  0
   -3.1201   -0.2667    0.0000 C   0  0  0  0  0  0  0  0  0  0  0  0
    5.7195    1.6329    0.0000 C   0  0  0  0  0  0  0  0  0  0  0  0
   -2.2578   -0.7666    0.0000 C   0  0  0  0  0  0  0  0  0  0  0  0
   -3.9908   -0.7666    0.0000 C   0  0  0  0  0  0  0  0  0  0  0  0
   -5.7195   -1.7664    0.0000 C   0  0  0  0  0  0  0  0  0  0  0  0
    4.9447    2.2660    0.0000 C   0  0  0  0  0  0  0  0  0  0  0  0
  1  2  2  0  0  0  0
  1  3  1  0  0  0  0
  2  4  1  0  0  0  0
  3  5  2  0  0  0  0
  5  7  1  0  0  0  0
  6  9  1  0  0  0  0
  6 19  1  0  0  0  0
  2  7  1  0  0  0  0
  6  8  1  0  0  0  0
  4  9  1  0  0  0  0
  3 10  1  0  0  0  0
  8 11  1  0  0  0  0
  8 12  2  0  0  0  0
 13 18  2  0  0  0  0
 13 25  1  0  0  0  0
  4 14  1  0  0  0  0
 11 15  1  0  0  0  0
  4 16  1  0  0  0  0
 15 17  2  0  0  0  0
 10 18  1  0  0  0  0
 19 23  1  0  0  0  0
 17 20  1  0  0  0  0
 20 27  2  0  0  0  0
 10 21  2  0  0  0  0
 20 22  1  0  0  0  0
 16 23  1  0  0  0  0
 24 26  2  0  0  0  0
 25 29  2  0  0  0  0
 15 26  1  0  0  0  0
 24 27  1  0  0  0  0
 22 28  1  0  0  0  0
 21 29  1  0  0  0  0
M  END
> <IDNUMBER>
SA92-0542

> <available>
105

> <H_acceptor>
7

> <H_donor>
0

> <B_rotN>
6

> <N_O>
7

> <logP>
2.869

> <logD>
2.2303

> <logSw>
-2.9132

> <PSA>
64.76

> <pKa_ma>
17.9425

> <pKa_mb>
7.9253

> <N_Chirals>
1

> <Name>
1-{3-fluoro-3-[3-(pyridin-3-yl)-1,2,4-oxadiazol-5-yl]piperidin-1-yl}-2-(3-methoxyphenyl)ethan-1-one

> <Smile>
COc1cccc(CC(N(CCC2)CC2(c2nc(-c3cnccc3)no2)F)=O)c1

> <Color>
ORANGE

> <Collection>
IC

> <InChI>
InChI=1S/C21H21FN4O3/c1-28-17-7-2-5-15(11-17)12-18(27)26-10-4-8-21(22,14-26)20-24-19(25-29-20)16-6-3-9-23-13-16/h2-3,5-7,9,11,13H,4,8,10,12,14H2,1H3/t21-/m0/s1

> <InChI Key>
VGMAETKJAMUCPL-NRFANRHFSA-N

> <PERCENTSP3>
33.33

> <Link>
https://www.chemdiv.com/catalog/screening-compounds/compound-SA92-0542/

> <MFCDNUMBER>
MFCD32242338

> <CLNUMBER>
CM4899

> <STEREO>
RACEMIC MIXTURE

> <State>
Liquid

> <Similarity score>
0.18

$$$$
(2,4-dimethyl-1,3-thiazol-5-yl){3-fluoro-3-[3-(pyridin-4-yl)-1,2,4-oxadiazol-5-y
  -OEChem-04222410502D

 27 30  0     0  0  0  0  0  0999 V2000
    2.8873    1.3376    0.0000 C   0  0  0  0  0  0  0  0  0  0  0  0
   -1.8124   -0.9557    0.0000 N   0  0  0  0  0  0  0  0  0  0  0  0
   -0.8257   -1.1155    0.0000 C   0  0  0  0  0  0  0  0  0  0  0  0
    1.8813    1.3376    0.0000 C   0  0  0  0  0  0  0  0  0  0  0  0
   -0.1144   -0.4012    0.0000 C   0  0  3  0  0  0  0  0  0  0  0  0
    3.4699    2.1398    0.0000 C   0  0  0  0  0  0  0  0  0  0  0  0
   -2.2731   -1.8454    0.0000 C   0  0  0  0  0  0  0  0  0  0  0  0
    1.3834    0.4636    0.0000 N   0  0  0  0  0  0  0  0  0  0  0  0
    4.4256    1.8264    0.0000 N   0  0  0  0  0  0  0  0  0  0  0  0
    3.4699    0.5202    0.0000 S   0  0  0  0  0  0  0  0  0  0  0  0
   -1.5588   -2.5443    0.0000 N   0  0  0  0  0  0  0  0  0  0  0  0
   -0.6688   -2.0993    0.0000 O   0  0  0  0  0  0  0  0  0  0  0  0
    4.4256    0.8302    0.0000 C   0  0  0  0  0  0  0  0  0  0  0  0
    0.3869    0.4636    0.0000 C   0  0  0  0  0  0  0  0  0  0  0  0
    1.3834    2.1930    0.0000 O   0  0  0  0  0  0  0  0  0  0  0  0
   -3.2507   -2.0052    0.0000 C   0  0  0  0  0  0  0  0  0  0  0  0
   -0.4999    0.5202    0.0000 F   0  0  0  0  0  0  0  0  0  0  0  0
   -5.2277   -2.3185    0.0000 N   0  0  0  0  0  0  0  0  0  0  0  0
    0.3869   -1.2720    0.0000 C   0  0  0  0  0  0  0  0  0  0  0  0
    1.8813   -0.4012    0.0000 C   0  0  0  0  0  0  0  0  0  0  0  0
    3.1598    3.0892    0.0000 C   0  0  0  0  0  0  0  0  0  0  0  0
    5.2277    0.2473    0.0000 C   0  0  0  0  0  0  0  0  0  0  0  0
    1.3834   -1.2720    0.0000 C   0  0  0  0  0  0  0  0  0  0  0  0
   -4.8768   -1.3755    0.0000 C   0  0  0  0  0  0  0  0  0  0  0  0
   -4.6043   -3.0892    0.0000 C   0  0  0  0  0  0  0  0  0  0  0  0
   -3.8803   -1.2190    0.0000 C   0  0  0  0  0  0  0  0  0  0  0  0
   -3.6078   -2.9357    0.0000 C   0  0  0  0  0  0  0  0  0  0  0  0
  2  3  2  0  0  0  0
  3  5  1  0  0  0  0
  1  4  1  0  0  0  0
  5 14  1  0  0  0  0
  1  6  2  0  0  0  0
  2  7  1  0  0  0  0
  7 11  2  0  0  0  0
  4  8  1  0  0  0  0
  6  9  1  0  0  0  0
  1 10  1  0  0  0  0
 11 12  1  0  0  0  0
  3 12  1  0  0  0  0
 10 13  1  0  0  0  0
  9 13  2  0  0  0  0
  8 14  1  0  0  0  0
  4 15  2  0  0  0  0
  7 16  1  0  0  0  0
  5 17  1  0  0  0  0
 18 25  2  0  0  0  0
 18 24  1  0  0  0  0
 19 23  1  0  0  0  0
  5 19  1  0  0  0  0
  8 20  1  0  0  0  0
  6 21  1  0  0  0  0
 13 22  1  0  0  0  0
 20 23  1  0  0  0  0
 24 26  2  0  0  0  0
 25 27  1  0  0  0  0
 16 26  1  0  0  0  0
 16 27  2  0  0  0  0
M  END
> <IDNUMBER>
SA92-0276

> <available>
94

> <H_acceptor>
7

> <H_donor>
0

> <B_rotN>
4

> <N_O>
7

> <logP>
2.6564

> <logD>
2.6563

> <logSw>
-2.6472

> <PSA>
68.043

> <pKa_ma>
27.1581

> <pKa_mb>
3.6841

> <N_Chirals>
1

> <Name>
(2,4-dimethyl-1,3-thiazol-5-yl){3-fluoro-3-[3-(pyridin-4-yl)-1,2,4-oxadiazol-5-yl]piperidin-1-yl}methanone

> <Smile>
Cc1c(C(N(CCC2)CC2(c2nc(-c3ccncc3)no2)F)=O)sc(C)n1

> <Color>
YELLOW

> <Collection>
IC

> <InChI>
InChI=1S/C18H18FN5O2S/c1-11-14(27-12(2)21-11)16(25)24-9-3-6-18(19,10-24)17-22-15(23-26-17)13-4-7-20-8-5-13/h4-5,7-8H,3,6,9-10H2,1-2H3/t18-/m0/s1

> <InChI Key>
NAHSYKSBUGHCGJ-SFHVURJKSA-N

> <PERCENTSP3>
38.89

> <Link>
https://www.chemdiv.com/catalog/screening-compounds/compound-SA92-0276/

> <MFCDNUMBER>
MFCD32242459

> <CLNUMBER>
CM4899

> <STEREO>
RACEMIC MIXTURE

> <State>
Liquid

> <Similarity score>
0.18

$$$$
N-(3-cyano-4,5,6,7-tetrahydro-1-benzothiophen-2-yl)-5-(4-ethoxyphenyl)-1,2-oxazo
  -OEChem-04222410502D

 29 32  0     0  0  0  0  0  0999 V2000
   -2.3362    1.3130    0.0000 C   0  0  0  0  0  0  0  0  0  0  0  0
   -2.9324    2.1215    0.0000 C   0  0  0  0  0  0  0  0  0  0  0  0
    0.1521    0.4210    0.0000 C   0  0  0  0  0  0  0  0  0  0  0  0
   -2.9324    0.4960    0.0000 S   0  0  0  0  0  0  0  0  0  0  0  0
   -3.8702    1.8130    0.0000 C   0  0  0  0  0  0  0  0  0  0  0  0
    0.7440    1.2336    0.0000 N   0  0  0  0  0  0  0  0  0  0  0  0
   -1.3360    1.3006    0.0000 N   0  0  0  0  0  0  0  0  0  0  0  0
    0.7315   -0.3877    0.0000 C   0  0  0  0  0  0  0  0  0  0  0  0
   -3.8824    0.8086    0.0000 C   0  0  0  0  0  0  0  0  0  0  0  0
   -0.8482    0.4334    0.0000 C   0  0  0  0  0  0  0  0  0  0  0  0
    1.6944   -0.0917    0.0000 C   0  0  0  0  0  0  0  0  0  0  0  0
    1.6944    0.9211    0.0000 O   0  0  0  0  0  0  0  0  0  0  0  0
   -2.6113    3.0717    0.0000 C   0  0  0  0  0  0  0  0  0  0  0  0
   -2.3570    4.0305    0.0000 N   0  0  0  0  0  0  0  0  0  0  0  0
    2.5028   -0.6795    0.0000 C   0  0  0  0  0  0  0  0  0  0  0  0
   -1.3567   -0.4294    0.0000 O   0  0  0  0  0  0  0  0  0  0  0  0
    2.3821   -1.6754    0.0000 C   0  0  0  0  0  0  0  0  0  0  0  0
    3.4073   -0.2752    0.0000 C   0  0  0  0  0  0  0  0  0  0  0  0
    4.1076   -1.8673    0.0000 C   0  0  0  0  0  0  0  0  0  0  0  0
   -4.7328    2.3216    0.0000 C   0  0  0  0  0  0  0  0  0  0  0  0
    4.2159   -0.8668    0.0000 C   0  0  0  0  0  0  0  0  0  0  0  0
    3.1823   -2.2675    0.0000 C   0  0  0  0  0  0  0  0  0  0  0  0
   -4.7454    0.3249    0.0000 C   0  0  0  0  0  0  0  0  0  0  0  0
    4.9080   -2.4550    0.0000 O   0  0  0  0  0  0  0  0  0  0  0  0
    4.8078   -3.4511    0.0000 C   0  0  0  0  0  0  0  0  0  0  0  0
   -5.5999    1.8339    0.0000 C   0  0  0  0  0  0  0  0  0  0  0  0
   -5.6082    0.8335    0.0000 C   0  0  0  0  0  0  0  0  0  0  0  0
    5.6082   -4.0305    0.0000 C   0  0  0  0  0  0  0  0  0  0  0  0
   -0.8358    2.1714    0.0000 H   0  0  0  0  0  0  0  0  0  0  0  0
  1  2  2  0  0  0  0
  3 10  1  0  0  0  0
  1  4  1  0  0  0  0
  2  5  1  0  0  0  0
  3  6  2  0  0  0  0
  1  7  1  0  0  0  0
  3  8  1  0  0  0  0
  4  9  1  0  0  0  0
  5  9  2  0  0  0  0
  7 10  1  0  0  0  0
  8 11  2  0  0  0  0
 11 12  1  0  0  0  0
  6 12  1  0  0  0  0
  2 13  1  0  0  0  0
 13 14  3  0  0  0  0
 11 15  1  0  0  0  0
 10 16  2  0  0  0  0
 15 17  2  0  0  0  0
 15 18  1  0  0  0  0
 19 21  1  0  0  0  0
  5 20  1  0  0  0  0
 18 21  2  0  0  0  0
 17 22  1  0  0  0  0
 19 22  2  0  0  0  0
  9 23  1  0  0  0  0
 19 24  1  0  0  0  0
 24 25  1  0  0  0  0
 20 26  1  0  0  0  0
 23 27  1  0  0  0  0
 26 27  1  0  0  0  0
 25 28  1  0  0  0  0
  7 29  1  0  0  0  0
M  END
> <IDNUMBER>
D337-2045

> <available>
105

> <H_acceptor>
6

> <H_donor>
1

> <B_rotN>
7

> <N_O>
6

> <logP>
4.8571

> <logD>
3.566

> <logSw>
-4.6468

> <PSA>
68.76

> <pKa_ma>
6.1318

> <pKa_mb>
-6.8683

> <N_Chirals>
0

> <Name>
N-(3-cyano-4,5,6,7-tetrahydro-1-benzothiophen-2-yl)-5-(4-ethoxyphenyl)-1,2-oxazole-3-carboxamide

> <Smile>
CCOc(cc1)ccc1-c1cc(C(Nc(sc2c3CCCC2)c3C#N)=O)no1

> <Color>
PINK

> <Collection>
DC

> <InChI>
InChI=1S/C21H19N3O3S/c1-2-26-14-9-7-13(8-10-14)18-11-17(24-27-18)20(25)23-21-16(12-22)15-5-3-4-6-19(15)28-21/h7-11H,2-6H2,1H3,(H,23,25)

> <InChI Key>
PDTQUPSCHCJBNB-UHFFFAOYSA-N

> <PERCENTSP3>
28.6

> <Link>
https://www.chemdiv.com/catalog/screening-compounds/compound-D337-2045/

> <MFCDNUMBER>
MFCD12918360

> <CLNUMBER>
CL2028

> <STEREO>
ACHIRAL

> <State>
Solid

> <Similarity score>
0.18

$$$$
3-(5-{3-fluoro-1-[(4-methyl-1,3-thiazol-5-yl)methyl]piperidin-3-yl}-1,2,4-oxadia
  -OEChem-04222410502D

 25 28  0     0  0  0  0  0  0999 V2000
    0.1166   -0.7186    0.0000 N   0  0  0  0  0  0  0  0  0  0  0  0
    0.7831   -1.4643    0.0000 C   0  0  0  0  0  0  0  0  0  0  0  0
   -0.7957   -1.1268    0.0000 C   0  0  0  0  0  0  0  0  0  0  0  0
    1.7789   -1.3559    0.0000 C   0  0  3  0  0  0  0  0  0  0  0  0
   -0.6916   -2.1183    0.0000 N   0  0  0  0  0  0  0  0  0  0  0  0
    0.7040    1.4436    0.0000 C   0  0  0  0  0  0  0  0  0  0  0  0
    0.2833   -2.3308    0.0000 O   0  0  0  0  0  0  0  0  0  0  0  0
   -0.8915    1.1852    0.0000 N   0  0  0  0  0  0  0  0  0  0  0  0
   -0.0041    0.7312    0.0000 C   0  0  0  0  0  0  0  0  0  0  0  0
    2.0455    0.3562    0.0000 N   0  0  0  0  0  0  0  0  0  0  0  0
   -1.6663   -0.6269    0.0000 C   0  0  0  0  0  0  0  0  0  0  0  0
    0.2541    2.3308    0.0000 S   0  0  0  0  0  0  0  0  0  0  0  0
   -0.7332    2.1727    0.0000 C   0  0  0  0  0  0  0  0  0  0  0  0
    1.4206   -0.4269    0.0000 C   0  0  0  0  0  0  0  0  0  0  0  0
    1.6956    1.2853    0.0000 C   0  0  0  0  0  0  0  0  0  0  0  0
   -3.3953   -0.6269    0.0000 N   0  0  0  0  0  0  0  0  0  0  0  0
    2.2580   -2.2392    0.0000 F   0  0  0  0  0  0  0  0  0  0  0  0
    2.7703   -1.5185    0.0000 C   0  0  0  0  0  0  0  0  0  0  0  0
   -2.5287   -1.1268    0.0000 C   0  0  0  0  0  0  0  0  0  0  0  0
    3.0411    0.1938    0.0000 C   0  0  0  0  0  0  0  0  0  0  0  0
   -1.6663    0.3730    0.0000 C   0  0  0  0  0  0  0  0  0  0  0  0
    0.1541   -0.2561    0.0000 C   0  0  0  0  0  0  0  0  0  0  0  0
    3.3953   -0.7394    0.0000 C   0  0  0  0  0  0  0  0  0  0  0  0
   -3.3953    0.3730    0.0000 C   0  0  0  0  0  0  0  0  0  0  0  0
   -2.5287    0.8728    0.0000 C   0  0  0  0  0  0  0  0  0  0  0  0
  1  2  2  0  0  0  0
  1  3  1  0  0  0  0
  2  4  1  0  0  0  0
  3  5  2  0  0  0  0
  5  7  1  0  0  0  0
  6 15  1  0  0  0  0
  2  7  1  0  0  0  0
  8  9  1  0  0  0  0
  8 13  2  0  0  0  0
  6  9  2  0  0  0  0
 10 14  1  0  0  0  0
 10 20  1  0  0  0  0
  3 11  1  0  0  0  0
  6 12  1  0  0  0  0
 12 13  1  0  0  0  0
  4 14  1  0  0  0  0
 10 15  1  0  0  0  0
 16 19  2  0  0  0  0
 16 24  1  0  0  0  0
  4 17  1  0  0  0  0
  4 18  1  0  0  0  0
 11 19  1  0  0  0  0
 20 23  1  0  0  0  0
 11 21  2  0  0  0  0
  9 22  1  0  0  0  0
 18 23  1  0  0  0  0
 24 25  2  0  0  0  0
 21 25  1  0  0  0  0
M  END
> <IDNUMBER>
SA92-0562

> <available>
50

> <H_acceptor>
6

> <H_donor>
0

> <B_rotN>
4

> <N_O>
6

> <logP>
2.2318

> <logD>
1.5931

> <logSw>
-1.9678

> <PSA>
55.033

> <pKa_ma>
26.9519

> <pKa_mb>
7.9253

> <N_Chirals>
1

> <Name>
3-(5-{3-fluoro-1-[(4-methyl-1,3-thiazol-5-yl)methyl]piperidin-3-yl}-1,2,4-oxadiazol-3-yl)pyridine

> <Smile>
Cc1c(CN(CCC2)CC2(c2nc(-c3cnccc3)no2)F)scn1

> <Color>
ORANGE

> <Collection>
IC

> <InChI>
InChI=1S/C17H18FN5OS/c1-12-14(25-11-20-12)9-23-7-3-5-17(18,10-23)16-21-15(22-24-16)13-4-2-6-19-8-13/h2,4,6,8,11H,3,5,7,9-10H2,1H3/t17-/m0/s1

> <InChI Key>
WRHGERSUHPDIMB-KRWDZBQOSA-N

> <PERCENTSP3>
41.18

> <Link>
https://www.chemdiv.com/catalog/screening-compounds/compound-SA92-0562/

> <MFCDNUMBER>
MFCD32242596

> <CLNUMBER>
CM4899

> <STEREO>
RACEMIC MIXTURE

> <State>
Liquid

> <Similarity score>
0.18

$$$$
2-[5-(3-methoxyphenyl)-1H-1,2,4-triazol-1-yl]-5,6,7,8-tetrahydro-4H-cyclohepta[b
  -OEChem-04222410502D

 25 28  0     0  0  0  0  0  0999 V2000
    1.2014    0.4445    0.0000 C   0  0  0  0  0  0  0  0  0  0  0  0
    0.6587    1.2693    0.0000 N   0  0  0  0  0  0  0  0  0  0  0  0
    2.1868    0.4445    0.0000 C   0  0  0  0  0  0  0  0  0  0  0  0
    0.8479   -0.5159    0.0000 S   0  0  0  0  0  0  0  0  0  0  0  0
   -0.3088    1.2693    0.0000 C   0  0  0  0  0  0  0  0  0  0  0  0
    2.4866   -0.5623    0.0000 C   0  0  0  0  0  0  0  0  0  0  0  0
    1.6762   -1.0978    0.0000 C   0  0  0  0  0  0  0  0  0  0  0  0
   -0.6267    2.2118    0.0000 N   0  0  0  0  0  0  0  0  0  0  0  0
    0.9908    2.2369    0.0000 N   0  0  0  0  0  0  0  0  0  0  0  0
    2.7330    1.2585    0.0000 C   0  0  0  0  0  0  0  0  0  0  0  0
   -0.8730    0.4552    0.0000 C   0  0  0  0  0  0  0  0  0  0  0  0
    0.1731    2.8007    0.0000 C   0  0  0  0  0  0  0  0  0  0  0  0
    3.2828    2.0726    0.0000 N   0  0  0  0  0  0  0  0  0  0  0  0
   -1.8691    0.5231    0.0000 C   0  0  0  0  0  0  0  0  0  0  0  0
   -2.4367   -0.2874    0.0000 C   0  0  0  0  0  0  0  0  0  0  0  0
    3.4543   -0.8586    0.0000 C   0  0  0  0  0  0  0  0  0  0  0  0
    1.5584   -2.1047    0.0000 C   0  0  0  0  0  0  0  0  0  0  0  0
   -0.4660   -0.4445    0.0000 C   0  0  0  0  0  0  0  0  0  0  0  0
   -3.4257   -0.1982    0.0000 O   0  0  0  0  0  0  0  0  0  0  0  0
   -1.0228   -1.2692    0.0000 C   0  0  0  0  0  0  0  0  0  0  0  0
   -2.0119   -1.2013    0.0000 C   0  0  0  0  0  0  0  0  0  0  0  0
   -3.8291    0.7016    0.0000 C   0  0  0  0  0  0  0  0  0  0  0  0
    3.8291   -1.8262    0.0000 C   0  0  0  0  0  0  0  0  0  0  0  0
    2.2760   -2.8007    0.0000 C   0  0  0  0  0  0  0  0  0  0  0  0
    3.2900   -2.6830    0.0000 C   0  0  0  0  0  0  0  0  0  0  0  0
  1  2  1  0  0  0  0
  1  3  2  0  0  0  0
  1  4  1  0  0  0  0
  2  5  1  0  0  0  0
  3  6  1  0  0  0  0
  4  7  1  0  0  0  0
  6  7  2  0  0  0  0
  5  8  2  0  0  0  0
  8 12  1  0  0  0  0
  2  9  1  0  0  0  0
  3 10  1  0  0  0  0
  5 11  1  0  0  0  0
  9 12  2  0  0  0  0
 10 13  3  0  0  0  0
 11 14  2  0  0  0  0
 14 15  1  0  0  0  0
  6 16  1  0  0  0  0
  7 17  1  0  0  0  0
 11 18  1  0  0  0  0
 15 19  1  0  0  0  0
 18 20  2  0  0  0  0
 20 21  1  0  0  0  0
 15 21  2  0  0  0  0
 19 22  1  0  0  0  0
 16 23  1  0  0  0  0
 23 25  1  0  0  0  0
 17 24  1  0  0  0  0
 24 25  1  0  0  0  0
M  END
> <IDNUMBER>
4073-0156

> <available>
211

> <H_acceptor>
4

> <H_donor>
0

> <B_rotN>
4

> <N_O>
5

> <logP>
4.887

> <logD>
4.8866

> <logSw>
-4.764

> <PSA>
50.751

> <pKa_ma>
25.4916

> <pKa_mb>
4.2819

> <N_Chirals>
0

> <Name>
2-[5-(3-methoxyphenyl)-1H-1,2,4-triazol-1-yl]-5,6,7,8-tetrahydro-4H-cyclohepta[b]thiophene-3-carbonitrile

> <Smile>
COc1cccc(-c2ncnn2-c(sc2c3CCCCC2)c3C#N)c1

> <Color>
YELLOW

> <Collection>
DC

> <InChI>
InChI=1S/C19H18N4OS/c1-24-14-7-5-6-13(10-14)18-21-12-22-23(18)19-16(11-20)15-8-3-2-4-9-17(15)25-19/h5-7,10,12H,2-4,8-9H2,1H3

> <InChI Key>
LHTGLUNBOKASMN-UHFFFAOYSA-N

> <PERCENTSP3>
31.6

> <Link>
https://www.chemdiv.com/catalog/screening-compounds/compound-4073-0156/

> <MFCDNUMBER>
MFCD01655066

> <STEREO>
ACHIRAL

> <State>
Solid

> <Similarity score>
0.18

$$$$
1-[3-fluoro-3-(3-phenyl-1,2,4-oxadiazol-5-yl)piperidin-1-yl]-2-(3-methoxyphenyl)
  -OEChem-04222410502D

 29 32  0     0  0  0  0  0  0999 V2000
    0.6377    0.9402    0.0000 N   0  0  0  0  0  0  0  0  0  0  0  0
   -0.3494    1.0969    0.0000 C   0  0  0  0  0  0  0  0  0  0  0  0
   -1.0545    0.3917    0.0000 C   0  0  3  0  0  0  0  0  0  0  0  0
    1.0954    1.8332    0.0000 C   0  0  0  0  0  0  0  0  0  0  0  0
    0.3902    2.5447    0.0000 N   0  0  0  0  0  0  0  0  0  0  0  0
   -2.5589   -0.4795    0.0000 N   0  0  0  0  0  0  0  0  0  0  0  0
   -0.5031    2.0873    0.0000 O   0  0  0  0  0  0  0  0  0  0  0  0
   -3.0604   -1.3383    0.0000 C   0  0  0  0  0  0  0  0  0  0  0  0
   -1.5622   -0.4795    0.0000 C   0  0  0  0  0  0  0  0  0  0  0  0
   -2.5589   -2.2032    0.0000 C   0  0  0  0  0  0  0  0  0  0  0  0
    2.0764    1.9899    0.0000 C   0  0  0  0  0  0  0  0  0  0  0  0
   -4.0569   -1.3383    0.0000 O   0  0  0  0  0  0  0  0  0  0  0  0
   -0.6785   -0.5360    0.0000 F   0  0  0  0  0  0  0  0  0  0  0  0
   -1.5622   -2.2032    0.0000 C   0  0  0  0  0  0  0  0  0  0  0  0
   -1.5622    1.2566    0.0000 C   0  0  0  0  0  0  0  0  0  0  0  0
   -1.0545   -1.3383    0.0000 C   0  0  0  0  0  0  0  0  0  0  0  0
   -3.0604    0.3917    0.0000 C   0  0  0  0  0  0  0  0  0  0  0  0
   -0.0581   -1.3383    0.0000 C   0  0  0  0  0  0  0  0  0  0  0  0
    0.4465   -0.4795    0.0000 O   0  0  0  0  0  0  0  0  0  0  0  0
   -2.5589    1.2566    0.0000 C   0  0  0  0  0  0  0  0  0  0  0  0
   -0.0581   -3.0742    0.0000 C   0  0  0  0  0  0  0  0  0  0  0  0
   -1.0545   -3.0742    0.0000 C   0  0  0  0  0  0  0  0  0  0  0  0
    2.7062    1.2097    0.0000 C   0  0  0  0  0  0  0  0  0  0  0  0
    2.4430    2.9207    0.0000 C   0  0  0  0  0  0  0  0  0  0  0  0
    0.4465   -2.2032    0.0000 C   0  0  0  0  0  0  0  0  0  0  0  0
    1.4432   -0.4795    0.0000 C   0  0  0  0  0  0  0  0  0  0  0  0
    3.4207    3.0742    0.0000 C   0  0  0  0  0  0  0  0  0  0  0  0
    3.6996    1.3728    0.0000 C   0  0  0  0  0  0  0  0  0  0  0  0
    4.0569    2.3033    0.0000 C   0  0  0  0  0  0  0  0  0  0  0  0
  1  2  2  0  0  0  0
  2  3  1  0  0  0  0
  1  4  1  0  0  0  0
  4  5  2  0  0  0  0
  5  7  1  0  0  0  0
  6  9  1  0  0  0  0
  2  7  1  0  0  0  0
  6  8  1  0  0  0  0
  3  9  1  0  0  0  0
  8 10  1  0  0  0  0
  4 11  1  0  0  0  0
  8 12  2  0  0  0  0
  3 13  1  0  0  0  0
 10 14  1  0  0  0  0
  3 15  1  0  0  0  0
 14 16  2  0  0  0  0
 17 20  1  0  0  0  0
  6 17  1  0  0  0  0
 16 18  1  0  0  0  0
 18 19  1  0  0  0  0
 15 20  1  0  0  0  0
 21 22  2  0  0  0  0
 14 22  1  0  0  0  0
 11 23  1  0  0  0  0
 11 24  2  0  0  0  0
 21 25  1  0  0  0  0
 18 25  2  0  0  0  0
 19 26  1  0  0  0  0
 24 27  1  0  0  0  0
 23 28  2  0  0  0  0
 27 29  2  0  0  0  0
 28 29  1  0  0  0  0
M  END
> <IDNUMBER>
SA92-0017

> <available>
42

> <H_acceptor>
6

> <H_donor>
0

> <B_rotN>
6

> <N_O>
6

> <logP>
4.2446

> <logD>
4.2446

> <logSw>
-4.4451

> <PSA>
55.242

> <pKa_ma>
17.9425

> <pKa_mb>
-2.0756

> <N_Chirals>
1

> <Name>
1-[3-fluoro-3-(3-phenyl-1,2,4-oxadiazol-5-yl)piperidin-1-yl]-2-(3-methoxyphenyl)ethan-1-one

> <Smile>
COc1cccc(CC(N(CCC2)CC2(c2nc(-c3ccccc3)no2)F)=O)c1

> <Color>
NOT COLORED

> <Collection>
IC

> <InChI>
InChI=1S/C22H22FN3O3/c1-28-18-10-5-7-16(13-18)14-19(27)26-12-6-11-22(23,15-26)21-24-20(25-29-21)17-8-3-2-4-9-17/h2-5,7-10,13H,6,11-12,14-15H2,1H3/t22-/m0/s1

> <InChI Key>
CBJSDRLBPLYNSB-QFIPXVFZSA-N

> <PERCENTSP3>
31.82

> <Link>
https://www.chemdiv.com/catalog/screening-compounds/compound-SA92-0017/

> <MFCDNUMBER>
MFCD32241438

> <CLNUMBER>
CM4899

> <STEREO>
RACEMIC MIXTURE

> <State>
Liquid

> <Similarity score>
0.18

$$$$
2-(4-fluorophenoxy)-1-{3-fluoro-3-[3-(pyridin-4-yl)-1,2,4-oxadiazol-5-yl]piperid
  -OEChem-04222410502D

 29 32  0     0  0  0  0  0  0999 V2000
   -0.6440    2.6712    0.0000 N   0  0  0  0  0  0  0  0  0  0  0  0
    0.3461    2.8277    0.0000 C   0  0  0  0  0  0  0  0  0  0  0  0
    1.0575    2.1166    0.0000 C   0  0  3  0  0  0  0  0  0  0  0  0
   -1.1014    3.5610    0.0000 C   0  0  0  0  0  0  0  0  0  0  0  0
   -0.3869    4.2692    0.0000 N   0  0  0  0  0  0  0  0  0  0  0  0
    2.5552    1.2487    0.0000 N   0  0  0  0  0  0  0  0  0  0  0  0
    0.4966    3.8178    0.0000 O   0  0  0  0  0  0  0  0  0  0  0  0
    3.0534    0.3838    0.0000 C   0  0  0  0  0  0  0  0  0  0  0  0
    1.5557    1.2487    0.0000 C   0  0  0  0  0  0  0  0  0  0  0  0
   -2.0885    3.7208    0.0000 C   0  0  0  0  0  0  0  0  0  0  0  0
    2.5552   -0.4811    0.0000 C   0  0  0  0  0  0  0  0  0  0  0  0
    4.0561    0.3838    0.0000 O   0  0  0  0  0  0  0  0  0  0  0  0
    0.6719    1.1922    0.0000 F   0  0  0  0  0  0  0  0  0  0  0  0
   -4.0561    4.0310    0.0000 N   0  0  0  0  0  0  0  0  0  0  0  0
    3.0534   -1.3457    0.0000 O   0  0  0  0  0  0  0  0  0  0  0  0
    1.5557    2.9908    0.0000 C   0  0  0  0  0  0  0  0  0  0  0  0
    2.5552   -2.2106    0.0000 C   0  0  0  0  0  0  0  0  0  0  0  0
    1.5557   -3.9400    0.0000 C   0  0  0  0  0  0  0  0  0  0  0  0
    3.0534    2.1166    0.0000 C   0  0  0  0  0  0  0  0  0  0  0  0
    1.0575   -4.8049    0.0000 F   0  0  0  0  0  0  0  0  0  0  0  0
    1.5557   -2.2106    0.0000 C   0  0  0  0  0  0  0  0  0  0  0  0
    3.0534   -3.0754    0.0000 C   0  0  0  0  0  0  0  0  0  0  0  0
    1.0575   -3.0754    0.0000 C   0  0  0  0  0  0  0  0  0  0  0  0
    2.5552   -3.9400    0.0000 C   0  0  0  0  0  0  0  0  0  0  0  0
    2.5552    2.9908    0.0000 C   0  0  0  0  0  0  0  0  0  0  0  0
   -3.7050    3.0941    0.0000 C   0  0  0  0  0  0  0  0  0  0  0  0
   -3.4327    4.8049    0.0000 C   0  0  0  0  0  0  0  0  0  0  0  0
   -2.7119    2.9406    0.0000 C   0  0  0  0  0  0  0  0  0  0  0  0
   -2.4456    4.6515    0.0000 C   0  0  0  0  0  0  0  0  0  0  0  0
  1  2  2  0  0  0  0
  2  3  1  0  0  0  0
  1  4  1  0  0  0  0
  4  5  2  0  0  0  0
  5  7  1  0  0  0  0
  6  9  1  0  0  0  0
  2  7  1  0  0  0  0
  6  8  1  0  0  0  0
  3  9  1  0  0  0  0
  4 10  1  0  0  0  0
  8 11  1  0  0  0  0
  8 12  2  0  0  0  0
  3 13  1  0  0  0  0
 14 27  2  0  0  0  0
 14 26  1  0  0  0  0
 11 15  1  0  0  0  0
  3 16  1  0  0  0  0
 15 17  1  0  0  0  0
 18 24  2  0  0  0  0
 19 25  1  0  0  0  0
  6 19  1  0  0  0  0
 18 20  1  0  0  0  0
 17 21  1  0  0  0  0
 17 22  2  0  0  0  0
 21 23  2  0  0  0  0
 18 23  1  0  0  0  0
 22 24  1  0  0  0  0
 16 25  1  0  0  0  0
 26 28  2  0  0  0  0
 27 29  1  0  0  0  0
 10 28  1  0  0  0  0
 10 29  2  0  0  0  0
M  END
> <IDNUMBER>
SA92-0185

> <available>
66

> <H_acceptor>
7

> <H_donor>
0

> <B_rotN>
6

> <N_O>
7

> <logP>
2.5306

> <logD>
2.5305

> <logSw>
-2.2676

> <PSA>
64.626

> <pKa_ma>
24.578

> <pKa_mb>
3.6841

> <N_Chirals>
1

> <Name>
2-(4-fluorophenoxy)-1-{3-fluoro-3-[3-(pyridin-4-yl)-1,2,4-oxadiazol-5-yl]piperidin-1-yl}ethan-1-one

> <Smile>
O=C(COc(cc1)ccc1F)N(CCC1)CC1(c1nc(-c2ccncc2)no1)F

> <Color>
YELLOW

> <Collection>
IC

> <InChI>
InChI=1S/C20H18F2N4O3/c21-15-2-4-16(5-3-15)28-12-17(27)26-11-1-8-20(22,13-26)19-24-18(25-29-19)14-6-9-23-10-7-14/h2-7,9-10H,1,8,11-13H2/t20-/m0/s1

> <InChI Key>
MCTLZMYUMMNKOQ-FQEVSTJZSA-N

> <PERCENTSP3>
30

> <Link>
https://www.chemdiv.com/catalog/screening-compounds/compound-SA92-0185/

> <MFCDNUMBER>
MFCD32241568

> <CLNUMBER>
CM4899

> <STEREO>
RACEMIC MIXTURE

> <State>
Liquid

> <Similarity score>
0.18

$$$$
2-{[4-cyclopropyl-6-(trifluoromethyl)pyrimidin-2-yl]amino}-4,5,6,7-tetrahydro-1-
  -OEChem-04222410502D

 25 28  0     0  0  0  0  0  0999 V2000
    0.9918    1.7105    0.0000 C   0  0  0  0  0  0  0  0  0  0  0  0
    1.3543    0.7688    0.0000 C   0  0  0  0  0  0  0  0  0  0  0  0
   -0.6792    1.2606    0.0000 C   0  0  0  0  0  0  0  0  0  0  0  0
    1.7668    2.3438    0.0000 S   0  0  0  0  0  0  0  0  0  0  0  0
    0.0292    1.9688    0.0000 N   0  0  0  0  0  0  0  0  0  0  0  0
    2.3459    0.8313    0.0000 C   0  0  0  0  0  0  0  0  0  0  0  0
    2.6210    1.7939    0.0000 C   0  0  0  0  0  0  0  0  0  0  0  0
   -1.6418    1.5188    0.0000 N   0  0  0  0  0  0  0  0  0  0  0  0
   -0.4167    0.2938    0.0000 N   0  0  0  0  0  0  0  0  0  0  0  0
   -3.3168    1.0687    0.0000 C   0  0  0  0  0  0  0  0  0  0  0  0
   -2.3542    0.8104    0.0000 C   0  0  0  0  0  0  0  0  0  0  0  0
   -1.1209   -0.4146    0.0000 C   0  0  0  0  0  0  0  0  0  0  0  0
    0.8334   -0.0688    0.0000 C   0  0  0  0  0  0  0  0  0  0  0  0
   -2.0917   -0.1563    0.0000 C   0  0  0  0  0  0  0  0  0  0  0  0
   -0.8666   -1.3772    0.0000 C   0  0  0  0  0  0  0  0  0  0  0  0
    0.3209   -0.9064    0.0000 N   0  0  0  0  0  0  0  0  0  0  0  0
   -0.1541   -2.0813    0.0000 C   0  0  0  0  0  0  0  0  0  0  0  0
   -1.1209   -2.3438    0.0000 C   0  0  0  0  0  0  0  0  0  0  0  0
   -3.5793    0.0979    0.0000 F   0  0  0  0  0  0  0  0  0  0  0  0
   -3.0584    2.0355    0.0000 F   0  0  0  0  0  0  0  0  0  0  0  0
   -4.2835    1.3229    0.0000 F   0  0  0  0  0  0  0  0  0  0  0  0
    3.0335    0.1229    0.0000 C   0  0  0  0  0  0  0  0  0  0  0  0
    3.5836    2.0564    0.0000 C   0  0  0  0  0  0  0  0  0  0  0  0
    4.0169    0.3687    0.0000 C   0  0  0  0  0  0  0  0  0  0  0  0
    4.2835    1.3229    0.0000 C   0  0  0  0  0  0  0  0  0  0  0  0
  1  2  2  0  0  0  0
  3  5  1  0  0  0  0
  1  4  1  0  0  0  0
  1  5  1  0  0  0  0
  2  6  1  0  0  0  0
  4  7  1  0  0  0  0
  6  7  2  0  0  0  0
  3  8  1  0  0  0  0
  3  9  2  0  0  0  0
 10 11  1  0  0  0  0
  8 11  2  0  0  0  0
 11 14  1  0  0  0  0
  9 12  1  0  0  0  0
  2 13  1  0  0  0  0
 12 14  2  0  0  0  0
 12 15  1  0  0  0  0
 13 16  3  0  0  0  0
 15 17  1  0  0  0  0
 15 18  1  0  0  0  0
 17 18  1  0  0  0  0
 10 19  1  0  0  0  0
 10 20  1  0  0  0  0
 10 21  1  0  0  0  0
  6 22  1  0  0  0  0
  7 23  1  0  0  0  0
 22 24  1  0  0  0  0
 23 25  1  0  0  0  0
 24 25  1  0  0  0  0
M  END
> <IDNUMBER>
Y505-0618

> <available>
7

> <H_acceptor>
3

> <H_donor>
1

> <B_rotN>
5

> <N_O>
4

> <logP>
5.4561

> <logD>
5.4505

> <logSw>
-5.8786

> <PSA>
45.879

> <pKa_ma>
10.0838

> <pKa_mb>
5.4407

> <N_Chirals>
0

> <Name>
2-{[4-cyclopropyl-6-(trifluoromethyl)pyrimidin-2-yl]amino}-4,5,6,7-tetrahydro-1-benzothiophene-3-carbonitrile

> <Smile>
N#Cc1c(Nc2nc(C(F)(F)F)cc(C3CC3)n2)sc2c1CCCC2

> <Color>
BROWN

> <Collection>
DC

> <InChI>
InChI=1S/C17H15F3N4S/c18-17(19,20)14-7-12(9-5-6-9)22-16(23-14)24-15-11(8-21)10-3-1-2-4-13(10)25-15/h7,9H,1-6H2,(H,22,23,24)

> <InChI Key>
SYAIKRODGWFSBG-UHFFFAOYSA-N

> <PERCENTSP3>
47.1

> <Link>
https://www.chemdiv.com/catalog/screening-compounds/compound-Y505-0618/

> <MFCDNUMBER>
MFCD09468503

> <STEREO>
ACHIRAL

> <State>
Solid

> <Similarity score>
0.18

$$$$
3-fluoro-1-[(4-methyl-1,3-thiazol-5-yl)methyl]-3-(3-phenyl-1,2,4-oxadiazol-5-yl)
  -OEChem-04222410502D

 25 28  0     0  0  0  0  0  0999 V2000
    0.5848    1.2993    0.0000 N   0  0  0  0  0  0  0  0  0  0  0  0
   -0.4061    1.4500    0.0000 C   0  0  0  0  0  0  0  0  0  0  0  0
    1.0329    2.1897    0.0000 C   0  0  0  0  0  0  0  0  0  0  0  0
   -1.1113    0.7507    0.0000 C   0  0  3  0  0  0  0  0  0  0  0  0
    0.3306    2.8982    0.0000 N   0  0  0  0  0  0  0  0  0  0  0  0
   -2.6160   -1.8543    0.0000 C   0  0  0  0  0  0  0  0  0  0  0  0
   -0.5628    2.4436    0.0000 O   0  0  0  0  0  0  0  0  0  0  0  0
   -2.2836   -3.4342    0.0000 N   0  0  0  0  0  0  0  0  0  0  0  0
   -3.0266   -2.7665    0.0000 C   0  0  0  0  0  0  0  0  0  0  0  0
   -2.6160   -0.1145    0.0000 N   0  0  0  0  0  0  0  0  0  0  0  0
   -1.6159   -1.9578    0.0000 S   0  0  0  0  0  0  0  0  0  0  0  0
   -1.4092   -2.9359    0.0000 C   0  0  0  0  0  0  0  0  0  0  0  0
   -1.6159   -0.1145    0.0000 C   0  0  0  0  0  0  0  0  0  0  0  0
   -3.1113   -0.9891    0.0000 C   0  0  0  0  0  0  0  0  0  0  0  0
    2.0235    2.3496    0.0000 C   0  0  0  0  0  0  0  0  0  0  0  0
   -0.7257   -0.1802    0.0000 F   0  0  0  0  0  0  0  0  0  0  0  0
   -1.6159    1.6096    0.0000 C   0  0  0  0  0  0  0  0  0  0  0  0
   -3.1113    0.7507    0.0000 C   0  0  0  0  0  0  0  0  0  0  0  0
   -3.9985   -2.9734    0.0000 C   0  0  0  0  0  0  0  0  0  0  0  0
   -2.6160    1.6096    0.0000 C   0  0  0  0  0  0  0  0  0  0  0  0
    2.6538    1.5627    0.0000 C   0  0  0  0  0  0  0  0  0  0  0  0
    2.3871    3.2743    0.0000 C   0  0  0  0  0  0  0  0  0  0  0  0
    3.3685    3.4342    0.0000 C   0  0  0  0  0  0  0  0  0  0  0  0
    3.6411    1.7226    0.0000 C   0  0  0  0  0  0  0  0  0  0  0  0
    3.9985    2.6600    0.0000 C   0  0  0  0  0  0  0  0  0  0  0  0
  1  2  2  0  0  0  0
  1  3  1  0  0  0  0
  2  4  1  0  0  0  0
  3  5  2  0  0  0  0
  5  7  1  0  0  0  0
  6 14  1  0  0  0  0
  2  7  1  0  0  0  0
  8  9  1  0  0  0  0
  6  9  2  0  0  0  0
 10 13  1  0  0  0  0
  6 11  1  0  0  0  0
 11 12  1  0  0  0  0
  8 12  2  0  0  0  0
  4 13  1  0  0  0  0
 10 14  1  0  0  0  0
  3 15  1  0  0  0  0
  4 16  1  0  0  0  0
  4 17  1  0  0  0  0
 18 20  1  0  0  0  0
 10 18  1  0  0  0  0
  9 19  1  0  0  0  0
 17 20  1  0  0  0  0
 15 21  1  0  0  0  0
 15 22  2  0  0  0  0
 22 23  1  0  0  0  0
 21 24  2  0  0  0  0
 23 25  2  0  0  0  0
 24 25  1  0  0  0  0
M  END
> <IDNUMBER>
SA92-0037

> <available>
21

> <H_acceptor>
5

> <H_donor>
0

> <B_rotN>
4

> <N_O>
5

> <logP>
3.6073

> <logD>
3.5395

> <logSw>
-3.6752

> <PSA>
45.515

> <pKa_ma>
26.9519

> <pKa_mb>
6.6276

> <N_Chirals>
1

> <Name>
3-fluoro-1-[(4-methyl-1,3-thiazol-5-yl)methyl]-3-(3-phenyl-1,2,4-oxadiazol-5-yl)piperidine

> <Smile>
Cc1c(CN(CCC2)CC2(c2nc(-c3ccccc3)no2)F)scn1

> <Color>
YELLOW

> <Collection>
IC

> <InChI>
InChI=1S/C18H19FN4OS/c1-13-15(25-12-20-13)10-23-9-5-8-18(19,11-23)17-21-16(22-24-17)14-6-3-2-4-7-14/h2-4,6-7,12H,5,8-11H2,1H3/t18-/m0/s1

> <InChI Key>
BAXQFWGIZUVHMO-SFHVURJKSA-N

> <PERCENTSP3>
38.89

> <Link>
https://www.chemdiv.com/catalog/screening-compounds/compound-SA92-0037/

> <MFCDNUMBER>
MFCD32241692

> <CLNUMBER>
CM4899

> <STEREO>
RACEMIC MIXTURE

> <State>
Liquid

> <Similarity score>
0.18

$$$$
2-(4-fluorophenyl)-1-{3-fluoro-3-[3-(pyridin-4-yl)-1,2,4-oxadiazol-5-yl]piperidi
  -OEChem-04222410502D

 28 31  0     0  0  0  0  0  0999 V2000
   -0.6407    0.9459    0.0000 N   0  0  0  0  0  0  0  0  0  0  0  0
    0.3462    1.0964    0.0000 C   0  0  0  0  0  0  0  0  0  0  0  0
    1.0511    0.3916    0.0000 C   0  0  3  0  0  0  0  0  0  0  0  0
   -1.0949    1.8324    0.0000 C   0  0  0  0  0  0  0  0  0  0  0  0
   -0.3901    2.5436    0.0000 N   0  0  0  0  0  0  0  0  0  0  0  0
    2.5548   -0.4793    0.0000 N   0  0  0  0  0  0  0  0  0  0  0  0
    0.5028    2.0864    0.0000 O   0  0  0  0  0  0  0  0  0  0  0  0
    3.0528   -1.3377    0.0000 C   0  0  0  0  0  0  0  0  0  0  0  0
    1.5554   -0.4793    0.0000 C   0  0  0  0  0  0  0  0  0  0  0  0
    2.5548   -2.2022    0.0000 C   0  0  0  0  0  0  0  0  0  0  0  0
   -2.0785    1.9891    0.0000 C   0  0  0  0  0  0  0  0  0  0  0  0
    4.0552   -1.3377    0.0000 O   0  0  0  0  0  0  0  0  0  0  0  0
    0.6719   -0.5358    0.0000 F   0  0  0  0  0  0  0  0  0  0  0  0
   -4.0552    2.3087    0.0000 N   0  0  0  0  0  0  0  0  0  0  0  0
    1.5554   -2.2022    0.0000 C   0  0  0  0  0  0  0  0  0  0  0  0
    1.5554    1.2594    0.0000 C   0  0  0  0  0  0  0  0  0  0  0  0
   -0.4463   -2.2022    0.0000 C   0  0  0  0  0  0  0  0  0  0  0  0
    3.0528    0.3916    0.0000 C   0  0  0  0  0  0  0  0  0  0  0  0
   -1.4487   -2.2022    0.0000 F   0  0  0  0  0  0  0  0  0  0  0  0
    1.0511   -1.3377    0.0000 C   0  0  0  0  0  0  0  0  0  0  0  0
    1.0511   -3.0731    0.0000 C   0  0  0  0  0  0  0  0  0  0  0  0
    0.0547   -1.3377    0.0000 C   0  0  0  0  0  0  0  0  0  0  0  0
    0.0547   -3.0731    0.0000 C   0  0  0  0  0  0  0  0  0  0  0  0
    2.5548    1.2594    0.0000 C   0  0  0  0  0  0  0  0  0  0  0  0
   -3.4256    3.0731    0.0000 C   0  0  0  0  0  0  0  0  0  0  0  0
   -3.7044    1.3722    0.0000 C   0  0  0  0  0  0  0  0  0  0  0  0
   -2.4450    2.9195    0.0000 C   0  0  0  0  0  0  0  0  0  0  0  0
   -2.7114    1.2092    0.0000 C   0  0  0  0  0  0  0  0  0  0  0  0
  1  2  2  0  0  0  0
  2  3  1  0  0  0  0
  1  4  1  0  0  0  0
  4  5  2  0  0  0  0
  5  7  1  0  0  0  0
  6  9  1  0  0  0  0
  2  7  1  0  0  0  0
  6  8  1  0  0  0  0
  3  9  1  0  0  0  0
  8 10  1  0  0  0  0
  4 11  1  0  0  0  0
  8 12  2  0  0  0  0
  3 13  1  0  0  0  0
 14 26  1  0  0  0  0
 14 25  2  0  0  0  0
 10 15  1  0  0  0  0
  3 16  1  0  0  0  0
 17 23  2  0  0  0  0
 18 24  1  0  0  0  0
  6 18  1  0  0  0  0
 17 19  1  0  0  0  0
 15 20  1  0  0  0  0
 15 21  2  0  0  0  0
 20 22  2  0  0  0  0
 17 22  1  0  0  0  0
 21 23  1  0  0  0  0
 16 24  1  0  0  0  0
 25 27  1  0  0  0  0
 26 28  2  0  0  0  0
 11 27  2  0  0  0  0
 11 28  1  0  0  0  0
M  END
> <IDNUMBER>
SA92-0182

> <available>
88

> <H_acceptor>
6

> <H_donor>
0

> <B_rotN>
5

> <N_O>
6

> <logP>
3.0287

> <logD>
3.0286

> <logSw>
-2.9462

> <PSA>
57.127

> <pKa_ma>
17.477

> <pKa_mb>
3.6841

> <N_Chirals>
1

> <Name>
2-(4-fluorophenyl)-1-{3-fluoro-3-[3-(pyridin-4-yl)-1,2,4-oxadiazol-5-yl]piperidin-1-yl}ethan-1-one

> <Smile>
O=C(Cc(cc1)ccc1F)N(CCC1)CC1(c1nc(-c2ccncc2)no1)F

> <Color>
YELLOW

> <Collection>
IC

> <InChI>
InChI=1S/C20H18F2N4O2/c21-16-4-2-14(3-5-16)12-17(27)26-11-1-8-20(22,13-26)19-24-18(25-28-19)15-6-9-23-10-7-15/h2-7,9-10H,1,8,11-13H2/t20-/m0/s1

> <InChI Key>
SUDOBYCDKZWCGK-FQEVSTJZSA-N

> <PERCENTSP3>
30

> <Link>
https://www.chemdiv.com/catalog/screening-compounds/compound-SA92-0182/

> <MFCDNUMBER>
MFCD32241445

> <CLNUMBER>
CM4899

> <STEREO>
RACEMIC MIXTURE

> <State>
Solid

> <Similarity score>
0.18

$$$$
1-{3-fluoro-3-[3-(pyridin-4-yl)-1,2,4-oxadiazol-5-yl]piperidin-1-yl}-2-(3-methyl
  -OEChem-04222410502D

 29 32  0     0  0  0  0  0  0999 V2000
   -0.6440    2.2391    0.0000 N   0  0  0  0  0  0  0  0  0  0  0  0
    0.3430    2.3958    0.0000 C   0  0  0  0  0  0  0  0  0  0  0  0
    1.0515    1.6908    0.0000 C   0  0  3  0  0  0  0  0  0  0  0  0
   -1.0922    3.1324    0.0000 C   0  0  0  0  0  0  0  0  0  0  0  0
   -0.3900    3.8343    0.0000 N   0  0  0  0  0  0  0  0  0  0  0  0
    2.5557    0.8257    0.0000 N   0  0  0  0  0  0  0  0  0  0  0  0
    0.5029    3.3767    0.0000 O   0  0  0  0  0  0  0  0  0  0  0  0
    3.0539   -0.0454    0.0000 C   0  0  0  0  0  0  0  0  0  0  0  0
    1.5498    0.8257    0.0000 C   0  0  0  0  0  0  0  0  0  0  0  0
   -2.0792    3.2794    0.0000 C   0  0  0  0  0  0  0  0  0  0  0  0
    2.5557   -0.9105    0.0000 C   0  0  0  0  0  0  0  0  0  0  0  0
    4.0568   -0.0454    0.0000 O   0  0  0  0  0  0  0  0  0  0  0  0
    0.6658    0.7599    0.0000 F   0  0  0  0  0  0  0  0  0  0  0  0
   -4.0568    3.5992    0.0000 N   0  0  0  0  0  0  0  0  0  0  0  0
    3.0539   -1.7786    0.0000 O   0  0  0  0  0  0  0  0  0  0  0  0
    1.5498    2.5557    0.0000 C   0  0  0  0  0  0  0  0  0  0  0  0
    2.5557   -2.6434    0.0000 C   0  0  0  0  0  0  0  0  0  0  0  0
    3.0539    1.6908    0.0000 C   0  0  0  0  0  0  0  0  0  0  0  0
    1.5498   -2.6434    0.0000 C   0  0  0  0  0  0  0  0  0  0  0  0
    1.0515   -3.5085    0.0000 C   0  0  0  0  0  0  0  0  0  0  0  0
    2.5557    2.5557    0.0000 C   0  0  0  0  0  0  0  0  0  0  0  0
    2.5557   -4.3733    0.0000 C   0  0  0  0  0  0  0  0  0  0  0  0
   -3.4268    4.3733    0.0000 C   0  0  0  0  0  0  0  0  0  0  0  0
   -3.6996    2.6685    0.0000 C   0  0  0  0  0  0  0  0  0  0  0  0
   -2.4398    4.2197    0.0000 C   0  0  0  0  0  0  0  0  0  0  0  0
   -2.7093    2.5119    0.0000 C   0  0  0  0  0  0  0  0  0  0  0  0
    3.0539   -3.5085    0.0000 C   0  0  0  0  0  0  0  0  0  0  0  0
    1.5498   -4.3733    0.0000 C   0  0  0  0  0  0  0  0  0  0  0  0
    0.0549   -3.5085    0.0000 C   0  0  0  0  0  0  0  0  0  0  0  0
  1  2  2  0  0  0  0
  2  3  1  0  0  0  0
  1  4  1  0  0  0  0
  4  5  2  0  0  0  0
  5  7  1  0  0  0  0
  6  9  1  0  0  0  0
  2  7  1  0  0  0  0
  6  8  1  0  0  0  0
  3  9  1  0  0  0  0
  4 10  1  0  0  0  0
  8 11  1  0  0  0  0
  8 12  2  0  0  0  0
  3 13  1  0  0  0  0
 14 24  1  0  0  0  0
 14 23  2  0  0  0  0
 11 15  1  0  0  0  0
  3 16  1  0  0  0  0
 15 17  1  0  0  0  0
 18 21  1  0  0  0  0
  6 18  1  0  0  0  0
 17 19  1  0  0  0  0
 19 20  2  0  0  0  0
 16 21  1  0  0  0  0
 22 27  1  0  0  0  0
 23 25  1  0  0  0  0
 24 26  2  0  0  0  0
 10 25  2  0  0  0  0
 10 26  1  0  0  0  0
 17 27  2  0  0  0  0
 22 28  2  0  0  0  0
 20 28  1  0  0  0  0
 20 29  1  0  0  0  0
M  END
> <IDNUMBER>
SA92-0216

> <available>
53

> <H_acceptor>
7

> <H_donor>
0

> <B_rotN>
6

> <N_O>
7

> <logP>
2.9928

> <logD>
2.9927

> <logSw>
-2.8474

> <PSA>
64.626

> <pKa_ma>
24.9668

> <pKa_mb>
3.6841

> <N_Chirals>
1

> <Name>
1-{3-fluoro-3-[3-(pyridin-4-yl)-1,2,4-oxadiazol-5-yl]piperidin-1-yl}-2-(3-methylphenoxy)ethan-1-one

> <Smile>
Cc1cccc(OCC(N(CCC2)CC2(c2nc(-c3ccncc3)no2)F)=O)c1

> <Color>
YELLOW

> <Collection>
IC

> <InChI>
InChI=1S/C21H21FN4O3/c1-15-4-2-5-17(12-15)28-13-18(27)26-11-3-8-21(22,14-26)20-24-19(25-29-20)16-6-9-23-10-7-16/h2,4-7,9-10,12H,3,8,11,13-14H2,1H3/t21-/m0/s1

> <InChI Key>
RIJMPSFQPJTJTB-NRFANRHFSA-N

> <PERCENTSP3>
33.33

> <Link>
https://www.chemdiv.com/catalog/screening-compounds/compound-SA92-0216/

> <MFCDNUMBER>
MFCD32241825

> <CLNUMBER>
CM4899

> <STEREO>
RACEMIC MIXTURE

> <State>
Liquid

> <Similarity score>
0.18

$$$$
N-(3-cyano-5,6-dihydro-4H-cyclopenta[b]thiophen-2-yl)-2-(2,4-dichlorophenoxy)pro
  -OEChem-04222410502D

 24 26  0     0  0  0  0  0  0999 V2000
   -0.9259    1.4450    0.0000 C   0  0  0  0  0  0  0  0  0  0  0  0
   -0.9259    2.3438    0.0000 C   0  0  0  0  0  0  0  0  0  0  0  0
   -1.7084    0.9956    0.0000 S   0  0  0  0  0  0  0  0  0  0  0  0
   -2.5065    2.3438    0.0000 C   0  0  0  0  0  0  0  0  0  0  0  0
   -0.0814    0.9569    0.0000 N   0  0  0  0  0  0  0  0  0  0  0  0
   -2.5065    1.4528    0.0000 C   0  0  0  0  0  0  0  0  0  0  0  0
   -0.0814   -0.0040    0.0000 C   0  0  0  0  0  0  0  0  0  0  0  0
   -0.0116    2.8629    0.0000 C   0  0  0  0  0  0  0  0  0  0  0  0
    0.8949    3.3743    0.0000 N   0  0  0  0  0  0  0  0  0  0  0  0
    0.7477   -1.4528    0.0000 O   0  0  0  0  0  0  0  0  0  0  0  0
    1.5767   -1.9254    0.0000 C   0  0  0  0  0  0  0  0  0  0  0  0
    2.4213   -1.4605    0.0000 C   0  0  0  0  0  0  0  0  0  0  0  0
    0.7553   -0.4996    0.0000 C   0  0  3  0  0  0  0  0  0  0  0  0
    3.2501   -1.9254    0.0000 C   0  0  0  0  0  0  0  0  0  0  0  0
   -0.9104   -0.4920    0.0000 O   0  0  0  0  0  0  0  0  0  0  0  0
    1.5845   -2.8861    0.0000 C   0  0  0  0  0  0  0  0  0  0  0  0
    3.2501   -2.8939    0.0000 C   0  0  0  0  0  0  0  0  0  0  0  0
    2.4443   -0.4996    0.0000 Cl  0  0  0  0  0  0  0  0  0  0  0  0
   -3.2967    2.8009    0.0000 C   0  0  0  0  0  0  0  0  0  0  0  0
   -4.0871    1.4528    0.0000 C   0  0  0  0  0  0  0  0  0  0  0  0
    2.4135   -3.3588    0.0000 C   0  0  0  0  0  0  0  0  0  0  0  0
    4.0871   -3.3743    0.0000 Cl  0  0  0  0  0  0  0  0  0  0  0  0
   -4.0871    2.3515    0.0000 C   0  0  0  0  0  0  0  0  0  0  0  0
    1.5845   -0.0271    0.0000 C   0  0  0  0  0  0  0  0  0  0  0  0
  1  2  2  0  0  0  0
  1  3  1  0  0  0  0
  2  4  1  0  0  0  0
  4  6  2  0  0  0  0
  1  5  1  0  0  0  0
  3  6  1  0  0  0  0
  5  7  1  0  0  0  0
  2  8  1  0  0  0  0
  8  9  3  0  0  0  0
 10 11  1  0  0  0  0
 11 12  2  0  0  0  0
 10 13  1  0  0  0  0
  7 13  1  0  0  0  0
 12 14  1  0  0  0  0
 14 17  2  0  0  0  0
  7 15  2  0  0  0  0
 11 16  1  0  0  0  0
 17 21  1  0  0  0  0
 12 18  1  0  0  0  0
  4 19  1  0  0  0  0
 19 23  1  0  0  0  0
  6 20  1  0  0  0  0
 16 21  2  0  0  0  0
 17 22  1  0  0  0  0
 20 23  1  0  0  0  0
 13 24  1  0  0  0  0
M  END
> <IDNUMBER>
8012-3703

> <available>
16

> <H_acceptor>
4

> <H_donor>
1

> <B_rotN>
6

> <N_O>
4

> <logP>
4.9424

> <logD>
3.5046

> <logSw>
-5.0599

> <PSA>
47.342

> <pKa_ma>
5.9783

> <pKa_mb>
-6.0563

> <N_Chirals>
1

> <Name>
N-(3-cyano-5,6-dihydro-4H-cyclopenta[b]thiophen-2-yl)-2-(2,4-dichlorophenoxy)propanamide

> <Smile>
CC(C(Nc(sc1c2CCC1)c2C#N)=O)Oc(ccc(Cl)c1)c1Cl

> <Color>
ORANGE

> <Collection>
DC

> <InChI>
InChI=1S/C17H14Cl2N2O2S/c1-9(23-14-6-5-10(18)7-13(14)19)16(22)21-17-12(8-20)11-3-2-4-15(11)24-17/h5-7,9H,2-4H2,1H3,(H,21,22)/t9-/m0/s1

> <InChI Key>
FLHOMHATGIKCCI-VIFPVBQESA-N

> <PERCENTSP3>
29.41

> <Link>
https://www.chemdiv.com/catalog/screening-compounds/compound-8012-3703/

> <MFCDNUMBER>
MFCD02928197

> <STEREO>
RACEMIC MIXTURE

> <State>
Solid

> <Similarity score>
0.18

$$$$
1-{3-fluoro-3-[3-(pyridin-3-yl)-1,2,4-oxadiazol-5-yl]piperidin-1-yl}-3-(3-methox
  -OEChem-04222410502D

 30 33  0     0  0  0  0  0  0999 V2000
    2.5046   -0.5562    0.0000 N   0  0  0  0  0  0  0  0  0  0  0  0
    2.1463   -1.4940    0.0000 C   0  0  0  0  0  0  0  0  0  0  0  0
    3.5048   -0.6148    0.0000 C   0  0  0  0  0  0  0  0  0  0  0  0
    1.1837   -1.7523    0.0000 C   0  0  3  0  0  0  0  0  0  0  0  0
    3.7591   -1.5817    0.0000 N   0  0  0  0  0  0  0  0  0  0  0  0
    0.3166   -0.2522    0.0000 N   0  0  0  0  0  0  0  0  0  0  0  0
    2.9213   -2.1192    0.0000 O   0  0  0  0  0  0  0  0  0  0  0  0
    1.1837   -0.7565    0.0000 C   0  0  0  0  0  0  0  0  0  0  0  0
    0.3166    0.7480    0.0000 C   0  0  0  0  0  0  0  0  0  0  0  0
    4.1341    0.1688    0.0000 C   0  0  0  0  0  0  0  0  0  0  0  0
    1.1837    1.2441    0.0000 O   0  0  0  0  0  0  0  0  0  0  0  0
    5.7470    0.7857    0.0000 N   0  0  0  0  0  0  0  0  0  0  0  0
   -0.5542    1.2441    0.0000 C   0  0  0  0  0  0  0  0  0  0  0  0
    1.0460   -2.7442    0.0000 F   0  0  0  0  0  0  0  0  0  0  0  0
    0.3166   -2.2566    0.0000 C   0  0  0  0  0  0  0  0  0  0  0  0
    5.1219    0.0063    0.0000 C   0  0  0  0  0  0  0  0  0  0  0  0
   -0.5542   -0.7565    0.0000 C   0  0  0  0  0  0  0  0  0  0  0  0
   -3.1549    0.7480    0.0000 C   0  0  0  0  0  0  0  0  0  0  0  0
   -1.4170    0.7480    0.0000 C   0  0  0  0  0  0  0  0  0  0  0  0
   -2.2837    1.2441    0.0000 C   0  0  0  0  0  0  0  0  0  0  0  0
   -4.0175    1.2441    0.0000 C   0  0  0  0  0  0  0  0  0  0  0  0
    3.7717    1.0982    0.0000 C   0  0  0  0  0  0  0  0  0  0  0  0
   -4.8803    0.7480    0.0000 O   0  0  0  0  0  0  0  0  0  0  0  0
   -0.5542   -1.7523    0.0000 C   0  0  0  0  0  0  0  0  0  0  0  0
   -3.1549    2.7442    0.0000 C   0  0  0  0  0  0  0  0  0  0  0  0
    5.3927    1.7193    0.0000 C   0  0  0  0  0  0  0  0  0  0  0  0
   -2.2837    2.2485    0.0000 C   0  0  0  0  0  0  0  0  0  0  0  0
   -4.0175    2.2485    0.0000 C   0  0  0  0  0  0  0  0  0  0  0  0
   -5.7470    1.2441    0.0000 C   0  0  0  0  0  0  0  0  0  0  0  0
    4.4051    1.8734    0.0000 C   0  0  0  0  0  0  0  0  0  0  0  0
  1  2  2  0  0  0  0
  1  3  1  0  0  0  0
  2  4  1  0  0  0  0
  3  5  2  0  0  0  0
  5  7  1  0  0  0  0
  6  8  1  0  0  0  0
  6 17  1  0  0  0  0
  2  7  1  0  0  0  0
  4  8  1  0  0  0  0
  6  9  1  0  0  0  0
  3 10  1  0  0  0  0
  9 11  2  0  0  0  0
 12 16  2  0  0  0  0
 12 26  1  0  0  0  0
  9 13  1  0  0  0  0
  4 14  1  0  0  0  0
  4 15  1  0  0  0  0
 10 16  1  0  0  0  0
 17 24  1  0  0  0  0
 18 20  2  0  0  0  0
 13 19  1  0  0  0  0
 19 20  1  0  0  0  0
 18 21  1  0  0  0  0
 21 28  2  0  0  0  0
 10 22  2  0  0  0  0
 21 23  1  0  0  0  0
 15 24  1  0  0  0  0
 25 27  2  0  0  0  0
 26 30  2  0  0  0  0
 20 27  1  0  0  0  0
 25 28  1  0  0  0  0
 23 29  1  0  0  0  0
 22 30  1  0  0  0  0
M  END
> <IDNUMBER>
SA92-0625

> <available>
61

> <H_acceptor>
7

> <H_donor>
0

> <B_rotN>
7

> <N_O>
7

> <logP>
3.0763

> <logD>
2.4376

> <logSw>
-2.9444

> <PSA>
64.76

> <pKa_ma>
22.9745

> <pKa_mb>
7.9253

> <N_Chirals>
1

> <Name>
1-{3-fluoro-3-[3-(pyridin-3-yl)-1,2,4-oxadiazol-5-yl]piperidin-1-yl}-3-(3-methoxyphenyl)propan-1-one

> <Smile>
COc1cccc(CCC(N(CCC2)CC2(c2nc(-c3cnccc3)no2)F)=O)c1

> <Color>
BROWN

> <Collection>
IC

> <InChI>
InChI=1S/C22H23FN4O3/c1-29-18-7-2-5-16(13-18)8-9-19(28)27-12-4-10-22(23,15-27)21-25-20(26-30-21)17-6-3-11-24-14-17/h2-3,5-7,11,13-14H,4,8-10,12,15H2,1H3/t22-/m0/s1

> <InChI Key>
FSXPXOPHNRLJLO-QFIPXVFZSA-N

> <PERCENTSP3>
36.36

> <Link>
https://www.chemdiv.com/catalog/screening-compounds/compound-SA92-0625/

> <MFCDNUMBER>
MFCD32243337

> <CLNUMBER>
CM4899

> <STEREO>
RACEMIC MIXTURE

> <State>
Liquid

> <Similarity score>
0.18

$$$$
{3-fluoro-3-[3-(pyridin-4-yl)-1,2,4-oxadiazol-5-yl]piperidin-1-yl}(3-methylpyrid
  -OEChem-04222410502D

 27 30  0     0  0  0  0  0  0999 V2000
   -1.6413    0.9414    0.0000 N   0  0  0  0  0  0  0  0  0  0  0  0
   -0.6484    1.1073    0.0000 C   0  0  0  0  0  0  0  0  0  0  0  0
    0.0594    0.3963    0.0000 C   0  0  3  0  0  0  0  0  0  0  0  0
   -2.0925    1.8309    0.0000 C   0  0  0  0  0  0  0  0  0  0  0  0
    2.0518   -1.3424    0.0000 C   0  0  0  0  0  0  0  0  0  0  0  0
    1.5538   -0.4715    0.0000 N   0  0  0  0  0  0  0  0  0  0  0  0
   -1.3875    2.5390    0.0000 N   0  0  0  0  0  0  0  0  0  0  0  0
   -0.4948    2.0846    0.0000 O   0  0  0  0  0  0  0  0  0  0  0  0
    3.0541   -1.3424    0.0000 C   0  0  0  0  0  0  0  0  0  0  0  0
    0.5546   -0.4715    0.0000 C   0  0  0  0  0  0  0  0  0  0  0  0
    3.5556   -0.4715    0.0000 N   0  0  0  0  0  0  0  0  0  0  0  0
    1.5538   -2.2006    0.0000 O   0  0  0  0  0  0  0  0  0  0  0  0
   -3.0885    1.9939    0.0000 C   0  0  0  0  0  0  0  0  0  0  0  0
    3.5556   -2.2006    0.0000 C   0  0  0  0  0  0  0  0  0  0  0  0
   -0.3258   -0.5340    0.0000 F   0  0  0  0  0  0  0  0  0  0  0  0
   -5.0559    2.3102    0.0000 N   0  0  0  0  0  0  0  0  0  0  0  0
    0.5546    1.2577    0.0000 C   0  0  0  0  0  0  0  0  0  0  0  0
    2.0518    0.3963    0.0000 C   0  0  0  0  0  0  0  0  0  0  0  0
    1.5538    1.2577    0.0000 C   0  0  0  0  0  0  0  0  0  0  0  0
    4.5611   -0.4715    0.0000 C   0  0  0  0  0  0  0  0  0  0  0  0
   -4.4325    3.0746    0.0000 C   0  0  0  0  0  0  0  0  0  0  0  0
   -4.7052    1.3705    0.0000 C   0  0  0  0  0  0  0  0  0  0  0  0
   -3.4396    2.9242    0.0000 C   0  0  0  0  0  0  0  0  0  0  0  0
   -3.7120    1.2141    0.0000 C   0  0  0  0  0  0  0  0  0  0  0  0
    3.0541   -3.0746    0.0000 C   0  0  0  0  0  0  0  0  0  0  0  0
    4.5611   -2.2006    0.0000 C   0  0  0  0  0  0  0  0  0  0  0  0
    5.0559   -1.3424    0.0000 C   0  0  0  0  0  0  0  0  0  0  0  0
  1  2  2  0  0  0  0
  2  3  1  0  0  0  0
  1  4  1  0  0  0  0
  5  6  1  0  0  0  0
  6 10  1  0  0  0  0
  4  7  2  0  0  0  0
  7  8  1  0  0  0  0
  2  8  1  0  0  0  0
  5  9  1  0  0  0  0
  3 10  1  0  0  0  0
  9 11  2  0  0  0  0
  5 12  2  0  0  0  0
  4 13  1  0  0  0  0
  9 14  1  0  0  0  0
  3 15  1  0  0  0  0
 16 22  1  0  0  0  0
 16 21  2  0  0  0  0
  3 17  1  0  0  0  0
 18 19  1  0  0  0  0
  6 18  1  0  0  0  0
 17 19  1  0  0  0  0
 11 20  1  0  0  0  0
 21 23  1  0  0  0  0
 22 24  2  0  0  0  0
 13 23  2  0  0  0  0
 13 24  1  0  0  0  0
 14 25  1  0  0  0  0
 14 26  2  0  0  0  0
 26 27  1  0  0  0  0
 20 27  2  0  0  0  0
M  END
> <IDNUMBER>
SA92-0207

> <available>
29

> <H_acceptor>
7

> <H_donor>
0

> <B_rotN>
4

> <N_O>
7

> <logP>
2.2551

> <logD>
2.2551

> <logSw>
-2.0335

> <PSA>
67.472

> <pKa_ma>
24.399

> <pKa_mb>
3.6841

> <N_Chirals>
1

> <Name>
{3-fluoro-3-[3-(pyridin-4-yl)-1,2,4-oxadiazol-5-yl]piperidin-1-yl}(3-methylpyridin-2-yl)methanone

> <Smile>
Cc1cccnc1C(N(CCC1)CC1(c1nc(-c2ccncc2)no1)F)=O

> <Color>
YELLOW

> <Collection>
IC

> <InChI>
InChI=1S/C19H18FN5O2/c1-13-4-2-8-22-15(13)17(26)25-11-3-7-19(20,12-25)18-23-16(24-27-18)14-5-9-21-10-6-14/h2,4-6,8-10H,3,7,11-12H2,1H3/t19-/m0/s1

> <InChI Key>
QJGRXWFAXUUZOM-IBGZPJMESA-N

> <PERCENTSP3>
31.58

> <Link>
https://www.chemdiv.com/catalog/screening-compounds/compound-SA92-0207/

> <MFCDNUMBER>
MFCD32241698

> <CLNUMBER>
CM4899

> <STEREO>
RACEMIC MIXTURE

> <State>
Liquid

> <Similarity score>
0.18

$$$$
N-(3-cyano-6-ethyl-4,5,6,7-tetrahydro-1-benzothiophen-2-yl)-2-(4-ethylphenoxy)pr
  -OEChem-04222410502D

 27 29  0     0  0  0  0  0  0999 V2000
    1.6520   -0.3562    0.0000 C   0  0  0  0  0  0  0  0  0  0  0  0
    2.2896    0.4561    0.0000 C   0  0  0  0  0  0  0  0  0  0  0  0
    3.2229    0.1188    0.0000 C   0  0  0  0  0  0  0  0  0  0  0  0
    3.2229   -0.8813    0.0000 C   0  0  0  0  0  0  0  0  0  0  0  0
    2.2270   -1.1647    0.0000 S   0  0  0  0  0  0  0  0  0  0  0  0
    0.6813   -0.3313    0.0000 N   0  0  0  0  0  0  0  0  0  0  0  0
    0.1564   -1.2020    0.0000 C   0  0  0  0  0  0  0  0  0  0  0  0
    2.0519    1.4020    0.0000 C   0  0  0  0  0  0  0  0  0  0  0  0
    1.8146    2.3520    0.0000 N   0  0  0  0  0  0  0  0  0  0  0  0
    4.0853    0.6187    0.0000 C   0  0  0  0  0  0  0  0  0  0  0  0
    4.0853   -1.3895    0.0000 C   0  0  0  0  0  0  0  0  0  0  0  0
   -0.8437   -1.2020    0.0000 C   0  0  3  0  0  0  0  0  0  0  0  0
   -1.3396   -0.3313    0.0000 O   0  0  0  0  0  0  0  0  0  0  0  0
    0.6813   -2.0771    0.0000 O   0  0  0  0  0  0  0  0  0  0  0  0
   -2.3395   -0.3313    0.0000 C   0  0  0  0  0  0  0  0  0  0  0  0
    4.9560    0.1188    0.0000 C   0  0  0  0  0  0  0  0  0  0  0  0
    4.9560   -0.8938    0.0000 C   0  0  3  0  0  0  0  0  0  0  0  0
   -4.3353   -0.3313    0.0000 C   0  0  0  0  0  0  0  0  0  0  0  0
   -2.8354    0.5438    0.0000 C   0  0  0  0  0  0  0  0  0  0  0  0
   -2.8354   -1.2020    0.0000 C   0  0  0  0  0  0  0  0  0  0  0  0
   -3.8353   -1.2020    0.0000 C   0  0  0  0  0  0  0  0  0  0  0  0
   -3.8353    0.5438    0.0000 C   0  0  0  0  0  0  0  0  0  0  0  0
   -1.3396   -2.0771    0.0000 C   0  0  0  0  0  0  0  0  0  0  0  0
   -5.3310   -0.3562    0.0000 C   0  0  0  0  0  0  0  0  0  0  0  0
    5.8061   -1.3769    0.0000 C   0  0  0  0  0  0  0  0  0  0  0  0
   -5.8061   -1.2271    0.0000 C   0  0  0  0  0  0  0  0  0  0  0  0
    5.8061   -2.3520    0.0000 C   0  0  0  0  0  0  0  0  0  0  0  0
  1  2  2  0  0  0  0
  2  3  1  0  0  0  0
  3  4  2  0  0  0  0
  4  5  1  0  0  0  0
  1  5  1  0  0  0  0
  1  6  1  0  0  0  0
  6  7  1  0  0  0  0
  2  8  1  0  0  0  0
  8  9  3  0  0  0  0
  3 10  1  0  0  0  0
  4 11  1  0  0  0  0
  7 12  1  0  0  0  0
 12 13  1  0  0  0  0
  7 14  2  0  0  0  0
 13 15  1  0  0  0  0
 10 16  1  0  0  0  0
 11 17  1  0  0  0  0
 16 17  1  0  0  0  0
 18 21  1  0  0  0  0
 18 22  2  0  0  0  0
 15 19  2  0  0  0  0
 15 20  1  0  0  0  0
 20 21  2  0  0  0  0
 19 22  1  0  0  0  0
 12 23  1  0  0  0  0
 18 24  1  0  0  0  0
 17 25  1  0  0  0  0
 24 26  1  0  0  0  0
 25 27  1  0  0  0  0
M  END
> <IDNUMBER>
Y203-0140

> <available>
18

> <H_acceptor>
4

> <H_donor>
1

> <B_rotN>
8

> <N_O>
4

> <logP>
5.9135

> <logD>
4.4955

> <logSw>
-5.544

> <PSA>
46.89

> <pKa_ma>
5.9989

> <pKa_mb>
-4.9316

> <N_Chirals>
2

> <Name>
N-(3-cyano-6-ethyl-4,5,6,7-tetrahydro-1-benzothiophen-2-yl)-2-(4-ethylphenoxy)propanamide

> <Smile>
CCC(CC1)Cc2c1c(C#N)c(NC(C(C)Oc1ccc(CC)cc1)=O)s2

> <Color>
BROWN

> <Collection>
DC

> <InChI>
InChI=1S/C22H26N2O2S/c1-4-15-6-9-17(10-7-15)26-14(3)21(25)24-22-19(13-23)18-11-8-16(5-2)12-20(18)27-22/h6-7,9-10,14,16H,4-5,8,11-12H2,1-3H3,(H,24,25)

> <InChI Key>
VWFSGWNXFPMVBL-UHFFFAOYSA-N

> <PERCENTSP3>
45.46

> <Link>
https://www.chemdiv.com/catalog/screening-compounds/compound-Y203-0140/

> <MFCDNUMBER>
MFCD03944527

> <STEREO>
MIXTURE OF STEREOISOMERS

> <State>
Solid

> <Similarity score>
0.18

$$$$
N-{2-[3-(pyridin-2-yl)-1,2,4-oxadiazol-5-yl]ethyl}-2-(1H-tetrazol-1-yl)-5,6-dihy
  -OEChem-04222410502D

 29 33  0     0  0  0  0  0  0999 V2000
   -3.3559   -0.5812    0.0000 C   0  0  0  0  0  0  0  0  0  0  0  0
   -2.4351   -0.9687    0.0000 C   0  0  0  0  0  0  0  0  0  0  0  0
   -3.6851    0.3605    0.0000 N   0  0  0  0  0  0  0  0  0  0  0  0
   -4.0059   -1.3477    0.0000 S   0  0  0  0  0  0  0  0  0  0  0  0
    2.9475    0.7936    0.0000 C   0  0  0  0  0  0  0  0  0  0  0  0
    1.9684    0.5812    0.0000 N   0  0  0  0  0  0  0  0  0  0  0  0
   -2.5226   -1.9684    0.0000 C   0  0  0  0  0  0  0  0  0  0  0  0
   -4.6682    0.6104    0.0000 N   0  0  0  0  0  0  0  0  0  0  0  0
   -3.4892   -2.1976    0.0000 C   0  0  0  0  0  0  0  0  0  0  0  0
   -4.7350    1.6103    0.0000 N   0  0  0  0  0  0  0  0  0  0  0  0
    3.4599   -0.0645    0.0000 N   0  0  0  0  0  0  0  0  0  0  0  0
   -3.7976    1.9727    0.0000 N   0  0  0  0  0  0  0  0  0  0  0  0
   -1.5853   -0.4562    0.0000 C   0  0  0  0  0  0  0  0  0  0  0  0
   -3.1559    1.2062    0.0000 C   0  0  0  0  0  0  0  0  0  0  0  0
    1.8768   -0.4145    0.0000 C   0  0  0  0  0  0  0  0  0  0  0  0
    2.7976   -0.8186    0.0000 O   0  0  0  0  0  0  0  0  0  0  0  0
    3.3393    1.7185    0.0000 C   0  0  0  0  0  0  0  0  0  0  0  0
    4.3390    1.8352    0.0000 N   0  0  0  0  0  0  0  0  0  0  0  0
    1.0145   -0.9312    0.0000 C   0  0  0  0  0  0  0  0  0  0  0  0
   -1.5978    0.5396    0.0000 O   0  0  0  0  0  0  0  0  0  0  0  0
   -0.7061   -0.9437    0.0000 N   0  0  0  0  0  0  0  0  0  0  0  0
    0.1480   -0.4312    0.0000 C   0  0  0  0  0  0  0  0  0  0  0  0
   -2.0060   -2.8144    0.0000 C   0  0  0  0  0  0  0  0  0  0  0  0
   -3.5643   -3.1809    0.0000 C   0  0  0  0  0  0  0  0  0  0  0  0
   -2.6477   -3.5600    0.0000 C   0  0  0  0  0  0  0  0  0  0  0  0
    4.7350    2.7602    0.0000 C   0  0  0  0  0  0  0  0  0  0  0  0
    2.7393    2.5308    0.0000 C   0  0  0  0  0  0  0  0  0  0  0  0
    4.1391    3.5600    0.0000 C   0  0  0  0  0  0  0  0  0  0  0  0
    3.1476    3.4518    0.0000 C   0  0  0  0  0  0  0  0  0  0  0  0
  1  2  2  0  0  0  0
  1  3  1  0  0  0  0
  1  4  1  0  0  0  0
  5  6  1  0  0  0  0
  5 11  2  0  0  0  0
  6 15  2  0  0  0  0
  2  7  1  0  0  0  0
  3  8  1  0  0  0  0
  4  9  1  0  0  0  0
  7  9  2  0  0  0  0
  8 10  2  0  0  0  0
 11 16  1  0  0  0  0
 12 14  2  0  0  0  0
 10 12  1  0  0  0  0
  2 13  1  0  0  0  0
  3 14  1  0  0  0  0
 15 19  1  0  0  0  0
 15 16  1  0  0  0  0
  5 17  1  0  0  0  0
 17 18  2  0  0  0  0
 19 22  1  0  0  0  0
 13 20  2  0  0  0  0
 13 21  1  0  0  0  0
 21 22  1  0  0  0  0
  7 23  1  0  0  0  0
 23 25  1  0  0  0  0
  9 24  1  0  0  0  0
 24 25  1  0  0  0  0
 18 26  1  0  0  0  0
 26 28  2  0  0  0  0
 17 27  1  0  0  0  0
 28 29  1  0  0  0  0
 27 29  2  0  0  0  0
M  END
> <IDNUMBER>
IB07-6369

> <available>
50

> <H_acceptor>
9

> <H_donor>
1

> <B_rotN>
7

> <N_O>
10

> <logP>
1.89

> <logD>
1.89

> <logSw>
-2.78

> <PSA>
175.14

> <pKa_ma>
14

> <pKa_mb>
2.23

> <N_Chirals>
0

> <Name>
N-{2-[3-(pyridin-2-yl)-1,2,4-oxadiazol-5-yl]ethyl}-2-(1H-tetrazol-1-yl)-5,6-dihydro-4H-cyclopenta[b]thiophene-3-carboxamide

> <Smile>
O=C(c1c(-n2nnnc2)sc2c1CCC2)NCCc1nc(-c2ncccc2)no1

> <Color>
NOT COLORED

> <Collection>
DC

> <InChI>
InChI=1S/C18H16N8O2S/c27-17(15-11-4-3-6-13(11)29-18(15)26-10-21-24-25-26)20-9-7-14-22-16(23-28-14)12-5-1-2-8-19-12/h1-2,5,8,10H,3-4,6-7,9H2,(H,20,27)

> <InChI Key>
LIFJJBWXMCZOLN-UHFFFAOYSA-N

> <PERCENTSP3>
27.8

> <Link>
https://www.chemdiv.com/catalog/screening-compounds/compound-IB07-6369/

> <STEREO>
ACHIRAL

> <State>
Solid

> <Similarity score>
0.18

$$$$
{3-fluoro-3-[3-(pyridin-4-yl)-1,2,4-oxadiazol-5-yl]piperidin-1-yl}(3-methoxyphen
  -OEChem-04222410502D

 28 31  0     0  0  0  0  0  0999 V2000
   -1.6384   -1.3735    0.0000 N   0  0  0  0  0  0  0  0  0  0  0  0
   -0.6515   -1.5241    0.0000 C   0  0  0  0  0  0  0  0  0  0  0  0
    0.0594   -0.8161    0.0000 C   0  0  3  0  0  0  0  0  0  0  0  0
   -2.0926   -2.2631    0.0000 C   0  0  0  0  0  0  0  0  0  0  0  0
    1.5570    0.0455    0.0000 N   0  0  0  0  0  0  0  0  0  0  0  0
   -1.3845   -2.9712    0.0000 N   0  0  0  0  0  0  0  0  0  0  0  0
    2.0518    0.9102    0.0000 C   0  0  0  0  0  0  0  0  0  0  0  0
   -0.4949   -2.5170    0.0000 O   0  0  0  0  0  0  0  0  0  0  0  0
    0.5514    0.0455    0.0000 C   0  0  0  0  0  0  0  0  0  0  0  0
    3.0514    0.9102    0.0000 C   0  0  0  0  0  0  0  0  0  0  0  0
    1.5570    1.7840    0.0000 O   0  0  0  0  0  0  0  0  0  0  0  0
   -3.0858   -2.4138    0.0000 C   0  0  0  0  0  0  0  0  0  0  0  0
    3.5586    1.7840    0.0000 C   0  0  0  0  0  0  0  0  0  0  0  0
   -0.3228    0.1020    0.0000 F   0  0  0  0  0  0  0  0  0  0  0  0
   -5.0530   -2.7271    0.0000 N   0  0  0  0  0  0  0  0  0  0  0  0
    0.5514   -1.6836    0.0000 C   0  0  0  0  0  0  0  0  0  0  0  0
    2.0518   -0.8161    0.0000 C   0  0  0  0  0  0  0  0  0  0  0  0
    4.5550    1.7840    0.0000 C   0  0  0  0  0  0  0  0  0  0  0  0
    3.5586    0.0455    0.0000 C   0  0  0  0  0  0  0  0  0  0  0  0
    5.0530    2.6393    0.0000 O   0  0  0  0  0  0  0  0  0  0  0  0
    1.5570   -1.6836    0.0000 C   0  0  0  0  0  0  0  0  0  0  0  0
    4.5550    0.0455    0.0000 C   0  0  0  0  0  0  0  0  0  0  0  0
   -4.4296   -3.5071    0.0000 C   0  0  0  0  0  0  0  0  0  0  0  0
   -4.7021   -1.7967    0.0000 C   0  0  0  0  0  0  0  0  0  0  0  0
   -3.4367   -3.3533    0.0000 C   0  0  0  0  0  0  0  0  0  0  0  0
   -3.7092   -1.6369    0.0000 C   0  0  0  0  0  0  0  0  0  0  0  0
    5.0530    0.9102    0.0000 C   0  0  0  0  0  0  0  0  0  0  0  0
    4.5550    3.5071    0.0000 C   0  0  0  0  0  0  0  0  0  0  0  0
  1  2  2  0  0  0  0
  2  3  1  0  0  0  0
  1  4  1  0  0  0  0
  5  9  1  0  0  0  0
  4  6  2  0  0  0  0
  6  8  1  0  0  0  0
  5  7  1  0  0  0  0
  2  8  1  0  0  0  0
  3  9  1  0  0  0  0
  7 10  1  0  0  0  0
  7 11  2  0  0  0  0
  4 12  1  0  0  0  0
 10 13  2  0  0  0  0
  3 14  1  0  0  0  0
 15 24  1  0  0  0  0
 15 23  2  0  0  0  0
  3 16  1  0  0  0  0
 17 21  1  0  0  0  0
  5 17  1  0  0  0  0
 13 18  1  0  0  0  0
 10 19  1  0  0  0  0
 18 20  1  0  0  0  0
 16 21  1  0  0  0  0
 19 22  2  0  0  0  0
 23 25  1  0  0  0  0
 24 26  2  0  0  0  0
 12 25  2  0  0  0  0
 12 26  1  0  0  0  0
 22 27  1  0  0  0  0
 18 27  2  0  0  0  0
 20 28  1  0  0  0  0
M  END
> <IDNUMBER>
SA92-0181

> <available>
115

> <H_acceptor>
7

> <H_donor>
0

> <B_rotN>
5

> <N_O>
7

> <logP>
2.6101

> <logD>
2.6101

> <logSw>
-2.6375

> <PSA>
65.198

> <pKa_ma>
27.08

> <pKa_mb>
3.6841

> <N_Chirals>
1

> <Name>
{3-fluoro-3-[3-(pyridin-4-yl)-1,2,4-oxadiazol-5-yl]piperidin-1-yl}(3-methoxyphenyl)methanone

> <Smile>
COc1cccc(C(N(CCC2)CC2(c2nc(-c3ccncc3)no2)F)=O)c1

> <Color>
YELLOW

> <Collection>
IC

> <InChI>
InChI=1S/C20H19FN4O3/c1-27-16-5-2-4-15(12-16)18(26)25-11-3-8-20(21,13-25)19-23-17(24-28-19)14-6-9-22-10-7-14/h2,4-7,9-10,12H,3,8,11,13H2,1H3/t20-/m0/s1

> <InChI Key>
JKEGNPSWTVFVAA-FQEVSTJZSA-N

> <PERCENTSP3>
30

> <Link>
https://www.chemdiv.com/catalog/screening-compounds/compound-SA92-0181/

> <MFCDNUMBER>
MFCD32241444

> <CLNUMBER>
CM4899

> <STEREO>
RACEMIC MIXTURE

> <State>
Liquid

> <Similarity score>
0.18

$$$$
N-(3-cyano-5,6-dihydro-4H-cyclopenta[b]thiophen-2-yl)-5-ethyl-1,2-oxazole-3-carb
  -OEChem-04222410502D

 20 22  0     0  0  0  0  0  0999 V2000
   -0.5791   -1.5764    0.0000 C   0  0  0  0  0  0  0  0  0  0  0  0
    0.0262   -2.3517    0.0000 C   0  0  0  0  0  0  0  0  0  0  0  0
    0.2527    1.4563    0.0000 C   0  0  0  0  0  0  0  0  0  0  0  0
   -1.5176   -1.9143    0.0000 S   0  0  0  0  0  0  0  0  0  0  0  0
   -0.5179   -3.1790    0.0000 C   0  0  0  0  0  0  0  0  0  0  0  0
   -0.5791   -0.5678    0.0000 N   0  0  0  0  0  0  0  0  0  0  0  0
   -0.4885    2.0162    0.0000 N   0  0  0  0  0  0  0  0  0  0  0  0
   -1.4722   -2.8956    0.0000 C   0  0  0  0  0  0  0  0  0  0  0  0
    0.2845   -0.0668    0.0000 C   0  0  0  0  0  0  0  0  0  0  0  0
    1.0257    2.0162    0.0000 C   0  0  0  0  0  0  0  0  0  0  0  0
    1.0348   -2.3155    0.0000 C   0  0  0  0  0  0  0  0  0  0  0  0
   -0.2005    2.8935    0.0000 O   0  0  0  0  0  0  0  0  0  0  0  0
    2.0321   -2.2746    0.0000 N   0  0  0  0  0  0  0  0  0  0  0  0
    0.7379    2.8935    0.0000 C   0  0  0  0  0  0  0  0  0  0  0  0
    1.0847   -0.5520    0.0000 O   0  0  0  0  0  0  0  0  0  0  0  0
   -0.4725   -4.1834    0.0000 C   0  0  0  0  0  0  0  0  0  0  0  0
   -2.0321   -3.7389    0.0000 C   0  0  0  0  0  0  0  0  0  0  0  0
   -1.4269   -4.5254    0.0000 C   0  0  0  0  0  0  0  0  0  0  0  0
    1.2820    3.6754    0.0000 C   0  0  0  0  0  0  0  0  0  0  0  0
    0.8987    4.5254    0.0000 C   0  0  0  0  0  0  0  0  0  0  0  0
  1  2  2  0  0  0  0
  3  9  1  0  0  0  0
  1  4  1  0  0  0  0
  2  5  1  0  0  0  0
  5  8  2  0  0  0  0
  1  6  1  0  0  0  0
  3  7  2  0  0  0  0
  4  8  1  0  0  0  0
  6  9  1  0  0  0  0
  3 10  1  0  0  0  0
  2 11  1  0  0  0  0
  7 12  1  0  0  0  0
 11 13  3  0  0  0  0
 10 14  2  0  0  0  0
 12 14  1  0  0  0  0
  9 15  2  0  0  0  0
  5 16  1  0  0  0  0
  8 17  1  0  0  0  0
 17 18  1  0  0  0  0
 16 18  1  0  0  0  0
 14 19  1  0  0  0  0
 19 20  1  0  0  0  0
M  END
> <IDNUMBER>
C226-2831

> <available>
51

> <H_acceptor>
5

> <H_donor>
1

> <B_rotN>
5

> <N_O>
5

> <logP>
3.1646

> <logD>
1.474

> <logSw>
-3.4207

> <PSA>
61.444

> <pKa_ma>
5.7183

> <pKa_mb>
-5.8698

> <N_Chirals>
0

> <Name>
N-(3-cyano-5,6-dihydro-4H-cyclopenta[b]thiophen-2-yl)-5-ethyl-1,2-oxazole-3-carboxamide

> <Smile>
CCc1cc(C(Nc(sc2c3CCC2)c3C#N)=O)no1

> <Color>
ORANGE

> <Collection>
DC

> <InChI>
InChI=1S/C14H13N3O2S/c1-2-8-6-11(17-19-8)13(18)16-14-10(7-15)9-4-3-5-12(9)20-14/h6H,2-5H2,1H3,(H,16,18)

> <InChI Key>
GRPIRXFMRXUVDE-UHFFFAOYSA-N

> <PERCENTSP3>
35.7

> <Link>
https://www.chemdiv.com/catalog/screening-compounds/compound-C226-2831/

> <MFCDNUMBER>
MFCD14733197

> <CLNUMBER>
CL2030

> <STEREO>
ACHIRAL

> <State>
Solid

> <Similarity score>
0.18

$$$$
2-{[3-fluoro-3-(3-phenyl-1,2,4-oxadiazol-5-yl)piperidin-1-yl]methyl}pyridine
  -OEChem-04222410502D

 25 28  0     0  0  0  0  0  0999 V2000
    0.1411   -1.3648    0.0000 N   0  0  0  0  0  0  0  0  0  0  0  0
   -0.8464   -1.5249    0.0000 C   0  0  0  0  0  0  0  0  0  0  0  0
    0.5862   -2.2644    0.0000 C   0  0  0  0  0  0  0  0  0  0  0  0
   -1.5576   -0.8196    0.0000 C   0  0  3  0  0  0  0  0  0  0  0  0
   -0.1128   -2.9635    0.0000 N   0  0  0  0  0  0  0  0  0  0  0  0
   -1.0030   -2.5121    0.0000 O   0  0  0  0  0  0  0  0  0  0  0  0
   -3.0622    0.0485    0.0000 N   0  0  0  0  0  0  0  0  0  0  0  0
   -2.0560    0.0485    0.0000 C   0  0  0  0  0  0  0  0  0  0  0  0
    1.5795   -2.4181    0.0000 C   0  0  0  0  0  0  0  0  0  0  0  0
   -2.0560    1.7755    0.0000 N   0  0  0  0  0  0  0  0  0  0  0  0
   -1.1722    0.1050    0.0000 F   0  0  0  0  0  0  0  0  0  0  0  0
   -3.5542    0.9136    0.0000 C   0  0  0  0  0  0  0  0  0  0  0  0
   -3.0622    1.7755    0.0000 C   0  0  0  0  0  0  0  0  0  0  0  0
   -2.0560   -1.6846    0.0000 C   0  0  0  0  0  0  0  0  0  0  0  0
   -3.5542   -0.8196    0.0000 C   0  0  0  0  0  0  0  0  0  0  0  0
   -3.0622   -1.6846    0.0000 C   0  0  0  0  0  0  0  0  0  0  0  0
   -1.5576    2.6438    0.0000 C   0  0  0  0  0  0  0  0  0  0  0  0
    1.9402   -3.3489    0.0000 C   0  0  0  0  0  0  0  0  0  0  0  0
    2.2095   -1.6377    0.0000 C   0  0  0  0  0  0  0  0  0  0  0  0
   -3.5542    2.6438    0.0000 C   0  0  0  0  0  0  0  0  0  0  0  0
   -2.0560    3.5087    0.0000 C   0  0  0  0  0  0  0  0  0  0  0  0
    3.2002   -1.7942    0.0000 C   0  0  0  0  0  0  0  0  0  0  0  0
    2.9274   -3.5087    0.0000 C   0  0  0  0  0  0  0  0  0  0  0  0
   -3.0622    3.5087    0.0000 C   0  0  0  0  0  0  0  0  0  0  0  0
    3.5542   -2.7284    0.0000 C   0  0  0  0  0  0  0  0  0  0  0  0
  1  2  2  0  0  0  0
  1  3  1  0  0  0  0
  2  4  1  0  0  0  0
  3  5  2  0  0  0  0
  5  6  1  0  0  0  0
  2  6  1  0  0  0  0
  7  8  1  0  0  0  0
  4  8  1  0  0  0  0
  3  9  1  0  0  0  0
 10 13  2  0  0  0  0
  4 11  1  0  0  0  0
  7 12  1  0  0  0  0
 12 13  1  0  0  0  0
  4 14  1  0  0  0  0
 15 16  1  0  0  0  0
  7 15  1  0  0  0  0
 14 16  1  0  0  0  0
 10 17  1  0  0  0  0
  9 18  2  0  0  0  0
  9 19  1  0  0  0  0
 13 20  1  0  0  0  0
 21 24  1  0  0  0  0
 17 21  2  0  0  0  0
 19 22  2  0  0  0  0
 18 23  1  0  0  0  0
 20 24  2  0  0  0  0
 22 25  1  0  0  0  0
 23 25  2  0  0  0  0
M  END
> <IDNUMBER>
SA92-0103

> <available>
1

> <H_acceptor>
5

> <H_donor>
0

> <B_rotN>
4

> <N_O>
5

> <logP>
3.1673

> <logD>
3.1532

> <logSw>
-3.0843

> <PSA>
44.853

> <pKa_ma>
26.9519

> <pKa_mb>
5.9159

> <N_Chirals>
1

> <Name>
2-{[3-fluoro-3-(3-phenyl-1,2,4-oxadiazol-5-yl)piperidin-1-yl]methyl}pyridine

> <Smile>
FC1(CN(Cc2ncccc2)CCC1)c1nc(-c2ccccc2)no1

> <Color>
BROWN

> <Collection>
IC

> <InChI>
InChI=1S/C19H19FN4O/c20-19(18-22-17(23-25-18)15-7-2-1-3-8-15)10-6-12-24(14-19)13-16-9-4-5-11-21-16/h1-5,7-9,11H,6,10,12-14H2/t19-/m0/s1

> <InChI Key>
SKMILJSMGAZEHX-IBGZPJMESA-N

> <PERCENTSP3>
31.5789

> <Link>
https://www.chemdiv.com/catalog/screening-compounds/compound-SA92-0103/

> <MFCDNUMBER>
MFCD32242455

> <CLNUMBER>
CM4899

> <STEREO>
RACEMIC MIXTURE

> <State>
Oil

> <Similarity score>
0.18

$$$$
{3-fluoro-3-[3-(pyridin-4-yl)-1,2,4-oxadiazol-5-yl]piperidin-1-yl}(1,3-thiazol-4
  -OEChem-04222410502D

 25 28  0     0  0  0  0  0  0999 V2000
   -1.4088   -0.5091    0.0000 N   0  0  0  0  0  0  0  0  0  0  0  0
   -0.4246   -0.6659    0.0000 C   0  0  0  0  0  0  0  0  0  0  0  0
    0.2898    0.0487    0.0000 C   0  0  3  0  0  0  0  0  0  0  0  0
   -1.8632   -1.3993    0.0000 C   0  0  0  0  0  0  0  0  0  0  0  0
    3.2921    1.7753    0.0000 C   0  0  0  0  0  0  0  0  0  0  0  0
    1.7848    0.9105    0.0000 N   0  0  0  0  0  0  0  0  0  0  0  0
   -1.1579   -2.1042    0.0000 N   0  0  0  0  0  0  0  0  0  0  0  0
    2.2862    1.7753    0.0000 C   0  0  0  0  0  0  0  0  0  0  0  0
   -0.2617   -1.6468    0.0000 O   0  0  0  0  0  0  0  0  0  0  0  0
    3.8717    2.5870    0.0000 N   0  0  0  0  0  0  0  0  0  0  0  0
    0.7819    0.9105    0.0000 C   0  0  0  0  0  0  0  0  0  0  0  0
    4.8245    1.2771    0.0000 S   0  0  0  0  0  0  0  0  0  0  0  0
    4.8245    2.2767    0.0000 C   0  0  0  0  0  0  0  0  0  0  0  0
    3.8717    0.9669    0.0000 C   0  0  0  0  0  0  0  0  0  0  0  0
    1.7848    2.6434    0.0000 O   0  0  0  0  0  0  0  0  0  0  0  0
   -2.8471   -1.5527    0.0000 C   0  0  0  0  0  0  0  0  0  0  0  0
   -0.0956    0.9669    0.0000 F   0  0  0  0  0  0  0  0  0  0  0  0
   -4.8245   -1.8630    0.0000 N   0  0  0  0  0  0  0  0  0  0  0  0
    0.7819   -0.8194    0.0000 C   0  0  0  0  0  0  0  0  0  0  0  0
    2.2862    0.0487    0.0000 C   0  0  0  0  0  0  0  0  0  0  0  0
    1.7848   -0.8194    0.0000 C   0  0  0  0  0  0  0  0  0  0  0  0
   -4.4735   -0.9322    0.0000 C   0  0  0  0  0  0  0  0  0  0  0  0
   -4.2009   -2.6434    0.0000 C   0  0  0  0  0  0  0  0  0  0  0  0
   -3.4863   -0.7820    0.0000 C   0  0  0  0  0  0  0  0  0  0  0  0
   -3.2044   -2.4899    0.0000 C   0  0  0  0  0  0  0  0  0  0  0  0
  1  2  2  0  0  0  0
  2  3  1  0  0  0  0
  1  4  1  0  0  0  0
  5  8  1  0  0  0  0
  6 11  1  0  0  0  0
  4  7  2  0  0  0  0
  7  9  1  0  0  0  0
  6  8  1  0  0  0  0
  2  9  1  0  0  0  0
  5 10  1  0  0  0  0
  3 11  1  0  0  0  0
 12 14  1  0  0  0  0
 10 13  2  0  0  0  0
 12 13  1  0  0  0  0
  5 14  2  0  0  0  0
  8 15  2  0  0  0  0
  4 16  1  0  0  0  0
  3 17  1  0  0  0  0
 18 23  2  0  0  0  0
 18 22  1  0  0  0  0
  3 19  1  0  0  0  0
 20 21  1  0  0  0  0
  6 20  1  0  0  0  0
 19 21  1  0  0  0  0
 22 24  2  0  0  0  0
 23 25  1  0  0  0  0
 16 24  1  0  0  0  0
 16 25  2  0  0  0  0
M  END
> <IDNUMBER>
SA92-0285

> <available>
101

> <H_acceptor>
7

> <H_donor>
0

> <B_rotN>
4

> <N_O>
7

> <logP>
1.9856

> <logD>
1.9855

> <logSw>
-2.1598

> <PSA>
67.282

> <pKa_ma>
27.1581

> <pKa_mb>
3.6841

> <N_Chirals>
1

> <Name>
{3-fluoro-3-[3-(pyridin-4-yl)-1,2,4-oxadiazol-5-yl]piperidin-1-yl}(1,3-thiazol-4-yl)methanone

> <Smile>
O=C(c1cscn1)N(CCC1)CC1(c1nc(-c2ccncc2)no1)F

> <Color>
ORANGE

> <Collection>
IC

> <InChI>
InChI=1S/C16H14FN5O2S/c17-16(15-20-13(21-24-15)11-2-5-18-6-3-11)4-1-7-22(9-16)14(23)12-8-25-10-19-12/h2-3,5-6,8,10H,1,4,7,9H2/t16-/m0/s1

> <InChI Key>
LCRDUISHRQFTPC-INIZCTEOSA-N

> <PERCENTSP3>
31.25

> <Link>
https://www.chemdiv.com/catalog/screening-compounds/compound-SA92-0285/

> <MFCDNUMBER>
MFCD32242586

> <CLNUMBER>
CM4899

> <STEREO>
RACEMIC MIXTURE

> <State>
Solid

> <Similarity score>
0.18

$$$$
{3-fluoro-3-[3-(pyridin-4-yl)-1,2,4-oxadiazol-5-yl]piperidin-1-yl}(oxan-4-yl)met
  -OEChem-04222410502D

 26 29  0     0  0  0  0  0  0999 V2000
   -0.6410    1.3790    0.0000 N   0  0  0  0  0  0  0  0  0  0  0  0
    0.3494    1.5295    0.0000 C   0  0  0  0  0  0  0  0  0  0  0  0
    1.0545    0.8244    0.0000 C   0  0  3  0  0  0  0  0  0  0  0  0
   -1.0984    2.2661    0.0000 C   0  0  0  0  0  0  0  0  0  0  0  0
    2.5558   -0.0407    0.0000 N   0  0  0  0  0  0  0  0  0  0  0  0
   -0.3932    2.9773    0.0000 N   0  0  0  0  0  0  0  0  0  0  0  0
    0.4999    2.5199    0.0000 O   0  0  0  0  0  0  0  0  0  0  0  0
    3.0572   -0.9120    0.0000 C   0  0  0  0  0  0  0  0  0  0  0  0
    1.5593   -0.0407    0.0000 C   0  0  0  0  0  0  0  0  0  0  0  0
    4.0540   -0.9120    0.0000 O   0  0  0  0  0  0  0  0  0  0  0  0
   -2.0764    2.4226    0.0000 C   0  0  0  0  0  0  0  0  0  0  0  0
    0.6692   -0.0972    0.0000 F   0  0  0  0  0  0  0  0  0  0  0  0
   -4.0540    2.7330    0.0000 N   0  0  0  0  0  0  0  0  0  0  0  0
    2.5558   -1.7707    0.0000 C   0  0  0  0  0  0  0  0  0  0  0  0
    1.5593   -3.5071    0.0000 O   0  0  0  0  0  0  0  0  0  0  0  0
    1.5593    1.6924    0.0000 C   0  0  0  0  0  0  0  0  0  0  0  0
    3.0572    0.8244    0.0000 C   0  0  0  0  0  0  0  0  0  0  0  0
    2.5558    1.6924    0.0000 C   0  0  0  0  0  0  0  0  0  0  0  0
   -3.4241    3.5071    0.0000 C   0  0  0  0  0  0  0  0  0  0  0  0
   -3.7031    1.7958    0.0000 C   0  0  0  0  0  0  0  0  0  0  0  0
    1.0545   -2.6357    0.0000 C   0  0  0  0  0  0  0  0  0  0  0  0
    2.5558   -3.5071    0.0000 C   0  0  0  0  0  0  0  0  0  0  0  0
   -2.4430    3.3536    0.0000 C   0  0  0  0  0  0  0  0  0  0  0  0
   -2.7093    1.6423    0.0000 C   0  0  0  0  0  0  0  0  0  0  0  0
    1.5593   -1.7707    0.0000 C   0  0  0  0  0  0  0  0  0  0  0  0
    3.0572   -2.6357    0.0000 C   0  0  0  0  0  0  0  0  0  0  0  0
  1  2  2  0  0  0  0
  2  3  1  0  0  0  0
  1  4  1  0  0  0  0
  5  9  1  0  0  0  0
  4  6  2  0  0  0  0
  6  7  1  0  0  0  0
  2  7  1  0  0  0  0
  5  8  1  0  0  0  0
  3  9  1  0  0  0  0
  8 10  2  0  0  0  0
  4 11  1  0  0  0  0
  3 12  1  0  0  0  0
 13 20  1  0  0  0  0
 13 19  2  0  0  0  0
  8 14  1  0  0  0  0
 15 22  1  0  0  0  0
  3 16  1  0  0  0  0
 17 18  1  0  0  0  0
  5 17  1  0  0  0  0
 16 18  1  0  0  0  0
 19 23  1  0  0  0  0
 20 24  2  0  0  0  0
 21 25  1  0  0  0  0
 15 21  1  0  0  0  0
 22 26  1  0  0  0  0
 11 23  2  0  0  0  0
 11 24  1  0  0  0  0
 14 25  1  0  0  0  0
 14 26  1  0  0  0  0
M  END
> <IDNUMBER>
SA92-0273

> <available>
47

> <H_acceptor>
7

> <H_donor>
0

> <B_rotN>
4

> <N_O>
7

> <logP>
1.9226

> <logD>
1.9225

> <logSw>
-1.9448

> <PSA>
65.755

> <pKa_ma>
23.3669

> <pKa_mb>
3.6841

> <N_Chirals>
1

> <Name>
{3-fluoro-3-[3-(pyridin-4-yl)-1,2,4-oxadiazol-5-yl]piperidin-1-yl}(oxan-4-yl)methanone

> <Smile>
O=C(C1CCOCC1)N(CCC1)CC1(c1nc(-c2ccncc2)no1)F

> <Color>
YELLOW

> <Collection>
IC

> <InChI>
InChI=1S/C18H21FN4O3/c19-18(17-21-15(22-26-17)13-2-7-20-8-3-13)6-1-9-23(12-18)16(24)14-4-10-25-11-5-14/h2-3,7-8,14H,1,4-6,9-12H2/t18-/m0/s1

> <InChI Key>
DWNNWQPYIKDWDC-SFHVURJKSA-N

> <PERCENTSP3>
55.56

> <Link>
https://www.chemdiv.com/catalog/screening-compounds/compound-SA92-0273/

> <MFCDNUMBER>
MFCD32242456

> <CLNUMBER>
CM4899

> <STEREO>
RACEMIC MIXTURE

> <State>
Solid

> <Similarity score>
0.18

$$$$
1-[3-fluoro-3-(3-phenyl-1,2,4-oxadiazol-5-yl)piperidin-1-yl]-3-(3-methoxyphenyl)
  -OEChem-04222410502D

 30 33  0     0  0  0  0  0  0999 V2000
    0.6375   -2.2386    0.0000 N   0  0  0  0  0  0  0  0  0  0  0  0
   -0.3492   -2.3984    0.0000 C   0  0  0  0  0  0  0  0  0  0  0  0
   -1.0575   -1.6904    0.0000 C   0  0  3  0  0  0  0  0  0  0  0  0
    1.0887   -3.1316    0.0000 C   0  0  0  0  0  0  0  0  0  0  0  0
    0.3839   -3.8333    0.0000 N   0  0  0  0  0  0  0  0  0  0  0  0
   -2.5613   -0.8255    0.0000 N   0  0  0  0  0  0  0  0  0  0  0  0
   -0.5091   -3.3759    0.0000 O   0  0  0  0  0  0  0  0  0  0  0  0
   -1.5557   -0.8255    0.0000 C   0  0  0  0  0  0  0  0  0  0  0  0
   -3.0595    0.0454    0.0000 C   0  0  0  0  0  0  0  0  0  0  0  0
    2.0757   -3.2819    0.0000 C   0  0  0  0  0  0  0  0  0  0  0  0
   -4.0558    0.0454    0.0000 O   0  0  0  0  0  0  0  0  0  0  0  0
   -2.5613    0.9102    0.0000 C   0  0  0  0  0  0  0  0  0  0  0  0
   -0.6720   -0.7629    0.0000 F   0  0  0  0  0  0  0  0  0  0  0  0
   -1.5557   -2.5583    0.0000 C   0  0  0  0  0  0  0  0  0  0  0  0
   -3.0595   -1.6904    0.0000 C   0  0  0  0  0  0  0  0  0  0  0  0
   -1.5557    2.6397    0.0000 C   0  0  0  0  0  0  0  0  0  0  0  0
   -3.0595    1.7748    0.0000 C   0  0  0  0  0  0  0  0  0  0  0  0
   -2.5613    2.6397    0.0000 C   0  0  0  0  0  0  0  0  0  0  0  0
   -1.0575    3.5076    0.0000 C   0  0  0  0  0  0  0  0  0  0  0  0
   -0.0579    3.5076    0.0000 O   0  0  0  0  0  0  0  0  0  0  0  0
   -2.5613   -2.5583    0.0000 C   0  0  0  0  0  0  0  0  0  0  0  0
   -2.5613    4.3722    0.0000 C   0  0  0  0  0  0  0  0  0  0  0  0
    2.7053   -2.5113    0.0000 C   0  0  0  0  0  0  0  0  0  0  0  0
    2.4329   -4.2186    0.0000 C   0  0  0  0  0  0  0  0  0  0  0  0
   -3.0595    3.5076    0.0000 C   0  0  0  0  0  0  0  0  0  0  0  0
   -1.5557    4.3722    0.0000 C   0  0  0  0  0  0  0  0  0  0  0  0
    0.4402    2.6397    0.0000 C   0  0  0  0  0  0  0  0  0  0  0  0
    3.6923   -2.6709    0.0000 C   0  0  0  0  0  0  0  0  0  0  0  0
    3.4259   -4.3722    0.0000 C   0  0  0  0  0  0  0  0  0  0  0  0
    4.0558   -3.5983    0.0000 C   0  0  0  0  0  0  0  0  0  0  0  0
  1  2  2  0  0  0  0
  2  3  1  0  0  0  0
  1  4  1  0  0  0  0
  4  5  2  0  0  0  0
  5  7  1  0  0  0  0
  6  8  1  0  0  0  0
  2  7  1  0  0  0  0
  3  8  1  0  0  0  0
  6  9  1  0  0  0  0
  4 10  1  0  0  0  0
  9 11  2  0  0  0  0
  9 12  1  0  0  0  0
  3 13  1  0  0  0  0
  3 14  1  0  0  0  0
 15 21  1  0  0  0  0
  6 15  1  0  0  0  0
 16 18  2  0  0  0  0
 12 17  1  0  0  0  0
 17 18  1  0  0  0  0
 16 19  1  0  0  0  0
 19 20  1  0  0  0  0
 14 21  1  0  0  0  0
 22 25  2  0  0  0  0
 10 23  1  0  0  0  0
 10 24  2  0  0  0  0
 18 25  1  0  0  0  0
 22 26  1  0  0  0  0
 19 26  2  0  0  0  0
 20 27  1  0  0  0  0
 23 28  2  0  0  0  0
 24 29  1  0  0  0  0
 29 30  2  0  0  0  0
 28 30  1  0  0  0  0
M  END
> <IDNUMBER>
SA92-0099

> <available>
187

> <H_acceptor>
6

> <H_donor>
0

> <B_rotN>
7

> <N_O>
6

> <logP>
4.4518

> <logD>
4.4518

> <logSw>
-4.469

> <PSA>
55.242

> <pKa_ma>
22.9745

> <pKa_mb>
-2.0325

> <N_Chirals>
1

> <Name>
1-[3-fluoro-3-(3-phenyl-1,2,4-oxadiazol-5-yl)piperidin-1-yl]-3-(3-methoxyphenyl)propan-1-one

> <Smile>
COc1cccc(CCC(N(CCC2)CC2(c2nc(-c3ccccc3)no2)F)=O)c1

> <Color>
YELLOW

> <Collection>
IC

> <InChI>
InChI=1S/C23H24FN3O3/c1-29-19-10-5-7-17(15-19)11-12-20(28)27-14-6-13-23(24,16-27)22-25-21(26-30-22)18-8-3-2-4-9-18/h2-5,7-10,15H,6,11-14,16H2,1H3/t23-/m0/s1

> <InChI Key>
SYQPGYGIFJXQTE-QHCPKHFHSA-N

> <PERCENTSP3>
34.78

> <Link>
https://www.chemdiv.com/catalog/screening-compounds/compound-SA92-0099/

> <MFCDNUMBER>
MFCD32242452

> <CLNUMBER>
CM4899

> <STEREO>
RACEMIC MIXTURE

> <State>
Oil

> <Similarity score>
0.18

$$$$
{3-fluoro-3-[3-(pyridin-4-yl)-1,2,4-oxadiazol-5-yl]piperidin-1-yl}(4-methyl-1,3-
  -OEChem-04222410502D

 26 29  0     0  0  0  0  0  0999 V2000
   -1.4092   -0.9545    0.0000 N   0  0  0  0  0  0  0  0  0  0  0  0
    3.2933    1.3370    0.0000 C   0  0  0  0  0  0  0  0  0  0  0  0
   -0.4247   -1.1081    0.0000 C   0  0  0  0  0  0  0  0  0  0  0  0
    2.2870    1.3370    0.0000 C   0  0  0  0  0  0  0  0  0  0  0  0
    0.2899   -0.3935    0.0000 C   0  0  3  0  0  0  0  0  0  0  0  0
   -1.8638   -1.8416    0.0000 C   0  0  0  0  0  0  0  0  0  0  0  0
    1.7884    0.4656    0.0000 N   0  0  0  0  0  0  0  0  0  0  0  0
   -1.1583   -2.5472    0.0000 N   0  0  0  0  0  0  0  0  0  0  0  0
   -0.2618   -2.0956    0.0000 O   0  0  0  0  0  0  0  0  0  0  0  0
    3.8730    2.1460    0.0000 C   0  0  0  0  0  0  0  0  0  0  0  0
    0.7821    0.4656    0.0000 C   0  0  0  0  0  0  0  0  0  0  0  0
    4.8262    1.8356    0.0000 N   0  0  0  0  0  0  0  0  0  0  0  0
    3.8730    0.5220    0.0000 O   0  0  0  0  0  0  0  0  0  0  0  0
    4.8262    0.8324    0.0000 C   0  0  0  0  0  0  0  0  0  0  0  0
    1.7884    2.2024    0.0000 O   0  0  0  0  0  0  0  0  0  0  0  0
   -2.8480   -1.9985    0.0000 C   0  0  0  0  0  0  0  0  0  0  0  0
   -0.0956    0.5220    0.0000 F   0  0  0  0  0  0  0  0  0  0  0  0
   -4.8262   -2.3089    0.0000 N   0  0  0  0  0  0  0  0  0  0  0  0
    0.7821   -1.2649    0.0000 C   0  0  0  0  0  0  0  0  0  0  0  0
    2.2870   -0.3935    0.0000 C   0  0  0  0  0  0  0  0  0  0  0  0
    3.5659    3.0895    0.0000 C   0  0  0  0  0  0  0  0  0  0  0  0
    1.7884   -1.2649    0.0000 C   0  0  0  0  0  0  0  0  0  0  0  0
   -4.2024   -3.0895    0.0000 C   0  0  0  0  0  0  0  0  0  0  0  0
   -4.4687   -1.3807    0.0000 C   0  0  0  0  0  0  0  0  0  0  0  0
   -3.2055   -2.9327    0.0000 C   0  0  0  0  0  0  0  0  0  0  0  0
   -3.4875   -1.2272    0.0000 C   0  0  0  0  0  0  0  0  0  0  0  0
  2  4  1  0  0  0  0
  1  3  2  0  0  0  0
  4  7  1  0  0  0  0
  3  5  1  0  0  0  0
  1  6  1  0  0  0  0
  7 11  1  0  0  0  0
  6  8  2  0  0  0  0
  8  9  1  0  0  0  0
  3  9  1  0  0  0  0
  2 10  2  0  0  0  0
  5 11  1  0  0  0  0
 10 12  1  0  0  0  0
  2 13  1  0  0  0  0
 13 14  1  0  0  0  0
 12 14  2  0  0  0  0
  4 15  2  0  0  0  0
  6 16  1  0  0  0  0
  5 17  1  0  0  0  0
 18 24  1  0  0  0  0
 18 23  2  0  0  0  0
  5 19  1  0  0  0  0
 20 22  1  0  0  0  0
  7 20  1  0  0  0  0
 10 21  1  0  0  0  0
 19 22  1  0  0  0  0
 23 25  1  0  0  0  0
 24 26  2  0  0  0  0
 16 25  2  0  0  0  0
 16 26  1  0  0  0  0
M  END
> <IDNUMBER>
SA92-0278

> <available>
17

> <H_acceptor>
8

> <H_donor>
0

> <B_rotN>
4

> <N_O>
8

> <logP>
1.4532

> <logD>
1.4531

> <logSw>
-1.5168

> <PSA>
76.568

> <pKa_ma>
27.1581

> <pKa_mb>
3.6841

> <N_Chirals>
1

> <Name>
{3-fluoro-3-[3-(pyridin-4-yl)-1,2,4-oxadiazol-5-yl]piperidin-1-yl}(4-methyl-1,3-oxazol-5-yl)methanone

> <Smile>
Cc1c(C(N(CCC2)CC2(c2nc(-c3ccncc3)no2)F)=O)ocn1

> <Color>
YELLOW

> <Collection>
IC

> <InChI>
InChI=1S/C17H16FN5O3/c1-11-13(25-10-20-11)15(24)23-8-2-5-17(18,9-23)16-21-14(22-26-16)12-3-6-19-7-4-12/h3-4,6-7,10H,2,5,8-9H2,1H3/t17-/m0/s1

> <InChI Key>
OXUPVKKBOGJGHQ-KRWDZBQOSA-N

> <PERCENTSP3>
35.29

> <Link>
https://www.chemdiv.com/catalog/screening-compounds/compound-SA92-0278/

> <MFCDNUMBER>
MFCD32242461

> <CLNUMBER>
CM4899

> <STEREO>
RACEMIC MIXTURE

> <State>
Solid

> <Similarity score>
0.18

$$$$
2-(3,5-dimethyl-1,2-oxazol-4-yl)-1-{3-fluoro-3-[3-(pyridin-4-yl)-1,2,4-oxadiazol
  -OEChem-04222410502D

 28 31  0     0  0  0  0  0  0999 V2000
   -1.7176    1.2961    0.0000 N   0  0  0  0  0  0  0  0  0  0  0  0
   -0.7303    1.4593    0.0000 C   0  0  0  0  0  0  0  0  0  0  0  0
    3.4763   -1.8509    0.0000 C   0  0  0  0  0  0  0  0  0  0  0  0
   -0.0315    0.7508    0.0000 C   0  0  3  0  0  0  0  0  0  0  0  0
   -2.1786    2.1896    0.0000 C   0  0  0  0  0  0  0  0  0  0  0  0
   -1.4702    2.9041    0.0000 N   0  0  0  0  0  0  0  0  0  0  0  0
    4.6799   -2.9324    0.0000 N   0  0  0  0  0  0  0  0  0  0  0  0
    1.4731   -0.1144    0.0000 N   0  0  0  0  0  0  0  0  0  0  0  0
    1.9717   -0.9889    0.0000 C   0  0  0  0  0  0  0  0  0  0  0  0
   -0.5767    2.4466    0.0000 O   0  0  0  0  0  0  0  0  0  0  0  0
    2.9745   -0.9889    0.0000 C   0  0  0  0  0  0  0  0  0  0  0  0
    3.8146   -3.4339    0.0000 O   0  0  0  0  0  0  0  0  0  0  0  0
    3.0779   -2.7663    0.0000 C   0  0  0  0  0  0  0  0  0  0  0  0
    4.4729   -1.9544    0.0000 C   0  0  0  0  0  0  0  0  0  0  0  0
    0.4733   -0.1144    0.0000 C   0  0  0  0  0  0  0  0  0  0  0  0
   -3.1660    2.3492    0.0000 C   0  0  0  0  0  0  0  0  0  0  0  0
    1.4731   -1.8509    0.0000 O   0  0  0  0  0  0  0  0  0  0  0  0
   -0.4106   -0.1709    0.0000 F   0  0  0  0  0  0  0  0  0  0  0  0
   -5.1406    2.6628    0.0000 N   0  0  0  0  0  0  0  0  0  0  0  0
    0.4733    1.6157    0.0000 C   0  0  0  0  0  0  0  0  0  0  0  0
    1.9717    0.7508    0.0000 C   0  0  0  0  0  0  0  0  0  0  0  0
    2.0906   -2.9729    0.0000 C   0  0  0  0  0  0  0  0  0  0  0  0
    1.4731    1.6157    0.0000 C   0  0  0  0  0  0  0  0  0  0  0  0
    5.1406   -1.2145    0.0000 C   0  0  0  0  0  0  0  0  0  0  0  0
   -4.5166    3.4339    0.0000 C   0  0  0  0  0  0  0  0  0  0  0  0
   -4.7833    1.7288    0.0000 C   0  0  0  0  0  0  0  0  0  0  0  0
   -3.5293    3.2803    0.0000 C   0  0  0  0  0  0  0  0  0  0  0  0
   -3.7960    1.5721    0.0000 C   0  0  0  0  0  0  0  0  0  0  0  0
  1  2  2  0  0  0  0
  3 11  1  0  0  0  0
  2  4  1  0  0  0  0
  1  5  1  0  0  0  0
  5  6  2  0  0  0  0
  6 10  1  0  0  0  0
  7 14  2  0  0  0  0
  8 15  1  0  0  0  0
  8  9  1  0  0  0  0
  2 10  1  0  0  0  0
  9 11  1  0  0  0  0
 12 13  1  0  0  0  0
  7 12  1  0  0  0  0
  3 13  2  0  0  0  0
  3 14  1  0  0  0  0
  4 15  1  0  0  0  0
  5 16  1  0  0  0  0
  9 17  2  0  0  0  0
  4 18  1  0  0  0  0
 19 26  1  0  0  0  0
 19 25  2  0  0  0  0
  4 20  1  0  0  0  0
 21 23  1  0  0  0  0
  8 21  1  0  0  0  0
 13 22  1  0  0  0  0
 20 23  1  0  0  0  0
 14 24  1  0  0  0  0
 25 27  1  0  0  0  0
 26 28  2  0  0  0  0
 16 27  2  0  0  0  0
 16 28  1  0  0  0  0
M  END
> <IDNUMBER>
SA92-0302

> <available>
66

> <H_acceptor>
8

> <H_donor>
0

> <B_rotN>
5

> <N_O>
8

> <logP>
2.1085

> <logD>
2.1084

> <logSw>
-2.1248

> <PSA>
79.165

> <pKa_ma>
13.9111

> <pKa_mb>
3.6841

> <N_Chirals>
1

> <Name>
2-(3,5-dimethyl-1,2-oxazol-4-yl)-1-{3-fluoro-3-[3-(pyridin-4-yl)-1,2,4-oxadiazol-5-yl]piperidin-1-yl}ethan-1-one

> <Smile>
Cc1noc(C)c1CC(N(CCC1)CC1(c1nc(-c2ccncc2)no1)F)=O

> <Color>
YELLOW

> <Collection>
IC

> <InChI>
InChI=1S/C19H20FN5O3/c1-12-15(13(2)27-23-12)10-16(26)25-9-3-6-19(20,11-25)18-22-17(24-28-18)14-4-7-21-8-5-14/h4-5,7-8H,3,6,9-11H2,1-2H3/t19-/m0/s1

> <InChI Key>
JZSPCVVKYCTLQG-IBGZPJMESA-N

> <PERCENTSP3>
42.1

> <Link>
https://www.chemdiv.com/catalog/screening-compounds/compound-SA92-0302/

> <MFCDNUMBER>
MFCD32242712

> <CLNUMBER>
CM4899

> <STEREO>
RACEMIC MIXTURE

> <State>
Solid

> <Similarity score>
0.18

$$$$
3-fluoro-1-[(5-methylthiophen-2-yl)methyl]-3-(3-phenyl-1,2,4-oxadiazol-5-yl)pipe
  -OEChem-04222410502D

 25 28  0     0  0  0  0  0  0999 V2000
    0.1410   -1.2896    0.0000 N   0  0  0  0  0  0  0  0  0  0  0  0
   -0.8463   -1.4493    0.0000 C   0  0  0  0  0  0  0  0  0  0  0  0
    0.5862   -2.1889    0.0000 C   0  0  0  0  0  0  0  0  0  0  0  0
   -1.5575   -0.7443    0.0000 C   0  0  3  0  0  0  0  0  0  0  0  0
   -0.1128   -2.8943    0.0000 N   0  0  0  0  0  0  0  0  0  0  0  0
   -1.0030   -2.4366    0.0000 O   0  0  0  0  0  0  0  0  0  0  0  0
   -2.0652    1.9572    0.0000 S   0  0  0  0  0  0  0  0  0  0  0  0
   -3.0620    0.1206    0.0000 N   0  0  0  0  0  0  0  0  0  0  0  0
   -3.0620    1.8508    0.0000 C   0  0  0  0  0  0  0  0  0  0  0  0
   -2.0559    0.1206    0.0000 C   0  0  0  0  0  0  0  0  0  0  0  0
   -1.8584    2.9414    0.0000 C   0  0  0  0  0  0  0  0  0  0  0  0
   -3.4661    2.7658    0.0000 C   0  0  0  0  0  0  0  0  0  0  0  0
   -2.7171    3.4332    0.0000 C   0  0  0  0  0  0  0  0  0  0  0  0
   -3.5538    0.9889    0.0000 C   0  0  0  0  0  0  0  0  0  0  0  0
    1.5796   -2.3428    0.0000 C   0  0  0  0  0  0  0  0  0  0  0  0
   -1.1721    0.1770    0.0000 F   0  0  0  0  0  0  0  0  0  0  0  0
   -2.0559   -1.6092    0.0000 C   0  0  0  0  0  0  0  0  0  0  0  0
   -3.5538   -0.7443    0.0000 C   0  0  0  0  0  0  0  0  0  0  0  0
   -3.0620   -1.6092    0.0000 C   0  0  0  0  0  0  0  0  0  0  0  0
   -0.9402    3.3455    0.0000 C   0  0  0  0  0  0  0  0  0  0  0  0
    2.2094   -1.5621    0.0000 C   0  0  0  0  0  0  0  0  0  0  0  0
    1.9401   -3.2733    0.0000 C   0  0  0  0  0  0  0  0  0  0  0  0
    2.9270   -3.4332    0.0000 C   0  0  0  0  0  0  0  0  0  0  0  0
    3.1998   -1.7191    0.0000 C   0  0  0  0  0  0  0  0  0  0  0  0
    3.5538   -2.6593    0.0000 C   0  0  0  0  0  0  0  0  0  0  0  0
  1  2  2  0  0  0  0
  1  3  1  0  0  0  0
  2  4  1  0  0  0  0
  3  5  2  0  0  0  0
  5  6  1  0  0  0  0
  2  6  1  0  0  0  0
  7  9  1  0  0  0  0
  8 10  1  0  0  0  0
  9 14  1  0  0  0  0
  4 10  1  0  0  0  0
  7 11  1  0  0  0  0
  9 12  2  0  0  0  0
 12 13  1  0  0  0  0
 11 13  2  0  0  0  0
  8 14  1  0  0  0  0
  3 15  1  0  0  0  0
  4 16  1  0  0  0  0
  4 17  1  0  0  0  0
 18 19  1  0  0  0  0
  8 18  1  0  0  0  0
 17 19  1  0  0  0  0
 11 20  1  0  0  0  0
 15 21  1  0  0  0  0
 15 22  2  0  0  0  0
 22 23  1  0  0  0  0
 21 24  2  0  0  0  0
 23 25  2  0  0  0  0
 24 25  1  0  0  0  0
M  END
> <IDNUMBER>
SA92-0030

> <available>
3

> <H_acceptor>
4

> <H_donor>
0

> <B_rotN>
4

> <N_O>
4

> <logP>
4.6903

> <logD>
4.3536

> <logSw>
-4.2989

> <PSA>
36.329

> <pKa_ma>
26.9519

> <pKa_mb>
7.4686

> <N_Chirals>
1

> <Name>
3-fluoro-1-[(5-methylthiophen-2-yl)methyl]-3-(3-phenyl-1,2,4-oxadiazol-5-yl)piperidine

> <Smile>
Cc1ccc(CN(CCC2)CC2(c2nc(-c3ccccc3)no2)F)s1

> <Color>
ORANGE

> <Collection>
IC

> <InChI>
InChI=1S/C19H20FN3OS/c1-14-8-9-16(25-14)12-23-11-5-10-19(20,13-23)18-21-17(22-24-18)15-6-3-2-4-7-15/h2-4,6-9H,5,10-13H2,1H3/t19-/m0/s1

> <InChI Key>
PDWYOOOAJSXAKN-IBGZPJMESA-N

> <PERCENTSP3>
36.84

> <Link>
https://www.chemdiv.com/catalog/screening-compounds/compound-SA92-0030/

> <MFCDNUMBER>
MFCD32241567

> <CLNUMBER>
CM4899

> <STEREO>
RACEMIC MIXTURE

> <State>
Liquid

> <Similarity score>
0.18

$$$$
2-(4-chloro-2-methylphenoxy)-N-(3-cyano-5,6-dihydro-4H-cyclopenta[b]thiophen-2-y
  -OEChem-04222410502D

 24 26  0     0  0  0  0  0  0999 V2000
   -2.0067   -0.2647    0.0000 C   0  0  0  0  0  0  0  0  0  0  0  0
   -2.6359   -1.0524    0.0000 C   0  0  0  0  0  0  0  0  0  0  0  0
   -2.5153    0.5523    0.0000 S   0  0  0  0  0  0  0  0  0  0  0  0
   -3.5988   -0.6731    0.0000 C   0  0  0  0  0  0  0  0  0  0  0  0
   -1.0105   -0.3522    0.0000 N   0  0  0  0  0  0  0  0  0  0  0  0
   -3.4988    0.3188    0.0000 C   0  0  0  0  0  0  0  0  0  0  0  0
   -0.4480    0.4647    0.0000 C   0  0  0  0  0  0  0  0  0  0  0  0
   -2.3693   -2.0024    0.0000 C   0  0  0  0  0  0  0  0  0  0  0  0
   -2.1066   -2.9528    0.0000 N   0  0  0  0  0  0  0  0  0  0  0  0
    1.0773    1.2482    0.0000 O   0  0  0  0  0  0  0  0  0  0  0  0
    2.0816    1.2149    0.0000 C   0  0  0  0  0  0  0  0  0  0  0  0
    0.5481    0.3980    0.0000 C   0  0  3  0  0  0  0  0  0  0  0  0
    2.6152    2.0775    0.0000 C   0  0  0  0  0  0  0  0  0  0  0  0
   -0.8440    1.3358    0.0000 O   0  0  0  0  0  0  0  0  0  0  0  0
    3.6321    2.0653    0.0000 C   0  0  0  0  0  0  0  0  0  0  0  0
    2.5608    0.3522    0.0000 C   0  0  0  0  0  0  0  0  0  0  0  0
    4.0947    1.1815    0.0000 C   0  0  0  0  0  0  0  0  0  0  0  0
   -4.5491   -0.9065    0.0000 C   0  0  0  0  0  0  0  0  0  0  0  0
   -4.4280    0.7189    0.0000 C   0  0  0  0  0  0  0  0  0  0  0  0
    3.5653    0.3105    0.0000 C   0  0  0  0  0  0  0  0  0  0  0  0
    5.0907    1.1733    0.0000 Cl  0  0  0  0  0  0  0  0  0  0  0  0
   -5.0907   -0.0229    0.0000 C   0  0  0  0  0  0  0  0  0  0  0  0
    2.1276    2.9528    0.0000 C   0  0  0  0  0  0  0  0  0  0  0  0
    0.9774   -0.5064    0.0000 C   0  0  0  0  0  0  0  0  0  0  0  0
  1  2  2  0  0  0  0
  1  3  1  0  0  0  0
  2  4  1  0  0  0  0
  4  6  2  0  0  0  0
  1  5  1  0  0  0  0
  3  6  1  0  0  0  0
  5  7  1  0  0  0  0
  2  8  1  0  0  0  0
  8  9  3  0  0  0  0
 10 12  1  0  0  0  0
 10 11  1  0  0  0  0
  7 12  1  0  0  0  0
 11 13  2  0  0  0  0
  7 14  2  0  0  0  0
 13 15  1  0  0  0  0
 11 16  1  0  0  0  0
 17 20  1  0  0  0  0
 15 17  2  0  0  0  0
  4 18  1  0  0  0  0
  6 19  1  0  0  0  0
 16 20  2  0  0  0  0
 17 21  1  0  0  0  0
 19 22  1  0  0  0  0
 18 22  1  0  0  0  0
 13 23  1  0  0  0  0
 12 24  1  0  0  0  0
M  END
> <IDNUMBER>
Y205-6122

> <available>
17

> <H_acceptor>
4

> <H_donor>
1

> <B_rotN>
6

> <N_O>
4

> <logP>
5.1134

> <logD>
3.6755

> <logSw>
-5.5602

> <PSA>
47.342

> <pKa_ma>
5.9783

> <pKa_mb>
-6.1288

> <N_Chirals>
1

> <Name>
2-(4-chloro-2-methylphenoxy)-N-(3-cyano-5,6-dihydro-4H-cyclopenta[b]thiophen-2-yl)propanamide

> <Smile>
CC(C(Nc(sc1c2CCC1)c2C#N)=O)Oc(cc1)c(C)cc1Cl

> <Color>
BROWN

> <Collection>
DC

> <InChI>
InChI=1S/C18H17ClN2O2S/c1-10-8-12(19)6-7-15(10)23-11(2)17(22)21-18-14(9-20)13-4-3-5-16(13)24-18/h6-8,11H,3-5H2,1-2H3,(H,21,22)/t11-/m0/s1

> <InChI Key>
PZOFNWUCEWCCMZ-NSHDSACASA-N

> <PERCENTSP3>
33.33

> <Link>
https://www.chemdiv.com/catalog/screening-compounds/compound-Y205-6122/

> <MFCDNUMBER>
MFCD07182410

> <STEREO>
RACEMIC MIXTURE

> <State>
Solid

> <Similarity score>
0.18

$$$$
3-amino-N-(3-cyano-4,5,6,7-tetrahydro-1-benzothiophen-2-yl)-6-methylthieno[2,3-b
  -OEChem-04222410502D

 25 28  0     0  0  0  0  0  0999 V2000
    0.8149   -1.2940    0.0000 C   0  0  0  0  0  0  0  0  0  0  0  0
   -1.6858   -0.4315    0.0000 C   0  0  0  0  0  0  0  0  0  0  0  0
   -2.2693    0.3856    0.0000 C   0  0  0  0  0  0  0  0  0  0  0  0
    1.4066   -2.1026    0.0000 S   0  0  0  0  0  0  0  0  0  0  0  0
    2.3569   -1.7900    0.0000 C   0  0  0  0  0  0  0  0  0  0  0  0
    1.4066   -0.4815    0.0000 C   0  0  0  0  0  0  0  0  0  0  0  0
    2.3569   -0.7940    0.0000 C   0  0  0  0  0  0  0  0  0  0  0  0
   -0.1813   -1.2940    0.0000 C   0  0  0  0  0  0  0  0  0  0  0  0
   -2.2693   -1.2399    0.0000 S   0  0  0  0  0  0  0  0  0  0  0  0
   -3.2281    0.0688    0.0000 C   0  0  0  0  0  0  0  0  0  0  0  0
   -0.6813   -0.4315    0.0000 N   0  0  0  0  0  0  0  0  0  0  0  0
   -3.2281   -0.9315    0.0000 C   0  0  0  0  0  0  0  0  0  0  0  0
    3.2196   -2.2902    0.0000 N   0  0  0  0  0  0  0  0  0  0  0  0
   -1.9568    1.3356    0.0000 C   0  0  0  0  0  0  0  0  0  0  0  0
   -1.6484    2.2902    0.0000 N   0  0  0  0  0  0  0  0  0  0  0  0
    3.2154   -0.2939    0.0000 C   0  0  0  0  0  0  0  0  0  0  0  0
   -0.6813   -2.1651    0.0000 O   0  0  0  0  0  0  0  0  0  0  0  0
    1.0982    0.4689    0.0000 N   0  0  0  0  0  0  0  0  0  0  0  0
    4.0864   -1.7900    0.0000 C   0  0  0  0  0  0  0  0  0  0  0  0
    4.0823   -0.7899    0.0000 C   0  0  0  0  0  0  0  0  0  0  0  0
   -4.0905    0.5772    0.0000 C   0  0  0  0  0  0  0  0  0  0  0  0
   -4.0905   -1.4274    0.0000 C   0  0  0  0  0  0  0  0  0  0  0  0
    4.9491   -2.2902    0.0000 C   0  0  0  0  0  0  0  0  0  0  0  0
   -4.9491    0.0688    0.0000 C   0  0  0  0  0  0  0  0  0  0  0  0
   -4.9491   -0.9315    0.0000 C   0  0  0  0  0  0  0  0  0  0  0  0
  2 11  1  0  0  0  0
  2  3  2  0  0  0  0
  1  4  1  0  0  0  0
  4  5  1  0  0  0  0
  1  6  2  0  0  0  0
  6  7  1  0  0  0  0
  5  7  2  0  0  0  0
  1  8  1  0  0  0  0
  2  9  1  0  0  0  0
  3 10  1  0  0  0  0
 10 12  2  0  0  0  0
  8 11  1  0  0  0  0
  9 12  1  0  0  0  0
  5 13  1  0  0  0  0
  3 14  1  0  0  0  0
 14 15  3  0  0  0  0
  7 16  1  0  0  0  0
  8 17  2  0  0  0  0
  6 18  1  0  0  0  0
 13 19  2  0  0  0  0
 19 20  1  0  0  0  0
 16 20  2  0  0  0  0
 10 21  1  0  0  0  0
 12 22  1  0  0  0  0
 19 23  1  0  0  0  0
 21 24  1  0  0  0  0
 24 25  1  0  0  0  0
 22 25  1  0  0  0  0
M  END
> <IDNUMBER>
8018-8815

> <available>
7

> <H_acceptor>
4

> <H_donor>
3

> <B_rotN>
4

> <N_O>
5

> <logP>
4.0861

> <logD>
2.5869

> <logSw>
-4.5521

> <PSA>
69.014

> <pKa_ma>
5.9148

> <pKa_mb>
4.3992

> <N_Chirals>
0

> <Name>
3-amino-N-(3-cyano-4,5,6,7-tetrahydro-1-benzothiophen-2-yl)-6-methylthieno[2,3-b]pyridine-2-carboxamide

> <Smile>
Cc1ccc(c(N)c(C(Nc(sc2c3CCCC2)c3C#N)=O)s2)c2n1

> <Color>
YELLOW

> <Collection>
DC

> <InChI>
InChI=1S/C18H16N4OS2/c1-9-6-7-11-14(20)15(25-17(11)21-9)16(23)22-18-12(8-19)10-4-2-3-5-13(10)24-18/h6-7H,2-5,20H2,1H3,(H,22,23)

> <InChI Key>
DKPBECBPZQVPMC-UHFFFAOYSA-N

> <PERCENTSP3>
27.8

> <Link>
https://www.chemdiv.com/catalog/screening-compounds/compound-8018-8815/

> <MFCDNUMBER>
MFCD09062872

> <STEREO>
ACHIRAL

> <State>
Solid

> <Similarity score>
0.18

$$$$
2-{[3-cyano-6-(4-methoxyphenyl)pyridin-2-yl]sulfanyl}-N-(3-cyano-4,5,6,7-tetrahy
  -OEChem-04222410502D

 32 35  0     0  0  0  0  0  0999 V2000
    1.4671    2.7971    0.0000 C   0  0  0  0  0  0  0  0  0  0  0  0
    1.0587    3.7100    0.0000 C   0  0  0  0  0  0  0  0  0  0  0  0
    2.4594    2.8971    0.0000 S   0  0  0  0  0  0  0  0  0  0  0  0
    1.8050    4.3686    0.0000 C   0  0  0  0  0  0  0  0  0  0  0  0
    2.6720    3.8767    0.0000 C   0  0  0  0  0  0  0  0  0  0  0  0
   -1.5341   -0.6753    0.0000 N   0  0  0  0  0  0  0  0  0  0  0  0
   -2.0343    0.1959    0.0000 C   0  0  0  0  0  0  0  0  0  0  0  0
    0.9670    1.9259    0.0000 N   0  0  0  0  0  0  0  0  0  0  0  0
   -3.0348    0.1959    0.0000 C   0  0  0  0  0  0  0  0  0  0  0  0
    0.0835    3.9185    0.0000 C   0  0  0  0  0  0  0  0  0  0  0  0
   -2.0343   -1.5381    0.0000 C   0  0  0  0  0  0  0  0  0  0  0  0
   -0.5921    3.1722    0.0000 N   0  0  0  0  0  0  0  0  0  0  0  0
   -3.5348    1.0589    0.0000 C   0  0  0  0  0  0  0  0  0  0  0  0
   -3.0348    1.9259    0.0000 N   0  0  0  0  0  0  0  0  0  0  0  0
   -0.0336    1.9259    0.0000 C   0  0  0  0  0  0  0  0  0  0  0  0
   -1.5341    1.0589    0.0000 S   0  0  0  0  0  0  0  0  0  0  0  0
   -1.5341   -2.4053    0.0000 C   0  0  0  0  0  0  0  0  0  0  0  0
   -3.5348   -0.6753    0.0000 C   0  0  0  0  0  0  0  0  0  0  0  0
   -3.0348   -1.5381    0.0000 C   0  0  0  0  0  0  0  0  0  0  0  0
   -0.5336    2.7971    0.0000 O   0  0  0  0  0  0  0  0  0  0  0  0
   -0.5336    1.0589    0.0000 C   0  0  0  0  0  0  0  0  0  0  0  0
   -2.0343   -3.2681    0.0000 C   0  0  0  0  0  0  0  0  0  0  0  0
   -0.5336   -2.4053    0.0000 C   0  0  0  0  0  0  0  0  0  0  0  0
   -0.5336   -4.1351    0.0000 C   0  0  0  0  0  0  0  0  0  0  0  0
    1.8050    5.3691    0.0000 C   0  0  0  0  0  0  0  0  0  0  0  0
   -1.5341   -4.1351    0.0000 C   0  0  0  0  0  0  0  0  0  0  0  0
   -0.0336   -3.2681    0.0000 C   0  0  0  0  0  0  0  0  0  0  0  0
    3.5348    4.3686    0.0000 C   0  0  0  0  0  0  0  0  0  0  0  0
   -0.0336   -5.0063    0.0000 O   0  0  0  0  0  0  0  0  0  0  0  0
   -0.5336   -5.8693    0.0000 C   0  0  0  0  0  0  0  0  0  0  0  0
    2.6720    5.8693    0.0000 C   0  0  0  0  0  0  0  0  0  0  0  0
    3.5348    5.3691    0.0000 C   0  0  0  0  0  0  0  0  0  0  0  0
  1  2  2  0  0  0  0
  1  3  1  0  0  0  0
  2  4  1  0  0  0  0
  4  5  2  0  0  0  0
  3  5  1  0  0  0  0
  6  7  2  0  0  0  0
  7 16  1  0  0  0  0
  1  8  1  0  0  0  0
  7  9  1  0  0  0  0
  2 10  1  0  0  0  0
  6 11  1  0  0  0  0
 11 19  2  0  0  0  0
 10 12  3  0  0  0  0
  9 13  1  0  0  0  0
 13 14  3  0  0  0  0
  8 15  1  0  0  0  0
 16 21  1  0  0  0  0
 11 17  1  0  0  0  0
  9 18  2  0  0  0  0
 18 19  1  0  0  0  0
 15 20  2  0  0  0  0
 15 21  1  0  0  0  0
 17 22  1  0  0  0  0
 17 23  2  0  0  0  0
 24 27  2  0  0  0  0
  4 25  1  0  0  0  0
 22 26  2  0  0  0  0
 24 26  1  0  0  0  0
 23 27  1  0  0  0  0
  5 28  1  0  0  0  0
 24 29  1  0  0  0  0
 29 30  1  0  0  0  0
 25 31  1  0  0  0  0
 31 32  1  0  0  0  0
 28 32  1  0  0  0  0
M  END
> <IDNUMBER>
D360-0584

> <available>
176

> <H_acceptor>
7

> <H_donor>
1

> <B_rotN>
9

> <N_O>
6

> <logP>
5.3211

> <logD>
4.216

> <logSw>
-5.2685

> <PSA>
72.963

> <pKa_ma>
6.3303

> <pKa_mb>
-1.2655

> <N_Chirals>
0

> <Name>
2-{[3-cyano-6-(4-methoxyphenyl)pyridin-2-yl]sulfanyl}-N-(3-cyano-4,5,6,7-tetrahydro-1-benzothiophen-2-yl)acetamide

> <Smile>
COc(cc1)ccc1-c(nc1SCC(Nc(sc2c3CCCC2)c3C#N)=O)ccc1C#N

> <Color>
NOT COLORED

> <Collection>
DC

> <InChI>
InChI=1S/C24H20N4O2S2/c1-30-17-9-6-15(7-10-17)20-11-8-16(12-25)23(27-20)31-14-22(29)28-24-19(13-26)18-4-2-3-5-21(18)32-24/h6-11H,2-5,14H2,1H3,(H,28,29)

> <InChI Key>
NKUPNBRYAQWAMM-UHFFFAOYSA-N

> <PERCENTSP3>
25

> <Link>
https://www.chemdiv.com/catalog/screening-compounds/compound-D360-0584/

> <MFCDNUMBER>
MFCD03234601

> <CLNUMBER>
CL1961

> <STEREO>
ACHIRAL

> <State>
Solid

> <Similarity score>
0.18

$$$$
N-(3-cyano-4,5,6,7-tetrahydro-1-benzothiophen-2-yl)-2-{[5-(pyridin-4-yl)-4H-1,2,
  -OEChem-04222410502D

 27 30  0     0  0  0  0  0  0999 V2000
    1.2668    0.9855    0.0000 C   0  0  0  0  0  0  0  0  0  0  0  0
    1.3585    1.9856    0.0000 C   0  0  0  0  0  0  0  0  0  0  0  0
    0.5667   -2.0147    0.0000 N   0  0  0  0  0  0  0  0  0  0  0  0
    0.2792    0.7813    0.0000 S   0  0  0  0  0  0  0  0  0  0  0  0
    0.4584    2.3939    0.0000 C   0  0  0  0  0  0  0  0  0  0  0  0
   -0.2458   -2.6022    0.0000 C   0  0  0  0  0  0  0  0  0  0  0  0
    0.0667   -3.5564    0.0000 N   0  0  0  0  0  0  0  0  0  0  0  0
   -0.2208    1.6440    0.0000 C   0  0  0  0  0  0  0  0  0  0  0  0
    1.3792   -2.6022    0.0000 C   0  0  0  0  0  0  0  0  0  0  0  0
    1.0667   -3.5564    0.0000 N   0  0  0  0  0  0  0  0  0  0  0  0
    2.0043    0.3230    0.0000 N   0  0  0  0  0  0  0  0  0  0  0  0
    2.2293    2.4813    0.0000 C   0  0  0  0  0  0  0  0  0  0  0  0
    3.0919    1.9856    0.0000 N   0  0  0  0  0  0  0  0  0  0  0  0
    1.7918   -0.6563    0.0000 C   0  0  0  0  0  0  0  0  0  0  0  0
    2.3167   -2.2938    0.0000 S   0  0  0  0  0  0  0  0  0  0  0  0
   -1.1917   -2.2938    0.0000 C   0  0  0  0  0  0  0  0  0  0  0  0
   -3.0919   -1.6771    0.0000 N   0  0  0  0  0  0  0  0  0  0  0  0
    0.8334   -0.9646    0.0000 O   0  0  0  0  0  0  0  0  0  0  0  0
    2.5335   -1.3188    0.0000 C   0  0  0  0  0  0  0  0  0  0  0  0
    0.1458    3.3439    0.0000 C   0  0  0  0  0  0  0  0  0  0  0  0
   -1.2042    1.8566    0.0000 C   0  0  0  0  0  0  0  0  0  0  0  0
   -2.3460   -1.0146    0.0000 C   0  0  0  0  0  0  0  0  0  0  0  0
   -2.8794   -2.6564    0.0000 C   0  0  0  0  0  0  0  0  0  0  0  0
   -1.3959   -1.3188    0.0000 C   0  0  0  0  0  0  0  0  0  0  0  0
   -1.9294   -2.9564    0.0000 C   0  0  0  0  0  0  0  0  0  0  0  0
   -0.8334    3.5564    0.0000 C   0  0  0  0  0  0  0  0  0  0  0  0
   -1.5167    2.8066    0.0000 C   0  0  0  0  0  0  0  0  0  0  0  0
  1  2  2  0  0  0  0
  3  9  1  0  0  0  0
  1  4  1  0  0  0  0
  2  5  1  0  0  0  0
  3  6  1  0  0  0  0
  6  7  2  0  0  0  0
  7 10  1  0  0  0  0
  4  8  1  0  0  0  0
  5  8  2  0  0  0  0
  9 15  1  0  0  0  0
  9 10  2  0  0  0  0
  1 11  1  0  0  0  0
  2 12  1  0  0  0  0
 12 13  3  0  0  0  0
 11 14  1  0  0  0  0
 15 19  1  0  0  0  0
  6 16  1  0  0  0  0
 17 23  1  0  0  0  0
 14 18  2  0  0  0  0
 14 19  1  0  0  0  0
  5 20  1  0  0  0  0
  8 21  1  0  0  0  0
 22 24  1  0  0  0  0
 17 22  2  0  0  0  0
 23 25  2  0  0  0  0
 16 24  2  0  0  0  0
 16 25  1  0  0  0  0
 20 26  1  0  0  0  0
 26 27  1  0  0  0  0
 21 27  1  0  0  0  0
M  END
> <IDNUMBER>
8015-7193

> <available>
10

> <H_acceptor>
7

> <H_donor>
2

> <B_rotN>
7

> <N_O>
7

> <logP>
2.2411

> <logD>
1.184

> <logSw>
-2.5783

> <PSA>
81.823

> <pKa_ma>
6.3828

> <pKa_mb>
4.1519

> <N_Chirals>
0

> <Name>
N-(3-cyano-4,5,6,7-tetrahydro-1-benzothiophen-2-yl)-2-{[5-(pyridin-4-yl)-4H-1,2,4-triazol-3-yl]sulfanyl}acetamide

> <Smile>
N#Cc1c(NC(CSc2nnc(-c3ccncc3)[nH]2)=O)sc2c1CCCC2

> <Color>
ORANGE

> <Collection>
DC

> <InChI>
InChI=1S/C18H16N6OS2/c19-9-13-12-3-1-2-4-14(12)27-17(13)21-15(25)10-26-18-22-16(23-24-18)11-5-7-20-8-6-11/h5-8H,1-4,10H2,(H,21,25)(H,22,23,24)

> <InChI Key>
OQFOQEFORBIGPC-UHFFFAOYSA-N

> <PERCENTSP3>
27.8

> <Link>
https://www.chemdiv.com/catalog/screening-compounds/compound-8015-7193/

> <MFCDNUMBER>
MFCD04031165

> <CLNUMBER>
CL2674

> <STEREO>
ACHIRAL

> <State>
Solid

> <Similarity score>
0.18

$$$$
1-{3-fluoro-3-[3-(pyridin-4-yl)-1,2,4-oxadiazol-5-yl]piperidin-1-yl}-2-methoxyet
  -OEChem-04222410502D

 23 25  0     0  0  0  0  0  0999 V2000
   -0.6411    1.3791    0.0000 N   0  0  0  0  0  0  0  0  0  0  0  0
    0.3494    1.5296    0.0000 C   0  0  0  0  0  0  0  0  0  0  0  0
    1.0546    0.8244    0.0000 C   0  0  3  0  0  0  0  0  0  0  0  0
   -1.0984    2.2662    0.0000 C   0  0  0  0  0  0  0  0  0  0  0  0
   -0.3933    2.9775    0.0000 N   0  0  0  0  0  0  0  0  0  0  0  0
    0.4999    2.5201    0.0000 O   0  0  0  0  0  0  0  0  0  0  0  0
    2.5560   -0.0407    0.0000 N   0  0  0  0  0  0  0  0  0  0  0  0
    1.5594   -0.0407    0.0000 C   0  0  0  0  0  0  0  0  0  0  0  0
    3.0574   -0.9121    0.0000 C   0  0  0  0  0  0  0  0  0  0  0  0
   -2.0765    2.4228    0.0000 C   0  0  0  0  0  0  0  0  0  0  0  0
    4.0543   -0.9121    0.0000 O   0  0  0  0  0  0  0  0  0  0  0  0
    0.6692   -0.0972    0.0000 F   0  0  0  0  0  0  0  0  0  0  0  0
   -4.0543    2.7332    0.0000 N   0  0  0  0  0  0  0  0  0  0  0  0
    1.5594    1.6925    0.0000 C   0  0  0  0  0  0  0  0  0  0  0  0
    3.0574    0.8244    0.0000 C   0  0  0  0  0  0  0  0  0  0  0  0
    2.5560   -1.7708    0.0000 C   0  0  0  0  0  0  0  0  0  0  0  0
    2.5560    1.6925    0.0000 C   0  0  0  0  0  0  0  0  0  0  0  0
    3.0574   -2.6359    0.0000 O   0  0  0  0  0  0  0  0  0  0  0  0
   -3.4243    3.5073    0.0000 C   0  0  0  0  0  0  0  0  0  0  0  0
   -3.7033    1.7959    0.0000 C   0  0  0  0  0  0  0  0  0  0  0  0
   -2.4432    3.3538    0.0000 C   0  0  0  0  0  0  0  0  0  0  0  0
   -2.7095    1.6424    0.0000 C   0  0  0  0  0  0  0  0  0  0  0  0
    2.5560   -3.5073    0.0000 C   0  0  0  0  0  0  0  0  0  0  0  0
  1  2  2  0  0  0  0
  2  3  1  0  0  0  0
  1  4  1  0  0  0  0
  4  5  2  0  0  0  0
  5  6  1  0  0  0  0
  2  6  1  0  0  0  0
  7  8  1  0  0  0  0
  3  8  1  0  0  0  0
  7  9  1  0  0  0  0
  4 10  1  0  0  0  0
  9 11  2  0  0  0  0
  3 12  1  0  0  0  0
 13 20  1  0  0  0  0
 13 19  2  0  0  0  0
  3 14  1  0  0  0  0
 15 17  1  0  0  0  0
  7 15  1  0  0  0  0
  9 16  1  0  0  0  0
 14 17  1  0  0  0  0
 16 18  1  0  0  0  0
 19 21  1  0  0  0  0
 20 22  2  0  0  0  0
 10 21  2  0  0  0  0
 10 22  1  0  0  0  0
 18 23  1  0  0  0  0
M  END
> <IDNUMBER>
SA92-0163

> <available>
71

> <H_acceptor>
7

> <H_donor>
0

> <B_rotN>
5

> <N_O>
7

> <logP>
0.8856

> <logD>
0.8855

> <logSw>
-1.0334

> <PSA>
65.822

> <pKa_ma>
22.1376

> <pKa_mb>
3.6841

> <N_Chirals>
1

> <Name>
1-{3-fluoro-3-[3-(pyridin-4-yl)-1,2,4-oxadiazol-5-yl]piperidin-1-yl}-2-methoxyethan-1-one

> <Smile>
COCC(N(CCC1)CC1(c1nc(-c2ccncc2)no1)F)=O

> <Color>
YELLOW

> <Collection>
IC

> <InChI>
InChI=1S/C15H17FN4O3/c1-22-9-12(21)20-8-2-5-15(16,10-20)14-18-13(19-23-14)11-3-6-17-7-4-11/h3-4,6-7H,2,5,8-10H2,1H3/t15-/m0/s1

> <InChI Key>
ABPBDRFSFWRGGS-HNNXBMFYSA-N

> <PERCENTSP3>
46.67

> <Link>
https://www.chemdiv.com/catalog/screening-compounds/compound-SA92-0163/

> <MFCDNUMBER>
MFCD32243195

> <CLNUMBER>
CM4899

> <STEREO>
RACEMIC MIXTURE

> <State>
Liquid

> <Similarity score>
0.18

$$$$
{3-fluoro-3-[3-(pyridin-4-yl)-1,2,4-oxadiazol-5-yl]piperidin-1-yl}[1-(4-methoxyp
  -OEChem-04222410502D

 31 35  0     0  0  0  0  0  0999 V2000
    1.9660   -0.4167    0.0000 C   0  0  0  0  0  0  0  0  0  0  0  0
   -1.3144    2.2748    0.0000 N   0  0  0  0  0  0  0  0  0  0  0  0
   -0.4028    2.6853    0.0000 C   0  0  0  0  0  0  0  0  0  0  0  0
    2.4613    0.4481    0.0000 C   0  0  0  0  0  0  0  0  0  0  0  0
    0.4620    2.1777    0.0000 C   0  0  3  0  0  0  0  0  0  0  0  0
   -1.9912    3.0235    0.0000 C   0  0  0  0  0  0  0  0  0  0  0  0
    1.9660    1.3129    0.0000 N   0  0  0  0  0  0  0  0  0  0  0  0
   -1.4835    3.8821    0.0000 N   0  0  0  0  0  0  0  0  0  0  0  0
   -0.5061    3.6755    0.0000 O   0  0  0  0  0  0  0  0  0  0  0  0
    1.1012    0.0813    0.0000 C   0  0  0  0  0  0  0  0  0  0  0  0
    1.1012   -0.9213    0.0000 C   0  0  0  0  0  0  0  0  0  0  0  0
    0.9604    1.3129    0.0000 C   0  0  0  0  0  0  0  0  0  0  0  0
    2.4613   -1.2815    0.0000 C   0  0  0  0  0  0  0  0  0  0  0  0
    3.4607    0.4481    0.0000 O   0  0  0  0  0  0  0  0  0  0  0  0
   -2.9813    2.9109    0.0000 C   0  0  0  0  0  0  0  0  0  0  0  0
   -0.4028    1.6793    0.0000 F   0  0  0  0  0  0  0  0  0  0  0  0
   -4.9647    2.7039    0.0000 N   0  0  0  0  0  0  0  0  0  0  0  0
    3.4607   -1.2815    0.0000 C   0  0  0  0  0  0  0  0  0  0  0  0
    1.9660   -2.1525    0.0000 C   0  0  0  0  0  0  0  0  0  0  0  0
    0.9604    3.0518    0.0000 C   0  0  0  0  0  0  0  0  0  0  0  0
    2.4613    2.1777    0.0000 C   0  0  0  0  0  0  0  0  0  0  0  0
    3.4607   -3.0173    0.0000 C   0  0  0  0  0  0  0  0  0  0  0  0
    2.4613   -3.0173    0.0000 C   0  0  0  0  0  0  0  0  0  0  0  0
    3.9591   -2.1525    0.0000 C   0  0  0  0  0  0  0  0  0  0  0  0
    3.9591   -3.8821    0.0000 O   0  0  0  0  0  0  0  0  0  0  0  0
    1.9660    3.0518    0.0000 C   0  0  0  0  0  0  0  0  0  0  0  0
   -4.5604    3.6159    0.0000 C   0  0  0  0  0  0  0  0  0  0  0  0
   -4.3820    1.8987    0.0000 C   0  0  0  0  0  0  0  0  0  0  0  0
   -3.5703    3.7285    0.0000 C   0  0  0  0  0  0  0  0  0  0  0  0
   -3.3918    1.9989    0.0000 C   0  0  0  0  0  0  0  0  0  0  0  0
    4.9647   -3.8821    0.0000 C   0  0  0  0  0  0  0  0  0  0  0  0
  2  3  2  0  0  0  0
  3  5  1  0  0  0  0
  1  4  1  0  0  0  0
  5 12  1  0  0  0  0
  2  6  1  0  0  0  0
  6  8  2  0  0  0  0
  4  7  1  0  0  0  0
  8  9  1  0  0  0  0
  3  9  1  0  0  0  0
  1 10  1  0  0  0  0
 10 11  1  0  0  0  0
  1 11  1  0  0  0  0
  7 12  1  0  0  0  0
  1 13  1  0  0  0  0
  4 14  2  0  0  0  0
  6 15  1  0  0  0  0
  5 16  1  0  0  0  0
 17 28  1  0  0  0  0
 17 27  2  0  0  0  0
 13 18  2  0  0  0  0
 13 19  1  0  0  0  0
 20 26  1  0  0  0  0
  5 20  1  0  0  0  0
  7 21  1  0  0  0  0
 22 23  1  0  0  0  0
 19 23  2  0  0  0  0
 18 24  1  0  0  0  0
 22 24  2  0  0  0  0
 22 25  1  0  0  0  0
 21 26  1  0  0  0  0
 27 29  1  0  0  0  0
 28 30  2  0  0  0  0
 15 29  2  0  0  0  0
 15 30  1  0  0  0  0
 25 31  1  0  0  0  0
M  END
> <IDNUMBER>
SA92-0215

> <available>
64

> <H_acceptor>
7

> <H_donor>
0

> <B_rotN>
6

> <N_O>
7

> <logP>
3.2126

> <logD>
3.2125

> <logSw>
-3.1296

> <PSA>
65.45

> <pKa_ma>
21.0371

> <pKa_mb>
3.6841

> <N_Chirals>
1

> <Name>
{3-fluoro-3-[3-(pyridin-4-yl)-1,2,4-oxadiazol-5-yl]piperidin-1-yl}[1-(4-methoxyphenyl)cyclopropyl]methanone

> <Smile>
COc1ccc(C2(CC2)C(N(CCC2)CC2(c2nc(-c3ccncc3)no2)F)=O)cc1

> <Color>
NOT COLORED

> <Collection>
IC

> <InChI>
InChI=1S/C23H23FN4O3/c1-30-18-5-3-17(4-6-18)22(10-11-22)21(29)28-14-2-9-23(24,15-28)20-26-19(27-31-20)16-7-12-25-13-8-16/h3-8,12-13H,2,9-11,14-15H2,1H3/t23-/m0/s1

> <InChI Key>
OASSYDRHONKWLJ-QHCPKHFHSA-N

> <PERCENTSP3>
39.13

> <Link>
https://www.chemdiv.com/catalog/screening-compounds/compound-SA92-0215/

> <MFCDNUMBER>
MFCD32241824

> <CLNUMBER>
CM4899

> <STEREO>
RACEMIC MIXTURE

> <State>
Solid

> <Similarity score>
0.18

$$$$
N-(3-cyano-4,5,6,7,8,9-hexahydrocycloocta[b]thiophen-2-yl)-2-(2,4-dichlorophenox
  -OEChem-04222410502D

 27 29  0     0  0  0  0  0  0999 V2000
   -1.0943   -0.5440    0.0000 C   0  0  0  0  0  0  0  0  0  0  0  0
   -2.0822   -0.4565    0.0000 C   0  0  0  0  0  0  0  0  0  0  0  0
   -0.7066    0.3815    0.0000 S   0  0  0  0  0  0  0  0  0  0  0  0
   -2.3116    0.4982    0.0000 C   0  0  0  0  0  0  0  0  0  0  0  0
   -0.5816   -1.4403    0.0000 N   0  0  0  0  0  0  0  0  0  0  0  0
   -1.4819    1.0568    0.0000 C   0  0  0  0  0  0  0  0  0  0  0  0
    0.4271   -1.4403    0.0000 C   0  0  0  0  0  0  0  0  0  0  0  0
   -2.7617   -1.2694    0.0000 C   0  0  0  0  0  0  0  0  0  0  0  0
   -3.4079   -2.0697    0.0000 N   0  0  0  0  0  0  0  0  0  0  0  0
    1.8446   -2.3449    0.0000 O   0  0  0  0  0  0  0  0  0  0  0  0
    2.3699   -1.5278    0.0000 C   0  0  0  0  0  0  0  0  0  0  0  0
    3.3535   -1.5278    0.0000 C   0  0  0  0  0  0  0  0  0  0  0  0
    0.8817   -2.3074    0.0000 C   0  0  3  0  0  0  0  0  0  0  0  0
    3.8706   -0.7191    0.0000 C   0  0  0  0  0  0  0  0  0  0  0  0
    0.9317   -0.5691    0.0000 O   0  0  0  0  0  0  0  0  0  0  0  0
    1.9280   -0.6566    0.0000 C   0  0  0  0  0  0  0  0  0  0  0  0
    3.4036    0.1605    0.0000 C   0  0  0  0  0  0  0  0  0  0  0  0
    3.8456   -2.3699    0.0000 Cl  0  0  0  0  0  0  0  0  0  0  0  0
    2.4156    0.1605    0.0000 C   0  0  0  0  0  0  0  0  0  0  0  0
   -3.3329    0.7566    0.0000 C   0  0  0  0  0  0  0  0  0  0  0  0
    3.8831    0.9942    0.0000 Cl  0  0  0  0  0  0  0  0  0  0  0  0
   -1.2362    2.0197    0.0000 C   0  0  0  0  0  0  0  0  0  0  0  0
    0.3646   -3.1453    0.0000 C   0  0  0  0  0  0  0  0  0  0  0  0
   -3.8831    1.6195    0.0000 C   0  0  0  0  0  0  0  0  0  0  0  0
   -1.7946    2.8952    0.0000 C   0  0  0  0  0  0  0  0  0  0  0  0
   -3.6622    2.5992    0.0000 C   0  0  0  0  0  0  0  0  0  0  0  0
   -2.7742    3.1453    0.0000 C   0  0  0  0  0  0  0  0  0  0  0  0
  1  2  2  0  0  0  0
  1  3  1  0  0  0  0
  2  4  1  0  0  0  0
  4  6  2  0  0  0  0
  1  5  1  0  0  0  0
  3  6  1  0  0  0  0
  5  7  1  0  0  0  0
  2  8  1  0  0  0  0
  8  9  3  0  0  0  0
 10 13  1  0  0  0  0
 10 11  1  0  0  0  0
 11 12  2  0  0  0  0
  7 13  1  0  0  0  0
 12 14  1  0  0  0  0
 14 17  2  0  0  0  0
  7 15  2  0  0  0  0
 11 16  1  0  0  0  0
 17 19  1  0  0  0  0
 12 18  1  0  0  0  0
 16 19  2  0  0  0  0
  4 20  1  0  0  0  0
 17 21  1  0  0  0  0
  6 22  1  0  0  0  0
 13 23  1  0  0  0  0
 20 24  1  0  0  0  0
 22 25  1  0  0  0  0
 24 26  1  0  0  0  0
 25 27  1  0  0  0  0
 26 27  1  0  0  0  0
M  END
> <IDNUMBER>
Y509-7692

> <available>
6

> <H_acceptor>
4

> <H_donor>
1

> <B_rotN>
6

> <N_O>
4

> <logP>
6.3445

> <logD>
4.9265

> <logSw>
-6.3471

> <PSA>
47.307

> <pKa_ma>
5.9989

> <pKa_mb>
-5.4019

> <N_Chirals>
1

> <Name>
N-(3-cyano-4,5,6,7,8,9-hexahydrocycloocta[b]thiophen-2-yl)-2-(2,4-dichlorophenoxy)propanamide

> <Smile>
c1(c(c2c(s1)CCCCCC2)C#N)NC(C(Oc1c(cc(cc1)Cl)Cl)C)=O

> <Color>
BROWN

> <Collection>
DC

> <InChI>
InChI=1S/C20H20Cl2N2O2S/c1-12(26-17-9-8-13(21)10-16(17)22)19(25)24-20-15(11-23)14-6-4-2-3-5-7-18(14)27-20/h8-10,12H,2-7H2,1H3,(H,24,25)/t12-/m0/s1

> <InChI Key>
UZQZPNPAQCQYCH-LBPRGKRZSA-N

> <PERCENTSP3>
40

> <Link>
https://www.chemdiv.com/catalog/screening-compounds/compound-Y509-7692/

> <MFCDNUMBER>
MFCD01355654

> <STEREO>
RACEMIC MIXTURE

> <State>
Solid

> <Similarity score>
0.18

$$$$
3-fluoro-N-(4-methoxyphenyl)-3-[3-(pyridin-3-yl)-1,2,4-oxadiazol-5-yl]piperidine
  -OEChem-04222410502D

 29 32  0     0  0  0  0  0  0999 V2000
    1.6398   -0.1292    0.0000 N   0  0  0  0  0  0  0  0  0  0  0  0
    1.2816   -1.0587    0.0000 C   0  0  0  0  0  0  0  0  0  0  0  0
    2.6318   -0.1793    0.0000 C   0  0  0  0  0  0  0  0  0  0  0  0
    0.3146   -1.3211    0.0000 C   0  0  3  0  0  0  0  0  0  0  0  0
   -0.5564    1.1793    0.0000 C   0  0  0  0  0  0  0  0  0  0  0  0
    2.8944   -1.1461    0.0000 N   0  0  0  0  0  0  0  0  0  0  0  0
   -0.5564    0.1791    0.0000 N   0  0  0  0  0  0  0  0  0  0  0  0
    2.0566   -1.6920    0.0000 O   0  0  0  0  0  0  0  0  0  0  0  0
    0.3146   -0.3208    0.0000 C   0  0  0  0  0  0  0  0  0  0  0  0
    3.2652    0.5959    0.0000 C   0  0  0  0  0  0  0  0  0  0  0  0
   -1.4189    1.6795    0.0000 N   0  0  0  0  0  0  0  0  0  0  0  0
    0.3146    1.6795    0.0000 O   0  0  0  0  0  0  0  0  0  0  0  0
    4.8821    1.2169    0.0000 N   0  0  0  0  0  0  0  0  0  0  0  0
    0.1812   -2.3088    0.0000 F   0  0  0  0  0  0  0  0  0  0  0  0
   -2.2859    1.1793    0.0000 C   0  0  0  0  0  0  0  0  0  0  0  0
   -0.5564   -1.8213    0.0000 C   0  0  0  0  0  0  0  0  0  0  0  0
    4.2528    0.4415    0.0000 C   0  0  0  0  0  0  0  0  0  0  0  0
   -1.4189   -0.3208    0.0000 C   0  0  0  0  0  0  0  0  0  0  0  0
   -4.0195    0.1791    0.0000 C   0  0  0  0  0  0  0  0  0  0  0  0
   -3.1568    1.6795    0.0000 C   0  0  0  0  0  0  0  0  0  0  0  0
   -2.2859    0.1791    0.0000 C   0  0  0  0  0  0  0  0  0  0  0  0
   -3.1568   -0.3208    0.0000 C   0  0  0  0  0  0  0  0  0  0  0  0
   -4.0195    1.1793    0.0000 C   0  0  0  0  0  0  0  0  0  0  0  0
   -4.8821   -0.3208    0.0000 O   0  0  0  0  0  0  0  0  0  0  0  0
    2.9069    1.5295    0.0000 C   0  0  0  0  0  0  0  0  0  0  0  0
   -1.4189   -1.3211    0.0000 C   0  0  0  0  0  0  0  0  0  0  0  0
    4.5196    2.1546    0.0000 C   0  0  0  0  0  0  0  0  0  0  0  0
   -4.8821   -1.3211    0.0000 C   0  0  0  0  0  0  0  0  0  0  0  0
    3.5321    2.3088    0.0000 C   0  0  0  0  0  0  0  0  0  0  0  0
  1  2  2  0  0  0  0
  1  3  1  0  0  0  0
  2  4  1  0  0  0  0
  5  7  1  0  0  0  0
  3  6  2  0  0  0  0
  6  8  1  0  0  0  0
  7  9  1  0  0  0  0
  7 18  1  0  0  0  0
  2  8  1  0  0  0  0
  4  9  1  0  0  0  0
  3 10  1  0  0  0  0
  5 11  1  0  0  0  0
  5 12  2  0  0  0  0
 13 17  2  0  0  0  0
 13 27  1  0  0  0  0
  4 14  1  0  0  0  0
 11 15  1  0  0  0  0
  4 16  1  0  0  0  0
 10 17  1  0  0  0  0
 18 26  1  0  0  0  0
 19 22  1  0  0  0  0
 19 23  2  0  0  0  0
 15 20  2  0  0  0  0
 15 21  1  0  0  0  0
 21 22  2  0  0  0  0
 20 23  1  0  0  0  0
 19 24  1  0  0  0  0
 10 25  2  0  0  0  0
 16 26  1  0  0  0  0
 27 29  2  0  0  0  0
 24 28  1  0  0  0  0
 25 29  1  0  0  0  0
M  END
> <IDNUMBER>
SA92-0598

> <available>
183

> <H_acceptor>
7

> <H_donor>
1

> <B_rotN>
6

> <N_O>
8

> <logP>
2.7648

> <logD>
2.1261

> <logSw>
-3.0149

> <PSA>
74.108

> <pKa_ma>
13.6081

> <pKa_mb>
7.9253

> <N_Chirals>
1

> <Name>
3-fluoro-N-(4-methoxyphenyl)-3-[3-(pyridin-3-yl)-1,2,4-oxadiazol-5-yl]piperidine-1-carboxamide

> <Smile>
COc(cc1)ccc1NC(N(CCC1)CC1(c1nc(-c2cnccc2)no1)F)=O

> <Color>
NOT COLORED

> <Collection>
IC

> <InChI>
InChI=1S/C20H20FN5O3/c1-28-16-7-5-15(6-8-16)23-19(27)26-11-3-9-20(21,13-26)18-24-17(25-29-18)14-4-2-10-22-12-14/h2,4-8,10,12H,3,9,11,13H2,1H3,(H,23,27)/t20-/m0/s1

> <InChI Key>
AJBACORGLUEGNT-FQEVSTJZSA-N

> <PERCENTSP3>
30

> <Link>
https://www.chemdiv.com/catalog/screening-compounds/compound-SA92-0598/

> <MFCDNUMBER>
MFCD32243089

> <CLNUMBER>
CM4899

> <STEREO>
RACEMIC MIXTURE

> <State>
Solid

> <Similarity score>
0.18

$$$$
2-[2-(4-amino-1,2,5-oxadiazol-3-yl)-1H-benzimidazol-1-yl]-N-(3-cyano-6-methyl-4,
  -OEChem-04222410502D

 31 35  0     0  0  0  0  0  0999 V2000
    2.3808    0.1042    0.0000 C   0  0  0  0  0  0  0  0  0  0  0  0
    1.6517    0.8041    0.0000 N   0  0  0  0  0  0  0  0  0  0  0  0
   -1.5727    0.4290    0.0000 C   0  0  0  0  0  0  0  0  0  0  0  0
   -2.5808    0.4666    0.0000 C   0  0  0  0  0  0  0  0  0  0  0  0
    2.2434   -0.8915    0.0000 C   0  0  0  0  0  0  0  0  0  0  0  0
    3.2681    0.5791    0.0000 N   0  0  0  0  0  0  0  0  0  0  0  0
   -2.9183   -0.4708    0.0000 C   0  0  0  0  0  0  0  0  0  0  0  0
   -2.1308   -1.0832    0.0000 C   0  0  0  0  0  0  0  0  0  0  0  0
   -1.3061   -0.5290    0.0000 S   0  0  0  0  0  0  0  0  0  0  0  0
    2.9682   -1.5831    0.0000 C   0  0  0  0  0  0  0  0  0  0  0  0
    2.5266   -2.4829    0.0000 N   0  0  0  0  0  0  0  0  0  0  0  0
   -0.9603    1.2082    0.0000 N   0  0  0  0  0  0  0  0  0  0  0  0
    1.3560   -1.3581    0.0000 N   0  0  0  0  0  0  0  0  0  0  0  0
    2.0934    1.7038    0.0000 C   0  0  0  0  0  0  0  0  0  0  0  0
    1.5309   -2.3454    0.0000 O   0  0  0  0  0  0  0  0  0  0  0  0
    3.0889    1.5664    0.0000 C   0  0  0  0  0  0  0  0  0  0  0  0
   -3.1349    1.2915    0.0000 C   0  0  0  0  0  0  0  0  0  0  0  0
    0.0187    1.3831    0.0000 C   0  0  0  0  0  0  0  0  0  0  0  0
    0.6686    0.6208    0.0000 C   0  0  0  0  0  0  0  0  0  0  0  0
   -2.7433    2.2205    0.0000 N   0  0  0  0  0  0  0  0  0  0  0  0
   -3.8305   -0.8457    0.0000 C   0  0  0  0  0  0  0  0  0  0  0  0
   -2.2684   -2.0580    0.0000 C   0  0  0  0  0  0  0  0  0  0  0  0
    0.3687    2.3287    0.0000 O   0  0  0  0  0  0  0  0  0  0  0  0
    3.9555   -1.4082    0.0000 N   0  0  0  0  0  0  0  0  0  0  0  0
   -3.9555   -1.8288    0.0000 C   0  0  0  0  0  0  0  0  0  0  0  0
   -3.1932   -2.4412    0.0000 C   0  0  3  0  0  0  0  0  0  0  0  0
    1.7184    2.6412    0.0000 C   0  0  0  0  0  0  0  0  0  0  0  0
    3.7056    2.3663    0.0000 C   0  0  0  0  0  0  0  0  0  0  0  0
   -3.3307   -3.4285    0.0000 C   0  0  0  0  0  0  0  0  0  0  0  0
    2.3308    3.4285    0.0000 C   0  0  0  0  0  0  0  0  0  0  0  0
    3.3307    3.2910    0.0000 C   0  0  0  0  0  0  0  0  0  0  0  0
  1  2  1  0  0  0  0
  3 12  1  0  0  0  0
  3  4  2  0  0  0  0
  1  5  1  0  0  0  0
  1  6  2  0  0  0  0
  4  7  1  0  0  0  0
  8  9  1  0  0  0  0
  7  8  2  0  0  0  0
  3  9  1  0  0  0  0
  5 10  1  0  0  0  0
 10 11  2  0  0  0  0
 12 18  1  0  0  0  0
  5 13  2  0  0  0  0
  2 14  1  0  0  0  0
 13 15  1  0  0  0  0
 11 15  1  0  0  0  0
  6 16  1  0  0  0  0
 14 16  2  0  0  0  0
  4 17  1  0  0  0  0
 18 19  1  0  0  0  0
  2 19  1  0  0  0  0
 17 20  3  0  0  0  0
  7 21  1  0  0  0  0
  8 22  1  0  0  0  0
 18 23  2  0  0  0  0
 10 24  1  0  0  0  0
 21 25  1  0  0  0  0
 25 26  1  0  0  0  0
 22 26  1  0  0  0  0
 26 29  1  0  0  0  0
 14 27  1  0  0  0  0
 16 28  1  0  0  0  0
 27 30  2  0  0  0  0
 28 31  2  0  0  0  0
 30 31  1  0  0  0  0
M  END
> <IDNUMBER>
8016-2378

> <available>
15

> <H_acceptor>
7

> <H_donor>
3

> <B_rotN>
6

> <N_O>
9

> <logP>
4.2503

> <logD>
2.8477

> <logSw>
-4.4837

> <PSA>
106.901

> <pKa_ma>
6.0149

> <pKa_mb>
3.9643

> <N_Chirals>
1

> <Name>
2-[2-(4-amino-1,2,5-oxadiazol-3-yl)-1H-benzimidazol-1-yl]-N-(3-cyano-6-methyl-4,5,6,7-tetrahydro-1-benzothiophen-2-yl)acetamide

> <Smile>
CC(CC1)Cc2c1c(C#N)c(NC(Cn1c(-c3nonc3N)nc3c1cccc3)=O)s2

> <Color>
BROWN

> <Collection>
DC

> <InChI>
InChI=1S/C21H19N7O2S/c1-11-6-7-12-13(9-22)21(31-16(12)8-11)25-17(29)10-28-15-5-3-2-4-14(15)24-20(28)18-19(23)27-30-26-18/h2-5,11H,6-8,10H2,1H3,(H2,23,27)(H,25,29)/t11-/m1/s1

> <InChI Key>
YYKQUXZJLHAVCS-LLVKDONJSA-N

> <PERCENTSP3>
28.57

> <Link>
https://www.chemdiv.com/catalog/screening-compounds/compound-8016-2378/

> <MFCDNUMBER>
MFCD05854943

> <CLNUMBER>
CL2888

> <STEREO>
RACEMIC MIXTURE

> <State>
Solid

> <Similarity score>
0.18

$$$$
N-(3-cyano-5,6-dihydro-4H-cyclopenta[b]thiophen-2-yl)-5-methyl-1,2-oxazole-3-car
  -OEChem-04222410502D

 19 21  0     0  0  0  0  0  0999 V2000
   -0.4729    0.8313    0.0000 C   0  0  0  0  0  0  0  0  0  0  0  0
   -1.4647    0.9355    0.0000 C   0  0  0  0  0  0  0  0  0  0  0  0
    1.5437   -0.9021    0.0000 C   0  0  0  0  0  0  0  0  0  0  0  0
   -0.0646    1.7063    0.0000 S   0  0  0  0  0  0  0  0  0  0  0  0
   -1.6521    1.8813    0.0000 C   0  0  0  0  0  0  0  0  0  0  0  0
    0.0438   -0.0479    0.0000 N   0  0  0  0  0  0  0  0  0  0  0  0
    2.5439   -1.0313    0.0000 N   0  0  0  0  0  0  0  0  0  0  0  0
   -0.8147    2.3813    0.0000 C   0  0  0  0  0  0  0  0  0  0  0  0
    1.0437   -0.0479    0.0000 C   0  0  0  0  0  0  0  0  0  0  0  0
    1.1729   -1.7897    0.0000 C   0  0  0  0  0  0  0  0  0  0  0  0
   -2.1272    0.1687    0.0000 C   0  0  0  0  0  0  0  0  0  0  0  0
    2.8022   -1.9313    0.0000 O   0  0  0  0  0  0  0  0  0  0  0  0
   -2.8022   -0.6104    0.0000 N   0  0  0  0  0  0  0  0  0  0  0  0
    1.9022   -2.4771    0.0000 C   0  0  0  0  0  0  0  0  0  0  0  0
    1.5437    0.8521    0.0000 O   0  0  0  0  0  0  0  0  0  0  0  0
   -2.4022    2.5730    0.0000 C   0  0  0  0  0  0  0  0  0  0  0  0
   -0.9897    3.3647    0.0000 C   0  0  0  0  0  0  0  0  0  0  0  0
   -1.9813    3.4897    0.0000 C   0  0  0  0  0  0  0  0  0  0  0  0
    1.8146   -3.4897    0.0000 C   0  0  0  0  0  0  0  0  0  0  0  0
  1  2  2  0  0  0  0
  3  9  1  0  0  0  0
  1  4  1  0  0  0  0
  2  5  1  0  0  0  0
  5  8  2  0  0  0  0
  1  6  1  0  0  0  0
  3  7  2  0  0  0  0
  4  8  1  0  0  0  0
  6  9  1  0  0  0  0
  3 10  1  0  0  0  0
  2 11  1  0  0  0  0
  7 12  1  0  0  0  0
 12 14  1  0  0  0  0
 11 13  3  0  0  0  0
 10 14  2  0  0  0  0
  9 15  2  0  0  0  0
  5 16  1  0  0  0  0
 16 18  1  0  0  0  0
  8 17  1  0  0  0  0
 17 18  1  0  0  0  0
 14 19  1  0  0  0  0
M  END
> <IDNUMBER>
Y205-4160

> <available>
16

> <H_acceptor>
5

> <H_donor>
1

> <B_rotN>
4

> <N_O>
5

> <logP>
2.6528

> <logD>
0.9621

> <logSw>
-3.007

> <PSA>
61.695

> <pKa_ma>
5.7183

> <pKa_mb>
-6.3814

> <N_Chirals>
0

> <Name>
N-(3-cyano-5,6-dihydro-4H-cyclopenta[b]thiophen-2-yl)-5-methyl-1,2-oxazole-3-carboxamide

> <Smile>
Cc1cc(C(Nc(sc2c3CCC2)c3C#N)=O)no1

> <Color>
BROWN

> <Collection>
DC

> <InChI>
InChI=1S/C13H11N3O2S/c1-7-5-10(16-18-7)12(17)15-13-9(6-14)8-3-2-4-11(8)19-13/h5H,2-4H2,1H3,(H,15,17)

> <InChI Key>
GVFCSNMGSRACHX-UHFFFAOYSA-N

> <PERCENTSP3>
30.77

> <Link>
https://www.chemdiv.com/catalog/screening-compounds/compound-Y205-4160/

> <MFCDNUMBER>
MFCD05025637

> <STEREO>
ACHIRAL

> <State>
Solid

> <Similarity score>
0.18

$$$$
N-benzyl-3-fluoro-3-[3-(pyridin-4-yl)-1,2,4-oxadiazol-5-yl]piperidine-1-carboxam
  -OEChem-04222410502D

 28 31  0     0  0  0  0  0  0999 V2000
   -0.6379    2.2394    0.0000 N   0  0  0  0  0  0  0  0  0  0  0  0
    0.3462    2.3960    0.0000 C   0  0  0  0  0  0  0  0  0  0  0  0
    1.0548    1.6910    0.0000 C   0  0  3  0  0  0  0  0  0  0  0  0
   -1.0892    3.1328    0.0000 C   0  0  0  0  0  0  0  0  0  0  0  0
   -0.3869    3.8347    0.0000 N   0  0  0  0  0  0  0  0  0  0  0  0
    2.5591    0.8258    0.0000 N   0  0  0  0  0  0  0  0  0  0  0  0
    3.0574   -0.0454    0.0000 C   0  0  0  0  0  0  0  0  0  0  0  0
    0.4998    3.3771    0.0000 O   0  0  0  0  0  0  0  0  0  0  0  0
    1.5531    0.8258    0.0000 C   0  0  0  0  0  0  0  0  0  0  0  0
    2.5591   -0.9106    0.0000 N   0  0  0  0  0  0  0  0  0  0  0  0
    4.0541   -0.0454    0.0000 O   0  0  0  0  0  0  0  0  0  0  0  0
   -2.0763    3.2798    0.0000 C   0  0  0  0  0  0  0  0  0  0  0  0
    0.6691    0.7600    0.0000 F   0  0  0  0  0  0  0  0  0  0  0  0
   -4.0541    3.5997    0.0000 N   0  0  0  0  0  0  0  0  0  0  0  0
    3.0574   -1.7788    0.0000 C   0  0  0  0  0  0  0  0  0  0  0  0
    1.5531    2.5560    0.0000 C   0  0  0  0  0  0  0  0  0  0  0  0
    3.0574    1.6910    0.0000 C   0  0  0  0  0  0  0  0  0  0  0  0
    2.5591   -2.6437    0.0000 C   0  0  0  0  0  0  0  0  0  0  0  0
    2.5591    2.5560    0.0000 C   0  0  0  0  0  0  0  0  0  0  0  0
   -3.6968    2.6593    0.0000 C   0  0  0  0  0  0  0  0  0  0  0  0
   -3.4240    4.3738    0.0000 C   0  0  0  0  0  0  0  0  0  0  0  0
   -2.7064    2.5122    0.0000 C   0  0  0  0  0  0  0  0  0  0  0  0
   -2.4369    4.2202    0.0000 C   0  0  0  0  0  0  0  0  0  0  0  0
    3.0574   -3.5089    0.0000 C   0  0  0  0  0  0  0  0  0  0  0  0
    1.5531   -2.6437    0.0000 C   0  0  0  0  0  0  0  0  0  0  0  0
    1.0548   -3.5089    0.0000 C   0  0  0  0  0  0  0  0  0  0  0  0
    2.5591   -4.3738    0.0000 C   0  0  0  0  0  0  0  0  0  0  0  0
    1.5531   -4.3738    0.0000 C   0  0  0  0  0  0  0  0  0  0  0  0
  1  2  2  0  0  0  0
  2  3  1  0  0  0  0
  1  4  1  0  0  0  0
  4  5  2  0  0  0  0
  5  8  1  0  0  0  0
  6  9  1  0  0  0  0
  6  7  1  0  0  0  0
  2  8  1  0  0  0  0
  3  9  1  0  0  0  0
  7 10  1  0  0  0  0
  7 11  2  0  0  0  0
  4 12  1  0  0  0  0
  3 13  1  0  0  0  0
 14 21  2  0  0  0  0
 14 20  1  0  0  0  0
 10 15  1  0  0  0  0
  3 16  1  0  0  0  0
 17 19  1  0  0  0  0
  6 17  1  0  0  0  0
 15 18  1  0  0  0  0
 16 19  1  0  0  0  0
 20 22  2  0  0  0  0
 21 23  1  0  0  0  0
 12 22  1  0  0  0  0
 12 23  2  0  0  0  0
 18 24  2  0  0  0  0
 18 25  1  0  0  0  0
 25 26  2  0  0  0  0
 24 27  1  0  0  0  0
 26 28  1  0  0  0  0
 27 28  2  0  0  0  0
M  END
> <IDNUMBER>
SA92-0271

> <available>
45

> <H_acceptor>
6

> <H_donor>
1

> <B_rotN>
6

> <N_O>
7

> <logP>
2.6415

> <logD>
2.6414

> <logSw>
-2.6934

> <PSA>
67.797

> <pKa_ma>
14.4198

> <pKa_mb>
3.6841

> <N_Chirals>
1

> <Name>
N-benzyl-3-fluoro-3-[3-(pyridin-4-yl)-1,2,4-oxadiazol-5-yl]piperidine-1-carboxamide

> <Smile>
O=C(NCc1ccccc1)N(CCC1)CC1(c1nc(-c2ccncc2)no1)F

> <Color>
YELLOW

> <Collection>
IC

> <InChI>
InChI=1S/C20H20FN5O2/c21-20(18-24-17(25-28-18)16-7-10-22-11-8-16)9-4-12-26(14-20)19(27)23-13-15-5-2-1-3-6-15/h1-3,5-8,10-11H,4,9,12-14H2,(H,23,27)/t20-/m0/s1

> <InChI Key>
WDDYMHAGSKZCSW-FQEVSTJZSA-N

> <PERCENTSP3>
30

> <Link>
https://www.chemdiv.com/catalog/screening-compounds/compound-SA92-0271/

> <MFCDNUMBER>
MFCD32242334

> <CLNUMBER>
CM4899

> <STEREO>
RACEMIC MIXTURE

> <State>
Liquid

> <Similarity score>
0.18

$$$$
2-[5-(4-methoxyphenyl)-1H-1,2,4-triazol-1-yl]-4,5,6,7-tetrahydro-1-benzothiophen
  -OEChem-04222410502D

 24 27  0     0  0  0  0  0  0999 V2000
    1.2521    0.3305    0.0000 C   0  0  0  0  0  0  0  0  0  0  0  0
    0.7092    1.1558    0.0000 N   0  0  0  0  0  0  0  0  0  0  0  0
    2.2384    0.3305    0.0000 C   0  0  0  0  0  0  0  0  0  0  0  0
    0.8986   -0.6306    0.0000 S   0  0  0  0  0  0  0  0  0  0  0  0
   -0.2590    1.1558    0.0000 C   0  0  0  0  0  0  0  0  0  0  0  0
    2.5385   -0.6771    0.0000 C   0  0  0  0  0  0  0  0  0  0  0  0
    1.7275   -1.2130    0.0000 C   0  0  0  0  0  0  0  0  0  0  0  0
   -0.5770    2.0990    0.0000 N   0  0  0  0  0  0  0  0  0  0  0  0
    1.0415    2.1241    0.0000 N   0  0  0  0  0  0  0  0  0  0  0  0
    2.7958    1.1558    0.0000 C   0  0  0  0  0  0  0  0  0  0  0  0
    0.2233    2.6886    0.0000 C   0  0  0  0  0  0  0  0  0  0  0  0
    3.3530    1.9812    0.0000 N   0  0  0  0  0  0  0  0  0  0  0  0
   -0.8235    0.3411    0.0000 C   0  0  0  0  0  0  0  0  0  0  0  0
   -1.8203    0.4091    0.0000 C   0  0  0  0  0  0  0  0  0  0  0  0
   -0.4163   -0.5592    0.0000 C   0  0  0  0  0  0  0  0  0  0  0  0
   -1.9631   -1.3166    0.0000 C   0  0  0  0  0  0  0  0  0  0  0  0
    3.4425   -1.1165    0.0000 C   0  0  0  0  0  0  0  0  0  0  0  0
   -0.9736   -1.3845    0.0000 C   0  0  0  0  0  0  0  0  0  0  0  0
   -2.3884   -0.4019    0.0000 C   0  0  0  0  0  0  0  0  0  0  0  0
    1.7704   -2.2312    0.0000 C   0  0  0  0  0  0  0  0  0  0  0  0
   -2.5206   -2.1348    0.0000 O   0  0  0  0  0  0  0  0  0  0  0  0
   -3.5068   -2.0705    0.0000 C   0  0  0  0  0  0  0  0  0  0  0  0
    3.5068   -2.1311    0.0000 C   0  0  0  0  0  0  0  0  0  0  0  0
    2.6564   -2.6886    0.0000 C   0  0  0  0  0  0  0  0  0  0  0  0
  1  2  1  0  0  0  0
  1  3  2  0  0  0  0
  1  4  1  0  0  0  0
  2  5  1  0  0  0  0
  3  6  1  0  0  0  0
  4  7  1  0  0  0  0
  6  7  2  0  0  0  0
  5  8  2  0  0  0  0
  8 11  1  0  0  0  0
  2  9  1  0  0  0  0
  3 10  1  0  0  0  0
  9 11  2  0  0  0  0
 10 12  3  0  0  0  0
  5 13  1  0  0  0  0
 13 14  2  0  0  0  0
 13 15  1  0  0  0  0
 16 18  1  0  0  0  0
 16 19  2  0  0  0  0
  6 17  1  0  0  0  0
 15 18  2  0  0  0  0
 14 19  1  0  0  0  0
  7 20  1  0  0  0  0
 16 21  1  0  0  0  0
 21 22  1  0  0  0  0
 17 23  1  0  0  0  0
 23 24  1  0  0  0  0
 20 24  1  0  0  0  0
M  END
> <IDNUMBER>
4073-0146

> <available>
149

> <H_acceptor>
4

> <H_donor>
0

> <B_rotN>
4

> <N_O>
5

> <logP>
4.313

> <logD>
4.313

> <logSw>
-4.495

> <PSA>
50.42

> <pKa_ma>
25.2661

> <pKa_mb>
2.5452

> <N_Chirals>
0

> <Name>
2-[5-(4-methoxyphenyl)-1H-1,2,4-triazol-1-yl]-4,5,6,7-tetrahydro-1-benzothiophene-3-carbonitrile

> <Smile>
COc(cc1)ccc1-c1ncnn1-c(sc1c2CCCC1)c2C#N

> <Color>
YELLOW

> <Collection>
DC

> <InChI>
InChI=1S/C18H16N4OS/c1-23-13-8-6-12(7-9-13)17-20-11-21-22(17)18-15(10-19)14-4-2-3-5-16(14)24-18/h6-9,11H,2-5H2,1H3

> <InChI Key>
GVRDXTJPIROCLJ-UHFFFAOYSA-N

> <PERCENTSP3>
27.8

> <Link>
https://www.chemdiv.com/catalog/screening-compounds/compound-4073-0146/

> <MFCDNUMBER>
MFCD01308468

> <STEREO>
ACHIRAL

> <State>
Solid

> <Similarity score>
0.18

$$$$
3-fluoro-3-(3-phenyl-1,2,4-oxadiazol-5-yl)-1-[(3,4,5-trimethoxyphenyl)methyl]pip
  -OEChem-04222410502D

 31 34  0     0  0  0  0  0  0999 V2000
    0.1362    2.2427    0.0000 N   0  0  0  0  0  0  0  0  0  0  0  0
   -0.8566    2.3994    0.0000 C   0  0  0  0  0  0  0  0  0  0  0  0
    0.5905    3.1357    0.0000 C   0  0  0  0  0  0  0  0  0  0  0  0
   -1.5551    1.6946    0.0000 C   0  0  3  0  0  0  0  0  0  0  0  0
   -0.1176    3.8372    0.0000 N   0  0  0  0  0  0  0  0  0  0  0  0
   -1.0103    3.3799    0.0000 O   0  0  0  0  0  0  0  0  0  0  0  0
   -2.0628   -2.6377    0.0000 C   0  0  0  0  0  0  0  0  0  0  0  0
   -3.0588    0.8238    0.0000 N   0  0  0  0  0  0  0  0  0  0  0  0
   -3.0588   -2.6377    0.0000 C   0  0  0  0  0  0  0  0  0  0  0  0
   -1.5551   -1.7728    0.0000 C   0  0  0  0  0  0  0  0  0  0  0  0
   -2.0628    0.8238    0.0000 C   0  0  0  0  0  0  0  0  0  0  0  0
   -3.0588   -0.9083    0.0000 C   0  0  0  0  0  0  0  0  0  0  0  0
   -3.5569   -1.7728    0.0000 C   0  0  0  0  0  0  0  0  0  0  0  0
   -2.0628   -0.9083    0.0000 C   0  0  0  0  0  0  0  0  0  0  0  0
    1.5773    3.2828    0.0000 C   0  0  0  0  0  0  0  0  0  0  0  0
   -3.5569   -0.0408    0.0000 C   0  0  0  0  0  0  0  0  0  0  0  0
   -1.1793    0.7644    0.0000 F   0  0  0  0  0  0  0  0  0  0  0  0
   -1.5551   -3.5082    0.0000 O   0  0  0  0  0  0  0  0  0  0  0  0
   -2.0628    2.5592    0.0000 C   0  0  0  0  0  0  0  0  0  0  0  0
   -3.5569   -3.5082    0.0000 O   0  0  0  0  0  0  0  0  0  0  0  0
   -0.5560   -1.7728    0.0000 O   0  0  0  0  0  0  0  0  0  0  0  0
   -3.5569    1.6946    0.0000 C   0  0  0  0  0  0  0  0  0  0  0  0
   -3.0588    2.5592    0.0000 C   0  0  0  0  0  0  0  0  0  0  0  0
    1.9342    4.2226    0.0000 C   0  0  0  0  0  0  0  0  0  0  0  0
    2.2069    2.5121    0.0000 C   0  0  0  0  0  0  0  0  0  0  0  0
   -0.5560   -3.5082    0.0000 C   0  0  0  0  0  0  0  0  0  0  0  0
   -0.0580   -2.6377    0.0000 C   0  0  0  0  0  0  0  0  0  0  0  0
   -3.0588   -4.3760    0.0000 C   0  0  0  0  0  0  0  0  0  0  0  0
    2.9273    4.3760    0.0000 C   0  0  0  0  0  0  0  0  0  0  0  0
    3.1997    2.6718    0.0000 C   0  0  0  0  0  0  0  0  0  0  0  0
    3.5569    3.6023    0.0000 C   0  0  0  0  0  0  0  0  0  0  0  0
  1  2  2  0  0  0  0
  1  3  1  0  0  0  0
  2  4  1  0  0  0  0
  3  5  2  0  0  0  0
  5  6  1  0  0  0  0
  2  6  1  0  0  0  0
  7 10  2  0  0  0  0
  7  9  1  0  0  0  0
  8 11  1  0  0  0  0
  9 13  2  0  0  0  0
 10 14  1  0  0  0  0
  4 11  1  0  0  0  0
 12 16  1  0  0  0  0
 12 13  1  0  0  0  0
 12 14  2  0  0  0  0
  3 15  1  0  0  0  0
  8 16  1  0  0  0  0
  4 17  1  0  0  0  0
  7 18  1  0  0  0  0
  4 19  1  0  0  0  0
  9 20  1  0  0  0  0
 10 21  1  0  0  0  0
 22 23  1  0  0  0  0
  8 22  1  0  0  0  0
 19 23  1  0  0  0  0
 15 24  2  0  0  0  0
 15 25  1  0  0  0  0
 18 26  1  0  0  0  0
 21 27  1  0  0  0  0
 20 28  1  0  0  0  0
 24 29  1  0  0  0  0
 25 30  2  0  0  0  0
 30 31  1  0  0  0  0
 29 31  2  0  0  0  0
M  END
> <IDNUMBER>
SA92-0038

> <available>
30

> <H_acceptor>
7

> <H_donor>
0

> <B_rotN>
7

> <N_O>
7

> <logP>
3.9608

> <logD>
2.0903

> <logSw>
-4.0767

> <PSA>
58.288

> <pKa_ma>
26.9519

> <pKa_mb>
9.2646

> <N_Chirals>
1

> <Name>
3-fluoro-3-(3-phenyl-1,2,4-oxadiazol-5-yl)-1-[(3,4,5-trimethoxyphenyl)methyl]piperidine

> <Smile>
COc1cc(CN(CCC2)CC2(c2nc(-c3ccccc3)no2)F)cc(OC)c1OC

> <Color>
ORANGE

> <Collection>
IC

> <InChI>
InChI=1S/C23H26FN3O4/c1-28-18-12-16(13-19(29-2)20(18)30-3)14-27-11-7-10-23(24,15-27)22-25-21(26-31-22)17-8-5-4-6-9-17/h4-6,8-9,12-13H,7,10-11,14-15H2,1-3H3/t23-/m0/s1

> <InChI Key>
HKNRHXMUOWUVDJ-QHCPKHFHSA-N

> <PERCENTSP3>
39.13

> <Link>
https://www.chemdiv.com/catalog/screening-compounds/compound-SA92-0038/

> <MFCDNUMBER>
MFCD32241812

> <CLNUMBER>
CM4899

> <STEREO>
RACEMIC MIXTURE

> <State>
Liquid

> <Similarity score>
0.18

$$$$
2-cyclopropyl-1-{3-fluoro-3-[3-(pyridin-4-yl)-1,2,4-oxadiazol-5-yl]piperidin-1-y
  -OEChem-04222410502D

 24 27  0     0  0  0  0  0  0999 V2000
   -0.5656    1.4701    0.0000 N   0  0  0  0  0  0  0  0  0  0  0  0
    0.3527    1.8837    0.0000 C   0  0  0  0  0  0  0  0  0  0  0  0
    1.2114    1.3792    0.0000 C   0  0  3  0  0  0  0  0  0  0  0  0
   -1.2333    2.2224    0.0000 C   0  0  0  0  0  0  0  0  0  0  0  0
   -0.7349    3.0811    0.0000 N   0  0  0  0  0  0  0  0  0  0  0  0
    2.7159    0.5204    0.0000 N   0  0  0  0  0  0  0  0  0  0  0  0
    0.2430    2.8806    0.0000 O   0  0  0  0  0  0  0  0  0  0  0  0
    3.2144   -0.3510    0.0000 C   0  0  0  0  0  0  0  0  0  0  0  0
    1.7193    0.5204    0.0000 C   0  0  0  0  0  0  0  0  0  0  0  0
    3.2144   -2.0811    0.0000 C   0  0  0  0  0  0  0  0  0  0  0  0
    2.7159   -1.2192    0.0000 C   0  0  0  0  0  0  0  0  0  0  0  0
    3.2144   -3.0811    0.0000 C   0  0  0  0  0  0  0  0  0  0  0  0
    4.0795   -2.5827    0.0000 C   0  0  0  0  0  0  0  0  0  0  0  0
   -2.2302    2.1127    0.0000 C   0  0  0  0  0  0  0  0  0  0  0  0
    4.2173   -0.3510    0.0000 O   0  0  0  0  0  0  0  0  0  0  0  0
    0.3527    0.8808    0.0000 F   0  0  0  0  0  0  0  0  0  0  0  0
   -4.2173    1.9027    0.0000 N   0  0  0  0  0  0  0  0  0  0  0  0
    1.7193    2.2506    0.0000 C   0  0  0  0  0  0  0  0  0  0  0  0
    3.2144    1.3792    0.0000 C   0  0  0  0  0  0  0  0  0  0  0  0
    2.7159    2.2506    0.0000 C   0  0  0  0  0  0  0  0  0  0  0  0
   -3.8130    2.8241    0.0000 C   0  0  0  0  0  0  0  0  0  0  0  0
   -3.6311    1.0940    0.0000 C   0  0  0  0  0  0  0  0  0  0  0  0
   -2.8224    2.9214    0.0000 C   0  0  0  0  0  0  0  0  0  0  0  0
   -2.6345    1.2005    0.0000 C   0  0  0  0  0  0  0  0  0  0  0  0
  1  2  2  0  0  0  0
  2  3  1  0  0  0  0
  1  4  1  0  0  0  0
  4  5  2  0  0  0  0
  5  7  1  0  0  0  0
  6  9  1  0  0  0  0
  2  7  1  0  0  0  0
  6  8  1  0  0  0  0
  3  9  1  0  0  0  0
 10 11  1  0  0  0  0
  8 11  1  0  0  0  0
 10 12  1  0  0  0  0
 12 13  1  0  0  0  0
 10 13  1  0  0  0  0
  4 14  1  0  0  0  0
  8 15  2  0  0  0  0
  3 16  1  0  0  0  0
 17 22  1  0  0  0  0
 17 21  2  0  0  0  0
  3 18  1  0  0  0  0
 19 20  1  0  0  0  0
  6 19  1  0  0  0  0
 18 20  1  0  0  0  0
 21 23  1  0  0  0  0
 22 24  2  0  0  0  0
 14 23  2  0  0  0  0
 14 24  1  0  0  0  0
M  END
> <IDNUMBER>
SA92-0206

> <available>
82

> <H_acceptor>
6

> <H_donor>
0

> <B_rotN>
5

> <N_O>
6

> <logP>
2.2295

> <logD>
2.2295

> <logSw>
-2.2685

> <PSA>
57.65

> <pKa_ma>
23.8009

> <pKa_mb>
3.6841

> <N_Chirals>
1

> <Name>
2-cyclopropyl-1-{3-fluoro-3-[3-(pyridin-4-yl)-1,2,4-oxadiazol-5-yl]piperidin-1-yl}ethan-1-one

> <Smile>
O=C(CC1CC1)N(CCC1)CC1(c1nc(-c2ccncc2)no1)F

> <Color>
YELLOW

> <Collection>
IC

> <InChI>
InChI=1S/C17H19FN4O2/c18-17(6-1-9-22(11-17)14(23)10-12-2-3-12)16-20-15(21-24-16)13-4-7-19-8-5-13/h4-5,7-8,12H,1-3,6,9-11H2/t17-/m0/s1

> <InChI Key>
HBCYOPQXHLBHSJ-KRWDZBQOSA-N

> <PERCENTSP3>
52.94

> <Link>
https://www.chemdiv.com/catalog/screening-compounds/compound-SA92-0206/

> <MFCDNUMBER>
MFCD32241697

> <CLNUMBER>
CM4899

> <STEREO>
RACEMIC MIXTURE

> <State>
Liquid

> <Similarity score>
0.18

$$$$
3-(2H-1,3-benzodioxol-5-yl)-N-(3-cyano-5,6-dihydro-4H-cyclopenta[b]thiophen-2-yl
  -OEChem-04222410502D

 32 37  0     0  0  0  0  0  0999 V2000
    1.5853    0.6562    0.0000 C   0  0  0  0  0  0  0  0  0  0  0  0
    2.5562    0.7187    0.0000 C   0  0  0  0  0  0  0  0  0  0  0  0
   -1.4105   -1.0770    0.0000 C   0  0  0  0  0  0  0  0  0  0  0  0
   -1.9062   -1.9438    0.0000 C   0  0  0  0  0  0  0  0  0  0  0  0
   -0.4147   -1.0770    0.0000 C   0  0  0  0  0  0  0  0  0  0  0  0
   -2.9896   -0.7438    0.0000 N   0  0  0  0  0  0  0  0  0  0  0  0
   -2.0854   -0.3396    0.0000 C   0  0  0  0  0  0  0  0  0  0  0  0
    1.2312    1.6270    0.0000 S   0  0  0  0  0  0  0  0  0  0  0  0
    2.8353    1.6646    0.0000 C   0  0  0  0  0  0  0  0  0  0  0  0
    1.0896   -0.2104    0.0000 N   0  0  0  0  0  0  0  0  0  0  0  0
    0.0811   -0.2104    0.0000 C   0  0  0  0  0  0  0  0  0  0  0  0
    2.0312    2.2478    0.0000 C   0  0  0  0  0  0  0  0  0  0  0  0
   -2.8853   -1.7271    0.0000 O   0  0  0  0  0  0  0  0  0  0  0  0
   -1.4105   -2.8104    0.0000 N   0  0  0  0  0  0  0  0  0  0  0  0
   -2.1105    0.6562    0.0000 C   0  0  0  0  0  0  0  0  0  0  0  0
    3.2062   -0.0689    0.0000 C   0  0  0  0  0  0  0  0  0  0  0  0
    3.8188   -0.8354    0.0000 N   0  0  0  0  0  0  0  0  0  0  0  0
   -3.0396    2.1229    0.0000 C   0  0  0  0  0  0  0  0  0  0  0  0
   -3.0022    1.1271    0.0000 C   0  0  0  0  0  0  0  0  0  0  0  0
    0.0811   -1.9438    0.0000 C   0  0  0  0  0  0  0  0  0  0  0  0
   -2.1980    2.6562    0.0000 C   0  0  0  0  0  0  0  0  0  0  0  0
   -3.8188    2.7605    0.0000 O   0  0  0  0  0  0  0  0  0  0  0  0
   -0.4147   -2.8104    0.0000 C   0  0  0  0  0  0  0  0  0  0  0  0
   -2.4521    3.6271    0.0000 O   0  0  0  0  0  0  0  0  0  0  0  0
   -0.4147    0.6562    0.0000 O   0  0  0  0  0  0  0  0  0  0  0  0
   -3.4479    3.6896    0.0000 C   0  0  0  0  0  0  0  0  0  0  0  0
   -1.2687    1.1937    0.0000 C   0  0  0  0  0  0  0  0  0  0  0  0
   -1.3062    2.1978    0.0000 C   0  0  0  0  0  0  0  0  0  0  0  0
    3.6396    2.2895    0.0000 C   0  0  0  0  0  0  0  0  0  0  0  0
    2.3146    3.2187    0.0000 C   0  0  0  0  0  0  0  0  0  0  0  0
    3.2938    3.2187    0.0000 C   0  0  0  0  0  0  0  0  0  0  0  0
    0.0937   -3.6896    0.0000 C   0  0  0  0  0  0  0  0  0  0  0  0
  1  2  2  0  0  0  0
  3  5  1  0  0  0  0
  3  4  2  0  0  0  0
  4 14  1  0  0  0  0
  5 11  1  0  0  0  0
  6  7  2  0  0  0  0
  3  7  1  0  0  0  0
  1  8  1  0  0  0  0
  2  9  1  0  0  0  0
  9 12  2  0  0  0  0
  1 10  1  0  0  0  0
 10 11  1  0  0  0  0
  8 12  1  0  0  0  0
  4 13  1  0  0  0  0
  6 13  1  0  0  0  0
 14 23  2  0  0  0  0
  7 15  1  0  0  0  0
  2 16  1  0  0  0  0
 16 17  3  0  0  0  0
 18 19  1  0  0  0  0
 18 21  2  0  0  0  0
 15 19  2  0  0  0  0
  5 20  2  0  0  0  0
 21 28  1  0  0  0  0
 18 22  1  0  0  0  0
 20 23  1  0  0  0  0
 21 24  1  0  0  0  0
 11 25  2  0  0  0  0
 22 26  1  0  0  0  0
 24 26  1  0  0  0  0
 15 27  1  0  0  0  0
 27 28  2  0  0  0  0
  9 29  1  0  0  0  0
 29 31  1  0  0  0  0
 12 30  1  0  0  0  0
 30 31  1  0  0  0  0
 23 32  1  0  0  0  0
M  END
> <IDNUMBER>
Y501-2683

> <available>
13

> <H_acceptor>
8

> <H_donor>
1

> <B_rotN>
5

> <N_O>
8

> <logP>
4.2591

> <logD>
2.7337

> <logSw>
-4.5644

> <PSA>
88.105

> <pKa_ma>
5.8877

> <pKa_mb>
-1.9333

> <N_Chirals>
0

> <Name>
3-(2H-1,3-benzodioxol-5-yl)-N-(3-cyano-5,6-dihydro-4H-cyclopenta[b]thiophen-2-yl)-6-methyl[1,2]oxazolo[5,4-b]pyridine-4-carboxamide

> <Smile>
Cc1cc(C(Nc(sc2c3CCC2)c3C#N)=O)c(c(-c(cc2)cc3c2OCO3)no2)c2n1

> <Color>
BROWN

> <Collection>
DC

> <InChI>
InChI=1S/C23H16N4O4S/c1-11-7-14(21(28)26-23-15(9-24)13-3-2-4-18(13)32-23)19-20(27-31-22(19)25-11)12-5-6-16-17(8-12)30-10-29-16/h5-8H,2-4,10H2,1H3,(H,26,28)

> <InChI Key>
GSFFRALGTHMSLX-UHFFFAOYSA-N

> <PERCENTSP3>
21.74

> <Link>
https://www.chemdiv.com/catalog/screening-compounds/compound-Y501-2683/

> <MFCDNUMBER>
MFCD08557785

> <CLNUMBER>
CL7490

> <STEREO>
ACHIRAL

> <State>
Solid

> <Similarity score>
0.18

$$$$
