2-amino-6-tert-butyl-4,5,6,7-tetrahydro-1-benzothiophene-3-carbonitrile
  -OEChem-04222410502D

 16 17  0     0  0  0  0  0  0999 V2000
    1.4271    0.4072    0.0000 C   0  0  0  0  0  0  0  0  0  0  0  0
    1.9993   -0.4100    0.0000 C   0  0  0  0  0  0  0  0  0  0  0  0
    0.4664   -0.9057    0.0000 C   0  0  0  0  0  0  0  0  0  0  0  0
    0.4664    0.1106    0.0000 C   0  0  0  0  0  0  0  0  0  0  0  0
    1.4271   -1.2203    0.0000 S   0  0  0  0  0  0  0  0  0  0  0  0
    1.7528    1.3386    0.0000 C   0  0  0  0  0  0  0  0  0  0  0  0
   -0.3996   -1.4208    0.0000 C   0  0  0  0  0  0  0  0  0  0  0  0
    2.0786    2.2687    0.0000 N   0  0  0  0  0  0  0  0  0  0  0  0
   -0.3996    0.6063    0.0000 C   0  0  0  0  0  0  0  0  0  0  0  0
   -1.2655   -0.9057    0.0000 C   0  0  3  0  0  0  0  0  0  0  0  0
   -2.1343   -1.4027    0.0000 C   0  0  0  0  0  0  0  0  0  0  0  0
    2.9934   -0.4100    0.0000 N   0  0  0  0  0  0  0  0  0  0  0  0
   -1.2655    0.1106    0.0000 C   0  0  0  0  0  0  0  0  0  0  0  0
   -2.9934   -1.8831    0.0000 C   0  0  0  0  0  0  0  0  0  0  0  0
   -1.6372   -2.2687    0.0000 C   0  0  0  0  0  0  0  0  0  0  0  0
   -2.6313   -0.5340    0.0000 C   0  0  0  0  0  0  0  0  0  0  0  0
  1  2  2  0  0  0  0
  3  4  2  0  0  0  0
  3  5  1  0  0  0  0
  1  4  1  0  0  0  0
  2  5  1  0  0  0  0
  1  6  1  0  0  0  0
  3  7  1  0  0  0  0
  6  8  3  0  0  0  0
  4  9  1  0  0  0  0
 10 13  1  0  0  0  0
 10 11  1  0  0  0  0
  7 10  1  0  0  0  0
 11 14  1  0  0  0  0
  2 12  1  0  0  0  0
  9 13  1  0  0  0  0
 11 15  1  0  0  0  0
 11 16  1  0  0  0  0
M  END
> <IDNUMBER>
8010-3876

> <available>
13

> <H_acceptor>
1

> <H_donor>
2

> <B_rotN>
2

> <N_O>
2

> <logP>
3.7035

> <logD>
3.7035

> <logSw>
-4.2816

> <PSA>
38.492

> <pKa_ma>
15.9936

> <pKa_mb>
-2.1439

> <N_Chirals>
1

> <Name>
2-amino-6-tert-butyl-4,5,6,7-tetrahydro-1-benzothiophene-3-carbonitrile

> <Smile>
CC(C)(C)C(CC1)Cc2c1c(C#N)c(N)s2

> <Color>
NOT COLORED

> <Collection>
DC

> <InChI>
InChI=1S/C13H18N2S/c1-13(2,3)8-4-5-9-10(7-14)12(15)16-11(9)6-8/h8H,4-6,15H2,1-3H3/t8-/m1/s1

> <InChI Key>
QDIYAWBTKKYATE-MRVPVSSYSA-N

> <PERCENTSP3>
61.5

> <Link>
https://www.chemdiv.com/catalog/screening-compounds/compound-8010-3876/

> <MFCDNUMBER>
MFCD00128283

> <STEREO>
RACEMIC MIXTURE

> <State>
Solid

> <Similarity score>
0.21

$$$$
2-amino-6-(2-methylbutan-2-yl)-4,5,6,7-tetrahydro-1-benzothiophene-3-carbonitril
  -OEChem-04222410502D

 17 18  0     0  0  0  0  0  0999 V2000
    1.6932   -0.4603    0.0000 C   0  0  0  0  0  0  0  0  0  0  0  0
    1.3725   -1.3892    0.0000 C   0  0  0  0  0  0  0  0  0  0  0  0
    0.0688   -0.4603    0.0000 C   0  0  0  0  0  0  0  0  0  0  0  0
    0.8643    0.1437    0.0000 C   0  0  0  0  0  0  0  0  0  0  0  0
    0.4186   -1.3892    0.0000 S   0  0  0  0  0  0  0  0  0  0  0  0
    2.6471   -0.2062    0.0000 C   0  0  0  0  0  0  0  0  0  0  0  0
   -0.8267   -0.0479    0.0000 C   0  0  0  0  0  0  0  0  0  0  0  0
    3.6093    0.0479    0.0000 N   0  0  0  0  0  0  0  0  0  0  0  0
    0.7685    1.1350    0.0000 C   0  0  0  0  0  0  0  0  0  0  0  0
   -0.9559    0.9434    0.0000 C   0  0  3  0  0  0  0  0  0  0  0  0
   -1.9139    1.3225    0.0000 C   0  0  0  0  0  0  0  0  0  0  0  0
    1.9472   -2.2514    0.0000 N   0  0  0  0  0  0  0  0  0  0  0  0
   -0.1561    1.5474    0.0000 C   0  0  0  0  0  0  0  0  0  0  0  0
   -2.8428    1.6766    0.0000 C   0  0  0  0  0  0  0  0  0  0  0  0
   -1.5307    2.2514    0.0000 C   0  0  0  0  0  0  0  0  0  0  0  0
   -2.2639    0.3686    0.0000 C   0  0  0  0  0  0  0  0  0  0  0  0
   -3.6093    1.0559    0.0000 C   0  0  0  0  0  0  0  0  0  0  0  0
  1  2  2  0  0  0  0
  3  4  2  0  0  0  0
  3  5  1  0  0  0  0
  1  4  1  0  0  0  0
  2  5  1  0  0  0  0
  1  6  1  0  0  0  0
  3  7  1  0  0  0  0
  7 10  1  0  0  0  0
  6  8  3  0  0  0  0
  4  9  1  0  0  0  0
 10 13  1  0  0  0  0
 10 11  1  0  0  0  0
  2 12  1  0  0  0  0
  9 13  1  0  0  0  0
 11 14  1  0  0  0  0
 11 15  1  0  0  0  0
 11 16  1  0  0  0  0
 14 17  1  0  0  0  0
M  END
> <IDNUMBER>
Y503-0012

> <available>
20

> <H_acceptor>
1

> <H_donor>
2

> <B_rotN>
3

> <N_O>
2

> <logP>
3.612

> <logD>
3.612

> <logSw>
-3.9177

> <PSA>
38.492

> <pKa_ma>
15.9936

> <pKa_mb>
-2.1439

> <N_Chirals>
1

> <Name>
2-amino-6-(2-methylbutan-2-yl)-4,5,6,7-tetrahydro-1-benzothiophene-3-carbonitrile

> <Smile>
CCC(C)(C)C(CC1)Cc2c1c(C#N)c(N)s2

> <Color>
ORANGE

> <Collection>
DC

> <InChI>
InChI=1S/C14H20N2S/c1-4-14(2,3)9-5-6-10-11(8-15)13(16)17-12(10)7-9/h9H,4-7,16H2,1-3H3/t9-/m1/s1

> <InChI Key>
KWZDWUOSGNGFOU-SECBINFHSA-N

> <PERCENTSP3>
64.29

> <Link>
https://www.chemdiv.com/catalog/screening-compounds/compound-Y503-0012/

> <MFCDNUMBER>
MFCD01335783

> <STEREO>
RACEMIC MIXTURE

> <State>
Solid

> <Similarity score>
0.21

$$$$
N-(6-tert-butyl-3-cyano-4,5,6,7-tetrahydro-1-benzothiophen-2-yl)-6-methyl-3-phen
  -OEChem-04222410502D

 34 38  0     0  0  0  0  0  0999 V2000
   -0.2772   -1.0770    0.0000 C   0  0  0  0  0  0  0  0  0  0  0  0
    0.0270   -2.0227    0.0000 C   0  0  0  0  0  0  0  0  0  0  0  0
   -2.7520    1.4020    0.0000 C   0  0  0  0  0  0  0  0  0  0  0  0
   -3.7185    1.6687    0.0000 C   0  0  0  0  0  0  0  0  0  0  0  0
    1.3227   -0.9687    0.0000 C   0  0  0  0  0  0  0  0  0  0  0  0
    1.1188   -1.9102    0.0000 C   0  0  0  0  0  0  0  0  0  0  0  0
    0.4688   -0.4394    0.0000 S   0  0  0  0  0  0  0  0  0  0  0  0
   -2.5021    0.4355    0.0000 C   0  0  0  0  0  0  0  0  0  0  0  0
   -2.8270    3.0229    0.0000 N   0  0  0  0  0  0  0  0  0  0  0  0
   -2.2021    2.2354    0.0000 C   0  0  0  0  0  0  0  0  0  0  0  0
   -1.2853   -0.7977    0.0000 N   0  0  0  0  0  0  0  0  0  0  0  0
   -1.5354    0.1687    0.0000 C   0  0  0  0  0  0  0  0  0  0  0  0
   -3.7645    2.6687    0.0000 O   0  0  0  0  0  0  0  0  0  0  0  0
   -4.4310    0.9646    0.0000 N   0  0  0  0  0  0  0  0  0  0  0  0
   -0.4355   -2.8562    0.0000 C   0  0  0  0  0  0  0  0  0  0  0  0
    2.3061   -0.6478    0.0000 C   0  0  0  0  0  0  0  0  0  0  0  0
   -0.9187   -3.7062    0.0000 N   0  0  0  0  0  0  0  0  0  0  0  0
    1.8603   -2.6019    0.0000 C   0  0  0  0  0  0  0  0  0  0  0  0
    3.0102   -1.3186    0.0000 C   0  0  3  0  0  0  0  0  0  0  0  0
   -3.2145   -0.2645    0.0000 C   0  0  0  0  0  0  0  0  0  0  0  0
   -4.1769   -0.0021    0.0000 C   0  0  0  0  0  0  0  0  0  0  0  0
    3.9560   -1.0103    0.0000 C   0  0  0  0  0  0  0  0  0  0  0  0
   -0.8271    0.8688    0.0000 O   0  0  0  0  0  0  0  0  0  0  0  0
   -1.2312    2.4895    0.0000 C   0  0  0  0  0  0  0  0  0  0  0  0
    2.8352   -2.2853    0.0000 C   0  0  0  0  0  0  0  0  0  0  0  0
    3.6437   -0.0646    0.0000 C   0  0  0  0  0  0  0  0  0  0  0  0
    4.2600   -1.9437    0.0000 C   0  0  0  0  0  0  0  0  0  0  0  0
    4.8894   -0.7064    0.0000 C   0  0  0  0  0  0  0  0  0  0  0  0
   -4.8894   -0.7064    0.0000 C   0  0  0  0  0  0  0  0  0  0  0  0
   -0.5313    1.7771    0.0000 C   0  0  0  0  0  0  0  0  0  0  0  0
   -0.9728    3.4560    0.0000 C   0  0  0  0  0  0  0  0  0  0  0  0
    0.4355    2.0311    0.0000 C   0  0  0  0  0  0  0  0  0  0  0  0
   -0.0105    3.7062    0.0000 C   0  0  0  0  0  0  0  0  0  0  0  0
    0.6937    2.9978    0.0000 C   0  0  0  0  0  0  0  0  0  0  0  0
  1  2  2  0  0  0  0
  3  8  1  0  0  0  0
  3  4  2  0  0  0  0
  5  7  1  0  0  0  0
  5  6  2  0  0  0  0
  2  6  1  0  0  0  0
  1  7  1  0  0  0  0
  8 12  1  0  0  0  0
  9 10  2  0  0  0  0
  9 13  1  0  0  0  0
  3 10  1  0  0  0  0
  1 11  1  0  0  0  0
 11 12  1  0  0  0  0
  4 13  1  0  0  0  0
 14 21  2  0  0  0  0
  4 14  1  0  0  0  0
  2 15  1  0  0  0  0
  5 16  1  0  0  0  0
 15 17  3  0  0  0  0
  6 18  1  0  0  0  0
 16 19  1  0  0  0  0
 19 25  1  0  0  0  0
  8 20  2  0  0  0  0
 20 21  1  0  0  0  0
 19 22  1  0  0  0  0
 12 23  2  0  0  0  0
 10 24  1  0  0  0  0
 18 25  1  0  0  0  0
 22 26  1  0  0  0  0
 22 27  1  0  0  0  0
 22 28  1  0  0  0  0
 21 29  1  0  0  0  0
 24 30  2  0  0  0  0
 24 31  1  0  0  0  0
 30 32  1  0  0  0  0
 31 33  2  0  0  0  0
 33 34  1  0  0  0  0
 32 34  2  0  0  0  0
M  END
> <IDNUMBER>
Y501-3243

> <available>
22

> <H_acceptor>
6

> <H_donor>
1

> <B_rotN>
6

> <N_O>
6

> <logP>
6.1127

> <logD>
4.6073

> <logSw>
-5.8344

> <PSA>
70.624

> <pKa_ma>
5.9084

> <pKa_mb>
-1.9333

> <N_Chirals>
1

> <Name>
N-(6-tert-butyl-3-cyano-4,5,6,7-tetrahydro-1-benzothiophen-2-yl)-6-methyl-3-phenyl[1,2]oxazolo[5,4-b]pyridine-4-carboxamide

> <Smile>
CC(C)(C)C(CC1)Cc2c1c(C#N)c(NC(c1c(c(-c3ccccc3)no3)c3nc(C)c1)=O)s2

> <Color>
BROWN

> <Collection>
DC

> <InChI>
InChI=1S/C27H26N4O2S/c1-15-12-19(22-23(31-33-25(22)29-15)16-8-6-5-7-9-16)24(32)30-26-20(14-28)18-11-10-17(27(2,3)4)13-21(18)34-26/h5-9,12,17H,10-11,13H2,1-4H3,(H,30,32)/t17-/m1/s1

> <InChI Key>
UNLHKJVPYHSOBN-QGZVFWFLSA-N

> <PERCENTSP3>
33.33

> <Link>
https://www.chemdiv.com/catalog/screening-compounds/compound-Y501-3243/

> <MFCDNUMBER>
MFCD08558513

> <CLNUMBER>
CL7490

> <STEREO>
RACEMIC MIXTURE

> <State>
Solid

> <Similarity score>
0.21

$$$$
N-(6-tert-butyl-3-cyano-4,5,6,7-tetrahydro-1-benzothiophen-2-yl)-7-methoxy-4,5-d
  -OEChem-04222410502D

 33 37  0     0  0  0  0  0  0999 V2000
   -0.6047   -1.6597    0.0000 C   0  0  0  0  0  0  0  0  0  0  0  0
    0.2101    1.4626    0.0000 C   0  0  0  0  0  0  0  0  0  0  0  0
   -1.4111   -2.2203    0.0000 C   0  0  0  0  0  0  0  0  0  0  0  0
    0.9934    2.0375    0.0000 C   0  0  0  0  0  0  0  0  0  0  0  0
    0.7104    2.9580    0.0000 C   0  0  0  0  0  0  0  0  0  0  0  0
   -0.5591    2.0459    0.0000 N   0  0  0  0  0  0  0  0  0  0  0  0
   -0.1271   -3.2009    0.0000 C   0  0  0  0  0  0  0  0  0  0  0  0
   -1.1338   -3.1810    0.0000 C   0  0  0  0  0  0  0  0  0  0  0  0
    0.1956   -2.2632    0.0000 S   0  0  0  0  0  0  0  0  0  0  0  0
    0.2557   -0.1498    0.0000 C   0  0  0  0  0  0  0  0  0  0  0  0
   -0.2557    2.9580    0.0000 O   0  0  0  0  0  0  0  0  0  0  0  0
   -0.6047   -0.6505    0.0000 N   0  0  0  0  0  0  0  0  0  0  0  0
    1.3569    3.6701    0.0000 C   0  0  0  0  0  0  0  0  0  0  0  0
   -2.3546   -1.8858    0.0000 C   0  0  0  0  0  0  0  0  0  0  0  0
    2.2947    3.4583    0.0000 C   0  0  0  0  0  0  0  0  0  0  0  0
    1.9430    1.8257    0.0000 C   0  0  0  0  0  0  0  0  0  0  0  0
    0.3473   -4.0786    0.0000 C   0  0  0  0  0  0  0  0  0  0  0  0
   -3.3068   -1.5540    0.0000 N   0  0  0  0  0  0  0  0  0  0  0  0
   -1.6486   -4.0273    0.0000 C   0  0  0  0  0  0  0  0  0  0  0  0
   -0.1818   -4.9338    0.0000 C   0  0  3  0  0  0  0  0  0  0  0  0
    1.0708    4.5906    0.0000 C   0  0  0  0  0  0  0  0  0  0  0  0
    0.2958   -5.8259    0.0000 C   0  0  0  0  0  0  0  0  0  0  0  0
    1.0794   -0.6646    0.0000 O   0  0  0  0  0  0  0  0  0  0  0  0
    2.5922    2.5464    0.0000 C   0  0  0  0  0  0  0  0  0  0  0  0
    2.9437    4.1675    0.0000 C   0  0  0  0  0  0  0  0  0  0  0  0
   -1.1680   -4.9052    0.0000 C   0  0  0  0  0  0  0  0  0  0  0  0
    2.6576    5.0911    0.0000 C   0  0  0  0  0  0  0  0  0  0  0  0
    1.7198    5.3025    0.0000 C   0  0  0  0  0  0  0  0  0  0  0  0
    3.3068    5.8001    0.0000 O   0  0  0  0  0  0  0  0  0  0  0  0
   -0.6047   -6.2949    0.0000 C   0  0  0  0  0  0  0  0  0  0  0  0
    1.1853   -5.3626    0.0000 C   0  0  0  0  0  0  0  0  0  0  0  0
    0.7564   -6.7238    0.0000 C   0  0  0  0  0  0  0  0  0  0  0  0
    3.0211    6.7238    0.0000 C   0  0  0  0  0  0  0  0  0  0  0  0
  2 10  1  0  0  0  0
  1  3  2  0  0  0  0
  2  4  1  0  0  0  0
  4  5  2  0  0  0  0
  5 11  1  0  0  0  0
  2  6  2  0  0  0  0
  7  9  1  0  0  0  0
  7  8  2  0  0  0  0
  3  8  1  0  0  0  0
  1  9  1  0  0  0  0
 10 12  1  0  0  0  0
  6 11  1  0  0  0  0
  1 12  1  0  0  0  0
  5 13  1  0  0  0  0
 13 15  2  0  0  0  0
  3 14  1  0  0  0  0
 15 24  1  0  0  0  0
  4 16  1  0  0  0  0
  7 17  1  0  0  0  0
 14 18  3  0  0  0  0
  8 19  1  0  0  0  0
 17 20  1  0  0  0  0
 13 21  1  0  0  0  0
 20 22  1  0  0  0  0
 10 23  2  0  0  0  0
 16 24  1  0  0  0  0
 15 25  1  0  0  0  0
 19 26  1  0  0  0  0
 20 26  1  0  0  0  0
 25 27  2  0  0  0  0
 21 28  2  0  0  0  0
 27 28  1  0  0  0  0
 27 29  1  0  0  0  0
 22 30  1  0  0  0  0
 22 31  1  0  0  0  0
 22 32  1  0  0  0  0
 29 33  1  0  0  0  0
M  END
> <IDNUMBER>
C226-4089

> <available>
179

> <H_acceptor>
6

> <H_donor>
1

> <B_rotN>
6

> <N_O>
6

> <logP>
6.4941

> <logD>
4.7214

> <logSw>
-5.7453

> <PSA>
69.726

> <pKa_ma>
5.6347

> <pKa_mb>
-6.2231

> <N_Chirals>
1

> <Name>
N-(6-tert-butyl-3-cyano-4,5,6,7-tetrahydro-1-benzothiophen-2-yl)-7-methoxy-4,5-dihydronaphtho[2,1-d][1,2]oxazole-3-carboxamide

> <Smile>
CC(C)(C)C(CC1)Cc2c1c(C#N)c(NC(c1noc-3c1CCc1c3ccc(OC)c1)=O)s2

> <Color>
PINK

> <Collection>
DC

> <InChI>
InChI=1S/C26H27N3O3S/c1-26(2,3)15-6-9-18-20(13-27)25(33-21(18)12-15)28-24(30)22-19-8-5-14-11-16(31-4)7-10-17(14)23(19)32-29-22/h7,10-11,15H,5-6,8-9,12H2,1-4H3,(H,28,30)/t15-/m1/s1

> <InChI Key>
WFZSOGLSFMECFP-OAHLLOKOSA-N

> <PERCENTSP3>
42.3

> <Link>
https://www.chemdiv.com/catalog/screening-compounds/compound-C226-4089/

> <MFCDNUMBER>
MFCD09783258

> <CLNUMBER>
CL6931

> <STEREO>
RACEMIC MIXTURE

> <State>
Solid

> <Similarity score>
0.21

$$$$
N-(3-cyano-4,5,6,7-tetrahydro-1-benzothiophen-2-yl)-6-cyclopropyl-3-(4-methoxyph
  -OEChem-04222410502D

 34 39  0     0  0  0  0  0  0999 V2000
    0.1208    1.0978    0.0000 C   0  0  0  0  0  0  0  0  0  0  0  0
    0.3457    2.0935    0.0000 C   0  0  0  0  0  0  0  0  0  0  0  0
    0.7833   -2.2935    0.0000 C   0  0  0  0  0  0  0  0  0  0  0  0
    1.4415   -3.0433    0.0000 C   0  0  0  0  0  0  0  0  0  0  0  0
    1.1081   -1.3435    0.0000 C   0  0  0  0  0  0  0  0  0  0  0  0
   -0.0458   -3.6808    0.0000 N   0  0  0  0  0  0  0  0  0  0  0  0
   -0.8707    1.0102    0.0000 S   0  0  0  0  0  0  0  0  0  0  0  0
   -0.5083    2.5934    0.0000 C   0  0  0  0  0  0  0  0  0  0  0  0
   -0.1332   -2.6809    0.0000 C   0  0  0  0  0  0  0  0  0  0  0  0
    0.7790    0.3562    0.0000 N   0  0  0  0  0  0  0  0  0  0  0  0
    0.4542   -0.5935    0.0000 C   0  0  0  0  0  0  0  0  0  0  0  0
    2.4206   -2.8559    0.0000 N   0  0  0  0  0  0  0  0  0  0  0  0
   -1.2706    1.9518    0.0000 C   0  0  0  0  0  0  0  0  0  0  0  0
    0.9291   -3.9057    0.0000 O   0  0  0  0  0  0  0  0  0  0  0  0
    2.7454   -1.9058    0.0000 C   0  0  0  0  0  0  0  0  0  0  0  0
    2.0913   -1.1560    0.0000 C   0  0  0  0  0  0  0  0  0  0  0  0
    1.2456    2.4975    0.0000 C   0  0  0  0  0  0  0  0  0  0  0  0
    3.7286   -1.7184    0.0000 C   0  0  0  0  0  0  0  0  0  0  0  0
    2.1371    2.9058    0.0000 N   0  0  0  0  0  0  0  0  0  0  0  0
    4.6701   -2.0435    0.0000 C   0  0  0  0  0  0  0  0  0  0  0  0
    4.4827   -1.0562    0.0000 C   0  0  0  0  0  0  0  0  0  0  0  0
   -1.0789   -2.3642    0.0000 C   0  0  0  0  0  0  0  0  0  0  0  0
   -0.5290   -0.7812    0.0000 O   0  0  0  0  0  0  0  0  0  0  0  0
   -1.8372   -3.0183    0.0000 C   0  0  0  0  0  0  0  0  0  0  0  0
   -1.2706   -1.3810    0.0000 C   0  0  0  0  0  0  0  0  0  0  0  0
   -2.9705   -1.7144    0.0000 C   0  0  0  0  0  0  0  0  0  0  0  0
   -0.6833    3.5599    0.0000 C   0  0  0  0  0  0  0  0  0  0  0  0
   -2.2205   -1.0562    0.0000 C   0  0  0  0  0  0  0  0  0  0  0  0
   -2.7787   -2.6933    0.0000 C   0  0  0  0  0  0  0  0  0  0  0  0
   -2.2288    2.2683    0.0000 C   0  0  0  0  0  0  0  0  0  0  0  0
   -3.9162   -1.3810    0.0000 O   0  0  0  0  0  0  0  0  0  0  0  0
   -4.6701   -2.0435    0.0000 C   0  0  0  0  0  0  0  0  0  0  0  0
   -1.6332    3.9057    0.0000 C   0  0  0  0  0  0  0  0  0  0  0  0
   -2.3955    3.2641    0.0000 C   0  0  0  0  0  0  0  0  0  0  0  0
  1  2  2  0  0  0  0
  3  5  1  0  0  0  0
  3  4  2  0  0  0  0
  5 11  1  0  0  0  0
  6  9  2  0  0  0  0
  6 14  1  0  0  0  0
  1  7  1  0  0  0  0
  2  8  1  0  0  0  0
  3  9  1  0  0  0  0
  1 10  1  0  0  0  0
 10 11  1  0  0  0  0
 12 15  2  0  0  0  0
  4 12  1  0  0  0  0
  7 13  1  0  0  0  0
  8 13  2  0  0  0  0
  4 14  1  0  0  0  0
 15 16  1  0  0  0  0
  5 16  2  0  0  0  0
  2 17  1  0  0  0  0
 15 18  1  0  0  0  0
 17 19  3  0  0  0  0
 18 20  1  0  0  0  0
 18 21  1  0  0  0  0
 20 21  1  0  0  0  0
  9 22  1  0  0  0  0
 11 23  2  0  0  0  0
 22 24  2  0  0  0  0
 22 25  1  0  0  0  0
 26 28  1  0  0  0  0
 26 29  2  0  0  0  0
  8 27  1  0  0  0  0
 25 28  2  0  0  0  0
 24 29  1  0  0  0  0
 13 30  1  0  0  0  0
 26 31  1  0  0  0  0
 31 32  1  0  0  0  0
 27 33  1  0  0  0  0
 30 34  1  0  0  0  0
 33 34  1  0  0  0  0
M  END
> <IDNUMBER>
Y505-2298

> <available>
17

> <H_acceptor>
7

> <H_donor>
1

> <B_rotN>
7

> <N_O>
7

> <logP>
5.6464

> <logD>
4.141

> <logSw>
-5.6909

> <PSA>
78.613

> <pKa_ma>
5.9084

> <pKa_mb>
-0.3426

> <N_Chirals>
0

> <Name>
N-(3-cyano-4,5,6,7-tetrahydro-1-benzothiophen-2-yl)-6-cyclopropyl-3-(4-methoxyphenyl)[1,2]oxazolo[5,4-b]pyridine-4-carboxamide

> <Smile>
COc(cc1)ccc1-c1noc2nc(C3CC3)cc(C(Nc(sc3c4CCCC3)c4C#N)=O)c12

> <Color>
BROWN

> <Collection>
DC

> <InChI>
InChI=1S/C26H22N4O3S/c1-32-16-10-8-15(9-11-16)23-22-18(12-20(14-6-7-14)28-25(22)33-30-23)24(31)29-26-19(13-27)17-4-2-3-5-21(17)34-26/h8-12,14H,2-7H2,1H3,(H,29,31)

> <InChI Key>
FSQSTPJPFLTSGF-UHFFFAOYSA-N

> <PERCENTSP3>
30.8

> <Link>
https://www.chemdiv.com/catalog/screening-compounds/compound-Y505-2298/

> <MFCDNUMBER>
MFCD10701920

> <CLNUMBER>
CL7490

> <STEREO>
ACHIRAL

> <State>
Solid

> <Similarity score>
0.21

$$$$
N-(6-tert-butyl-3-cyano-4,5,6,7-tetrahydro-1-benzothiophen-2-yl)-4,5,6,7-tetrahy
  -OEChem-04222410502D

 27 30  0     0  0  0  0  0  0999 V2000
   -0.2489   -0.1276    0.0000 C   0  0  0  0  0  0  0  0  0  0  0  0
   -1.0559   -0.6835    0.0000 C   0  0  0  0  0  0  0  0  0  0  0  0
    0.5816    2.9347    0.0000 C   0  0  0  0  0  0  0  0  0  0  0  0
    0.2296   -1.6664    0.0000 C   0  0  0  0  0  0  0  0  0  0  0  0
   -0.7792   -1.6471    0.0000 C   0  0  0  0  0  0  0  0  0  0  0  0
   -0.0987    3.5850    0.0000 N   0  0  0  0  0  0  0  0  0  0  0  0
    0.5516   -0.7288    0.0000 S   0  0  0  0  0  0  0  0  0  0  0  0
    1.4227    3.6001    0.0000 C   0  0  0  0  0  0  0  0  0  0  0  0
    0.6116    1.3831    0.0000 C   0  0  0  0  0  0  0  0  0  0  0  0
   -0.2489    0.8852    0.0000 N   0  0  0  0  0  0  0  0  0  0  0  0
    0.1826    4.4779    0.0000 O   0  0  0  0  0  0  0  0  0  0  0  0
    1.1245    4.4928    0.0000 C   0  0  0  0  0  0  0  0  0  0  0  0
   -1.9981   -0.3530    0.0000 C   0  0  0  0  0  0  0  0  0  0  0  0
    0.7015   -2.5419    0.0000 C   0  0  0  0  0  0  0  0  0  0  0  0
   -2.9509   -0.0204    0.0000 N   0  0  0  0  0  0  0  0  0  0  0  0
   -1.2918   -2.4927    0.0000 C   0  0  0  0  0  0  0  0  0  0  0  0
    0.1736   -3.3982    0.0000 C   0  0  3  0  0  0  0  0  0  0  0  0
    0.6526   -4.2911    0.0000 C   0  0  0  0  0  0  0  0  0  0  0  0
    1.4227    0.8896    0.0000 O   0  0  0  0  0  0  0  0  0  0  0  0
   -0.8134   -3.3684    0.0000 C   0  0  0  0  0  0  0  0  0  0  0  0
    2.3264    3.4200    0.0000 C   0  0  0  0  0  0  0  0  0  0  0  0
    1.7447    5.1881    0.0000 C   0  0  0  0  0  0  0  0  0  0  0  0
   -0.2489   -4.7590    0.0000 C   0  0  0  0  0  0  0  0  0  0  0  0
    1.5430   -3.8276    0.0000 C   0  0  0  0  0  0  0  0  0  0  0  0
    1.1096   -5.1881    0.0000 C   0  0  0  0  0  0  0  0  0  0  0  0
    2.9509    4.1088    0.0000 C   0  0  0  0  0  0  0  0  0  0  0  0
    2.6505    5.0057    0.0000 C   0  0  0  0  0  0  0  0  0  0  0  0
  1  2  2  0  0  0  0
  3  9  1  0  0  0  0
  4  7  1  0  0  0  0
  4  5  2  0  0  0  0
  2  5  1  0  0  0  0
  3  6  2  0  0  0  0
  1  7  1  0  0  0  0
  3  8  1  0  0  0  0
  9 10  1  0  0  0  0
  1 10  1  0  0  0  0
  6 11  1  0  0  0  0
  8 12  2  0  0  0  0
 11 12  1  0  0  0  0
  2 13  1  0  0  0  0
  4 14  1  0  0  0  0
 13 15  3  0  0  0  0
  5 16  1  0  0  0  0
 14 17  1  0  0  0  0
 17 18  1  0  0  0  0
  9 19  2  0  0  0  0
 16 20  1  0  0  0  0
 17 20  1  0  0  0  0
  8 21  1  0  0  0  0
 12 22  1  0  0  0  0
 18 23  1  0  0  0  0
 18 24  1  0  0  0  0
 18 25  1  0  0  0  0
 21 26  1  0  0  0  0
 26 27  1  0  0  0  0
 22 27  1  0  0  0  0
M  END
> <IDNUMBER>
C226-3405

> <available>
220

> <H_acceptor>
5

> <H_donor>
1

> <B_rotN>
5

> <N_O>
5

> <logP>
5.0495

> <logD>
2.8678

> <logSw>
-4.6096

> <PSA>
62.501

> <pKa_ma>
5.2212

> <pKa_mb>
-5.5427

> <N_Chirals>
1

> <Name>
N-(6-tert-butyl-3-cyano-4,5,6,7-tetrahydro-1-benzothiophen-2-yl)-4,5,6,7-tetrahydro-1,2-benzoxazole-3-carboxamide

> <Smile>
CC(C)(C)C(CC1)Cc2c1c(C#N)c(NC(c1noc3c1CCCC3)=O)s2

> <Color>
NOT COLORED

> <Collection>
DC

> <InChI>
InChI=1S/C21H25N3O2S/c1-21(2,3)12-8-9-13-15(11-22)20(27-17(13)10-12)23-19(25)18-14-6-4-5-7-16(14)26-24-18/h12H,4-10H2,1-3H3,(H,23,25)/t12-/m1/s1

> <InChI Key>
YSLLOKYIJDDBBV-GFCCVEGCSA-N

> <PERCENTSP3>
57.1

> <Link>
https://www.chemdiv.com/catalog/screening-compounds/compound-C226-3405/

> <MFCDNUMBER>
MFCD09783055

> <CLNUMBER>
CL2031

> <STEREO>
RACEMIC MIXTURE

> <CAS>
912800-47-6

> <State>
Solid

> <Similarity score>
0.21

$$$$
N-(3-cyano-5,6,7,8-tetrahydro-4H-cyclohepta[b]thiophen-2-yl)-6-cyclopropyl-3-(4-
  -OEChem-04222410502D

 35 40  0     0  0  0  0  0  0999 V2000
    1.6182    0.6311    0.0000 C   0  0  0  0  0  0  0  0  0  0  0  0
    2.3057    1.3808    0.0000 C   0  0  0  0  0  0  0  0  0  0  0  0
   -0.2062   -1.7683    0.0000 C   0  0  0  0  0  0  0  0  0  0  0  0
    0.1813   -2.6888    0.0000 C   0  0  0  0  0  0  0  0  0  0  0  0
    0.3936   -0.9686    0.0000 C   0  0  0  0  0  0  0  0  0  0  0  0
   -1.4308   -2.8304    0.0000 N   0  0  0  0  0  0  0  0  0  0  0  0
    2.1181   -0.2145    0.0000 S   0  0  0  0  0  0  0  0  0  0  0  0
    3.2136    0.9559    0.0000 C   0  0  0  0  0  0  0  0  0  0  0  0
   -1.2058   -1.8557    0.0000 C   0  0  0  0  0  0  0  0  0  0  0  0
    0.6018    0.7560    0.0000 N   0  0  0  0  0  0  0  0  0  0  0  0
    0.0022   -0.0439    0.0000 C   0  0  0  0  0  0  0  0  0  0  0  0
    1.1768   -2.8055    0.0000 N   0  0  0  0  0  0  0  0  0  0  0  0
    3.0888   -0.0312    0.0000 C   0  0  0  0  0  0  0  0  0  0  0  0
   -0.5686   -3.3427    0.0000 O   0  0  0  0  0  0  0  0  0  0  0  0
    1.7766   -2.0059    0.0000 C   0  0  0  0  0  0  0  0  0  0  0  0
    1.3810   -1.0892    0.0000 C   0  0  0  0  0  0  0  0  0  0  0  0
    2.1348    2.3680    0.0000 C   0  0  0  0  0  0  0  0  0  0  0  0
    2.7679   -2.1307    0.0000 C   0  0  0  0  0  0  0  0  0  0  0  0
    1.9682    3.3427    0.0000 N   0  0  0  0  0  0  0  0  0  0  0  0
    3.5678   -2.7305    0.0000 C   0  0  0  0  0  0  0  0  0  0  0  0
    3.6926   -1.7309    0.0000 C   0  0  0  0  0  0  0  0  0  0  0  0
   -2.0056   -1.2558    0.0000 C   0  0  0  0  0  0  0  0  0  0  0  0
   -0.9935    0.0729    0.0000 O   0  0  0  0  0  0  0  0  0  0  0  0
   -2.9221   -1.6432    0.0000 C   0  0  0  0  0  0  0  0  0  0  0  0
   -1.8806   -0.2645    0.0000 C   0  0  0  0  0  0  0  0  0  0  0  0
   -3.6052   -0.0563    0.0000 C   0  0  0  0  0  0  0  0  0  0  0  0
    4.0801    1.4808    0.0000 C   0  0  0  0  0  0  0  0  0  0  0  0
   -2.6805    0.3355    0.0000 C   0  0  0  0  0  0  0  0  0  0  0  0
   -3.7177   -1.0435    0.0000 C   0  0  0  0  0  0  0  0  0  0  0  0
    3.7760   -0.7519    0.0000 C   0  0  0  0  0  0  0  0  0  0  0  0
   -4.4008    0.5478    0.0000 O   0  0  0  0  0  0  0  0  0  0  0  0
   -5.3172    0.1562    0.0000 C   0  0  0  0  0  0  0  0  0  0  0  0
    5.0048    1.1058    0.0000 C   0  0  0  0  0  0  0  0  0  0  0  0
    4.7675   -0.6811    0.0000 C   0  0  0  0  0  0  0  0  0  0  0  0
    5.3172    0.1562    0.0000 C   0  0  0  0  0  0  0  0  0  0  0  0
  1  2  2  0  0  0  0
  3  5  1  0  0  0  0
  3  4  2  0  0  0  0
  5 11  1  0  0  0  0
  6  9  2  0  0  0  0
  6 14  1  0  0  0  0
  1  7  1  0  0  0  0
  2  8  1  0  0  0  0
  3  9  1  0  0  0  0
  1 10  1  0  0  0  0
 10 11  1  0  0  0  0
 12 15  2  0  0  0  0
  4 12  1  0  0  0  0
  7 13  1  0  0  0  0
  8 13  2  0  0  0  0
  4 14  1  0  0  0  0
 15 16  1  0  0  0  0
  5 16  2  0  0  0  0
  2 17  1  0  0  0  0
 15 18  1  0  0  0  0
 17 19  3  0  0  0  0
 18 20  1  0  0  0  0
 18 21  1  0  0  0  0
 20 21  1  0  0  0  0
  9 22  1  0  0  0  0
 11 23  2  0  0  0  0
 22 24  2  0  0  0  0
 22 25  1  0  0  0  0
 26 28  1  0  0  0  0
 26 29  2  0  0  0  0
  8 27  1  0  0  0  0
 25 28  2  0  0  0  0
 24 29  1  0  0  0  0
 13 30  1  0  0  0  0
 26 31  1  0  0  0  0
 31 32  1  0  0  0  0
 27 33  1  0  0  0  0
 33 35  1  0  0  0  0
 30 34  1  0  0  0  0
 34 35  1  0  0  0  0
M  END
> <IDNUMBER>
Y505-2299

> <available>
17

> <H_acceptor>
7

> <H_donor>
1

> <B_rotN>
7

> <N_O>
7

> <logP>
6.1423

> <logD>
4.6369

> <logSw>
-5.6765

> <PSA>
78.944

> <pKa_ma>
5.9084

> <pKa_mb>
-0.3426

> <N_Chirals>
0

> <Name>
N-(3-cyano-5,6,7,8-tetrahydro-4H-cyclohepta[b]thiophen-2-yl)-6-cyclopropyl-3-(4-methoxyphenyl)[1,2]oxazolo[5,4-b]pyridine-4-carboxamide

> <Smile>
COc(cc1)ccc1-c1noc2nc(C3CC3)cc(C(Nc(sc3c4CCCCC3)c4C#N)=O)c12

> <Color>
BROWN

> <Collection>
DC

> <InChI>
InChI=1S/C27H24N4O3S/c1-33-17-11-9-16(10-12-17)24-23-19(13-21(15-7-8-15)29-26(23)34-31-24)25(32)30-27-20(14-28)18-5-3-2-4-6-22(18)35-27/h9-13,15H,2-8H2,1H3,(H,30,32)

> <InChI Key>
WVKCYYZLRAXGGS-UHFFFAOYSA-N

> <PERCENTSP3>
33.3

> <Link>
https://www.chemdiv.com/catalog/screening-compounds/compound-Y505-2299/

> <MFCDNUMBER>
MFCD10701637

> <CLNUMBER>
CL7490

> <STEREO>
ACHIRAL

> <State>
Solid

> <Similarity score>
0.21

$$$$
N-(6-tert-butyl-3-cyano-4,5,6,7-tetrahydro-1-benzothiophen-2-yl)-5,6,7,8-tetrahy
  -OEChem-04222410502D

 28 31  0     0  0  0  0  0  0999 V2000
   -0.2948   -0.2327    0.0000 C   0  0  0  0  0  0  0  0  0  0  0  0
   -1.1018   -0.7886    0.0000 C   0  0  0  0  0  0  0  0  0  0  0  0
    0.4602    3.0260    0.0000 C   0  0  0  0  0  0  0  0  0  0  0  0
    0.1834   -1.7709    0.0000 C   0  0  0  0  0  0  0  0  0  0  0  0
   -0.8250   -1.7516    0.0000 C   0  0  0  0  0  0  0  0  0  0  0  0
   -0.2948    3.6309    0.0000 N   0  0  0  0  0  0  0  0  0  0  0  0
    0.5052   -0.8336    0.0000 S   0  0  0  0  0  0  0  0  0  0  0  0
    1.2603    3.5687    0.0000 C   0  0  0  0  0  0  0  0  0  0  0  0
    0.5652    1.2774    0.0000 C   0  0  0  0  0  0  0  0  0  0  0  0
   -0.2948    0.7798    0.0000 N   0  0  0  0  0  0  0  0  0  0  0  0
    0.0461    4.5319    0.0000 O   0  0  0  0  0  0  0  0  0  0  0  0
    1.0029    4.4912    0.0000 C   0  0  0  0  0  0  0  0  0  0  0  0
   -2.0434   -0.4580    0.0000 C   0  0  0  0  0  0  0  0  0  0  0  0
    0.6553   -2.6462    0.0000 C   0  0  0  0  0  0  0  0  0  0  0  0
   -2.9959   -0.1257    0.0000 N   0  0  0  0  0  0  0  0  0  0  0  0
   -1.3376   -2.5971    0.0000 C   0  0  0  0  0  0  0  0  0  0  0  0
    0.1277   -3.5022    0.0000 C   0  0  3  0  0  0  0  0  0  0  0  0
    0.6060   -4.3948    0.0000 C   0  0  0  0  0  0  0  0  0  0  0  0
    1.3657    0.7496    0.0000 O   0  0  0  0  0  0  0  0  0  0  0  0
   -0.8592   -3.4723    0.0000 C   0  0  0  0  0  0  0  0  0  0  0  0
    1.9705    3.1760    0.0000 C   0  0  0  0  0  0  0  0  0  0  0  0
    1.4364    5.2012    0.0000 C   0  0  0  0  0  0  0  0  0  0  0  0
   -0.2948   -4.8624    0.0000 C   0  0  0  0  0  0  0  0  0  0  0  0
    1.4963   -3.9313    0.0000 C   0  0  0  0  0  0  0  0  0  0  0  0
    1.0631   -5.2913    0.0000 C   0  0  0  0  0  0  0  0  0  0  0  0
    2.8094    3.5687    0.0000 C   0  0  0  0  0  0  0  0  0  0  0  0
    2.3608    5.2913    0.0000 C   0  0  0  0  0  0  0  0  0  0  0  0
    2.9959    4.5363    0.0000 C   0  0  0  0  0  0  0  0  0  0  0  0
  1  2  2  0  0  0  0
  3  9  1  0  0  0  0
  4  7  1  0  0  0  0
  4  5  2  0  0  0  0
  2  5  1  0  0  0  0
  3  6  2  0  0  0  0
  1  7  1  0  0  0  0
  3  8  1  0  0  0  0
  9 10  1  0  0  0  0
  1 10  1  0  0  0  0
  6 11  1  0  0  0  0
  8 12  2  0  0  0  0
 11 12  1  0  0  0  0
  2 13  1  0  0  0  0
  4 14  1  0  0  0  0
 13 15  3  0  0  0  0
  5 16  1  0  0  0  0
 14 17  1  0  0  0  0
 17 18  1  0  0  0  0
  9 19  2  0  0  0  0
 16 20  1  0  0  0  0
 17 20  1  0  0  0  0
  8 21  1  0  0  0  0
 12 22  1  0  0  0  0
 18 23  1  0  0  0  0
 18 24  1  0  0  0  0
 18 25  1  0  0  0  0
 21 26  1  0  0  0  0
 22 27  1  0  0  0  0
 26 28  1  0  0  0  0
 27 28  1  0  0  0  0
M  END
> <IDNUMBER>
C226-3519

> <available>
242

> <H_acceptor>
5

> <H_donor>
1

> <B_rotN>
5

> <N_O>
5

> <logP>
5.5454

> <logD>
3.3637

> <logSw>
-5.1755

> <PSA>
62.832

> <pKa_ma>
5.2212

> <pKa_mb>
-5.3039

> <N_Chirals>
1

> <Name>
N-(6-tert-butyl-3-cyano-4,5,6,7-tetrahydro-1-benzothiophen-2-yl)-5,6,7,8-tetrahydro-4H-cyclohepta[d][1,2]oxazole-3-carboxamide

> <Smile>
CC(C)(C)C(CC1)Cc2c1c(C#N)c(NC(c1noc3c1CCCCC3)=O)s2

> <Color>
NOT COLORED

> <Collection>
DC

> <InChI>
InChI=1S/C22H27N3O2S/c1-22(2,3)13-9-10-14-16(12-23)21(28-18(14)11-13)24-20(26)19-15-7-5-4-6-8-17(15)27-25-19/h13H,4-11H2,1-3H3,(H,24,26)/t13-/m1/s1

> <InChI Key>
LFJDGOOGHKSHIG-CYBMUJFWSA-N

> <PERCENTSP3>
59.1

> <Link>
https://www.chemdiv.com/catalog/screening-compounds/compound-C226-3519/

> <MFCDNUMBER>
MFCD09783109

> <CLNUMBER>
CL2031

> <STEREO>
RACEMIC MIXTURE

> <State>
Solid

> <Similarity score>
0.21

$$$$
2-amino-5,6-dihydro-4H-cyclopenta[b]thiophene-3-carbonitrile
  -OEChem-04222410502D

 11 12  0     0  0  0  0  0  0999 V2000
    0.6813   -0.0354    0.0000 C   0  0  0  0  0  0  0  0  0  0  0  0
    0.9841   -0.9894    0.0000 C   0  0  0  0  0  0  0  0  0  0  0  0
   -0.3181   -0.0354    0.0000 C   0  0  0  0  0  0  0  0  0  0  0  0
    0.1766   -1.5748    0.0000 S   0  0  0  0  0  0  0  0  0  0  0  0
   -0.6260   -0.9894    0.0000 C   0  0  0  0  0  0  0  0  0  0  0  0
    1.2667    0.7673    0.0000 C   0  0  0  0  0  0  0  0  0  0  0  0
    1.8575    1.5748    0.0000 N   0  0  0  0  0  0  0  0  0  0  0  0
    1.9382   -1.3022    0.0000 N   0  0  0  0  0  0  0  0  0  0  0  0
   -1.1258    0.5552    0.0000 C   0  0  0  0  0  0  0  0  0  0  0  0
   -1.6254   -0.9894    0.0000 C   0  0  0  0  0  0  0  0  0  0  0  0
   -1.9382   -0.0354    0.0000 C   0  0  0  0  0  0  0  0  0  0  0  0
  1  2  2  0  0  0  0
  1  3  1  0  0  0  0
  2  4  1  0  0  0  0
  3  5  2  0  0  0  0
  4  5  1  0  0  0  0
  1  6  1  0  0  0  0
  6  7  3  0  0  0  0
  2  8  1  0  0  0  0
  3  9  1  0  0  0  0
  5 10  1  0  0  0  0
  9 11  1  0  0  0  0
 10 11  1  0  0  0  0
M  END
> <IDNUMBER>
R052-2295

> <available>
1082

> <H_acceptor>
1

> <H_donor>
2

> <B_rotN>
1

> <N_O>
2

> <logP>
1.736

> <logD>
1.736

> <logSw>
-1.8508

> <PSA>
38.857

> <pKa_ma>
15.973

> <pKa_mb>
-1.8136

> <N_Chirals>
0

> <Name>
2-amino-5,6-dihydro-4H-cyclopenta[b]thiophene-3-carbonitrile

> <Smile>
Nc(sc1c2CCC1)c2C#N

> <Color>
ORANGE

> <Collection>
NC

> <InChI>
InChI=1S/C8H8N2S/c9-4-6-5-2-1-3-7(5)11-8(6)10/h1-3,10H2

> <InChI Key>
RILAXFOADRDGPQ-UHFFFAOYSA-N

> <PERCENTSP3>
37.5

> <Link>
https://www.chemdiv.com/catalog/screening-compounds/compound-R052-2295/

> <MFCDNUMBER>
MFCD00121495

> <STEREO>
ACHIRAL

> <State>
Solid

> <Similarity score>
0.21

$$$$
2-amino-4,5,6,7-tetrahydro-1-benzothiophene-3-carbonitrile
  -OEChem-04222410502D

 12 13  0     0  0  0  0  0  0999 V2000
    0.5778   -0.0290    0.0000 C   0  0  0  0  0  0  0  0  0  0  0  0
    1.1355   -0.8321    0.0000 C   0  0  0  0  0  0  0  0  0  0  0  0
   -0.3994   -0.3280    0.0000 C   0  0  0  0  0  0  0  0  0  0  0  0
    0.5778   -1.6352    0.0000 S   0  0  0  0  0  0  0  0  0  0  0  0
   -0.3994   -1.3319    0.0000 C   0  0  0  0  0  0  0  0  0  0  0  0
    0.9213    0.9035    0.0000 C   0  0  0  0  0  0  0  0  0  0  0  0
    1.2604    1.8404    0.0000 N   0  0  0  0  0  0  0  0  0  0  0  0
    2.1304   -0.8321    0.0000 N   0  0  0  0  0  0  0  0  0  0  0  0
   -1.2693    0.1718    0.0000 C   0  0  0  0  0  0  0  0  0  0  0  0
   -1.2693   -1.8404    0.0000 C   0  0  0  0  0  0  0  0  0  0  0  0
   -2.1304   -0.3280    0.0000 C   0  0  0  0  0  0  0  0  0  0  0  0
   -2.1304   -1.3319    0.0000 C   0  0  0  0  0  0  0  0  0  0  0  0
  1  2  2  0  0  0  0
  1  3  1  0  0  0  0
  2  4  1  0  0  0  0
  3  5  2  0  0  0  0
  4  5  1  0  0  0  0
  1  6  1  0  0  0  0
  6  7  3  0  0  0  0
  2  8  1  0  0  0  0
  3  9  1  0  0  0  0
  5 10  1  0  0  0  0
  9 11  1  0  0  0  0
 11 12  1  0  0  0  0
 10 12  1  0  0  0  0
M  END
> <IDNUMBER>
0848-0050

> <available>
7

> <H_acceptor>
1

> <H_donor>
2

> <B_rotN>
1

> <N_O>
2

> <logP>
2.1463

> <logD>
2.1463

> <logSw>
-2.0208

> <PSA>
38.492

> <pKa_ma>
15.9936

> <pKa_mb>
-2.0609

> <N_Chirals>
0

> <Name>
2-amino-4,5,6,7-tetrahydro-1-benzothiophene-3-carbonitrile

> <Smile>
Nc(sc1c2CCCC1)c2C#N

> <Color>
ORANGE

> <Collection>
DC

> <InChI>
InChI=1S/C9H10N2S/c10-5-7-6-3-1-2-4-8(6)12-9(7)11/h1-4,11H2

> <InChI Key>
ADHVMGAFAKSNOM-UHFFFAOYSA-N

> <PERCENTSP3>
44.4

> <Link>
https://www.chemdiv.com/catalog/screening-compounds/compound-0848-0050/

> <MFCDNUMBER>
MFCD00128278

> <STEREO>
ACHIRAL

> <State>
Solid

> <Similarity score>
0.20

$$$$
2-[2-(4-amino-1,2,5-oxadiazol-3-yl)-1H-benzimidazol-1-yl]-N-(6-tert-butyl-3-cyan
  -OEChem-04222410502D

 34 38  0     0  0  0  0  0  0999 V2000
    3.4465   -0.1069    0.0000 C   0  0  0  0  0  0  0  0  0  0  0  0
    2.4766   -0.1674    0.0000 N   0  0  0  0  0  0  0  0  0  0  0  0
   -0.9532    0.5361    0.0000 C   0  0  0  0  0  0  0  0  0  0  0  0
   -1.7373    1.1344    0.0000 C   0  0  0  0  0  0  0  0  0  0  0  0
    4.0231    0.7066    0.0000 C   0  0  0  0  0  0  0  0  0  0  0  0
    3.8045   -1.0337    0.0000 N   0  0  0  0  0  0  0  0  0  0  0  0
   -2.2362   -0.4091    0.0000 C   0  0  0  0  0  0  0  0  0  0  0  0
   -2.5338    0.5471    0.0000 C   0  0  0  0  0  0  0  0  0  0  0  0
   -1.2538   -0.4091    0.0000 S   0  0  0  0  0  0  0  0  0  0  0  0
    3.7487    1.6769    0.0000 C   0  0  0  0  0  0  0  0  0  0  0  0
    4.5888    2.2191    0.0000 N   0  0  0  0  0  0  0  0  0  0  0  0
    0.0139    0.8708    0.0000 N   0  0  0  0  0  0  0  0  0  0  0  0
    5.0164    0.6959    0.0000 N   0  0  0  0  0  0  0  0  0  0  0  0
    2.2083   -1.1158    0.0000 C   0  0  0  0  0  0  0  0  0  0  0  0
    5.3558    1.6551    0.0000 O   0  0  0  0  0  0  0  0  0  0  0  0
    3.0530   -1.6581    0.0000 C   0  0  0  0  0  0  0  0  0  0  0  0
   -1.6923    2.1418    0.0000 C   0  0  0  0  0  0  0  0  0  0  0  0
    0.7764    0.1906    0.0000 C   0  0  0  0  0  0  0  0  0  0  0  0
    1.7482    0.5147    0.0000 C   0  0  0  0  0  0  0  0  0  0  0  0
   -2.9258   -1.1374    0.0000 C   0  0  0  0  0  0  0  0  0  0  0  0
   -1.6675    3.1460    0.0000 N   0  0  0  0  0  0  0  0  0  0  0  0
   -3.5286    0.7779    0.0000 C   0  0  0  0  0  0  0  0  0  0  0  0
   -3.8851   -0.9173    0.0000 C   0  0  3  0  0  0  0  0  0  0  0  0
   -4.5561   -1.6581    0.0000 C   0  0  0  0  0  0  0  0  0  0  0  0
   -4.1874    0.0311    0.0000 C   0  0  0  0  0  0  0  0  0  0  0  0
    0.5798   -0.7764    0.0000 O   0  0  0  0  0  0  0  0  0  0  0  0
    2.8220    2.0006    0.0000 N   0  0  0  0  0  0  0  0  0  0  0  0
    1.3078   -1.5994    0.0000 C   0  0  0  0  0  0  0  0  0  0  0  0
    3.0419   -2.6625    0.0000 C   0  0  0  0  0  0  0  0  0  0  0  0
   -5.3558   -2.3494    0.0000 C   0  0  0  0  0  0  0  0  0  0  0  0
   -5.1575   -0.9624    0.0000 C   0  0  0  0  0  0  0  0  0  0  0  0
   -3.8743   -2.4422    0.0000 C   0  0  0  0  0  0  0  0  0  0  0  0
    1.2646   -2.6034    0.0000 C   0  0  0  0  0  0  0  0  0  0  0  0
    2.1525   -3.1460    0.0000 C   0  0  0  0  0  0  0  0  0  0  0  0
  1  2  1  0  0  0  0
  3 12  1  0  0  0  0
  3  4  2  0  0  0  0
  1  5  1  0  0  0  0
  1  6  2  0  0  0  0
  7  9  1  0  0  0  0
  7  8  2  0  0  0  0
  4  8  1  0  0  0  0
  3  9  1  0  0  0  0
  5 10  1  0  0  0  0
 10 11  2  0  0  0  0
 12 18  1  0  0  0  0
  5 13  2  0  0  0  0
  2 14  1  0  0  0  0
 14 16  1  0  0  0  0
 13 15  1  0  0  0  0
 11 15  1  0  0  0  0
  6 16  1  0  0  0  0
  4 17  1  0  0  0  0
 18 19  1  0  0  0  0
  2 19  1  0  0  0  0
  7 20  1  0  0  0  0
 17 21  3  0  0  0  0
  8 22  1  0  0  0  0
 20 23  1  0  0  0  0
 23 24  1  0  0  0  0
 22 25  1  0  0  0  0
 23 25  1  0  0  0  0
 18 26  2  0  0  0  0
 10 27  1  0  0  0  0
 14 28  2  0  0  0  0
 16 29  2  0  0  0  0
 24 30  1  0  0  0  0
 24 31  1  0  0  0  0
 24 32  1  0  0  0  0
 28 33  1  0  0  0  0
 33 34  2  0  0  0  0
 29 34  1  0  0  0  0
M  END
> <IDNUMBER>
8014-1167

> <available>
25

> <H_acceptor>
7

> <H_donor>
3

> <B_rotN>
7

> <N_O>
9

> <logP>
5.3736

> <logD>
3.971

> <logSw>
-5.3873

> <PSA>
106.901

> <pKa_ma>
6.0149

> <pKa_mb>
3.9643

> <N_Chirals>
1

> <Name>
2-[2-(4-amino-1,2,5-oxadiazol-3-yl)-1H-benzimidazol-1-yl]-N-(6-tert-butyl-3-cyano-4,5,6,7-tetrahydro-1-benzothiophen-2-yl)acetamide

> <Smile>
CC(C)(C)C(CC1)Cc2c1c(C#N)c(NC(Cn1c(-c3nonc3N)nc3c1cccc3)=O)s2

> <Color>
BROWN

> <Collection>
DC

> <InChI>
InChI=1S/C24H25N7O2S/c1-24(2,3)13-8-9-14-15(11-25)23(34-18(14)10-13)28-19(32)12-31-17-7-5-4-6-16(17)27-22(31)20-21(26)30-33-29-20/h4-7,13H,8-10,12H2,1-3H3,(H2,26,30)(H,28,32)/t13-/m1/s1

> <InChI Key>
IDKGSEMMYVDLEV-CYBMUJFWSA-N

> <PERCENTSP3>
37.5

> <Link>
https://www.chemdiv.com/catalog/screening-compounds/compound-8014-1167/

> <MFCDNUMBER>
MFCD03767504

> <CLNUMBER>
CL2888

> <STEREO>
RACEMIC MIXTURE

> <State>
Solid

> <Similarity score>
0.20

$$$$
2-amino-5,6,7,8-tetrahydro-4H-cyclohepta[b]thiophene-3-carbonitrile
  -OEChem-04222410502D

 13 14  0     0  0  0  0  0  0999 V2000
   -0.3355   -0.3963    0.0000 C   0  0  0  0  0  0  0  0  0  0  0  0
    0.1678   -1.2911    0.0000 C   0  0  0  0  0  0  0  0  0  0  0  0
    0.3449    0.3307    0.0000 C   0  0  0  0  0  0  0  0  0  0  0  0
    1.1282   -1.0674    0.0000 S   0  0  0  0  0  0  0  0  0  0  0  0
    1.2400   -0.0794    0.0000 C   0  0  0  0  0  0  0  0  0  0  0  0
   -1.3329   -0.2751    0.0000 C   0  0  0  0  0  0  0  0  0  0  0  0
   -2.3492   -0.1633    0.0000 N   0  0  0  0  0  0  0  0  0  0  0  0
   -0.3355   -2.1207    0.0000 N   0  0  0  0  0  0  0  0  0  0  0  0
    0.1118    1.3097    0.0000 C   0  0  0  0  0  0  0  0  0  0  0  0
    2.1348    0.3683    0.0000 C   0  0  0  0  0  0  0  0  0  0  0  0
    0.7270    2.1207    0.0000 C   0  0  0  0  0  0  0  0  0  0  0  0
    2.3492    1.3097    0.0000 C   0  0  0  0  0  0  0  0  0  0  0  0
    1.7340    2.1207    0.0000 C   0  0  0  0  0  0  0  0  0  0  0  0
  1  2  2  0  0  0  0
  1  3  1  0  0  0  0
  2  4  1  0  0  0  0
  3  5  2  0  0  0  0
  4  5  1  0  0  0  0
  1  6  1  0  0  0  0
  6  7  3  0  0  0  0
  2  8  1  0  0  0  0
  3  9  1  0  0  0  0
  5 10  1  0  0  0  0
  9 11  1  0  0  0  0
 10 12  1  0  0  0  0
 11 13  1  0  0  0  0
 12 13  1  0  0  0  0
M  END
> <IDNUMBER>
R052-0786

> <available>
327

> <H_acceptor>
1

> <H_donor>
2

> <B_rotN>
1

> <N_O>
2

> <logP>
2.6422

> <logD>
2.6422

> <logSw>
-2.7776

> <PSA>
38.822

> <pKa_ma>
15.9936

> <pKa_mb>
-1.0762

> <N_Chirals>
0

> <Name>
2-amino-5,6,7,8-tetrahydro-4H-cyclohepta[b]thiophene-3-carbonitrile

> <Smile>
Nc(sc1c2CCCCC1)c2C#N

> <Color>
ORANGE

> <Collection>
NC

> <InChI>
InChI=1S/C10H12N2S/c11-6-8-7-4-2-1-3-5-9(7)13-10(8)12/h1-5,12H2

> <InChI Key>
GBQACFCEZPKMTA-UHFFFAOYSA-N

> <PERCENTSP3>
50

> <Link>
https://www.chemdiv.com/catalog/screening-compounds/compound-R052-0786/

> <MFCDNUMBER>
MFCD00121496

> <STEREO>
ACHIRAL

> <State>
Solid

> <Similarity score>
0.20

$$$$
2-amino-4,5,6,7,8,9,10,11,12,13-decahydrocyclododeca[b]thiophene-3-carbonitrile
  -OEChem-04222410502D

 18 19  0     0  0  0  0  0  0999 V2000
    2.1285    0.2218    0.0000 C   0  0  0  0  0  0  0  0  0  0  0  0
    2.1285   -0.7769    0.0000 C   0  0  0  0  0  0  0  0  0  0  0  0
    0.5566    0.2218    0.0000 C   0  0  0  0  0  0  0  0  0  0  0  0
    1.3501   -1.2233    0.0000 S   0  0  0  0  0  0  0  0  0  0  0  0
    0.5566   -0.7527    0.0000 C   0  0  0  0  0  0  0  0  0  0  0  0
    2.9642    0.7457    0.0000 C   0  0  0  0  0  0  0  0  0  0  0  0
    3.8029    1.2687    0.0000 N   0  0  0  0  0  0  0  0  0  0  0  0
    2.9431   -1.2687    0.0000 N   0  0  0  0  0  0  0  0  0  0  0  0
   -0.4118    0.2218    0.0000 C   0  0  0  0  0  0  0  0  0  0  0  0
   -0.4058   -0.7527    0.0000 C   0  0  0  0  0  0  0  0  0  0  0  0
   -1.2505    0.6945    0.0000 C   0  0  0  0  0  0  0  0  0  0  0  0
   -1.2505   -1.2385    0.0000 C   0  0  0  0  0  0  0  0  0  0  0  0
   -3.8029    0.2067    0.0000 C   0  0  0  0  0  0  0  0  0  0  0  0
   -2.9582    0.6945    0.0000 C   0  0  0  0  0  0  0  0  0  0  0  0
   -2.1044    0.2067    0.0000 C   0  0  0  0  0  0  0  0  0  0  0  0
   -2.1044   -0.7527    0.0000 C   0  0  0  0  0  0  0  0  0  0  0  0
   -2.9582   -1.2385    0.0000 C   0  0  0  0  0  0  0  0  0  0  0  0
   -3.8029   -0.7527    0.0000 C   0  0  0  0  0  0  0  0  0  0  0  0
  1  2  2  0  0  0  0
  1  3  1  0  0  0  0
  2  4  1  0  0  0  0
  4  5  1  0  0  0  0
  3  5  2  0  0  0  0
  1  6  1  0  0  0  0
  6  7  3  0  0  0  0
  2  8  1  0  0  0  0
  3  9  1  0  0  0  0
  5 10  1  0  0  0  0
  9 11  1  0  0  0  0
 10 12  1  0  0  0  0
 13 14  1  0  0  0  0
 14 15  1  0  0  0  0
 11 15  1  0  0  0  0
 12 16  1  0  0  0  0
 16 17  1  0  0  0  0
 17 18  1  0  0  0  0
 13 18  1  0  0  0  0
M  END
> <IDNUMBER>
8003-0436

> <available>
24

> <H_acceptor>
1

> <H_donor>
2

> <B_rotN>
1

> <N_O>
2

> <logP>
5.1218

> <logD>
5.1218

> <logSw>
-5.2389

> <PSA>
38.822

> <pKa_ma>
15.9936

> <pKa_mb>
-1.1592

> <N_Chirals>
0

> <Name>
2-amino-4,5,6,7,8,9,10,11,12,13-decahydrocyclododeca[b]thiophene-3-carbonitrile

> <Smile>
Nc(sc1c2CCCCCCCCCC1)c2C#N

> <Color>
ORANGE

> <Collection>
DC

> <InChI>
InChI=1S/C15H22N2S/c16-11-13-12-9-7-5-3-1-2-4-6-8-10-14(12)18-15(13)17/h1-10,17H2

> <InChI Key>
NJKJOVJKMPBQIL-UHFFFAOYSA-N

> <PERCENTSP3>
66.7

> <Link>
https://www.chemdiv.com/catalog/screening-compounds/compound-8003-0436/

> <MFCDNUMBER>
MFCD00742783

> <STEREO>
ACHIRAL

> <State>
Solid

> <Similarity score>
0.20

$$$$
3-(2H-1,3-benzodioxol-5-yl)-N-(3-cyano-5,6-dihydro-4H-cyclopenta[b]thiophen-2-yl
  -OEChem-04222410502D

 32 37  0     0  0  0  0  0  0999 V2000
    1.5853    0.6562    0.0000 C   0  0  0  0  0  0  0  0  0  0  0  0
    2.5562    0.7187    0.0000 C   0  0  0  0  0  0  0  0  0  0  0  0
   -1.4105   -1.0770    0.0000 C   0  0  0  0  0  0  0  0  0  0  0  0
   -1.9062   -1.9438    0.0000 C   0  0  0  0  0  0  0  0  0  0  0  0
   -0.4147   -1.0770    0.0000 C   0  0  0  0  0  0  0  0  0  0  0  0
   -2.9896   -0.7438    0.0000 N   0  0  0  0  0  0  0  0  0  0  0  0
   -2.0854   -0.3396    0.0000 C   0  0  0  0  0  0  0  0  0  0  0  0
    1.2312    1.6270    0.0000 S   0  0  0  0  0  0  0  0  0  0  0  0
    2.8353    1.6646    0.0000 C   0  0  0  0  0  0  0  0  0  0  0  0
    1.0896   -0.2104    0.0000 N   0  0  0  0  0  0  0  0  0  0  0  0
    0.0811   -0.2104    0.0000 C   0  0  0  0  0  0  0  0  0  0  0  0
    2.0312    2.2478    0.0000 C   0  0  0  0  0  0  0  0  0  0  0  0
   -2.8853   -1.7271    0.0000 O   0  0  0  0  0  0  0  0  0  0  0  0
   -1.4105   -2.8104    0.0000 N   0  0  0  0  0  0  0  0  0  0  0  0
   -2.1105    0.6562    0.0000 C   0  0  0  0  0  0  0  0  0  0  0  0
    3.2062   -0.0689    0.0000 C   0  0  0  0  0  0  0  0  0  0  0  0
    3.8188   -0.8354    0.0000 N   0  0  0  0  0  0  0  0  0  0  0  0
   -3.0396    2.1229    0.0000 C   0  0  0  0  0  0  0  0  0  0  0  0
   -3.0022    1.1271    0.0000 C   0  0  0  0  0  0  0  0  0  0  0  0
    0.0811   -1.9438    0.0000 C   0  0  0  0  0  0  0  0  0  0  0  0
   -2.1980    2.6562    0.0000 C   0  0  0  0  0  0  0  0  0  0  0  0
   -3.8188    2.7605    0.0000 O   0  0  0  0  0  0  0  0  0  0  0  0
   -0.4147   -2.8104    0.0000 C   0  0  0  0  0  0  0  0  0  0  0  0
   -2.4521    3.6271    0.0000 O   0  0  0  0  0  0  0  0  0  0  0  0
   -0.4147    0.6562    0.0000 O   0  0  0  0  0  0  0  0  0  0  0  0
   -3.4479    3.6896    0.0000 C   0  0  0  0  0  0  0  0  0  0  0  0
   -1.2687    1.1937    0.0000 C   0  0  0  0  0  0  0  0  0  0  0  0
   -1.3062    2.1978    0.0000 C   0  0  0  0  0  0  0  0  0  0  0  0
    3.6396    2.2895    0.0000 C   0  0  0  0  0  0  0  0  0  0  0  0
    2.3146    3.2187    0.0000 C   0  0  0  0  0  0  0  0  0  0  0  0
    3.2938    3.2187    0.0000 C   0  0  0  0  0  0  0  0  0  0  0  0
    0.0937   -3.6896    0.0000 C   0  0  0  0  0  0  0  0  0  0  0  0
  1  2  2  0  0  0  0
  3  5  1  0  0  0  0
  3  4  2  0  0  0  0
  4 14  1  0  0  0  0
  5 11  1  0  0  0  0
  6  7  2  0  0  0  0
  3  7  1  0  0  0  0
  1  8  1  0  0  0  0
  2  9  1  0  0  0  0
  9 12  2  0  0  0  0
  1 10  1  0  0  0  0
 10 11  1  0  0  0  0
  8 12  1  0  0  0  0
  4 13  1  0  0  0  0
  6 13  1  0  0  0  0
 14 23  2  0  0  0  0
  7 15  1  0  0  0  0
  2 16  1  0  0  0  0
 16 17  3  0  0  0  0
 18 19  1  0  0  0  0
 18 21  2  0  0  0  0
 15 19  2  0  0  0  0
  5 20  2  0  0  0  0
 21 28  1  0  0  0  0
 18 22  1  0  0  0  0
 20 23  1  0  0  0  0
 21 24  1  0  0  0  0
 11 25  2  0  0  0  0
 22 26  1  0  0  0  0
 24 26  1  0  0  0  0
 15 27  1  0  0  0  0
 27 28  2  0  0  0  0
  9 29  1  0  0  0  0
 29 31  1  0  0  0  0
 12 30  1  0  0  0  0
 30 31  1  0  0  0  0
 23 32  1  0  0  0  0
M  END
> <IDNUMBER>
Y501-2683

> <available>
13

> <H_acceptor>
8

> <H_donor>
1

> <B_rotN>
5

> <N_O>
8

> <logP>
4.2591

> <logD>
2.7337

> <logSw>
-4.5644

> <PSA>
88.105

> <pKa_ma>
5.8877

> <pKa_mb>
-1.9333

> <N_Chirals>
0

> <Name>
3-(2H-1,3-benzodioxol-5-yl)-N-(3-cyano-5,6-dihydro-4H-cyclopenta[b]thiophen-2-yl)-6-methyl[1,2]oxazolo[5,4-b]pyridine-4-carboxamide

> <Smile>
Cc1cc(C(Nc(sc2c3CCC2)c3C#N)=O)c(c(-c(cc2)cc3c2OCO3)no2)c2n1

> <Color>
BROWN

> <Collection>
DC

> <InChI>
InChI=1S/C23H16N4O4S/c1-11-7-14(21(28)26-23-15(9-24)13-3-2-4-18(13)32-23)19-20(27-31-22(19)25-11)12-5-6-16-17(8-12)30-10-29-16/h5-8H,2-4,10H2,1H3,(H,26,28)

> <InChI Key>
GSFFRALGTHMSLX-UHFFFAOYSA-N

> <PERCENTSP3>
21.74

> <Link>
https://www.chemdiv.com/catalog/screening-compounds/compound-Y501-2683/

> <MFCDNUMBER>
MFCD08557785

> <CLNUMBER>
CL7490

> <STEREO>
ACHIRAL

> <State>
Solid

> <Similarity score>
0.20

$$$$
3-(2H-1,3-benzodioxol-5-yl)-N-(3-cyano-4,5,6,7-tetrahydro-1-benzothiophen-2-yl)-
  -OEChem-04222410502D

 33 38  0     0  0  0  0  0  0999 V2000
    1.6521   -0.6228    0.0000 C   0  0  0  0  0  0  0  0  0  0  0  0
    1.2438   -1.5478    0.0000 C   0  0  0  0  0  0  0  0  0  0  0  0
   -1.3437    1.0979    0.0000 C   0  0  0  0  0  0  0  0  0  0  0  0
   -1.8396    1.9730    0.0000 C   0  0  0  0  0  0  0  0  0  0  0  0
   -0.3436    1.0979    0.0000 C   0  0  0  0  0  0  0  0  0  0  0  0
   -2.9144    0.7729    0.0000 N   0  0  0  0  0  0  0  0  0  0  0  0
   -2.0021    0.3604    0.0000 C   0  0  0  0  0  0  0  0  0  0  0  0
    2.6519   -0.7228    0.0000 S   0  0  0  0  0  0  0  0  0  0  0  0
    1.9897   -2.2103    0.0000 C   0  0  0  0  0  0  0  0  0  0  0  0
    1.1563    0.2354    0.0000 N   0  0  0  0  0  0  0  0  0  0  0  0
    0.1564    0.2354    0.0000 C   0  0  0  0  0  0  0  0  0  0  0  0
    2.8645   -1.7229    0.0000 C   0  0  0  0  0  0  0  0  0  0  0  0
   -2.8146    1.7603    0.0000 O   0  0  0  0  0  0  0  0  0  0  0  0
   -1.3437    2.8353    0.0000 N   0  0  0  0  0  0  0  0  0  0  0  0
   -2.0396   -0.6353    0.0000 C   0  0  0  0  0  0  0  0  0  0  0  0
    0.2813   -1.7728    0.0000 C   0  0  0  0  0  0  0  0  0  0  0  0
   -0.6687   -2.0104    0.0000 N   0  0  0  0  0  0  0  0  0  0  0  0
   -2.9645   -2.0978    0.0000 C   0  0  0  0  0  0  0  0  0  0  0  0
   -2.9270   -1.0979    0.0000 C   0  0  0  0  0  0  0  0  0  0  0  0
    0.1564    1.9730    0.0000 C   0  0  0  0  0  0  0  0  0  0  0  0
   -2.1146   -2.6353    0.0000 C   0  0  0  0  0  0  0  0  0  0  0  0
   -3.7396   -2.7354    0.0000 O   0  0  0  0  0  0  0  0  0  0  0  0
   -0.3436    2.8353    0.0000 C   0  0  0  0  0  0  0  0  0  0  0  0
   -2.3772   -3.5936    0.0000 O   0  0  0  0  0  0  0  0  0  0  0  0
   -0.3436   -0.6228    0.0000 O   0  0  0  0  0  0  0  0  0  0  0  0
   -3.3771   -3.6561    0.0000 C   0  0  0  0  0  0  0  0  0  0  0  0
   -1.1937   -1.1603    0.0000 C   0  0  0  0  0  0  0  0  0  0  0  0
   -1.2313   -2.1602    0.0000 C   0  0  0  0  0  0  0  0  0  0  0  0
    1.9647   -3.1937    0.0000 C   0  0  0  0  0  0  0  0  0  0  0  0
    3.7396   -2.2228    0.0000 C   0  0  0  0  0  0  0  0  0  0  0  0
    0.1564    3.7187    0.0000 C   0  0  0  0  0  0  0  0  0  0  0  0
    2.8395   -3.7187    0.0000 C   0  0  0  0  0  0  0  0  0  0  0  0
    3.7144   -3.2311    0.0000 C   0  0  0  0  0  0  0  0  0  0  0  0
  1  2  2  0  0  0  0
  3  5  1  0  0  0  0
  3  4  2  0  0  0  0
  5 11  1  0  0  0  0
  6  7  2  0  0  0  0
  6 13  1  0  0  0  0
  3  7  1  0  0  0  0
  1  8  1  0  0  0  0
  2  9  1  0  0  0  0
  1 10  1  0  0  0  0
 10 11  1  0  0  0  0
  8 12  1  0  0  0  0
  9 12  2  0  0  0  0
  4 13  1  0  0  0  0
 14 23  2  0  0  0  0
  4 14  1  0  0  0  0
  7 15  1  0  0  0  0
  2 16  1  0  0  0  0
 16 17  3  0  0  0  0
 18 19  1  0  0  0  0
 15 19  2  0  0  0  0
  5 20  2  0  0  0  0
 21 28  1  0  0  0  0
 18 21  2  0  0  0  0
 18 22  1  0  0  0  0
 20 23  1  0  0  0  0
 21 24  1  0  0  0  0
 24 26  1  0  0  0  0
 11 25  2  0  0  0  0
 22 26  1  0  0  0  0
 15 27  1  0  0  0  0
 27 28  2  0  0  0  0
  9 29  1  0  0  0  0
 12 30  1  0  0  0  0
 23 31  1  0  0  0  0
 29 32  1  0  0  0  0
 30 33  1  0  0  0  0
 32 33  1  0  0  0  0
M  END
> <IDNUMBER>
Y501-6644

> <available>
8

> <H_acceptor>
8

> <H_donor>
1

> <B_rotN>
5

> <N_O>
8

> <logP>
4.6694

> <logD>
3.164

> <logSw>
-4.7313

> <PSA>
87.739

> <pKa_ma>
5.9084

> <pKa_mb>
-1.9333

> <N_Chirals>
0

> <Name>
3-(2H-1,3-benzodioxol-5-yl)-N-(3-cyano-4,5,6,7-tetrahydro-1-benzothiophen-2-yl)-6-methyl[1,2]oxazolo[5,4-b]pyridine-4-carboxamide

> <Smile>
Cc1cc(C(Nc(sc2c3CCCC2)c3C#N)=O)c(c(-c(cc2)cc3c2OCO3)no2)c2n1

> <Color>
BROWN

> <Collection>
DC

> <InChI>
InChI=1S/C24H18N4O4S/c1-12-8-15(22(29)27-24-16(10-25)14-4-2-3-5-19(14)33-24)20-21(28-32-23(20)26-12)13-6-7-17-18(9-13)31-11-30-17/h6-9H,2-5,11H2,1H3,(H,27,29)

> <InChI Key>
RNLJRMSRWMDHRK-UHFFFAOYSA-N

> <PERCENTSP3>
25

> <Link>
https://www.chemdiv.com/catalog/screening-compounds/compound-Y501-6644/

> <MFCDNUMBER>
MFCD08557730

> <CLNUMBER>
CL7490

> <STEREO>
ACHIRAL

> <State>
Solid

> <Similarity score>
0.20

$$$$
3-(2-chlorophenyl)-N-[3-cyano-6-(2-methylbutan-2-yl)-4,5,6,7-tetrahydro-1-benzot
  -OEChem-04222410502D

 32 35  0     0  0  0  0  0  0999 V2000
   -1.4988   -1.6134    0.0000 C   0  0  0  0  0  0  0  0  0  0  0  0
    0.6441   -1.6134    0.0000 C   0  0  0  0  0  0  0  0  0  0  0  0
   -2.4451   -1.5634    0.0000 C   0  0  0  0  0  0  0  0  0  0  0  0
    1.6529   -1.5759    0.0000 C   0  0  0  0  0  0  0  0  0  0  0  0
    0.1063   -2.5014    0.0000 C   0  0  0  0  0  0  0  0  0  0  0  0
   -1.9116   -0.0668    0.0000 C   0  0  0  0  0  0  0  0  0  0  0  0
   -2.6620   -0.5796    0.0000 C   0  0  0  0  0  0  0  0  0  0  0  0
    1.8448   -0.5921    0.0000 N   0  0  0  0  0  0  0  0  0  0  0  0
   -1.1319   -0.6796    0.0000 S   0  0  0  0  0  0  0  0  0  0  0  0
   -0.8942   -2.5014    0.0000 N   0  0  0  0  0  0  0  0  0  0  0  0
    2.2950   -2.3138    0.0000 C   0  0  0  0  0  0  0  0  0  0  0  0
    0.9900   -0.0918    0.0000 O   0  0  0  0  0  0  0  0  0  0  0  0
    0.2772   -0.7629    0.0000 C   0  0  0  0  0  0  0  0  0  0  0  0
   -3.1122   -2.3806    0.0000 C   0  0  0  0  0  0  0  0  0  0  0  0
   -1.9698    0.8837    0.0000 C   0  0  0  0  0  0  0  0  0  0  0  0
   -3.7751   -3.1935    0.0000 N   0  0  0  0  0  0  0  0  0  0  0  0
   -3.5957   -0.1793    0.0000 C   0  0  0  0  0  0  0  0  0  0  0  0
   -2.8328    1.3590    0.0000 C   0  0  3  0  0  0  0  0  0  0  0  0
    0.5816   -3.3894    0.0000 O   0  0  0  0  0  0  0  0  0  0  0  0
   -2.8703    2.4221    0.0000 C   0  0  0  0  0  0  0  0  0  0  0  0
    3.2706   -2.1429    0.0000 C   0  0  0  0  0  0  0  0  0  0  0  0
   -3.6958    0.8087    0.0000 C   0  0  0  0  0  0  0  0  0  0  0  0
    3.5957   -1.2299    0.0000 Cl  0  0  0  0  0  0  0  0  0  0  0  0
    1.9949   -3.2686    0.0000 C   0  0  0  0  0  0  0  0  0  0  0  0
   -0.6984   -0.5128    0.0000 C   0  0  0  0  0  0  0  0  0  0  0  0
   -2.9329    3.4812    0.0000 C   0  0  0  0  0  0  0  0  0  0  0  0
   -3.9209    2.3971    0.0000 C   0  0  0  0  0  0  0  0  0  0  0  0
   -1.8865    2.4471    0.0000 C   0  0  0  0  0  0  0  0  0  0  0  0
    3.9209   -2.8641    0.0000 C   0  0  0  0  0  0  0  0  0  0  0  0
   -2.0824    4.0022    0.0000 C   0  0  0  0  0  0  0  0  0  0  0  0
    2.6410   -4.0022    0.0000 C   0  0  0  0  0  0  0  0  0  0  0  0
    3.6208   -3.8064    0.0000 C   0  0  0  0  0  0  0  0  0  0  0  0
  2  5  1  0  0  0  0
  1  3  2  0  0  0  0
  2  4  1  0  0  0  0
  5 10  1  0  0  0  0
  6  9  1  0  0  0  0
  6  7  2  0  0  0  0
  3  7  1  0  0  0  0
  4  8  2  0  0  0  0
  8 12  1  0  0  0  0
  1  9  1  0  0  0  0
  1 10  1  0  0  0  0
  4 11  1  0  0  0  0
 12 13  1  0  0  0  0
  2 13  2  0  0  0  0
  3 14  1  0  0  0  0
  6 15  1  0  0  0  0
 14 16  3  0  0  0  0
  7 17  1  0  0  0  0
 15 18  1  0  0  0  0
 18 22  1  0  0  0  0
  5 19  2  0  0  0  0
 18 20  1  0  0  0  0
 11 21  1  0  0  0  0
 17 22  1  0  0  0  0
 21 23  1  0  0  0  0
 11 24  2  0  0  0  0
 13 25  1  0  0  0  0
 20 26  1  0  0  0  0
 20 27  1  0  0  0  0
 20 28  1  0  0  0  0
 21 29  2  0  0  0  0
 26 30  1  0  0  0  0
 24 31  1  0  0  0  0
 31 32  2  0  0  0  0
 29 32  1  0  0  0  0
M  END
> <IDNUMBER>
Y509-7610

> <available>
27

> <H_acceptor>
5

> <H_donor>
1

> <B_rotN>
7

> <N_O>
5

> <logP>
5.9743

> <logD>
3.2214

> <logSw>
-5.9648

> <PSA>
62.061

> <pKa_ma>
4.6479

> <pKa_mb>
-6.8683

> <N_Chirals>
1

> <Name>
3-(2-chlorophenyl)-N-[3-cyano-6-(2-methylbutan-2-yl)-4,5,6,7-tetrahydro-1-benzothiophen-2-yl]-5-methyl-1,2-oxazole-4-carboxamide

> <Smile>
c1(c(c2c(s1)CC(C(CC)(C)C)CC2)C#N)NC(c1c(noc1C)c1c(Cl)cccc1)=O

> <Color>
ORANGE

> <Collection>
DC

> <InChI>
InChI=1S/C25H26ClN3O2S/c1-5-25(3,4)15-10-11-16-18(13-27)24(32-20(16)12-15)28-23(30)21-14(2)31-29-22(21)17-8-6-7-9-19(17)26/h6-9,15H,5,10-12H2,1-4H3,(H,28,30)/t15-/m1/s1

> <InChI Key>
WKMHDJPWBULJDL-OAHLLOKOSA-N

> <PERCENTSP3>
40

> <Link>
https://www.chemdiv.com/catalog/screening-compounds/compound-Y509-7610/

> <MFCDNUMBER>
MFCD01350468

> <CLNUMBER>
CL2451

> <STEREO>
RACEMIC MIXTURE

> <State>
Solid

> <Similarity score>
0.20

$$$$
3-(2H-1,3-benzodioxol-5-yl)-N-(3-cyano-5,6,7,8-tetrahydro-4H-cyclohepta[b]thioph
  -OEChem-04222410502D

 34 39  0     0  0  0  0  0  0999 V2000
    1.6314    0.5605    0.0000 C   0  0  0  0  0  0  0  0  0  0  0  0
    2.3688    1.2728    0.0000 C   0  0  0  0  0  0  0  0  0  0  0  0
   -0.3521   -1.7019    0.0000 C   0  0  0  0  0  0  0  0  0  0  0  0
   -0.0188   -2.6478    0.0000 C   0  0  0  0  0  0  0  0  0  0  0  0
    0.2979   -0.9478    0.0000 C   0  0  0  0  0  0  0  0  0  0  0  0
   -1.6314   -2.6896    0.0000 N   0  0  0  0  0  0  0  0  0  0  0  0
   -1.3480   -1.7269    0.0000 C   0  0  0  0  0  0  0  0  0  0  0  0
    2.0730   -0.3063    0.0000 S   0  0  0  0  0  0  0  0  0  0  0  0
    3.2437    0.7853    0.0000 C   0  0  0  0  0  0  0  0  0  0  0  0
    0.6187    0.7521    0.0000 N   0  0  0  0  0  0  0  0  0  0  0  0
   -0.0312   -0.0063    0.0000 C   0  0  0  0  0  0  0  0  0  0  0  0
    3.0521   -0.1896    0.0000 C   0  0  0  0  0  0  0  0  0  0  0  0
   -0.8148   -3.2563    0.0000 O   0  0  0  0  0  0  0  0  0  0  0  0
    0.9604   -2.8354    0.0000 N   0  0  0  0  0  0  0  0  0  0  0  0
   -2.1271   -1.1062    0.0000 C   0  0  0  0  0  0  0  0  0  0  0  0
    2.2603    2.2605    0.0000 C   0  0  0  0  0  0  0  0  0  0  0  0
    2.1564    3.2563    0.0000 N   0  0  0  0  0  0  0  0  0  0  0  0
   -3.8353   -0.8521    0.0000 C   0  0  0  0  0  0  0  0  0  0  0  0
   -3.0521   -1.4771    0.0000 C   0  0  0  0  0  0  0  0  0  0  0  0
    1.2852   -1.1313    0.0000 C   0  0  0  0  0  0  0  0  0  0  0  0
   -3.6937    0.1312    0.0000 C   0  0  0  0  0  0  0  0  0  0  0  0
   -4.8230   -1.0270    0.0000 O   0  0  0  0  0  0  0  0  0  0  0  0
    1.6147   -2.0770    0.0000 C   0  0  0  0  0  0  0  0  0  0  0  0
   -4.5978    0.5647    0.0000 O   0  0  0  0  0  0  0  0  0  0  0  0
   -1.0146    0.1772    0.0000 O   0  0  0  0  0  0  0  0  0  0  0  0
   -5.2896   -0.1479    0.0000 C   0  0  0  0  0  0  0  0  0  0  0  0
   -1.9729   -0.1228    0.0000 C   0  0  0  0  0  0  0  0  0  0  0  0
   -2.7604    0.5063    0.0000 C   0  0  0  0  0  0  0  0  0  0  0  0
    4.1395    1.2522    0.0000 C   0  0  0  0  0  0  0  0  0  0  0  0
    3.6895   -0.9521    0.0000 C   0  0  0  0  0  0  0  0  0  0  0  0
    2.6063   -2.2686    0.0000 C   0  0  0  0  0  0  0  0  0  0  0  0
    5.0437    0.8148    0.0000 C   0  0  0  0  0  0  0  0  0  0  0  0
    4.6894   -0.9439    0.0000 C   0  0  0  0  0  0  0  0  0  0  0  0
    5.2896   -0.1479    0.0000 C   0  0  0  0  0  0  0  0  0  0  0  0
  1  2  2  0  0  0  0
  3  5  1  0  0  0  0
  3  4  2  0  0  0  0
  4 14  1  0  0  0  0
  5 11  1  0  0  0  0
  6  7  2  0  0  0  0
  3  7  1  0  0  0  0
  1  8  1  0  0  0  0
  2  9  1  0  0  0  0
  9 12  2  0  0  0  0
  1 10  1  0  0  0  0
 10 11  1  0  0  0  0
  8 12  1  0  0  0  0
  4 13  1  0  0  0  0
  6 13  1  0  0  0  0
 14 23  2  0  0  0  0
  7 15  1  0  0  0  0
  2 16  1  0  0  0  0
 16 17  3  0  0  0  0
 18 19  1  0  0  0  0
 18 21  2  0  0  0  0
 15 19  2  0  0  0  0
  5 20  2  0  0  0  0
 21 28  1  0  0  0  0
 18 22  1  0  0  0  0
 20 23  1  0  0  0  0
 21 24  1  0  0  0  0
 11 25  2  0  0  0  0
 22 26  1  0  0  0  0
 24 26  1  0  0  0  0
 15 27  1  0  0  0  0
 27 28  2  0  0  0  0
  9 29  1  0  0  0  0
 12 30  1  0  0  0  0
 23 31  1  0  0  0  0
 29 32  1  0  0  0  0
 32 34  1  0  0  0  0
 30 33  1  0  0  0  0
 33 34  1  0  0  0  0
M  END
> <IDNUMBER>
Y501-6656

> <available>
20

> <H_acceptor>
8

> <H_donor>
1

> <B_rotN>
5

> <N_O>
8

> <logP>
5.1653

> <logD>
3.6599

> <logSw>
-5.0627

> <PSA>
88.07

> <pKa_ma>
5.9084

> <pKa_mb>
-1.9333

> <N_Chirals>
0

> <Name>
3-(2H-1,3-benzodioxol-5-yl)-N-(3-cyano-5,6,7,8-tetrahydro-4H-cyclohepta[b]thiophen-2-yl)-6-methyl[1,2]oxazolo[5,4-b]pyridine-4-carboxamide

> <Smile>
Cc1cc(C(Nc(sc2c3CCCCC2)c3C#N)=O)c(c(-c(cc2)cc3c2OCO3)no2)c2n1

> <Color>
BROWN

> <Collection>
DC

> <InChI>
InChI=1S/C25H20N4O4S/c1-13-9-16(23(30)28-25-17(11-26)15-5-3-2-4-6-20(15)34-25)21-22(29-33-24(21)27-13)14-7-8-18-19(10-14)32-12-31-18/h7-10H,2-6,12H2,1H3,(H,28,30)

> <InChI Key>
LWINYZMOSDMBEP-UHFFFAOYSA-N

> <PERCENTSP3>
28

> <Link>
https://www.chemdiv.com/catalog/screening-compounds/compound-Y501-6656/

> <MFCDNUMBER>
MFCD08557486

> <CLNUMBER>
CL7490

> <STEREO>
ACHIRAL

> <State>
Solid

> <Similarity score>
0.20

$$$$
N-(3-cyano-5,6-dihydro-4H-cyclopenta[b]thiophen-2-yl)-7-methoxy-4,5-dihydronapht
  -OEChem-04222410502D

 28 32  0     0  0  0  0  0  0999 V2000
   -1.2330   -2.7196    0.0000 C   0  0  0  0  0  0  0  0  0  0  0  0
   -0.4167    0.4024    0.0000 C   0  0  0  0  0  0  0  0  0  0  0  0
   -0.6289   -3.4984    0.0000 C   0  0  0  0  0  0  0  0  0  0  0  0
    0.3680    0.9781    0.0000 C   0  0  0  0  0  0  0  0  0  0  0  0
    0.0844    1.9001    0.0000 C   0  0  0  0  0  0  0  0  0  0  0  0
   -1.1872    0.9868    0.0000 N   0  0  0  0  0  0  0  0  0  0  0  0
   -2.1722   -3.0574    0.0000 S   0  0  0  0  0  0  0  0  0  0  0  0
   -0.3710   -1.2128    0.0000 C   0  0  0  0  0  0  0  0  0  0  0  0
   -1.1729   -4.3262    0.0000 C   0  0  0  0  0  0  0  0  0  0  0  0
   -0.8834    1.9001    0.0000 O   0  0  0  0  0  0  0  0  0  0  0  0
   -1.2330   -1.7142    0.0000 N   0  0  0  0  0  0  0  0  0  0  0  0
   -2.1265   -4.0426    0.0000 C   0  0  0  0  0  0  0  0  0  0  0  0
    0.7319    2.6134    0.0000 C   0  0  0  0  0  0  0  0  0  0  0  0
    0.3797   -3.4612    0.0000 C   0  0  0  0  0  0  0  0  0  0  0  0
    1.6711    2.4012    0.0000 C   0  0  0  0  0  0  0  0  0  0  0  0
    1.3188    0.7661    0.0000 C   0  0  0  0  0  0  0  0  0  0  0  0
    1.3790   -3.4210    0.0000 N   0  0  0  0  0  0  0  0  0  0  0  0
    0.4453    3.5355    0.0000 C   0  0  0  0  0  0  0  0  0  0  0  0
    0.4538   -1.7284    0.0000 O   0  0  0  0  0  0  0  0  0  0  0  0
    1.9691    1.4878    0.0000 C   0  0  0  0  0  0  0  0  0  0  0  0
    2.3213    3.1117    0.0000 C   0  0  0  0  0  0  0  0  0  0  0  0
    2.0347    4.0369    0.0000 C   0  0  0  0  0  0  0  0  0  0  0  0
    1.0956    4.2485    0.0000 C   0  0  0  0  0  0  0  0  0  0  0  0
   -1.1271   -5.3284    0.0000 C   0  0  0  0  0  0  0  0  0  0  0  0
   -2.6850   -4.8847    0.0000 C   0  0  0  0  0  0  0  0  0  0  0  0
    2.6850    4.7468    0.0000 O   0  0  0  0  0  0  0  0  0  0  0  0
   -2.0808   -5.6720    0.0000 C   0  0  0  0  0  0  0  0  0  0  0  0
    2.3987    5.6720    0.0000 C   0  0  0  0  0  0  0  0  0  0  0  0
  2  8  1  0  0  0  0
  1  3  2  0  0  0  0
  2  4  1  0  0  0  0
  4  5  2  0  0  0  0
  5 10  1  0  0  0  0
  2  6  2  0  0  0  0
  1  7  1  0  0  0  0
  8 11  1  0  0  0  0
  3  9  1  0  0  0  0
  9 12  2  0  0  0  0
  6 10  1  0  0  0  0
  1 11  1  0  0  0  0
  7 12  1  0  0  0  0
  5 13  1  0  0  0  0
 13 15  2  0  0  0  0
  3 14  1  0  0  0  0
 15 20  1  0  0  0  0
  4 16  1  0  0  0  0
 14 17  3  0  0  0  0
 13 18  1  0  0  0  0
  8 19  2  0  0  0  0
 16 20  1  0  0  0  0
 15 21  1  0  0  0  0
 21 22  2  0  0  0  0
 22 23  1  0  0  0  0
 18 23  2  0  0  0  0
  9 24  1  0  0  0  0
 12 25  1  0  0  0  0
 22 26  1  0  0  0  0
 25 27  1  0  0  0  0
 24 27  1  0  0  0  0
 26 28  1  0  0  0  0
M  END
> <IDNUMBER>
C226-4085

> <available>
136

> <H_acceptor>
6

> <H_donor>
1

> <B_rotN>
5

> <N_O>
6

> <logP>
4.5266

> <logD>
2.7336

> <logSw>
-4.498

> <PSA>
70.091

> <pKa_ma>
5.614

> <pKa_mb>
-6.2231

> <N_Chirals>
0

> <Name>
N-(3-cyano-5,6-dihydro-4H-cyclopenta[b]thiophen-2-yl)-7-methoxy-4,5-dihydronaphtho[2,1-d][1,2]oxazole-3-carboxamide

> <Smile>
COc(cc1)cc(CC2)c1-c1c2c(C(Nc(sc2c3CCC2)c3C#N)=O)no1

> <Color>
PINK

> <Collection>
DC

> <InChI>
InChI=1S/C21H17N3O3S/c1-26-12-6-8-13-11(9-12)5-7-15-18(24-27-19(13)15)20(25)23-21-16(10-22)14-3-2-4-17(14)28-21/h6,8-9H,2-5,7H2,1H3,(H,23,25)

> <InChI Key>
QQVXHZSFJVNFGU-UHFFFAOYSA-N

> <PERCENTSP3>
28.6

> <Link>
https://www.chemdiv.com/catalog/screening-compounds/compound-C226-4085/

> <MFCDNUMBER>
MFCD09783254

> <CLNUMBER>
CL6931

> <STEREO>
ACHIRAL

> <State>
Solid

> <Similarity score>
0.20

$$$$
N-(6-tert-butyl-3-cyano-4,5,6,7-tetrahydro-1-benzothiophen-2-yl)-4,5-dihydronaph
  -OEChem-04222410502D

 31 35  0     0  0  0  0  0  0999 V2000
   -0.4173   -0.9279    0.0000 C   0  0  0  0  0  0  0  0  0  0  0  0
    0.4151    2.1390    0.0000 C   0  0  0  0  0  0  0  0  0  0  0  0
   -1.2250   -1.4828    0.0000 C   0  0  0  0  0  0  0  0  0  0  0  0
    1.2005    2.7138    0.0000 C   0  0  0  0  0  0  0  0  0  0  0  0
    0.8979    3.6353    0.0000 C   0  0  0  0  0  0  0  0  0  0  0  0
   -0.3555    2.7138    0.0000 N   0  0  0  0  0  0  0  0  0  0  0  0
    0.0607   -2.4661    0.0000 C   0  0  0  0  0  0  0  0  0  0  0  0
   -0.9473   -2.4463    0.0000 C   0  0  0  0  0  0  0  0  0  0  0  0
    0.3853   -1.5298    0.0000 S   0  0  0  0  0  0  0  0  0  0  0  0
    0.4447    0.5858    0.0000 C   0  0  0  0  0  0  0  0  0  0  0  0
   -0.0706    3.6203    0.0000 O   0  0  0  0  0  0  0  0  0  0  0  0
   -0.4173    0.0880    0.0000 N   0  0  0  0  0  0  0  0  0  0  0  0
    1.5446    4.3563    0.0000 C   0  0  0  0  0  0  0  0  0  0  0  0
   -2.1662   -1.1507    0.0000 C   0  0  0  0  0  0  0  0  0  0  0  0
    2.1368    2.5155    0.0000 C   0  0  0  0  0  0  0  0  0  0  0  0
    0.5364   -3.3430    0.0000 C   0  0  0  0  0  0  0  0  0  0  0  0
   -3.1201   -0.8213    0.0000 N   0  0  0  0  0  0  0  0  0  0  0  0
   -1.4601   -3.2934    0.0000 C   0  0  0  0  0  0  0  0  0  0  0  0
    0.0062   -4.2002    0.0000 C   0  0  3  0  0  0  0  0  0  0  0  0
    0.4842   -5.0919    0.0000 C   0  0  0  0  0  0  0  0  0  0  0  0
    2.4786    4.1504    0.0000 C   0  0  0  0  0  0  0  0  0  0  0  0
    1.2720    0.0880    0.0000 O   0  0  0  0  0  0  0  0  0  0  0  0
   -0.9822   -4.1704    0.0000 C   0  0  0  0  0  0  0  0  0  0  0  0
    2.7806    3.2414    0.0000 C   0  0  0  0  0  0  0  0  0  0  0  0
    1.2422    5.2703    0.0000 C   0  0  0  0  0  0  0  0  0  0  0  0
   -0.4173   -5.5628    0.0000 C   0  0  0  0  0  0  0  0  0  0  0  0
    1.3761   -4.6287    0.0000 C   0  0  0  0  0  0  0  0  0  0  0  0
    0.9449   -5.9911    0.0000 C   0  0  0  0  0  0  0  0  0  0  0  0
    3.1201    4.8764    0.0000 C   0  0  0  0  0  0  0  0  0  0  0  0
    1.8790    5.9911    0.0000 C   0  0  0  0  0  0  0  0  0  0  0  0
    2.8155    5.7929    0.0000 C   0  0  0  0  0  0  0  0  0  0  0  0
  2 10  1  0  0  0  0
  1  3  2  0  0  0  0
  2  4  1  0  0  0  0
  4  5  2  0  0  0  0
  5 11  1  0  0  0  0
  2  6  2  0  0  0  0
  7  9  1  0  0  0  0
  7  8  2  0  0  0  0
  3  8  1  0  0  0  0
  1  9  1  0  0  0  0
 10 12  1  0  0  0  0
  6 11  1  0  0  0  0
  1 12  1  0  0  0  0
  5 13  1  0  0  0  0
 13 21  2  0  0  0  0
  3 14  1  0  0  0  0
  4 15  1  0  0  0  0
  7 16  1  0  0  0  0
 14 17  3  0  0  0  0
  8 18  1  0  0  0  0
 16 19  1  0  0  0  0
 19 20  1  0  0  0  0
 21 24  1  0  0  0  0
 10 22  2  0  0  0  0
 18 23  1  0  0  0  0
 19 23  1  0  0  0  0
 15 24  1  0  0  0  0
 13 25  1  0  0  0  0
 20 26  1  0  0  0  0
 20 27  1  0  0  0  0
 20 28  1  0  0  0  0
 21 29  1  0  0  0  0
 25 30  2  0  0  0  0
 29 31  2  0  0  0  0
 30 31  1  0  0  0  0
M  END
> <IDNUMBER>
C226-3975

> <available>
196

> <H_acceptor>
5

> <H_donor>
1

> <B_rotN>
5

> <N_O>
5

> <logP>
6.3912

> <logD>
4.6185

> <logSw>
-5.717

> <PSA>
62.182

> <pKa_ma>
5.6347

> <pKa_mb>
-6.2231

> <N_Chirals>
1

> <Name>
N-(6-tert-butyl-3-cyano-4,5,6,7-tetrahydro-1-benzothiophen-2-yl)-4,5-dihydronaphtho[2,1-d][1,2]oxazole-3-carboxamide

> <Smile>
CC(C)(C)C(CC1)Cc2c1c(C#N)c(NC(c1noc-3c1CCc1c3cccc1)=O)s2

> <Color>
NOT COLORED

> <Collection>
DC

> <InChI>
InChI=1S/C25H25N3O2S/c1-25(2,3)15-9-11-17-19(13-26)24(31-20(17)12-15)27-23(29)21-18-10-8-14-6-4-5-7-16(14)22(18)30-28-21/h4-7,15H,8-12H2,1-3H3,(H,27,29)/t15-/m1/s1

> <InChI Key>
JDWZNYXLRZPBNZ-OAHLLOKOSA-N

> <PERCENTSP3>
40

> <Link>
https://www.chemdiv.com/catalog/screening-compounds/compound-C226-3975/

> <MFCDNUMBER>
MFCD09783182

> <CLNUMBER>
CL6931

> <STEREO>
RACEMIC MIXTURE

> <State>
Solid

> <Similarity score>
0.20

$$$$
N-(3-cyano-5,6-dihydro-4H-cyclopenta[b]thiophen-2-yl)-6-methyl-3-phenyl[1,2]oxaz
  -OEChem-04222410502D

 29 33  0     0  0  0  0  0  0999 V2000
    1.0187   -0.7271    0.0000 C   0  0  0  0  0  0  0  0  0  0  0  0
    1.8186   -1.2853    0.0000 C   0  0  0  0  0  0  0  0  0  0  0  0
   -2.4021   -0.2022    0.0000 C   0  0  0  0  0  0  0  0  0  0  0  0
   -3.3354   -0.5645    0.0000 C   0  0  0  0  0  0  0  0  0  0  0  0
   -1.6187   -0.8271    0.0000 C   0  0  0  0  0  0  0  0  0  0  0  0
   -3.4311    1.0480    0.0000 N   0  0  0  0  0  0  0  0  0  0  0  0
    1.3521    0.2523    0.0000 S   0  0  0  0  0  0  0  0  0  0  0  0
    2.6352   -0.7188    0.0000 C   0  0  0  0  0  0  0  0  0  0  0  0
   -2.4562    0.7937    0.0000 C   0  0  0  0  0  0  0  0  0  0  0  0
    0.0895   -1.0895    0.0000 N   0  0  0  0  0  0  0  0  0  0  0  0
   -0.6855   -0.4645    0.0000 C   0  0  0  0  0  0  0  0  0  0  0  0
    2.3603    0.2354    0.0000 C   0  0  0  0  0  0  0  0  0  0  0  0
   -3.9686    0.2022    0.0000 O   0  0  0  0  0  0  0  0  0  0  0  0
   -3.4811   -1.5520    0.0000 N   0  0  0  0  0  0  0  0  0  0  0  0
    1.8354   -2.3019    0.0000 C   0  0  0  0  0  0  0  0  0  0  0  0
    1.8395   -3.2853    0.0000 N   0  0  0  0  0  0  0  0  0  0  0  0
   -1.7729   -1.8186    0.0000 C   0  0  0  0  0  0  0  0  0  0  0  0
   -2.7021   -2.1813    0.0000 C   0  0  0  0  0  0  0  0  0  0  0  0
   -0.5355    0.5186    0.0000 O   0  0  0  0  0  0  0  0  0  0  0  0
   -1.8313    1.5772    0.0000 C   0  0  0  0  0  0  0  0  0  0  0  0
    3.6477   -0.7312    0.0000 C   0  0  0  0  0  0  0  0  0  0  0  0
    3.1936    0.8147    0.0000 C   0  0  0  0  0  0  0  0  0  0  0  0
    3.9686    0.2022    0.0000 C   0  0  0  0  0  0  0  0  0  0  0  0
   -2.8521   -3.1687    0.0000 C   0  0  0  0  0  0  0  0  0  0  0  0
   -2.1979    2.5104    0.0000 C   0  0  0  0  0  0  0  0  0  0  0  0
   -0.8437    1.4229    0.0000 C   0  0  0  0  0  0  0  0  0  0  0  0
   -1.5729    3.2853    0.0000 C   0  0  0  0  0  0  0  0  0  0  0  0
   -0.2186    2.2061    0.0000 C   0  0  0  0  0  0  0  0  0  0  0  0
   -0.5855    3.1355    0.0000 C   0  0  0  0  0  0  0  0  0  0  0  0
  1  2  2  0  0  0  0
  3  5  1  0  0  0  0
  3  4  2  0  0  0  0
  5 11  1  0  0  0  0
  6  9  2  0  0  0  0
  6 13  1  0  0  0  0
  1  7  1  0  0  0  0
  2  8  1  0  0  0  0
  3  9  1  0  0  0  0
  1 10  1  0  0  0  0
 10 11  1  0  0  0  0
  7 12  1  0  0  0  0
  8 12  2  0  0  0  0
  4 13  1  0  0  0  0
 14 18  2  0  0  0  0
  4 14  1  0  0  0  0
  2 15  1  0  0  0  0
 15 16  3  0  0  0  0
  5 17  2  0  0  0  0
 17 18  1  0  0  0  0
 11 19  2  0  0  0  0
  9 20  1  0  0  0  0
  8 21  1  0  0  0  0
 12 22  1  0  0  0  0
 22 23  1  0  0  0  0
 21 23  1  0  0  0  0
 18 24  1  0  0  0  0
 20 25  1  0  0  0  0
 20 26  2  0  0  0  0
 25 27  2  0  0  0  0
 27 29  1  0  0  0  0
 26 28  1  0  0  0  0
 28 29  2  0  0  0  0
M  END
> <IDNUMBER>
Y501-2729

> <available>
10

> <H_acceptor>
6

> <H_donor>
1

> <B_rotN>
5

> <N_O>
6

> <logP>
4.1451

> <logD>
2.6197

> <logSw>
-4.59

> <PSA>
70.99

> <pKa_ma>
5.8877

> <pKa_mb>
-1.9333

> <N_Chirals>
0

> <Name>
N-(3-cyano-5,6-dihydro-4H-cyclopenta[b]thiophen-2-yl)-6-methyl-3-phenyl[1,2]oxazolo[5,4-b]pyridine-4-carboxamide

> <Smile>
Cc1cc(C(Nc(sc2c3CCC2)c3C#N)=O)c(c(-c2ccccc2)no2)c2n1

> <Color>
BROWN

> <Collection>
DC

> <InChI>
InChI=1S/C22H16N4O2S/c1-12-10-15(18-19(26-28-21(18)24-12)13-6-3-2-4-7-13)20(27)25-22-16(11-23)14-8-5-9-17(14)29-22/h2-4,6-7,10H,5,8-9H2,1H3,(H,25,27)

> <InChI Key>
GJEICPIYJGGZKP-UHFFFAOYSA-N

> <PERCENTSP3>
18.18

> <Link>
https://www.chemdiv.com/catalog/screening-compounds/compound-Y501-2729/

> <MFCDNUMBER>
MFCD08557909

> <CLNUMBER>
CL7490

> <STEREO>
ACHIRAL

> <State>
Solid

> <Similarity score>
0.20

$$$$
3-(2-chlorophenyl)-N-(3-cyano-5,6-dihydro-4H-cyclopenta[b]thiophen-2-yl)-5-methy
  -OEChem-04222410502D

 26 29  0     0  0  0  0  0  0999 V2000
    0.9916   -1.1651    0.0000 C   0  0  0  0  0  0  0  0  0  0  0  0
   -1.6308   -0.9219    0.0000 C   0  0  0  0  0  0  0  0  0  0  0  0
    1.2895   -0.2375    0.0000 C   0  0  0  0  0  0  0  0  0  0  0  0
   -2.3301   -0.1981    0.0000 C   0  0  0  0  0  0  0  0  0  0  0  0
   -0.6674   -0.6844    0.0000 C   0  0  0  0  0  0  0  0  0  0  0  0
   -3.2143   -0.6391    0.0000 N   0  0  0  0  0  0  0  0  0  0  0  0
    1.7986   -1.7703    0.0000 S   0  0  0  0  0  0  0  0  0  0  0  0
    0.0339   -1.4083    0.0000 N   0  0  0  0  0  0  0  0  0  0  0  0
    2.2849   -0.2375    0.0000 C   0  0  0  0  0  0  0  0  0  0  0  0
    2.6073   -1.2048    0.0000 C   0  0  0  0  0  0  0  0  0  0  0  0
   -2.1680    0.7730    0.0000 C   0  0  0  0  0  0  0  0  0  0  0  0
   -3.1107   -1.6063    0.0000 O   0  0  0  0  0  0  0  0  0  0  0  0
   -2.1114   -1.8099    0.0000 C   0  0  0  0  0  0  0  0  0  0  0  0
    0.6730    0.5656    0.0000 C   0  0  0  0  0  0  0  0  0  0  0  0
    0.0566    1.3648    0.0000 N   0  0  0  0  0  0  0  0  0  0  0  0
   -0.3959    0.2828    0.0000 O   0  0  0  0  0  0  0  0  0  0  0  0
   -2.9750    1.3648    0.0000 C   0  0  0  0  0  0  0  0  0  0  0  0
    3.0881    0.3280    0.0000 C   0  0  0  0  0  0  0  0  0  0  0  0
   -3.9195    1.0162    0.0000 Cl  0  0  0  0  0  0  0  0  0  0  0  0
    3.5971   -1.2048    0.0000 C   0  0  0  0  0  0  0  0  0  0  0  0
   -1.2556    1.1311    0.0000 C   0  0  0  0  0  0  0  0  0  0  0  0
   -1.7137   -2.7374    0.0000 C   0  0  0  0  0  0  0  0  0  0  0  0
    3.9195   -0.2375    0.0000 C   0  0  0  0  0  0  0  0  0  0  0  0
   -2.8449    2.3755    0.0000 C   0  0  0  0  0  0  0  0  0  0  0  0
   -1.1217    2.1284    0.0000 C   0  0  0  0  0  0  0  0  0  0  0  0
   -1.9003    2.7374    0.0000 C   0  0  0  0  0  0  0  0  0  0  0  0
  2  5  1  0  0  0  0
  1  3  2  0  0  0  0
  2  4  1  0  0  0  0
  5  8  1  0  0  0  0
  4  6  2  0  0  0  0
  1  7  1  0  0  0  0
  1  8  1  0  0  0  0
  3  9  1  0  0  0  0
  7 10  1  0  0  0  0
  9 10  2  0  0  0  0
  4 11  1  0  0  0  0
 12 13  1  0  0  0  0
  6 12  1  0  0  0  0
  2 13  2  0  0  0  0
  3 14  1  0  0  0  0
 14 15  3  0  0  0  0
  5 16  2  0  0  0  0
 11 17  1  0  0  0  0
  9 18  1  0  0  0  0
 18 23  1  0  0  0  0
 17 19  1  0  0  0  0
 10 20  1  0  0  0  0
 11 21  2  0  0  0  0
 13 22  1  0  0  0  0
 20 23  1  0  0  0  0
 17 24  2  0  0  0  0
 24 26  1  0  0  0  0
 21 25  1  0  0  0  0
 25 26  2  0  0  0  0
M  END
> <IDNUMBER>
8008-9661

> <available>
15

> <H_acceptor>
5

> <H_donor>
1

> <B_rotN>
5

> <N_O>
5

> <logP>
4.0983

> <logD>
1.3248

> <logSw>
-4.6576

> <PSA>
62.427

> <pKa_ma>
4.6272

> <pKa_mb>
-6.8683

> <N_Chirals>
0

> <Name>
3-(2-chlorophenyl)-N-(3-cyano-5,6-dihydro-4H-cyclopenta[b]thiophen-2-yl)-5-methyl-1,2-oxazole-4-carboxamide

> <Smile>
Cc1c(C(Nc(sc2c3CCC2)c3C#N)=O)c(-c(cccc2)c2Cl)no1

> <Color>
BROWN

> <Collection>
DC

> <InChI>
InChI=1S/C19H14ClN3O2S/c1-10-16(17(23-25-10)12-5-2-3-7-14(12)20)18(24)22-19-13(9-21)11-6-4-8-15(11)26-19/h2-3,5,7H,4,6,8H2,1H3,(H,22,24)

> <InChI Key>
PPPHOQFSIXVYRL-UHFFFAOYSA-N

> <PERCENTSP3>
21.1

> <Link>
https://www.chemdiv.com/catalog/screening-compounds/compound-8008-9661/

> <MFCDNUMBER>
MFCD01460598

> <CLNUMBER>
CL2451

> <STEREO>
ACHIRAL

> <State>
Solid

> <Similarity score>
0.20

$$$$
3-(2-chlorophenyl)-N-(3-cyano-4,5,6,7-tetrahydro-1-benzothiophen-2-yl)-5-methyl-
  -OEChem-04222410502D

 27 30  0     0  0  0  0  0  0999 V2000
    1.1989   -0.2311    0.0000 C   0  0  0  0  0  0  0  0  0  0  0  0
   -1.3869   -0.7378    0.0000 C   0  0  0  0  0  0  0  0  0  0  0  0
    1.2939    0.7948    0.0000 C   0  0  0  0  0  0  0  0  0  0  0  0
   -2.3495   -0.4592    0.0000 C   0  0  0  0  0  0  0  0  0  0  0  0
   -0.5466   -0.2311    0.0000 C   0  0  0  0  0  0  0  0  0  0  0  0
   -2.9384   -1.2508    0.0000 N   0  0  0  0  0  0  0  0  0  0  0  0
    2.1026   -0.5985    0.0000 S   0  0  0  0  0  0  0  0  0  0  0  0
    0.3420   -0.7378    0.0000 N   0  0  0  0  0  0  0  0  0  0  0  0
    2.2861    0.9827    0.0000 C   0  0  0  0  0  0  0  0  0  0  0  0
    2.7801    0.1424    0.0000 C   0  0  0  0  0  0  0  0  0  0  0  0
   -2.6851    0.4655    0.0000 C   0  0  0  0  0  0  0  0  0  0  0  0
   -2.3178   -2.0867    0.0000 O   0  0  0  0  0  0  0  0  0  0  0  0
   -1.3869   -1.7637    0.0000 C   0  0  0  0  0  0  0  0  0  0  0  0
    0.5636    1.4406    0.0000 C   0  0  0  0  0  0  0  0  0  0  0  0
   -0.2153    2.0867    0.0000 N   0  0  0  0  0  0  0  0  0  0  0  0
   -0.5466    0.7440    0.0000 O   0  0  0  0  0  0  0  0  0  0  0  0
   -3.6794    0.6492    0.0000 C   0  0  0  0  0  0  0  0  0  0  0  0
   -4.3000   -0.1363    0.0000 Cl  0  0  0  0  0  0  0  0  0  0  0  0
    2.8075    1.8480    0.0000 C   0  0  0  0  0  0  0  0  0  0  0  0
    3.8060    0.1424    0.0000 C   0  0  0  0  0  0  0  0  0  0  0  0
   -2.0708    1.2571    0.0000 C   0  0  0  0  0  0  0  0  0  0  0  0
   -0.5466   -2.3653    0.0000 C   0  0  0  0  0  0  0  0  0  0  0  0
   -4.0213    1.5843    0.0000 C   0  0  0  0  0  0  0  0  0  0  0  0
    3.8060    1.8480    0.0000 C   0  0  0  0  0  0  0  0  0  0  0  0
    4.3000    0.9827    0.0000 C   0  0  0  0  0  0  0  0  0  0  0  0
   -2.4338    2.1753    0.0000 C   0  0  0  0  0  0  0  0  0  0  0  0
   -3.4007    2.3653    0.0000 C   0  0  0  0  0  0  0  0  0  0  0  0
  2  5  1  0  0  0  0
  1  3  2  0  0  0  0
  2  4  1  0  0  0  0
  5  8  1  0  0  0  0
  4  6  2  0  0  0  0
  1  7  1  0  0  0  0
  1  8  1  0  0  0  0
  3  9  1  0  0  0  0
  7 10  1  0  0  0  0
  9 10  2  0  0  0  0
  4 11  1  0  0  0  0
 12 13  1  0  0  0  0
  6 12  1  0  0  0  0
  2 13  2  0  0  0  0
  3 14  1  0  0  0  0
 14 15  3  0  0  0  0
  5 16  2  0  0  0  0
 11 17  1  0  0  0  0
 17 18  1  0  0  0  0
  9 19  1  0  0  0  0
 10 20  1  0  0  0  0
 11 21  2  0  0  0  0
 13 22  1  0  0  0  0
 17 23  2  0  0  0  0
 23 27  1  0  0  0  0
 19 24  1  0  0  0  0
 20 25  1  0  0  0  0
 24 25  1  0  0  0  0
 21 26  1  0  0  0  0
 26 27  2  0  0  0  0
M  END
> <IDNUMBER>
8009-5648

> <available>
9

> <H_acceptor>
5

> <H_donor>
1

> <B_rotN>
5

> <N_O>
5

> <logP>
4.5086

> <logD>
1.7557

> <logSw>
-4.8238

> <PSA>
62.061

> <pKa_ma>
4.6479

> <pKa_mb>
-6.8125

> <N_Chirals>
0

> <Name>
3-(2-chlorophenyl)-N-(3-cyano-4,5,6,7-tetrahydro-1-benzothiophen-2-yl)-5-methyl-1,2-oxazole-4-carboxamide

> <Smile>
Cc1c(C(Nc(sc2c3CCCC2)c3C#N)=O)c(-c(cccc2)c2Cl)no1

> <Color>
NOT COLORED

> <Collection>
DC

> <InChI>
InChI=1S/C20H16ClN3O2S/c1-11-17(18(24-26-11)13-7-2-4-8-15(13)21)19(25)23-20-14(10-22)12-6-3-5-9-16(12)27-20/h2,4,7-8H,3,5-6,9H2,1H3,(H,23,25)

> <InChI Key>
IEYTVLZRFYNCEB-UHFFFAOYSA-N

> <PERCENTSP3>
25

> <Link>
https://www.chemdiv.com/catalog/screening-compounds/compound-8009-5648/

> <MFCDNUMBER>
MFCD01197445

> <CLNUMBER>
CL2451

> <STEREO>
ACHIRAL

> <State>
Solid

> <Similarity score>
0.20

$$$$
3-(2H-1,3-benzodioxol-5-yl)-N-(3-cyano-6-methyl-4,5,6,7-tetrahydro-1-benzothioph
  -OEChem-04222410502D

 34 39  0     0  0  0  0  0  0999 V2000
    1.2437   -0.6103    0.0000 C   0  0  0  0  0  0  0  0  0  0  0  0
    0.8437   -1.5476    0.0000 C   0  0  0  0  0  0  0  0  0  0  0  0
   -1.7560    1.1103    0.0000 C   0  0  0  0  0  0  0  0  0  0  0  0
   -2.2519    1.9852    0.0000 C   0  0  0  0  0  0  0  0  0  0  0  0
    1.5936   -2.1976    0.0000 C   0  0  0  0  0  0  0  0  0  0  0  0
    2.4517   -1.7102    0.0000 C   0  0  0  0  0  0  0  0  0  0  0  0
    2.2394   -0.7103    0.0000 S   0  0  0  0  0  0  0  0  0  0  0  0
   -0.7561    1.1103    0.0000 C   0  0  0  0  0  0  0  0  0  0  0  0
   -3.3267    0.7853    0.0000 N   0  0  0  0  0  0  0  0  0  0  0  0
   -2.4143    0.3729    0.0000 C   0  0  0  0  0  0  0  0  0  0  0  0
    0.7437    0.2479    0.0000 N   0  0  0  0  0  0  0  0  0  0  0  0
   -0.2562    0.2479    0.0000 C   0  0  0  0  0  0  0  0  0  0  0  0
   -3.2268    1.7727    0.0000 O   0  0  0  0  0  0  0  0  0  0  0  0
   -1.7560    2.8476    0.0000 N   0  0  0  0  0  0  0  0  0  0  0  0
   -2.4518   -0.6227    0.0000 C   0  0  0  0  0  0  0  0  0  0  0  0
   -0.1188   -1.7727    0.0000 C   0  0  0  0  0  0  0  0  0  0  0  0
   -1.0811   -2.0102    0.0000 N   0  0  0  0  0  0  0  0  0  0  0  0
   -3.3767   -2.0851    0.0000 C   0  0  0  0  0  0  0  0  0  0  0  0
    1.5811   -3.1851    0.0000 C   0  0  0  0  0  0  0  0  0  0  0  0
   -3.3392   -1.0853    0.0000 C   0  0  0  0  0  0  0  0  0  0  0  0
   -0.2562    1.9852    0.0000 C   0  0  0  0  0  0  0  0  0  0  0  0
    3.3392   -2.1976    0.0000 C   0  0  0  0  0  0  0  0  0  0  0  0
   -2.5269   -2.6225    0.0000 C   0  0  0  0  0  0  0  0  0  0  0  0
   -4.1516   -2.7225    0.0000 O   0  0  0  0  0  0  0  0  0  0  0  0
   -0.7561    2.8476    0.0000 C   0  0  0  0  0  0  0  0  0  0  0  0
   -2.7894   -3.5849    0.0000 O   0  0  0  0  0  0  0  0  0  0  0  0
   -0.7561   -0.6103    0.0000 O   0  0  0  0  0  0  0  0  0  0  0  0
   -3.7893   -3.6474    0.0000 C   0  0  0  0  0  0  0  0  0  0  0  0
   -1.6062   -1.1477    0.0000 C   0  0  0  0  0  0  0  0  0  0  0  0
   -1.6436   -2.1475    0.0000 C   0  0  0  0  0  0  0  0  0  0  0  0
    2.4393   -3.7099    0.0000 C   0  0  0  0  0  0  0  0  0  0  0  0
    3.3142   -3.2100    0.0000 C   0  0  3  0  0  0  0  0  0  0  0  0
   -0.2562    3.7350    0.0000 C   0  0  0  0  0  0  0  0  0  0  0  0
    4.1516   -3.7350    0.0000 C   0  0  0  0  0  0  0  0  0  0  0  0
  1  2  2  0  0  0  0
  3  8  1  0  0  0  0
  3  4  2  0  0  0  0
  2  5  1  0  0  0  0
  6  7  1  0  0  0  0
  5  6  2  0  0  0  0
  1  7  1  0  0  0  0
  8 12  1  0  0  0  0
  9 10  2  0  0  0  0
  9 13  1  0  0  0  0
  3 10  1  0  0  0  0
  1 11  1  0  0  0  0
 11 12  1  0  0  0  0
  4 13  1  0  0  0  0
 14 25  2  0  0  0  0
  4 14  1  0  0  0  0
 10 15  1  0  0  0  0
  2 16  1  0  0  0  0
 16 17  3  0  0  0  0
 18 20  1  0  0  0  0
  5 19  1  0  0  0  0
 15 20  2  0  0  0  0
  8 21  2  0  0  0  0
  6 22  1  0  0  0  0
 23 30  1  0  0  0  0
 18 23  2  0  0  0  0
 18 24  1  0  0  0  0
 21 25  1  0  0  0  0
 23 26  1  0  0  0  0
 26 28  1  0  0  0  0
 12 27  2  0  0  0  0
 24 28  1  0  0  0  0
 15 29  1  0  0  0  0
 29 30  2  0  0  0  0
 19 31  1  0  0  0  0
 22 32  1  0  0  0  0
 31 32  1  0  0  0  0
 25 33  1  0  0  0  0
 32 34  1  0  0  0  0
M  END
> <IDNUMBER>
Y501-6662

> <available>
18

> <H_acceptor>
8

> <H_donor>
1

> <B_rotN>
5

> <N_O>
8

> <logP>
5.1033

> <logD>
3.5979

> <logSw>
-5.1086

> <PSA>
87.739

> <pKa_ma>
5.9084

> <pKa_mb>
-1.9333

> <N_Chirals>
1

> <Name>
3-(2H-1,3-benzodioxol-5-yl)-N-(3-cyano-6-methyl-4,5,6,7-tetrahydro-1-benzothiophen-2-yl)-6-methyl[1,2]oxazolo[5,4-b]pyridine-4-carboxamide

> <Smile>
CC(CC1)Cc2c1c(C#N)c(NC(c1c(c(-c(cc3)cc4c3OCO4)no3)c3nc(C)c1)=O)s2

> <Color>
BROWN

> <Collection>
DC

> <InChI>
InChI=1S/C25H20N4O4S/c1-12-3-5-15-17(10-26)25(34-20(15)7-12)28-23(30)16-8-13(2)27-24-21(16)22(29-33-24)14-4-6-18-19(9-14)32-11-31-18/h4,6,8-9,12H,3,5,7,11H2,1-2H3,(H,28,30)/t12-/m1/s1

> <InChI Key>
BWJFNRGMLBOHQH-GFCCVEGCSA-N

> <PERCENTSP3>
28

> <Link>
https://www.chemdiv.com/catalog/screening-compounds/compound-Y501-6662/

> <MFCDNUMBER>
MFCD08557385

> <CLNUMBER>
CL7490

> <STEREO>
RACEMIC MIXTURE

> <State>
Solid

> <Similarity score>
0.20

$$$$
3-(2-chlorophenyl)-N-(3-cyano-5,6,7,8-tetrahydro-4H-cyclohepta[b]thiophen-2-yl)-
  -OEChem-04222410502D

 28 31  0     0  0  0  0  0  0999 V2000
   -1.4936    0.0312    0.0000 C   0  0  0  0  0  0  0  0  0  0  0  0
    0.5394   -1.7352    0.0000 C   0  0  0  0  0  0  0  0  0  0  0  0
   -2.4643    0.1521    0.0000 C   0  0  0  0  0  0  0  0  0  0  0  0
    1.5518   -1.8061    0.0000 C   0  0  0  0  0  0  0  0  0  0  0  0
    0.0146   -0.8604    0.0000 C   0  0  0  0  0  0  0  0  0  0  0  0
    1.7935   -2.8185    0.0000 N   0  0  0  0  0  0  0  0  0  0  0  0
   -1.0644    0.9227    0.0000 S   0  0  0  0  0  0  0  0  0  0  0  0
   -0.9895   -0.8604    0.0000 N   0  0  0  0  0  0  0  0  0  0  0  0
   -2.6518    1.1309    0.0000 C   0  0  0  0  0  0  0  0  0  0  0  0
   -1.7978    1.6310    0.0000 C   0  0  0  0  0  0  0  0  0  0  0  0
    2.1976   -1.0144    0.0000 C   0  0  0  0  0  0  0  0  0  0  0  0
    0.9477   -3.3516    0.0000 O   0  0  0  0  0  0  0  0  0  0  0  0
    0.1562   -2.7018    0.0000 C   0  0  0  0  0  0  0  0  0  0  0  0
   -3.1601   -0.5896    0.0000 C   0  0  0  0  0  0  0  0  0  0  0  0
   -3.8475   -1.3602    0.0000 N   0  0  0  0  0  0  0  0  0  0  0  0
    0.5145    0.0187    0.0000 O   0  0  0  0  0  0  0  0  0  0  0  0
    3.2099   -1.1644    0.0000 C   0  0  0  0  0  0  0  0  0  0  0  0
    3.5684   -2.0934    0.0000 Cl  0  0  0  0  0  0  0  0  0  0  0  0
   -3.5725    1.5269    0.0000 C   0  0  0  0  0  0  0  0  0  0  0  0
   -1.6269    2.5976    0.0000 C   0  0  0  0  0  0  0  0  0  0  0  0
    1.8393   -0.0564    0.0000 C   0  0  0  0  0  0  0  0  0  0  0  0
   -0.4729   -2.9100    0.0000 C   0  0  0  0  0  0  0  0  0  0  0  0
    3.8558   -0.3812    0.0000 C   0  0  0  0  0  0  0  0  0  0  0  0
   -3.8558    2.4851    0.0000 C   0  0  0  0  0  0  0  0  0  0  0  0
   -2.2935    3.3516    0.0000 C   0  0  0  0  0  0  0  0  0  0  0  0
    2.4767    0.7437    0.0000 C   0  0  0  0  0  0  0  0  0  0  0  0
    3.4974    0.5854    0.0000 C   0  0  0  0  0  0  0  0  0  0  0  0
   -3.2934    3.2850    0.0000 C   0  0  0  0  0  0  0  0  0  0  0  0
  2  5  1  0  0  0  0
  1  3  2  0  0  0  0
  2  4  1  0  0  0  0
  5  8  1  0  0  0  0
  4  6  2  0  0  0  0
  6 12  1  0  0  0  0
  1  7  1  0  0  0  0
  1  8  1  0  0  0  0
  3  9  1  0  0  0  0
  9 10  2  0  0  0  0
  7 10  1  0  0  0  0
  4 11  1  0  0  0  0
 12 13  1  0  0  0  0
  2 13  2  0  0  0  0
  3 14  1  0  0  0  0
 14 15  3  0  0  0  0
  5 16  2  0  0  0  0
 11 17  2  0  0  0  0
 17 18  1  0  0  0  0
  9 19  1  0  0  0  0
 10 20  1  0  0  0  0
 11 21  1  0  0  0  0
 13 22  1  0  0  0  0
 17 23  1  0  0  0  0
 23 27  2  0  0  0  0
 19 24  1  0  0  0  0
 24 28  1  0  0  0  0
 20 25  1  0  0  0  0
 21 26  2  0  0  0  0
 26 27  1  0  0  0  0
 25 28  1  0  0  0  0
M  END
> <IDNUMBER>
Y205-1523

> <available>
21

> <H_acceptor>
5

> <H_donor>
1

> <B_rotN>
5

> <N_O>
5

> <logP>
5.0045

> <logD>
2.2516

> <logSw>
-5.0998

> <PSA>
62.392

> <pKa_ma>
4.6479

> <pKa_mb>
-6.7294

> <N_Chirals>
0

> <Name>
3-(2-chlorophenyl)-N-(3-cyano-5,6,7,8-tetrahydro-4H-cyclohepta[b]thiophen-2-yl)-5-methyl-1,2-oxazole-4-carboxamide

> <Smile>
Cc1c(C(Nc(sc2c3CCCCC2)c3C#N)=O)c(-c(cccc2)c2Cl)no1

> <Color>
BROWN

> <Collection>
DC

> <InChI>
InChI=1S/C21H18ClN3O2S/c1-12-18(19(25-27-12)14-8-5-6-9-16(14)22)20(26)24-21-15(11-23)13-7-3-2-4-10-17(13)28-21/h5-6,8-9H,2-4,7,10H2,1H3,(H,24,26)

> <InChI Key>
PYRADUXWQSGPRH-UHFFFAOYSA-N

> <PERCENTSP3>
28.57

> <Link>
https://www.chemdiv.com/catalog/screening-compounds/compound-Y205-1523/

> <MFCDNUMBER>
MFCD03386073

> <CLNUMBER>
CL2451

> <STEREO>
ACHIRAL

> <State>
Solid

> <Similarity score>
0.20

$$$$
3-(2-chlorophenyl)-N-(3-cyano-4,5,6,7,8,9-hexahydrocycloocta[b]thiophen-2-yl)-5-
  -OEChem-04222410502D

 29 32  0     0  0  0  0  0  0999 V2000
   -1.2731   -0.6458    0.0000 C   0  0  0  0  0  0  0  0  0  0  0  0
    0.7771   -0.6335    0.0000 C   0  0  0  0  0  0  0  0  0  0  0  0
   -2.2481   -0.5585    0.0000 C   0  0  0  0  0  0  0  0  0  0  0  0
    1.7813   -0.5959    0.0000 C   0  0  0  0  0  0  0  0  0  0  0  0
    0.2395   -1.5293    0.0000 C   0  0  0  0  0  0  0  0  0  0  0  0
    1.9771    0.3918    0.0000 N   0  0  0  0  0  0  0  0  0  0  0  0
   -0.8856    0.2792    0.0000 S   0  0  0  0  0  0  0  0  0  0  0  0
   -0.7605   -1.5293    0.0000 N   0  0  0  0  0  0  0  0  0  0  0  0
   -2.4815    0.3918    0.0000 C   0  0  0  0  0  0  0  0  0  0  0  0
   -1.6563    0.9417    0.0000 C   0  0  0  0  0  0  0  0  0  0  0  0
    2.4190   -1.3334    0.0000 C   0  0  0  0  0  0  0  0  0  0  0  0
    1.1187    0.8834    0.0000 O   0  0  0  0  0  0  0  0  0  0  0  0
    0.4062    0.2209    0.0000 C   0  0  0  0  0  0  0  0  0  0  0  0
   -2.9315   -1.3585    0.0000 C   0  0  0  0  0  0  0  0  0  0  0  0
   -3.5690   -2.1543    0.0000 N   0  0  0  0  0  0  0  0  0  0  0  0
    0.7145   -2.4085    0.0000 O   0  0  0  0  0  0  0  0  0  0  0  0
    3.3898   -1.1709    0.0000 C   0  0  0  0  0  0  0  0  0  0  0  0
    3.7188   -0.2541    0.0000 Cl  0  0  0  0  0  0  0  0  0  0  0  0
   -3.4940    0.6542    0.0000 C   0  0  0  0  0  0  0  0  0  0  0  0
   -1.4189    1.9044    0.0000 C   0  0  0  0  0  0  0  0  0  0  0  0
    2.1271   -2.2960    0.0000 C   0  0  0  0  0  0  0  0  0  0  0  0
   -0.5688    0.4584    0.0000 C   0  0  0  0  0  0  0  0  0  0  0  0
    4.0440   -1.8834    0.0000 C   0  0  0  0  0  0  0  0  0  0  0  0
   -4.0440    1.5084    0.0000 C   0  0  0  0  0  0  0  0  0  0  0  0
   -1.9689    2.7792    0.0000 C   0  0  0  0  0  0  0  0  0  0  0  0
    2.7689   -3.0210    0.0000 C   0  0  0  0  0  0  0  0  0  0  0  0
    3.7440   -2.8335    0.0000 C   0  0  0  0  0  0  0  0  0  0  0  0
   -3.8232    2.4835    0.0000 C   0  0  0  0  0  0  0  0  0  0  0  0
   -2.9440    3.0210    0.0000 C   0  0  0  0  0  0  0  0  0  0  0  0
  2  5  1  0  0  0  0
  1  3  2  0  0  0  0
  2  4  1  0  0  0  0
  5  8  1  0  0  0  0
  4  6  2  0  0  0  0
  6 12  1  0  0  0  0
  1  7  1  0  0  0  0
  1  8  1  0  0  0  0
  3  9  1  0  0  0  0
  9 10  2  0  0  0  0
  7 10  1  0  0  0  0
  4 11  1  0  0  0  0
 12 13  1  0  0  0  0
  2 13  2  0  0  0  0
  3 14  1  0  0  0  0
 14 15  3  0  0  0  0
  5 16  2  0  0  0  0
 11 17  1  0  0  0  0
 17 18  1  0  0  0  0
  9 19  1  0  0  0  0
 10 20  1  0  0  0  0
 11 21  2  0  0  0  0
 13 22  1  0  0  0  0
 17 23  2  0  0  0  0
 19 24  1  0  0  0  0
 20 25  1  0  0  0  0
 21 26  1  0  0  0  0
 26 27  2  0  0  0  0
 23 27  1  0  0  0  0
 24 28  1  0  0  0  0
 25 29  1  0  0  0  0
 28 29  1  0  0  0  0
M  END
> <IDNUMBER>
Y509-7636

> <available>
21

> <H_acceptor>
5

> <H_donor>
1

> <B_rotN>
5

> <N_O>
5

> <logP>
5.5

> <logD>
2.748

> <logSw>
-5.831

> <PSA>
62.39

> <pKa_ma>
4.648

> <pKa_mb>
-6.812

> <N_Chirals>
0

> <Name>
3-(2-chlorophenyl)-N-(3-cyano-4,5,6,7,8,9-hexahydrocycloocta[b]thiophen-2-yl)-5-methyl-1,2-oxazole-4-carboxamide

> <Smile>
c1(c(c2c(s1)CCCCCC2)C#N)NC(c1c(noc1C)c1c(Cl)cccc1)=O

> <Color>
BROWN

> <Collection>
DC

> <InChI>
InChI=1S/C22H20ClN3O2S/c1-13-19(20(26-28-13)15-9-6-7-10-17(15)23)21(27)25-22-16(12-24)14-8-4-2-3-5-11-18(14)29-22/h6-7,9-10H,2-5,8,11H2,1H3,(H,25,27)

> <InChI Key>
ZYOACJCWPUYMAG-UHFFFAOYSA-N

> <PERCENTSP3>
31.82

> <Link>
https://www.chemdiv.com/catalog/screening-compounds/compound-Y509-7636/

> <MFCDNUMBER>
MFCD01349375

> <CLNUMBER>
CL2451

> <STEREO>
ACHIRAL

> <State>
Solid

> <Similarity score>
0.20

$$$$
2-amino-6-methyl-4,5,6,7-tetrahydro-1-benzothiophene-3-carbonitrile
  -OEChem-04222410502D

 13 14  0     0  0  0  0  0  0999 V2000
    1.1928    0.2240    0.0000 C   0  0  0  0  0  0  0  0  0  0  0  0
    1.1928   -0.7084    0.0000 C   0  0  0  0  0  0  0  0  0  0  0  0
   -0.4331    0.2240    0.0000 C   0  0  0  0  0  0  0  0  0  0  0  0
   -0.4331   -0.7084    0.0000 C   0  0  0  0  0  0  0  0  0  0  0  0
    0.3787   -1.1700    0.0000 S   0  0  0  0  0  0  0  0  0  0  0  0
    2.0543    0.7163    0.0000 C   0  0  0  0  0  0  0  0  0  0  0  0
    2.9181    1.2102    0.0000 N   0  0  0  0  0  0  0  0  0  0  0  0
   -1.2449    0.6761    0.0000 C   0  0  0  0  0  0  0  0  0  0  0  0
   -1.2449   -1.1700    0.0000 C   0  0  0  0  0  0  0  0  0  0  0  0
    2.0543   -1.2102    0.0000 N   0  0  0  0  0  0  0  0  0  0  0  0
   -2.0567    0.2240    0.0000 C   0  0  0  0  0  0  0  0  0  0  0  0
   -2.0567   -0.7084    0.0000 C   0  0  3  0  0  0  0  0  0  0  0  0
   -2.9181   -1.2102    0.0000 C   0  0  0  0  0  0  0  0  0  0  0  0
  1  2  2  0  0  0  0
  1  3  1  0  0  0  0
  3  4  2  0  0  0  0
  4  5  1  0  0  0  0
  2  5  1  0  0  0  0
  1  6  1  0  0  0  0
  6  7  3  0  0  0  0
  3  8  1  0  0  0  0
  4  9  1  0  0  0  0
  9 12  1  0  0  0  0
  2 10  1  0  0  0  0
  8 11  1  0  0  0  0
 11 12  1  0  0  0  0
 12 13  1  0  0  0  0
M  END
> <IDNUMBER>
8002-2657

> <available>
19

> <H_acceptor>
1

> <H_donor>
2

> <B_rotN>
1

> <N_O>
2

> <logP>
2.5802

> <logD>
2.5802

> <logSw>
-2.7257

> <PSA>
38.492

> <pKa_ma>
15.9936

> <pKa_mb>
-2.1439

> <N_Chirals>
1

> <Name>
2-amino-6-methyl-4,5,6,7-tetrahydro-1-benzothiophene-3-carbonitrile

> <Smile>
CC(CC1)Cc2c1c(C#N)c(N)s2

> <Color>
NOT COLORED

> <Collection>
DC

> <InChI>
InChI=1S/C10H12N2S/c1-6-2-3-7-8(5-11)10(12)13-9(7)4-6/h6H,2-4,12H2,1H3/t6-/m1/s1

> <InChI Key>
VDMBPDMXBJUYMB-ZCFIWIBFSA-N

> <PERCENTSP3>
50

> <Link>
https://www.chemdiv.com/catalog/screening-compounds/compound-8002-2657/

> <MFCDNUMBER>
MFCD00128282

> <STEREO>
RACEMIC MIXTURE

> <State>
Solid

> <Similarity score>
0.20

$$$$
2-amino-7-methoxy-4,5-dihydronaphtho[2,1-b]thiophene-1-carbonitrile
  -OEChem-04222410502D

 18 20  0     0  0  0  0  0  0999 V2000
    1.8553    0.0355    0.0000 C   0  0  0  0  0  0  0  0  0  0  0  0
    0.9640   -0.4268    0.0000 C   0  0  0  0  0  0  0  0  0  0  0  0
    2.5632   -0.6642    0.0000 C   0  0  0  0  0  0  0  0  0  0  0  0
    1.1348   -1.4180    0.0000 C   0  0  0  0  0  0  0  0  0  0  0  0
    2.1426   -1.5428    0.0000 S   0  0  0  0  0  0  0  0  0  0  0  0
    0.0439   -0.1103    0.0000 C   0  0  0  0  0  0  0  0  0  0  0  0
    1.9802    1.0349    0.0000 C   0  0  0  0  0  0  0  0  0  0  0  0
   -0.7267   -0.7559    0.0000 C   0  0  0  0  0  0  0  0  0  0  0  0
    2.1176    2.0550    0.0000 N   0  0  0  0  0  0  0  0  0  0  0  0
   -0.1270    0.8724    0.0000 C   0  0  0  0  0  0  0  0  0  0  0  0
    0.3645   -2.0550    0.0000 C   0  0  0  0  0  0  0  0  0  0  0  0
   -1.6637   -0.4102    0.0000 C   0  0  0  0  0  0  0  0  0  0  0  0
   -0.5558   -1.7178    0.0000 C   0  0  0  0  0  0  0  0  0  0  0  0
    3.5709   -0.4976    0.0000 N   0  0  0  0  0  0  0  0  0  0  0  0
   -1.8426    0.5644    0.0000 C   0  0  0  0  0  0  0  0  0  0  0  0
   -1.0556    1.2097    0.0000 C   0  0  0  0  0  0  0  0  0  0  0  0
   -2.8088    0.9099    0.0000 O   0  0  0  0  0  0  0  0  0  0  0  0
   -3.5709    0.2728    0.0000 C   0  0  0  0  0  0  0  0  0  0  0  0
  1  2  1  0  0  0  0
  1  3  2  0  0  0  0
  2  4  2  0  0  0  0
  4  5  1  0  0  0  0
  3  5  1  0  0  0  0
  2  6  1  0  0  0  0
  1  7  1  0  0  0  0
  6  8  1  0  0  0  0
  7  9  3  0  0  0  0
  6 10  2  0  0  0  0
  4 11  1  0  0  0  0
  8 12  2  0  0  0  0
 12 15  1  0  0  0  0
  8 13  1  0  0  0  0
 11 13  1  0  0  0  0
  3 14  1  0  0  0  0
 15 16  2  0  0  0  0
 10 16  1  0  0  0  0
 15 17  1  0  0  0  0
 17 18  1  0  0  0  0
M  END
> <IDNUMBER>
Y203-3906

> <available>
14

> <H_acceptor>
2

> <H_donor>
2

> <B_rotN>
2

> <N_O>
3

> <logP>
3.1388

> <logD>
3.1388

> <logSw>
-3.3986

> <PSA>
45.764

> <pKa_ma>
19.2967

> <pKa_mb>
-4.5006

> <N_Chirals>
0

> <Name>
2-amino-7-methoxy-4,5-dihydronaphtho[2,1-b]thiophene-1-carbonitrile

> <Smile>
COc(cc1)cc(CC2)c1-c1c2sc(N)c1C#N

> <Color>
BROWN

> <Collection>
DC

> <InChI>
InChI=1S/C14H12N2OS/c1-17-9-3-4-10-8(6-9)2-5-12-13(10)11(7-15)14(16)18-12/h3-4,6H,2,5,16H2,1H3

> <InChI Key>
DARFGQSXUDRHIP-UHFFFAOYSA-N

> <PERCENTSP3>
21.43

> <Link>
https://www.chemdiv.com/catalog/screening-compounds/compound-Y203-3906/

> <MFCDNUMBER>
MFCD02853930

> <STEREO>
ACHIRAL

> <State>
Solid

> <Similarity score>
0.20

$$$$
N-(6-tert-butyl-3-cyano-4,5,6,7-tetrahydro-1-benzothiophen-2-yl)-2-(4-ethylpheno
  -OEChem-04222410502D

 29 31  0     0  0  0  0  0  0999 V2000
    1.2331   -0.4104    0.0000 C   0  0  0  0  0  0  0  0  0  0  0  0
    1.8705    0.3977    0.0000 C   0  0  0  0  0  0  0  0  0  0  0  0
    2.8036   -0.9351    0.0000 C   0  0  0  0  0  0  0  0  0  0  0  0
    2.8036    0.0605    0.0000 C   0  0  0  0  0  0  0  0  0  0  0  0
    1.8080   -1.2228    0.0000 S   0  0  0  0  0  0  0  0  0  0  0  0
    0.2583   -0.3853    0.0000 N   0  0  0  0  0  0  0  0  0  0  0  0
   -0.2624   -1.2599    0.0000 C   0  0  0  0  0  0  0  0  0  0  0  0
    1.6330    1.3477    0.0000 C   0  0  0  0  0  0  0  0  0  0  0  0
    3.6660   -1.4476    0.0000 C   0  0  0  0  0  0  0  0  0  0  0  0
    1.3955    2.2974    0.0000 N   0  0  0  0  0  0  0  0  0  0  0  0
    3.6660    0.5603    0.0000 C   0  0  0  0  0  0  0  0  0  0  0  0
    4.5409   -0.9478    0.0000 C   0  0  3  0  0  0  0  0  0  0  0  0
   -1.2623   -1.2599    0.0000 C   0  0  3  0  0  0  0  0  0  0  0  0
   -1.7621   -0.3853    0.0000 O   0  0  0  0  0  0  0  0  0  0  0  0
    5.3865   -1.4352    0.0000 C   0  0  0  0  0  0  0  0  0  0  0  0
    0.2583   -2.1348    0.0000 O   0  0  0  0  0  0  0  0  0  0  0  0
    4.5409    0.0605    0.0000 C   0  0  0  0  0  0  0  0  0  0  0  0
   -2.7577   -0.3853    0.0000 C   0  0  0  0  0  0  0  0  0  0  0  0
   -4.7532   -0.3853    0.0000 C   0  0  0  0  0  0  0  0  0  0  0  0
   -3.2576   -1.2599    0.0000 C   0  0  0  0  0  0  0  0  0  0  0  0
   -3.2576    0.4855    0.0000 C   0  0  0  0  0  0  0  0  0  0  0  0
   -4.2575    0.4855    0.0000 C   0  0  0  0  0  0  0  0  0  0  0  0
   -4.2575   -1.2599    0.0000 C   0  0  0  0  0  0  0  0  0  0  0  0
    6.2238   -1.9224    0.0000 C   0  0  0  0  0  0  0  0  0  0  0  0
    5.8864   -0.5728    0.0000 C   0  0  0  0  0  0  0  0  0  0  0  0
    4.8908   -2.2974    0.0000 C   0  0  0  0  0  0  0  0  0  0  0  0
   -1.7621   -2.1348    0.0000 C   0  0  0  0  0  0  0  0  0  0  0  0
   -5.7531   -0.4104    0.0000 C   0  0  0  0  0  0  0  0  0  0  0  0
   -6.2238   -1.2852    0.0000 C   0  0  0  0  0  0  0  0  0  0  0  0
  1  2  2  0  0  0  0
  3  5  1  0  0  0  0
  3  4  2  0  0  0  0
  2  4  1  0  0  0  0
  1  5  1  0  0  0  0
  1  6  1  0  0  0  0
  6  7  1  0  0  0  0
  2  8  1  0  0  0  0
  3  9  1  0  0  0  0
  8 10  3  0  0  0  0
  4 11  1  0  0  0  0
  9 12  1  0  0  0  0
  7 13  1  0  0  0  0
 13 14  1  0  0  0  0
 12 15  1  0  0  0  0
  7 16  2  0  0  0  0
 11 17  1  0  0  0  0
 12 17  1  0  0  0  0
 14 18  1  0  0  0  0
 19 22  2  0  0  0  0
 19 23  1  0  0  0  0
 18 20  1  0  0  0  0
 18 21  2  0  0  0  0
 21 22  1  0  0  0  0
 20 23  2  0  0  0  0
 15 24  1  0  0  0  0
 15 25  1  0  0  0  0
 15 26  1  0  0  0  0
 13 27  1  0  0  0  0
 19 28  1  0  0  0  0
 28 29  1  0  0  0  0
M  END
> <IDNUMBER>
Y202-9979

> <available>
19

> <H_acceptor>
4

> <H_donor>
1

> <B_rotN>
8

> <N_O>
4

> <logP>
6.4913

> <logD>
5.0733

> <logSw>
-5.6398

> <PSA>
46.89

> <pKa_ma>
5.9989

> <pKa_mb>
-4.9316

> <N_Chirals>
2

> <Name>
N-(6-tert-butyl-3-cyano-4,5,6,7-tetrahydro-1-benzothiophen-2-yl)-2-(4-ethylphenoxy)propanamide

> <Smile>
CCc(cc1)ccc1OC(C)C(Nc(sc(C1)c2CCC1C(C)(C)C)c2C#N)=O

> <Color>
NOT COLORED

> <Collection>
DC

> <InChI>
InChI=1S/C24H30N2O2S/c1-6-16-7-10-18(11-8-16)28-15(2)22(27)26-23-20(14-25)19-12-9-17(24(3,4)5)13-21(19)29-23/h7-8,10-11,15,17H,6,9,12-13H2,1-5H3,(H,26,27)

> <InChI Key>
PKKSFPGCVYGOKM-UHFFFAOYSA-N

> <PERCENTSP3>
50

> <Link>
https://www.chemdiv.com/catalog/screening-compounds/compound-Y202-9979/

> <MFCDNUMBER>
MFCD03944545

> <STEREO>
MIXTURE OF STEREOISOMERS

> <State>
Solid

> <Similarity score>
0.19

$$$$
4-[3-(2-chlorophenyl)-1,2,4-oxadiazol-5-yl]-N-(3-cyano-6-methyl-4,5,6,7-tetrahyd
  -OEChem-04222410502D

 30 33  0     0  0  0  0  0  0999 V2000
    1.7822    2.0654    0.0000 C   0  0  0  0  0  0  0  0  0  0  0  0
    1.9947    1.0661    0.0000 C   0  0  0  0  0  0  0  0  0  0  0  0
   -2.9272   -1.7074    0.0000 C   0  0  0  0  0  0  0  0  0  0  0  0
    2.9691    0.9660    0.0000 C   0  0  0  0  0  0  0  0  0  0  0  0
    3.3813    1.8906    0.0000 C   0  0  0  0  0  0  0  0  0  0  0  0
   -2.3151   -0.9203    0.0000 N   0  0  0  0  0  0  0  0  0  0  0  0
    2.6442    2.5401    0.0000 S   0  0  0  0  0  0  0  0  0  0  0  0
   -2.3567   -2.5401    0.0000 N   0  0  0  0  0  0  0  0  0  0  0  0
   -3.9394   -1.6907    0.0000 C   0  0  0  0  0  0  0  0  0  0  0  0
    0.8580    2.4652    0.0000 N   0  0  0  0  0  0  0  0  0  0  0  0
    1.3160    0.3165    0.0000 C   0  0  0  0  0  0  0  0  0  0  0  0
   -1.3701   -1.2535    0.0000 C   0  0  0  0  0  0  0  0  0  0  0  0
   -1.4032   -2.2653    0.0000 O   0  0  0  0  0  0  0  0  0  0  0  0
    0.6330   -0.4290    0.0000 N   0  0  0  0  0  0  0  0  0  0  0  0
    3.5437    0.1540    0.0000 C   0  0  0  0  0  0  0  0  0  0  0  0
    0.0584    1.8906    0.0000 C   0  0  0  0  0  0  0  0  0  0  0  0
    4.3806    1.9780    0.0000 C   0  0  0  0  0  0  0  0  0  0  0  0
   -4.4180   -0.8039    0.0000 C   0  0  0  0  0  0  0  0  0  0  0  0
   -0.8284    2.2777    0.0000 O   0  0  0  0  0  0  0  0  0  0  0  0
    4.5389    0.2414    0.0000 C   0  0  0  0  0  0  0  0  0  0  0  0
   -3.9018    0.0459    0.0000 Cl  0  0  0  0  0  0  0  0  0  0  0  0
    4.9513    1.1575    0.0000 C   0  0  3  0  0  0  0  0  0  0  0  0
   -4.4638   -2.5401    0.0000 C   0  0  0  0  0  0  0  0  0  0  0  0
   -0.5580   -0.6705    0.0000 C   0  0  0  0  0  0  0  0  0  0  0  0
    0.1666    0.9160    0.0000 C   0  0  0  0  0  0  0  0  0  0  0  0
   -0.6454    0.3289    0.0000 C   0  0  0  0  0  0  0  0  0  0  0  0
   -5.4300   -0.7829    0.0000 C   0  0  0  0  0  0  0  0  0  0  0  0
    5.9504    1.2535    0.0000 C   0  0  0  0  0  0  0  0  0  0  0  0
   -5.4675   -2.5193    0.0000 C   0  0  0  0  0  0  0  0  0  0  0  0
   -5.9504   -1.6282    0.0000 C   0  0  0  0  0  0  0  0  0  0  0  0
  1  2  2  0  0  0  0
  3  6  1  0  0  0  0
  2  4  1  0  0  0  0
  5  7  1  0  0  0  0
  4  5  2  0  0  0  0
  6 12  2  0  0  0  0
  1  7  1  0  0  0  0
  8 13  1  0  0  0  0
  3  8  2  0  0  0  0
  3  9  1  0  0  0  0
  1 10  1  0  0  0  0
  2 11  1  0  0  0  0
 12 24  1  0  0  0  0
 12 13  1  0  0  0  0
 11 14  3  0  0  0  0
  4 15  1  0  0  0  0
 10 16  1  0  0  0  0
  5 17  1  0  0  0  0
  9 18  1  0  0  0  0
 16 19  2  0  0  0  0
 15 20  1  0  0  0  0
 18 21  1  0  0  0  0
 17 22  1  0  0  0  0
 20 22  1  0  0  0  0
  9 23  2  0  0  0  0
 24 26  1  0  0  0  0
 16 25  1  0  0  0  0
 25 26  1  0  0  0  0
 18 27  2  0  0  0  0
 27 30  1  0  0  0  0
 22 28  1  0  0  0  0
 23 29  1  0  0  0  0
 29 30  2  0  0  0  0
M  END
> <IDNUMBER>
D321-0300

> <available>
275

> <H_acceptor>
6

> <H_donor>
1

> <B_rotN>
8

> <N_O>
6

> <logP>
5.0503

> <logD>
3.7371

> <logSw>
-5.1567

> <PSA>
71.23

> <pKa_ma>
6.1085

> <pKa_mb>
-3.8515

> <N_Chirals>
1

> <Name>
4-[3-(2-chlorophenyl)-1,2,4-oxadiazol-5-yl]-N-(3-cyano-6-methyl-4,5,6,7-tetrahydro-1-benzothiophen-2-yl)butanamide

> <Smile>
CC(CC1)Cc2c1c(C#N)c(NC(CCCc1nc(-c(cccc3)c3Cl)no1)=O)s2

> <Color>
BROWN

> <Collection>
DC

> <InChI>
InChI=1S/C22H21ClN4O2S/c1-13-9-10-14-16(12-24)22(30-18(14)11-13)25-19(28)7-4-8-20-26-21(27-29-20)15-5-2-3-6-17(15)23/h2-3,5-6,13H,4,7-11H2,1H3,(H,25,28)/t13-/m1/s1

> <InChI Key>
JEIZBYACTGUTQR-CYBMUJFWSA-N

> <PERCENTSP3>
36.4

> <Link>
https://www.chemdiv.com/catalog/screening-compounds/compound-D321-0300/

> <MFCDNUMBER>
MFCD09764499

> <CLNUMBER>
CL5000

> <STEREO>
RACEMIC MIXTURE

> <State>
Solid

> <Similarity score>
0.19

$$$$
7-tert-butyl-2-(3,6-dimethyl[1,2]oxazolo[5,4-b]pyridin-4-yl)-5,6,7,8-tetrahydro[
  -OEChem-04222410502D

 29 33  0     0  0  0  0  0  0999 V2000
   -0.0646    0.2354    0.0000 C   0  0  0  0  0  0  0  0  0  0  0  0
   -0.0646    1.2401    0.0000 C   0  0  0  0  0  0  0  0  0  0  0  0
    1.6650    0.2354    0.0000 C   0  0  0  0  0  0  0  0  0  0  0  0
    0.8024   -0.2563    0.0000 N   0  0  0  0  0  0  0  0  0  0  0  0
    0.8024    1.7360    0.0000 C   0  0  0  0  0  0  0  0  0  0  0  0
    1.6650    1.2401    0.0000 N   0  0  0  0  0  0  0  0  0  0  0  0
   -1.6027    0.7398    0.0000 C   0  0  0  0  0  0  0  0  0  0  0  0
   -1.0150    1.5486    0.0000 C   0  0  0  0  0  0  0  0  0  0  0  0
    3.3949    0.2354    0.0000 C   0  0  0  0  0  0  0  0  0  0  0  0
    4.2660   -0.2563    0.0000 C   0  0  0  0  0  0  0  0  0  0  0  0
    2.5321   -0.2563    0.0000 C   0  0  0  0  0  0  0  0  0  0  0  0
   -1.0191   -0.0689    0.0000 S   0  0  0  0  0  0  0  0  0  0  0  0
    4.6036    1.3191    0.0000 N   0  0  0  0  0  0  0  0  0  0  0  0
    5.0080    0.4064    0.0000 O   0  0  0  0  0  0  0  0  0  0  0  0
    4.2660   -1.2609    0.0000 N   0  0  0  0  0  0  0  0  0  0  0  0
    3.6074    1.2151    0.0000 C   0  0  0  0  0  0  0  0  0  0  0  0
   -2.5988    0.8482    0.0000 C   0  0  0  0  0  0  0  0  0  0  0  0
   -1.4191    2.4655    0.0000 C   0  0  0  0  0  0  0  0  0  0  0  0
   -3.0071    1.7651    0.0000 C   0  0  3  0  0  0  0  0  0  0  0  0
    2.5321   -1.2609    0.0000 C   0  0  0  0  0  0  0  0  0  0  0  0
    0.8024    2.7404    0.0000 O   0  0  0  0  0  0  0  0  0  0  0  0
    3.3949   -1.7609    0.0000 C   0  0  0  0  0  0  0  0  0  0  0  0
   -4.0076    1.7651    0.0000 C   0  0  0  0  0  0  0  0  0  0  0  0
   -2.4154    2.5696    0.0000 C   0  0  0  0  0  0  0  0  0  0  0  0
    3.1073    2.0819    0.0000 C   0  0  0  0  0  0  0  0  0  0  0  0
   -4.0076    0.7650    0.0000 C   0  0  0  0  0  0  0  0  0  0  0  0
   -4.0076    2.7614    0.0000 C   0  0  0  0  0  0  0  0  0  0  0  0
   -5.0080    1.7651    0.0000 C   0  0  0  0  0  0  0  0  0  0  0  0
    3.3949   -2.7614    0.0000 C   0  0  0  0  0  0  0  0  0  0  0  0
  1  2  2  0  0  0  0
  3  4  2  0  0  0  0
  1  4  1  0  0  0  0
  2  5  1  0  0  0  0
  3  6  1  0  0  0  0
  5  6  1  0  0  0  0
  7 12  1  0  0  0  0
  2  8  1  0  0  0  0
  7  8  2  0  0  0  0
  9 11  1  0  0  0  0
  9 10  2  0  0  0  0
  3 11  1  0  0  0  0
  1 12  1  0  0  0  0
 13 16  2  0  0  0  0
 10 14  1  0  0  0  0
 13 14  1  0  0  0  0
 15 22  2  0  0  0  0
 10 15  1  0  0  0  0
  9 16  1  0  0  0  0
  7 17  1  0  0  0  0
  8 18  1  0  0  0  0
 17 19  1  0  0  0  0
 11 20  2  0  0  0  0
  5 21  2  0  0  0  0
 20 22  1  0  0  0  0
 19 23  1  0  0  0  0
 18 24  1  0  0  0  0
 19 24  1  0  0  0  0
 16 25  1  0  0  0  0
 23 26  1  0  0  0  0
 23 27  1  0  0  0  0
 23 28  1  0  0  0  0
 22 29  1  0  0  0  0
M  END
> <IDNUMBER>
Y501-3608

> <available>
23

> <H_acceptor>
6

> <H_donor>
1

> <B_rotN>
2

> <N_O>
6

> <logP>
4.7409

> <logD>
4.6602

> <logSw>
-4.7887

> <PSA>
65.315

> <pKa_ma>
8.0897

> <pKa_mb>
1.1496

> <N_Chirals>
1

> <Name>
7-tert-butyl-2-(3,6-dimethyl[1,2]oxazolo[5,4-b]pyridin-4-yl)-5,6,7,8-tetrahydro[1]benzothieno[2,3-d]pyrimidin-4(3H)-one

> <Smile>
CC(C)(C)C(CC1)Cc2c1c(C(NC(c1c(c(C)no3)c3nc(C)c1)=N1)=O)c1s2

> <Color>
BROWN

> <Collection>
DC

> <InChI>
InChI=1S/C22H24N4O2S/c1-10-8-14(16-11(2)26-28-20(16)23-10)18-24-19(27)17-13-7-6-12(22(3,4)5)9-15(13)29-21(17)25-18/h8,12H,6-7,9H2,1-5H3,(H,24,25,27)/t12-/m1/s1

> <InChI Key>
ATMBGSNAICLXOB-GFCCVEGCSA-N

> <PERCENTSP3>
45.46

> <Link>
https://www.chemdiv.com/catalog/screening-compounds/compound-Y501-3608/

> <MFCDNUMBER>
MFCD08555799

> <STEREO>
RACEMIC MIXTURE

> <State>
Solid

> <Similarity score>
0.19

$$$$
N-(3-cyano-5,6-dihydro-4H-cyclopenta[b]thiophen-2-yl)-3-phenyl-6-(thiophen-2-yl)
  -OEChem-04222410502D

 33 38  0     0  0  0  0  0  0999 V2000
    1.4084   -1.0333    0.0000 C   0  0  0  0  0  0  0  0  0  0  0  0
    1.7542   -1.9415    0.0000 C   0  0  0  0  0  0  0  0  0  0  0  0
   -1.1085    1.3211    0.0000 C   0  0  0  0  0  0  0  0  0  0  0  0
   -2.0833    1.5459    0.0000 C   0  0  0  0  0  0  0  0  0  0  0  0
   -0.8293    0.3667    0.0000 C   0  0  0  0  0  0  0  0  0  0  0  0
   -1.2541    2.9210    0.0000 N   0  0  0  0  0  0  0  0  0  0  0  0
    2.2334   -0.4083    0.0000 S   0  0  0  0  0  0  0  0  0  0  0  0
    2.7458   -1.9334    0.0000 C   0  0  0  0  0  0  0  0  0  0  0  0
   -0.6042    2.1709    0.0000 C   0  0  0  0  0  0  0  0  0  0  0  0
    0.4333   -0.8082    0.0000 N   0  0  0  0  0  0  0  0  0  0  0  0
    0.1457    0.1459    0.0000 C   0  0  0  0  0  0  0  0  0  0  0  0
    3.0585   -0.9916    0.0000 C   0  0  0  0  0  0  0  0  0  0  0  0
   -2.7667    0.8167    0.0000 N   0  0  0  0  0  0  0  0  0  0  0  0
   -2.1709    2.5335    0.0000 O   0  0  0  0  0  0  0  0  0  0  0  0
   -2.4666   -0.1333    0.0000 C   0  0  0  0  0  0  0  0  0  0  0  0
   -1.4959   -0.3583    0.0000 C   0  0  0  0  0  0  0  0  0  0  0  0
    1.1959   -2.7915    0.0000 C   0  0  0  0  0  0  0  0  0  0  0  0
   -3.1459   -0.8583    0.0000 C   0  0  0  0  0  0  0  0  0  0  0  0
    0.6416   -3.6042    0.0000 N   0  0  0  0  0  0  0  0  0  0  0  0
   -2.7542   -1.7708    0.0000 S   0  0  0  0  0  0  0  0  0  0  0  0
    0.8293    0.8792    0.0000 O   0  0  0  0  0  0  0  0  0  0  0  0
    0.3959    2.3167    0.0000 C   0  0  0  0  0  0  0  0  0  0  0  0
   -4.1417   -0.9457    0.0000 C   0  0  0  0  0  0  0  0  0  0  0  0
   -3.5084   -2.4333    0.0000 C   0  0  0  0  0  0  0  0  0  0  0  0
   -4.3667   -1.9166    0.0000 C   0  0  0  0  0  0  0  0  0  0  0  0
    3.5793   -2.5167    0.0000 C   0  0  0  0  0  0  0  0  0  0  0  0
    4.0710   -0.9791    0.0000 C   0  0  0  0  0  0  0  0  0  0  0  0
    4.3667   -1.9166    0.0000 C   0  0  0  0  0  0  0  0  0  0  0  0
    0.6209    3.3085    0.0000 C   0  0  0  0  0  0  0  0  0  0  0  0
    1.1418    1.6336    0.0000 C   0  0  0  0  0  0  0  0  0  0  0  0
    1.5917    3.6042    0.0000 C   0  0  0  0  0  0  0  0  0  0  0  0
    2.0959    1.9293    0.0000 C   0  0  0  0  0  0  0  0  0  0  0  0
    2.3209    2.9167    0.0000 C   0  0  0  0  0  0  0  0  0  0  0  0
  1  2  2  0  0  0  0
  3  5  1  0  0  0  0
  3  4  2  0  0  0  0
  4 13  1  0  0  0  0
  5 11  1  0  0  0  0
  6  9  2  0  0  0  0
  6 14  1  0  0  0  0
  1  7  1  0  0  0  0
  2  8  1  0  0  0  0
  8 12  2  0  0  0  0
  3  9  1  0  0  0  0
  1 10  1  0  0  0  0
 10 11  1  0  0  0  0
  7 12  1  0  0  0  0
 13 15  2  0  0  0  0
  4 14  1  0  0  0  0
 15 16  1  0  0  0  0
  5 16  2  0  0  0  0
  2 17  1  0  0  0  0
 15 18  1  0  0  0  0
 17 19  3  0  0  0  0
 18 20  1  0  0  0  0
 11 21  2  0  0  0  0
  9 22  1  0  0  0  0
 18 23  2  0  0  0  0
 20 24  1  0  0  0  0
 24 25  2  0  0  0  0
 23 25  1  0  0  0  0
  8 26  1  0  0  0  0
 26 28  1  0  0  0  0
 12 27  1  0  0  0  0
 27 28  1  0  0  0  0
 22 29  2  0  0  0  0
 22 30  1  0  0  0  0
 29 31  1  0  0  0  0
 30 32  2  0  0  0  0
 32 33  1  0  0  0  0
 31 33  2  0  0  0  0
M  END
> <IDNUMBER>
F018-3060

> <available>
1

> <H_acceptor>
6

> <H_donor>
1

> <B_rotN>
6

> <N_O>
6

> <logP>
5.8098

> <logD>
5.1874

> <logSw>
-6.1333

> <PSA>
71.93

> <pKa_ma>
6.896

> <pKa_mb>
-3.6716

> <N_Chirals>
0

> <Name>
N-(3-cyano-5,6-dihydro-4H-cyclopenta[b]thiophen-2-yl)-3-phenyl-6-(thiophen-2-yl)[1,2]oxazolo[5,4-b]pyridine-4-carboxamide

> <Smile>
N#Cc1c(NC(c2c(c(-c3ccccc3)no3)c3nc(-c3cccs3)c2)=O)sc2c1CCC2

> <Color>
BLACK

> <Collection>
DC

> <InChI>
InChI=1S/C25H16N4O2S2/c26-13-17-15-8-4-9-19(15)33-25(17)28-23(30)16-12-18(20-10-5-11-32-20)27-24-21(16)22(29-31-24)14-6-2-1-3-7-14/h1-3,5-7,10-12H,4,8-9H2,(H,28,30)

> <InChI Key>
GQMPWATWISUSFY-UHFFFAOYSA-N

> <PERCENTSP3>
12

> <Link>
https://www.chemdiv.com/catalog/screening-compounds/compound-F018-3060/

> <MFCDNUMBER>
MFCD08557424

> <CLNUMBER>
CL7490

> <STEREO>
ACHIRAL

> <State>
Solid

> <Similarity score>
0.19

$$$$
N-(3-cyano-4,5,6,7,8,9-hexahydrocycloocta[b]thiophen-2-yl)-5-methyl-3-phenyl-1,2
  -OEChem-04222410502D

 28 31  0     0  0  0  0  0  0999 V2000
   -1.2730   -0.6438    0.0000 C   0  0  0  0  0  0  0  0  0  0  0  0
   -2.2437   -0.5562    0.0000 C   0  0  0  0  0  0  0  0  0  0  0  0
    0.7771   -0.6352    0.0000 C   0  0  0  0  0  0  0  0  0  0  0  0
    0.2395   -1.5228    0.0000 C   0  0  0  0  0  0  0  0  0  0  0  0
    1.9729    0.3897    0.0000 N   0  0  0  0  0  0  0  0  0  0  0  0
   -0.8855    0.2813    0.0000 S   0  0  0  0  0  0  0  0  0  0  0  0
    1.7813   -0.5978    0.0000 C   0  0  0  0  0  0  0  0  0  0  0  0
   -0.7604   -1.5228    0.0000 N   0  0  0  0  0  0  0  0  0  0  0  0
   -2.4772    0.3937    0.0000 C   0  0  0  0  0  0  0  0  0  0  0  0
   -1.6563    0.9438    0.0000 C   0  0  0  0  0  0  0  0  0  0  0  0
    1.1188    0.8855    0.0000 O   0  0  0  0  0  0  0  0  0  0  0  0
    0.4062    0.2229    0.0000 C   0  0  0  0  0  0  0  0  0  0  0  0
   -2.9272   -1.3563    0.0000 C   0  0  0  0  0  0  0  0  0  0  0  0
   -3.5647   -2.1522    0.0000 N   0  0  0  0  0  0  0  0  0  0  0  0
    0.7147   -2.4062    0.0000 O   0  0  0  0  0  0  0  0  0  0  0  0
    2.4188   -1.3313    0.0000 C   0  0  0  0  0  0  0  0  0  0  0  0
   -3.4855    0.6522    0.0000 C   0  0  0  0  0  0  0  0  0  0  0  0
   -1.4104    1.9064    0.0000 C   0  0  0  0  0  0  0  0  0  0  0  0
   -0.5646    0.4605    0.0000 C   0  0  0  0  0  0  0  0  0  0  0  0
    2.1272   -2.2895    0.0000 C   0  0  0  0  0  0  0  0  0  0  0  0
    3.3896   -1.1687    0.0000 C   0  0  0  0  0  0  0  0  0  0  0  0
   -4.0397    1.5105    0.0000 C   0  0  0  0  0  0  0  0  0  0  0  0
   -1.9646    2.7772    0.0000 C   0  0  0  0  0  0  0  0  0  0  0  0
    2.7646   -3.0188    0.0000 C   0  0  0  0  0  0  0  0  0  0  0  0
    4.0397   -1.8812    0.0000 C   0  0  0  0  0  0  0  0  0  0  0  0
    3.7480   -2.8272    0.0000 C   0  0  0  0  0  0  0  0  0  0  0  0
   -3.8230    2.4813    0.0000 C   0  0  0  0  0  0  0  0  0  0  0  0
   -2.9355    3.0188    0.0000 C   0  0  0  0  0  0  0  0  0  0  0  0
  1  2  2  0  0  0  0
  3  4  1  0  0  0  0
  4  8  1  0  0  0  0
  5  7  2  0  0  0  0
  5 11  1  0  0  0  0
  1  6  1  0  0  0  0
  3  7  1  0  0  0  0
  1  8  1  0  0  0  0
  2  9  1  0  0  0  0
  9 10  2  0  0  0  0
  6 10  1  0  0  0  0
 11 12  1  0  0  0  0
  3 12  2  0  0  0  0
  2 13  1  0  0  0  0
 13 14  3  0  0  0  0
  4 15  2  0  0  0  0
  7 16  1  0  0  0  0
  9 17  1  0  0  0  0
 10 18  1  0  0  0  0
 12 19  1  0  0  0  0
 16 20  2  0  0  0  0
 16 21  1  0  0  0  0
 17 22  1  0  0  0  0
 18 23  1  0  0  0  0
 20 24  1  0  0  0  0
 24 26  2  0  0  0  0
 21 25  2  0  0  0  0
 25 26  1  0  0  0  0
 22 27  1  0  0  0  0
 23 28  1  0  0  0  0
 27 28  1  0  0  0  0
M  END
> <IDNUMBER>
Y503-0304

> <available>
21

> <H_acceptor>
5

> <H_donor>
1

> <B_rotN>
5

> <N_O>
5

> <logP>
4.9538

> <logD>
3.1345

> <logSw>
-4.7084

> <PSA>
62.392

> <pKa_ma>
5.5873

> <pKa_mb>
-6.2591

> <N_Chirals>
0

> <Name>
N-(3-cyano-4,5,6,7,8,9-hexahydrocycloocta[b]thiophen-2-yl)-5-methyl-3-phenyl-1,2-oxazole-4-carboxamide

> <Smile>
Cc1c(C(Nc(sc2c3CCCCCC2)c3C#N)=O)c(-c2ccccc2)no1

> <Color>
ORANGE

> <Collection>
DC

> <InChI>
InChI=1S/C22H21N3O2S/c1-14-19(20(25-27-14)15-9-5-4-6-10-15)21(26)24-22-17(13-23)16-11-7-2-3-8-12-18(16)28-22/h4-6,9-10H,2-3,7-8,11-12H2,1H3,(H,24,26)

> <InChI Key>
NXKOYVAULDCALT-UHFFFAOYSA-N

> <PERCENTSP3>
31.82

> <Link>
https://www.chemdiv.com/catalog/screening-compounds/compound-Y503-0304/

> <MFCDNUMBER>
MFCD01338205

> <CLNUMBER>
CL2451

> <STEREO>
ACHIRAL

> <State>
Solid

> <Similarity score>
0.19

$$$$
N-(3-cyano-5,6-dihydro-4H-cyclopenta[b]thiophen-2-yl)-5-methyl-4-[(4-nitrophenox
  -OEChem-04222410502D

 30 33  0     0  0  0  0  0  0999 V2000
    2.8232    0.0604    0.0000 C   0  0  0  0  0  0  0  0  0  0  0  0
    0.8104    1.7898    0.0000 C   0  0  0  0  0  0  0  0  0  0  0  0
    2.3858   -0.8187    0.0000 C   0  0  0  0  0  0  0  0  0  0  0  0
   -0.1731    1.9064    0.0000 C   0  0  0  0  0  0  0  0  0  0  0  0
    1.2273    2.6983    0.0000 N   0  0  0  0  0  0  0  0  0  0  0  0
    3.8401   -0.1188    0.0000 S   0  0  0  0  0  0  0  0  0  0  0  0
    1.3190    0.9231    0.0000 C   0  0  0  0  0  0  0  0  0  0  0  0
    3.0732   -1.5397    0.0000 C   0  0  0  0  0  0  0  0  0  0  0  0
    2.3274    0.9231    0.0000 N   0  0  0  0  0  0  0  0  0  0  0  0
    3.9734   -1.1230    0.0000 C   0  0  0  0  0  0  0  0  0  0  0  0
   -3.7235   -2.3898    0.0000 N   0  3  0  0  0  0  0  0  0  0  0  0
    0.4896    3.3733    0.0000 O   0  0  0  0  0  0  0  0  0  0  0  0
   -0.3730    2.8777    0.0000 C   0  0  0  0  0  0  0  0  0  0  0  0
    1.3897   -0.9814    0.0000 C   0  0  0  0  0  0  0  0  0  0  0  0
   -0.9314    1.2314    0.0000 C   0  0  0  0  0  0  0  0  0  0  0  0
    0.4188   -1.1355    0.0000 N   0  0  0  0  0  0  0  0  0  0  0  0
   -2.9776   -1.7272    0.0000 C   0  0  0  0  0  0  0  0  0  0  0  0
   -4.6694   -2.0731    0.0000 O   0  5  0  0  0  0  0  0  0  0  0  0
   -3.5235   -3.3733    0.0000 O   0  0  0  0  0  0  0  0  0  0  0  0
    0.8228    0.0604    0.0000 O   0  0  0  0  0  0  0  0  0  0  0  0
   -0.7273    0.2605    0.0000 O   0  0  0  0  0  0  0  0  0  0  0  0
   -2.0315   -2.0481    0.0000 C   0  0  0  0  0  0  0  0  0  0  0  0
   -3.1777   -0.7437    0.0000 C   0  0  0  0  0  0  0  0  0  0  0  0
   -1.4730   -0.4020    0.0000 C   0  0  0  0  0  0  0  0  0  0  0  0
    3.2150   -2.5315    0.0000 C   0  0  0  0  0  0  0  0  0  0  0  0
    4.6694   -1.8606    0.0000 C   0  0  0  0  0  0  0  0  0  0  0  0
   -2.4233   -0.0813    0.0000 C   0  0  0  0  0  0  0  0  0  0  0  0
   -1.2731   -1.3855    0.0000 C   0  0  0  0  0  0  0  0  0  0  0  0
   -1.2857    3.3026    0.0000 C   0  0  0  0  0  0  0  0  0  0  0  0
    4.1860   -2.7107    0.0000 C   0  0  0  0  0  0  0  0  0  0  0  0
  2  7  1  0  0  0  0
  1  3  2  0  0  0  0
  2  4  1  0  0  0  0
  2  5  2  0  0  0  0
  1  6  1  0  0  0  0
  7  9  1  0  0  0  0
  3  8  1  0  0  0  0
  8 10  2  0  0  0  0
  1  9  1  0  0  0  0
  6 10  1  0  0  0  0
 11 17  1  0  0  0  0
  5 12  1  0  0  0  0
 12 13  1  0  0  0  0
  4 13  2  0  0  0  0
  3 14  1  0  0  0  0
  4 15  1  0  0  0  0
 14 16  3  0  0  0  0
 17 22  1  0  0  0  0
 11 18  1  0  0  0  0
 11 19  2  0  0  0  0
  7 20  2  0  0  0  0
 15 21  1  0  0  0  0
 22 28  2  0  0  0  0
 23 27  1  0  0  0  0
 17 23  2  0  0  0  0
 21 24  1  0  0  0  0
  8 25  1  0  0  0  0
 25 30  1  0  0  0  0
 10 26  1  0  0  0  0
 24 27  2  0  0  0  0
 24 28  1  0  0  0  0
 13 29  1  0  0  0  0
 26 30  1  0  0  0  0
M  CHG  2  11   1  18  -1
M  END
> <IDNUMBER>
Y501-2467

> <available>
17

> <H_acceptor>
10

> <H_donor>
1

> <B_rotN>
8

> <N_O>
9

> <logP>
3.8492

> <logD>
1.3615

> <logSw>
-4.2784

> <PSA>
103.308

> <pKa_ma>
4.9137

> <pKa_mb>
-6.5152

> <N_Chirals>
0

> <Name>
N-(3-cyano-5,6-dihydro-4H-cyclopenta[b]thiophen-2-yl)-5-methyl-4-[(4-nitrophenoxy)methyl]-1,2-oxazole-3-carboxamide

> <Smile>
Cc1c(COc(cc2)ccc2[N+]([O-])=O)c(C(Nc(sc2c3CCC2)c3C#N)=O)no1

> <Color>
BROWN

> <Collection>
DC

> <InChI>
InChI=1S/C20H16N4O5S/c1-11-16(10-28-13-7-5-12(6-8-13)24(26)27)18(23-29-11)19(25)22-20-15(9-21)14-3-2-4-17(14)30-20/h5-8H,2-4,10H2,1H3,(H,22,25)

> <InChI Key>
BZKKAAWEHXQYMU-UHFFFAOYSA-N

> <PERCENTSP3>
25

> <Link>
https://www.chemdiv.com/catalog/screening-compounds/compound-Y501-2467/

> <MFCDNUMBER>
MFCD08557403

> <STEREO>
ACHIRAL

> <State>
Solid

> <Similarity score>
0.19

$$$$
N-(3-cyano-4,5,6,7-tetrahydro-1-benzothiophen-2-yl)-5-(2-methyl-2,3-dihydro-1-be
  -OEChem-04222410502D

 30 34  0     0  0  0  0  0  0999 V2000
   -1.9170    1.4959    0.0000 C   0  0  0  0  0  0  0  0  0  0  0  0
   -2.5045    2.3002    0.0000 C   0  0  0  0  0  0  0  0  0  0  0  0
    0.5708    0.6083    0.0000 C   0  0  0  0  0  0  0  0  0  0  0  0
   -2.5087    0.6833    0.0000 S   0  0  0  0  0  0  0  0  0  0  0  0
   -3.4547    1.9961    0.0000 C   0  0  0  0  0  0  0  0  0  0  0  0
    1.1585    1.4084    0.0000 N   0  0  0  0  0  0  0  0  0  0  0  0
   -0.9168    1.4834    0.0000 N   0  0  0  0  0  0  0  0  0  0  0  0
    1.1585   -0.2043    0.0000 C   0  0  0  0  0  0  0  0  0  0  0  0
   -3.4588    0.9960    0.0000 C   0  0  0  0  0  0  0  0  0  0  0  0
   -0.4168    0.6125    0.0000 C   0  0  0  0  0  0  0  0  0  0  0  0
    2.1086    0.0875    0.0000 C   0  0  0  0  0  0  0  0  0  0  0  0
    2.1086    1.0876    0.0000 O   0  0  0  0  0  0  0  0  0  0  0  0
   -2.1920    3.2504    0.0000 C   0  0  0  0  0  0  0  0  0  0  0  0
    3.5964   -2.0794    0.0000 C   0  0  0  0  0  0  0  0  0  0  0  0
    5.1924   -2.4295    0.0000 O   0  0  0  0  0  0  0  0  0  0  0  0
    4.5216   -1.6877    0.0000 C   0  0  0  0  0  0  0  0  0  0  0  0
    2.9171   -0.5041    0.0000 C   0  0  0  0  0  0  0  0  0  0  0  0
   -1.9337    4.2172    0.0000 N   0  0  0  0  0  0  0  0  0  0  0  0
    2.7964   -1.4920    0.0000 C   0  0  0  0  0  0  0  0  0  0  0  0
    3.6965   -3.0878    0.0000 C   0  0  0  0  0  0  0  0  0  0  0  0
   -0.9293   -0.2500    0.0000 O   0  0  0  0  0  0  0  0  0  0  0  0
    4.6840   -3.3046    0.0000 C   0  0  3  0  0  0  0  0  0  0  0  0
    4.6298   -0.6794    0.0000 C   0  0  0  0  0  0  0  0  0  0  0  0
    3.8172   -0.0957    0.0000 C   0  0  0  0  0  0  0  0  0  0  0  0
   -4.3090    2.5003    0.0000 C   0  0  0  0  0  0  0  0  0  0  0  0
   -4.3298    0.5084    0.0000 C   0  0  0  0  0  0  0  0  0  0  0  0
    5.0716   -4.2172    0.0000 C   0  0  0  0  0  0  0  0  0  0  0  0
   -5.1799    2.0169    0.0000 C   0  0  0  0  0  0  0  0  0  0  0  0
   -5.1924    1.0127    0.0000 C   0  0  0  0  0  0  0  0  0  0  0  0
   -0.4168    2.3460    0.0000 H   0  0  0  0  0  0  0  0  0  0  0  0
  1  2  2  0  0  0  0
  3 10  1  0  0  0  0
  1  4  1  0  0  0  0
  2  5  1  0  0  0  0
  3  6  2  0  0  0  0
  1  7  1  0  0  0  0
  3  8  1  0  0  0  0
  4  9  1  0  0  0  0
  5  9  2  0  0  0  0
  7 10  1  0  0  0  0
  8 11  2  0  0  0  0
 11 12  1  0  0  0  0
  6 12  1  0  0  0  0
  2 13  1  0  0  0  0
 14 19  1  0  0  0  0
 15 16  1  0  0  0  0
 16 23  1  0  0  0  0
 14 16  2  0  0  0  0
 11 17  1  0  0  0  0
 13 18  3  0  0  0  0
 17 19  2  0  0  0  0
 14 20  1  0  0  0  0
 10 21  2  0  0  0  0
 20 22  1  0  0  0  0
 15 22  1  0  0  0  0
 23 24  2  0  0  0  0
 17 24  1  0  0  0  0
  5 25  1  0  0  0  0
  9 26  1  0  0  0  0
 22 27  1  0  0  0  0
 25 28  1  0  0  0  0
 26 29  1  0  0  0  0
 28 29  1  0  0  0  0
  7 30  1  0  0  0  0
M  END
> <IDNUMBER>
D337-1093

> <available>
64

> <H_acceptor>
6

> <H_donor>
1

> <B_rotN>
5

> <N_O>
6

> <logP>
4.8655

> <logD>
3.5744

> <logSw>
-4.7257

> <PSA>
69.038

> <pKa_ma>
6.1318

> <pKa_mb>
-6.3269

> <N_Chirals>
1

> <Name>
N-(3-cyano-4,5,6,7-tetrahydro-1-benzothiophen-2-yl)-5-(2-methyl-2,3-dihydro-1-benzofuran-5-yl)-1,2-oxazole-3-carboxamide

> <Smile>
CC(C1)Oc(cc2)c1cc2-c1cc(C(Nc(sc2c3CCCC2)c3C#N)=O)no1

> <Color>
ORANGE

> <Collection>
DC

> <InChI>
InChI=1S/C22H19N3O3S/c1-12-8-14-9-13(6-7-18(14)27-12)19-10-17(25-28-19)21(26)24-22-16(11-23)15-4-2-3-5-20(15)29-22/h6-7,9-10,12H,2-5,8H2,1H3,(H,24,26)/t12-/m1/s1

> <InChI Key>
ZRFPTQSWEYXVAA-GFCCVEGCSA-N

> <PERCENTSP3>
31.8

> <Link>
https://www.chemdiv.com/catalog/screening-compounds/compound-D337-1093/

> <MFCDNUMBER>
MFCD08545738

> <CLNUMBER>
CL2028

> <STEREO>
RACEMIC MIXTURE

> <State>
Solid

> <Similarity score>
0.19

$$$$
N-(3-cyano-6-methyl-4,5,6,7-tetrahydro-1-benzothiophen-2-yl)-3-phenyl-6-(thiophe
  -OEChem-04222410502D

 35 40  0     0  0  0  0  0  0999 V2000
    0.7833   -1.0063    0.0000 C   0  0  0  0  0  0  0  0  0  0  0  0
    1.1084   -1.9688    0.0000 C   0  0  0  0  0  0  0  0  0  0  0  0
   -1.5166    1.5604    0.0000 C   0  0  0  0  0  0  0  0  0  0  0  0
   -2.4668    1.8687    0.0000 C   0  0  0  0  0  0  0  0  0  0  0  0
   -1.3167    0.5855    0.0000 C   0  0  0  0  0  0  0  0  0  0  0  0
    2.1083   -1.9521    0.0000 C   0  0  0  0  0  0  0  0  0  0  0  0
    2.4208   -1.0063    0.0000 C   0  0  0  0  0  0  0  0  0  0  0  0
    1.6042   -0.4062    0.0000 S   0  0  0  0  0  0  0  0  0  0  0  0
   -1.5207    3.1687    0.0000 N   0  0  0  0  0  0  0  0  0  0  0  0
   -0.9333    2.3606    0.0000 C   0  0  0  0  0  0  0  0  0  0  0  0
   -0.1583   -0.6939    0.0000 N   0  0  0  0  0  0  0  0  0  0  0  0
   -0.3668    0.2812    0.0000 C   0  0  0  0  0  0  0  0  0  0  0  0
   -3.2041    1.1979    0.0000 N   0  0  0  0  0  0  0  0  0  0  0  0
   -2.4668    2.8605    0.0000 O   0  0  0  0  0  0  0  0  0  0  0  0
   -2.9958    0.2229    0.0000 C   0  0  0  0  0  0  0  0  0  0  0  0
   -2.0458   -0.0770    0.0000 C   0  0  0  0  0  0  0  0  0  0  0  0
    0.5543   -2.7813    0.0000 C   0  0  0  0  0  0  0  0  0  0  0  0
   -3.7333   -0.4314    0.0000 C   0  0  0  0  0  0  0  0  0  0  0  0
   -0.0043   -3.5937    0.0000 N   0  0  0  0  0  0  0  0  0  0  0  0
    2.7542   -2.6938    0.0000 C   0  0  0  0  0  0  0  0  0  0  0  0
   -3.4291   -1.3813    0.0000 S   0  0  0  0  0  0  0  0  0  0  0  0
    3.4083   -0.7813    0.0000 C   0  0  0  0  0  0  0  0  0  0  0  0
    0.3791    0.9480    0.0000 O   0  0  0  0  0  0  0  0  0  0  0  0
    0.0709    2.4230    0.0000 C   0  0  0  0  0  0  0  0  0  0  0  0
   -4.7333   -0.4396    0.0000 C   0  0  0  0  0  0  0  0  0  0  0  0
   -4.2334   -1.9688    0.0000 C   0  0  0  0  0  0  0  0  0  0  0  0
   -5.0416   -1.3813    0.0000 C   0  0  0  0  0  0  0  0  0  0  0  0
    3.7541   -2.4937    0.0000 C   0  0  0  0  0  0  0  0  0  0  0  0
    4.0710   -1.5437    0.0000 C   0  0  3  0  0  0  0  0  0  0  0  0
    0.7585    1.6730    0.0000 C   0  0  0  0  0  0  0  0  0  0  0  0
    0.3835    3.3896    0.0000 C   0  0  0  0  0  0  0  0  0  0  0  0
    5.0416   -1.3813    0.0000 C   0  0  0  0  0  0  0  0  0  0  0  0
    1.3790    3.5937    0.0000 C   0  0  0  0  0  0  0  0  0  0  0  0
    1.7417    1.8813    0.0000 C   0  0  0  0  0  0  0  0  0  0  0  0
    2.0458    2.8479    0.0000 C   0  0  0  0  0  0  0  0  0  0  0  0
  1  2  2  0  0  0  0
  3  5  1  0  0  0  0
  3  4  2  0  0  0  0
  5 12  1  0  0  0  0
  2  6  1  0  0  0  0
  7  8  1  0  0  0  0
  6  7  2  0  0  0  0
  1  8  1  0  0  0  0
  9 10  2  0  0  0  0
  3 10  1  0  0  0  0
  1 11  1  0  0  0  0
 11 12  1  0  0  0  0
 13 15  2  0  0  0  0
  4 13  1  0  0  0  0
  4 14  1  0  0  0  0
  9 14  1  0  0  0  0
 15 16  1  0  0  0  0
  5 16  2  0  0  0  0
  2 17  1  0  0  0  0
 15 18  1  0  0  0  0
 17 19  3  0  0  0  0
  6 20  1  0  0  0  0
 18 21  1  0  0  0  0
  7 22  1  0  0  0  0
 12 23  2  0  0  0  0
 10 24  1  0  0  0  0
 18 25  2  0  0  0  0
 21 26  1  0  0  0  0
 25 27  1  0  0  0  0
 26 27  2  0  0  0  0
 20 28  1  0  0  0  0
 22 29  1  0  0  0  0
 28 29  1  0  0  0  0
 24 30  1  0  0  0  0
 24 31  2  0  0  0  0
 29 32  1  0  0  0  0
 31 33  1  0  0  0  0
 30 34  2  0  0  0  0
 33 35  2  0  0  0  0
 34 35  1  0  0  0  0
M  END
> <IDNUMBER>
Y509-2638

> <available>
11

> <H_acceptor>
6

> <H_donor>
1

> <B_rotN>
6

> <N_O>
6

> <logP>
6.654

> <logD>
6.0473

> <logSw>
-5.9755

> <PSA>
71.564

> <pKa_ma>
6.9166

> <pKa_mb>
-3.6716

> <N_Chirals>
1

> <Name>
N-(3-cyano-6-methyl-4,5,6,7-tetrahydro-1-benzothiophen-2-yl)-3-phenyl-6-(thiophen-2-yl)[1,2]oxazolo[5,4-b]pyridine-4-carboxamide

> <Smile>
c1(c(c2c(s1)CC(CC2)C)C#N)NC(c1c2c(nc(c1)c1sccc1)onc2c1ccccc1)=O

> <Color>
BROWN

> <Collection>
DC

> <InChI>
InChI=1S/C27H20N4O2S2/c1-15-9-10-17-19(14-28)27(35-22(17)12-15)30-25(32)18-13-20(21-8-5-11-34-21)29-26-23(18)24(31-33-26)16-6-3-2-4-7-16/h2-8,11,13,15H,9-10,12H2,1H3,(H,30,32)/t15-/m1/s1

> <InChI Key>
VIEYFJYZLGSPQI-OAHLLOKOSA-N

> <PERCENTSP3>
18.5

> <Link>
https://www.chemdiv.com/catalog/screening-compounds/compound-Y509-2638/

> <MFCDNUMBER>
MFCD08557610

> <CLNUMBER>
CL7490

> <STEREO>
RACEMIC MIXTURE

> <State>
Solid

> <Similarity score>
0.19

$$$$
N-(3-cyano-4,5,6,7-tetrahydro-1-benzothiophen-2-yl)-2-[(5-methoxy-1H-benzimidazo
  -OEChem-04222410502D

 27 30  0     0  0  0  0  0  0999 V2000
    2.3969   -1.2795    0.0000 C   0  0  0  0  0  0  0  0  0  0  0  0
    3.0304   -0.4710    0.0000 C   0  0  0  0  0  0  0  0  0  0  0  0
    2.9220   -2.0843    0.0000 S   0  0  0  0  0  0  0  0  0  0  0  0
    3.9476   -0.8337    0.0000 C   0  0  0  0  0  0  0  0  0  0  0  0
   -1.6172    0.4544    0.0000 C   0  0  0  0  0  0  0  0  0  0  0  0
   -2.1798    1.2672    0.0000 N   0  0  0  0  0  0  0  0  0  0  0  0
    3.8723   -1.8465    0.0000 C   0  0  0  0  0  0  0  0  0  0  0  0
   -2.1798   -0.3459    0.0000 N   0  0  0  0  0  0  0  0  0  0  0  0
    1.3965   -1.2795    0.0000 N   0  0  0  0  0  0  0  0  0  0  0  0
   -3.1219    0.9421    0.0000 C   0  0  0  0  0  0  0  0  0  0  0  0
    2.7970    0.4961    0.0000 C   0  0  0  0  0  0  0  0  0  0  0  0
   -3.1219   -0.0708    0.0000 C   0  0  0  0  0  0  0  0  0  0  0  0
    2.5720    1.4673    0.0000 N   0  0  0  0  0  0  0  0  0  0  0  0
    0.9169   -0.4335    0.0000 C   0  0  0  0  0  0  0  0  0  0  0  0
   -3.9807    1.4673    0.0000 C   0  0  0  0  0  0  0  0  0  0  0  0
   -0.5919    0.4544    0.0000 S   0  0  0  0  0  0  0  0  0  0  0  0
    1.3965    0.4544    0.0000 O   0  0  0  0  0  0  0  0  0  0  0  0
   -3.9807   -0.5542    0.0000 C   0  0  0  0  0  0  0  0  0  0  0  0
   -0.1041   -0.4335    0.0000 C   0  0  0  0  0  0  0  0  0  0  0  0
   -4.8435    0.9421    0.0000 C   0  0  0  0  0  0  0  0  0  0  0  0
   -4.8435   -0.0708    0.0000 C   0  0  0  0  0  0  0  0  0  0  0  0
    4.8602   -0.4335    0.0000 C   0  0  0  0  0  0  0  0  0  0  0  0
    4.7103   -2.4218    0.0000 C   0  0  0  0  0  0  0  0  0  0  0  0
   -5.7064    1.4298    0.0000 O   0  0  0  0  0  0  0  0  0  0  0  0
   -5.7064    2.4218    0.0000 C   0  0  0  0  0  0  0  0  0  0  0  0
    5.7064   -0.9712    0.0000 C   0  0  0  0  0  0  0  0  0  0  0  0
    5.6358   -1.9799    0.0000 C   0  0  0  0  0  0  0  0  0  0  0  0
  1  2  2  0  0  0  0
  1  3  1  0  0  0  0
  2  4  1  0  0  0  0
  4  7  2  0  0  0  0
  5 16  1  0  0  0  0
  5  6  2  0  0  0  0
  3  7  1  0  0  0  0
  5  8  1  0  0  0  0
  1  9  1  0  0  0  0
  6 10  1  0  0  0  0
 10 12  2  0  0  0  0
  2 11  1  0  0  0  0
  8 12  1  0  0  0  0
 11 13  3  0  0  0  0
  9 14  1  0  0  0  0
 10 15  1  0  0  0  0
 16 19  1  0  0  0  0
 14 17  2  0  0  0  0
 12 18  1  0  0  0  0
 14 19  1  0  0  0  0
 15 20  2  0  0  0  0
 20 21  1  0  0  0  0
 18 21  2  0  0  0  0
  4 22  1  0  0  0  0
  7 23  1  0  0  0  0
 20 24  1  0  0  0  0
 24 25  1  0  0  0  0
 22 26  1  0  0  0  0
 26 27  1  0  0  0  0
 23 27  1  0  0  0  0
M  END
> <IDNUMBER>
Y505-4845

> <available>
26

> <H_acceptor>
6

> <H_donor>
2

> <B_rotN>
7

> <N_O>
6

> <logP>
3.5256

> <logD>
2.4929

> <logSw>
-4.2098

> <PSA>
65.444

> <pKa_ma>
6.4095

> <pKa_mb>
4.2873

> <N_Chirals>
0

> <Name>
N-(3-cyano-4,5,6,7-tetrahydro-1-benzothiophen-2-yl)-2-[(5-methoxy-1H-benzimidazol-2-yl)sulfanyl]acetamide

> <Smile>
c1(c(c2c(s1)CCCC2)C#N)NC(=O)CSc1nc2c([nH]1)ccc(c2)OC

> <Color>
ORANGE

> <Collection>
DC

> <InChI>
InChI=1S/C19H18N4O2S2/c1-25-11-6-7-14-15(8-11)22-19(21-14)26-10-17(24)23-18-13(9-20)12-4-2-3-5-16(12)27-18/h6-8H,2-5,10H2,1H3,(H,21,22)(H,23,24)

> <InChI Key>
JPLSNKJYBYFQJI-UHFFFAOYSA-N

> <PERCENTSP3>
8

> <Link>
https://www.chemdiv.com/catalog/screening-compounds/compound-Y505-4845/

> <MFCDNUMBER>
MFCD02008494

> <STEREO>
ACHIRAL

> <State>
Solid

> <Similarity score>
0.19

$$$$
N-(3-cyano-6-methyl-4,5,6,7-tetrahydro-1-benzothiophen-2-yl)-4-[3-(4-methoxyphen
  -OEChem-04222410502D

 31 34  0     0  0  0  0  0  0999 V2000
    2.5373    2.0664    0.0000 C   0  0  0  0  0  0  0  0  0  0  0  0
    2.7498    1.0665    0.0000 C   0  0  0  0  0  0  0  0  0  0  0  0
    3.7247    0.9666    0.0000 C   0  0  0  0  0  0  0  0  0  0  0  0
    4.1372    1.8915    0.0000 C   0  0  0  0  0  0  0  0  0  0  0  0
    3.3998    2.5415    0.0000 S   0  0  0  0  0  0  0  0  0  0  0  0
   -1.5582   -0.9207    0.0000 N   0  0  0  0  0  0  0  0  0  0  0  0
   -2.1749   -1.7080    0.0000 C   0  0  0  0  0  0  0  0  0  0  0  0
   -1.6083   -2.5415    0.0000 N   0  0  0  0  0  0  0  0  0  0  0  0
    1.6166    2.4665    0.0000 N   0  0  0  0  0  0  0  0  0  0  0  0
    2.0666    0.3165    0.0000 C   0  0  0  0  0  0  0  0  0  0  0  0
   -0.6207   -1.2538    0.0000 C   0  0  0  0  0  0  0  0  0  0  0  0
   -0.6500   -2.2663    0.0000 O   0  0  0  0  0  0  0  0  0  0  0  0
    1.3916   -0.4290    0.0000 N   0  0  0  0  0  0  0  0  0  0  0  0
    4.2996    0.1544    0.0000 C   0  0  0  0  0  0  0  0  0  0  0  0
    0.8166    1.8915    0.0000 C   0  0  0  0  0  0  0  0  0  0  0  0
   -3.1872   -1.6914    0.0000 C   0  0  0  0  0  0  0  0  0  0  0  0
    5.1371    1.9793    0.0000 C   0  0  0  0  0  0  0  0  0  0  0  0
   -0.0750    2.2790    0.0000 O   0  0  0  0  0  0  0  0  0  0  0  0
   -3.7080   -2.5415    0.0000 C   0  0  0  0  0  0  0  0  0  0  0  0
   -3.6705   -0.8040    0.0000 C   0  0  0  0  0  0  0  0  0  0  0  0
    5.2913    0.2415    0.0000 C   0  0  0  0  0  0  0  0  0  0  0  0
   -5.1953   -1.6288    0.0000 C   0  0  0  0  0  0  0  0  0  0  0  0
   -4.6829   -0.7833    0.0000 C   0  0  0  0  0  0  0  0  0  0  0  0
   -4.7204   -2.5206    0.0000 C   0  0  0  0  0  0  0  0  0  0  0  0
    5.7038    1.1585    0.0000 C   0  0  3  0  0  0  0  0  0  0  0  0
    0.1917   -0.6708    0.0000 C   0  0  0  0  0  0  0  0  0  0  0  0
   -6.1871   -1.5913    0.0000 O   0  0  0  0  0  0  0  0  0  0  0  0
    0.9167    0.9165    0.0000 C   0  0  0  0  0  0  0  0  0  0  0  0
    0.1041    0.3291    0.0000 C   0  0  0  0  0  0  0  0  0  0  0  0
   -6.7037   -2.4456    0.0000 C   0  0  0  0  0  0  0  0  0  0  0  0
    6.7037    1.2540    0.0000 C   0  0  0  0  0  0  0  0  0  0  0  0
  1  2  2  0  0  0  0
  2  3  1  0  0  0  0
  4  5  1  0  0  0  0
  3  4  2  0  0  0  0
  1  5  1  0  0  0  0
  6 11  2  0  0  0  0
  6  7  1  0  0  0  0
  8 12  1  0  0  0  0
  7  8  2  0  0  0  0
  1  9  1  0  0  0  0
  2 10  1  0  0  0  0
 11 26  1  0  0  0  0
 11 12  1  0  0  0  0
 10 13  3  0  0  0  0
  3 14  1  0  0  0  0
  9 15  1  0  0  0  0
  7 16  1  0  0  0  0
  4 17  1  0  0  0  0
 15 18  2  0  0  0  0
 16 19  2  0  0  0  0
 16 20  1  0  0  0  0
 14 21  1  0  0  0  0
 22 23  1  0  0  0  0
 20 23  2  0  0  0  0
 19 24  1  0  0  0  0
 22 24  2  0  0  0  0
 17 25  1  0  0  0  0
 21 25  1  0  0  0  0
 26 29  1  0  0  0  0
 22 27  1  0  0  0  0
 15 28  1  0  0  0  0
 28 29  1  0  0  0  0
 27 30  1  0  0  0  0
 25 31  1  0  0  0  0
M  END
> <IDNUMBER>
D321-0807

> <available>
128

> <H_acceptor>
7

> <H_donor>
1

> <B_rotN>
9

> <N_O>
7

> <logP>
4.8665

> <logD>
3.5533

> <logSw>
-4.7326

> <PSA>
78.774

> <pKa_ma>
6.1085

> <pKa_mb>
-4.0588

> <N_Chirals>
1

> <Name>
N-(3-cyano-6-methyl-4,5,6,7-tetrahydro-1-benzothiophen-2-yl)-4-[3-(4-methoxyphenyl)-1,2,4-oxadiazol-5-yl]butanamide

> <Smile>
CC(CC1)Cc2c1c(C#N)c(NC(CCCc1nc(-c(cc3)ccc3OC)no1)=O)s2

> <Color>
ORANGE

> <Collection>
DC

> <InChI>
InChI=1S/C23H24N4O3S/c1-14-6-11-17-18(13-24)23(31-19(17)12-14)25-20(28)4-3-5-21-26-22(27-30-21)15-7-9-16(29-2)10-8-15/h7-10,14H,3-6,11-12H2,1-2H3,(H,25,28)/t14-/m1/s1

> <InChI Key>
XLLNDVBSZBVZLD-CQSZACIVSA-N

> <PERCENTSP3>
39.1

> <Link>
https://www.chemdiv.com/catalog/screening-compounds/compound-D321-0807/

> <MFCDNUMBER>
MFCD09764581

> <CLNUMBER>
CL5000

> <STEREO>
RACEMIC MIXTURE

> <State>
Solid

> <Similarity score>
0.19

$$$$
N-[(3-cyano-4,5,6,7-tetrahydro-1-benzothiophen-2-yl)carbamothioyl]-3-(2,6-dichlo
  -OEChem-04222410502D

 31 34  0     0  0  0  0  0  0999 V2000
    1.9882    0.2101    0.0000 C   0  0  0  0  0  0  0  0  0  0  0  0
   -3.2629    0.2652    0.0000 C   0  0  0  0  0  0  0  0  0  0  0  0
   -2.3326    0.6581    0.0000 C   0  0  0  0  0  0  0  0  0  0  0  0
    2.8495    0.6786    0.0000 C   0  0  0  0  0  0  0  0  0  0  0  0
   -1.4715    0.1827    0.0000 C   0  0  0  0  0  0  0  0  0  0  0  0
   -3.9038    0.9546    0.0000 N   0  0  0  0  0  0  0  0  0  0  0  0
    2.1329   -0.7823    0.0000 S   0  0  0  0  0  0  0  0  0  0  0  0
    3.5592    0.0378    0.0000 C   0  0  0  0  0  0  0  0  0  0  0  0
    1.1199    0.6994    0.0000 N   0  0  0  0  0  0  0  0  0  0  0  0
   -3.4905   -0.6994    0.0000 C   0  0  0  0  0  0  0  0  0  0  0  0
   -0.6236    0.6994    0.0000 N   0  0  0  0  0  0  0  0  0  0  0  0
    0.2515    0.2033    0.0000 C   0  0  0  0  0  0  0  0  0  0  0  0
    3.1251   -0.8925    0.0000 C   0  0  0  0  0  0  0  0  0  0  0  0
   -3.4352    1.8157    0.0000 O   0  0  0  0  0  0  0  0  0  0  0  0
   -2.4430    1.6160    0.0000 C   0  0  0  0  0  0  0  0  0  0  0  0
    2.9321    1.6366    0.0000 C   0  0  0  0  0  0  0  0  0  0  0  0
    3.0218    2.6014    0.0000 N   0  0  0  0  0  0  0  0  0  0  0  0
    0.2515   -0.8097    0.0000 S   0  0  0  0  0  0  0  0  0  0  0  0
   -2.7944   -1.3680    0.0000 C   0  0  0  0  0  0  0  0  0  0  0  0
   -4.4277   -0.9476    0.0000 C   0  0  0  0  0  0  0  0  0  0  0  0
   -1.4715   -0.8097    0.0000 O   0  0  0  0  0  0  0  0  0  0  0  0
   -1.5333   -2.1121    0.0000 Cl  0  0  0  0  0  0  0  0  0  0  0  0
   -5.1098   -0.2311    0.0000 Cl  0  0  0  0  0  0  0  0  0  0  0  0
    4.5102    0.0998    0.0000 C   0  0  0  0  0  0  0  0  0  0  0  0
    3.6834   -1.6917    0.0000 C   0  0  0  0  0  0  0  0  0  0  0  0
   -1.7193    2.2707    0.0000 C   0  0  0  0  0  0  0  0  0  0  0  0
   -3.9659   -2.6014    0.0000 C   0  0  0  0  0  0  0  0  0  0  0  0
   -3.0424   -2.3187    0.0000 C   0  0  0  0  0  0  0  0  0  0  0  0
   -4.6757   -1.8849    0.0000 C   0  0  0  0  0  0  0  0  0  0  0  0
    5.1098   -0.6994    0.0000 C   0  0  0  0  0  0  0  0  0  0  0  0
    4.6757   -1.6091    0.0000 C   0  0  0  0  0  0  0  0  0  0  0  0
  2  3  1  0  0  0  0
  3  5  1  0  0  0  0
  1  4  2  0  0  0  0
  5 11  1  0  0  0  0
  2  6  2  0  0  0  0
  1  7  1  0  0  0  0
  4  8  1  0  0  0  0
  1  9  1  0  0  0  0
  2 10  1  0  0  0  0
 11 12  1  0  0  0  0
  9 12  1  0  0  0  0
  7 13  1  0  0  0  0
  8 13  2  0  0  0  0
 14 15  1  0  0  0  0
  6 14  1  0  0  0  0
  3 15  2  0  0  0  0
  4 16  1  0  0  0  0
 16 17  3  0  0  0  0
 12 18  2  0  0  0  0
 10 19  2  0  0  0  0
 10 20  1  0  0  0  0
  5 21  2  0  0  0  0
 19 22  1  0  0  0  0
 20 23  1  0  0  0  0
  8 24  1  0  0  0  0
 13 25  1  0  0  0  0
 15 26  1  0  0  0  0
 27 29  1  0  0  0  0
 19 28  1  0  0  0  0
 27 28  2  0  0  0  0
 20 29  2  0  0  0  0
 24 30  1  0  0  0  0
 25 31  1  0  0  0  0
 30 31  1  0  0  0  0
M  END
> <IDNUMBER>
5182-2771

> <available>
48

> <H_acceptor>
7

> <H_donor>
2

> <B_rotN>
7

> <N_O>
6

> <logP>
5.2664

> <logD>
4.9199

> <logSw>
-5.8804

> <PSA>
71.971

> <pKa_ma>
7.3133

> <pKa_mb>
-6.8683

> <N_Chirals>
0

> <Name>
N-[(3-cyano-4,5,6,7-tetrahydro-1-benzothiophen-2-yl)carbamothioyl]-3-(2,6-dichlorophenyl)-5-methyl-1,2-oxazole-4-carboxamide

> <Smile>
Cc1c(C(NC(Nc(sc2c3CCCC2)c3C#N)=S)=O)c(-c(c(Cl)ccc2)c2Cl)no1

> <Color>
YELLOW

> <Collection>
DC

> <InChI>
InChI=1S/C21H16Cl2N4O2S2/c1-10-16(18(27-29-10)17-13(22)6-4-7-14(17)23)19(28)25-21(30)26-20-12(9-24)11-5-2-3-8-15(11)31-20/h4,6-7H,2-3,5,8H2,1H3,(H2,25,26,28,30)

> <InChI Key>
ZJUSXZVMLXZJDW-UHFFFAOYSA-N

> <PERCENTSP3>
23.8

> <Link>
https://www.chemdiv.com/catalog/screening-compounds/compound-5182-2771/

> <MFCDNUMBER>
MFCD01963048

> <CLNUMBER>
CL2451

> <STEREO>
ACHIRAL

> <State>
Solid

> <Similarity score>
0.19

$$$$
2-amino-6-ethyl-4,5,6,7-tetrahydro-1-benzothiophene-3-carbonitrile
  -OEChem-04222410502D

 14 15  0     0  0  0  0  0  0999 V2000
    1.2479   -0.1146    0.0000 C   0  0  0  0  0  0  0  0  0  0  0  0
    0.9189   -1.0647    0.0000 C   0  0  0  0  0  0  0  0  0  0  0  0
    0.4271    0.4772    0.0000 C   0  0  0  0  0  0  0  0  0  0  0  0
   -0.3604   -0.1146    0.0000 C   0  0  0  0  0  0  0  0  0  0  0  0
   -0.0646   -1.0647    0.0000 S   0  0  0  0  0  0  0  0  0  0  0  0
    2.1856    0.1812    0.0000 C   0  0  0  0  0  0  0  0  0  0  0  0
    3.1233    0.4772    0.0000 N   0  0  0  0  0  0  0  0  0  0  0  0
    0.3271    1.4606    0.0000 C   0  0  0  0  0  0  0  0  0  0  0  0
   -1.2813    0.3146    0.0000 C   0  0  0  0  0  0  0  0  0  0  0  0
    1.5440   -1.8898    0.0000 N   0  0  0  0  0  0  0  0  0  0  0  0
   -0.5605    1.8898    0.0000 C   0  0  0  0  0  0  0  0  0  0  0  0
   -1.4148    1.2980    0.0000 C   0  0  3  0  0  0  0  0  0  0  0  0
   -2.3357    1.6606    0.0000 C   0  0  0  0  0  0  0  0  0  0  0  0
   -3.1233    1.0355    0.0000 C   0  0  0  0  0  0  0  0  0  0  0  0
  1  2  2  0  0  0  0
  1  3  1  0  0  0  0
  3  4  2  0  0  0  0
  4  5  1  0  0  0  0
  2  5  1  0  0  0  0
  1  6  1  0  0  0  0
  6  7  3  0  0  0  0
  3  8  1  0  0  0  0
  4  9  1  0  0  0  0
  9 12  1  0  0  0  0
  2 10  1  0  0  0  0
  8 11  1  0  0  0  0
 11 12  1  0  0  0  0
 12 13  1  0  0  0  0
 13 14  1  0  0  0  0
M  END
> <IDNUMBER>
Y503-0029

> <available>
19

> <H_acceptor>
1

> <H_donor>
2

> <B_rotN>
2

> <N_O>
2

> <logP>
3.1257

> <logD>
3.1257

> <logSw>
-3.2209

> <PSA>
38.492

> <pKa_ma>
15.9936

> <pKa_mb>
-2.1439

> <N_Chirals>
1

> <Name>
2-amino-6-ethyl-4,5,6,7-tetrahydro-1-benzothiophene-3-carbonitrile

> <Smile>
CCC(CC1)Cc2c1c(C#N)c(N)s2

> <Color>
ORANGE

> <Collection>
DC

> <InChI>
InChI=1S/C11H14N2S/c1-2-7-3-4-8-9(6-12)11(13)14-10(8)5-7/h7H,2-5,13H2,1H3/t7-/m1/s1

> <InChI Key>
UJSSIVVJQQNBCO-SSDOTTSWSA-N

> <PERCENTSP3>
54.55

> <Link>
https://www.chemdiv.com/catalog/screening-compounds/compound-Y503-0029/

> <MFCDNUMBER>
MFCD01114964

> <STEREO>
RACEMIC MIXTURE

> <State>
Solid

> <Similarity score>
0.19

$$$$
N-(3-cyano-5,6-dihydro-4H-cyclopenta[b]thiophen-2-yl)-4,5,6,7-tetrahydro-1,2-ben
  -OEChem-04222410502D

 22 25  0     0  0  0  0  0  0999 V2000
   -0.8782   -1.1844    0.0000 C   0  0  0  0  0  0  0  0  0  0  0  0
   -0.2715   -1.9604    0.0000 C   0  0  0  0  0  0  0  0  0  0  0  0
   -0.0445    1.8777    0.0000 C   0  0  0  0  0  0  0  0  0  0  0  0
   -0.7274    2.5300    0.0000 N   0  0  0  0  0  0  0  0  0  0  0  0
    0.7975    2.5443    0.0000 C   0  0  0  0  0  0  0  0  0  0  0  0
   -1.8170   -1.5230    0.0000 S   0  0  0  0  0  0  0  0  0  0  0  0
   -0.8183   -2.7879    0.0000 C   0  0  0  0  0  0  0  0  0  0  0  0
   -0.0155    0.3238    0.0000 C   0  0  0  0  0  0  0  0  0  0  0  0
   -0.8782   -0.1754    0.0000 N   0  0  0  0  0  0  0  0  0  0  0  0
   -1.7716   -2.5052    0.0000 C   0  0  0  0  0  0  0  0  0  0  0  0
   -0.4449    3.4234    0.0000 O   0  0  0  0  0  0  0  0  0  0  0  0
    0.5002    3.4379    0.0000 C   0  0  0  0  0  0  0  0  0  0  0  0
    0.7376   -1.9253    0.0000 C   0  0  0  0  0  0  0  0  0  0  0  0
    1.7343   -1.8839    0.0000 N   0  0  0  0  0  0  0  0  0  0  0  0
    0.7975   -0.1714    0.0000 O   0  0  0  0  0  0  0  0  0  0  0  0
    1.7034    2.3628    0.0000 C   0  0  0  0  0  0  0  0  0  0  0  0
   -0.7730   -3.7929    0.0000 C   0  0  0  0  0  0  0  0  0  0  0  0
   -2.3308   -3.3491    0.0000 C   0  0  0  0  0  0  0  0  0  0  0  0
    1.1214    4.1353    0.0000 C   0  0  0  0  0  0  0  0  0  0  0  0
   -1.7264   -4.1353    0.0000 C   0  0  0  0  0  0  0  0  0  0  0  0
    2.3308    3.0541    0.0000 C   0  0  0  0  0  0  0  0  0  0  0  0
    2.0275    3.9516    0.0000 C   0  0  0  0  0  0  0  0  0  0  0  0
  1  2  2  0  0  0  0
  3  8  1  0  0  0  0
  3  4  2  0  0  0  0
  3  5  1  0  0  0  0
  1  6  1  0  0  0  0
  2  7  1  0  0  0  0
  7 10  2  0  0  0  0
  8  9  1  0  0  0  0
  1  9  1  0  0  0  0
  6 10  1  0  0  0  0
  4 11  1  0  0  0  0
  5 12  2  0  0  0  0
 11 12  1  0  0  0  0
  2 13  1  0  0  0  0
 13 14  3  0  0  0  0
  8 15  2  0  0  0  0
  5 16  1  0  0  0  0
  7 17  1  0  0  0  0
 10 18  1  0  0  0  0
 12 19  1  0  0  0  0
 18 20  1  0  0  0  0
 17 20  1  0  0  0  0
 16 21  1  0  0  0  0
 21 22  1  0  0  0  0
 19 22  1  0  0  0  0
M  END
> <IDNUMBER>
C226-3401

> <available>
1

> <H_acceptor>
5

> <H_donor>
1

> <B_rotN>
4

> <N_O>
5

> <logP>
3.0819

> <logD>
0.8798

> <logSw>
-3.3368

> <PSA>
62.867

> <pKa_ma>
5.2006

> <pKa_mb>
-5.5427

> <N_Chirals>
0

> <Name>
N-(3-cyano-5,6-dihydro-4H-cyclopenta[b]thiophen-2-yl)-4,5,6,7-tetrahydro-1,2-benzoxazole-3-carboxamide

> <Smile>
N#Cc1c(NC(c2noc3c2CCCC3)=O)sc2c1CCC2

> <Color>
BROWN

> <Collection>
NC

> <InChI>
InChI=1S/C16H15N3O2S/c17-8-11-9-5-3-7-13(9)22-16(11)18-15(20)14-10-4-1-2-6-12(10)21-19-14/h1-7H2,(H,18,20)

> <InChI Key>
GQOOVLDOQVJXGH-UHFFFAOYSA-N

> <PERCENTSP3>
43.8

> <Link>
https://www.chemdiv.com/catalog/screening-compounds/compound-C226-3401/

> <MFCDNUMBER>
MFCD09783053

> <CLNUMBER>
CL2031

> <STEREO>
ACHIRAL

> <State>
Solid

> <Similarity score>
0.19

$$$$
N-(3-cyano-5,6,7,8-tetrahydro-4H-cyclohepta[b]thiophen-2-yl)-6-(furan-2-yl)-3-ph
  -OEChem-04222410502D

 35 40  0     0  0  0  0  0  0999 V2000
    1.1021    1.0562    0.0000 C   0  0  0  0  0  0  0  0  0  0  0  0
    1.4853    2.0061    0.0000 C   0  0  0  0  0  0  0  0  0  0  0  0
   -1.4353   -1.3314    0.0000 C   0  0  0  0  0  0  0  0  0  0  0  0
   -2.4103   -1.5645    0.0000 C   0  0  0  0  0  0  0  0  0  0  0  0
   -1.1562   -0.3687    0.0000 C   0  0  0  0  0  0  0  0  0  0  0  0
   -1.5729   -2.9395    0.0000 N   0  0  0  0  0  0  0  0  0  0  0  0
    1.8604    0.4437    0.0000 S   0  0  0  0  0  0  0  0  0  0  0  0
    2.4812    1.9186    0.0000 C   0  0  0  0  0  0  0  0  0  0  0  0
   -0.9187   -2.1813    0.0000 C   0  0  0  0  0  0  0  0  0  0  0  0
    0.1022    0.8186    0.0000 N   0  0  0  0  0  0  0  0  0  0  0  0
   -0.1813   -0.1397    0.0000 C   0  0  0  0  0  0  0  0  0  0  0  0
   -3.1020   -0.8355    0.0000 N   0  0  0  0  0  0  0  0  0  0  0  0
    2.7062    0.9478    0.0000 C   0  0  0  0  0  0  0  0  0  0  0  0
   -2.4937   -2.5563    0.0000 O   0  0  0  0  0  0  0  0  0  0  0  0
   -2.8103    0.1229    0.0000 C   0  0  0  0  0  0  0  0  0  0  0  0
   -1.8397    0.3562    0.0000 C   0  0  0  0  0  0  0  0  0  0  0  0
    0.9813    2.8645    0.0000 C   0  0  0  0  0  0  0  0  0  0  0  0
   -3.5021    0.8436    0.0000 C   0  0  0  0  0  0  0  0  0  0  0  0
    0.4812    3.7271    0.0000 N   0  0  0  0  0  0  0  0  0  0  0  0
   -3.1145    1.7687    0.0000 O   0  0  0  0  0  0  0  0  0  0  0  0
    0.5062   -0.8687    0.0000 O   0  0  0  0  0  0  0  0  0  0  0  0
    0.0396   -2.4729    0.0000 C   0  0  0  0  0  0  0  0  0  0  0  0
   -4.5019    0.9311    0.0000 C   0  0  0  0  0  0  0  0  0  0  0  0
   -3.8771    2.4271    0.0000 C   0  0  0  0  0  0  0  0  0  0  0  0
   -4.7311    1.9021    0.0000 C   0  0  0  0  0  0  0  0  0  0  0  0
    3.1144    2.7103    0.0000 C   0  0  0  0  0  0  0  0  0  0  0  0
    3.5979    0.5104    0.0000 C   0  0  0  0  0  0  0  0  0  0  0  0
    0.7604   -1.7813    0.0000 C   0  0  0  0  0  0  0  0  0  0  0  0
    0.2729   -3.4397    0.0000 C   0  0  0  0  0  0  0  0  0  0  0  0
    4.1144    2.6811    0.0000 C   0  0  0  0  0  0  0  0  0  0  0  0
    4.5061    0.9270    0.0000 C   0  0  0  0  0  0  0  0  0  0  0  0
    1.7187   -2.0730    0.0000 C   0  0  0  0  0  0  0  0  0  0  0  0
    1.2271   -3.7271    0.0000 C   0  0  0  0  0  0  0  0  0  0  0  0
    1.9520   -3.0439    0.0000 C   0  0  0  0  0  0  0  0  0  0  0  0
    4.7311    1.9021    0.0000 C   0  0  0  0  0  0  0  0  0  0  0  0
  1  2  2  0  0  0  0
  3  5  1  0  0  0  0
  3  4  2  0  0  0  0
  4 12  1  0  0  0  0
  5 11  1  0  0  0  0
  6  9  2  0  0  0  0
  6 14  1  0  0  0  0
  1  7  1  0  0  0  0
  2  8  1  0  0  0  0
  8 13  2  0  0  0  0
  3  9  1  0  0  0  0
  1 10  1  0  0  0  0
 10 11  1  0  0  0  0
 12 15  2  0  0  0  0
  7 13  1  0  0  0  0
  4 14  1  0  0  0  0
 15 16  1  0  0  0  0
  5 16  2  0  0  0  0
  2 17  1  0  0  0  0
 15 18  1  0  0  0  0
 17 19  3  0  0  0  0
 18 20  1  0  0  0  0
 11 21  2  0  0  0  0
  9 22  1  0  0  0  0
 18 23  2  0  0  0  0
 20 24  1  0  0  0  0
 24 25  2  0  0  0  0
 23 25  1  0  0  0  0
  8 26  1  0  0  0  0
 13 27  1  0  0  0  0
 22 28  2  0  0  0  0
 22 29  1  0  0  0  0
 26 30  1  0  0  0  0
 30 35  1  0  0  0  0
 27 31  1  0  0  0  0
 28 32  1  0  0  0  0
 32 34  2  0  0  0  0
 29 33  2  0  0  0  0
 33 34  1  0  0  0  0
 31 35  1  0  0  0  0
M  END
> <IDNUMBER>
Y501-2733

> <available>
22

> <H_acceptor>
7

> <H_donor>
1

> <B_rotN>
6

> <N_O>
7

> <logP>
5.9781

> <logD>
5.3714

> <logSw>
-6.1136

> <PSA>
79.455

> <pKa_ma>
6.9166

> <pKa_mb>
-4.0324

> <N_Chirals>
0

> <Name>
N-(3-cyano-5,6,7,8-tetrahydro-4H-cyclohepta[b]thiophen-2-yl)-6-(furan-2-yl)-3-phenyl[1,2]oxazolo[5,4-b]pyridine-4-carboxamide

> <Smile>
N#Cc1c(NC(c2c(c(-c3ccccc3)no3)c3nc(-c3ccco3)c2)=O)sc2c1CCCCC2

> <Color>
ORANGE

> <Collection>
DC

> <InChI>
InChI=1S/C27H20N4O3S/c28-15-19-17-10-5-2-6-12-22(17)35-27(19)30-25(32)18-14-20(21-11-7-13-33-21)29-26-23(18)24(31-34-26)16-8-3-1-4-9-16/h1,3-4,7-9,11,13-14H,2,5-6,10,12H2,(H,30,32)

> <InChI Key>
YOZXUXIUTROHGN-UHFFFAOYSA-N

> <PERCENTSP3>
18.52

> <Link>
https://www.chemdiv.com/catalog/screening-compounds/compound-Y501-2733/

> <MFCDNUMBER>
MFCD08557563

> <CLNUMBER>
CL7490

> <STEREO>
ACHIRAL

> <State>
Solid

> <Similarity score>
0.19

$$$$
2-[2-(4-amino-1,2,5-oxadiazol-3-yl)-1H-benzimidazol-1-yl]-N-(3-cyano-6-methyl-4,
  -OEChem-04222410502D

 31 35  0     0  0  0  0  0  0999 V2000
    2.3808    0.1042    0.0000 C   0  0  0  0  0  0  0  0  0  0  0  0
    1.6517    0.8041    0.0000 N   0  0  0  0  0  0  0  0  0  0  0  0
   -1.5727    0.4290    0.0000 C   0  0  0  0  0  0  0  0  0  0  0  0
   -2.5808    0.4666    0.0000 C   0  0  0  0  0  0  0  0  0  0  0  0
    2.2434   -0.8915    0.0000 C   0  0  0  0  0  0  0  0  0  0  0  0
    3.2681    0.5791    0.0000 N   0  0  0  0  0  0  0  0  0  0  0  0
   -2.9183   -0.4708    0.0000 C   0  0  0  0  0  0  0  0  0  0  0  0
   -2.1308   -1.0832    0.0000 C   0  0  0  0  0  0  0  0  0  0  0  0
   -1.3061   -0.5290    0.0000 S   0  0  0  0  0  0  0  0  0  0  0  0
    2.9682   -1.5831    0.0000 C   0  0  0  0  0  0  0  0  0  0  0  0
    2.5266   -2.4829    0.0000 N   0  0  0  0  0  0  0  0  0  0  0  0
   -0.9603    1.2082    0.0000 N   0  0  0  0  0  0  0  0  0  0  0  0
    1.3560   -1.3581    0.0000 N   0  0  0  0  0  0  0  0  0  0  0  0
    2.0934    1.7038    0.0000 C   0  0  0  0  0  0  0  0  0  0  0  0
    1.5309   -2.3454    0.0000 O   0  0  0  0  0  0  0  0  0  0  0  0
    3.0889    1.5664    0.0000 C   0  0  0  0  0  0  0  0  0  0  0  0
   -3.1349    1.2915    0.0000 C   0  0  0  0  0  0  0  0  0  0  0  0
    0.0187    1.3831    0.0000 C   0  0  0  0  0  0  0  0  0  0  0  0
    0.6686    0.6208    0.0000 C   0  0  0  0  0  0  0  0  0  0  0  0
   -2.7433    2.2205    0.0000 N   0  0  0  0  0  0  0  0  0  0  0  0
   -3.8305   -0.8457    0.0000 C   0  0  0  0  0  0  0  0  0  0  0  0
   -2.2684   -2.0580    0.0000 C   0  0  0  0  0  0  0  0  0  0  0  0
    0.3687    2.3287    0.0000 O   0  0  0  0  0  0  0  0  0  0  0  0
    3.9555   -1.4082    0.0000 N   0  0  0  0  0  0  0  0  0  0  0  0
   -3.9555   -1.8288    0.0000 C   0  0  0  0  0  0  0  0  0  0  0  0
   -3.1932   -2.4412    0.0000 C   0  0  3  0  0  0  0  0  0  0  0  0
    1.7184    2.6412    0.0000 C   0  0  0  0  0  0  0  0  0  0  0  0
    3.7056    2.3663    0.0000 C   0  0  0  0  0  0  0  0  0  0  0  0
   -3.3307   -3.4285    0.0000 C   0  0  0  0  0  0  0  0  0  0  0  0
    2.3308    3.4285    0.0000 C   0  0  0  0  0  0  0  0  0  0  0  0
    3.3307    3.2910    0.0000 C   0  0  0  0  0  0  0  0  0  0  0  0
  1  2  1  0  0  0  0
  3 12  1  0  0  0  0
  3  4  2  0  0  0  0
  1  5  1  0  0  0  0
  1  6  2  0  0  0  0
  4  7  1  0  0  0  0
  8  9  1  0  0  0  0
  7  8  2  0  0  0  0
  3  9  1  0  0  0  0
  5 10  1  0  0  0  0
 10 11  2  0  0  0  0
 12 18  1  0  0  0  0
  5 13  2  0  0  0  0
  2 14  1  0  0  0  0
 13 15  1  0  0  0  0
 11 15  1  0  0  0  0
  6 16  1  0  0  0  0
 14 16  2  0  0  0  0
  4 17  1  0  0  0  0
 18 19  1  0  0  0  0
  2 19  1  0  0  0  0
 17 20  3  0  0  0  0
  7 21  1  0  0  0  0
  8 22  1  0  0  0  0
 18 23  2  0  0  0  0
 10 24  1  0  0  0  0
 21 25  1  0  0  0  0
 25 26  1  0  0  0  0
 22 26  1  0  0  0  0
 26 29  1  0  0  0  0
 14 27  1  0  0  0  0
 16 28  1  0  0  0  0
 27 30  2  0  0  0  0
 28 31  2  0  0  0  0
 30 31  1  0  0  0  0
M  END
> <IDNUMBER>
8016-2378

> <available>
15

> <H_acceptor>
7

> <H_donor>
3

> <B_rotN>
6

> <N_O>
9

> <logP>
4.2503

> <logD>
2.8477

> <logSw>
-4.4837

> <PSA>
106.901

> <pKa_ma>
6.0149

> <pKa_mb>
3.9643

> <N_Chirals>
1

> <Name>
2-[2-(4-amino-1,2,5-oxadiazol-3-yl)-1H-benzimidazol-1-yl]-N-(3-cyano-6-methyl-4,5,6,7-tetrahydro-1-benzothiophen-2-yl)acetamide

> <Smile>
CC(CC1)Cc2c1c(C#N)c(NC(Cn1c(-c3nonc3N)nc3c1cccc3)=O)s2

> <Color>
BROWN

> <Collection>
DC

> <InChI>
InChI=1S/C21H19N7O2S/c1-11-6-7-12-13(9-22)21(31-16(12)8-11)25-17(29)10-28-15-5-3-2-4-14(15)24-20(28)18-19(23)27-30-26-18/h2-5,11H,6-8,10H2,1H3,(H2,23,27)(H,25,29)/t11-/m1/s1

> <InChI Key>
YYKQUXZJLHAVCS-LLVKDONJSA-N

> <PERCENTSP3>
28.57

> <Link>
https://www.chemdiv.com/catalog/screening-compounds/compound-8016-2378/

> <MFCDNUMBER>
MFCD05854943

> <CLNUMBER>
CL2888

> <STEREO>
RACEMIC MIXTURE

> <State>
Solid

> <Similarity score>
0.19

$$$$
N-(6-tert-butyl-3-cyano-4,5,6,7-tetrahydro-1-benzothiophen-2-yl)-2-(4-nitropheno
  -OEChem-04222410502D

 30 32  0     0  0  0  0  0  0999 V2000
    1.2042    0.1439    0.0000 C   0  0  0  0  0  0  0  0  0  0  0  0
    1.5751   -0.7896    0.0000 C   0  0  0  0  0  0  0  0  0  0  0  0
    2.8045    0.3439    0.0000 C   0  0  0  0  0  0  0  0  0  0  0  0
    2.6545   -0.6021    0.0000 C   0  0  0  0  0  0  0  0  0  0  0  0
    1.9170    0.8190    0.0000 S   0  0  0  0  0  0  0  0  0  0  0  0
    0.1792    0.3478    0.0000 N   0  0  0  0  0  0  0  0  0  0  0  0
   -5.6839    1.5812    0.0000 N   0  3  0  0  0  0  0  0  0  0  0  0
   -0.4834   -0.3938    0.0000 C   0  0  0  0  0  0  0  0  0  0  0  0
    1.1626   -1.6440    0.0000 C   0  0  0  0  0  0  0  0  0  0  0  0
    3.7628    0.7313    0.0000 C   0  0  0  0  0  0  0  0  0  0  0  0
    0.7294   -2.5316    0.0000 N   0  0  0  0  0  0  0  0  0  0  0  0
    3.4421   -1.2520    0.0000 C   0  0  0  0  0  0  0  0  0  0  0  0
   -4.7088    1.3729    0.0000 C   0  0  0  0  0  0  0  0  0  0  0  0
    4.5046    0.1106    0.0000 C   0  0  3  0  0  0  0  0  0  0  0  0
   -5.9965    2.5316    0.0000 O   0  5  0  0  0  0  0  0  0  0  0  0
   -1.4627   -0.1814    0.0000 C   0  0  3  0  0  0  0  0  0  0  0  0
   -6.3423    0.8356    0.0000 O   0  0  0  0  0  0  0  0  0  0  0  0
   -1.7628    0.7607    0.0000 O   0  0  0  0  0  0  0  0  0  0  0  0
    5.4298    0.4731    0.0000 C   0  0  0  0  0  0  0  0  0  0  0  0
   -0.1625   -1.3396    0.0000 O   0  0  0  0  0  0  0  0  0  0  0  0
    4.3921   -0.8689    0.0000 C   0  0  0  0  0  0  0  0  0  0  0  0
   -4.3921    0.4313    0.0000 C   0  0  0  0  0  0  0  0  0  0  0  0
   -4.0337    2.1233    0.0000 C   0  0  0  0  0  0  0  0  0  0  0  0
   -2.7460    0.9690    0.0000 C   0  0  0  0  0  0  0  0  0  0  0  0
   -3.0586    1.9189    0.0000 C   0  0  0  0  0  0  0  0  0  0  0  0
   -3.4086    0.2230    0.0000 C   0  0  0  0  0  0  0  0  0  0  0  0
    5.0671    1.3937    0.0000 C   0  0  0  0  0  0  0  0  0  0  0  0
    5.7923   -0.4398    0.0000 C   0  0  0  0  0  0  0  0  0  0  0  0
    6.3423    0.8356    0.0000 C   0  0  0  0  0  0  0  0  0  0  0  0
   -2.1378   -0.9313    0.0000 C   0  0  0  0  0  0  0  0  0  0  0  0
  1  2  2  0  0  0  0
  3  5  1  0  0  0  0
  3  4  2  0  0  0  0
  2  4  1  0  0  0  0
  1  5  1  0  0  0  0
  1  6  1  0  0  0  0
  7 13  1  0  0  0  0
  6  8  1  0  0  0  0
  2  9  1  0  0  0  0
  3 10  1  0  0  0  0
  9 11  3  0  0  0  0
  4 12  1  0  0  0  0
 13 22  1  0  0  0  0
 10 14  1  0  0  0  0
 14 21  1  0  0  0  0
  7 15  1  0  0  0  0
  8 16  1  0  0  0  0
  7 17  2  0  0  0  0
 16 18  1  0  0  0  0
 14 19  1  0  0  0  0
  8 20  2  0  0  0  0
 12 21  1  0  0  0  0
 22 26  2  0  0  0  0
 23 25  1  0  0  0  0
 13 23  2  0  0  0  0
 18 24  1  0  0  0  0
 24 25  2  0  0  0  0
 24 26  1  0  0  0  0
 19 27  1  0  0  0  0
 19 28  1  0  0  0  0
 19 29  1  0  0  0  0
 16 30  1  0  0  0  0
M  CHG  2   7   1  15  -1
M  END
> <IDNUMBER>
Y509-2635

> <available>
65

> <H_acceptor>
8

> <H_donor>
1

> <B_rotN>
8

> <N_O>
7

> <logP>
5.4863

> <logD>
4.0683

> <logSw>
-5.3745

> <PSA>
80.271

> <pKa_ma>
5.9989

> <pKa_mb>
-4.9316

> <N_Chirals>
2

> <Name>
N-(6-tert-butyl-3-cyano-4,5,6,7-tetrahydro-1-benzothiophen-2-yl)-2-(4-nitrophenoxy)propanamide

> <Smile>
c1(c(c2c(s1)CC(C(C)(C)C)CC2)C#N)NC(C(Oc1ccc([N+]([O-])=O)cc1)C)=O

> <Color>
ORANGE

> <Collection>
DC

> <InChI>
InChI=1S/C22H25N3O4S/c1-13(29-16-8-6-15(7-9-16)25(27)28)20(26)24-21-18(12-23)17-10-5-14(22(2,3)4)11-19(17)30-21/h6-9,13-14H,5,10-11H2,1-4H3,(H,24,26)

> <InChI Key>
YBSVIYLDKAMQIP-UHFFFAOYSA-N

> <PERCENTSP3>
45.5

> <Link>
https://www.chemdiv.com/catalog/screening-compounds/compound-Y509-2635/

> <MFCDNUMBER>
MFCD08557995

> <STEREO>
MIXTURE OF STEREOISOMERS

> <State>
Solid

> <Similarity score>
0.19

$$$$
4-[3-(4-chlorophenyl)-1,2,4-oxadiazol-5-yl]-N-(3-cyano-4,5,6,7-tetrahydro-1-benz
  -OEChem-04222410502D

 29 32  0     0  0  0  0  0  0999 V2000
    2.7760    2.0576    0.0000 C   0  0  0  0  0  0  0  0  0  0  0  0
    2.9926    1.0663    0.0000 C   0  0  0  0  0  0  0  0  0  0  0  0
   -1.3182   -0.9327    0.0000 N   0  0  0  0  0  0  0  0  0  0  0  0
    3.6298    2.5447    0.0000 S   0  0  0  0  0  0  0  0  0  0  0  0
    3.9671    0.9705    0.0000 C   0  0  0  0  0  0  0  0  0  0  0  0
   -1.9346   -1.7201    0.0000 C   0  0  0  0  0  0  0  0  0  0  0  0
    4.3794    1.8909    0.0000 C   0  0  0  0  0  0  0  0  0  0  0  0
   -1.3683   -2.5447    0.0000 N   0  0  0  0  0  0  0  0  0  0  0  0
    1.8556    2.4575    0.0000 N   0  0  0  0  0  0  0  0  0  0  0  0
    2.3136    0.3081    0.0000 C   0  0  0  0  0  0  0  0  0  0  0  0
   -0.3812   -1.2578    0.0000 C   0  0  0  0  0  0  0  0  0  0  0  0
   -0.4062   -2.2699    0.0000 O   0  0  0  0  0  0  0  0  0  0  0  0
    1.6555   -0.4331    0.0000 N   0  0  0  0  0  0  0  0  0  0  0  0
    1.0559    1.8784    0.0000 C   0  0  0  0  0  0  0  0  0  0  0  0
   -2.9466   -1.6952    0.0000 C   0  0  0  0  0  0  0  0  0  0  0  0
    0.1645    2.2699    0.0000 O   0  0  0  0  0  0  0  0  0  0  0  0
   -3.4672   -2.5447    0.0000 C   0  0  0  0  0  0  0  0  0  0  0  0
   -3.4298   -0.8081    0.0000 C   0  0  0  0  0  0  0  0  0  0  0  0
   -4.9542   -1.6408    0.0000 C   0  0  0  0  0  0  0  0  0  0  0  0
    4.5419    0.1541    0.0000 C   0  0  0  0  0  0  0  0  0  0  0  0
   -4.4420   -0.7911    0.0000 C   0  0  0  0  0  0  0  0  0  0  0  0
   -4.4794   -2.5323    0.0000 C   0  0  0  0  0  0  0  0  0  0  0  0
    5.3749    1.9826    0.0000 C   0  0  0  0  0  0  0  0  0  0  0  0
   -5.9539   -1.5951    0.0000 Cl  0  0  0  0  0  0  0  0  0  0  0  0
    0.4395   -0.6787    0.0000 C   0  0  0  0  0  0  0  0  0  0  0  0
    1.1640    0.9082    0.0000 C   0  0  0  0  0  0  0  0  0  0  0  0
    0.3436    0.3208    0.0000 C   0  0  0  0  0  0  0  0  0  0  0  0
    5.5416    0.2582    0.0000 C   0  0  0  0  0  0  0  0  0  0  0  0
    5.9539    1.1662    0.0000 C   0  0  0  0  0  0  0  0  0  0  0  0
  1  2  2  0  0  0  0
  3 11  2  0  0  0  0
  1  4  1  0  0  0  0
  2  5  1  0  0  0  0
  3  6  1  0  0  0  0
  4  7  1  0  0  0  0
  5  7  2  0  0  0  0
  8 12  1  0  0  0  0
  6  8  2  0  0  0  0
  1  9  1  0  0  0  0
  2 10  1  0  0  0  0
 11 25  1  0  0  0  0
 11 12  1  0  0  0  0
 10 13  3  0  0  0  0
  9 14  1  0  0  0  0
  6 15  1  0  0  0  0
 14 16  2  0  0  0  0
 15 17  2  0  0  0  0
 15 18  1  0  0  0  0
 19 21  1  0  0  0  0
  5 20  1  0  0  0  0
 18 21  2  0  0  0  0
 17 22  1  0  0  0  0
 19 22  2  0  0  0  0
  7 23  1  0  0  0  0
 19 24  1  0  0  0  0
 25 27  1  0  0  0  0
 14 26  1  0  0  0  0
 26 27  1  0  0  0  0
 20 28  1  0  0  0  0
 23 29  1  0  0  0  0
 28 29  1  0  0  0  0
M  END
> <IDNUMBER>
D321-0411

> <available>
131

> <H_acceptor>
6

> <H_donor>
1

> <B_rotN>
8

> <N_O>
6

> <logP>
5.0449

> <logD>
3.7317

> <logSw>
-5.5402

> <PSA>
71.23

> <pKa_ma>
6.1085

> <pKa_mb>
-3.8515

> <N_Chirals>
0

> <Name>
4-[3-(4-chlorophenyl)-1,2,4-oxadiazol-5-yl]-N-(3-cyano-4,5,6,7-tetrahydro-1-benzothiophen-2-yl)butanamide

> <Smile>
N#Cc1c(NC(CCCc2nc(-c(cc3)ccc3Cl)no2)=O)sc2c1CCCC2

> <Color>
NOT COLORED

> <Collection>
DC

> <InChI>
InChI=1S/C21H19ClN4O2S/c22-14-10-8-13(9-11-14)20-25-19(28-26-20)7-3-6-18(27)24-21-16(12-23)15-4-1-2-5-17(15)29-21/h8-11H,1-7H2,(H,24,27)

> <InChI Key>
RLKNCKNRMYVAGU-UHFFFAOYSA-N

> <PERCENTSP3>
33.3

> <Link>
https://www.chemdiv.com/catalog/screening-compounds/compound-D321-0411/

> <MFCDNUMBER>
MFCD14819087

> <CLNUMBER>
CL5000

> <STEREO>
ACHIRAL

> <State>
Solid

> <Similarity score>
0.19

$$$$
N-(6-tert-butyl-3-cyano-4,5,6,7-tetrahydro-1-benzothiophen-2-yl)-5-cyclopropyl-1
  -OEChem-04222410502D

 26 29  0     0  0  0  0  0  0999 V2000
    0.0234   -0.6624    0.0000 C   0  0  0  0  0  0  0  0  0  0  0  0
   -0.7829   -1.2186    0.0000 C   0  0  0  0  0  0  0  0  0  0  0  0
    0.5024   -2.2002    0.0000 C   0  0  0  0  0  0  0  0  0  0  0  0
   -0.5046   -2.1813    0.0000 C   0  0  0  0  0  0  0  0  0  0  0  0
    0.8388    2.6419    0.0000 C   0  0  0  0  0  0  0  0  0  0  0  0
    0.8249   -1.2629    0.0000 S   0  0  0  0  0  0  0  0  0  0  0  0
    0.0983    3.1865    0.0000 N   0  0  0  0  0  0  0  0  0  0  0  0
    0.0234    0.3494    0.0000 N   0  0  0  0  0  0  0  0  0  0  0  0
    1.5938    3.1654    0.0000 C   0  0  0  0  0  0  0  0  0  0  0  0
    0.8856    0.8494    0.0000 C   0  0  0  0  0  0  0  0  0  0  0  0
    1.3226    4.0462    0.0000 C   0  0  0  0  0  0  0  0  0  0  0  0
    0.4020    4.0462    0.0000 O   0  0  0  0  0  0  0  0  0  0  0  0
    1.8462    4.8012    0.0000 C   0  0  0  0  0  0  0  0  0  0  0  0
   -1.7244   -0.8892    0.0000 C   0  0  0  0  0  0  0  0  0  0  0  0
    0.9746   -3.0764    0.0000 C   0  0  0  0  0  0  0  0  0  0  0  0
   -2.6757   -0.5550    0.0000 N   0  0  0  0  0  0  0  0  0  0  0  0
    1.9114    5.7195    0.0000 C   0  0  0  0  0  0  0  0  0  0  0  0
    2.6757    5.1937    0.0000 C   0  0  0  0  0  0  0  0  0  0  0  0
   -1.0190   -3.0274    0.0000 C   0  0  0  0  0  0  0  0  0  0  0  0
    0.4463   -3.9318    0.0000 C   0  0  3  0  0  0  0  0  0  0  0  0
    0.9255   -4.8244    0.0000 C   0  0  0  0  0  0  0  0  0  0  0  0
    1.6708    0.3657    0.0000 O   0  0  0  0  0  0  0  0  0  0  0  0
   -0.5398   -3.9013    0.0000 C   0  0  0  0  0  0  0  0  0  0  0  0
    0.0234   -5.2918    0.0000 C   0  0  0  0  0  0  0  0  0  0  0  0
    1.8160   -4.3617    0.0000 C   0  0  0  0  0  0  0  0  0  0  0  0
    1.3834   -5.7195    0.0000 C   0  0  0  0  0  0  0  0  0  0  0  0
  1  2  2  0  0  0  0
  3  6  1  0  0  0  0
  3  4  2  0  0  0  0
  2  4  1  0  0  0  0
  5 10  1  0  0  0  0
  1  6  1  0  0  0  0
  5  7  2  0  0  0  0
  1  8  1  0  0  0  0
  5  9  1  0  0  0  0
  8 10  1  0  0  0  0
  9 11  2  0  0  0  0
 11 12  1  0  0  0  0
  7 12  1  0  0  0  0
 11 13  1  0  0  0  0
  2 14  1  0  0  0  0
  3 15  1  0  0  0  0
 14 16  3  0  0  0  0
 13 17  1  0  0  0  0
 13 18  1  0  0  0  0
 17 18  1  0  0  0  0
  4 19  1  0  0  0  0
 15 20  1  0  0  0  0
 20 21  1  0  0  0  0
 10 22  2  0  0  0  0
 19 23  1  0  0  0  0
 20 23  1  0  0  0  0
 21 24  1  0  0  0  0
 21 25  1  0  0  0  0
 21 26  1  0  0  0  0
M  END
> <IDNUMBER>
C226-2721

> <available>
38

> <H_acceptor>
5

> <H_donor>
1

> <B_rotN>
6

> <N_O>
5

> <logP>
5.257

> <logD>
3.5866

> <logSw>
-5.1111

> <PSA>
62.159

> <pKa_ma>
5.739

> <pKa_mb>
-6.3564

> <N_Chirals>
1

> <Name>
N-(6-tert-butyl-3-cyano-4,5,6,7-tetrahydro-1-benzothiophen-2-yl)-5-cyclopropyl-1,2-oxazole-3-carboxamide

> <Smile>
CC(C)(C)C(CC1)Cc2c1c(C#N)c(NC(c1noc(C3CC3)c1)=O)s2

> <Color>
ORANGE

> <Collection>
DC

> <InChI>
InChI=1S/C20H23N3O2S/c1-20(2,3)12-6-7-13-14(10-21)19(26-17(13)8-12)22-18(24)15-9-16(25-23-15)11-4-5-11/h9,11-12H,4-8H2,1-3H3,(H,22,24)/t12-/m1/s1

> <InChI Key>
QHKHYYOCRLMJAA-GFCCVEGCSA-N

> <PERCENTSP3>
55

> <Link>
https://www.chemdiv.com/catalog/screening-compounds/compound-C226-2721/

> <MFCDNUMBER>
MFCD14733161

> <CLNUMBER>
CL2030

> <STEREO>
RACEMIC MIXTURE

> <State>
Solid

> <Similarity score>
0.19

$$$$
2-{[4-(difluoromethyl)-6-(3,4-dimethoxyphenyl)pyrimidin-2-yl]amino}-4,5,6,7-tetr
  -OEChem-04222410502D

 31 34  0     0  0  0  0  0  0999 V2000
    2.2087    0.0042    0.0000 C   0  0  0  0  0  0  0  0  0  0  0  0
    1.7962   -0.9210    0.0000 C   0  0  0  0  0  0  0  0  0  0  0  0
    0.7085    0.8668    0.0000 C   0  0  0  0  0  0  0  0  0  0  0  0
    3.2089   -0.0959    0.0000 S   0  0  0  0  0  0  0  0  0  0  0  0
    1.7086    0.8668    0.0000 N   0  0  0  0  0  0  0  0  0  0  0  0
    2.5462   -1.5793    0.0000 C   0  0  0  0  0  0  0  0  0  0  0  0
    3.4171   -1.0960    0.0000 C   0  0  0  0  0  0  0  0  0  0  0  0
    0.2084    0.0042    0.0000 N   0  0  0  0  0  0  0  0  0  0  0  0
    0.2168    1.7294    0.0000 N   0  0  0  0  0  0  0  0  0  0  0  0
   -0.7918    0.0042    0.0000 C   0  0  0  0  0  0  0  0  0  0  0  0
   -0.7833    1.7336    0.0000 C   0  0  0  0  0  0  0  0  0  0  0  0
    0.8418   -1.1461    0.0000 C   0  0  0  0  0  0  0  0  0  0  0  0
   -1.2919    0.8709    0.0000 C   0  0  0  0  0  0  0  0  0  0  0  0
   -0.1167   -1.3711    0.0000 N   0  0  0  0  0  0  0  0  0  0  0  0
   -1.2919   -0.8585    0.0000 C   0  0  0  0  0  0  0  0  0  0  0  0
   -2.2920   -0.8585    0.0000 C   0  0  0  0  0  0  0  0  0  0  0  0
   -2.7920   -1.7294    0.0000 C   0  0  0  0  0  0  0  0  0  0  0  0
   -1.2837    2.5962    0.0000 C   0  0  0  0  0  0  0  0  0  0  0  0
   -2.2920   -2.5962    0.0000 C   0  0  0  0  0  0  0  0  0  0  0  0
   -0.7918   -1.7294    0.0000 C   0  0  0  0  0  0  0  0  0  0  0  0
   -1.2919   -2.5962    0.0000 C   0  0  0  0  0  0  0  0  0  0  0  0
   -0.7709    3.4589    0.0000 F   0  0  0  0  0  0  0  0  0  0  0  0
   -2.2836    2.6046    0.0000 F   0  0  0  0  0  0  0  0  0  0  0  0
    2.5295   -2.5588    0.0000 C   0  0  0  0  0  0  0  0  0  0  0  0
   -3.7921   -1.7294    0.0000 O   0  0  0  0  0  0  0  0  0  0  0  0
    4.2923   -1.5920    0.0000 C   0  0  0  0  0  0  0  0  0  0  0  0
   -2.7920   -3.4589    0.0000 O   0  0  0  0  0  0  0  0  0  0  0  0
   -4.2923   -0.8585    0.0000 C   0  0  0  0  0  0  0  0  0  0  0  0
   -3.7921   -3.4589    0.0000 C   0  0  0  0  0  0  0  0  0  0  0  0
    3.3963   -3.0838    0.0000 C   0  0  0  0  0  0  0  0  0  0  0  0
    4.2674   -2.5962    0.0000 C   0  0  0  0  0  0  0  0  0  0  0  0
  1  2  2  0  0  0  0
  3  5  1  0  0  0  0
  1  4  1  0  0  0  0
  1  5  1  0  0  0  0
  2  6  1  0  0  0  0
  4  7  1  0  0  0  0
  6  7  2  0  0  0  0
  3  8  1  0  0  0  0
  3  9  2  0  0  0  0
  8 10  2  0  0  0  0
 10 13  1  0  0  0  0
  9 11  1  0  0  0  0
  2 12  1  0  0  0  0
 11 13  2  0  0  0  0
 12 14  3  0  0  0  0
 10 15  1  0  0  0  0
 15 16  1  0  0  0  0
 16 17  2  0  0  0  0
 11 18  1  0  0  0  0
 19 21  2  0  0  0  0
 17 19  1  0  0  0  0
 15 20  2  0  0  0  0
 20 21  1  0  0  0  0
 18 22  1  0  0  0  0
 18 23  1  0  0  0  0
  6 24  1  0  0  0  0
 17 25  1  0  0  0  0
  7 26  1  0  0  0  0
 19 27  1  0  0  0  0
 25 28  1  0  0  0  0
 27 29  1  0  0  0  0
 24 30  1  0  0  0  0
 26 31  1  0  0  0  0
 30 31  1  0  0  0  0
M  END
> <IDNUMBER>
Y505-1727

> <available>
21

> <H_acceptor>
5

> <H_donor>
1

> <B_rotN>
7

> <N_O>
6

> <logP>
5.304

> <logD>
5.2988

> <logSw>
-5.4523

> <PSA>
60.617

> <pKa_ma>
11.8181

> <pKa_mb>
5.4812

> <N_Chirals>
0

> <Name>
2-{[4-(difluoromethyl)-6-(3,4-dimethoxyphenyl)pyrimidin-2-yl]amino}-4,5,6,7-tetrahydro-1-benzothiophene-3-carbonitrile

> <Smile>
COc(ccc(-c1cc(C(F)F)nc(Nc(sc2c3CCCC2)c3C#N)n1)c1)c1OC

> <Color>
BROWN

> <Collection>
DC

> <InChI>
InChI=1S/C22H20F2N4O2S/c1-29-17-8-7-12(9-18(17)30-2)15-10-16(20(23)24)27-22(26-15)28-21-14(11-25)13-5-3-4-6-19(13)31-21/h7-10,20H,3-6H2,1-2H3,(H,26,27,28)

> <InChI Key>
SFFNXGXGTBBPOK-UHFFFAOYSA-N

> <PERCENTSP3>
31.8

> <Link>
https://www.chemdiv.com/catalog/screening-compounds/compound-Y505-1727/

> <MFCDNUMBER>
MFCD10700556

> <STEREO>
ACHIRAL

> <State>
Solid

> <Similarity score>
0.19

$$$$
2-[(6-amino-4-oxo-1,4-dihydropyrimidin-2-yl)sulfanyl]-N-(3-cyano-4,5,6,7-tetrahy
  -OEChem-04222410502D

 24 26  0     0  0  0  0  0  0999 V2000
   -0.3565   -1.3930    0.0000 C   0  0  0  0  0  0  0  0  0  0  0  0
   -1.1573   -2.0186    0.0000 C   0  0  0  0  0  0  0  0  0  0  0  0
    0.4191    3.1154    0.0000 N   0  0  0  0  0  0  0  0  0  0  0  0
    1.3075    2.6107    0.0000 C   0  0  0  0  0  0  0  0  0  0  0  0
    0.4442   -1.8892    0.0000 S   0  0  0  0  0  0  0  0  0  0  0  0
    2.1790    3.0736    0.0000 N   0  0  0  0  0  0  0  0  0  0  0  0
   -0.7568   -2.9069    0.0000 C   0  0  0  0  0  0  0  0  0  0  0  0
    0.1939   -2.8818    0.0000 C   0  0  0  0  0  0  0  0  0  0  0  0
    2.1790    4.1080    0.0000 C   0  0  0  0  0  0  0  0  0  0  0  0
    0.4191    4.1289    0.0000 C   0  0  0  0  0  0  0  0  0  0  0  0
    1.2824    4.5959    0.0000 C   0  0  0  0  0  0  0  0  0  0  0  0
   -0.3983   -0.3545    0.0000 N   0  0  0  0  0  0  0  0  0  0  0  0
   -2.1082   -1.7766    0.0000 C   0  0  0  0  0  0  0  0  0  0  0  0
   -3.1342   -1.5306    0.0000 N   0  0  0  0  0  0  0  0  0  0  0  0
    0.4442    0.1835    0.0000 C   0  0  0  0  0  0  0  0  0  0  0  0
    1.3075    1.5847    0.0000 S   0  0  0  0  0  0  0  0  0  0  0  0
   -0.4233    4.6418    0.0000 O   0  0  0  0  0  0  0  0  0  0  0  0
    1.3075   -0.3921    0.0000 O   0  0  0  0  0  0  0  0  0  0  0  0
    3.1342    4.6209    0.0000 N   0  0  0  0  0  0  0  0  0  0  0  0
    0.4442    1.1219    0.0000 C   0  0  0  0  0  0  0  0  0  0  0  0
   -1.1990   -3.7952    0.0000 C   0  0  0  0  0  0  0  0  0  0  0  0
    0.7319   -3.6658    0.0000 C   0  0  0  0  0  0  0  0  0  0  0  0
   -0.6694   -4.6418    0.0000 C   0  0  0  0  0  0  0  0  0  0  0  0
    0.3066   -4.5542    0.0000 C   0  0  0  0  0  0  0  0  0  0  0  0
  1  2  2  0  0  0  0
  3  4  2  0  0  0  0
  4 16  1  0  0  0  0
  1  5  1  0  0  0  0
  4  6  1  0  0  0  0
  2  7  1  0  0  0  0
  5  8  1  0  0  0  0
  7  8  2  0  0  0  0
  6  9  1  0  0  0  0
  3 10  1  0  0  0  0
 10 11  1  0  0  0  0
  9 11  2  0  0  0  0
  1 12  1  0  0  0  0
  2 13  1  0  0  0  0
 13 14  3  0  0  0  0
 12 15  1  0  0  0  0
 16 20  1  0  0  0  0
 10 17  2  0  0  0  0
 15 18  2  0  0  0  0
  9 19  1  0  0  0  0
 15 20  1  0  0  0  0
  7 21  1  0  0  0  0
  8 22  1  0  0  0  0
 21 23  1  0  0  0  0
 22 24  1  0  0  0  0
 23 24  1  0  0  0  0
M  END
> <IDNUMBER>
Y511-6721

> <available>
50

> <H_acceptor>
7

> <H_donor>
4

> <B_rotN>
6

> <N_O>
7

> <logP>
1.082

> <logD>
0.2234

> <logSw>
-1.974

> <PSA>
94.6

> <pKa_ma>
6.606

> <pKa_mb>
0.4058

> <N_Chirals>
0

> <Name>
2-[(6-amino-4-oxo-1,4-dihydropyrimidin-2-yl)sulfanyl]-N-(3-cyano-4,5,6,7-tetrahydro-1-benzothiophen-2-yl)acetamide

> <Smile>
c1(c(c2c(s1)CCCC2)C#N)NC(=O)CS/C/1=N/C(/C=C(\N1)/N)=O

> <Color>
ORANGE

> <Collection>
DC

> <InChI>
InChI=1S/C15H15N5O2S2/c16-6-9-8-3-1-2-4-10(8)24-14(9)19-13(22)7-23-15-18-11(17)5-12(21)20-15/h5H,1-4,7H2,(H,19,22)(H3,17,18,20,21)

> <InChI Key>
XCMFUQYVTWLQHZ-UHFFFAOYSA-N

> <PERCENTSP3>
33.3

> <Link>
https://www.chemdiv.com/catalog/screening-compounds/compound-Y511-6721/

> <MFCDNUMBER>
MFCD02873604

> <STEREO>
ACHIRAL

> <State>
Solid

> <Similarity score>
0.19

$$$$
N-(6-tert-butyl-3-cyano-4,5,6,7-tetrahydro-1-benzothiophen-2-yl)-2-(2-chloro-5-m
  -OEChem-04222410502D

 29 31  0     0  0  0  0  0  0999 V2000
    1.0395    0.1021    0.0000 C   0  0  0  0  0  0  0  0  0  0  0  0
    1.8477    0.7605    0.0000 C   0  0  0  0  0  0  0  0  0  0  0  0
    2.4185   -0.7851    0.0000 C   0  0  0  0  0  0  0  0  0  0  0  0
    2.6851    0.1647    0.0000 C   0  0  0  0  0  0  0  0  0  0  0  0
    1.4061   -0.8229    0.0000 S   0  0  0  0  0  0  0  0  0  0  0  0
    0.1021    0.3563    0.0000 N   0  0  0  0  0  0  0  0  0  0  0  0
   -0.5935   -0.3687    0.0000 C   0  0  0  0  0  0  0  0  0  0  0  0
    1.8351    1.7477    0.0000 C   0  0  0  0  0  0  0  0  0  0  0  0
   -3.2017   -0.6187    0.0000 C   0  0  0  0  0  0  0  0  0  0  0  0
    3.0893   -1.5061    0.0000 C   0  0  0  0  0  0  0  0  0  0  0  0
   -2.2269   -0.8353    0.0000 O   0  0  0  0  0  0  0  0  0  0  0  0
    1.8227    2.7351    0.0000 N   0  0  0  0  0  0  0  0  0  0  0  0
    3.6475    0.4063    0.0000 C   0  0  0  0  0  0  0  0  0  0  0  0
    4.0641   -1.2519    0.0000 C   0  0  3  0  0  0  0  0  0  0  0  0
   -1.5685   -0.1021    0.0000 C   0  0  3  0  0  0  0  0  0  0  0  0
    4.7725   -2.0019    0.0000 C   0  0  0  0  0  0  0  0  0  0  0  0
   -3.4935    0.2895    0.0000 C   0  0  0  0  0  0  0  0  0  0  0  0
   -0.3271   -1.2895    0.0000 O   0  0  0  0  0  0  0  0  0  0  0  0
   -3.8351   -1.3561    0.0000 C   0  0  0  0  0  0  0  0  0  0  0  0
    4.3433   -0.2895    0.0000 C   0  0  0  0  0  0  0  0  0  0  0  0
   -4.4683    0.4937    0.0000 C   0  0  0  0  0  0  0  0  0  0  0  0
   -4.8347   -1.1643    0.0000 C   0  0  0  0  0  0  0  0  0  0  0  0
   -2.8225    1.0645    0.0000 Cl  0  0  0  0  0  0  0  0  0  0  0  0
   -5.1515   -0.2395    0.0000 C   0  0  0  0  0  0  0  0  0  0  0  0
    5.5181   -1.2895    0.0000 C   0  0  0  0  0  0  0  0  0  0  0  0
    4.0517   -2.7225    0.0000 C   0  0  0  0  0  0  0  0  0  0  0  0
    5.4807   -2.7351    0.0000 C   0  0  0  0  0  0  0  0  0  0  0  0
   -1.8603    0.8479    0.0000 C   0  0  0  0  0  0  0  0  0  0  0  0
   -5.5181   -1.9225    0.0000 C   0  0  0  0  0  0  0  0  0  0  0  0
  1  2  2  0  0  0  0
  3  5  1  0  0  0  0
  2  4  1  0  0  0  0
  3  4  2  0  0  0  0
  1  5  1  0  0  0  0
  1  6  1  0  0  0  0
  6  7  1  0  0  0  0
  2  8  1  0  0  0  0
  9 11  1  0  0  0  0
  3 10  1  0  0  0  0
 11 15  1  0  0  0  0
  8 12  3  0  0  0  0
  4 13  1  0  0  0  0
 10 14  1  0  0  0  0
 14 20  1  0  0  0  0
  7 15  1  0  0  0  0
 14 16  1  0  0  0  0
  9 17  1  0  0  0  0
  7 18  2  0  0  0  0
  9 19  2  0  0  0  0
 13 20  1  0  0  0  0
 17 21  2  0  0  0  0
 19 22  1  0  0  0  0
 17 23  1  0  0  0  0
 22 24  2  0  0  0  0
 21 24  1  0  0  0  0
 16 25  1  0  0  0  0
 16 26  1  0  0  0  0
 16 27  1  0  0  0  0
 15 28  1  0  0  0  0
 22 29  1  0  0  0  0
M  END
> <IDNUMBER>
Y203-0090

> <available>
19

> <H_acceptor>
4

> <H_donor>
1

> <B_rotN>
7

> <N_O>
4

> <logP>
6.7006

> <logD>
5.2827

> <logSw>
-6.5245

> <PSA>
46.977

> <pKa_ma>
5.9989

> <pKa_mb>
-5.485

> <N_Chirals>
2

> <Name>
N-(6-tert-butyl-3-cyano-4,5,6,7-tetrahydro-1-benzothiophen-2-yl)-2-(2-chloro-5-methylphenoxy)propanamide

> <Smile>
CC(C(Nc(sc(C1)c2CCC1C(C)(C)C)c2C#N)=O)Oc(cc(C)cc1)c1Cl

> <Color>
NOT COLORED

> <Collection>
DC

> <InChI>
InChI=1S/C23H27ClN2O2S/c1-13-6-9-18(24)19(10-13)28-14(2)21(27)26-22-17(12-25)16-8-7-15(23(3,4)5)11-20(16)29-22/h6,9-10,14-15H,7-8,11H2,1-5H3,(H,26,27)

> <InChI Key>
MCSNZOBIVIMKIB-UHFFFAOYSA-N

> <PERCENTSP3>
47.83

> <Link>
https://www.chemdiv.com/catalog/screening-compounds/compound-Y203-0090/

> <MFCDNUMBER>
MFCD03944493

> <STEREO>
MIXTURE OF STEREOISOMERS

> <State>
Solid

> <Similarity score>
0.19

$$$$
N-(3-cyano-6-methyl-4,5,6,7-tetrahydro-1-benzothiophen-2-yl)-6-(furan-2-yl)-3-ph
  -OEChem-04222410502D

 35 40  0     0  0  0  0  0  0999 V2000
    0.7980   -1.0812    0.0000 C   0  0  0  0  0  0  0  0  0  0  0  0
    1.1228   -2.0438    0.0000 C   0  0  0  0  0  0  0  0  0  0  0  0
   -1.5062    1.4936    0.0000 C   0  0  0  0  0  0  0  0  0  0  0  0
   -2.4602    1.8021    0.0000 C   0  0  0  0  0  0  0  0  0  0  0  0
   -1.3060    0.5147    0.0000 C   0  0  0  0  0  0  0  0  0  0  0  0
    2.1145   -2.0311    0.0000 C   0  0  0  0  0  0  0  0  0  0  0  0
    2.4353   -1.0853    0.0000 C   0  0  0  0  0  0  0  0  0  0  0  0
    1.6145   -0.4896    0.0000 S   0  0  0  0  0  0  0  0  0  0  0  0
   -1.5144    3.1061    0.0000 N   0  0  0  0  0  0  0  0  0  0  0  0
   -0.9229    2.3020    0.0000 C   0  0  0  0  0  0  0  0  0  0  0  0
   -0.1479   -0.7728    0.0000 N   0  0  0  0  0  0  0  0  0  0  0  0
   -0.3520    0.2022    0.0000 C   0  0  0  0  0  0  0  0  0  0  0  0
   -3.2103    1.1311    0.0000 N   0  0  0  0  0  0  0  0  0  0  0  0
   -2.4602    2.7978    0.0000 O   0  0  0  0  0  0  0  0  0  0  0  0
   -2.9978    0.1520    0.0000 C   0  0  0  0  0  0  0  0  0  0  0  0
   -2.0395   -0.1561    0.0000 C   0  0  0  0  0  0  0  0  0  0  0  0
    0.5645   -2.8603    0.0000 C   0  0  0  0  0  0  0  0  0  0  0  0
   -3.7394   -0.5061    0.0000 C   0  0  0  0  0  0  0  0  0  0  0  0
    0.0021   -3.6686    0.0000 N   0  0  0  0  0  0  0  0  0  0  0  0
    2.7603   -2.7685    0.0000 C   0  0  0  0  0  0  0  0  0  0  0  0
    3.4187   -0.8645    0.0000 C   0  0  0  0  0  0  0  0  0  0  0  0
   -3.4310   -1.4603    0.0000 O   0  0  0  0  0  0  0  0  0  0  0  0
    0.3937    0.8773    0.0000 O   0  0  0  0  0  0  0  0  0  0  0  0
    0.0564    2.5104    0.0000 C   0  0  0  0  0  0  0  0  0  0  0  0
   -4.7433   -0.5147    0.0000 C   0  0  0  0  0  0  0  0  0  0  0  0
   -4.2435   -2.0562    0.0000 C   0  0  0  0  0  0  0  0  0  0  0  0
   -5.0518   -1.4646    0.0000 C   0  0  0  0  0  0  0  0  0  0  0  0
    3.7603   -2.5769    0.0000 C   0  0  0  0  0  0  0  0  0  0  0  0
    4.0811   -1.6268    0.0000 C   0  0  3  0  0  0  0  0  0  0  0  0
    0.7188    1.7647    0.0000 C   0  0  0  0  0  0  0  0  0  0  0  0
    0.3647    3.4602    0.0000 C   0  0  0  0  0  0  0  0  0  0  0  0
    5.0518   -1.4646    0.0000 C   0  0  0  0  0  0  0  0  0  0  0  0
    1.3354    3.6686    0.0000 C   0  0  0  0  0  0  0  0  0  0  0  0
    1.6979    1.9770    0.0000 C   0  0  0  0  0  0  0  0  0  0  0  0
    2.0062    2.9270    0.0000 C   0  0  0  0  0  0  0  0  0  0  0  0
  1  2  2  0  0  0  0
  3  5  1  0  0  0  0
  3  4  2  0  0  0  0
  4 13  1  0  0  0  0
  5 12  1  0  0  0  0
  2  6  1  0  0  0  0
  6  7  2  0  0  0  0
  7  8  1  0  0  0  0
  1  8  1  0  0  0  0
  9 10  2  0  0  0  0
  9 14  1  0  0  0  0
  3 10  1  0  0  0  0
  1 11  1  0  0  0  0
 11 12  1  0  0  0  0
 13 15  2  0  0  0  0
  4 14  1  0  0  0  0
 15 16  1  0  0  0  0
  5 16  2  0  0  0  0
  2 17  1  0  0  0  0
 15 18  1  0  0  0  0
 17 19  3  0  0  0  0
  6 20  1  0  0  0  0
  7 21  1  0  0  0  0
 18 22  1  0  0  0  0
 12 23  2  0  0  0  0
 10 24  1  0  0  0  0
 18 25  2  0  0  0  0
 22 26  1  0  0  0  0
 26 27  2  0  0  0  0
 25 27  1  0  0  0  0
 20 28  1  0  0  0  0
 28 29  1  0  0  0  0
 21 29  1  0  0  0  0
 24 30  2  0  0  0  0
 24 31  1  0  0  0  0
 29 32  1  0  0  0  0
 31 33  2  0  0  0  0
 30 34  1  0  0  0  0
 34 35  2  0  0  0  0
 33 35  1  0  0  0  0
M  END
> <IDNUMBER>
Y501-6664

> <available>
29

> <H_acceptor>
7

> <H_donor>
1

> <B_rotN>
6

> <N_O>
7

> <logP>
5.9162

> <logD>
5.3094

> <logSw>
-5.8785

> <PSA>
79.124

> <pKa_ma>
6.9166

> <pKa_mb>
-4.0324

> <N_Chirals>
1

> <Name>
N-(3-cyano-6-methyl-4,5,6,7-tetrahydro-1-benzothiophen-2-yl)-6-(furan-2-yl)-3-phenyl[1,2]oxazolo[5,4-b]pyridine-4-carboxamide

> <Smile>
CC(CC1)Cc2c1c(C#N)c(NC(c1c(c(-c3ccccc3)no3)c3nc(-c3ccco3)c1)=O)s2

> <Color>
ORANGE

> <Collection>
DC

> <InChI>
InChI=1S/C27H20N4O3S/c1-15-9-10-17-19(14-28)27(35-22(17)12-15)30-25(32)18-13-20(21-8-5-11-33-21)29-26-23(18)24(31-34-26)16-6-3-2-4-7-16/h2-8,11,13,15H,9-10,12H2,1H3,(H,30,32)/t15-/m1/s1

> <InChI Key>
IIPXLUKWQQTBEF-OAHLLOKOSA-N

> <PERCENTSP3>
18.5

> <Link>
https://www.chemdiv.com/catalog/screening-compounds/compound-Y501-6664/

> <MFCDNUMBER>
MFCD08557383

> <CLNUMBER>
CL7490

> <STEREO>
RACEMIC MIXTURE

> <State>
Solid

> <Similarity score>
0.19

$$$$
4-[3-(4-chlorophenyl)-1,2,4-oxadiazol-5-yl]-N-(3-cyano-6-methyl-4,5,6,7-tetrahyd
  -OEChem-04222410502D

 30 33  0     0  0  0  0  0  0999 V2000
    2.2786    2.0660    0.0000 C   0  0  0  0  0  0  0  0  0  0  0  0
    2.4911    1.0662    0.0000 C   0  0  0  0  0  0  0  0  0  0  0  0
    3.4657    0.9664    0.0000 C   0  0  0  0  0  0  0  0  0  0  0  0
    3.8781    1.8912    0.0000 C   0  0  0  0  0  0  0  0  0  0  0  0
    3.1367    2.5410    0.0000 S   0  0  0  0  0  0  0  0  0  0  0  0
   -1.8203   -0.9207    0.0000 N   0  0  0  0  0  0  0  0  0  0  0  0
   -2.4327   -1.7080    0.0000 C   0  0  0  0  0  0  0  0  0  0  0  0
   -1.8620   -2.5410    0.0000 N   0  0  0  0  0  0  0  0  0  0  0  0
    1.3538    2.4659    0.0000 N   0  0  0  0  0  0  0  0  0  0  0  0
    1.8038    0.3166    0.0000 C   0  0  0  0  0  0  0  0  0  0  0  0
   -0.8831   -1.2540    0.0000 C   0  0  0  0  0  0  0  0  0  0  0  0
   -0.9080   -2.2661    0.0000 O   0  0  0  0  0  0  0  0  0  0  0  0
    1.1288   -0.4291    0.0000 N   0  0  0  0  0  0  0  0  0  0  0  0
    4.0407    0.1540    0.0000 C   0  0  0  0  0  0  0  0  0  0  0  0
    0.5540    1.8912    0.0000 C   0  0  0  0  0  0  0  0  0  0  0  0
   -3.4448   -1.6913    0.0000 C   0  0  0  0  0  0  0  0  0  0  0  0
    4.8737    1.9785    0.0000 C   0  0  0  0  0  0  0  0  0  0  0  0
   -0.3333    2.2786    0.0000 O   0  0  0  0  0  0  0  0  0  0  0  0
   -3.9614   -2.5410    0.0000 C   0  0  0  0  0  0  0  0  0  0  0  0
   -3.9322   -0.8040    0.0000 C   0  0  0  0  0  0  0  0  0  0  0  0
    5.0361    0.2415    0.0000 C   0  0  0  0  0  0  0  0  0  0  0  0
   -5.4569   -1.6287    0.0000 C   0  0  0  0  0  0  0  0  0  0  0  0
   -4.9445   -0.7833    0.0000 C   0  0  0  0  0  0  0  0  0  0  0  0
   -4.9737   -2.5203    0.0000 C   0  0  0  0  0  0  0  0  0  0  0  0
    5.4487    1.1580    0.0000 C   0  0  3  0  0  0  0  0  0  0  0  0
   -6.4400   -1.5913    0.0000 Cl  0  0  0  0  0  0  0  0  0  0  0  0
   -0.0624   -0.6708    0.0000 C   0  0  0  0  0  0  0  0  0  0  0  0
    0.6623    0.9163    0.0000 C   0  0  0  0  0  0  0  0  0  0  0  0
   -0.1582    0.3290    0.0000 C   0  0  0  0  0  0  0  0  0  0  0  0
    6.4400    1.2538    0.0000 C   0  0  0  0  0  0  0  0  0  0  0  0
  1  2  2  0  0  0  0
  2  3  1  0  0  0  0
  4  5  1  0  0  0  0
  3  4  2  0  0  0  0
  1  5  1  0  0  0  0
  6 11  2  0  0  0  0
  6  7  1  0  0  0  0
  8 12  1  0  0  0  0
  7  8  2  0  0  0  0
  1  9  1  0  0  0  0
  2 10  1  0  0  0  0
 11 27  1  0  0  0  0
 11 12  1  0  0  0  0
 10 13  3  0  0  0  0
  3 14  1  0  0  0  0
  9 15  1  0  0  0  0
  7 16  1  0  0  0  0
  4 17  1  0  0  0  0
 15 18  2  0  0  0  0
 16 19  2  0  0  0  0
 16 20  1  0  0  0  0
 14 21  1  0  0  0  0
 22 23  1  0  0  0  0
 20 23  2  0  0  0  0
 19 24  1  0  0  0  0
 22 24  2  0  0  0  0
 17 25  1  0  0  0  0
 21 25  1  0  0  0  0
 22 26  1  0  0  0  0
 27 29  1  0  0  0  0
 15 28  1  0  0  0  0
 28 29  1  0  0  0  0
 25 30  1  0  0  0  0
M  END
> <IDNUMBER>
D321-0469

> <available>
97

> <H_acceptor>
6

> <H_donor>
1

> <B_rotN>
8

> <N_O>
6

> <logP>
5.4789

> <logD>
4.1657

> <logSw>
-6.1582

> <PSA>
71.23

> <pKa_ma>
6.1085

> <pKa_mb>
-3.8515

> <N_Chirals>
1

> <Name>
4-[3-(4-chlorophenyl)-1,2,4-oxadiazol-5-yl]-N-(3-cyano-6-methyl-4,5,6,7-tetrahydro-1-benzothiophen-2-yl)butanamide

> <Smile>
CC(CC1)Cc2c1c(C#N)c(NC(CCCc1nc(-c(cc3)ccc3Cl)no1)=O)s2

> <Color>
NOT COLORED

> <Collection>
DC

> <InChI>
InChI=1S/C22H21ClN4O2S/c1-13-5-10-16-17(12-24)22(30-18(16)11-13)25-19(28)3-2-4-20-26-21(27-29-20)14-6-8-15(23)9-7-14/h6-9,13H,2-5,10-11H2,1H3,(H,25,28)/t13-/m1/s1

> <InChI Key>
WEKULDGCPFUSPF-CYBMUJFWSA-N

> <PERCENTSP3>
36.4

> <Link>
https://www.chemdiv.com/catalog/screening-compounds/compound-D321-0469/

> <MFCDNUMBER>
MFCD14819089

> <CLNUMBER>
CL5000

> <STEREO>
RACEMIC MIXTURE

> <State>
Solid

> <Similarity score>
0.19

$$$$
N-[(3-cyano-5,6-dihydro-4H-cyclopenta[b]thiophen-2-yl)carbamothioyl]-5-methyl-3-
  -OEChem-04222410502D

 28 31  0     0  0  0  0  0  0999 V2000
   -1.2568    1.3505    0.0000 C   0  0  0  0  0  0  0  0  0  0  0  0
   -1.8403    2.1715    0.0000 C   0  0  0  0  0  0  0  0  0  0  0  0
    2.7572   -0.3751    0.0000 C   0  0  0  0  0  0  0  0  0  0  0  0
    1.7485   -0.3751    0.0000 C   0  0  0  0  0  0  0  0  0  0  0  0
    4.3243   -0.7253    0.0000 N   0  0  0  0  0  0  0  0  0  0  0  0
   -1.8403    0.5459    0.0000 S   0  0  0  0  0  0  0  0  0  0  0  0
    3.4322   -1.1296    0.0000 C   0  0  0  0  0  0  0  0  0  0  0  0
   -2.7905    1.8631    0.0000 C   0  0  0  0  0  0  0  0  0  0  0  0
   -0.2564    1.3505    0.0000 N   0  0  0  0  0  0  0  0  0  0  0  0
    1.2482    0.4876    0.0000 N   0  0  0  0  0  0  0  0  0  0  0  0
    0.2355    0.4876    0.0000 C   0  0  0  0  0  0  0  0  0  0  0  0
   -2.7905    0.8585    0.0000 C   0  0  0  0  0  0  0  0  0  0  0  0
    4.2326    0.2751    0.0000 O   0  0  0  0  0  0  0  0  0  0  0  0
    3.2491    0.4876    0.0000 C   0  0  0  0  0  0  0  0  0  0  0  0
   -1.5318    3.1218    0.0000 C   0  0  0  0  0  0  0  0  0  0  0  0
   -1.2274    4.0680    0.0000 N   0  0  0  0  0  0  0  0  0  0  0  0
   -0.2564   -0.3876    0.0000 S   0  0  0  0  0  0  0  0  0  0  0  0
    1.2482   -1.2505    0.0000 O   0  0  0  0  0  0  0  0  0  0  0  0
    3.2491   -2.0923    0.0000 C   0  0  0  0  0  0  0  0  0  0  0  0
   -3.7408    2.1715    0.0000 C   0  0  0  0  0  0  0  0  0  0  0  0
   -3.7408    0.5459    0.0000 C   0  0  0  0  0  0  0  0  0  0  0  0
    2.8446    1.4088    0.0000 C   0  0  0  0  0  0  0  0  0  0  0  0
   -4.3243    1.3505    0.0000 C   0  0  0  0  0  0  0  0  0  0  0  0
    2.3237   -2.4508    0.0000 C   0  0  0  0  0  0  0  0  0  0  0  0
    4.0242   -2.7384    0.0000 C   0  0  0  0  0  0  0  0  0  0  0  0
    3.8616   -3.7180    0.0000 C   0  0  0  0  0  0  0  0  0  0  0  0
    2.1487   -3.4303    0.0000 C   0  0  0  0  0  0  0  0  0  0  0  0
    2.9196   -4.0680    0.0000 C   0  0  0  0  0  0  0  0  0  0  0  0
  1  2  2  0  0  0  0
  3  4  1  0  0  0  0
  4 10  1  0  0  0  0
  5  7  2  0  0  0  0
  1  6  1  0  0  0  0
  3  7  1  0  0  0  0
  2  8  1  0  0  0  0
  8 12  2  0  0  0  0
  1  9  1  0  0  0  0
 10 11  1  0  0  0  0
  9 11  1  0  0  0  0
  6 12  1  0  0  0  0
 13 14  1  0  0  0  0
  5 13  1  0  0  0  0
  3 14  2  0  0  0  0
  2 15  1  0  0  0  0
 15 16  3  0  0  0  0
 11 17  2  0  0  0  0
  4 18  2  0  0  0  0
  7 19  1  0  0  0  0
  8 20  1  0  0  0  0
 12 21  1  0  0  0  0
 14 22  1  0  0  0  0
 21 23  1  0  0  0  0
 20 23  1  0  0  0  0
 19 24  2  0  0  0  0
 19 25  1  0  0  0  0
 25 26  2  0  0  0  0
 24 27  1  0  0  0  0
 26 28  1  0  0  0  0
 27 28  2  0  0  0  0
M  END
> <IDNUMBER>
8015-9527

> <available>
6

> <H_acceptor>
7

> <H_donor>
2

> <B_rotN>
7

> <N_O>
6

> <logP>
3.9988

> <logD>
3.6408

> <logSw>
-4.3864

> <PSA>
72.337

> <pKa_ma>
7.2927

> <pKa_mb>
-6.8683

> <N_Chirals>
0

> <Name>
N-[(3-cyano-5,6-dihydro-4H-cyclopenta[b]thiophen-2-yl)carbamothioyl]-5-methyl-3-phenyl-1,2-oxazole-4-carboxamide

> <Smile>
Cc1c(C(NC(Nc(sc2c3CCC2)c3C#N)=S)=O)c(-c2ccccc2)no1

> <Color>
ORANGE

> <Collection>
DC

> <InChI>
InChI=1S/C20H16N4O2S2/c1-11-16(17(24-26-11)12-6-3-2-4-7-12)18(25)22-20(27)23-19-14(10-21)13-8-5-9-15(13)28-19/h2-4,6-7H,5,8-9H2,1H3,(H2,22,23,25,27)

> <InChI Key>
OETZIRPFQXQKQY-UHFFFAOYSA-N

> <PERCENTSP3>
20

> <Link>
https://www.chemdiv.com/catalog/screening-compounds/compound-8015-9527/

> <MFCDNUMBER>
MFCD03682695

> <STEREO>
ACHIRAL

> <State>
Solid

> <Similarity score>
0.19

$$$$
N-[(3-cyano-5,6,7,8-tetrahydro-4H-cyclohepta[b]thiophen-2-yl)carbamothioyl]-5-me
  -OEChem-04222410502D

 30 33  0     0  0  0  0  0  0999 V2000
   -0.9445    1.2925    0.0000 C   0  0  0  0  0  0  0  0  0  0  0  0
   -1.4574    2.1557    0.0000 C   0  0  0  0  0  0  0  0  0  0  0  0
    3.1083   -0.3711    0.0000 C   0  0  0  0  0  0  0  0  0  0  0  0
    2.1036   -0.3962    0.0000 C   0  0  0  0  0  0  0  0  0  0  0  0
    4.6720   -0.8340    0.0000 N   0  0  0  0  0  0  0  0  0  0  0  0
   -1.6075    0.5420    0.0000 S   0  0  0  0  0  0  0  0  0  0  0  0
    3.7338   -1.1717    0.0000 C   0  0  0  0  0  0  0  0  0  0  0  0
   -2.4329    1.9221    0.0000 C   0  0  0  0  0  0  0  0  0  0  0  0
    0.0562    1.3049    0.0000 N   0  0  0  0  0  0  0  0  0  0  0  0
    1.5823    0.4545    0.0000 N   0  0  0  0  0  0  0  0  0  0  0  0
    0.5817    0.4419    0.0000 C   0  0  0  0  0  0  0  0  0  0  0  0
   -2.5246    0.9297    0.0000 C   0  0  0  0  0  0  0  0  0  0  0  0
    4.6428    0.1584    0.0000 O   0  0  0  0  0  0  0  0  0  0  0  0
    3.6837    0.4419    0.0000 C   0  0  0  0  0  0  0  0  0  0  0  0
   -1.0737    3.0772    0.0000 C   0  0  0  0  0  0  0  0  0  0  0  0
   -0.6817    3.9986    0.0000 N   0  0  0  0  0  0  0  0  0  0  0  0
    0.0895   -0.4295    0.0000 S   0  0  0  0  0  0  0  0  0  0  0  0
    1.6282   -1.2717    0.0000 O   0  0  0  0  0  0  0  0  0  0  0  0
    3.4168   -2.1098    0.0000 C   0  0  0  0  0  0  0  0  0  0  0  0
   -3.1708    2.6184    0.0000 C   0  0  0  0  0  0  0  0  0  0  0  0
   -3.3586    0.3711    0.0000 C   0  0  0  0  0  0  0  0  0  0  0  0
    3.3544    1.3969    0.0000 C   0  0  0  0  0  0  0  0  0  0  0  0
    2.4454   -2.3226    0.0000 C   0  0  0  0  0  0  0  0  0  0  0  0
    4.0924   -2.8562    0.0000 C   0  0  0  0  0  0  0  0  0  0  0  0
   -4.1592    2.4725    0.0000 C   0  0  0  0  0  0  0  0  0  0  0  0
   -4.3092    0.6839    0.0000 C   0  0  0  0  0  0  0  0  0  0  0  0
    3.7796   -3.7985    0.0000 C   0  0  0  0  0  0  0  0  0  0  0  0
    2.1452   -3.2730    0.0000 C   0  0  0  0  0  0  0  0  0  0  0  0
   -4.6720    1.6053    0.0000 C   0  0  0  0  0  0  0  0  0  0  0  0
    2.7958   -3.9986    0.0000 C   0  0  0  0  0  0  0  0  0  0  0  0
  1  2  2  0  0  0  0
  3  4  1  0  0  0  0
  4 10  1  0  0  0  0
  5  7  2  0  0  0  0
  1  6  1  0  0  0  0
  3  7  1  0  0  0  0
  2  8  1  0  0  0  0
  1  9  1  0  0  0  0
 10 11  1  0  0  0  0
  9 11  1  0  0  0  0
  6 12  1  0  0  0  0
  8 12  2  0  0  0  0
 13 14  1  0  0  0  0
  5 13  1  0  0  0  0
  3 14  2  0  0  0  0
  2 15  1  0  0  0  0
 15 16  3  0  0  0  0
 11 17  2  0  0  0  0
  4 18  2  0  0  0  0
  7 19  1  0  0  0  0
  8 20  1  0  0  0  0
 12 21  1  0  0  0  0
 14 22  1  0  0  0  0
 19 23  2  0  0  0  0
 19 24  1  0  0  0  0
 20 25  1  0  0  0  0
 21 26  1  0  0  0  0
 24 27  2  0  0  0  0
 23 28  1  0  0  0  0
 26 29  1  0  0  0  0
 25 29  1  0  0  0  0
 27 30  1  0  0  0  0
 28 30  2  0  0  0  0
M  END
> <IDNUMBER>
Y512-4165

> <available>
87

> <H_acceptor>
7

> <H_donor>
2

> <B_rotN>
7

> <N_O>
6

> <logP>
4.905

> <logD>
4.558

> <logSw>
-4.702

> <PSA>
72.3

> <pKa_ma>
7.313

> <pKa_mb>
-6.868

> <N_Chirals>
0

> <Name>
N-[(3-cyano-5,6,7,8-tetrahydro-4H-cyclohepta[b]thiophen-2-yl)carbamothioyl]-5-methyl-3-phenyl-1,2-oxazole-4-carboxamide

> <Smile>
c1(c(c2c(s1)CCCCC2)C#N)NC(NC(c1c(noc1C)c1ccccc1)=O)=S

> <Color>
ORANGE

> <Collection>
DC

> <InChI>
InChI=1S/C22H20N4O2S2/c1-13-18(19(26-28-13)14-8-4-2-5-9-14)20(27)24-22(29)25-21-16(12-23)15-10-6-3-7-11-17(15)30-21/h2,4-5,8-9H,3,6-7,10-11H2,1H3,(H2,24,25,27,29)

> <InChI Key>
MBGSVWZLCYMILA-UHFFFAOYSA-N

> <PERCENTSP3>
27.3

> <Link>
https://www.chemdiv.com/catalog/screening-compounds/compound-Y512-4165/

> <MFCDNUMBER>
MFCD03680033

> <STEREO>
ACHIRAL

> <State>
Solid

> <Similarity score>
0.19

$$$$
N-[(3-cyano-4,5,6,7,8,9-hexahydrocycloocta[b]thiophen-2-yl)carbamothioyl]-5-meth
  -OEChem-04222410502D

 31 34  0     0  0  0  0  0  0999 V2000
   -0.8146    1.2773    0.0000 C   0  0  0  0  0  0  0  0  0  0  0  0
   -1.3356    2.1231    0.0000 C   0  0  0  0  0  0  0  0  0  0  0  0
    3.2484   -0.3605    0.0000 C   0  0  0  0  0  0  0  0  0  0  0  0
    2.2400   -0.3647    0.0000 C   0  0  0  0  0  0  0  0  0  0  0  0
    4.7902   -0.7854    0.0000 N   0  0  0  0  0  0  0  0  0  0  0  0
   -1.4564    0.5272    0.0000 S   0  0  0  0  0  0  0  0  0  0  0  0
    3.8777   -1.1482    0.0000 C   0  0  0  0  0  0  0  0  0  0  0  0
   -2.3063    1.9064    0.0000 C   0  0  0  0  0  0  0  0  0  0  0  0
    0.1814    1.3148    0.0000 N   0  0  0  0  0  0  0  0  0  0  0  0
    1.7023    0.4813    0.0000 N   0  0  0  0  0  0  0  0  0  0  0  0
    0.7272    0.4521    0.0000 C   0  0  0  0  0  0  0  0  0  0  0  0
   -2.3691    0.9104    0.0000 C   0  0  0  0  0  0  0  0  0  0  0  0
    4.7610    0.2105    0.0000 O   0  0  0  0  0  0  0  0  0  0  0  0
    3.8193    0.4855    0.0000 C   0  0  0  0  0  0  0  0  0  0  0  0
   -0.9688    3.0734    0.0000 C   0  0  0  0  0  0  0  0  0  0  0  0
   -0.5730    3.9985    0.0000 N   0  0  0  0  0  0  0  0  0  0  0  0
    0.2397   -0.4229    0.0000 S   0  0  0  0  0  0  0  0  0  0  0  0
    1.7606   -1.2690    0.0000 O   0  0  0  0  0  0  0  0  0  0  0  0
    3.5819   -2.0773    0.0000 C   0  0  0  0  0  0  0  0  0  0  0  0
   -2.9734    2.6650    0.0000 C   0  0  0  0  0  0  0  0  0  0  0  0
   -3.1482    0.2439    0.0000 C   0  0  0  0  0  0  0  0  0  0  0  0
    3.4734    1.4356    0.0000 C   0  0  0  0  0  0  0  0  0  0  0  0
    2.6108   -2.3066    0.0000 C   0  0  0  0  0  0  0  0  0  0  0  0
    4.2610   -2.7900    0.0000 C   0  0  0  0  0  0  0  0  0  0  0  0
   -3.9691    2.7316    0.0000 C   0  0  0  0  0  0  0  0  0  0  0  0
   -4.1235    0.3313    0.0000 C   0  0  0  0  0  0  0  0  0  0  0  0
    3.9985   -3.7567    0.0000 C   0  0  0  0  0  0  0  0  0  0  0  0
    2.3357   -3.2734    0.0000 C   0  0  0  0  0  0  0  0  0  0  0  0
   -4.7902    1.0898    0.0000 C   0  0  0  0  0  0  0  0  0  0  0  0
    3.0026   -3.9985    0.0000 C   0  0  0  0  0  0  0  0  0  0  0  0
   -4.7278    2.0649    0.0000 C   0  0  0  0  0  0  0  0  0  0  0  0
  1  2  2  0  0  0  0
  3  4  1  0  0  0  0
  4 10  1  0  0  0  0
  5  7  2  0  0  0  0
  5 13  1  0  0  0  0
  1  6  1  0  0  0  0
  3  7  1  0  0  0  0
  2  8  1  0  0  0  0
  8 12  2  0  0  0  0
  1  9  1  0  0  0  0
 10 11  1  0  0  0  0
  9 11  1  0  0  0  0
  6 12  1  0  0  0  0
 13 14  1  0  0  0  0
  3 14  2  0  0  0  0
  2 15  1  0  0  0  0
 15 16  3  0  0  0  0
 11 17  2  0  0  0  0
  4 18  2  0  0  0  0
  7 19  1  0  0  0  0
  8 20  1  0  0  0  0
 12 21  1  0  0  0  0
 14 22  1  0  0  0  0
 19 23  2  0  0  0  0
 19 24  1  0  0  0  0
 20 25  1  0  0  0  0
 21 26  1  0  0  0  0
 24 27  2  0  0  0  0
 23 28  1  0  0  0  0
 28 30  2  0  0  0  0
 26 29  1  0  0  0  0
 29 31  1  0  0  0  0
 27 30  1  0  0  0  0
 25 31  1  0  0  0  0
M  END
> <IDNUMBER>
IB03-2476

> <available>
50

> <H_acceptor>
7

> <H_donor>
2

> <B_rotN>
7

> <N_O>
6

> <logP>
5.4

> <logD>
5.05

> <logSw>
-6.27

> <PSA>
204.3

> <pKa_ma>
7.31

> <pKa_mb>
0

> <N_Chirals>
0

> <Name>
N-[(3-cyano-4,5,6,7,8,9-hexahydrocycloocta[b]thiophen-2-yl)carbamothioyl]-5-methyl-3-phenyl-1,2-oxazole-4-carboxamide

> <Smile>
Cc1c(C(NC(Nc(sc2c3CCCCCC2)c3C#N)=S)=O)c(-c2ccccc2)no1

> <Color>
NOT COLORED

> <Collection>
DC

> <InChI>
InChI=1S/C23H22N4O2S2/c1-14-19(20(27-29-14)15-9-5-4-6-10-15)21(28)25-23(30)26-22-17(13-24)16-11-7-2-3-8-12-18(16)31-22/h4-6,9-10H,2-3,7-8,11-12H2,1H3,(H2,25,26,28,30)

> <InChI Key>
GHKNWBGJBNDAGC-UHFFFAOYSA-N

> <PERCENTSP3>
30.4

> <Link>
https://www.chemdiv.com/catalog/screening-compounds/compound-IB03-2476/

> <STEREO>
ACHIRAL

> <State>
Solid

> <Similarity score>
0.19

$$$$
2-{[4-cyclopropyl-6-(trifluoromethyl)pyrimidin-2-yl]amino}-4,5,6,7-tetrahydro-1-
  -OEChem-04222410502D

 25 28  0     0  0  0  0  0  0999 V2000
    0.9918    1.7105    0.0000 C   0  0  0  0  0  0  0  0  0  0  0  0
    1.3543    0.7688    0.0000 C   0  0  0  0  0  0  0  0  0  0  0  0
   -0.6792    1.2606    0.0000 C   0  0  0  0  0  0  0  0  0  0  0  0
    1.7668    2.3438    0.0000 S   0  0  0  0  0  0  0  0  0  0  0  0
    0.0292    1.9688    0.0000 N   0  0  0  0  0  0  0  0  0  0  0  0
    2.3459    0.8313    0.0000 C   0  0  0  0  0  0  0  0  0  0  0  0
    2.6210    1.7939    0.0000 C   0  0  0  0  0  0  0  0  0  0  0  0
   -1.6418    1.5188    0.0000 N   0  0  0  0  0  0  0  0  0  0  0  0
   -0.4167    0.2938    0.0000 N   0  0  0  0  0  0  0  0  0  0  0  0
   -3.3168    1.0687    0.0000 C   0  0  0  0  0  0  0  0  0  0  0  0
   -2.3542    0.8104    0.0000 C   0  0  0  0  0  0  0  0  0  0  0  0
   -1.1209   -0.4146    0.0000 C   0  0  0  0  0  0  0  0  0  0  0  0
    0.8334   -0.0688    0.0000 C   0  0  0  0  0  0  0  0  0  0  0  0
   -2.0917   -0.1563    0.0000 C   0  0  0  0  0  0  0  0  0  0  0  0
   -0.8666   -1.3772    0.0000 C   0  0  0  0  0  0  0  0  0  0  0  0
    0.3209   -0.9064    0.0000 N   0  0  0  0  0  0  0  0  0  0  0  0
   -0.1541   -2.0813    0.0000 C   0  0  0  0  0  0  0  0  0  0  0  0
   -1.1209   -2.3438    0.0000 C   0  0  0  0  0  0  0  0  0  0  0  0
   -3.5793    0.0979    0.0000 F   0  0  0  0  0  0  0  0  0  0  0  0
   -3.0584    2.0355    0.0000 F   0  0  0  0  0  0  0  0  0  0  0  0
   -4.2835    1.3229    0.0000 F   0  0  0  0  0  0  0  0  0  0  0  0
    3.0335    0.1229    0.0000 C   0  0  0  0  0  0  0  0  0  0  0  0
    3.5836    2.0564    0.0000 C   0  0  0  0  0  0  0  0  0  0  0  0
    4.0169    0.3687    0.0000 C   0  0  0  0  0  0  0  0  0  0  0  0
    4.2835    1.3229    0.0000 C   0  0  0  0  0  0  0  0  0  0  0  0
  1  2  2  0  0  0  0
  3  5  1  0  0  0  0
  1  4  1  0  0  0  0
  1  5  1  0  0  0  0
  2  6  1  0  0  0  0
  4  7  1  0  0  0  0
  6  7  2  0  0  0  0
  3  8  1  0  0  0  0
  3  9  2  0  0  0  0
 10 11  1  0  0  0  0
  8 11  2  0  0  0  0
 11 14  1  0  0  0  0
  9 12  1  0  0  0  0
  2 13  1  0  0  0  0
 12 14  2  0  0  0  0
 12 15  1  0  0  0  0
 13 16  3  0  0  0  0
 15 17  1  0  0  0  0
 15 18  1  0  0  0  0
 17 18  1  0  0  0  0
 10 19  1  0  0  0  0
 10 20  1  0  0  0  0
 10 21  1  0  0  0  0
  6 22  1  0  0  0  0
  7 23  1  0  0  0  0
 22 24  1  0  0  0  0
 23 25  1  0  0  0  0
 24 25  1  0  0  0  0
M  END
> <IDNUMBER>
Y505-0618

> <available>
7

> <H_acceptor>
3

> <H_donor>
1

> <B_rotN>
5

> <N_O>
4

> <logP>
5.4561

> <logD>
5.4505

> <logSw>
-5.8786

> <PSA>
45.879

> <pKa_ma>
10.0838

> <pKa_mb>
5.4407

> <N_Chirals>
0

> <Name>
2-{[4-cyclopropyl-6-(trifluoromethyl)pyrimidin-2-yl]amino}-4,5,6,7-tetrahydro-1-benzothiophene-3-carbonitrile

> <Smile>
N#Cc1c(Nc2nc(C(F)(F)F)cc(C3CC3)n2)sc2c1CCCC2

> <Color>
BROWN

> <Collection>
DC

> <InChI>
InChI=1S/C17H15F3N4S/c18-17(19,20)14-7-12(9-5-6-9)22-16(23-14)24-15-11(8-21)10-3-1-2-4-13(10)25-15/h7,9H,1-6H2,(H,22,23,24)

> <InChI Key>
SYAIKRODGWFSBG-UHFFFAOYSA-N

> <PERCENTSP3>
47.1

> <Link>
https://www.chemdiv.com/catalog/screening-compounds/compound-Y505-0618/

> <MFCDNUMBER>
MFCD09468503

> <STEREO>
ACHIRAL

> <State>
Solid

> <Similarity score>
0.19

$$$$
2-{[5-cyano-4-(3-methoxyphenyl)-6-oxo-1,6-dihydropyrimidin-2-yl]sulfanyl}-N-(3-c
  -OEChem-04222410502D

 33 36  0     0  0  0  0  0  0999 V2000
    2.8330   -0.7939    0.0000 C   0  0  0  0  0  0  0  0  0  0  0  0
    3.3623    0.0394    0.0000 C   0  0  0  0  0  0  0  0  0  0  0  0
   -3.1578    0.8884    0.0000 C   0  0  0  0  0  0  0  0  0  0  0  0
   -2.6389    0.0237    0.0000 C   0  0  0  0  0  0  0  0  0  0  0  0
   -1.6639    1.7427    0.0000 N   0  0  0  0  0  0  0  0  0  0  0  0
   -2.6546    1.7377    0.0000 C   0  0  0  0  0  0  0  0  0  0  0  0
   -1.6223    0.0394    0.0000 N   0  0  0  0  0  0  0  0  0  0  0  0
   -1.1294    0.9043    0.0000 C   0  0  0  0  0  0  0  0  0  0  0  0
    3.4307   -1.6273    0.0000 S   0  0  0  0  0  0  0  0  0  0  0  0
    4.3739   -0.2751    0.0000 C   0  0  0  0  0  0  0  0  0  0  0  0
    4.3739   -1.2604    0.0000 C   0  0  0  0  0  0  0  0  0  0  0  0
    1.8370   -0.7939    0.0000 N   0  0  0  0  0  0  0  0  0  0  0  0
    2.9693    0.9410    0.0000 C   0  0  0  0  0  0  0  0  0  0  0  0
   -4.1485    0.8884    0.0000 C   0  0  0  0  0  0  0  0  0  0  0  0
   -3.1319   -0.8412    0.0000 C   0  0  0  0  0  0  0  0  0  0  0  0
   -5.1550    0.8884    0.0000 N   0  0  0  0  0  0  0  0  0  0  0  0
    2.5812    1.8477    0.0000 N   0  0  0  0  0  0  0  0  0  0  0  0
    1.3340    0.0445    0.0000 C   0  0  0  0  0  0  0  0  0  0  0  0
   -0.1389    0.9043    0.0000 S   0  0  0  0  0  0  0  0  0  0  0  0
   -3.1420    2.6181    0.0000 O   0  0  0  0  0  0  0  0  0  0  0  0
   -4.1380   -0.8726    0.0000 C   0  0  0  0  0  0  0  0  0  0  0  0
    1.8111    0.9251    0.0000 O   0  0  0  0  0  0  0  0  0  0  0  0
    0.3431    0.0445    0.0000 C   0  0  0  0  0  0  0  0  0  0  0  0
   -4.6515   -1.7375    0.0000 C   0  0  0  0  0  0  0  0  0  0  0  0
    5.2545    0.2333    0.0000 C   0  0  0  0  0  0  0  0  0  0  0  0
    5.2545   -1.7793    0.0000 C   0  0  0  0  0  0  0  0  0  0  0  0
   -2.6389   -1.7008    0.0000 C   0  0  0  0  0  0  0  0  0  0  0  0
   -5.6319   -1.7375    0.0000 O   0  0  0  0  0  0  0  0  0  0  0  0
   -3.1319   -2.5812    0.0000 C   0  0  0  0  0  0  0  0  0  0  0  0
   -4.1170   -2.6181    0.0000 C   0  0  0  0  0  0  0  0  0  0  0  0
   -6.1139   -0.8831    0.0000 C   0  0  0  0  0  0  0  0  0  0  0  0
    6.1139   -0.2700    0.0000 C   0  0  0  0  0  0  0  0  0  0  0  0
    6.1139   -1.2763    0.0000 C   0  0  0  0  0  0  0  0  0  0  0  0
  1  2  2  0  0  0  0
  3  4  2  0  0  0  0
  3  6  1  0  0  0  0
  4  7  1  0  0  0  0
  5  8  1  0  0  0  0
  5  6  1  0  0  0  0
  7  8  2  0  0  0  0
  8 19  1  0  0  0  0
  1  9  1  0  0  0  0
  2 10  1  0  0  0  0
  9 11  1  0  0  0  0
 10 11  2  0  0  0  0
  1 12  1  0  0  0  0
  2 13  1  0  0  0  0
  3 14  1  0  0  0  0
  4 15  1  0  0  0  0
 14 16  3  0  0  0  0
 13 17  3  0  0  0  0
 12 18  1  0  0  0  0
 19 23  1  0  0  0  0
  6 20  2  0  0  0  0
 15 21  2  0  0  0  0
 18 22  2  0  0  0  0
 18 23  1  0  0  0  0
 21 24  1  0  0  0  0
 10 25  1  0  0  0  0
 11 26  1  0  0  0  0
 15 27  1  0  0  0  0
 24 28  1  0  0  0  0
 27 29  2  0  0  0  0
 29 30  1  0  0  0  0
 24 30  2  0  0  0  0
 28 31  1  0  0  0  0
 25 32  1  0  0  0  0
 26 33  1  0  0  0  0
 32 33  1  0  0  0  0
M  END
> <IDNUMBER>
3698-0273

> <available>
6

> <H_acceptor>
9

> <H_donor>
2

> <B_rotN>
9

> <N_O>
8

> <logP>
3.4912

> <logD>
-0.0618

> <logSw>
-4.1213

> <PSA>
98.903

> <pKa_ma>
3.8471

> <pKa_mb>
1.2389

> <N_Chirals>
0

> <Name>
2-{[5-cyano-4-(3-methoxyphenyl)-6-oxo-1,6-dihydropyrimidin-2-yl]sulfanyl}-N-(3-cyano-4,5,6,7-tetrahydro-1-benzothiophen-2-yl)acetamide

> <Smile>
COc1cccc(C(N=C(NC2=O)SCC(Nc(sc3c4CCCC3)c4C#N)=O)=C2C#N)c1

> <Color>
NOT COLORED

> <Collection>
DC

> <InChI>
InChI=1S/C23H19N5O3S2/c1-31-14-6-4-5-13(9-14)20-17(11-25)21(30)28-23(27-20)32-12-19(29)26-22-16(10-24)15-7-2-3-8-18(15)33-22/h4-6,9H,2-3,7-8,12H2,1H3,(H,26,29)(H,27,28,30)

> <InChI Key>
GZYVCJDJIJOBHP-UHFFFAOYSA-N

> <PERCENTSP3>
26.1

> <Link>
https://www.chemdiv.com/catalog/screening-compounds/compound-3698-0273/

> <MFCDNUMBER>
MFCD02577543

> <CLNUMBER>
CL6863

> <STEREO>
ACHIRAL

> <State>
Solid

> <Similarity score>
0.19

$$$$
N-(3-cyano-4,5,6,7-tetrahydro-1-benzothiophen-2-yl)-2-[(4,6-dimethylpyrimidin-2-
  -OEChem-04222410502D

 24 26  0     0  0  0  0  0  0999 V2000
   -1.9166   -0.4584    0.0000 C   0  0  0  0  0  0  0  0  0  0  0  0
   -2.7914   -0.0335    0.0000 C   0  0  0  0  0  0  0  0  0  0  0  0
   -2.0456   -1.4582    0.0000 S   0  0  0  0  0  0  0  0  0  0  0  0
   -3.4956   -0.7416    0.0000 C   0  0  0  0  0  0  0  0  0  0  0  0
   -3.0289   -1.6290    0.0000 C   0  0  0  0  0  0  0  0  0  0  0  0
   -1.0332    0.0416    0.0000 N   0  0  0  0  0  0  0  0  0  0  0  0
    2.4331   -0.0083    0.0000 C   0  0  0  0  0  0  0  0  0  0  0  0
   -2.9289    0.9459    0.0000 C   0  0  0  0  0  0  0  0  0  0  0  0
    3.2957   -0.5208    0.0000 N   0  0  0  0  0  0  0  0  0  0  0  0
    2.4331    0.9916    0.0000 N   0  0  0  0  0  0  0  0  0  0  0  0
   -3.0707    1.9207    0.0000 N   0  0  0  0  0  0  0  0  0  0  0  0
   -0.1666   -0.4666    0.0000 C   0  0  0  0  0  0  0  0  0  0  0  0
    1.5583   -0.5041    0.0000 S   0  0  0  0  0  0  0  0  0  0  0  0
    3.3081    1.4915    0.0000 C   0  0  0  0  0  0  0  0  0  0  0  0
    4.1704   -0.0207    0.0000 C   0  0  0  0  0  0  0  0  0  0  0  0
    4.1830    0.9665    0.0000 C   0  0  0  0  0  0  0  0  0  0  0  0
   -0.1666   -1.4832    0.0000 O   0  0  0  0  0  0  0  0  0  0  0  0
    0.6916    0.0083    0.0000 C   0  0  0  0  0  0  0  0  0  0  0  0
   -4.4954   -0.6959    0.0000 C   0  0  0  0  0  0  0  0  0  0  0  0
   -3.5663   -2.4788    0.0000 C   0  0  0  0  0  0  0  0  0  0  0  0
    3.3081    2.4788    0.0000 C   0  0  0  0  0  0  0  0  0  0  0  0
    5.0287   -0.5084    0.0000 C   0  0  0  0  0  0  0  0  0  0  0  0
   -5.0287   -1.5459    0.0000 C   0  0  0  0  0  0  0  0  0  0  0  0
   -4.5746   -2.4331    0.0000 C   0  0  0  0  0  0  0  0  0  0  0  0
  1  2  2  0  0  0  0
  1  3  1  0  0  0  0
  2  4  1  0  0  0  0
  4  5  2  0  0  0  0
  3  5  1  0  0  0  0
  1  6  1  0  0  0  0
  7 13  1  0  0  0  0
  2  8  1  0  0  0  0
  7  9  2  0  0  0  0
  7 10  1  0  0  0  0
  8 11  3  0  0  0  0
  6 12  1  0  0  0  0
 13 18  1  0  0  0  0
 10 14  2  0  0  0  0
  9 15  1  0  0  0  0
 15 16  2  0  0  0  0
 14 16  1  0  0  0  0
 12 17  2  0  0  0  0
 12 18  1  0  0  0  0
  4 19  1  0  0  0  0
  5 20  1  0  0  0  0
 14 21  1  0  0  0  0
 15 22  1  0  0  0  0
 19 23  1  0  0  0  0
 23 24  1  0  0  0  0
 20 24  1  0  0  0  0
M  END
> <IDNUMBER>
Y511-2285

> <available>
55

> <H_acceptor>
6

> <H_donor>
1

> <B_rotN>
6

> <N_O>
5

> <logP>
3.22

> <logD>
2.187

> <logSw>
-3.494

> <PSA>
56.79

> <pKa_ma>
6.41

> <pKa_mb>
0.7247

> <N_Chirals>
0

> <Name>
N-(3-cyano-4,5,6,7-tetrahydro-1-benzothiophen-2-yl)-2-[(4,6-dimethylpyrimidin-2-yl)sulfanyl]acetamide

> <Smile>
c1(c(c2c(s1)CCCC2)C#N)NC(=O)CSc1nc(cc(n1)C)C

> <Color>
NOT COLORED

> <Collection>
DC

> <InChI>
InChI=1S/C17H18N4OS2/c1-10-7-11(2)20-17(19-10)23-9-15(22)21-16-13(8-18)12-5-3-4-6-14(12)24-16/h7H,3-6,9H2,1-2H3,(H,21,22)

> <InChI Key>
LVLYQLNWJXREHW-UHFFFAOYSA-N

> <PERCENTSP3>
41.18

> <Link>
https://www.chemdiv.com/catalog/screening-compounds/compound-Y511-2285/

> <MFCDNUMBER>
MFCD00746978

> <STEREO>
ACHIRAL

> <State>
Solid

> <Similarity score>
0.18

$$$$
N-(3-cyano-4,5,6,7-tetrahydro-1-benzothiophen-2-yl)-4-(3-phenyl-1,2,4-oxadiazol-
  -OEChem-04222410502D

 28 31  0     0  0  0  0  0  0999 V2000
    2.2770    2.0584    0.0000 C   0  0  0  0  0  0  0  0  0  0  0  0
    2.4813    1.0708    0.0000 C   0  0  0  0  0  0  0  0  0  0  0  0
   -1.8189   -0.9293    0.0000 N   0  0  0  0  0  0  0  0  0  0  0  0
    3.1313    2.5502    0.0000 S   0  0  0  0  0  0  0  0  0  0  0  0
    3.4689    0.9707    0.0000 C   0  0  0  0  0  0  0  0  0  0  0  0
   -2.4314   -1.7167    0.0000 C   0  0  0  0  0  0  0  0  0  0  0  0
    3.8773    1.8958    0.0000 C   0  0  0  0  0  0  0  0  0  0  0  0
   -1.8688   -2.5502    0.0000 N   0  0  0  0  0  0  0  0  0  0  0  0
    1.3646    2.4626    0.0000 N   0  0  0  0  0  0  0  0  0  0  0  0
    1.8189    0.3209    0.0000 C   0  0  0  0  0  0  0  0  0  0  0  0
   -0.8812   -1.2543    0.0000 C   0  0  0  0  0  0  0  0  0  0  0  0
   -0.9105   -2.2668    0.0000 O   0  0  0  0  0  0  0  0  0  0  0  0
    1.1564   -0.4292    0.0000 N   0  0  0  0  0  0  0  0  0  0  0  0
    0.5520    1.8709    0.0000 C   0  0  0  0  0  0  0  0  0  0  0  0
   -3.4437   -1.6918    0.0000 C   0  0  0  0  0  0  0  0  0  0  0  0
   -0.3313    2.2709    0.0000 O   0  0  0  0  0  0  0  0  0  0  0  0
    4.0439    0.1582    0.0000 C   0  0  0  0  0  0  0  0  0  0  0  0
    4.8690    1.9832    0.0000 C   0  0  0  0  0  0  0  0  0  0  0  0
   -0.0563   -0.6751    0.0000 C   0  0  0  0  0  0  0  0  0  0  0  0
    0.6561    0.9126    0.0000 C   0  0  0  0  0  0  0  0  0  0  0  0
   -0.1564    0.3209    0.0000 C   0  0  0  0  0  0  0  0  0  0  0  0
   -3.9607   -2.5502    0.0000 C   0  0  0  0  0  0  0  0  0  0  0  0
   -3.9230   -0.8125    0.0000 C   0  0  0  0  0  0  0  0  0  0  0  0
    5.0564    0.2583    0.0000 C   0  0  0  0  0  0  0  0  0  0  0  0
    5.4564    1.1709    0.0000 C   0  0  0  0  0  0  0  0  0  0  0  0
   -4.9357   -0.7876    0.0000 C   0  0  0  0  0  0  0  0  0  0  0  0
   -4.9732   -2.5166    0.0000 C   0  0  0  0  0  0  0  0  0  0  0  0
   -5.4564   -1.6293    0.0000 C   0  0  0  0  0  0  0  0  0  0  0  0
  1  2  2  0  0  0  0
  3 11  2  0  0  0  0
  1  4  1  0  0  0  0
  2  5  1  0  0  0  0
  3  6  1  0  0  0  0
  4  7  1  0  0  0  0
  5  7  2  0  0  0  0
  8 12  1  0  0  0  0
  6  8  2  0  0  0  0
  1  9  1  0  0  0  0
  2 10  1  0  0  0  0
 11 19  1  0  0  0  0
 11 12  1  0  0  0  0
 10 13  3  0  0  0  0
  9 14  1  0  0  0  0
  6 15  1  0  0  0  0
 14 16  2  0  0  0  0
  5 17  1  0  0  0  0
  7 18  1  0  0  0  0
 19 21  1  0  0  0  0
 14 20  1  0  0  0  0
 20 21  1  0  0  0  0
 15 22  2  0  0  0  0
 15 23  1  0  0  0  0
 17 24  1  0  0  0  0
 18 25  1  0  0  0  0
 24 25  1  0  0  0  0
 23 26  2  0  0  0  0
 22 27  1  0  0  0  0
 27 28  2  0  0  0  0
 26 28  1  0  0  0  0
M  END
> <IDNUMBER>
D321-0073

> <available>
73

> <H_acceptor>
6

> <H_donor>
1

> <B_rotN>
8

> <N_O>
6

> <logP>
4.3451

> <logD>
3.0319

> <logSw>
-4.5909

> <PSA>
71.23

> <pKa_ma>
6.1085

> <pKa_mb>
-3.8515

> <N_Chirals>
0

> <Name>
N-(3-cyano-4,5,6,7-tetrahydro-1-benzothiophen-2-yl)-4-(3-phenyl-1,2,4-oxadiazol-5-yl)butanamide

> <Smile>
N#Cc1c(NC(CCCc2nc(-c3ccccc3)no2)=O)sc2c1CCCC2

> <Color>
BROWN

> <Collection>
DC

> <InChI>
InChI=1S/C21H20N4O2S/c22-13-16-15-9-4-5-10-17(15)28-21(16)23-18(26)11-6-12-19-24-20(25-27-19)14-7-2-1-3-8-14/h1-3,7-8H,4-6,9-12H2,(H,23,26)

> <InChI Key>
JSCZVXYKOMCNNE-UHFFFAOYSA-N

> <PERCENTSP3>
33.3

> <Link>
https://www.chemdiv.com/catalog/screening-compounds/compound-D321-0073/

> <MFCDNUMBER>
MFCD14819067

> <CLNUMBER>
CL5000

> <STEREO>
ACHIRAL

> <State>
Solid

> <Similarity score>
0.18

$$$$
2-amino-5-propyl-4,7-dihydro-5H-thieno[2,3-c]pyran-3-carbonitrile
  -OEChem-04222410502D

 17 18  0     0  0  0  0  0  0999 V2000
    2.0668    0.4792    0.0000 C   0  0  0  0  0  0  0  0  0  0  0  0
    0.4166    0.4667    0.0000 C   0  0  0  0  0  0  0  0  0  0  0  0
    2.0710   -0.4959    0.0000 C   0  0  0  0  0  0  0  0  0  0  0  0
    1.2334   -0.9709    0.0000 S   0  0  0  0  0  0  0  0  0  0  0  0
    0.4166   -0.4959    0.0000 C   0  0  0  0  0  0  0  0  0  0  0  0
    2.8960    0.9709    0.0000 C   0  0  0  0  0  0  0  0  0  0  0  0
    2.8918    1.9293    0.0000 N   0  0  0  0  0  0  0  0  0  0  0  0
   -0.4335    0.9542    0.0000 C   0  0  0  0  0  0  0  0  0  0  0  0
   -1.2543   -0.5042    0.0000 O   0  0  0  0  0  0  0  0  0  0  0  0
   -0.4166   -0.9917    0.0000 C   0  0  0  0  0  0  0  0  0  0  0  0
    2.9210   -0.9709    0.0000 N   0  0  0  0  0  0  0  0  0  0  0  0
   -1.2543    0.4667    0.0000 C   0  0  3  0  0  0  0  0  0  0  0  0
   -2.0835    0.9334    0.0000 C   0  0  0  0  0  0  0  0  0  0  0  0
   -2.9085    0.4542    0.0000 C   0  0  0  0  0  0  0  0  0  0  0  0
   -3.7336    0.9292    0.0000 C   0  0  0  0  0  0  0  0  0  0  0  0
    2.9335   -1.9293    0.0000 H   0  0  0  0  0  0  0  0  0  0  0  0
    3.7336   -0.4834    0.0000 H   0  0  0  0  0  0  0  0  0  0  0  0
  1  2  1  0  0  0  0
  1  3  2  0  0  0  0
  3  4  1  0  0  0  0
  4  5  1  0  0  0  0
  2  5  2  0  0  0  0
  1  6  1  0  0  0  0
  6  7  3  0  0  0  0
  2  8  1  0  0  0  0
  9 12  1  0  0  0  0
  5 10  1  0  0  0  0
  9 10  1  0  0  0  0
  3 11  1  0  0  0  0
  8 12  1  0  0  0  0
 12 13  1  0  0  0  0
 13 14  1  0  0  0  0
 14 15  1  0  0  0  0
 11 16  1  0  0  0  0
 11 17  1  0  0  0  0
M  END
> <IDNUMBER>
8640-0074

> <available>
79

> <H_acceptor>
2

> <H_donor>
2

> <B_rotN>
3

> <N_O>
3

> <logP>
2.381

> <logD>
2.381

> <logSw>
-2.2284

> <PSA>
47.086

> <pKa_ma>
15.973

> <pKa_mb>
-1.5134

> <N_Chirals>
1

> <Name>
2-amino-5-propyl-4,7-dihydro-5H-thieno[2,3-c]pyran-3-carbonitrile

> <Smile>
CCCC(C1)OCc2c1c(C#N)c(N)s2

> <Color>
BROWN

> <Collection>
DC

> <InChI>
InChI=1S/C11H14N2OS/c1-2-3-7-4-8-9(5-12)11(13)15-10(8)6-14-7/h7H,2-4,6,13H2,1H3/t7-/m1/s1

> <InChI Key>
FGTHHTWHWXEGFI-SSDOTTSWSA-N

> <PERCENTSP3>
54.5

> <Link>
https://www.chemdiv.com/catalog/screening-compounds/compound-8640-0074/

> <MFCDNUMBER>
MFCD03675056

> <STEREO>
RACEMIC MIXTURE

> <State>
Solid

> <Similarity score>
0.18

$$$$
2-{[4-(1,5-dimethyl-1H-pyrazol-4-yl)-6-(trifluoromethyl)pyrimidin-2-yl]amino}-5,
  -OEChem-04222410502D

 28 31  0     0  0  0  0  0  0999 V2000
    1.8551   -0.3456    0.0000 C   0  0  0  0  0  0  0  0  0  0  0  0
    1.4178   -1.2201    0.0000 C   0  0  0  0  0  0  0  0  0  0  0  0
   -1.6428   -1.2076    0.0000 C   0  0  0  0  0  0  0  0  0  0  0  0
    0.3559    0.5163    0.0000 C   0  0  0  0  0  0  0  0  0  0  0  0
    2.8669   -0.5205    0.0000 S   0  0  0  0  0  0  0  0  0  0  0  0
    1.3554    0.5163    0.0000 N   0  0  0  0  0  0  0  0  0  0  0  0
    2.1050   -1.9404    0.0000 C   0  0  0  0  0  0  0  0  0  0  0  0
   -1.1430   -0.3456    0.0000 C   0  0  0  0  0  0  0  0  0  0  0  0
   -2.6338   -1.3158    0.0000 C   0  0  0  0  0  0  0  0  0  0  0  0
    3.0043   -1.5199    0.0000 C   0  0  0  0  0  0  0  0  0  0  0  0
   -1.9799   -2.7898    0.0000 N   0  0  0  0  0  0  0  0  0  0  0  0
   -2.8419   -2.2903    0.0000 N   0  0  0  0  0  0  0  0  0  0  0  0
   -0.1438   -0.3456    0.0000 N   0  0  0  0  0  0  0  0  0  0  0  0
   -1.2348   -2.1195    0.0000 C   0  0  0  0  0  0  0  0  0  0  0  0
   -0.1438    1.3825    0.0000 N   0  0  0  0  0  0  0  0  0  0  0  0
   -1.6428    2.2444    0.0000 C   0  0  0  0  0  0  0  0  0  0  0  0
   -1.1430    1.3825    0.0000 C   0  0  0  0  0  0  0  0  0  0  0  0
   -1.6428    0.5163    0.0000 C   0  0  0  0  0  0  0  0  0  0  0  0
    0.4185   -1.3825    0.0000 C   0  0  0  0  0  0  0  0  0  0  0  0
   -0.5559   -1.5324    0.0000 N   0  0  0  0  0  0  0  0  0  0  0  0
   -2.5046    1.7448    0.0000 F   0  0  0  0  0  0  0  0  0  0  0  0
   -2.1425    3.1146    0.0000 F   0  0  0  0  0  0  0  0  0  0  0  0
   -0.7725    2.7441    0.0000 F   0  0  0  0  0  0  0  0  0  0  0  0
    2.2422   -2.9397    0.0000 C   0  0  0  0  0  0  0  0  0  0  0  0
    3.7039   -2.2568    0.0000 C   0  0  0  0  0  0  0  0  0  0  0  0
   -3.2709   -0.5080    0.0000 C   0  0  0  0  0  0  0  0  0  0  0  0
   -3.7039   -2.7898    0.0000 C   0  0  0  0  0  0  0  0  0  0  0  0
    3.2167   -3.1146    0.0000 C   0  0  0  0  0  0  0  0  0  0  0  0
  1  2  2  0  0  0  0
  3  8  1  0  0  0  0
  4  6  1  0  0  0  0
  1  5  1  0  0  0  0
  1  6  1  0  0  0  0
  2  7  1  0  0  0  0
  8 13  2  0  0  0  0
  8 18  1  0  0  0  0
  3  9  2  0  0  0  0
  5 10  1  0  0  0  0
  7 10  2  0  0  0  0
 11 14  2  0  0  0  0
  9 12  1  0  0  0  0
 11 12  1  0  0  0  0
  4 13  1  0  0  0  0
  3 14  1  0  0  0  0
  4 15  2  0  0  0  0
 16 17  1  0  0  0  0
 15 17  1  0  0  0  0
 17 18  2  0  0  0  0
  2 19  1  0  0  0  0
 19 20  3  0  0  0  0
 16 21  1  0  0  0  0
 16 22  1  0  0  0  0
 16 23  1  0  0  0  0
  7 24  1  0  0  0  0
 10 25  1  0  0  0  0
  9 26  1  0  0  0  0
 12 27  1  0  0  0  0
 25 28  1  0  0  0  0
 24 28  1  0  0  0  0
M  END
> <IDNUMBER>
Y505-0471

> <available>
5

> <H_acceptor>
4

> <H_donor>
1

> <B_rotN>
5

> <N_O>
6

> <logP>
4.257

> <logD>
4.2568

> <logSw>
-4.4928

> <PSA>
60.208

> <pKa_ma>
11.544

> <pKa_mb>
4.0864

> <N_Chirals>
0

> <Name>
2-{[4-(1,5-dimethyl-1H-pyrazol-4-yl)-6-(trifluoromethyl)pyrimidin-2-yl]amino}-5,6-dihydro-4H-cyclopenta[b]thiophene-3-carbonitrile

> <Smile>
Cc(n(C)nc1)c1-c1cc(C(F)(F)F)nc(Nc(sc2c3CCC2)c3C#N)n1

> <Color>
BROWN

> <Collection>
DC

> <InChI>
InChI=1S/C18H15F3N6S/c1-9-12(8-23-27(9)2)13-6-15(18(19,20)21)25-17(24-13)26-16-11(7-22)10-4-3-5-14(10)28-16/h6,8H,3-5H2,1-2H3,(H,24,25,26)

> <InChI Key>
OYLGNRJCEFSSKH-UHFFFAOYSA-N

> <PERCENTSP3>
33.3

> <Link>
https://www.chemdiv.com/catalog/screening-compounds/compound-Y505-0471/

> <MFCDNUMBER>
MFCD09468933

> <STEREO>
ACHIRAL

> <State>
Solid

> <Similarity score>
0.18

$$$$
N-(3-cyano-6-methyl-4,5,6,7-tetrahydro-1-benzothiophen-2-yl)-5-methyl-3-phenyl-1
  -OEChem-04222410502D

 27 30  0     0  0  0  0  0  0999 V2000
    0.9064   -0.3084    0.0000 C   0  0  0  0  0  0  0  0  0  0  0  0
    1.8065   -0.7084    0.0000 C   0  0  0  0  0  0  0  0  0  0  0  0
   -1.6605   -0.8334    0.0000 C   0  0  0  0  0  0  0  0  0  0  0  0
   -0.8106   -0.3333    0.0000 C   0  0  0  0  0  0  0  0  0  0  0  0
    2.5065    0.0333    0.0000 C   0  0  0  0  0  0  0  0  0  0  0  0
    2.0064    0.9085    0.0000 C   0  0  0  0  0  0  0  0  0  0  0  0
    1.0064    0.6835    0.0000 S   0  0  0  0  0  0  0  0  0  0  0  0
   -3.1857   -1.3334    0.0000 N   0  0  0  0  0  0  0  0  0  0  0  0
   -2.6107   -0.5334    0.0000 C   0  0  0  0  0  0  0  0  0  0  0  0
    0.0563   -0.8084    0.0000 N   0  0  0  0  0  0  0  0  0  0  0  0
   -2.6107   -2.1335    0.0000 O   0  0  0  0  0  0  0  0  0  0  0  0
   -1.6605   -1.8335    0.0000 C   0  0  0  0  0  0  0  0  0  0  0  0
    2.0064   -1.7084    0.0000 C   0  0  0  0  0  0  0  0  0  0  0  0
    2.1814   -2.6835    0.0000 N   0  0  0  0  0  0  0  0  0  0  0  0
    3.5066    0.0333    0.0000 C   0  0  0  0  0  0  0  0  0  0  0  0
    2.5065    1.7834    0.0000 C   0  0  0  0  0  0  0  0  0  0  0  0
   -0.8106    0.6585    0.0000 O   0  0  0  0  0  0  0  0  0  0  0  0
   -2.8356    0.4333    0.0000 C   0  0  0  0  0  0  0  0  0  0  0  0
    4.0066    0.9085    0.0000 C   0  0  0  0  0  0  0  0  0  0  0  0
    3.5066    1.7834    0.0000 C   0  0  3  0  0  0  0  0  0  0  0  0
   -0.8355   -2.4335    0.0000 C   0  0  0  0  0  0  0  0  0  0  0  0
   -2.1106    1.1084    0.0000 C   0  0  0  0  0  0  0  0  0  0  0  0
   -3.7816    0.7335    0.0000 C   0  0  0  0  0  0  0  0  0  0  0  0
    4.0066    2.6835    0.0000 C   0  0  0  0  0  0  0  0  0  0  0  0
   -4.0066    1.7085    0.0000 C   0  0  0  0  0  0  0  0  0  0  0  0
   -2.3356    2.0835    0.0000 C   0  0  0  0  0  0  0  0  0  0  0  0
   -3.2858    2.3878    0.0000 C   0  0  0  0  0  0  0  0  0  0  0  0
  1  2  2  0  0  0  0
  3  4  1  0  0  0  0
  4 10  1  0  0  0  0
  2  5  1  0  0  0  0
  5  6  2  0  0  0  0
  6  7  1  0  0  0  0
  1  7  1  0  0  0  0
  8  9  2  0  0  0  0
  3  9  1  0  0  0  0
  1 10  1  0  0  0  0
 11 12  1  0  0  0  0
  8 11  1  0  0  0  0
  3 12  2  0  0  0  0
  2 13  1  0  0  0  0
 13 14  3  0  0  0  0
  5 15  1  0  0  0  0
  6 16  1  0  0  0  0
  4 17  2  0  0  0  0
  9 18  1  0  0  0  0
 15 19  1  0  0  0  0
 19 20  1  0  0  0  0
 16 20  1  0  0  0  0
 12 21  1  0  0  0  0
 18 22  1  0  0  0  0
 18 23  2  0  0  0  0
 20 24  1  0  0  0  0
 23 25  1  0  0  0  0
 22 26  2  0  0  0  0
 26 27  1  0  0  0  0
 25 27  2  0  0  0  0
M  END
> <IDNUMBER>
Y509-7405

> <available>
25

> <H_acceptor>
5

> <H_donor>
1

> <B_rotN>
5

> <N_O>
5

> <logP>
4.396

> <logD>
2.577

> <logSw>
-4.454

> <PSA>
62.06

> <pKa_ma>
5.587

> <pKa_mb>
-6.342

> <N_Chirals>
1

> <Name>
N-(3-cyano-6-methyl-4,5,6,7-tetrahydro-1-benzothiophen-2-yl)-5-methyl-3-phenyl-1,2-oxazole-4-carboxamide

> <Smile>
c1(c(c2c(s1)CC(CC2)C)C#N)NC(c1c(noc1C)c1ccccc1)=O

> <Color>
ORANGE

> <Collection>
DC

> <InChI>
InChI=1S/C21H19N3O2S/c1-12-8-9-15-16(11-22)21(27-17(15)10-12)23-20(25)18-13(2)26-24-19(18)14-6-4-3-5-7-14/h3-7,12H,8-10H2,1-2H3,(H,23,25)/t12-/m1/s1

> <InChI Key>
WBMFCSWUYHUKII-GFCCVEGCSA-N

> <PERCENTSP3>
28.57

> <Link>
https://www.chemdiv.com/catalog/screening-compounds/compound-Y509-7405/

> <MFCDNUMBER>
MFCD01106773

> <CLNUMBER>
CL2451

> <STEREO>
RACEMIC MIXTURE

> <State>
Solid

> <Similarity score>
0.18

$$$$
N-(3-cyano-4,5,6,7-tetrahydro-1-benzothiophen-2-yl)-2-[(4-methyl-6-oxo-1,6-dihyd
  -OEChem-04222410502D

 26 28  0     0  0  0  0  0  0999 V2000
   -1.6309   -0.7039    0.0000 C   0  0  0  0  0  0  0  0  0  0  0  0
   -2.1017    0.1666    0.0000 C   0  0  0  0  0  0  0  0  0  0  0  0
    2.6599    0.0666    0.0000 C   0  0  0  0  0  0  0  0  0  0  0  0
   -2.3391   -1.4329    0.0000 S   0  0  0  0  0  0  0  0  0  0  0  0
    3.3348    0.8209    0.0000 N   0  0  0  0  0  0  0  0  0  0  0  0
   -3.0889   -0.0458    0.0000 C   0  0  0  0  0  0  0  0  0  0  0  0
   -0.6644   -0.9456    0.0000 N   0  0  0  0  0  0  0  0  0  0  0  0
   -3.2181   -0.9912    0.0000 C   0  0  0  0  0  0  0  0  0  0  0  0
    3.0099   -0.8915    0.0000 N   0  0  0  0  0  0  0  0  0  0  0  0
    4.3053    0.6334    0.0000 C   0  0  0  0  0  0  0  0  0  0  0  0
    4.6346   -0.2916    0.0000 C   0  0  0  0  0  0  0  0  0  0  0  0
    0.0356   -0.2041    0.0000 C   0  0  0  0  0  0  0  0  0  0  0  0
    3.9931   -1.0457    0.0000 C   0  0  0  0  0  0  0  0  0  0  0  0
   -1.6767    1.0664    0.0000 C   0  0  0  0  0  0  0  0  0  0  0  0
    1.6727    0.2959    0.0000 S   0  0  0  0  0  0  0  0  0  0  0  0
   -1.2642    1.9788    0.0000 N   0  0  0  0  0  0  0  0  0  0  0  0
    0.9936   -0.4208    0.0000 C   0  0  3  0  0  0  0  0  0  0  0  0
   -0.2645    0.7332    0.0000 O   0  0  0  0  0  0  0  0  0  0  0  0
    4.9469    1.4205    0.0000 O   0  0  0  0  0  0  0  0  0  0  0  0
   -3.8764    0.5666    0.0000 C   0  0  0  0  0  0  0  0  0  0  0  0
   -4.1470   -1.4038    0.0000 C   0  0  0  0  0  0  0  0  0  0  0  0
    4.3346   -1.9788    0.0000 C   0  0  0  0  0  0  0  0  0  0  0  0
    1.2935   -1.3788    0.0000 C   0  0  0  0  0  0  0  0  0  0  0  0
   -4.8220    0.1917    0.0000 C   0  0  0  0  0  0  0  0  0  0  0  0
   -4.9469   -0.8206    0.0000 C   0  0  0  0  0  0  0  0  0  0  0  0
    2.2933   -1.6037    0.0000 C   0  0  0  0  0  0  0  0  0  0  0  0
  1  2  2  0  0  0  0
  3 15  1  0  0  0  0
  1  4  1  0  0  0  0
  3  5  1  0  0  0  0
  2  6  1  0  0  0  0
  1  7  1  0  0  0  0
  4  8  1  0  0  0  0
  6  8  2  0  0  0  0
  3  9  2  0  0  0  0
  5 10  1  0  0  0  0
 11 13  2  0  0  0  0
 10 11  1  0  0  0  0
  7 12  1  0  0  0  0
  9 13  1  0  0  0  0
  2 14  1  0  0  0  0
 15 17  1  0  0  0  0
 14 16  3  0  0  0  0
 12 17  1  0  0  0  0
 12 18  2  0  0  0  0
 10 19  2  0  0  0  0
  6 20  1  0  0  0  0
  8 21  1  0  0  0  0
 13 22  1  0  0  0  0
 17 23  1  0  0  0  0
 20 24  1  0  0  0  0
 21 25  1  0  0  0  0
 24 25  1  0  0  0  0
 23 26  1  0  0  0  0
M  END
> <IDNUMBER>
Y505-4336

> <available>
10

> <H_acceptor>
7

> <H_donor>
2

> <B_rotN>
7

> <N_O>
6

> <logP>
3.2377

> <logD>
1.9714

> <logSw>
-3.5473

> <PSA>
74.434

> <pKa_ma>
6.1579

> <pKa_mb>
-0.4871

> <N_Chirals>
1

> <Name>
N-(3-cyano-4,5,6,7-tetrahydro-1-benzothiophen-2-yl)-2-[(4-methyl-6-oxo-1,6-dihydropyrimidin-2-yl)sulfanyl]butanamide

> <Smile>
CCC(C(Nc(sc1c2CCCC1)c2C#N)=O)SC(N1)=NC(C)=CC1=O

> <Color>
ORANGE

> <Collection>
DC

> <InChI>
InChI=1S/C18H20N4O2S2/c1-3-13(26-18-20-10(2)8-15(23)21-18)16(24)22-17-12(9-19)11-6-4-5-7-14(11)25-17/h8,13H,3-7H2,1-2H3,(H,22,24)(H,20,21,23)/t13-/m0/s1

> <InChI Key>
ZWEWXSYMOXEWEX-ZDUSSCGKSA-N

> <PERCENTSP3>
44.4

> <Link>
https://www.chemdiv.com/catalog/screening-compounds/compound-Y505-4336/

> <MFCDNUMBER>
MFCD02056540

> <STEREO>
RACEMIC MIXTURE

> <State>
Solid

> <Similarity score>
0.18

$$$$
N-(6-tert-butyl-3-cyano-4,5,6,7-tetrahydro-1-benzothiophen-2-yl)-3,5-dimethyl-1,
  -OEChem-04222410502D

 25 27  0     0  0  0  0  0  0999 V2000
   -0.4519   -0.3644    0.0000 C   0  0  0  0  0  0  0  0  0  0  0  0
   -0.1771    0.5728    0.0000 C   0  0  0  0  0  0  0  0  0  0  0  0
    1.1516   -0.3561    0.0000 C   0  0  0  0  0  0  0  0  0  0  0  0
   -3.1135   -0.3644    0.0000 C   0  0  0  0  0  0  0  0  0  0  0  0
    0.8309    0.5811    0.0000 C   0  0  0  0  0  0  0  0  0  0  0  0
   -2.1679   -0.0645    0.0000 C   0  0  0  0  0  0  0  0  0  0  0  0
    0.3519   -0.9475    0.0000 S   0  0  0  0  0  0  0  0  0  0  0  0
   -1.4058   -0.7101    0.0000 N   0  0  0  0  0  0  0  0  0  0  0  0
   -4.7338   -0.2186    0.0000 N   0  0  0  0  0  0  0  0  0  0  0  0
   -4.5088   -1.1808    0.0000 O   0  0  0  0  0  0  0  0  0  0  0  0
   -3.5175   -1.2808    0.0000 C   0  0  0  0  0  0  0  0  0  0  0  0
   -3.8632    0.2896    0.0000 C   0  0  0  0  0  0  0  0  0  0  0  0
   -0.7851    1.3644    0.0000 C   0  0  0  0  0  0  0  0  0  0  0  0
    2.1346   -0.5559    0.0000 C   0  0  0  0  0  0  0  0  0  0  0  0
   -1.3974    2.1555    0.0000 N   0  0  0  0  0  0  0  0  0  0  0  0
    1.4889    1.3476    0.0000 C   0  0  0  0  0  0  0  0  0  0  0  0
    2.7969    0.1896    0.0000 C   0  0  3  0  0  0  0  0  0  0  0  0
   -1.9679    0.9185    0.0000 O   0  0  0  0  0  0  0  0  0  0  0  0
    3.7715   -0.0186    0.0000 C   0  0  0  0  0  0  0  0  0  0  0  0
    2.4803    1.1476    0.0000 C   0  0  0  0  0  0  0  0  0  0  0  0
   -3.0136   -2.1555    0.0000 C   0  0  0  0  0  0  0  0  0  0  0  0
   -3.7799    1.3099    0.0000 C   0  0  0  0  0  0  0  0  0  0  0  0
    4.7338   -0.2269    0.0000 C   0  0  0  0  0  0  0  0  0  0  0  0
    3.9799    0.9559    0.0000 C   0  0  0  0  0  0  0  0  0  0  0  0
    3.5508   -0.9934    0.0000 C   0  0  0  0  0  0  0  0  0  0  0  0
  1  2  2  0  0  0  0
  3  7  1  0  0  0  0
  4  6  1  0  0  0  0
  2  5  1  0  0  0  0
  3  5  2  0  0  0  0
  6  8  1  0  0  0  0
  1  7  1  0  0  0  0
  1  8  1  0  0  0  0
  9 12  2  0  0  0  0
  9 10  1  0  0  0  0
 10 11  1  0  0  0  0
  4 11  2  0  0  0  0
  4 12  1  0  0  0  0
  2 13  1  0  0  0  0
  3 14  1  0  0  0  0
 13 15  3  0  0  0  0
  5 16  1  0  0  0  0
 14 17  1  0  0  0  0
  6 18  2  0  0  0  0
 17 19  1  0  0  0  0
 16 20  1  0  0  0  0
 17 20  1  0  0  0  0
 11 21  1  0  0  0  0
 12 22  1  0  0  0  0
 19 23  1  0  0  0  0
 19 24  1  0  0  0  0
 19 25  1  0  0  0  0
M  END
> <IDNUMBER>
Y202-7736

> <available>
17

> <H_acceptor>
5

> <H_donor>
1

> <B_rotN>
5

> <N_O>
5

> <logP>
4.3154

> <logD>
0.9507

> <logSw>
-4.2547

> <PSA>
62.139

> <pKa_ma>
4.0354

> <pKa_mb>
-4.7208

> <N_Chirals>
1

> <Name>
N-(6-tert-butyl-3-cyano-4,5,6,7-tetrahydro-1-benzothiophen-2-yl)-3,5-dimethyl-1,2-oxazole-4-carboxamide

> <Smile>
CC(C)(C)C(CC1)Cc2c1c(C#N)c(NC(c1c(C)onc1C)=O)s2

> <Color>
YELLOW

> <Collection>
DC

> <InChI>
InChI=1S/C19H23N3O2S/c1-10-16(11(2)24-22-10)17(23)21-18-14(9-20)13-7-6-12(19(3,4)5)8-15(13)25-18/h12H,6-8H2,1-5H3,(H,21,23)/t12-/m1/s1

> <InChI Key>
AGTHXWXYQILABZ-GFCCVEGCSA-N

> <PERCENTSP3>
52.63

> <Link>
https://www.chemdiv.com/catalog/screening-compounds/compound-Y202-7736/

> <MFCDNUMBER>
MFCD03074916

> <STEREO>
RACEMIC MIXTURE

> <State>
Solid

> <Similarity score>
0.18

$$$$
6-acetyl-2-amino-4,5,6,7-tetrahydrothieno[2,3-c]pyridine-3-carbonitrile
  -OEChem-04222410502D

 15 16  0     0  0  0  0  0  0999 V2000
   -1.6639   -0.0438    0.0000 C   0  0  0  0  0  0  0  0  0  0  0  0
   -1.9763   -0.9850    0.0000 C   0  0  0  0  0  0  0  0  0  0  0  0
   -0.3602   -1.0016    0.0000 C   0  0  0  0  0  0  0  0  0  0  0  0
   -0.6684   -0.0438    0.0000 C   0  0  0  0  0  0  0  0  0  0  0  0
   -1.1682   -1.5764    0.0000 S   0  0  0  0  0  0  0  0  0  0  0  0
    1.2808   -0.4685    0.0000 N   0  0  0  0  0  0  0  0  0  0  0  0
    0.6143   -1.2141    0.0000 C   0  0  0  0  0  0  0  0  0  0  0  0
   -2.2512    0.7643    0.0000 C   0  0  0  0  0  0  0  0  0  0  0  0
    2.2637   -0.6810    0.0000 C   0  0  0  0  0  0  0  0  0  0  0  0
   -2.7593    1.6306    0.0000 N   0  0  0  0  0  0  0  0  0  0  0  0
   -0.0021    0.7060    0.0000 C   0  0  0  0  0  0  0  0  0  0  0  0
    0.9809    0.4935    0.0000 C   0  0  0  0  0  0  0  0  0  0  0  0
   -2.9259   -1.3015    0.0000 N   0  0  0  0  0  0  0  0  0  0  0  0
    2.9259    0.0604    0.0000 O   0  0  0  0  0  0  0  0  0  0  0  0
    2.5636   -1.6306    0.0000 C   0  0  0  0  0  0  0  0  0  0  0  0
  1  2  2  0  0  0  0
  3  4  2  0  0  0  0
  3  5  1  0  0  0  0
  1  4  1  0  0  0  0
  2  5  1  0  0  0  0
  6 12  1  0  0  0  0
  6  7  1  0  0  0  0
  3  7  1  0  0  0  0
  1  8  1  0  0  0  0
  6  9  1  0  0  0  0
  8 10  3  0  0  0  0
  4 11  1  0  0  0  0
 11 12  1  0  0  0  0
  2 13  1  0  0  0  0
  9 14  2  0  0  0  0
  9 15  1  0  0  0  0
M  END
> <IDNUMBER>
FF01-4909

> <available>
617

> <H_acceptor>
3

> <H_donor>
2

> <B_rotN>
2

> <N_O>
4

> <logP>
0.6311

> <logD>
0.6311

> <logSw>
-1.0388

> <PSA>
55.62

> <pKa_ma>
15.7067

> <pKa_mb>
-0.8396

> <N_Chirals>
0

> <Name>
6-acetyl-2-amino-4,5,6,7-tetrahydrothieno[2,3-c]pyridine-3-carbonitrile

> <Smile>
CC(N(CC1)Cc2c1c(C#N)c(N)s2)=O

> <Color>
ORANGE

> <Collection>
NC

> <InChI>
InChI=1S/C10H11N3OS/c1-6(14)13-3-2-7-8(4-11)10(12)15-9(7)5-13/h2-3,5,12H2,1H3

> <InChI Key>
ONWFDBVICXATKK-UHFFFAOYSA-N

> <PERCENTSP3>
40

> <Link>
https://www.chemdiv.com/catalog/screening-compounds/compound-FF01-4909/

> <MFCDNUMBER>
MFCD09743161

> <STEREO>
ACHIRAL

> <State>
Solid

> <Similarity score>
0.18

$$$$
N-(6-tert-butyl-3-cyano-4,5,6,7-tetrahydro-1-benzothiophen-2-yl)-2-{[4-methyl-6-
  -OEChem-04222410502D

 31 33  0     0  0  0  0  0  0999 V2000
   -0.9357    0.8103    0.0000 C   0  0  0  0  0  0  0  0  0  0  0  0
   -1.5042    1.6345    0.0000 C   0  0  0  0  0  0  0  0  0  0  0  0
   -2.4566    0.3127    0.0000 C   0  0  0  0  0  0  0  0  0  0  0  0
   -2.4566    1.3361    0.0000 C   0  0  0  0  0  0  0  0  0  0  0  0
   -1.5042    0.0143    0.0000 S   0  0  0  0  0  0  0  0  0  0  0  0
    5.0718   -2.6437    0.0000 C   0  0  0  0  0  0  0  0  0  0  0  0
    0.0687    0.8103    0.0000 N   0  0  0  0  0  0  0  0  0  0  0  0
    3.0726   -0.9190    0.0000 C   0  0  0  0  0  0  0  0  0  0  0  0
    3.5700   -1.7766    0.0000 N   0  0  0  0  0  0  0  0  0  0  0  0
    4.5742   -1.7766    0.0000 C   0  0  0  0  0  0  0  0  0  0  0  0
   -1.1822    2.5634    0.0000 C   0  0  0  0  0  0  0  0  0  0  0  0
    3.5700   -0.0520    0.0000 N   0  0  0  0  0  0  0  0  0  0  0  0
   -3.3235   -0.1848    0.0000 C   0  0  0  0  0  0  0  0  0  0  0  0
   -0.8647    3.4965    0.0000 N   0  0  0  0  0  0  0  0  0  0  0  0
   -3.3235    1.8334    0.0000 C   0  0  0  0  0  0  0  0  0  0  0  0
    0.5711   -0.0520    0.0000 C   0  0  0  0  0  0  0  0  0  0  0  0
    5.0718   -0.9190    0.0000 C   0  0  0  0  0  0  0  0  0  0  0  0
   -4.1813    0.3127    0.0000 C   0  0  3  0  0  0  0  0  0  0  0  0
    2.0727   -0.9190    0.0000 S   0  0  0  0  0  0  0  0  0  0  0  0
    4.5742   -0.0520    0.0000 C   0  0  0  0  0  0  0  0  0  0  0  0
   -5.0480   -0.1848    0.0000 C   0  0  0  0  0  0  0  0  0  0  0  0
   -4.1813    1.3361    0.0000 C   0  0  0  0  0  0  0  0  0  0  0  0
    0.0687   -0.9190    0.0000 O   0  0  0  0  0  0  0  0  0  0  0  0
    5.5597   -3.4965    0.0000 F   0  0  0  0  0  0  0  0  0  0  0  0
    5.9389   -2.1462    0.0000 F   0  0  0  0  0  0  0  0  0  0  0  0
    4.2095   -3.1411    0.0000 F   0  0  0  0  0  0  0  0  0  0  0  0
    1.5658   -0.0520    0.0000 C   0  0  0  0  0  0  0  0  0  0  0  0
   -5.9389   -0.7106    0.0000 C   0  0  0  0  0  0  0  0  0  0  0  0
   -4.5460   -1.0755    0.0000 C   0  0  0  0  0  0  0  0  0  0  0  0
   -5.5694    0.6728    0.0000 C   0  0  0  0  0  0  0  0  0  0  0  0
    5.0718    0.8103    0.0000 C   0  0  0  0  0  0  0  0  0  0  0  0
  1  2  2  0  0  0  0
  3  5  1  0  0  0  0
  2  4  1  0  0  0  0
  3  4  2  0  0  0  0
  1  5  1  0  0  0  0
  6 10  1  0  0  0  0
  1  7  1  0  0  0  0
  8 19  1  0  0  0  0
  8  9  2  0  0  0  0
  9 10  1  0  0  0  0
 10 17  2  0  0  0  0
  2 11  1  0  0  0  0
  8 12  1  0  0  0  0
  3 13  1  0  0  0  0
 11 14  3  0  0  0  0
  4 15  1  0  0  0  0
  7 16  1  0  0  0  0
 17 20  1  0  0  0  0
 13 18  1  0  0  0  0
 19 27  1  0  0  0  0
 12 20  2  0  0  0  0
 18 21  1  0  0  0  0
 15 22  1  0  0  0  0
 18 22  1  0  0  0  0
 16 23  2  0  0  0  0
  6 24  1  0  0  0  0
  6 25  1  0  0  0  0
  6 26  1  0  0  0  0
 16 27  1  0  0  0  0
 21 28  1  0  0  0  0
 21 29  1  0  0  0  0
 21 30  1  0  0  0  0
 20 31  1  0  0  0  0
M  END
> <IDNUMBER>
3112-5015

> <available>
25

> <H_acceptor>
6

> <H_donor>
1

> <B_rotN>
8

> <N_O>
5

> <logP>
5.5884

> <logD>
4.5557

> <logSw>
-5.4225

> <PSA>
56.987

> <pKa_ma>
6.4095

> <pKa_mb>
-0.3205

> <N_Chirals>
1

> <Name>
N-(6-tert-butyl-3-cyano-4,5,6,7-tetrahydro-1-benzothiophen-2-yl)-2-{[4-methyl-6-(trifluoromethyl)pyrimidin-2-yl]sulfanyl}acetamide

> <Smile>
CC(C)(C)C(CC1)Cc2c1c(C#N)c(NC(CSc1nc(C(F)(F)F)cc(C)n1)=O)s2

> <Color>
ORANGE

> <Collection>
DC

> <InChI>
InChI=1S/C21H23F3N4OS2/c1-11-7-16(21(22,23)24)27-19(26-11)30-10-17(29)28-18-14(9-25)13-6-5-12(20(2,3)4)8-15(13)31-18/h7,12H,5-6,8,10H2,1-4H3,(H,28,29)/t12-/m1/s1

> <InChI Key>
NHDQHVOHBGJOOL-GFCCVEGCSA-N

> <PERCENTSP3>
52.4

> <Link>
https://www.chemdiv.com/catalog/screening-compounds/compound-3112-5015/

> <MFCDNUMBER>
MFCD02086224

> <CLNUMBER>
CL1325

> <STEREO>
RACEMIC MIXTURE

> <State>
Solid

> <Similarity score>
0.18

$$$$
N-(3-cyano-4,5,6,7-tetrahydro-1-benzothiophen-2-yl)-2-[(4,6-dimethylpyrimidin-2-
  -OEChem-04222410502D

 26 28  0     0  0  0  0  0  0999 V2000
   -1.6087   -0.2787    0.0000 C   0  0  0  0  0  0  0  0  0  0  0  0
   -2.3679    0.3630    0.0000 C   0  0  0  0  0  0  0  0  0  0  0  0
   -1.9828   -1.1957    0.0000 S   0  0  0  0  0  0  0  0  0  0  0  0
   -3.2231   -0.1572    0.0000 C   0  0  0  0  0  0  0  0  0  0  0  0
   -0.6356   -0.0581    0.0000 N   0  0  0  0  0  0  0  0  0  0  0  0
    2.6525   -1.0994    0.0000 C   0  0  0  0  0  0  0  0  0  0  0  0
   -3.0213   -1.0687    0.0000 C   0  0  0  0  0  0  0  0  0  0  0  0
    0.0581   -0.7987    0.0000 C   0  0  0  0  0  0  0  0  0  0  0  0
    2.9533   -0.1572    0.0000 N   0  0  0  0  0  0  0  0  0  0  0  0
    3.3341   -1.8305    0.0000 N   0  0  0  0  0  0  0  0  0  0  0  0
   -2.2688    1.3614    0.0000 C   0  0  0  0  0  0  0  0  0  0  0  0
    1.6820   -1.3012    0.0000 S   0  0  0  0  0  0  0  0  0  0  0  0
   -2.1726    2.3598    0.0000 N   0  0  0  0  0  0  0  0  0  0  0  0
    1.0164   -0.5633    0.0000 C   0  0  3  0  0  0  0  0  0  0  0  0
    4.3045   -1.6231    0.0000 C   0  0  0  0  0  0  0  0  0  0  0  0
    3.9517    0.0662    0.0000 C   0  0  0  0  0  0  0  0  0  0  0  0
   -0.2426   -1.7434    0.0000 O   0  0  0  0  0  0  0  0  0  0  0  0
    4.6053   -0.6877    0.0000 C   0  0  0  0  0  0  0  0  0  0  0  0
   -4.2243    0.1558    0.0000 C   0  0  0  0  0  0  0  0  0  0  0  0
   -3.7311   -1.7742    0.0000 C   0  0  0  0  0  0  0  0  0  0  0  0
    1.3012    0.3630    0.0000 C   0  0  0  0  0  0  0  0  0  0  0  0
    4.9742   -2.3598    0.0000 C   0  0  0  0  0  0  0  0  0  0  0  0
    4.2764    0.9923    0.0000 C   0  0  0  0  0  0  0  0  0  0  0  0
   -4.9742   -0.5232    0.0000 C   0  0  0  0  0  0  0  0  0  0  0  0
   -4.7135   -1.5017    0.0000 C   0  0  0  0  0  0  0  0  0  0  0  0
    2.2996    0.6115    0.0000 C   0  0  0  0  0  0  0  0  0  0  0  0
  1  2  2  0  0  0  0
  1  3  1  0  0  0  0
  2  4  1  0  0  0  0
  1  5  1  0  0  0  0
  6 12  1  0  0  0  0
  3  7  1  0  0  0  0
  4  7  2  0  0  0  0
  5  8  1  0  0  0  0
  6  9  2  0  0  0  0
  6 10  1  0  0  0  0
  2 11  1  0  0  0  0
 11 13  3  0  0  0  0
 12 14  1  0  0  0  0
  8 14  1  0  0  0  0
 10 15  2  0  0  0  0
  9 16  1  0  0  0  0
 16 18  2  0  0  0  0
  8 17  2  0  0  0  0
 15 18  1  0  0  0  0
  4 19  1  0  0  0  0
  7 20  1  0  0  0  0
 14 21  1  0  0  0  0
 15 22  1  0  0  0  0
 16 23  1  0  0  0  0
 19 24  1  0  0  0  0
 20 25  1  0  0  0  0
 24 25  1  0  0  0  0
 21 26  1  0  0  0  0
M  END
> <IDNUMBER>
8008-3308

> <available>
2

> <H_acceptor>
6

> <H_donor>
1

> <B_rotN>
7

> <N_O>
5

> <logP>
4.412

> <logD>
2.9581

> <logSw>
-4.3163

> <PSA>
57.007

> <pKa_ma>
5.9617

> <pKa_mb>
0.319

> <N_Chirals>
1

> <Name>
N-(3-cyano-4,5,6,7-tetrahydro-1-benzothiophen-2-yl)-2-[(4,6-dimethylpyrimidin-2-yl)sulfanyl]butanamide

> <Smile>
CCC(C(Nc(sc1c2CCCC1)c2C#N)=O)Sc1nc(C)cc(C)n1

> <Color>
NOT COLORED

> <Collection>
DC

> <InChI>
InChI=1S/C19H22N4OS2/c1-4-15(26-19-21-11(2)9-12(3)22-19)17(24)23-18-14(10-20)13-7-5-6-8-16(13)25-18/h9,15H,4-8H2,1-3H3,(H,23,24)/t15-/m0/s1

> <InChI Key>
LQKVBZOLQQBYFL-HNNXBMFYSA-N

> <PERCENTSP3>
47.37

> <Link>
https://www.chemdiv.com/catalog/screening-compounds/compound-8008-3308/

> <MFCDNUMBER>
MFCD01305964

> <STEREO>
RACEMIC MIXTURE

> <State>
Solid

> <Similarity score>
0.18

$$$$
N-(3-cyano-6-methyl-4,5,6,7-tetrahydro-1-benzothiophen-2-yl)-4-(3-phenyl-1,2,4-o
  -OEChem-04222410502D

 29 32  0     0  0  0  0  0  0999 V2000
    1.7771    2.0606    0.0000 C   0  0  0  0  0  0  0  0  0  0  0  0
    1.9897    1.0688    0.0000 C   0  0  0  0  0  0  0  0  0  0  0  0
    2.9690    0.9605    0.0000 C   0  0  0  0  0  0  0  0  0  0  0  0
    3.3897    1.8814    0.0000 C   0  0  0  0  0  0  0  0  0  0  0  0
    2.6440    2.5440    0.0000 S   0  0  0  0  0  0  0  0  0  0  0  0
   -2.3188   -0.9272    0.0000 N   0  0  0  0  0  0  0  0  0  0  0  0
   -2.9230   -1.7189    0.0000 C   0  0  0  0  0  0  0  0  0  0  0  0
   -2.3607   -2.5440    0.0000 N   0  0  0  0  0  0  0  0  0  0  0  0
    0.8646    2.4688    0.0000 N   0  0  0  0  0  0  0  0  0  0  0  0
    1.3188    0.3105    0.0000 C   0  0  0  0  0  0  0  0  0  0  0  0
   -1.3814   -1.2438    0.0000 C   0  0  0  0  0  0  0  0  0  0  0  0
   -1.4104   -2.2564    0.0000 O   0  0  0  0  0  0  0  0  0  0  0  0
    0.6396   -0.4272    0.0000 N   0  0  0  0  0  0  0  0  0  0  0  0
    3.5440    0.1562    0.0000 C   0  0  0  0  0  0  0  0  0  0  0  0
    0.0562    1.8814    0.0000 C   0  0  0  0  0  0  0  0  0  0  0  0
    4.3815    1.9689    0.0000 C   0  0  0  0  0  0  0  0  0  0  0  0
   -3.9357   -1.6813    0.0000 C   0  0  0  0  0  0  0  0  0  0  0  0
   -0.8311    2.2689    0.0000 O   0  0  0  0  0  0  0  0  0  0  0  0
    4.5397    0.2357    0.0000 C   0  0  0  0  0  0  0  0  0  0  0  0
    4.9565    1.1563    0.0000 C   0  0  3  0  0  0  0  0  0  0  0  0
   -0.5562   -0.6688    0.0000 C   0  0  0  0  0  0  0  0  0  0  0  0
    0.1562    0.9186    0.0000 C   0  0  0  0  0  0  0  0  0  0  0  0
   -0.6563    0.3230    0.0000 C   0  0  0  0  0  0  0  0  0  0  0  0
   -4.4690   -2.5440    0.0000 C   0  0  0  0  0  0  0  0  0  0  0  0
   -4.4191   -0.8064    0.0000 C   0  0  0  0  0  0  0  0  0  0  0  0
    5.9566    1.2438    0.0000 C   0  0  0  0  0  0  0  0  0  0  0  0
   -5.4732   -2.5187    0.0000 C   0  0  0  0  0  0  0  0  0  0  0  0
   -5.4315   -0.7812    0.0000 C   0  0  0  0  0  0  0  0  0  0  0  0
   -5.9566   -1.6271    0.0000 C   0  0  0  0  0  0  0  0  0  0  0  0
  1  2  2  0  0  0  0
  2  3  1  0  0  0  0
  4  5  1  0  0  0  0
  3  4  2  0  0  0  0
  1  5  1  0  0  0  0
  6 11  2  0  0  0  0
  6  7  1  0  0  0  0
  8 12  1  0  0  0  0
  7  8  2  0  0  0  0
  1  9  1  0  0  0  0
  2 10  1  0  0  0  0
 11 21  1  0  0  0  0
 11 12  1  0  0  0  0
 10 13  3  0  0  0  0
  3 14  1  0  0  0  0
  9 15  1  0  0  0  0
  4 16  1  0  0  0  0
  7 17  1  0  0  0  0
 15 18  2  0  0  0  0
 14 19  1  0  0  0  0
 16 20  1  0  0  0  0
 19 20  1  0  0  0  0
 21 23  1  0  0  0  0
 15 22  1  0  0  0  0
 22 23  1  0  0  0  0
 17 24  2  0  0  0  0
 17 25  1  0  0  0  0
 20 26  1  0  0  0  0
 24 27  1  0  0  0  0
 27 29  2  0  0  0  0
 25 28  2  0  0  0  0
 28 29  1  0  0  0  0
M  END
> <IDNUMBER>
D321-0131

> <available>
150

> <H_acceptor>
6

> <H_donor>
1

> <B_rotN>
8

> <N_O>
6

> <logP>
4.7791

> <logD>
3.4659

> <logSw>
-4.7143

> <PSA>
71.23

> <pKa_ma>
6.1085

> <pKa_mb>
-3.8515

> <N_Chirals>
1

> <Name>
N-(3-cyano-6-methyl-4,5,6,7-tetrahydro-1-benzothiophen-2-yl)-4-(3-phenyl-1,2,4-oxadiazol-5-yl)butanamide

> <Smile>
CC(CC1)Cc2c1c(C#N)c(NC(CCCc1nc(-c3ccccc3)no1)=O)s2

> <Color>
ORANGE

> <Collection>
DC

> <InChI>
InChI=1S/C22H22N4O2S/c1-14-10-11-16-17(13-23)22(29-18(16)12-14)24-19(27)8-5-9-20-25-21(26-28-20)15-6-3-2-4-7-15/h2-4,6-7,14H,5,8-12H2,1H3,(H,24,27)/t14-/m1/s1

> <InChI Key>
NLKYBZFYKWKHNJ-CQSZACIVSA-N

> <PERCENTSP3>
36.4

> <Link>
https://www.chemdiv.com/catalog/screening-compounds/compound-D321-0131/

> <MFCDNUMBER>
MFCD14819072

> <CLNUMBER>
CL5000

> <STEREO>
RACEMIC MIXTURE

> <State>
Solid

> <Similarity score>
0.18

$$$$
N-[3-cyano-6-(2-methylbutan-2-yl)-4,5,6,7-tetrahydro-1-benzothiophen-2-yl]-2-(2,
  -OEChem-04222410502D

 30 32  0     0  0  0  0  0  0999 V2000
   -1.3187   -1.5208    0.0000 C   0  0  0  0  0  0  0  0  0  0  0  0
   -2.2729   -1.4750    0.0000 C   0  0  0  0  0  0  0  0  0  0  0  0
   -1.7312    0.0250    0.0000 C   0  0  0  0  0  0  0  0  0  0  0  0
   -2.4895   -0.4875    0.0000 C   0  0  0  0  0  0  0  0  0  0  0  0
   -0.9521   -0.5875    0.0000 S   0  0  0  0  0  0  0  0  0  0  0  0
   -0.7062   -2.4249    0.0000 N   0  0  0  0  0  0  0  0  0  0  0  0
    0.3021   -2.4249    0.0000 C   0  0  0  0  0  0  0  0  0  0  0  0
   -2.9395   -2.3041    0.0000 C   0  0  0  0  0  0  0  0  0  0  0  0
   -1.7937    0.9875    0.0000 C   0  0  0  0  0  0  0  0  0  0  0  0
   -3.6103   -3.1206    0.0000 N   0  0  0  0  0  0  0  0  0  0  0  0
    1.7228   -3.3374    0.0000 O   0  0  0  0  0  0  0  0  0  0  0  0
    2.2395   -2.5166    0.0000 C   0  0  0  0  0  0  0  0  0  0  0  0
   -3.4270   -0.0834    0.0000 C   0  0  0  0  0  0  0  0  0  0  0  0
    3.2227   -2.5166    0.0000 C   0  0  0  0  0  0  0  0  0  0  0  0
   -2.6561    1.4624    0.0000 C   0  0  3  0  0  0  0  0  0  0  0  0
    0.7563   -3.2999    0.0000 C   0  0  3  0  0  0  0  0  0  0  0  0
    3.7393   -1.7041    0.0000 C   0  0  0  0  0  0  0  0  0  0  0  0
   -2.6937    2.5332    0.0000 C   0  0  0  0  0  0  0  0  0  0  0  0
    0.8021   -1.5542    0.0000 O   0  0  0  0  0  0  0  0  0  0  0  0
   -3.5270    0.9125    0.0000 C   0  0  0  0  0  0  0  0  0  0  0  0
    1.7937   -1.6417    0.0000 C   0  0  0  0  0  0  0  0  0  0  0  0
    3.2728   -0.8208    0.0000 C   0  0  0  0  0  0  0  0  0  0  0  0
    3.7144   -3.3623    0.0000 Cl  0  0  0  0  0  0  0  0  0  0  0  0
    2.2853   -0.8208    0.0000 C   0  0  0  0  0  0  0  0  0  0  0  0
    3.7561    0.0083    0.0000 Cl  0  0  0  0  0  0  0  0  0  0  0  0
   -2.7561    3.5956    0.0000 C   0  0  0  0  0  0  0  0  0  0  0  0
   -3.7561    2.5083    0.0000 C   0  0  0  0  0  0  0  0  0  0  0  0
   -1.7062    2.5624    0.0000 C   0  0  0  0  0  0  0  0  0  0  0  0
    0.2396   -4.1290    0.0000 C   0  0  0  0  0  0  0  0  0  0  0  0
   -1.9062    4.1290    0.0000 C   0  0  0  0  0  0  0  0  0  0  0  0
  1  2  2  0  0  0  0
  3  5  1  0  0  0  0
  3  4  2  0  0  0  0
  2  4  1  0  0  0  0
  1  5  1  0  0  0  0
  1  6  1  0  0  0  0
  6  7  1  0  0  0  0
  2  8  1  0  0  0  0
  3  9  1  0  0  0  0
  8 10  3  0  0  0  0
 11 16  1  0  0  0  0
 11 12  1  0  0  0  0
  4 13  1  0  0  0  0
 12 14  2  0  0  0  0
  9 15  1  0  0  0  0
 15 20  1  0  0  0  0
  7 16  1  0  0  0  0
 14 17  1  0  0  0  0
 17 22  2  0  0  0  0
 15 18  1  0  0  0  0
  7 19  2  0  0  0  0
 13 20  1  0  0  0  0
 12 21  1  0  0  0  0
 22 24  1  0  0  0  0
 14 23  1  0  0  0  0
 21 24  2  0  0  0  0
 22 25  1  0  0  0  0
 18 26  1  0  0  0  0
 18 27  1  0  0  0  0
 18 28  1  0  0  0  0
 16 29  1  0  0  0  0
 26 30  1  0  0  0  0
M  END
> <IDNUMBER>
Y503-0272

> <available>
20

> <H_acceptor>
4

> <H_donor>
1

> <B_rotN>
8

> <N_O>
4

> <logP>
6.8184

> <logD>
5.4004

> <logSw>
-6.5962

> <PSA>
46.977

> <pKa_ma>
5.9989

> <pKa_mb>
-5.485

> <N_Chirals>
2

> <Name>
N-[3-cyano-6-(2-methylbutan-2-yl)-4,5,6,7-tetrahydro-1-benzothiophen-2-yl]-2-(2,4-dichlorophenoxy)propanamide

> <Smile>
CCC(C)(C)C(CC1)Cc2c1c(C#N)c(NC(C(C)Oc(ccc(Cl)c1)c1Cl)=O)s2

> <Color>
ORANGE

> <Collection>
DC

> <InChI>
InChI=1S/C23H26Cl2N2O2S/c1-5-23(3,4)14-6-8-16-17(12-26)22(30-20(16)10-14)27-21(28)13(2)29-19-9-7-15(24)11-18(19)25/h7,9,11,13-14H,5-6,8,10H2,1-4H3,(H,27,28)

> <InChI Key>
DPDWBJUKNIVGST-UHFFFAOYSA-N

> <PERCENTSP3>
47.83

> <Link>
https://www.chemdiv.com/catalog/screening-compounds/compound-Y503-0272/

> <MFCDNUMBER>
MFCD01338412

> <STEREO>
MIXTURE OF STEREOISOMERS

> <State>
Solid

> <Similarity score>
0.18

$$$$
2-amino-6-benzyl-4,5,6,7-tetrahydrothieno[2,3-c]pyridine-3-carbonitrile
  -OEChem-04222410502D

 19 21  0     0  0  0  0  0  0999 V2000
    2.4979   -0.1417    0.0000 C   0  0  0  0  0  0  0  0  0  0  0  0
    2.7980   -1.1050    0.0000 C   0  0  0  0  0  0  0  0  0  0  0  0
    1.1843   -1.1050    0.0000 C   0  0  0  0  0  0  0  0  0  0  0  0
    1.4969   -0.1417    0.0000 C   0  0  0  0  0  0  0  0  0  0  0  0
    1.9973   -1.6721    0.0000 S   0  0  0  0  0  0  0  0  0  0  0  0
    3.0857    0.6588    0.0000 C   0  0  0  0  0  0  0  0  0  0  0  0
   -0.4669   -0.5670    0.0000 N   0  0  0  0  0  0  0  0  0  0  0  0
    3.6735    1.4720    0.0000 N   0  0  0  0  0  0  0  0  0  0  0  0
    0.1960   -1.3176    0.0000 C   0  0  0  0  0  0  0  0  0  0  0  0
    0.8214    0.5920    0.0000 C   0  0  0  0  0  0  0  0  0  0  0  0
    3.7486   -1.4053    0.0000 N   0  0  0  0  0  0  0  0  0  0  0  0
   -0.1458    0.3918    0.0000 C   0  0  0  0  0  0  0  0  0  0  0  0
   -1.4426   -0.7839    0.0000 C   0  0  0  0  0  0  0  0  0  0  0  0
   -2.1181   -0.0333    0.0000 C   0  0  0  0  0  0  0  0  0  0  0  0
   -1.8055    0.9299    0.0000 C   0  0  0  0  0  0  0  0  0  0  0  0
   -3.0814   -0.2335    0.0000 C   0  0  0  0  0  0  0  0  0  0  0  0
   -3.7486    0.5171    0.0000 C   0  0  0  0  0  0  0  0  0  0  0  0
   -2.4685    1.6721    0.0000 C   0  0  0  0  0  0  0  0  0  0  0  0
   -3.4567    1.4595    0.0000 C   0  0  0  0  0  0  0  0  0  0  0  0
  1  2  2  0  0  0  0
  3  4  2  0  0  0  0
  3  5  1  0  0  0  0
  1  4  1  0  0  0  0
  2  5  1  0  0  0  0
  1  6  1  0  0  0  0
  7 12  1  0  0  0  0
  7  9  1  0  0  0  0
  6  8  3  0  0  0  0
  3  9  1  0  0  0  0
  4 10  1  0  0  0  0
  2 11  1  0  0  0  0
 10 12  1  0  0  0  0
  7 13  1  0  0  0  0
 13 14  1  0  0  0  0
 14 15  1  0  0  0  0
 14 16  2  0  0  0  0
 16 17  1  0  0  0  0
 15 18  2  0  0  0  0
 18 19  1  0  0  0  0
 17 19  2  0  0  0  0
M  END
> <IDNUMBER>
Y512-7452

> <available>
33

> <H_acceptor>
2

> <H_donor>
2

> <B_rotN>
3

> <N_O>
3

> <logP>
2.536

> <logD>
2.535

> <logSw>
-2.519

> <PSA>
41.97

> <pKa_ma>
15.47

> <pKa_mb>
4.753

> <N_Chirals>
0

> <Name>
2-amino-6-benzyl-4,5,6,7-tetrahydrothieno[2,3-c]pyridine-3-carbonitrile

> <Smile>
c1(c(sc2c1CCN(C2)Cc1ccccc1)N)C#N

> <Color>
BROWN

> <Collection>
DC

> <InChI>
InChI=1S/C15H15N3S/c16-8-13-12-6-7-18(10-14(12)19-15(13)17)9-11-4-2-1-3-5-11/h1-5H,6-7,9-10,17H2

> <InChI Key>
BWNBNBHFRHCKTK-UHFFFAOYSA-N

> <PERCENTSP3>
26.67

> <Link>
https://www.chemdiv.com/catalog/screening-compounds/compound-Y512-7452/

> <MFCDNUMBER>
MFCD00425859

> <STEREO>
ACHIRAL

> <State>
Solid

> <Similarity score>
0.18

$$$$
2-amino-6-methyl-4,5,6,7-tetrahydrothieno[2,3-c]pyridine-3-carbonitrile
  -OEChem-04222410502D

 13 14  0     0  0  0  0  0  0999 V2000
    0.9791   -0.0515    0.0000 C   0  0  0  0  0  0  0  0  0  0  0  0
    1.5684   -0.8581    0.0000 C   0  0  0  0  0  0  0  0  0  0  0  0
    0.0292   -0.3540    0.0000 C   0  0  0  0  0  0  0  0  0  0  0  0
    0.0292   -1.3555    0.0000 C   0  0  0  0  0  0  0  0  0  0  0  0
    0.9791   -1.6693    0.0000 S   0  0  0  0  0  0  0  0  0  0  0  0
    1.2861    0.9030    0.0000 C   0  0  0  0  0  0  0  0  0  0  0  0
    1.5415    1.8663    0.0000 N   0  0  0  0  0  0  0  0  0  0  0  0
   -1.6983   -1.3622    0.0000 N   0  0  0  0  0  0  0  0  0  0  0  0
   -0.8379   -1.8529    0.0000 C   0  0  0  0  0  0  0  0  0  0  0  0
   -0.8379    0.1434    0.0000 C   0  0  0  0  0  0  0  0  0  0  0  0
    2.5700   -0.8581    0.0000 N   0  0  0  0  0  0  0  0  0  0  0  0
   -1.6983   -0.3540    0.0000 C   0  0  0  0  0  0  0  0  0  0  0  0
   -2.5700   -1.8663    0.0000 C   0  0  0  0  0  0  0  0  0  0  0  0
  1  2  2  0  0  0  0
  1  3  1  0  0  0  0
  3  4  2  0  0  0  0
  4  5  1  0  0  0  0
  2  5  1  0  0  0  0
  1  6  1  0  0  0  0
  6  7  3  0  0  0  0
  8 12  1  0  0  0  0
  4  9  1  0  0  0  0
  8  9  1  0  0  0  0
  3 10  1  0  0  0  0
  2 11  1  0  0  0  0
 10 12  1  0  0  0  0
  8 13  1  0  0  0  0
M  END
> <IDNUMBER>
K815-1018

> <available>
11

> <H_acceptor>
2

> <H_donor>
2

> <B_rotN>
1

> <N_O>
3

> <logP>
0.7961

> <logD>
0.7867

> <logSw>
-0.8538

> <PSA>
41.902

> <pKa_ma>
15.4685

> <pKa_mb>
5.7408

> <N_Chirals>
0

> <Name>
2-amino-6-methyl-4,5,6,7-tetrahydrothieno[2,3-c]pyridine-3-carbonitrile

> <Smile>
CN(CC1)Cc2c1c(C#N)c(N)s2

> <Color>
YELLOW

> <Collection>
DC

> <InChI>
InChI=1S/C9H11N3S/c1-12-3-2-6-7(4-10)9(11)13-8(6)5-12/h2-3,5,11H2,1H3

> <InChI Key>
WVPOJZUKIIRHOQ-UHFFFAOYSA-N

> <PERCENTSP3>
44.4

> <Link>
https://www.chemdiv.com/catalog/screening-compounds/compound-K815-1018/

> <MFCDNUMBER>
MFCD00712387

> <CLNUMBER>
CL5675

> <STEREO>
ACHIRAL

> <State>
Solid

> <Similarity score>
0.18

$$$$
2-amino-4,5-dihydronaphtho[2,1-b]thiophene-1-carbonitrile
  -OEChem-04222410502D

 16 18  0     0  0  0  0  0  0999 V2000
    0.9270   -0.3728    0.0000 C   0  0  0  0  0  0  0  0  0  0  0  0
   -0.0562   -0.4354    0.0000 C   0  0  0  0  0  0  0  0  0  0  0  0
    1.3062   -1.3187    0.0000 C   0  0  0  0  0  0  0  0  0  0  0  0
   -0.3146   -1.3978    0.0000 C   0  0  0  0  0  0  0  0  0  0  0  0
    0.5270   -1.9519    0.0000 S   0  0  0  0  0  0  0  0  0  0  0  0
   -0.7604    0.2771    0.0000 C   0  0  0  0  0  0  0  0  0  0  0  0
    1.4561    0.4603    0.0000 C   0  0  0  0  0  0  0  0  0  0  0  0
    2.4435    0.4187    0.0000 N   0  0  0  0  0  0  0  0  0  0  0  0
   -1.2645   -1.6645    0.0000 C   0  0  0  0  0  0  0  0  0  0  0  0
   -1.7270    0.0062    0.0000 C   0  0  0  0  0  0  0  0  0  0  0  0
    2.2769   -1.5687    0.0000 N   0  0  0  0  0  0  0  0  0  0  0  0
   -1.9686   -0.9729    0.0000 C   0  0  0  0  0  0  0  0  0  0  0  0
   -0.5104    1.2520    0.0000 C   0  0  0  0  0  0  0  0  0  0  0  0
   -2.4435    0.7061    0.0000 C   0  0  0  0  0  0  0  0  0  0  0  0
   -1.2311    1.9519    0.0000 C   0  0  0  0  0  0  0  0  0  0  0  0
   -2.2061    1.6728    0.0000 C   0  0  0  0  0  0  0  0  0  0  0  0
  1  2  1  0  0  0  0
  1  3  2  0  0  0  0
  2  4  2  0  0  0  0
  4  5  1  0  0  0  0
  3  5  1  0  0  0  0
  2  6  1  0  0  0  0
  1  7  1  0  0  0  0
  7  8  3  0  0  0  0
  4  9  1  0  0  0  0
  9 12  1  0  0  0  0
  6 10  2  0  0  0  0
  3 11  1  0  0  0  0
 10 12  1  0  0  0  0
  6 13  1  0  0  0  0
 10 14  1  0  0  0  0
 13 15  2  0  0  0  0
 15 16  1  0  0  0  0
 14 16  2  0  0  0  0
M  END
> <IDNUMBER>
8019-5962

> <available>
15

> <H_acceptor>
1

> <H_donor>
2

> <B_rotN>
1

> <N_O>
2

> <logP>
3.0359

> <logD>
3.0359

> <logSw>
-3.4122

> <PSA>
38.22

> <pKa_ma>
19.2967

> <pKa_mb>
-4.5006

> <N_Chirals>
0

> <Name>
2-amino-4,5-dihydronaphtho[2,1-b]thiophene-1-carbonitrile

> <Smile>
Nc(sc(CC1)c2-c3c1cccc3)c2C#N

> <Color>
BROWN

> <Collection>
DC

> <InChI>
InChI=1S/C13H10N2S/c14-7-10-12-9-4-2-1-3-8(9)5-6-11(12)16-13(10)15/h1-4H,5-6,15H2

> <InChI Key>
KMUDCZOBMKTNNP-UHFFFAOYSA-N

> <PERCENTSP3>
15.38

> <Link>
https://www.chemdiv.com/catalog/screening-compounds/compound-8019-5962/

> <MFCDNUMBER>
MFCD00128275

> <STEREO>
ACHIRAL

> <State>
Solid

> <Similarity score>
0.18

$$$$
N-(3-cyano-6-methyl-4,5,6,7-tetrahydro-1-benzothiophen-2-yl)-5-methyl-4-[(4-nitr
  -OEChem-04222410502D

 32 35  0     0  0  0  0  0  0999 V2000
    2.2982    0.0604    0.0000 C   0  0  0  0  0  0  0  0  0  0  0  0
    0.2854    1.7899    0.0000 C   0  0  0  0  0  0  0  0  0  0  0  0
    1.8813   -0.8772    0.0000 C   0  0  0  0  0  0  0  0  0  0  0  0
   -0.6980    1.9063    0.0000 C   0  0  0  0  0  0  0  0  0  0  0  0
    2.6399   -1.5273    0.0000 C   0  0  0  0  0  0  0  0  0  0  0  0
    0.6980    2.6981    0.0000 N   0  0  0  0  0  0  0  0  0  0  0  0
    3.5024   -1.0315    0.0000 C   0  0  0  0  0  0  0  0  0  0  0  0
    3.2899   -0.0479    0.0000 S   0  0  0  0  0  0  0  0  0  0  0  0
    0.7939    0.9229    0.0000 C   0  0  0  0  0  0  0  0  0  0  0  0
    1.7981    0.9229    0.0000 N   0  0  0  0  0  0  0  0  0  0  0  0
   -4.2482   -2.3898    0.0000 N   0  3  0  0  0  0  0  0  0  0  0  0
   -0.0354    3.3732    0.0000 O   0  0  0  0  0  0  0  0  0  0  0  0
   -0.8979    2.8773    0.0000 C   0  0  0  0  0  0  0  0  0  0  0  0
    0.9354   -1.1022    0.0000 C   0  0  0  0  0  0  0  0  0  0  0  0
   -1.4563    1.2314    0.0000 C   0  0  0  0  0  0  0  0  0  0  0  0
   -0.0229   -1.3274    0.0000 N   0  0  0  0  0  0  0  0  0  0  0  0
    2.6149   -2.5106    0.0000 C   0  0  0  0  0  0  0  0  0  0  0  0
   -3.5024   -1.7272    0.0000 C   0  0  0  0  0  0  0  0  0  0  0  0
   -5.1983   -2.0730    0.0000 O   0  5  0  0  0  0  0  0  0  0  0  0
    4.3817   -1.5273    0.0000 C   0  0  0  0  0  0  0  0  0  0  0  0
   -4.0482   -3.3732    0.0000 O   0  0  0  0  0  0  0  0  0  0  0  0
    0.2979    0.0604    0.0000 O   0  0  0  0  0  0  0  0  0  0  0  0
   -1.2562    0.2602    0.0000 O   0  0  0  0  0  0  0  0  0  0  0  0
   -2.5564   -2.0481    0.0000 C   0  0  0  0  0  0  0  0  0  0  0  0
   -3.7064   -0.7439    0.0000 C   0  0  0  0  0  0  0  0  0  0  0  0
   -2.0023   -0.4022    0.0000 C   0  0  0  0  0  0  0  0  0  0  0  0
    3.4941   -3.0316    0.0000 C   0  0  0  0  0  0  0  0  0  0  0  0
   -1.7981   -1.3855    0.0000 C   0  0  0  0  0  0  0  0  0  0  0  0
   -2.9481   -0.0812    0.0000 C   0  0  0  0  0  0  0  0  0  0  0  0
    4.3692   -2.5439    0.0000 C   0  0  3  0  0  0  0  0  0  0  0  0
   -1.8106    3.3024    0.0000 C   0  0  0  0  0  0  0  0  0  0  0  0
    5.1983   -3.0649    0.0000 C   0  0  0  0  0  0  0  0  0  0  0  0
  2  9  1  0  0  0  0
  1  3  2  0  0  0  0
  2  4  1  0  0  0  0
  3  5  1  0  0  0  0
  5  7  2  0  0  0  0
  2  6  2  0  0  0  0
  7  8  1  0  0  0  0
  1  8  1  0  0  0  0
  9 10  1  0  0  0  0
  1 10  1  0  0  0  0
 11 18  1  0  0  0  0
  6 12  1  0  0  0  0
 12 13  1  0  0  0  0
  4 13  2  0  0  0  0
  3 14  1  0  0  0  0
  4 15  1  0  0  0  0
 14 16  3  0  0  0  0
  5 17  1  0  0  0  0
 18 25  2  0  0  0  0
 18 24  1  0  0  0  0
 11 19  1  0  0  0  0
  7 20  1  0  0  0  0
 11 21  2  0  0  0  0
  9 22  2  0  0  0  0
 15 23  1  0  0  0  0
 24 28  2  0  0  0  0
 25 29  1  0  0  0  0
 23 26  1  0  0  0  0
 17 27  1  0  0  0  0
 27 30  1  0  0  0  0
 26 28  1  0  0  0  0
 26 29  2  0  0  0  0
 20 30  1  0  0  0  0
 13 31  1  0  0  0  0
 30 32  1  0  0  0  0
M  CHG  2  11   1  19  -1
M  END
> <IDNUMBER>
Y501-2466

> <available>
21

> <H_acceptor>
10

> <H_donor>
1

> <B_rotN>
8

> <N_O>
9

> <logP>
4.6934

> <logD>
2.2263

> <logSw>
-4.5311

> <PSA>
102.942

> <pKa_ma>
4.9343

> <pKa_mb>
-5.9439

> <N_Chirals>
1

> <Name>
N-(3-cyano-6-methyl-4,5,6,7-tetrahydro-1-benzothiophen-2-yl)-5-methyl-4-[(4-nitrophenoxy)methyl]-1,2-oxazole-3-carboxamide

> <Smile>
CC(CC1)Cc2c1c(C#N)c(NC(c1noc(C)c1COc(cc1)ccc1[N+]([O-])=O)=O)s2

> <Color>
BROWN

> <Collection>
DC

> <InChI>
InChI=1S/C22H20N4O5S/c1-12-3-8-16-17(10-23)22(32-19(16)9-12)24-21(27)20-18(13(2)31-25-20)11-30-15-6-4-14(5-7-15)26(28)29/h4-7,12H,3,8-9,11H2,1-2H3,(H,24,27)/t12-/m1/s1

> <InChI Key>
XUAMYCKGCIQYFI-GFCCVEGCSA-N

> <PERCENTSP3>
31.82

> <Link>
https://www.chemdiv.com/catalog/screening-compounds/compound-Y501-2466/

> <MFCDNUMBER>
MFCD08557540

> <STEREO>
RACEMIC MIXTURE

> <State>
Solid

> <Similarity score>
0.18

$$$$
N-(6-tert-butyl-3-cyano-4,5,6,7-tetrahydro-1-benzothiophen-2-yl)-2-[5-(2-chlorop
  -OEChem-04222410502D

 31 34  0     0  0  0  0  0  0999 V2000
    1.1815    0.1688    0.0000 C   0  0  0  0  0  0  0  0  0  0  0  0
    1.0313   -0.8187    0.0000 C   0  0  0  0  0  0  0  0  0  0  0  0
   -3.0061    0.4062    0.0000 C   0  0  0  0  0  0  0  0  0  0  0  0
   -3.0061    1.3687    0.0000 N   0  0  0  0  0  0  0  0  0  0  0  0
   -2.1770   -0.0689    0.0000 N   0  0  0  0  0  0  0  0  0  0  0  0
   -1.3439    1.3687    0.0000 N   0  0  0  0  0  0  0  0  0  0  0  0
    2.6230   -0.5647    0.0000 C   0  0  0  0  0  0  0  0  0  0  0  0
    1.9232   -1.2690    0.0000 C   0  0  0  0  0  0  0  0  0  0  0  0
   -1.3439    0.4062    0.0000 N   0  0  0  0  0  0  0  0  0  0  0  0
    2.1730    0.3187    0.0000 S   0  0  0  0  0  0  0  0  0  0  0  0
   -3.8396   -0.0689    0.0000 C   0  0  0  0  0  0  0  0  0  0  0  0
    0.4730    0.8688    0.0000 N   0  0  0  0  0  0  0  0  0  0  0  0
    0.2605    1.7980    0.0000 C   0  0  0  0  0  0  0  0  0  0  0  0
   -0.6645    2.0480    0.0000 C   0  0  0  0  0  0  0  0  0  0  0  0
    0.1440   -1.2690    0.0000 C   0  0  0  0  0  0  0  0  0  0  0  0
    3.5815   -0.8063    0.0000 C   0  0  0  0  0  0  0  0  0  0  0  0
   -0.6936   -0.7313    0.0000 N   0  0  0  0  0  0  0  0  0  0  0  0
    2.1813   -2.2188    0.0000 C   0  0  0  0  0  0  0  0  0  0  0  0
    3.8356   -1.7689    0.0000 C   0  0  3  0  0  0  0  0  0  0  0  0
    4.7983   -1.5063    0.0000 C   0  0  0  0  0  0  0  0  0  0  0  0
   -4.6689    0.4062    0.0000 C   0  0  0  0  0  0  0  0  0  0  0  0
    3.1355   -2.4814    0.0000 C   0  0  0  0  0  0  0  0  0  0  0  0
    0.9480    2.4814    0.0000 O   0  0  0  0  0  0  0  0  0  0  0  0
   -4.6689    1.4064    0.0000 Cl  0  0  0  0  0  0  0  0  0  0  0  0
   -3.8396   -1.0313    0.0000 C   0  0  0  0  0  0  0  0  0  0  0  0
    5.5105   -2.2064    0.0000 C   0  0  0  0  0  0  0  0  0  0  0  0
    3.9314   -1.0146    0.0000 C   0  0  0  0  0  0  0  0  0  0  0  0
    5.0481   -0.5397    0.0000 C   0  0  0  0  0  0  0  0  0  0  0  0
   -5.5105   -0.0689    0.0000 C   0  0  0  0  0  0  0  0  0  0  0  0
   -4.6689   -1.5145    0.0000 C   0  0  0  0  0  0  0  0  0  0  0  0
   -5.5105   -1.0313    0.0000 C   0  0  0  0  0  0  0  0  0  0  0  0
  1  2  2  0  0  0  0
  3  4  2  0  0  0  0
  5  9  2  0  0  0  0
  3  5  1  0  0  0  0
  4  6  1  0  0  0  0
  6 14  1  0  0  0  0
  7 10  1  0  0  0  0
  2  8  1  0  0  0  0
  7  8  2  0  0  0  0
  6  9  1  0  0  0  0
  1 10  1  0  0  0  0
  3 11  1  0  0  0  0
  1 12  1  0  0  0  0
 12 13  1  0  0  0  0
 13 14  1  0  0  0  0
  2 15  1  0  0  0  0
  7 16  1  0  0  0  0
 15 17  3  0  0  0  0
  8 18  1  0  0  0  0
 16 19  1  0  0  0  0
 19 22  1  0  0  0  0
 19 20  1  0  0  0  0
 11 21  1  0  0  0  0
 18 22  1  0  0  0  0
 13 23  2  0  0  0  0
 21 24  1  0  0  0  0
 11 25  2  0  0  0  0
 20 26  1  0  0  0  0
 20 27  1  0  0  0  0
 20 28  1  0  0  0  0
 21 29  2  0  0  0  0
 25 30  1  0  0  0  0
 30 31  2  0  0  0  0
 29 31  1  0  0  0  0
M  END
> <IDNUMBER>
8017-0245

> <available>
15

> <H_acceptor>
6

> <H_donor>
1

> <B_rotN>
7

> <N_O>
7

> <logP>
5.2368

> <logD>
4.4257

> <logSw>
-5.4989

> <PSA>
78.262

> <pKa_ma>
6.6618

> <pKa_mb>
-4.2821

> <N_Chirals>
1

> <Name>
N-(6-tert-butyl-3-cyano-4,5,6,7-tetrahydro-1-benzothiophen-2-yl)-2-[5-(2-chlorophenyl)-2H-tetrazol-2-yl]acetamide

> <Smile>
CC(C)(C)C(CC1)Cc2c1c(C#N)c(NC(Cn1nnc(-c(cccc3)c3Cl)n1)=O)s2

> <Color>
ORANGE

> <Collection>
DC

> <InChI>
InChI=1S/C22H23ClN6OS/c1-22(2,3)13-8-9-14-16(11-24)21(31-18(14)10-13)25-19(30)12-29-27-20(26-28-29)15-6-4-5-7-17(15)23/h4-7,13H,8-10,12H2,1-3H3,(H,25,30)/t13-/m1/s1

> <InChI Key>
JSPVLXXIMFMLNW-CYBMUJFWSA-N

> <PERCENTSP3>
40.91

> <Link>
https://www.chemdiv.com/catalog/screening-compounds/compound-8017-0245/

> <MFCDNUMBER>
MFCD06013500

> <STEREO>
RACEMIC MIXTURE

> <State>
Solid

> <Similarity score>
0.18

$$$$
2-{[5-cyano-4-(3-methoxyphenyl)-6-oxo-1,6-dihydropyrimidin-2-yl]sulfanyl}-N-(3-c
  -OEChem-04222410502D

 35 38  0     0  0  0  0  0  0999 V2000
   -3.6390   -0.1438    0.0000 C   0  0  0  0  0  0  0  0  0  0  0  0
   -4.5310    0.3064    0.0000 C   0  0  0  0  0  0  0  0  0  0  0  0
    2.5554    0.7564    0.0000 C   0  0  0  0  0  0  0  0  0  0  0  0
    2.4678   -0.2064    0.0000 C   0  0  0  0  0  0  0  0  0  0  0  0
    0.7420   -0.0522    0.0000 C   0  0  0  0  0  0  0  0  0  0  0  0
    0.8421    0.9566    0.0000 N   0  0  0  0  0  0  0  0  0  0  0  0
    1.7507    1.3735    0.0000 C   0  0  0  0  0  0  0  0  0  0  0  0
    1.5424   -0.6399    0.0000 N   0  0  0  0  0  0  0  0  0  0  0  0
   -3.7473   -1.0943    0.0000 S   0  0  0  0  0  0  0  0  0  0  0  0
   -5.2105   -0.4064    0.0000 C   0  0  0  0  0  0  0  0  0  0  0  0
   -2.7094    0.2855    0.0000 N   0  0  0  0  0  0  0  0  0  0  0  0
   -4.7102   -1.2942    0.0000 C   0  0  0  0  0  0  0  0  0  0  0  0
   -1.8966   -0.2897    0.0000 C   0  0  0  0  0  0  0  0  0  0  0  0
   -4.6978    1.2817    0.0000 C   0  0  0  0  0  0  0  0  0  0  0  0
    3.5306    1.1358    0.0000 C   0  0  0  0  0  0  0  0  0  0  0  0
    3.2556   -0.8067    0.0000 C   0  0  0  0  0  0  0  0  0  0  0  0
   -0.1834   -0.4439    0.0000 S   0  0  0  0  0  0  0  0  0  0  0  0
    4.4685    1.5193    0.0000 N   0  0  0  0  0  0  0  0  0  0  0  0
   -4.8978    2.2946    0.0000 N   0  0  0  0  0  0  0  0  0  0  0  0
   -0.9836    0.1312    0.0000 C   0  0  3  0  0  0  0  0  0  0  0  0
    1.8425    2.3822    0.0000 O   0  0  0  0  0  0  0  0  0  0  0  0
   -1.9884   -1.2942    0.0000 O   0  0  0  0  0  0  0  0  0  0  0  0
    4.1684   -0.4064    0.0000 C   0  0  0  0  0  0  0  0  0  0  0  0
    4.9812   -0.9943    0.0000 C   0  0  0  0  0  0  0  0  0  0  0  0
   -6.2067   -0.3647    0.0000 C   0  0  0  0  0  0  0  0  0  0  0  0
   -5.2480   -2.1322    0.0000 C   0  0  0  0  0  0  0  0  0  0  0  0
    3.1638   -1.8195    0.0000 C   0  0  0  0  0  0  0  0  0  0  0  0
    5.9191   -0.6149    0.0000 O   0  0  0  0  0  0  0  0  0  0  0  0
    3.9684   -2.3822    0.0000 C   0  0  0  0  0  0  0  0  0  0  0  0
   -0.8962    1.1358    0.0000 C   0  0  0  0  0  0  0  0  0  0  0  0
    4.8437   -1.9572    0.0000 C   0  0  0  0  0  0  0  0  0  0  0  0
    6.7070   -1.2444    0.0000 C   0  0  0  0  0  0  0  0  0  0  0  0
   -6.7070   -1.2444    0.0000 C   0  0  0  0  0  0  0  0  0  0  0  0
   -6.2318   -2.0779    0.0000 C   0  0  0  0  0  0  0  0  0  0  0  0
   -1.7340    1.7111    0.0000 C   0  0  0  0  0  0  0  0  0  0  0  0
  1  2  2  0  0  0  0
  3  4  2  0  0  0  0
  4  8  1  0  0  0  0
  5 17  1  0  0  0  0
  5  6  1  0  0  0  0
  6  7  1  0  0  0  0
  3  7  1  0  0  0  0
  5  8  2  0  0  0  0
  1  9  1  0  0  0  0
  2 10  1  0  0  0  0
  1 11  1  0  0  0  0
  9 12  1  0  0  0  0
 10 12  2  0  0  0  0
 11 13  1  0  0  0  0
  2 14  1  0  0  0  0
  3 15  1  0  0  0  0
  4 16  1  0  0  0  0
 17 20  1  0  0  0  0
 15 18  3  0  0  0  0
 14 19  3  0  0  0  0
 13 20  1  0  0  0  0
  7 21  2  0  0  0  0
 13 22  2  0  0  0  0
 16 23  1  0  0  0  0
 23 24  2  0  0  0  0
 24 31  1  0  0  0  0
 10 25  1  0  0  0  0
 12 26  1  0  0  0  0
 16 27  2  0  0  0  0
 24 28  1  0  0  0  0
 27 29  1  0  0  0  0
 20 30  1  0  0  0  0
 29 31  2  0  0  0  0
 28 32  1  0  0  0  0
 25 33  1  0  0  0  0
 26 34  1  0  0  0  0
 33 34  1  0  0  0  0
 30 35  1  0  0  0  0
M  END
> <IDNUMBER>
Y505-4327

> <available>
20

> <H_acceptor>
9

> <H_donor>
2

> <B_rotN>
10

> <N_O>
8

> <logP>
4.6957

> <logD>
1.5896

> <logSw>
-4.5689

> <PSA>
99.116

> <pKa_ma>
4.2943

> <pKa_mb>
0.8219

> <N_Chirals>
1

> <Name>
2-{[5-cyano-4-(3-methoxyphenyl)-6-oxo-1,6-dihydropyrimidin-2-yl]sulfanyl}-N-(3-cyano-4,5,6,7-tetrahydro-1-benzothiophen-2-yl)butanamide

> <Smile>
CCC(C(Nc(sc1c2CCCC1)c2C#N)=O)SC(NC1=O)=NC(c2cc(OC)ccc2)=C1C#N

> <Color>
NOT COLORED

> <Collection>
DC

> <InChI>
InChI=1S/C25H23N5O3S2/c1-3-19(23(32)29-24-17(12-26)16-9-4-5-10-20(16)34-24)35-25-28-21(18(13-27)22(31)30-25)14-7-6-8-15(11-14)33-2/h6-8,11,19H,3-5,9-10H2,1-2H3,(H,29,32)(H,28,30,31)/t19-/m0/s1

> <InChI Key>
MPEKJXXABYNDGH-IBGZPJMESA-N

> <PERCENTSP3>
32

> <Link>
https://www.chemdiv.com/catalog/screening-compounds/compound-Y505-4327/

> <MFCDNUMBER>
MFCD02056457

> <CLNUMBER>
CL6863

> <STEREO>
RACEMIC MIXTURE

> <State>
Solid

> <Similarity score>
0.18

$$$$
N-(6-tert-butyl-3-cyano-4,5,6,7-tetrahydro-1-benzothiophen-2-yl)-5-(propan-2-yl)
  -OEChem-04222410502D

 26 28  0     0  0  0  0  0  0999 V2000
   -0.0290   -0.5880    0.0000 C   0  0  0  0  0  0  0  0  0  0  0  0
   -0.8367   -1.1473    0.0000 C   0  0  0  0  0  0  0  0  0  0  0  0
    0.4498   -2.1298    0.0000 C   0  0  0  0  0  0  0  0  0  0  0  0
   -0.5583   -2.1092    0.0000 C   0  0  0  0  0  0  0  0  0  0  0  0
    0.7882    2.5811    0.0000 C   0  0  0  0  0  0  0  0  0  0  0  0
    0.7721   -1.1908    0.0000 S   0  0  0  0  0  0  0  0  0  0  0  0
    0.0906    3.2164    0.0000 N   0  0  0  0  0  0  0  0  0  0  0  0
   -0.0290    0.4247    0.0000 N   0  0  0  0  0  0  0  0  0  0  0  0
    1.5592    3.1979    0.0000 C   0  0  0  0  0  0  0  0  0  0  0  0
    0.8341    0.9240    0.0000 C   0  0  0  0  0  0  0  0  0  0  0  0
    1.2807    4.0655    0.0000 C   0  0  0  0  0  0  0  0  0  0  0  0
    0.3738    4.0749    0.0000 O   0  0  0  0  0  0  0  0  0  0  0  0
   -1.7779   -0.8159    0.0000 C   0  0  0  0  0  0  0  0  0  0  0  0
    0.9240   -3.0067    0.0000 C   0  0  0  0  0  0  0  0  0  0  0  0
   -2.7307   -0.4822    0.0000 N   0  0  0  0  0  0  0  0  0  0  0  0
   -1.0715   -2.9562    0.0000 C   0  0  0  0  0  0  0  0  0  0  0  0
    0.3945   -3.8629    0.0000 C   0  0  3  0  0  0  0  0  0  0  0  0
    0.8733   -4.7562    0.0000 C   0  0  0  0  0  0  0  0  0  0  0  0
    1.6053    0.4408    0.0000 O   0  0  0  0  0  0  0  0  0  0  0  0
   -0.5928   -3.8332    0.0000 C   0  0  0  0  0  0  0  0  0  0  0  0
    1.8307    4.8044    0.0000 C   0  0  0  0  0  0  0  0  0  0  0  0
   -0.0290   -5.2256    0.0000 C   0  0  0  0  0  0  0  0  0  0  0  0
    1.7662   -4.2910    0.0000 C   0  0  0  0  0  0  0  0  0  0  0  0
    1.3314   -5.6537    0.0000 C   0  0  0  0  0  0  0  0  0  0  0  0
    1.4694    5.6537    0.0000 C   0  0  0  0  0  0  0  0  0  0  0  0
    2.7307    4.7146    0.0000 C   0  0  0  0  0  0  0  0  0  0  0  0
  1  2  2  0  0  0  0
  3  6  1  0  0  0  0
  3  4  2  0  0  0  0
  2  4  1  0  0  0  0
  5 10  1  0  0  0  0
  1  6  1  0  0  0  0
  5  7  2  0  0  0  0
  1  8  1  0  0  0  0
  5  9  1  0  0  0  0
  8 10  1  0  0  0  0
  9 11  2  0  0  0  0
 11 12  1  0  0  0  0
  7 12  1  0  0  0  0
  2 13  1  0  0  0  0
  3 14  1  0  0  0  0
 13 15  3  0  0  0  0
  4 16  1  0  0  0  0
 14 17  1  0  0  0  0
 17 18  1  0  0  0  0
 10 19  2  0  0  0  0
 16 20  1  0  0  0  0
 17 20  1  0  0  0  0
 11 21  1  0  0  0  0
 18 22  1  0  0  0  0
 18 23  1  0  0  0  0
 18 24  1  0  0  0  0
 21 25  1  0  0  0  0
 21 26  1  0  0  0  0
M  END
> <IDNUMBER>
C226-2949

> <available>
121

> <H_acceptor>
5

> <H_donor>
1

> <B_rotN>
6

> <N_O>
5

> <logP>
5.462

> <logD>
3.7916

> <logSw>
-5.395

> <PSA>
61.908

> <pKa_ma>
5.739

> <pKa_mb>
-5.3583

> <N_Chirals>
1

> <Name>
N-(6-tert-butyl-3-cyano-4,5,6,7-tetrahydro-1-benzothiophen-2-yl)-5-(propan-2-yl)-1,2-oxazole-3-carboxamide

> <Smile>
CC(C)c1cc(C(Nc(sc(C2)c3CCC2C(C)(C)C)c3C#N)=O)no1

> <Color>
ORANGE

> <Collection>
DC

> <InChI>
InChI=1S/C20H25N3O2S/c1-11(2)16-9-15(23-25-16)18(24)22-19-14(10-21)13-7-6-12(20(3,4)5)8-17(13)26-19/h9,11-12H,6-8H2,1-5H3,(H,22,24)/t12-/m1/s1

> <InChI Key>
VAPAOKBCGGZGCD-GFCCVEGCSA-N

> <PERCENTSP3>
55

> <Link>
https://www.chemdiv.com/catalog/screening-compounds/compound-C226-2949/

> <MFCDNUMBER>
MFCD09782917

> <CLNUMBER>
CL2030

> <STEREO>
RACEMIC MIXTURE

> <State>
Solid

> <Similarity score>
0.18

$$$$
N-(6-tert-butyl-3-cyano-4,5,6,7-tetrahydro-1-benzothiophen-2-yl)-5-(4-methoxyphe
  -OEChem-04222410502D

 31 34  0     0  0  0  0  0  0999 V2000
   -0.3774   -1.8485    0.0000 C   0  0  0  0  0  0  0  0  0  0  0  0
   -1.1816   -2.4076    0.0000 C   0  0  0  0  0  0  0  0  0  0  0  0
    0.1020   -3.3898    0.0000 C   0  0  0  0  0  0  0  0  0  0  0  0
   -0.9036   -3.3721    0.0000 C   0  0  0  0  0  0  0  0  0  0  0  0
    0.5457    1.4553    0.0000 C   0  0  0  0  0  0  0  0  0  0  0  0
    0.4245   -2.4551    0.0000 S   0  0  0  0  0  0  0  0  0  0  0  0
   -0.2383    1.9790    0.0000 N   0  0  0  0  0  0  0  0  0  0  0  0
   -0.3774   -0.8401    0.0000 N   0  0  0  0  0  0  0  0  0  0  0  0
    1.2942    2.0293    0.0000 C   0  0  0  0  0  0  0  0  0  0  0  0
    0.4867   -0.3400    0.0000 C   0  0  0  0  0  0  0  0  0  0  0  0
    0.9658    2.9196    0.0000 C   0  0  0  0  0  0  0  0  0  0  0  0
    0.0281    2.8902    0.0000 O   0  0  0  0  0  0  0  0  0  0  0  0
   -2.1255   -2.0764    0.0000 C   0  0  0  0  0  0  0  0  0  0  0  0
    0.5783   -4.2684    0.0000 C   0  0  0  0  0  0  0  0  0  0  0  0
   -3.0777   -1.7420    0.0000 N   0  0  0  0  0  0  0  0  0  0  0  0
   -1.4184   -4.2181    0.0000 C   0  0  0  0  0  0  0  0  0  0  0  0
    0.0486   -5.1262    0.0000 C   0  0  3  0  0  0  0  0  0  0  0  0
    1.4951    3.7065    0.0000 C   0  0  0  0  0  0  0  0  0  0  0  0
    0.5277   -6.0165    0.0000 C   0  0  0  0  0  0  0  0  0  0  0  0
    1.3236   -0.7926    0.0000 O   0  0  0  0  0  0  0  0  0  0  0  0
   -0.9393   -5.0936    0.0000 C   0  0  0  0  0  0  0  0  0  0  0  0
    1.0840    4.5523    0.0000 C   0  0  0  0  0  0  0  0  0  0  0  0
    2.4329    3.6411    0.0000 C   0  0  0  0  0  0  0  0  0  0  0  0
    2.5482    5.2621    0.0000 C   0  0  0  0  0  0  0  0  0  0  0  0
    2.9625    4.4164    0.0000 C   0  0  0  0  0  0  0  0  0  0  0  0
    1.6016    5.3392    0.0000 C   0  0  0  0  0  0  0  0  0  0  0  0
    3.0777    6.0607    0.0000 O   0  0  0  0  0  0  0  0  0  0  0  0
   -0.3774   -6.4867    0.0000 C   0  0  0  0  0  0  0  0  0  0  0  0
    1.4152   -5.5522    0.0000 C   0  0  0  0  0  0  0  0  0  0  0  0
    0.9836   -6.9127    0.0000 C   0  0  0  0  0  0  0  0  0  0  0  0
    2.6608    6.9127    0.0000 C   0  0  0  0  0  0  0  0  0  0  0  0
  1  2  2  0  0  0  0
  3  6  1  0  0  0  0
  3  4  2  0  0  0  0
  2  4  1  0  0  0  0
  5 10  1  0  0  0  0
  1  6  1  0  0  0  0
  5  7  2  0  0  0  0
  1  8  1  0  0  0  0
  5  9  1  0  0  0  0
  8 10  1  0  0  0  0
  9 11  2  0  0  0  0
 11 12  1  0  0  0  0
  7 12  1  0  0  0  0
  2 13  1  0  0  0  0
  3 14  1  0  0  0  0
 13 15  3  0  0  0  0
  4 16  1  0  0  0  0
 14 17  1  0  0  0  0
 11 18  1  0  0  0  0
 17 19  1  0  0  0  0
 10 20  2  0  0  0  0
 16 21  1  0  0  0  0
 17 21  1  0  0  0  0
 18 22  1  0  0  0  0
 18 23  2  0  0  0  0
 24 25  2  0  0  0  0
 23 25  1  0  0  0  0
 22 26  2  0  0  0  0
 24 26  1  0  0  0  0
 24 27  1  0  0  0  0
 19 28  1  0  0  0  0
 19 29  1  0  0  0  0
 19 30  1  0  0  0  0
 27 31  1  0  0  0  0
M  END
> <IDNUMBER>
C226-0783

> <available>
181

> <H_acceptor>
6

> <H_donor>
1

> <B_rotN>
7

> <N_O>
6

> <logP>
6.0277

> <logD>
4.7367

> <logSw>
-5.5117

> <PSA>
69.18

> <pKa_ma>
6.1318

> <pKa_mb>
-6.8683

> <N_Chirals>
1

> <Name>
N-(6-tert-butyl-3-cyano-4,5,6,7-tetrahydro-1-benzothiophen-2-yl)-5-(4-methoxyphenyl)-1,2-oxazole-3-carboxamide

> <Smile>
CC(C)(C)C(CC1)Cc2c1c(C#N)c(NC(c1noc(-c(cc3)ccc3OC)c1)=O)s2

> <Color>
NOT COLORED

> <Collection>
DC

> <InChI>
InChI=1S/C24H25N3O3S/c1-24(2,3)15-7-10-17-18(13-25)23(31-21(17)11-15)26-22(28)19-12-20(30-27-19)14-5-8-16(29-4)9-6-14/h5-6,8-9,12,15H,7,10-11H2,1-4H3,(H,26,28)/t15-/m1/s1

> <InChI Key>
HODYNPFGZYSSKD-OAHLLOKOSA-N

> <PERCENTSP3>
37.5

> <Link>
https://www.chemdiv.com/catalog/screening-compounds/compound-C226-0783/

> <MFCDNUMBER>
MFCD09781984

> <CLNUMBER>
CL2028

> <STEREO>
RACEMIC MIXTURE

> <State>
Solid

> <Similarity score>
0.18

$$$$
N-(3-cyano-4,5,6,7-tetrahydro-1-benzothiophen-2-yl)-2-phenoxybutanamide
  -OEChem-04222410502D

 24 26  0     0  0  0  0  0  0999 V2000
    1.3694   -0.8691    0.0000 C   0  0  0  0  0  0  0  0  0  0  0  0
    1.9403   -0.0647    0.0000 C   0  0  0  0  0  0  0  0  0  0  0  0
    1.9403   -1.6736    0.0000 S   0  0  0  0  0  0  0  0  0  0  0  0
    2.8950   -0.3607    0.0000 C   0  0  0  0  0  0  0  0  0  0  0  0
    0.3730   -0.8691    0.0000 N   0  0  0  0  0  0  0  0  0  0  0  0
    2.8950   -1.3569    0.0000 C   0  0  0  0  0  0  0  0  0  0  0  0
   -0.1147   -0.0022    0.0000 C   0  0  0  0  0  0  0  0  0  0  0  0
    1.6235    0.8900    0.0000 C   0  0  0  0  0  0  0  0  0  0  0  0
    1.2818    1.8653    0.0000 N   0  0  0  0  0  0  0  0  0  0  0  0
   -1.1358   -0.0022    0.0000 C   0  0  3  0  0  0  0  0  0  0  0  0
   -1.6236    0.8690    0.0000 O   0  0  0  0  0  0  0  0  0  0  0  0
    0.3730    0.8483    0.0000 O   0  0  0  0  0  0  0  0  0  0  0  0
   -2.6199    0.8690    0.0000 C   0  0  0  0  0  0  0  0  0  0  0  0
    3.7662    0.1271    0.0000 C   0  0  0  0  0  0  0  0  0  0  0  0
    3.7662   -1.8653    0.0000 C   0  0  0  0  0  0  0  0  0  0  0  0
   -1.6236   -0.8691    0.0000 C   0  0  0  0  0  0  0  0  0  0  0  0
   -3.1285    0.0230    0.0000 C   0  0  0  0  0  0  0  0  0  0  0  0
   -3.1285    1.7403    0.0000 C   0  0  0  0  0  0  0  0  0  0  0  0
    4.6332   -0.3607    0.0000 C   0  0  0  0  0  0  0  0  0  0  0  0
    4.6332   -1.3569    0.0000 C   0  0  0  0  0  0  0  0  0  0  0  0
   -1.1358   -1.7403    0.0000 C   0  0  0  0  0  0  0  0  0  0  0  0
   -4.1247    0.0230    0.0000 C   0  0  0  0  0  0  0  0  0  0  0  0
   -4.1247    1.7612    0.0000 C   0  0  0  0  0  0  0  0  0  0  0  0
   -4.6332    0.8690    0.0000 C   0  0  0  0  0  0  0  0  0  0  0  0
  1  2  2  0  0  0  0
  1  3  1  0  0  0  0
  2  4  1  0  0  0  0
  1  5  1  0  0  0  0
  3  6  1  0  0  0  0
  4  6  2  0  0  0  0
  5  7  1  0  0  0  0
  2  8  1  0  0  0  0
  8  9  3  0  0  0  0
  7 10  1  0  0  0  0
 10 11  1  0  0  0  0
  7 12  2  0  0  0  0
 11 13  1  0  0  0  0
  4 14  1  0  0  0  0
  6 15  1  0  0  0  0
 10 16  1  0  0  0  0
 13 17  2  0  0  0  0
 13 18  1  0  0  0  0
 14 19  1  0  0  0  0
 19 20  1  0  0  0  0
 15 20  1  0  0  0  0
 16 21  1  0  0  0  0
 17 22  1  0  0  0  0
 18 23  2  0  0  0  0
 23 24  1  0  0  0  0
 22 24  2  0  0  0  0
M  END
> <IDNUMBER>
Y203-6112

> <available>
12

> <H_acceptor>
4

> <H_donor>
1

> <B_rotN>
7

> <N_O>
4

> <logP>
4.5466

> <logD>
2.9389

> <logSw>
-4.4714

> <PSA>
46.773

> <pKa_ma>
5.8032

> <pKa_mb>
-4.8807

> <N_Chirals>
1

> <Name>
N-(3-cyano-4,5,6,7-tetrahydro-1-benzothiophen-2-yl)-2-phenoxybutanamide

> <Smile>
CCC(C(Nc(sc1c2CCCC1)c2C#N)=O)Oc1ccccc1

> <Color>
BROWN

> <Collection>
DC

> <InChI>
InChI=1S/C19H20N2O2S/c1-2-16(23-13-8-4-3-5-9-13)18(22)21-19-15(12-20)14-10-6-7-11-17(14)24-19/h3-5,8-9,16H,2,6-7,10-11H2,1H3,(H,21,22)/t16-/m0/s1

> <InChI Key>
FYMKJXIUOQGUHW-INIZCTEOSA-N

> <PERCENTSP3>
36.84

> <Link>
https://www.chemdiv.com/catalog/screening-compounds/compound-Y203-6112/

> <MFCDNUMBER>
MFCD00851728

> <STEREO>
RACEMIC MIXTURE

> <State>
Solid

> <Similarity score>
0.18

$$$$
N-(3-cyano-5,6,7,8-tetrahydro-4H-cyclohepta[b]thiophen-2-yl)-2-(4-propylphenoxy)
  -OEChem-04222410502D

 27 29  0     0  0  0  0  0  0999 V2000
   -2.3662    0.0462    0.0000 C   0  0  0  0  0  0  0  0  0  0  0  0
   -2.3662    0.9946    0.0000 C   0  0  0  0  0  0  0  0  0  0  0  0
   -3.1983   -0.4257    0.0000 S   0  0  0  0  0  0  0  0  0  0  0  0
   -4.0530    0.9946    0.0000 C   0  0  0  0  0  0  0  0  0  0  0  0
   -1.5612   -0.4257    0.0000 N   0  0  0  0  0  0  0  0  0  0  0  0
   -4.0530    0.0205    0.0000 C   0  0  0  0  0  0  0  0  0  0  0  0
   -0.6999    0.0462    0.0000 C   0  0  0  0  0  0  0  0  0  0  0  0
   -1.5100    1.4716    0.0000 C   0  0  0  0  0  0  0  0  0  0  0  0
   -0.6487    1.9380    0.0000 N   0  0  0  0  0  0  0  0  0  0  0  0
    0.1359   -0.4257    0.0000 C   0  0  3  0  0  0  0  0  0  0  0  0
    1.0075    0.0616    0.0000 O   0  0  0  0  0  0  0  0  0  0  0  0
   -0.6999    1.0204    0.0000 O   0  0  0  0  0  0  0  0  0  0  0  0
    1.9713   -0.4409    0.0000 C   0  0  0  0  0  0  0  0  0  0  0  0
   -4.8630    1.5858    0.0000 C   0  0  0  0  0  0  0  0  0  0  0  0
   -4.8630   -0.5641    0.0000 C   0  0  0  0  0  0  0  0  0  0  0  0
    3.6275   -1.3895    0.0000 C   0  0  0  0  0  0  0  0  0  0  0  0
    1.9713   -1.3638    0.0000 C   0  0  0  0  0  0  0  0  0  0  0  0
    2.7917    0.0462    0.0000 C   0  0  0  0  0  0  0  0  0  0  0  0
    2.8174   -1.8355    0.0000 C   0  0  0  0  0  0  0  0  0  0  0  0
    3.6275   -0.4409    0.0000 C   0  0  0  0  0  0  0  0  0  0  0  0
    0.1462   -1.4254    0.0000 C   0  0  0  0  0  0  0  0  0  0  0  0
    4.4853   -1.8612    0.0000 C   0  0  0  0  0  0  0  0  0  0  0  0
    5.3246   -1.3895    0.0000 C   0  0  0  0  0  0  0  0  0  0  0  0
   -5.7962    1.4047    0.0000 C   0  0  0  0  0  0  0  0  0  0  0  0
   -5.7962   -0.3641    0.0000 C   0  0  0  0  0  0  0  0  0  0  0  0
    6.2371   -1.9380    0.0000 C   0  0  0  0  0  0  0  0  0  0  0  0
   -6.2371    0.5229    0.0000 C   0  0  0  0  0  0  0  0  0  0  0  0
  1  2  2  0  0  0  0
  1  3  1  0  0  0  0
  2  4  1  0  0  0  0
  1  5  1  0  0  0  0
  3  6  1  0  0  0  0
  4  6  2  0  0  0  0
  5  7  1  0  0  0  0
  2  8  1  0  0  0  0
  8  9  3  0  0  0  0
  7 10  1  0  0  0  0
 10 11  1  0  0  0  0
  7 12  2  0  0  0  0
 11 13  1  0  0  0  0
  4 14  1  0  0  0  0
  6 15  1  0  0  0  0
 16 20  2  0  0  0  0
 13 17  1  0  0  0  0
 13 18  2  0  0  0  0
 17 19  2  0  0  0  0
 16 19  1  0  0  0  0
 18 20  1  0  0  0  0
 10 21  1  0  0  0  0
 16 22  1  0  0  0  0
 22 23  1  0  0  0  0
 14 24  1  0  0  0  0
 15 25  1  0  0  0  0
 23 26  1  0  0  0  0
 25 27  1  0  0  0  0
 24 27  1  0  0  0  0
M  END
> <IDNUMBER>
8010-3485

> <available>
23

> <H_acceptor>
4

> <H_donor>
1

> <B_rotN>
8

> <N_O>
4

> <logP>
5.9046

> <logD>
4.4866

> <logSw>
-5.3852

> <PSA>
47.221

> <pKa_ma>
5.9989

> <pKa_mb>
-4.7655

> <N_Chirals>
1

> <Name>
N-(3-cyano-5,6,7,8-tetrahydro-4H-cyclohepta[b]thiophen-2-yl)-2-(4-propylphenoxy)propanamide

> <Smile>
CCCc(cc1)ccc1OC(C)C(Nc(sc1c2CCCCC1)c2C#N)=O

> <Color>
NOT COLORED

> <Collection>
DC

> <InChI>
InChI=1S/C22H26N2O2S/c1-3-7-16-10-12-17(13-11-16)26-15(2)21(25)24-22-19(14-23)18-8-5-4-6-9-20(18)27-22/h10-13,15H,3-9H2,1-2H3,(H,24,25)/t15-/m0/s1

> <InChI Key>
XDQQVUDIOGXBDB-HNNXBMFYSA-N

> <PERCENTSP3>
45.46

> <Link>
https://www.chemdiv.com/catalog/screening-compounds/compound-8010-3485/

> <MFCDNUMBER>
MFCD01871928

> <STEREO>
RACEMIC MIXTURE

> <State>
Solid

> <Similarity score>
0.18

$$$$
N-(3-cyano-5,6,7,8-tetrahydro-4H-cyclohepta[b]thiophen-2-yl)-2-(2,4-difluorophen
  -OEChem-04222410502D

 26 28  0     0  0  0  0  0  0999 V2000
   -1.9189    0.6020    0.0000 C   0  0  0  0  0  0  0  0  0  0  0  0
   -2.0813   -0.3605    0.0000 C   0  0  0  0  0  0  0  0  0  0  0  0
   -2.8190    1.0771    0.0000 S   0  0  0  0  0  0  0  0  0  0  0  0
   -3.0649   -0.5230    0.0000 C   0  0  0  0  0  0  0  0  0  0  0  0
   -0.9770    0.9856    0.0000 N   0  0  0  0  0  0  0  0  0  0  0  0
   -3.5190    0.3397    0.0000 C   0  0  0  0  0  0  0  0  0  0  0  0
   -0.1854    0.3397    0.0000 C   0  0  0  0  0  0  0  0  0  0  0  0
   -1.3524   -1.0773    0.0000 C   0  0  0  0  0  0  0  0  0  0  0  0
   -0.6647   -1.7772    0.0000 N   0  0  0  0  0  0  0  0  0  0  0  0
    1.5440    0.0646    0.0000 O   0  0  0  0  0  0  0  0  0  0  0  0
    2.4981    0.4521    0.0000 C   0  0  0  0  0  0  0  0  0  0  0  0
    3.2566   -0.1771    0.0000 C   0  0  0  0  0  0  0  0  0  0  0  0
    0.7564    0.6938    0.0000 C   0  0  3  0  0  0  0  0  0  0  0  0
    4.1776    0.1771    0.0000 C   0  0  0  0  0  0  0  0  0  0  0  0
   -0.3397   -0.6315    0.0000 O   0  0  0  0  0  0  0  0  0  0  0  0
    2.6482    1.4439    0.0000 C   0  0  0  0  0  0  0  0  0  0  0  0
    4.3400    1.1480    0.0000 C   0  0  0  0  0  0  0  0  0  0  0  0
    3.1149   -1.1605    0.0000 F   0  0  0  0  0  0  0  0  0  0  0  0
    3.5691    1.7772    0.0000 C   0  0  0  0  0  0  0  0  0  0  0  0
   -3.4190   -1.4523    0.0000 C   0  0  0  0  0  0  0  0  0  0  0  0
    5.2608    1.4855    0.0000 F   0  0  0  0  0  0  0  0  0  0  0  0
   -4.5315    0.5312    0.0000 C   0  0  0  0  0  0  0  0  0  0  0  0
    0.9063    1.6772    0.0000 C   0  0  0  0  0  0  0  0  0  0  0  0
   -4.3691   -1.7481    0.0000 C   0  0  0  0  0  0  0  0  0  0  0  0
   -5.2608   -0.1563    0.0000 C   0  0  0  0  0  0  0  0  0  0  0  0
   -5.1983   -1.1605    0.0000 C   0  0  0  0  0  0  0  0  0  0  0  0
  1  2  2  0  0  0  0
  1  3  1  0  0  0  0
  2  4  1  0  0  0  0
  4  6  2  0  0  0  0
  1  5  1  0  0  0  0
  3  6  1  0  0  0  0
  5  7  1  0  0  0  0
  2  8  1  0  0  0  0
  8  9  3  0  0  0  0
 10 13  1  0  0  0  0
 10 11  1  0  0  0  0
 11 12  2  0  0  0  0
  7 13  1  0  0  0  0
 12 14  1  0  0  0  0
  7 15  2  0  0  0  0
 11 16  1  0  0  0  0
 17 19  1  0  0  0  0
 14 17  2  0  0  0  0
 12 18  1  0  0  0  0
 16 19  2  0  0  0  0
  4 20  1  0  0  0  0
 17 21  1  0  0  0  0
  6 22  1  0  0  0  0
 13 23  1  0  0  0  0
 20 24  1  0  0  0  0
 22 25  1  0  0  0  0
 25 26  1  0  0  0  0
 24 26  1  0  0  0  0
M  END
> <IDNUMBER>
Y205-6163

> <available>
2

> <H_acceptor>
4

> <H_donor>
1

> <B_rotN>
6

> <N_O>
4

> <logP>
4.7094

> <logD>
3.2914

> <logSw>
-4.5444

> <PSA>
47.307

> <pKa_ma>
5.9989

> <pKa_mb>
-5.1628

> <N_Chirals>
1

> <Name>
N-(3-cyano-5,6,7,8-tetrahydro-4H-cyclohepta[b]thiophen-2-yl)-2-(2,4-difluorophenoxy)propanamide

> <Smile>
CC(C(Nc(sc1c2CCCCC1)c2C#N)=O)Oc(ccc(F)c1)c1F

> <Color>
BROWN

> <Collection>
DC

> <InChI>
InChI=1S/C19H18F2N2O2S/c1-11(25-16-8-7-12(20)9-15(16)21)18(24)23-19-14(10-22)13-5-3-2-4-6-17(13)26-19/h7-9,11H,2-6H2,1H3,(H,23,24)/t11-/m0/s1

> <InChI Key>
DUTGSXOBDMKFML-NSHDSACASA-N

> <PERCENTSP3>
36.84

> <Link>
https://www.chemdiv.com/catalog/screening-compounds/compound-Y205-6163/

> <MFCDNUMBER>
MFCD07182342

> <STEREO>
RACEMIC MIXTURE

> <State>
Solid

> <Similarity score>
0.18

$$$$
N-(6-tert-butyl-3-cyano-4,5,6,7-tetrahydro-1-benzothiophen-2-yl)-5-(3-methoxyphe
  -OEChem-04222410502D

 31 34  0     0  0  0  0  0  0999 V2000
   -1.1277   -0.9895    0.0000 C   0  0  0  0  0  0  0  0  0  0  0  0
   -1.9338   -1.5470    0.0000 C   0  0  0  0  0  0  0  0  0  0  0  0
   -0.6480   -2.5316    0.0000 C   0  0  0  0  0  0  0  0  0  0  0  0
   -1.6578   -2.5114    0.0000 C   0  0  0  0  0  0  0  0  0  0  0  0
   -0.3091    2.2378    0.0000 C   0  0  0  0  0  0  0  0  0  0  0  0
   -0.3241   -1.5923    0.0000 S   0  0  0  0  0  0  0  0  0  0  0  0
   -1.0673    2.8179    0.0000 N   0  0  0  0  0  0  0  0  0  0  0  0
   -1.1277    0.0225    0.0000 N   0  0  0  0  0  0  0  0  0  0  0  0
    0.4773    2.7728    0.0000 C   0  0  0  0  0  0  0  0  0  0  0  0
   -0.2639    0.5223    0.0000 C   0  0  0  0  0  0  0  0  0  0  0  0
    0.2060    3.6821    0.0000 C   0  0  0  0  0  0  0  0  0  0  0  0
   -0.7485    3.7071    0.0000 O   0  0  0  0  0  0  0  0  0  0  0  0
   -2.8785   -1.2156    0.0000 C   0  0  0  0  0  0  0  0  0  0  0  0
   -0.1734   -3.4082    0.0000 C   0  0  0  0  0  0  0  0  0  0  0  0
   -3.8303   -0.8841    0.0000 N   0  0  0  0  0  0  0  0  0  0  0  0
   -2.1703   -3.3580    0.0000 C   0  0  0  0  0  0  0  0  0  0  0  0
    0.7961    4.4329    0.0000 C   0  0  0  0  0  0  0  0  0  0  0  0
   -0.7033   -4.2671    0.0000 C   0  0  3  0  0  0  0  0  0  0  0  0
   -0.2236   -5.1589    0.0000 C   0  0  0  0  0  0  0  0  0  0  0  0
    0.5475    0.0225    0.0000 O   0  0  0  0  0  0  0  0  0  0  0  0
   -1.6928   -4.2370    0.0000 C   0  0  0  0  0  0  0  0  0  0  0  0
    1.7305    4.3123    0.0000 C   0  0  0  0  0  0  0  0  0  0  0  0
    2.3054    5.0582    0.0000 C   0  0  0  0  0  0  0  0  0  0  0  0
    3.2450    4.9226    0.0000 O   0  0  0  0  0  0  0  0  0  0  0  0
    0.4269    5.2994    0.0000 C   0  0  0  0  0  0  0  0  0  0  0  0
    1.0047    6.0579    0.0000 C   0  0  0  0  0  0  0  0  0  0  0  0
   -1.1277   -5.6284    0.0000 C   0  0  0  0  0  0  0  0  0  0  0  0
    0.6681   -4.6941    0.0000 C   0  0  0  0  0  0  0  0  0  0  0  0
    0.2361   -6.0579    0.0000 C   0  0  0  0  0  0  0  0  0  0  0  0
    1.9414    5.9351    0.0000 C   0  0  0  0  0  0  0  0  0  0  0  0
    3.8303    5.6787    0.0000 C   0  0  0  0  0  0  0  0  0  0  0  0
  1  2  2  0  0  0  0
  3  6  1  0  0  0  0
  3  4  2  0  0  0  0
  2  4  1  0  0  0  0
  5 10  1  0  0  0  0
  1  6  1  0  0  0  0
  5  7  2  0  0  0  0
  1  8  1  0  0  0  0
  5  9  1  0  0  0  0
  8 10  1  0  0  0  0
  9 11  2  0  0  0  0
 11 12  1  0  0  0  0
  7 12  1  0  0  0  0
  2 13  1  0  0  0  0
  3 14  1  0  0  0  0
 13 15  3  0  0  0  0
  4 16  1  0  0  0  0
 11 17  1  0  0  0  0
 14 18  1  0  0  0  0
 18 19  1  0  0  0  0
 10 20  2  0  0  0  0
 16 21  1  0  0  0  0
 18 21  1  0  0  0  0
 17 22  2  0  0  0  0
 22 23  1  0  0  0  0
 23 30  2  0  0  0  0
 23 24  1  0  0  0  0
 17 25  1  0  0  0  0
 25 26  2  0  0  0  0
 19 27  1  0  0  0  0
 19 28  1  0  0  0  0
 19 29  1  0  0  0  0
 26 30  1  0  0  0  0
 24 31  1  0  0  0  0
M  END
> <IDNUMBER>
C226-0897

> <available>
235

> <H_acceptor>
6

> <H_donor>
1

> <B_rotN>
7

> <N_O>
6

> <logP>
6.0123

> <logD>
4.7213

> <logSw>
-5.5449

> <PSA>
69.18

> <pKa_ma>
6.1318

> <pKa_mb>
-6.8683

> <N_Chirals>
1

> <Name>
N-(6-tert-butyl-3-cyano-4,5,6,7-tetrahydro-1-benzothiophen-2-yl)-5-(3-methoxyphenyl)-1,2-oxazole-3-carboxamide

> <Smile>
CC(C)(C)C(CC1)Cc2c1c(C#N)c(NC(c1noc(-c3cc(OC)ccc3)c1)=O)s2

> <Color>
NOT COLORED

> <Collection>
DC

> <InChI>
InChI=1S/C24H25N3O3S/c1-24(2,3)15-8-9-17-18(13-25)23(31-21(17)11-15)26-22(28)19-12-20(30-27-19)14-6-5-7-16(10-14)29-4/h5-7,10,12,15H,8-9,11H2,1-4H3,(H,26,28)/t15-/m1/s1

> <InChI Key>
FUETUFSSHFXHMC-OAHLLOKOSA-N

> <PERCENTSP3>
37.5

> <Link>
https://www.chemdiv.com/catalog/screening-compounds/compound-C226-0897/

> <MFCDNUMBER>
MFCD09782069

> <CLNUMBER>
CL2028

> <STEREO>
RACEMIC MIXTURE

> <State>
Solid

> <Similarity score>
0.18

$$$$
N-(6-tert-butyl-3-cyano-4,5,6,7-tetrahydro-1-benzothiophen-2-yl)-5-methyl-1,2-ox
  -OEChem-04222410502D

 24 26  0     0  0  0  0  0  0999 V2000
    0.4446   -0.0891    0.0000 C   0  0  0  0  0  0  0  0  0  0  0  0
   -0.3630   -0.6455    0.0000 C   0  0  0  0  0  0  0  0  0  0  0  0
    0.9236   -1.6290    0.0000 C   0  0  0  0  0  0  0  0  0  0  0  0
   -0.0860   -1.6096    0.0000 C   0  0  0  0  0  0  0  0  0  0  0  0
    1.2243    3.0379    0.0000 C   0  0  0  0  0  0  0  0  0  0  0  0
    1.2457   -0.6906    0.0000 S   0  0  0  0  0  0  0  0  0  0  0  0
    0.4446    0.9246    0.0000 N   0  0  0  0  0  0  0  0  0  0  0  0
    0.5049    3.5964    0.0000 N   0  0  0  0  0  0  0  0  0  0  0  0
    1.3057    1.4228    0.0000 C   0  0  0  0  0  0  0  0  0  0  0  0
    1.9718    3.5362    0.0000 C   0  0  0  0  0  0  0  0  0  0  0  0
   -1.3057   -0.3147    0.0000 C   0  0  0  0  0  0  0  0  0  0  0  0
    0.8224    4.4425    0.0000 O   0  0  0  0  0  0  0  0  0  0  0  0
    1.3959   -2.5052    0.0000 C   0  0  0  0  0  0  0  0  0  0  0  0
   -2.2594    0.0182    0.0000 N   0  0  0  0  0  0  0  0  0  0  0  0
    1.7290    4.4232    0.0000 C   0  0  0  0  0  0  0  0  0  0  0  0
   -0.5991   -2.4561    0.0000 C   0  0  0  0  0  0  0  0  0  0  0  0
    0.8675   -3.3623    0.0000 C   0  0  3  0  0  0  0  0  0  0  0  0
    1.3468   -4.2557    0.0000 C   0  0  0  0  0  0  0  0  0  0  0  0
    2.0725    0.9246    0.0000 O   0  0  0  0  0  0  0  0  0  0  0  0
   -0.1201   -3.3323    0.0000 C   0  0  0  0  0  0  0  0  0  0  0  0
    2.2594    5.1534    0.0000 C   0  0  0  0  0  0  0  0  0  0  0  0
    0.4446   -4.7240    0.0000 C   0  0  0  0  0  0  0  0  0  0  0  0
    2.2380   -3.7918    0.0000 C   0  0  0  0  0  0  0  0  0  0  0  0
    1.8042   -5.1534    0.0000 C   0  0  0  0  0  0  0  0  0  0  0  0
  1  2  2  0  0  0  0
  3  6  1  0  0  0  0
  3  4  2  0  0  0  0
  2  4  1  0  0  0  0
  5  9  1  0  0  0  0
  1  6  1  0  0  0  0
  1  7  1  0  0  0  0
  5  8  2  0  0  0  0
  7  9  1  0  0  0  0
  5 10  1  0  0  0  0
  2 11  1  0  0  0  0
  8 12  1  0  0  0  0
  3 13  1  0  0  0  0
 11 14  3  0  0  0  0
 10 15  2  0  0  0  0
 12 15  1  0  0  0  0
  4 16  1  0  0  0  0
 13 17  1  0  0  0  0
 17 18  1  0  0  0  0
  9 19  2  0  0  0  0
 16 20  1  0  0  0  0
 17 20  1  0  0  0  0
 15 21  1  0  0  0  0
 18 22  1  0  0  0  0
 18 23  1  0  0  0  0
 18 24  1  0  0  0  0
M  END
> <IDNUMBER>
C226-2607

> <available>
41

> <H_acceptor>
5

> <H_donor>
1

> <B_rotN>
5

> <N_O>
5

> <logP>
4.6203

> <logD>
2.9499

> <logSw>
-4.4676

> <PSA>
61.329

> <pKa_ma>
5.739

> <pKa_mb>
-6.3814

> <N_Chirals>
1

> <Name>
N-(6-tert-butyl-3-cyano-4,5,6,7-tetrahydro-1-benzothiophen-2-yl)-5-methyl-1,2-oxazole-3-carboxamide

> <Smile>
CC(C)(C)C(CC1)Cc2c1c(C#N)c(NC(c1noc(C)c1)=O)s2

> <Color>
NOT COLORED

> <Collection>
DC

> <InChI>
InChI=1S/C18H21N3O2S/c1-10-7-14(21-23-10)16(22)20-17-13(9-19)12-6-5-11(18(2,3)4)8-15(12)24-17/h7,11H,5-6,8H2,1-4H3,(H,20,22)/t11-/m1/s1

> <InChI Key>
LKSJZZSXJLKEIT-LLVKDONJSA-N

> <PERCENTSP3>
50

> <Link>
https://www.chemdiv.com/catalog/screening-compounds/compound-C226-2607/

> <MFCDNUMBER>
MFCD05025638

> <CLNUMBER>
CL2030

> <STEREO>
RACEMIC MIXTURE

> <State>
Solid

> <Similarity score>
0.18

$$$$
N-(3-cyano-4,5,6,7-tetrahydro-1-benzothiophen-2-yl)-3-(3-{[(5,6-dimethyl-1H-benz
  -OEChem-04222410502D

 34 38  0     0  0  0  0  0  0999 V2000
    4.2796    1.2792    0.0000 C   0  0  0  0  0  0  0  0  0  0  0  0
    5.2503    0.9833    0.0000 C   0  0  0  0  0  0  0  0  0  0  0  0
    4.2670    2.2666    0.0000 S   0  0  0  0  0  0  0  0  0  0  0  0
    5.8046    1.7916    0.0000 C   0  0  0  0  0  0  0  0  0  0  0  0
   -3.0836   -2.6210    0.0000 C   0  0  0  0  0  0  0  0  0  0  0  0
   -3.6752   -1.7961    0.0000 N   0  0  0  0  0  0  0  0  0  0  0  0
    0.0626   -0.9084    0.0000 N   0  0  0  0  0  0  0  0  0  0  0  0
    5.2047    2.5920    0.0000 C   0  0  0  0  0  0  0  0  0  0  0  0
   -3.6586   -3.4338    0.0000 N   0  0  0  0  0  0  0  0  0  0  0  0
   -0.5376   -1.7416    0.0000 C   0  0  0  0  0  0  0  0  0  0  0  0
    3.4878    0.6791    0.0000 N   0  0  0  0  0  0  0  0  0  0  0  0
    0.0666   -2.5713    0.0000 N   0  0  0  0  0  0  0  0  0  0  0  0
   -4.6086   -2.1170    0.0000 C   0  0  0  0  0  0  0  0  0  0  0  0
   -4.6086   -3.1167    0.0000 C   0  0  0  0  0  0  0  0  0  0  0  0
    5.5795    0.0290    0.0000 C   0  0  0  0  0  0  0  0  0  0  0  0
    1.0418   -1.2169    0.0000 C   0  0  0  0  0  0  0  0  0  0  0  0
    1.0418   -2.2585    0.0000 O   0  0  0  0  0  0  0  0  0  0  0  0
    5.9047   -0.9084    0.0000 N   0  0  0  0  0  0  0  0  0  0  0  0
    2.5670    1.0666    0.0000 C   0  0  0  0  0  0  0  0  0  0  0  0
   -5.4754   -1.6208    0.0000 C   0  0  0  0  0  0  0  0  0  0  0  0
   -5.4713   -3.6169    0.0000 C   0  0  0  0  0  0  0  0  0  0  0  0
   -6.3298   -3.1210    0.0000 C   0  0  0  0  0  0  0  0  0  0  0  0
   -6.3381   -2.1170    0.0000 C   0  0  0  0  0  0  0  0  0  0  0  0
   -2.0834   -2.6210    0.0000 S   0  0  0  0  0  0  0  0  0  0  0  0
    2.4795    1.7792    0.0000 O   0  0  0  0  0  0  0  0  0  0  0  0
   -1.5835   -1.7459    0.0000 C   0  0  0  0  0  0  0  0  0  0  0  0
    1.8793   -0.5961    0.0000 C   0  0  0  0  0  0  0  0  0  0  0  0
    1.7419    0.4291    0.0000 C   0  0  0  0  0  0  0  0  0  0  0  0
    6.8005    1.8960    0.0000 C   0  0  0  0  0  0  0  0  0  0  0  0
    5.6047    3.5130    0.0000 C   0  0  0  0  0  0  0  0  0  0  0  0
   -7.2006   -1.6208    0.0000 C   0  0  0  0  0  0  0  0  0  0  0  0
   -7.1922   -3.6210    0.0000 C   0  0  0  0  0  0  0  0  0  0  0  0
    7.2006    2.8294    0.0000 C   0  0  0  0  0  0  0  0  0  0  0  0
    6.6004    3.6210    0.0000 C   0  0  0  0  0  0  0  0  0  0  0  0
  1  2  2  0  0  0  0
  1  3  1  0  0  0  0
  2  4  1  0  0  0  0
  4  8  2  0  0  0  0
  5 24  1  0  0  0  0
  5  6  2  0  0  0  0
  7 16  2  0  0  0  0
  3  8  1  0  0  0  0
  5  9  1  0  0  0  0
  7 10  1  0  0  0  0
 10 12  2  0  0  0  0
  1 11  1  0  0  0  0
 12 17  1  0  0  0  0
  6 13  1  0  0  0  0
 13 14  2  0  0  0  0
  9 14  1  0  0  0  0
  2 15  1  0  0  0  0
 16 27  1  0  0  0  0
 16 17  1  0  0  0  0
 15 18  3  0  0  0  0
 11 19  1  0  0  0  0
 13 20  1  0  0  0  0
 14 21  1  0  0  0  0
 21 22  2  0  0  0  0
 22 23  1  0  0  0  0
 20 23  2  0  0  0  0
 24 26  1  0  0  0  0
 19 25  2  0  0  0  0
 10 26  1  0  0  0  0
 27 28  1  0  0  0  0
 19 28  1  0  0  0  0
  4 29  1  0  0  0  0
  8 30  1  0  0  0  0
 23 31  1  0  0  0  0
 22 32  1  0  0  0  0
 29 33  1  0  0  0  0
 33 34  1  0  0  0  0
 30 34  1  0  0  0  0
M  END
> <IDNUMBER>
J021-3399

> <available>
39

> <H_acceptor>
8

> <H_donor>
2

> <B_rotN>
9

> <N_O>
8

> <logP>
4.9142

> <logD>
3.5953

> <logSw>
-4.702

> <PSA>
90.234

> <pKa_ma>
6.1024

> <pKa_mb>
7.027

> <N_Chirals>
0

> <Name>
N-(3-cyano-4,5,6,7-tetrahydro-1-benzothiophen-2-yl)-3-(3-{[(5,6-dimethyl-1H-benzimidazol-2-yl)sulfanyl]methyl}-1,2,4-oxadiazol-5-yl)propanamide

> <Smile>
Cc(c(C)c1)cc([nH]2)c1nc2SCc1noc(CCC(Nc(sc2c3CCCC2)c3C#N)=O)n1

> <Color>
ORANGE

> <Collection>
DC

> <InChI>
InChI=1S/C24H24N6O2S2/c1-13-9-17-18(10-14(13)2)27-24(26-17)33-12-20-28-22(32-30-20)8-7-21(31)29-23-16(11-25)15-5-3-4-6-19(15)34-23/h9-10H,3-8,12H2,1-2H3,(H,26,27)(H,29,31)

> <InChI Key>
ALRBLXLJFJILHD-UHFFFAOYSA-N

> <PERCENTSP3>
37.5

> <Link>
https://www.chemdiv.com/catalog/screening-compounds/compound-J021-3399/

> <MFCDNUMBER>
MFCD27218779

> <CLNUMBER>
CL8315

> <STEREO>
ACHIRAL

> <State>
Solid

> <Similarity score>
0.18

$$$$
2-(2-chlorophenyl)-N-[3-cyano-6-(2-methylbutan-2-yl)-4,5,6,7-tetrahydro-1-benzot
  -OEChem-04222410502D

 36 40  0     0  0  0  0  0  0999 V2000
   -1.3298    0.2250    0.0000 C   0  0  0  0  0  0  0  0  0  0  0  0
   -2.2678    0.2709    0.0000 C   0  0  0  0  0  0  0  0  0  0  0  0
   -1.7425    1.7593    0.0000 C   0  0  0  0  0  0  0  0  0  0  0  0
   -2.4928    1.2506    0.0000 C   0  0  0  0  0  0  0  0  0  0  0  0
   -0.9588    1.1506    0.0000 S   0  0  0  0  0  0  0  0  0  0  0  0
   -0.7169   -0.6795    0.0000 N   0  0  0  0  0  0  0  0  0  0  0  0
    0.2836   -0.6795    0.0000 C   0  0  0  0  0  0  0  0  0  0  0  0
    0.7963   -3.2684    0.0000 C   0  0  0  0  0  0  0  0  0  0  0  0
    0.7963   -1.5301    0.0000 C   0  0  0  0  0  0  0  0  0  0  0  0
    1.7677   -3.2392    0.0000 N   0  0  0  0  0  0  0  0  0  0  0  0
    0.2960   -2.3930    0.0000 C   0  0  0  0  0  0  0  0  0  0  0  0
   -2.9431   -0.5545    0.0000 C   0  0  0  0  0  0  0  0  0  0  0  0
    0.2836   -4.0939    0.0000 C   0  0  0  0  0  0  0  0  0  0  0  0
    1.7677   -1.5301    0.0000 C   0  0  0  0  0  0  0  0  0  0  0  0
    2.2596   -2.3930    0.0000 C   0  0  0  0  0  0  0  0  0  0  0  0
   -1.7967    2.7223    0.0000 C   0  0  0  0  0  0  0  0  0  0  0  0
   -3.6060   -1.3674    0.0000 N   0  0  0  0  0  0  0  0  0  0  0  0
   -3.4226    1.6509    0.0000 C   0  0  0  0  0  0  0  0  0  0  0  0
   -2.6555    3.1892    0.0000 C   0  0  3  0  0  0  0  0  0  0  0  0
   -2.6931    4.2439    0.0000 C   0  0  0  0  0  0  0  0  0  0  0  0
    0.7713    0.2000    0.0000 O   0  0  0  0  0  0  0  0  0  0  0  0
    0.7713   -4.9651    0.0000 C   0  0  0  0  0  0  0  0  0  0  0  0
   -3.5184    2.6473    0.0000 C   0  0  0  0  0  0  0  0  0  0  0  0
    1.7593   -4.9527    0.0000 Cl  0  0  0  0  0  0  0  0  0  0  0  0
   -0.7211   -4.0939    0.0000 C   0  0  0  0  0  0  0  0  0  0  0  0
    2.2596   -0.6795    0.0000 C   0  0  0  0  0  0  0  0  0  0  0  0
    3.2602   -2.3930    0.0000 C   0  0  0  0  0  0  0  0  0  0  0  0
   -2.7555    5.2987    0.0000 C   0  0  0  0  0  0  0  0  0  0  0  0
   -1.7093    4.2689    0.0000 C   0  0  0  0  0  0  0  0  0  0  0  0
   -3.7478    4.2189    0.0000 C   0  0  0  0  0  0  0  0  0  0  0  0
    0.2836   -5.8406    0.0000 C   0  0  0  0  0  0  0  0  0  0  0  0
   -1.9051    5.8406    0.0000 C   0  0  0  0  0  0  0  0  0  0  0  0
   -1.2090   -4.9527    0.0000 C   0  0  0  0  0  0  0  0  0  0  0  0
    3.2602   -0.6795    0.0000 C   0  0  0  0  0  0  0  0  0  0  0  0
    3.7478   -1.5301    0.0000 C   0  0  0  0  0  0  0  0  0  0  0  0
   -0.7211   -5.8072    0.0000 C   0  0  0  0  0  0  0  0  0  0  0  0
  1  2  2  0  0  0  0
  3  5  1  0  0  0  0
  2  4  1  0  0  0  0
  3  4  2  0  0  0  0
  1  5  1  0  0  0  0
  1  6  1  0  0  0  0
  6  7  1  0  0  0  0
  8 11  2  0  0  0  0
  8 10  1  0  0  0  0
  7  9  1  0  0  0  0
 10 15  2  0  0  0  0
  9 11  1  0  0  0  0
  2 12  1  0  0  0  0
  8 13  1  0  0  0  0
  9 14  2  0  0  0  0
 14 15  1  0  0  0  0
  3 16  1  0  0  0  0
 12 17  3  0  0  0  0
  4 18  1  0  0  0  0
 16 19  1  0  0  0  0
 19 20  1  0  0  0  0
  7 21  2  0  0  0  0
 13 22  2  0  0  0  0
 18 23  1  0  0  0  0
 19 23  1  0  0  0  0
 22 24  1  0  0  0  0
 13 25  1  0  0  0  0
 14 26  1  0  0  0  0
 15 27  1  0  0  0  0
 20 28  1  0  0  0  0
 20 29  1  0  0  0  0
 20 30  1  0  0  0  0
 22 31  1  0  0  0  0
 28 32  1  0  0  0  0
 25 33  2  0  0  0  0
 26 34  2  0  0  0  0
 34 35  1  0  0  0  0
 27 35  2  0  0  0  0
 33 36  1  0  0  0  0
 31 36  2  0  0  0  0
M  END
> <IDNUMBER>
Y509-8062

> <available>
16

> <H_acceptor>
4

> <H_donor>
1

> <B_rotN>
7

> <N_O>
4

> <logP>
7.8978

> <logD>
6.9426

> <logSw>
-6.5948

> <PSA>
48.16

> <pKa_ma>
6.4958

> <pKa_mb>
1.468

> <N_Chirals>
1

> <Name>
2-(2-chlorophenyl)-N-[3-cyano-6-(2-methylbutan-2-yl)-4,5,6,7-tetrahydro-1-benzothiophen-2-yl]quinoline-4-carboxamide

> <Smile>
c1(c(c2c(s1)CC(C(CC)(C)C)CC2)C#N)NC(c1cc(nc2c1cccc2)c1c(Cl)cccc1)=O

> <Color>
ORANGE

> <Collection>
DC

> <InChI>
InChI=1S/C30H28ClN3OS/c1-4-30(2,3)18-13-14-20-23(17-32)29(36-27(20)15-18)34-28(35)22-16-26(21-10-5-7-11-24(21)31)33-25-12-8-6-9-19(22)25/h5-12,16,18H,4,13-15H2,1-3H3,(H,34,35)/t18-/m1/s1

> <InChI Key>
XHBNNYRABUEIPS-GOSISDBHSA-N

> <PERCENTSP3>
30

> <Link>
https://www.chemdiv.com/catalog/screening-compounds/compound-Y509-8062/

> <MFCDNUMBER>
MFCD01342980

> <STEREO>
RACEMIC MIXTURE

> <State>
Solid

> <Similarity score>
0.18

$$$$
2-amino-6-(2-phenylethyl)-4,5,6,7-tetrahydrothieno[2,3-c]pyridine-3-carbonitrile
  -OEChem-04222410502D

 20 22  0     0  0  0  0  0  0999 V2000
    2.7431    0.6914    0.0000 C   0  0  0  0  0  0  0  0  0  0  0  0
    3.3055   -0.1084    0.0000 C   0  0  0  0  0  0  0  0  0  0  0  0
    1.7934    0.3791    0.0000 C   0  0  0  0  0  0  0  0  0  0  0  0
    1.7934   -0.6208    0.0000 C   0  0  0  0  0  0  0  0  0  0  0  0
    2.7431   -0.9289    0.0000 S   0  0  0  0  0  0  0  0  0  0  0  0
    3.0680    1.6331    0.0000 C   0  0  0  0  0  0  0  0  0  0  0  0
    0.0562   -0.6208    0.0000 N   0  0  0  0  0  0  0  0  0  0  0  0
    3.3931    2.5787    0.0000 N   0  0  0  0  0  0  0  0  0  0  0  0
    0.9267   -1.1206    0.0000 C   0  0  0  0  0  0  0  0  0  0  0  0
    0.9267    0.8915    0.0000 C   0  0  0  0  0  0  0  0  0  0  0  0
    4.3055   -0.1084    0.0000 N   0  0  0  0  0  0  0  0  0  0  0  0
    0.0562    0.3791    0.0000 C   0  0  0  0  0  0  0  0  0  0  0  0
   -0.8436   -1.1206    0.0000 C   0  0  0  0  0  0  0  0  0  0  0  0
   -1.6935   -0.6041    0.0000 C   0  0  0  0  0  0  0  0  0  0  0  0
   -2.5683   -1.0914    0.0000 C   0  0  0  0  0  0  0  0  0  0  0  0
   -3.4181   -0.5791    0.0000 C   0  0  0  0  0  0  0  0  0  0  0  0
   -2.5807   -2.0912    0.0000 C   0  0  0  0  0  0  0  0  0  0  0  0
   -3.4473   -2.5787    0.0000 C   0  0  0  0  0  0  0  0  0  0  0  0
   -4.2928   -1.0707    0.0000 C   0  0  0  0  0  0  0  0  0  0  0  0
   -4.3055   -2.0704    0.0000 C   0  0  0  0  0  0  0  0  0  0  0  0
  1  2  2  0  0  0  0
  1  3  1  0  0  0  0
  3  4  2  0  0  0  0
  4  5  1  0  0  0  0
  2  5  1  0  0  0  0
  1  6  1  0  0  0  0
  7 12  1  0  0  0  0
  6  8  3  0  0  0  0
  4  9  1  0  0  0  0
  7  9  1  0  0  0  0
  3 10  1  0  0  0  0
  2 11  1  0  0  0  0
 10 12  1  0  0  0  0
  7 13  1  0  0  0  0
 13 14  1  0  0  0  0
 14 15  1  0  0  0  0
 15 16  2  0  0  0  0
 15 17  1  0  0  0  0
 17 18  2  0  0  0  0
 16 19  1  0  0  0  0
 19 20  2  0  0  0  0
 18 20  1  0  0  0  0
M  END
> <IDNUMBER>
Y512-6622

> <available>
10

> <H_acceptor>
2

> <H_donor>
2

> <B_rotN>
4

> <N_O>
3

> <logP>
2.769

> <logD>
2.767

> <logSw>
-2.953

> <PSA>
41.94

> <pKa_ma>
15.47

> <pKa_mb>
5.053

> <N_Chirals>
0

> <Name>
2-amino-6-(2-phenylethyl)-4,5,6,7-tetrahydrothieno[2,3-c]pyridine-3-carbonitrile

> <Smile>
c1(c(sc2c1CCN(C2)CCc1ccccc1)N)C#N

> <Color>
BROWN

> <Collection>
DC

> <InChI>
InChI=1S/C16H17N3S/c17-10-14-13-7-9-19(11-15(13)20-16(14)18)8-6-12-4-2-1-3-5-12/h1-5H,6-9,11,18H2

> <InChI Key>
NEZXGGXPFJZLFK-UHFFFAOYSA-N

> <PERCENTSP3>
31.3

> <Link>
https://www.chemdiv.com/catalog/screening-compounds/compound-Y512-6622/

> <MFCDNUMBER>
MFCD01565102

> <STEREO>
ACHIRAL

> <State>
Solid

> <Similarity score>
0.18

$$$$
N-(6-tert-butyl-3-cyano-4,5,6,7-tetrahydro-1-benzothiophen-2-yl)-5-propyl-1,2-ox
  -OEChem-04222410502D

 26 28  0     0  0  0  0  0  0999 V2000
   -0.2542   -0.0043    0.0000 C   0  0  0  0  0  0  0  0  0  0  0  0
   -1.0613   -0.5602    0.0000 C   0  0  0  0  0  0  0  0  0  0  0  0
    0.2243   -1.5428    0.0000 C   0  0  0  0  0  0  0  0  0  0  0  0
   -0.7845   -1.5235    0.0000 C   0  0  0  0  0  0  0  0  0  0  0  0
    0.4862    2.8776    0.0000 C   0  0  0  0  0  0  0  0  0  0  0  0
    0.5461   -0.6053    0.0000 S   0  0  0  0  0  0  0  0  0  0  0  0
   -0.2542    1.0086    0.0000 N   0  0  0  0  0  0  0  0  0  0  0  0
   -0.2391    3.4826    0.0000 N   0  0  0  0  0  0  0  0  0  0  0  0
    0.6061    1.5063    0.0000 C   0  0  0  0  0  0  0  0  0  0  0  0
    1.3013    3.3903    0.0000 C   0  0  0  0  0  0  0  0  0  0  0  0
   -2.0031   -0.2296    0.0000 C   0  0  0  0  0  0  0  0  0  0  0  0
    0.1084    4.3688    0.0000 O   0  0  0  0  0  0  0  0  0  0  0  0
    0.6963   -2.4185    0.0000 C   0  0  0  0  0  0  0  0  0  0  0  0
   -2.9559    0.1029    0.0000 N   0  0  0  0  0  0  0  0  0  0  0  0
    1.0697    4.3131    0.0000 C   0  0  0  0  0  0  0  0  0  0  0  0
   -1.2971   -2.3693    0.0000 C   0  0  0  0  0  0  0  0  0  0  0  0
    0.1684   -3.2747    0.0000 C   0  0  3  0  0  0  0  0  0  0  0  0
    0.6471   -4.1674    0.0000 C   0  0  0  0  0  0  0  0  0  0  0  0
    1.3916    0.9525    0.0000 O   0  0  0  0  0  0  0  0  0  0  0  0
   -0.8187   -3.2447    0.0000 C   0  0  0  0  0  0  0  0  0  0  0  0
    1.6793    5.0642    0.0000 C   0  0  0  0  0  0  0  0  0  0  0  0
   -0.2542   -4.6352    0.0000 C   0  0  0  0  0  0  0  0  0  0  0  0
    1.5376   -3.7038    0.0000 C   0  0  0  0  0  0  0  0  0  0  0  0
    1.1042   -5.0642    0.0000 C   0  0  0  0  0  0  0  0  0  0  0  0
    2.6127    4.9118    0.0000 C   0  0  0  0  0  0  0  0  0  0  0  0
    2.9559    4.0105    0.0000 C   0  0  0  0  0  0  0  0  0  0  0  0
  1  2  2  0  0  0  0
  3  6  1  0  0  0  0
  3  4  2  0  0  0  0
  2  4  1  0  0  0  0
  5  9  1  0  0  0  0
  1  6  1  0  0  0  0
  1  7  1  0  0  0  0
  5  8  2  0  0  0  0
  7  9  1  0  0  0  0
  5 10  1  0  0  0  0
  2 11  1  0  0  0  0
  8 12  1  0  0  0  0
  3 13  1  0  0  0  0
 11 14  3  0  0  0  0
 10 15  2  0  0  0  0
 12 15  1  0  0  0  0
  4 16  1  0  0  0  0
 13 17  1  0  0  0  0
 17 18  1  0  0  0  0
  9 19  2  0  0  0  0
 16 20  1  0  0  0  0
 17 20  1  0  0  0  0
 15 21  1  0  0  0  0
 18 22  1  0  0  0  0
 18 23  1  0  0  0  0
 18 24  1  0  0  0  0
 21 25  1  0  0  0  0
 25 26  1  0  0  0  0
M  END
> <IDNUMBER>
C226-3063

> <available>
257

> <H_acceptor>
5

> <H_donor>
1

> <B_rotN>
7

> <N_O>
5

> <logP>
5.6329

> <logD>
3.9625

> <logSw>
-5.4509

> <PSA>
61.078

> <pKa_ma>
5.739

> <pKa_mb>
-6.3689

> <N_Chirals>
1

> <Name>
N-(6-tert-butyl-3-cyano-4,5,6,7-tetrahydro-1-benzothiophen-2-yl)-5-propyl-1,2-oxazole-3-carboxamide

> <Smile>
CCCc1cc(C(Nc(sc(C2)c3CCC2C(C)(C)C)c3C#N)=O)no1

> <Color>
YELLOW

> <Collection>
DC

> <InChI>
InChI=1S/C20H25N3O2S/c1-5-6-13-10-16(23-25-13)18(24)22-19-15(11-21)14-8-7-12(20(2,3)4)9-17(14)26-19/h10,12H,5-9H2,1-4H3,(H,22,24)/t12-/m1/s1

> <InChI Key>
ICVKMSKXKWSWAD-GFCCVEGCSA-N

> <PERCENTSP3>
55

> <Link>
https://www.chemdiv.com/catalog/screening-compounds/compound-C226-3063/

> <MFCDNUMBER>
MFCD09782951

> <CLNUMBER>
CL2030

> <STEREO>
RACEMIC MIXTURE

> <State>
Solid

> <Similarity score>
0.18

$$$$
N-(3-cyano-5,6-dihydro-4H-cyclopenta[b]thiophen-2-yl)-2-[(2-methyl-6-phenylpyrim
  -OEChem-04222410502D

 28 31  0     0  0  0  0  0  0999 V2000
   -1.8578   -0.6039    0.0000 C   0  0  0  0  0  0  0  0  0  0  0  0
   -2.6659   -0.0040    0.0000 C   0  0  0  0  0  0  0  0  0  0  0  0
   -2.1784   -1.5413    0.0000 S   0  0  0  0  0  0  0  0  0  0  0  0
   -3.4782   -0.5831    0.0000 C   0  0  0  0  0  0  0  0  0  0  0  0
   -3.1699   -1.5413    0.0000 C   0  0  0  0  0  0  0  0  0  0  0  0
   -0.8957   -0.3081    0.0000 N   0  0  0  0  0  0  0  0  0  0  0  0
    2.1950    1.5289    0.0000 N   0  0  0  0  0  0  0  0  0  0  0  0
    3.8904    1.1330    0.0000 N   0  0  0  0  0  0  0  0  0  0  0  0
    3.6572    0.1583    0.0000 C   0  0  0  0  0  0  0  0  0  0  0  0
    1.9827    0.5581    0.0000 C   0  0  0  0  0  0  0  0  0  0  0  0
    2.7074   -0.1291    0.0000 C   0  0  0  0  0  0  0  0  0  0  0  0
   -2.6659    0.9913    0.0000 C   0  0  0  0  0  0  0  0  0  0  0  0
    3.1656    1.8202    0.0000 C   0  0  0  0  0  0  0  0  0  0  0  0
   -2.6533    1.9911    0.0000 N   0  0  0  0  0  0  0  0  0  0  0  0
   -0.1668   -0.9955    0.0000 C   0  0  0  0  0  0  0  0  0  0  0  0
    1.0205    0.2708    0.0000 S   0  0  0  0  0  0  0  0  0  0  0  0
    3.9447   -0.7956    0.0000 C   0  0  0  0  0  0  0  0  0  0  0  0
   -0.3958   -1.9659    0.0000 O   0  0  0  0  0  0  0  0  0  0  0  0
    0.7956   -0.7038    0.0000 C   0  0  0  0  0  0  0  0  0  0  0  0
   -4.4779   -0.5831    0.0000 C   0  0  0  0  0  0  0  0  0  0  0  0
   -3.9821   -2.1200    0.0000 C   0  0  0  0  0  0  0  0  0  0  0  0
   -4.7819   -1.5327    0.0000 C   0  0  0  0  0  0  0  0  0  0  0  0
    3.3947    2.7950    0.0000 C   0  0  0  0  0  0  0  0  0  0  0  0
    4.7819   -1.3453    0.0000 C   0  0  0  0  0  0  0  0  0  0  0  0
    3.0531   -1.2455    0.0000 C   0  0  0  0  0  0  0  0  0  0  0  0
    2.9949   -2.2452    0.0000 C   0  0  0  0  0  0  0  0  0  0  0  0
    4.7276   -2.3576    0.0000 C   0  0  0  0  0  0  0  0  0  0  0  0
    3.8322   -2.7950    0.0000 C   0  0  0  0  0  0  0  0  0  0  0  0
  1  2  2  0  0  0  0
  1  3  1  0  0  0  0
  2  4  1  0  0  0  0
  3  5  1  0  0  0  0
  4  5  2  0  0  0  0
  1  6  1  0  0  0  0
  7 10  2  0  0  0  0
  8  9  1  0  0  0  0
  8 13  2  0  0  0  0
  9 11  2  0  0  0  0
 10 16  1  0  0  0  0
 10 11  1  0  0  0  0
  2 12  1  0  0  0  0
  7 13  1  0  0  0  0
 12 14  3  0  0  0  0
  6 15  1  0  0  0  0
 16 19  1  0  0  0  0
  9 17  1  0  0  0  0
 15 18  2  0  0  0  0
 15 19  1  0  0  0  0
  4 20  1  0  0  0  0
 20 22  1  0  0  0  0
  5 21  1  0  0  0  0
 21 22  1  0  0  0  0
 13 23  1  0  0  0  0
 17 24  1  0  0  0  0
 17 25  2  0  0  0  0
 25 26  1  0  0  0  0
 24 27  2  0  0  0  0
 27 28  1  0  0  0  0
 26 28  2  0  0  0  0
M  END
> <IDNUMBER>
D306-0402

> <available>
102

> <H_acceptor>
6

> <H_donor>
1

> <B_rotN>
7

> <N_O>
5

> <logP>
4.5928

> <logD>
3.4686

> <logSw>
-4.5537

> <PSA>
57.527

> <pKa_ma>
6.3097

> <pKa_mb>
4.7121

> <N_Chirals>
0

> <Name>
N-(3-cyano-5,6-dihydro-4H-cyclopenta[b]thiophen-2-yl)-2-[(2-methyl-6-phenylpyrimidin-4-yl)sulfanyl]acetamide

> <Smile>
Cc1nc(-c2ccccc2)cc(SCC(Nc(sc2c3CCC2)c3C#N)=O)n1

> <Color>
BROWN

> <Collection>
DC

> <InChI>
InChI=1S/C21H18N4OS2/c1-13-23-17(14-6-3-2-4-7-14)10-20(24-13)27-12-19(26)25-21-16(11-22)15-8-5-9-18(15)28-21/h2-4,6-7,10H,5,8-9,12H2,1H3,(H,25,26)

> <InChI Key>
FAWOPUVZFJZCKA-UHFFFAOYSA-N

> <PERCENTSP3>
23.8

> <Link>
https://www.chemdiv.com/catalog/screening-compounds/compound-D306-0402/

> <MFCDNUMBER>
MFCD09982500

> <CLNUMBER>
CL9472

> <STEREO>
ACHIRAL

> <State>
Solid

> <Similarity score>
0.18

$$$$
2-(2-bromophenoxy)-N-(3-cyano-5,6-dihydro-4H-cyclopenta[b]thiophen-2-yl)propanam
  -OEChem-04222410502D

 23 25  0     0  0  0  0  0  0999 V2000
   -0.5177    1.4451    0.0000 C   0  0  0  0  0  0  0  0  0  0  0  0
   -0.5177    2.3413    0.0000 C   0  0  0  0  0  0  0  0  0  0  0  0
   -1.2957    1.0004    0.0000 S   0  0  0  0  0  0  0  0  0  0  0  0
   -2.0877    2.3413    0.0000 C   0  0  0  0  0  0  0  0  0  0  0  0
    0.3231    0.9725    0.0000 N   0  0  0  0  0  0  0  0  0  0  0  0
   -2.0877    1.4590    0.0000 C   0  0  0  0  0  0  0  0  0  0  0  0
    0.3231   -0.0000    0.0000 C   0  0  0  0  0  0  0  0  0  0  0  0
    0.3856    2.8623    0.0000 C   0  0  0  0  0  0  0  0  0  0  0  0
    1.2957    3.3626    0.0000 N   0  0  0  0  0  0  0  0  0  0  0  0
    1.1637   -1.4451    0.0000 O   0  0  0  0  0  0  0  0  0  0  0  0
    1.9904   -1.9175    0.0000 C   0  0  0  0  0  0  0  0  0  0  0  0
    1.1567   -0.4794    0.0000 C   0  0  3  0  0  0  0  0  0  0  0  0
   -0.5106   -0.4724    0.0000 O   0  0  0  0  0  0  0  0  0  0  0  0
    2.8309   -1.4451    0.0000 C   0  0  0  0  0  0  0  0  0  0  0  0
   -2.8797    2.7998    0.0000 C   0  0  0  0  0  0  0  0  0  0  0  0
    2.8450   -0.4933    0.0000 Br  0  0  0  0  0  0  0  0  0  0  0  0
   -3.6648    1.4590    0.0000 C   0  0  0  0  0  0  0  0  0  0  0  0
   -3.6648    2.3552    0.0000 C   0  0  0  0  0  0  0  0  0  0  0  0
    1.9904   -2.8832    0.0000 C   0  0  0  0  0  0  0  0  0  0  0  0
    1.9904   -0.0000    0.0000 C   0  0  0  0  0  0  0  0  0  0  0  0
    3.6578   -1.9197    0.0000 C   0  0  0  0  0  0  0  0  0  0  0  0
    2.8172   -3.3626    0.0000 C   0  0  0  0  0  0  0  0  0  0  0  0
    3.6648   -2.8901    0.0000 C   0  0  0  0  0  0  0  0  0  0  0  0
  1  2  2  0  0  0  0
  1  3  1  0  0  0  0
  2  4  1  0  0  0  0
  4  6  2  0  0  0  0
  1  5  1  0  0  0  0
  3  6  1  0  0  0  0
  5  7  1  0  0  0  0
  2  8  1  0  0  0  0
  8  9  3  0  0  0  0
 10 11  1  0  0  0  0
 10 12  1  0  0  0  0
  7 12  1  0  0  0  0
  7 13  2  0  0  0  0
 11 14  2  0  0  0  0
  4 15  1  0  0  0  0
 15 18  1  0  0  0  0
 14 16  1  0  0  0  0
  6 17  1  0  0  0  0
 17 18  1  0  0  0  0
 11 19  1  0  0  0  0
 12 20  1  0  0  0  0
 14 21  1  0  0  0  0
 19 22  2  0  0  0  0
 22 23  1  0  0  0  0
 21 23  2  0  0  0  0
M  END
> <IDNUMBER>
8011-9345

> <available>
21

> <H_acceptor>
4

> <H_donor>
1

> <B_rotN>
6

> <N_O>
4

> <logP>
4.2925

> <logD>
2.8547

> <logSw>
-4.4401

> <PSA>
47.342

> <pKa_ma>
5.9783

> <pKa_mb>
-5.9657

> <N_Chirals>
1

> <Name>
2-(2-bromophenoxy)-N-(3-cyano-5,6-dihydro-4H-cyclopenta[b]thiophen-2-yl)propanamide

> <Smile>
CC(C(Nc(sc1c2CCC1)c2C#N)=O)Oc(cccc1)c1Br

> <Color>
BROWN

> <Collection>
DC

> <InChI>
InChI=1S/C17H15BrN2O2S/c1-10(22-14-7-3-2-6-13(14)18)16(21)20-17-12(9-19)11-5-4-8-15(11)23-17/h2-3,6-7,10H,4-5,8H2,1H3,(H,20,21)/t10-/m0/s1

> <InChI Key>
FCIOKRPXKFICSS-JTQLQIEISA-N

> <PERCENTSP3>
29.41

> <Link>
https://www.chemdiv.com/catalog/screening-compounds/compound-8011-9345/

> <MFCDNUMBER>
MFCD02928295

> <STEREO>
RACEMIC MIXTURE

> <State>
Solid

> <Similarity score>
0.18

$$$$
N-(6-tert-butyl-3-cyano-4,5,6,7-tetrahydro-1-benzothiophen-2-yl)-3,5-dimethoxybe
  -OEChem-04222410502D

 28 30  0     0  0  0  0  0  0999 V2000
   -1.3238   -0.4275    0.0000 C   0  0  0  0  0  0  0  0  0  0  0  0
   -2.3143   -0.3289    0.0000 C   0  0  0  0  0  0  0  0  0  0  0  0
   -1.6568    1.1757    0.0000 C   0  0  0  0  0  0  0  0  0  0  0  0
   -2.5220    0.6657    0.0000 C   0  0  0  0  0  0  0  0  0  0  0  0
   -0.8921    0.4869    0.0000 S   0  0  0  0  0  0  0  0  0  0  0  0
   -0.8120   -1.3175    0.0000 N   0  0  0  0  0  0  0  0  0  0  0  0
    0.2055   -1.3175    0.0000 C   0  0  0  0  0  0  0  0  0  0  0  0
   -2.9803   -1.0934    0.0000 C   0  0  0  0  0  0  0  0  0  0  0  0
    0.7110   -2.1972    0.0000 C   0  0  0  0  0  0  0  0  0  0  0  0
   -1.6568    2.1952    0.0000 C   0  0  0  0  0  0  0  0  0  0  0  0
   -3.6708   -1.8581    0.0000 N   0  0  0  0  0  0  0  0  0  0  0  0
   -3.4119    1.1757    0.0000 C   0  0  0  0  0  0  0  0  0  0  0  0
   -2.5220    2.7069    0.0000 C   0  0  3  0  0  0  0  0  0  0  0  0
   -2.4972    3.7305    0.0000 C   0  0  0  0  0  0  0  0  0  0  0  0
    1.6977   -2.1869    0.0000 C   0  0  0  0  0  0  0  0  0  0  0  0
    0.2300   -3.0009    0.0000 C   0  0  0  0  0  0  0  0  0  0  0  0
    0.7110   -0.4442    0.0000 O   0  0  0  0  0  0  0  0  0  0  0  0
    1.6484   -3.8498    0.0000 C   0  0  0  0  0  0  0  0  0  0  0  0
    0.7358   -3.8640    0.0000 C   0  0  0  0  0  0  0  0  0  0  0  0
    2.1582   -3.0174    0.0000 C   0  0  0  0  0  0  0  0  0  0  0  0
   -3.4367    2.1952    0.0000 C   0  0  0  0  0  0  0  0  0  0  0  0
    0.2651   -4.7274    0.0000 O   0  0  0  0  0  0  0  0  0  0  0  0
    3.1263   -2.9865    0.0000 O   0  0  0  0  0  0  0  0  0  0  0  0
   -2.4727    4.7521    0.0000 C   0  0  0  0  0  0  0  0  0  0  0  0
   -3.5167    3.7550    0.0000 C   0  0  0  0  0  0  0  0  0  0  0  0
   -1.4779    3.6997    0.0000 C   0  0  0  0  0  0  0  0  0  0  0  0
   -0.7133   -4.7521    0.0000 C   0  0  0  0  0  0  0  0  0  0  0  0
    3.6708   -3.7470    0.0000 C   0  0  0  0  0  0  0  0  0  0  0  0
  1  2  2  0  0  0  0
  3  5  1  0  0  0  0
  3  4  2  0  0  0  0
  2  4  1  0  0  0  0
  1  5  1  0  0  0  0
  1  6  1  0  0  0  0
  6  7  1  0  0  0  0
  2  8  1  0  0  0  0
  7  9  1  0  0  0  0
  3 10  1  0  0  0  0
  8 11  3  0  0  0  0
  4 12  1  0  0  0  0
 10 13  1  0  0  0  0
 13 14  1  0  0  0  0
  9 15  1  0  0  0  0
  9 16  2  0  0  0  0
  7 17  2  0  0  0  0
 18 19  2  0  0  0  0
 18 20  1  0  0  0  0
 16 19  1  0  0  0  0
 15 20  2  0  0  0  0
 12 21  1  0  0  0  0
 13 21  1  0  0  0  0
 19 22  1  0  0  0  0
 20 23  1  0  0  0  0
 14 24  1  0  0  0  0
 14 25  1  0  0  0  0
 14 26  1  0  0  0  0
 22 27  1  0  0  0  0
 23 28  1  0  0  0  0
M  END
> <IDNUMBER>
3365-7983

> <available>
1

> <H_acceptor>
5

> <H_donor>
1

> <B_rotN>
7

> <N_O>
5

> <logP>
5.4999

> <logD>
4.0934

> <logSw>
-5.4418

> <PSA>
55.188

> <pKa_ma>
6.0109

> <pKa_mb>
-6.786

> <N_Chirals>
1

> <Name>
N-(6-tert-butyl-3-cyano-4,5,6,7-tetrahydro-1-benzothiophen-2-yl)-3,5-dimethoxybenzamide

> <Smile>
CC(C)(C)C(CC1)Cc2c1c(C#N)c(NC(c1cc(OC)cc(OC)c1)=O)s2

> <Color>
NOT COLORED

> <Collection>
DC

> <InChI>
InChI=1S/C22H26N2O3S/c1-22(2,3)14-6-7-17-18(12-23)21(28-19(17)10-14)24-20(25)13-8-15(26-4)11-16(9-13)27-5/h8-9,11,14H,6-7,10H2,1-5H3,(H,24,25)/t14-/m1/s1

> <InChI Key>
BAFHAARFUDTCRG-CQSZACIVSA-N

> <PERCENTSP3>
45.5

> <Link>
https://www.chemdiv.com/catalog/screening-compounds/compound-3365-7983/

> <MFCDNUMBER>
MFCD01354310

> <STEREO>
RACEMIC MIXTURE

> <State>
Solid

> <Similarity score>
0.18

$$$$
N-(6-tert-butyl-3-cyano-4,5,6,7-tetrahydro-1-benzothiophen-2-yl)-2-[5-(4-methoxy
  -OEChem-04222410502D

 32 35  0     0  0  0  0  0  0999 V2000
    2.1837    1.9297    0.0000 C   0  0  0  0  0  0  0  0  0  0  0  0
    3.1715    2.0838    0.0000 C   0  0  0  0  0  0  0  0  0  0  0  0
   -1.0044    0.1417    0.0000 N   0  0  0  0  0  0  0  0  0  0  0  0
   -0.6917    1.0920    0.0000 N   0  0  0  0  0  0  0  0  0  0  0  0
    2.9171    0.4919    0.0000 C   0  0  0  0  0  0  0  0  0  0  0  0
   -2.3089    1.0920    0.0000 N   0  0  0  0  0  0  0  0  0  0  0  0
   -2.0044    0.1417    0.0000 C   0  0  0  0  0  0  0  0  0  0  0  0
    3.6299    1.1961    0.0000 C   0  0  0  0  0  0  0  0  0  0  0  0
   -1.5045    1.6795    0.0000 N   0  0  0  0  0  0  0  0  0  0  0  0
    2.0339    0.9419    0.0000 S   0  0  0  0  0  0  0  0  0  0  0  0
    1.4837    2.6381    0.0000 N   0  0  0  0  0  0  0  0  0  0  0  0
    0.5167    2.3712    0.0000 C   0  0  0  0  0  0  0  0  0  0  0  0
    0.2584    1.4045    0.0000 C   0  0  0  0  0  0  0  0  0  0  0  0
    3.6299    2.9796    0.0000 C   0  0  0  0  0  0  0  0  0  0  0  0
    3.1715   -0.4792    0.0000 C   0  0  0  0  0  0  0  0  0  0  0  0
    4.6217    3.0298    0.0000 N   0  0  0  0  0  0  0  0  0  0  0  0
    4.5966    0.9419    0.0000 C   0  0  0  0  0  0  0  0  0  0  0  0
   -2.5921   -0.6584    0.0000 C   0  0  0  0  0  0  0  0  0  0  0  0
    4.1424   -0.7418    0.0000 C   0  0  3  0  0  0  0  0  0  0  0  0
    4.3966   -1.7088    0.0000 C   0  0  0  0  0  0  0  0  0  0  0  0
    4.8550   -0.0333    0.0000 C   0  0  0  0  0  0  0  0  0  0  0  0
   -0.1916    3.0798    0.0000 O   0  0  0  0  0  0  0  0  0  0  0  0
   -3.5840   -0.5542    0.0000 C   0  0  0  0  0  0  0  0  0  0  0  0
   -2.1837   -1.5711    0.0000 C   0  0  0  0  0  0  0  0  0  0  0  0
   -3.7714   -2.2712    0.0000 C   0  0  0  0  0  0  0  0  0  0  0  0
   -4.1715   -1.3586    0.0000 C   0  0  0  0  0  0  0  0  0  0  0  0
   -2.7796   -2.3839    0.0000 C   0  0  0  0  0  0  0  0  0  0  0  0
   -4.3673   -3.0798    0.0000 O   0  0  0  0  0  0  0  0  0  0  0  0
    5.3593   -1.9712    0.0000 C   0  0  0  0  0  0  0  0  0  0  0  0
    3.3966   -1.7044    0.0000 C   0  0  0  0  0  0  0  0  0  0  0  0
    3.6840   -2.4088    0.0000 C   0  0  0  0  0  0  0  0  0  0  0  0
   -5.3593   -2.9712    0.0000 C   0  0  0  0  0  0  0  0  0  0  0  0
  1  2  2  0  0  0  0
  3  4  1  0  0  0  0
  4 13  1  0  0  0  0
  5 10  1  0  0  0  0
  5  8  2  0  0  0  0
  6  9  2  0  0  0  0
  3  7  2  0  0  0  0
  6  7  1  0  0  0  0
  2  8  1  0  0  0  0
  4  9  1  0  0  0  0
  1 10  1  0  0  0  0
  1 11  1  0  0  0  0
 11 12  1  0  0  0  0
 12 13  1  0  0  0  0
  2 14  1  0  0  0  0
  5 15  1  0  0  0  0
 14 16  3  0  0  0  0
  8 17  1  0  0  0  0
  7 18  1  0  0  0  0
 15 19  1  0  0  0  0
 19 20  1  0  0  0  0
 20 30  1  0  0  0  0
 17 21  1  0  0  0  0
 19 21  1  0  0  0  0
 12 22  2  0  0  0  0
 18 23  2  0  0  0  0
 18 24  1  0  0  0  0
 25 27  1  0  0  0  0
 25 26  2  0  0  0  0
 23 26  1  0  0  0  0
 24 27  2  0  0  0  0
 25 28  1  0  0  0  0
 20 29  1  0  0  0  0
 20 31  1  0  0  0  0
 28 32  1  0  0  0  0
M  END
> <IDNUMBER>
8016-7008

> <available>
31

> <H_acceptor>
7

> <H_donor>
1

> <B_rotN>
8

> <N_O>
8

> <logP>
4.968

> <logD>
4.1568

> <logSw>
-4.6633

> <PSA>
85.806

> <pKa_ma>
6.6618

> <pKa_mb>
-4.2821

> <N_Chirals>
1

> <Name>
N-(6-tert-butyl-3-cyano-4,5,6,7-tetrahydro-1-benzothiophen-2-yl)-2-[5-(4-methoxyphenyl)-2H-tetrazol-2-yl]acetamide

> <Smile>
CC(C)(C)C(CC1)Cc2c1c(C#N)c(NC(Cn1nnc(-c(cc3)ccc3OC)n1)=O)s2

> <Color>
YELLOW

> <Collection>
DC

> <InChI>
InChI=1S/C23H26N6O2S/c1-23(2,3)15-7-10-17-18(12-24)22(32-19(17)11-15)25-20(30)13-29-27-21(26-28-29)14-5-8-16(31-4)9-6-14/h5-6,8-9,15H,7,10-11,13H2,1-4H3,(H,25,30)/t15-/m1/s1

> <InChI Key>
KZBIOCFCOWDVSS-OAHLLOKOSA-N

> <PERCENTSP3>
43.5

> <Link>
https://www.chemdiv.com/catalog/screening-compounds/compound-8016-7008/

> <MFCDNUMBER>
MFCD05858444

> <CLNUMBER>
CL5633

> <STEREO>
RACEMIC MIXTURE

> <State>
Solid

> <Similarity score>
0.18

$$$$
N-(6-tert-butyl-3-cyano-4,5,6,7-tetrahydro-1-benzothiophen-2-yl)-7-(difluorometh
  -OEChem-04222410502D

 31 34  0     0  0  0  0  0  0999 V2000
    3.1104   -0.6189    0.0000 C   0  0  0  0  0  0  0  0  0  0  0  0
    2.8186    0.3562    0.0000 N   0  0  0  0  0  0  0  0  0  0  0  0
    2.2978   -1.2022    0.0000 N   0  0  0  0  0  0  0  0  0  0  0  0
    1.4852   -0.5855    0.0000 C   0  0  0  0  0  0  0  0  0  0  0  0
    1.8104    0.3562    0.0000 N   0  0  0  0  0  0  0  0  0  0  0  0
   -1.1437   -0.4230    0.0000 C   0  0  0  0  0  0  0  0  0  0  0  0
    3.5021    1.0727    0.0000 C   0  0  0  0  0  0  0  0  0  0  0  0
   -1.8270    0.2937    0.0000 C   0  0  0  0  0  0  0  0  0  0  0  0
   -2.5771   -1.1354    0.0000 C   0  0  0  0  0  0  0  0  0  0  0  0
   -2.7062   -0.1605    0.0000 C   0  0  0  0  0  0  0  0  0  0  0  0
   -1.5688   -1.2978    0.0000 S   0  0  0  0  0  0  0  0  0  0  0  0
    4.0854   -0.8146    0.0000 N   0  0  0  0  0  0  0  0  0  0  0  0
   -0.2022   -0.1605    0.0000 N   0  0  0  0  0  0  0  0  0  0  0  0
    0.5105   -0.8770    0.0000 C   0  0  0  0  0  0  0  0  0  0  0  0
    4.4438    0.8436    0.0000 C   0  0  0  0  0  0  0  0  0  0  0  0
   -1.6979    1.2978    0.0000 C   0  0  0  0  0  0  0  0  0  0  0  0
    4.7687   -0.0646    0.0000 C   0  0  0  0  0  0  0  0  0  0  0  0
    3.2395    2.0812    0.0000 C   0  0  0  0  0  0  0  0  0  0  0  0
   -3.3561   -1.7562    0.0000 C   0  0  0  0  0  0  0  0  0  0  0  0
   -1.5688    2.3061    0.0000 N   0  0  0  0  0  0  0  0  0  0  0  0
   -3.6146    0.2603    0.0000 C   0  0  0  0  0  0  0  0  0  0  0  0
   -4.2645   -1.3645    0.0000 C   0  0  3  0  0  0  0  0  0  0  0  0
   -5.0271   -1.9979    0.0000 C   0  0  0  0  0  0  0  0  0  0  0  0
    0.2520   -1.8187    0.0000 O   0  0  0  0  0  0  0  0  0  0  0  0
   -4.4272   -0.3562    0.0000 C   0  0  0  0  0  0  0  0  0  0  0  0
    2.2646    2.3731    0.0000 F   0  0  0  0  0  0  0  0  0  0  0  0
    3.9563    2.7603    0.0000 F   0  0  0  0  0  0  0  0  0  0  0  0
    5.7770   -0.2937    0.0000 C   0  0  0  0  0  0  0  0  0  0  0  0
   -5.7770   -2.6146    0.0000 C   0  0  0  0  0  0  0  0  0  0  0  0
   -4.3938   -2.7603    0.0000 C   0  0  0  0  0  0  0  0  0  0  0  0
   -5.6645   -1.2354    0.0000 C   0  0  0  0  0  0  0  0  0  0  0  0
  1  2  1  0  0  0  0
  1  3  2  0  0  0  0
  3  4  1  0  0  0  0
  4  5  2  0  0  0  0
  2  5  1  0  0  0  0
  6 13  1  0  0  0  0
  2  7  1  0  0  0  0
  6  8  2  0  0  0  0
  9 11  1  0  0  0  0
  9 10  2  0  0  0  0
  8 10  1  0  0  0  0
  6 11  1  0  0  0  0
  1 12  1  0  0  0  0
 13 14  1  0  0  0  0
  4 14  1  0  0  0  0
 15 17  1  0  0  0  0
  7 15  2  0  0  0  0
  8 16  1  0  0  0  0
 12 17  2  0  0  0  0
  7 18  1  0  0  0  0
  9 19  1  0  0  0  0
 16 20  3  0  0  0  0
 10 21  1  0  0  0  0
 19 22  1  0  0  0  0
 22 25  1  0  0  0  0
 22 23  1  0  0  0  0
 14 24  2  0  0  0  0
 21 25  1  0  0  0  0
 18 26  1  0  0  0  0
 18 27  1  0  0  0  0
 17 28  1  0  0  0  0
 23 29  1  0  0  0  0
 23 30  1  0  0  0  0
 23 31  1  0  0  0  0
M  END
> <IDNUMBER>
Y500-7656

> <available>
18

> <H_acceptor>
6

> <H_donor>
1

> <B_rotN>
6

> <N_O>
7

> <logP>
4.0715

> <logD>
2.2274

> <logSw>
-4.1515

> <PSA>
69.721

> <pKa_ma>
5.5622

> <pKa_mb>
-0.1968

> <N_Chirals>
1

> <Name>
N-(6-tert-butyl-3-cyano-4,5,6,7-tetrahydro-1-benzothiophen-2-yl)-7-(difluoromethyl)-5-methyl[1,2,4]triazolo[1,5-a]pyrimidine-2-carboxamide

> <Smile>
CC(C)(C)C(CC1)Cc2c1c(C#N)c(NC(c1nn3c(C(F)F)cc(C)nc3n1)=O)s2

> <Color>
ORANGE

> <Collection>
DC

> <InChI>
InChI=1S/C21H22F2N6OS/c1-10-7-14(16(22)23)29-20(25-10)26-17(28-29)18(30)27-19-13(9-24)12-6-5-11(21(2,3)4)8-15(12)31-19/h7,11,16H,5-6,8H2,1-4H3,(H,27,30)/t11-/m1/s1

> <InChI Key>
MVCMRWNDBQCTAZ-LLVKDONJSA-N

> <PERCENTSP3>
47.62

> <Link>
https://www.chemdiv.com/catalog/screening-compounds/compound-Y500-7656/

> <MFCDNUMBER>
MFCD02175594

> <STEREO>
RACEMIC MIXTURE

> <State>
Solid

> <Similarity score>
0.18

$$$$
N-(3-cyano-5,6-dihydro-4H-cyclopenta[b]thiophen-2-yl)-2-(2,4-dichlorophenoxy)pro
  -OEChem-04222410502D

 24 26  0     0  0  0  0  0  0999 V2000
   -0.9259    1.4450    0.0000 C   0  0  0  0  0  0  0  0  0  0  0  0
   -0.9259    2.3438    0.0000 C   0  0  0  0  0  0  0  0  0  0  0  0
   -1.7084    0.9956    0.0000 S   0  0  0  0  0  0  0  0  0  0  0  0
   -2.5065    2.3438    0.0000 C   0  0  0  0  0  0  0  0  0  0  0  0
   -0.0814    0.9569    0.0000 N   0  0  0  0  0  0  0  0  0  0  0  0
   -2.5065    1.4528    0.0000 C   0  0  0  0  0  0  0  0  0  0  0  0
   -0.0814   -0.0040    0.0000 C   0  0  0  0  0  0  0  0  0  0  0  0
   -0.0116    2.8629    0.0000 C   0  0  0  0  0  0  0  0  0  0  0  0
    0.8949    3.3743    0.0000 N   0  0  0  0  0  0  0  0  0  0  0  0
    0.7477   -1.4528    0.0000 O   0  0  0  0  0  0  0  0  0  0  0  0
    1.5767   -1.9254    0.0000 C   0  0  0  0  0  0  0  0  0  0  0  0
    2.4213   -1.4605    0.0000 C   0  0  0  0  0  0  0  0  0  0  0  0
    0.7553   -0.4996    0.0000 C   0  0  3  0  0  0  0  0  0  0  0  0
    3.2501   -1.9254    0.0000 C   0  0  0  0  0  0  0  0  0  0  0  0
   -0.9104   -0.4920    0.0000 O   0  0  0  0  0  0  0  0  0  0  0  0
    1.5845   -2.8861    0.0000 C   0  0  0  0  0  0  0  0  0  0  0  0
    3.2501   -2.8939    0.0000 C   0  0  0  0  0  0  0  0  0  0  0  0
    2.4443   -0.4996    0.0000 Cl  0  0  0  0  0  0  0  0  0  0  0  0
   -3.2967    2.8009    0.0000 C   0  0  0  0  0  0  0  0  0  0  0  0
   -4.0871    1.4528    0.0000 C   0  0  0  0  0  0  0  0  0  0  0  0
    2.4135   -3.3588    0.0000 C   0  0  0  0  0  0  0  0  0  0  0  0
    4.0871   -3.3743    0.0000 Cl  0  0  0  0  0  0  0  0  0  0  0  0
   -4.0871    2.3515    0.0000 C   0  0  0  0  0  0  0  0  0  0  0  0
    1.5845   -0.0271    0.0000 C   0  0  0  0  0  0  0  0  0  0  0  0
  1  2  2  0  0  0  0
  1  3  1  0  0  0  0
  2  4  1  0  0  0  0
  4  6  2  0  0  0  0
  1  5  1  0  0  0  0
  3  6  1  0  0  0  0
  5  7  1  0  0  0  0
  2  8  1  0  0  0  0
  8  9  3  0  0  0  0
 10 11  1  0  0  0  0
 11 12  2  0  0  0  0
 10 13  1  0  0  0  0
  7 13  1  0  0  0  0
 12 14  1  0  0  0  0
 14 17  2  0  0  0  0
  7 15  2  0  0  0  0
 11 16  1  0  0  0  0
 17 21  1  0  0  0  0
 12 18  1  0  0  0  0
  4 19  1  0  0  0  0
 19 23  1  0  0  0  0
  6 20  1  0  0  0  0
 16 21  2  0  0  0  0
 17 22  1  0  0  0  0
 20 23  1  0  0  0  0
 13 24  1  0  0  0  0
M  END
> <IDNUMBER>
8012-3703

> <available>
16

> <H_acceptor>
4

> <H_donor>
1

> <B_rotN>
6

> <N_O>
4

> <logP>
4.9424

> <logD>
3.5046

> <logSw>
-5.0599

> <PSA>
47.342

> <pKa_ma>
5.9783

> <pKa_mb>
-6.0563

> <N_Chirals>
1

> <Name>
N-(3-cyano-5,6-dihydro-4H-cyclopenta[b]thiophen-2-yl)-2-(2,4-dichlorophenoxy)propanamide

> <Smile>
CC(C(Nc(sc1c2CCC1)c2C#N)=O)Oc(ccc(Cl)c1)c1Cl

> <Color>
ORANGE

> <Collection>
DC

> <InChI>
InChI=1S/C17H14Cl2N2O2S/c1-9(23-14-6-5-10(18)7-13(14)19)16(22)21-17-12(8-20)11-3-2-4-15(11)24-17/h5-7,9H,2-4H2,1H3,(H,21,22)/t9-/m0/s1

> <InChI Key>
FLHOMHATGIKCCI-VIFPVBQESA-N

> <PERCENTSP3>
29.41

> <Link>
https://www.chemdiv.com/catalog/screening-compounds/compound-8012-3703/

> <MFCDNUMBER>
MFCD02928197

> <STEREO>
RACEMIC MIXTURE

> <State>
Solid

> <Similarity score>
0.18

$$$$
N-(6-tert-butyl-3-cyano-4,5,6,7-tetrahydro-1-benzothiophen-2-yl)-5-(4-methoxyphe
  -OEChem-04222410502D

 39 43  0     0  0  0  0  0  0999 V2000
    0.8591    0.4395    0.0000 N   0  0  0  0  0  0  0  0  0  0  0  0
    1.3176    1.2471    0.0000 C   0  0  0  0  0  0  0  0  0  0  0  0
    1.2757   -0.3765    0.0000 C   0  0  0  0  0  0  0  0  0  0  0  0
   -2.9938    0.4250    0.0000 C   0  0  0  0  0  0  0  0  0  0  0  0
   -0.1735    0.4395    0.0000 N   0  0  0  0  0  0  0  0  0  0  0  0
   -3.4419    1.1820    0.0000 C   0  0  0  0  0  0  0  0  0  0  0  0
   -0.6046   -0.3617    0.0000 C   0  0  0  0  0  0  0  0  0  0  0  0
   -0.0746   -1.1505    0.0000 C   0  0  0  0  0  0  0  0  0  0  0  0
    2.2978   -0.3765    0.0000 N   0  0  0  0  0  0  0  0  0  0  0  0
    2.3273    1.2471    0.0000 C   0  0  0  0  0  0  0  0  0  0  0  0
   -4.3819   -0.4016    0.0000 C   0  0  0  0  0  0  0  0  0  0  0  0
   -4.8174    0.3996    0.0000 C   0  0  0  0  0  0  0  0  0  0  0  0
   -3.4732   -0.4016    0.0000 S   0  0  0  0  0  0  0  0  0  0  0  0
    0.8697    2.0905    0.0000 C   0  0  0  0  0  0  0  0  0  0  0  0
    2.7879    0.4649    0.0000 C   0  0  0  0  0  0  0  0  0  0  0  0
   -2.0749    0.4250    0.0000 N   0  0  0  0  0  0  0  0  0  0  0  0
   -1.6016   -0.3617    0.0000 C   0  0  0  0  0  0  0  0  0  0  0  0
   -2.9432    2.0402    0.0000 C   0  0  0  0  0  0  0  0  0  0  0  0
   -4.8741   -1.3020    0.0000 C   0  0  0  0  0  0  0  0  0  0  0  0
   -2.4386    2.8897    0.0000 N   0  0  0  0  0  0  0  0  0  0  0  0
   -5.8773    0.3996    0.0000 C   0  0  0  0  0  0  0  0  0  0  0  0
   -5.8941   -1.2850    0.0000 C   0  0  3  0  0  0  0  0  0  0  0  0
    3.8227    0.4649    0.0000 C   0  0  0  0  0  0  0  0  0  0  0  0
   -6.4241   -2.1179    0.0000 C   0  0  0  0  0  0  0  0  0  0  0  0
   -2.1569   -1.2430    0.0000 O   0  0  0  0  0  0  0  0  0  0  0  0
   -6.3989   -0.4586    0.0000 C   0  0  0  0  0  0  0  0  0  0  0  0
    1.7109    2.5953    0.0000 F   0  0  0  0  0  0  0  0  0  0  0  0
    0.0200    1.6174    0.0000 F   0  0  0  0  0  0  0  0  0  0  0  0
    0.3985    2.9319    0.0000 F   0  0  0  0  0  0  0  0  0  0  0  0
    4.3672    1.3040    0.0000 C   0  0  0  0  0  0  0  0  0  0  0  0
    4.3105   -0.3617    0.0000 C   0  0  0  0  0  0  0  0  0  0  0  0
    5.8186    0.4817    0.0000 C   0  0  0  0  0  0  0  0  0  0  0  0
    5.3011   -0.3617    0.0000 C   0  0  0  0  0  0  0  0  0  0  0  0
    5.3390    1.3040    0.0000 C   0  0  0  0  0  0  0  0  0  0  0  0
    6.8659    0.4817    0.0000 O   0  0  0  0  0  0  0  0  0  0  0  0
   -6.9437   -2.9319    0.0000 C   0  0  0  0  0  0  0  0  0  0  0  0
   -5.5934   -2.6479    0.0000 C   0  0  0  0  0  0  0  0  0  0  0  0
   -7.2571   -1.5879    0.0000 C   0  0  0  0  0  0  0  0  0  0  0  0
    7.2571    1.2641    0.0000 C   0  0  0  0  0  0  0  0  0  0  0  0
  1  2  1  0  0  0  0
  1  3  1  0  0  0  0
  4 16  1  0  0  0  0
  1  5  1  0  0  0  0
  4  6  2  0  0  0  0
  5  7  2  0  0  0  0
  7  8  1  0  0  0  0
  3  8  2  0  0  0  0
  3  9  1  0  0  0  0
  2 10  2  0  0  0  0
 10 15  1  0  0  0  0
 11 13  1  0  0  0  0
 11 12  2  0  0  0  0
  6 12  1  0  0  0  0
  4 13  1  0  0  0  0
  2 14  1  0  0  0  0
  9 15  2  0  0  0  0
 16 17  1  0  0  0  0
  7 17  1  0  0  0  0
  6 18  1  0  0  0  0
 11 19  1  0  0  0  0
 18 20  3  0  0  0  0
 12 21  1  0  0  0  0
 19 22  1  0  0  0  0
 15 23  1  0  0  0  0
 22 24  1  0  0  0  0
 17 25  2  0  0  0  0
 21 26  1  0  0  0  0
 22 26  1  0  0  0  0
 14 27  1  0  0  0  0
 14 28  1  0  0  0  0
 14 29  1  0  0  0  0
 23 30  2  0  0  0  0
 23 31  1  0  0  0  0
 32 33  1  0  0  0  0
 31 33  2  0  0  0  0
 30 34  1  0  0  0  0
 32 34  2  0  0  0  0
 32 35  1  0  0  0  0
 24 36  1  0  0  0  0
 24 37  1  0  0  0  0
 24 38  1  0  0  0  0
 35 39  1  0  0  0  0
M  END
> <IDNUMBER>
2774-1302

> <available>
3

> <H_acceptor>
6

> <H_donor>
1

> <B_rotN>
8

> <N_O>
7

> <logP>
7.205

> <logD>
5.579

> <logSw>
-5.705

> <PSA>
65.8

> <pKa_ma>
5.784

> <pKa_mb>
1.312

> <N_Chirals>
1

> <Name>
N-(6-tert-butyl-3-cyano-4,5,6,7-tetrahydro-1-benzothiophen-2-yl)-5-(4-methoxyphenyl)-7-(trifluoromethyl)pyrazolo[1,5-a]pyrimidine-2-carboxamide

> <Smile>
CC(C)(C)C(CC1)Cc2c1c(C#N)c(NC(c1nn3c(C(F)(F)F)cc(-c(cc4)ccc4OC)nc3c1)=O)s2

> <Color>
YELLOW

> <Collection>
DC

> <InChI>
InChI=1S/C28H26F3N5O2S/c1-27(2,3)16-7-10-18-19(14-32)26(39-22(18)11-16)34-25(37)21-13-24-33-20(15-5-8-17(38-4)9-6-15)12-23(28(29,30)31)36(24)35-21/h5-6,8-9,12-13,16H,7,10-11H2,1-4H3,(H,34,37)/t16-/m1/
s1

> <InChI Key>
YRTVZWNVFLBIEQ-MRXNPFEDSA-N

> <PERCENTSP3>
35.714

> <Link>
https://www.chemdiv.com/catalog/screening-compounds/compound-2774-1302/

> <MFCDNUMBER>
MFCD01451926

> <CLNUMBER>
CL1652

> <STEREO>
RACEMIC MIXTURE

> <State>
Solid

> <Similarity score>
0.18

$$$$
N-(3-cyano-4,5,6,7-tetrahydro-1-benzothiophen-2-yl)-2-[(4,6-diphenylpyrimidin-2-
  -OEChem-04222410502D

 34 38  0     0  0  0  0  0  0999 V2000
   -2.6647   -0.5783    0.0000 C   0  0  0  0  0  0  0  0  0  0  0  0
   -3.4899   -0.0298    0.0000 C   0  0  0  0  0  0  0  0  0  0  0  0
   -2.9252   -1.5500    0.0000 S   0  0  0  0  0  0  0  0  0  0  0  0
   -4.2609   -0.6541    0.0000 C   0  0  0  0  0  0  0  0  0  0  0  0
   -3.9135   -1.5934    0.0000 C   0  0  0  0  0  0  0  0  0  0  0  0
    1.6893   -0.8333    0.0000 C   0  0  0  0  0  0  0  0  0  0  0  0
   -1.7147   -0.2452    0.0000 N   0  0  0  0  0  0  0  0  0  0  0  0
    1.8412    0.1348    0.0000 N   0  0  0  0  0  0  0  0  0  0  0  0
    2.4547   -1.4973    0.0000 N   0  0  0  0  0  0  0  0  0  0  0  0
    2.8348    0.4588    0.0000 C   0  0  0  0  0  0  0  0  0  0  0  0
    3.3995   -1.1536    0.0000 C   0  0  0  0  0  0  0  0  0  0  0  0
   -3.5171    0.9636    0.0000 C   0  0  0  0  0  0  0  0  0  0  0  0
    3.5839   -0.1493    0.0000 C   0  0  0  0  0  0  0  0  0  0  0  0
   -3.5495    1.9570    0.0000 N   0  0  0  0  0  0  0  0  0  0  0  0
   -0.9546   -0.8894    0.0000 C   0  0  0  0  0  0  0  0  0  0  0  0
    0.7392   -1.1808    0.0000 S   0  0  0  0  0  0  0  0  0  0  0  0
    3.0031    1.4413    0.0000 C   0  0  0  0  0  0  0  0  0  0  0  0
    4.1756   -1.7617    0.0000 C   0  0  0  0  0  0  0  0  0  0  0  0
   -1.1228   -1.8539    0.0000 O   0  0  0  0  0  0  0  0  0  0  0  0
   -0.0245   -0.5457    0.0000 C   0  0  0  0  0  0  0  0  0  0  0  0
   -5.2668   -0.4696    0.0000 C   0  0  0  0  0  0  0  0  0  0  0  0
   -4.5810   -2.3425    0.0000 C   0  0  0  0  0  0  0  0  0  0  0  0
    3.9477    1.7887    0.0000 C   0  0  0  0  0  0  0  0  0  0  0  0
    3.9965   -2.7715    0.0000 C   0  0  0  0  0  0  0  0  0  0  0  0
    5.1258   -1.4251    0.0000 C   0  0  0  0  0  0  0  0  0  0  0  0
    2.2376    2.0929    0.0000 C   0  0  0  0  0  0  0  0  0  0  0  0
   -5.8913   -1.2458    0.0000 C   0  0  0  0  0  0  0  0  0  0  0  0
   -5.5583   -2.1743    0.0000 C   0  0  0  0  0  0  0  0  0  0  0  0
    4.7729   -3.3958    0.0000 C   0  0  0  0  0  0  0  0  0  0  0  0
    5.8913   -2.0548    0.0000 C   0  0  0  0  0  0  0  0  0  0  0  0
    4.1486    2.7660    0.0000 C   0  0  0  0  0  0  0  0  0  0  0  0
    2.4059    3.0754    0.0000 C   0  0  0  0  0  0  0  0  0  0  0  0
    3.3558    3.3958    0.0000 C   0  0  0  0  0  0  0  0  0  0  0  0
    5.7230   -3.0158    0.0000 C   0  0  0  0  0  0  0  0  0  0  0  0
  1  2  2  0  0  0  0
  1  3  1  0  0  0  0
  2  4  1  0  0  0  0
  4  5  2  0  0  0  0
  3  5  1  0  0  0  0
  6 16  1  0  0  0  0
  1  7  1  0  0  0  0
  6  8  1  0  0  0  0
  6  9  2  0  0  0  0
  8 10  2  0  0  0  0
 10 13  1  0  0  0  0
  9 11  1  0  0  0  0
  2 12  1  0  0  0  0
 11 13  2  0  0  0  0
 12 14  3  0  0  0  0
  7 15  1  0  0  0  0
 16 20  1  0  0  0  0
 10 17  1  0  0  0  0
 11 18  1  0  0  0  0
 15 19  2  0  0  0  0
 15 20  1  0  0  0  0
  4 21  1  0  0  0  0
  5 22  1  0  0  0  0
 17 23  2  0  0  0  0
 18 24  2  0  0  0  0
 18 25  1  0  0  0  0
 17 26  1  0  0  0  0
 21 27  1  0  0  0  0
 27 28  1  0  0  0  0
 22 28  1  0  0  0  0
 24 29  1  0  0  0  0
 29 34  2  0  0  0  0
 25 30  2  0  0  0  0
 23 31  1  0  0  0  0
 31 33  2  0  0  0  0
 26 32  2  0  0  0  0
 32 33  1  0  0  0  0
 30 34  1  0  0  0  0
M  END
> <IDNUMBER>
8009-2567

> <available>
37

> <H_acceptor>
6

> <H_donor>
1

> <B_rotN>
8

> <N_O>
5

> <logP>
6.8474

> <logD>
5.8147

> <logSw>
-6.0391

> <PSA>
56.638

> <pKa_ma>
6.4095

> <pKa_mb>
0.1164

> <N_Chirals>
0

> <Name>
N-(3-cyano-4,5,6,7-tetrahydro-1-benzothiophen-2-yl)-2-[(4,6-diphenylpyrimidin-2-yl)sulfanyl]acetamide

> <Smile>
N#Cc1c(NC(CSc2nc(-c3ccccc3)cc(-c3ccccc3)n2)=O)sc2c1CCCC2

> <Color>
NOT COLORED

> <Collection>
DC

> <InChI>
InChI=1S/C27H22N4OS2/c28-16-21-20-13-7-8-14-24(20)34-26(21)31-25(32)17-33-27-29-22(18-9-3-1-4-10-18)15-23(30-27)19-11-5-2-6-12-19/h1-6,9-12,15H,7-8,13-14,17H2,(H,31,32)

> <InChI Key>
DJZBLGXOCROOSG-UHFFFAOYSA-N

> <PERCENTSP3>
18.5

> <Link>
https://www.chemdiv.com/catalog/screening-compounds/compound-8009-2567/

> <MFCDNUMBER>
MFCD01572635

> <CLNUMBER>
CL1325

> <STEREO>
ACHIRAL

> <State>
Solid

> <Similarity score>
0.18

$$$$
N-(6-tert-butyl-3-cyano-4,5,6,7-tetrahydro-1-benzothiophen-2-yl)-5-(2-methoxyphe
  -OEChem-04222410502D

 31 34  0     0  0  0  0  0  0999 V2000
   -0.7786   -0.8764    0.0000 C   0  0  0  0  0  0  0  0  0  0  0  0
   -1.5851   -1.4353    0.0000 C   0  0  0  0  0  0  0  0  0  0  0  0
   -0.3004   -2.4186    0.0000 C   0  0  0  0  0  0  0  0  0  0  0  0
   -1.3079   -2.3966    0.0000 C   0  0  0  0  0  0  0  0  0  0  0  0
    0.0696    1.9921    0.0000 C   0  0  0  0  0  0  0  0  0  0  0  0
    0.0232   -1.4795    0.0000 S   0  0  0  0  0  0  0  0  0  0  0  0
    0.5821    3.4852    0.0000 C   0  0  0  0  0  0  0  0  0  0  0  0
    0.8714    2.5510    0.0000 C   0  0  0  0  0  0  0  0  0  0  0  0
   -0.7026    2.5828    0.0000 N   0  0  0  0  0  0  0  0  0  0  0  0
   -0.7786    0.1363    0.0000 N   0  0  0  0  0  0  0  0  0  0  0  0
    0.0845    0.6363    0.0000 C   0  0  0  0  0  0  0  0  0  0  0  0
   -0.4011    3.4999    0.0000 O   0  0  0  0  0  0  0  0  0  0  0  0
    1.1683    4.2623    0.0000 C   0  0  0  0  0  0  0  0  0  0  0  0
   -2.5289   -1.1044    0.0000 C   0  0  0  0  0  0  0  0  0  0  0  0
    0.1753   -3.2962    0.0000 C   0  0  0  0  0  0  0  0  0  0  0  0
   -3.4802   -0.7711    0.0000 N   0  0  0  0  0  0  0  0  0  0  0  0
   -1.8228   -3.2447    0.0000 C   0  0  0  0  0  0  0  0  0  0  0  0
   -0.3543   -4.1518    0.0000 C   0  0  3  0  0  0  0  0  0  0  0  0
    0.1238   -5.0443    0.0000 C   0  0  0  0  0  0  0  0  0  0  0  0
    0.9256    0.1363    0.0000 O   0  0  0  0  0  0  0  0  0  0  0  0
    2.1342    4.1397    0.0000 C   0  0  0  0  0  0  0  0  0  0  0  0
   -1.3425   -4.1222    0.0000 C   0  0  0  0  0  0  0  0  0  0  0  0
    2.5165    3.2473    0.0000 O   0  0  0  0  0  0  0  0  0  0  0  0
    0.7904    5.1548    0.0000 C   0  0  0  0  0  0  0  0  0  0  0  0
   -0.7786   -5.5152    0.0000 C   0  0  0  0  0  0  0  0  0  0  0  0
    1.0162   -4.5811    0.0000 C   0  0  0  0  0  0  0  0  0  0  0  0
    0.5821   -5.9417    0.0000 C   0  0  0  0  0  0  0  0  0  0  0  0
    2.7129    4.9218    0.0000 C   0  0  0  0  0  0  0  0  0  0  0  0
    3.4802    3.1270    0.0000 C   0  0  0  0  0  0  0  0  0  0  0  0
    1.3670    5.9417    0.0000 C   0  0  0  0  0  0  0  0  0  0  0  0
    2.3351    5.8190    0.0000 C   0  0  0  0  0  0  0  0  0  0  0  0
  1  2  2  0  0  0  0
  3  6  1  0  0  0  0
  3  4  2  0  0  0  0
  2  4  1  0  0  0  0
  5 11  1  0  0  0  0
  1  6  1  0  0  0  0
  7  8  2  0  0  0  0
  7 12  1  0  0  0  0
  5  8  1  0  0  0  0
  5  9  2  0  0  0  0
  1 10  1  0  0  0  0
 10 11  1  0  0  0  0
  9 12  1  0  0  0  0
  7 13  1  0  0  0  0
  2 14  1  0  0  0  0
  3 15  1  0  0  0  0
 14 16  3  0  0  0  0
  4 17  1  0  0  0  0
 15 18  1  0  0  0  0
 18 19  1  0  0  0  0
 11 20  2  0  0  0  0
 13 21  2  0  0  0  0
 17 22  1  0  0  0  0
 18 22  1  0  0  0  0
 21 23  1  0  0  0  0
 13 24  1  0  0  0  0
 19 25  1  0  0  0  0
 19 26  1  0  0  0  0
 19 27  1  0  0  0  0
 21 28  1  0  0  0  0
 28 31  2  0  0  0  0
 23 29  1  0  0  0  0
 24 30  2  0  0  0  0
 30 31  1  0  0  0  0
M  END
> <IDNUMBER>
C226-1011

> <available>
187

> <H_acceptor>
6

> <H_donor>
1

> <B_rotN>
7

> <N_O>
6

> <logP>
5.7388

> <logD>
4.4478

> <logSw>
-5.5222

> <PSA>
69.267

> <pKa_ma>
6.1318

> <pKa_mb>
-5.6504

> <N_Chirals>
1

> <Name>
N-(6-tert-butyl-3-cyano-4,5,6,7-tetrahydro-1-benzothiophen-2-yl)-5-(2-methoxyphenyl)-1,2-oxazole-3-carboxamide

> <Smile>
CC(C)(C)C(CC1)Cc2c1c(C#N)c(NC(c1noc(-c(cccc3)c3OC)c1)=O)s2

> <Color>
NOT COLORED

> <Collection>
DC

> <InChI>
InChI=1S/C24H25N3O3S/c1-24(2,3)14-9-10-15-17(13-25)23(31-21(15)11-14)26-22(28)18-12-20(30-27-18)16-7-5-6-8-19(16)29-4/h5-8,12,14H,9-11H2,1-4H3,(H,26,28)/t14-/m1/s1

> <InChI Key>
UBSUMNIDYLNHGT-CQSZACIVSA-N

> <PERCENTSP3>
37.5

> <Link>
https://www.chemdiv.com/catalog/screening-compounds/compound-C226-1011/

> <MFCDNUMBER>
MFCD09782140

> <CLNUMBER>
CL2028

> <STEREO>
RACEMIC MIXTURE

> <State>
Solid

> <Similarity score>
0.18

$$$$
N-(6-tert-butyl-3-cyano-4,5,6,7-tetrahydro-1-benzothiophen-2-yl)-5-(4-fluorophen
  -OEChem-04222410502D

 30 33  0     0  0  0  0  0  0999 V2000
   -0.4250   -1.3303    0.0000 C   0  0  0  0  0  0  0  0  0  0  0  0
   -1.2321   -1.8895    0.0000 C   0  0  0  0  0  0  0  0  0  0  0  0
    0.0538   -2.8714    0.0000 C   0  0  0  0  0  0  0  0  0  0  0  0
   -0.9549   -2.8528    0.0000 C   0  0  0  0  0  0  0  0  0  0  0  0
    0.4492    1.8519    0.0000 C   0  0  0  0  0  0  0  0  0  0  0  0
    0.3766   -1.9355    0.0000 S   0  0  0  0  0  0  0  0  0  0  0  0
   -0.3202    2.4033    0.0000 N   0  0  0  0  0  0  0  0  0  0  0  0
   -0.4250   -0.3160    0.0000 N   0  0  0  0  0  0  0  0  0  0  0  0
    1.2211    2.4033    0.0000 C   0  0  0  0  0  0  0  0  0  0  0  0
    0.4382    0.1814    0.0000 C   0  0  0  0  0  0  0  0  0  0  0  0
    0.9225    3.3098    0.0000 C   0  0  0  0  0  0  0  0  0  0  0  0
   -0.0322    3.2962    0.0000 O   0  0  0  0  0  0  0  0  0  0  0  0
   -2.1761   -1.5561    0.0000 C   0  0  0  0  0  0  0  0  0  0  0  0
    0.5300   -3.7510    0.0000 C   0  0  0  0  0  0  0  0  0  0  0  0
   -3.1310   -1.2253    0.0000 N   0  0  0  0  0  0  0  0  0  0  0  0
   -1.4687   -3.7000    0.0000 C   0  0  0  0  0  0  0  0  0  0  0  0
    0.0000   -4.6089    0.0000 C   0  0  3  0  0  0  0  0  0  0  0  0
    1.4661    4.0844    0.0000 C   0  0  0  0  0  0  0  0  0  0  0  0
    0.4786   -5.5021    0.0000 C   0  0  0  0  0  0  0  0  0  0  0  0
    1.2669   -0.2972    0.0000 O   0  0  0  0  0  0  0  0  0  0  0  0
   -0.9901   -4.5797    0.0000 C   0  0  0  0  0  0  0  0  0  0  0  0
    1.0839    4.9453    0.0000 C   0  0  0  0  0  0  0  0  0  0  0  0
    2.4181    3.9932    0.0000 C   0  0  0  0  0  0  0  0  0  0  0  0
    2.5795    5.6257    0.0000 C   0  0  0  0  0  0  0  0  0  0  0  0
    2.9642    4.7597    0.0000 C   0  0  0  0  0  0  0  0  0  0  0  0
    1.6301    5.7171    0.0000 C   0  0  0  0  0  0  0  0  0  0  0  0
    3.1310    6.4004    0.0000 F   0  0  0  0  0  0  0  0  0  0  0  0
   -0.4250   -5.9701    0.0000 C   0  0  0  0  0  0  0  0  0  0  0  0
    1.3693   -5.0367    0.0000 C   0  0  0  0  0  0  0  0  0  0  0  0
    0.9387   -6.4004    0.0000 C   0  0  0  0  0  0  0  0  0  0  0  0
  1  2  2  0  0  0  0
  3  6  1  0  0  0  0
  3  4  2  0  0  0  0
  2  4  1  0  0  0  0
  5 10  1  0  0  0  0
  1  6  1  0  0  0  0
  5  7  2  0  0  0  0
  1  8  1  0  0  0  0
  5  9  1  0  0  0  0
  8 10  1  0  0  0  0
  9 11  2  0  0  0  0
 11 12  1  0  0  0  0
  7 12  1  0  0  0  0
  2 13  1  0  0  0  0
  3 14  1  0  0  0  0
 13 15  3  0  0  0  0
  4 16  1  0  0  0  0
 14 17  1  0  0  0  0
 11 18  1  0  0  0  0
 17 19  1  0  0  0  0
 10 20  2  0  0  0  0
 16 21  1  0  0  0  0
 17 21  1  0  0  0  0
 18 22  1  0  0  0  0
 18 23  2  0  0  0  0
 24 25  2  0  0  0  0
 23 25  1  0  0  0  0
 22 26  2  0  0  0  0
 24 26  1  0  0  0  0
 24 27  1  0  0  0  0
 19 28  1  0  0  0  0
 19 29  1  0  0  0  0
 19 30  1  0  0  0  0
M  END
> <IDNUMBER>
C226-0327

> <available>
129

> <H_acceptor>
5

> <H_donor>
1

> <B_rotN>
6

> <N_O>
5

> <logP>
6.0744

> <logD>
4.7834

> <logSw>
-5.5146

> <PSA>
61.636

> <pKa_ma>
6.1318

> <pKa_mb>
-6.8683

> <N_Chirals>
1

> <Name>
N-(6-tert-butyl-3-cyano-4,5,6,7-tetrahydro-1-benzothiophen-2-yl)-5-(4-fluorophenyl)-1,2-oxazole-3-carboxamide

> <Smile>
CC(C)(C)C(CC1)Cc2c1c(C#N)c(NC(c1noc(-c(cc3)ccc3F)c1)=O)s2

> <Color>
NOT COLORED

> <Collection>
DC

> <InChI>
InChI=1S/C23H22FN3O2S/c1-23(2,3)14-6-9-16-17(12-25)22(30-20(16)10-14)26-21(28)18-11-19(29-27-18)13-4-7-15(24)8-5-13/h4-5,7-8,11,14H,6,9-10H2,1-3H3,(H,26,28)/t14-/m1/s1

> <InChI Key>
SSARRILCVBOTDN-CQSZACIVSA-N

> <PERCENTSP3>
34.8

> <Link>
https://www.chemdiv.com/catalog/screening-compounds/compound-C226-0327/

> <MFCDNUMBER>
MFCD09781670

> <CLNUMBER>
CL2028

> <STEREO>
RACEMIC MIXTURE

> <CAS>
912790-46-6

> <State>
Solid

> <Similarity score>
0.18

$$$$
N-(3-cyano-5,6-dihydro-4H-cyclopenta[b]thiophen-2-yl)-2-[(5-methyl-1H-benzimidaz
  -OEChem-04222410502D

 25 28  0     0  0  0  0  0  0999 V2000
    2.8645   -0.8416    0.0000 C   0  0  0  0  0  0  0  0  0  0  0  0
    3.1312    0.1084    0.0000 C   0  0  0  0  0  0  0  0  0  0  0  0
    3.6813   -1.3959    0.0000 S   0  0  0  0  0  0  0  0  0  0  0  0
    4.1437    0.1291    0.0000 C   0  0  0  0  0  0  0  0  0  0  0  0
   -1.4686   -0.1291    0.0000 C   0  0  0  0  0  0  0  0  0  0  0  0
   -2.2312    0.4916    0.0000 N   0  0  0  0  0  0  0  0  0  0  0  0
    4.4894   -0.7835    0.0000 C   0  0  0  0  0  0  0  0  0  0  0  0
   -1.8229   -1.0665    0.0000 N   0  0  0  0  0  0  0  0  0  0  0  0
    1.8771   -1.0665    0.0000 N   0  0  0  0  0  0  0  0  0  0  0  0
   -3.0813   -0.0208    0.0000 C   0  0  0  0  0  0  0  0  0  0  0  0
    2.5188    0.9166    0.0000 C   0  0  0  0  0  0  0  0  0  0  0  0
   -2.8311   -0.9832    0.0000 C   0  0  0  0  0  0  0  0  0  0  0  0
    1.8771    1.7084    0.0000 N   0  0  0  0  0  0  0  0  0  0  0  0
    1.1771   -0.3665    0.0000 C   0  0  0  0  0  0  0  0  0  0  0  0
   -0.4938    0.1084    0.0000 S   0  0  0  0  0  0  0  0  0  0  0  0
   -4.0313    0.2542    0.0000 C   0  0  0  0  0  0  0  0  0  0  0  0
    1.4521    0.6165    0.0000 O   0  0  0  0  0  0  0  0  0  0  0  0
   -3.5313   -1.7084    0.0000 C   0  0  0  0  0  0  0  0  0  0  0  0
    0.1938   -0.5916    0.0000 C   0  0  0  0  0  0  0  0  0  0  0  0
   -4.7561   -0.4458    0.0000 C   0  0  0  0  0  0  0  0  0  0  0  0
    4.9393    0.7293    0.0000 C   0  0  0  0  0  0  0  0  0  0  0  0
    5.4938   -0.7707    0.0000 C   0  0  0  0  0  0  0  0  0  0  0  0
   -4.5061   -1.4083    0.0000 C   0  0  0  0  0  0  0  0  0  0  0  0
    5.7436    0.1542    0.0000 C   0  0  0  0  0  0  0  0  0  0  0  0
   -5.7436   -0.1791    0.0000 C   0  0  0  0  0  0  0  0  0  0  0  0
  1  2  2  0  0  0  0
  1  3  1  0  0  0  0
  2  4  1  0  0  0  0
  4  7  2  0  0  0  0
  5 15  1  0  0  0  0
  5  6  2  0  0  0  0
  3  7  1  0  0  0  0
  5  8  1  0  0  0  0
  1  9  1  0  0  0  0
  6 10  1  0  0  0  0
  2 11  1  0  0  0  0
  8 12  1  0  0  0  0
 10 12  2  0  0  0  0
 11 13  3  0  0  0  0
  9 14  1  0  0  0  0
 15 19  1  0  0  0  0
 10 16  1  0  0  0  0
 14 17  2  0  0  0  0
 12 18  1  0  0  0  0
 14 19  1  0  0  0  0
 16 20  2  0  0  0  0
  4 21  1  0  0  0  0
  7 22  1  0  0  0  0
 18 23  2  0  0  0  0
 20 23  1  0  0  0  0
 22 24  1  0  0  0  0
 21 24  1  0  0  0  0
 20 25  1  0  0  0  0
M  END
> <IDNUMBER>
Y505-4869

> <available>
31

> <H_acceptor>
5

> <H_donor>
2

> <B_rotN>
6

> <N_O>
5

> <logP>
3.5324

> <logD>
2.4809

> <logSw>
-4.0847

> <PSA>
58.266

> <pKa_ma>
6.3889

> <pKa_mb>
3.7876

> <N_Chirals>
0

> <Name>
N-(3-cyano-5,6-dihydro-4H-cyclopenta[b]thiophen-2-yl)-2-[(5-methyl-1H-benzimidazol-2-yl)sulfanyl]acetamide

> <Smile>
c1(c(c2c(s1)CCC2)C#N)NC(=O)CSc1nc2c([nH]1)ccc(c2)C

> <Color>
NOT COLORED

> <Collection>
DC

> <InChI>
InChI=1S/C18H16N4OS2/c1-10-5-6-13-14(7-10)21-18(20-13)24-9-16(23)22-17-12(8-19)11-3-2-4-15(11)25-17/h5-7H,2-4,9H2,1H3,(H,20,21)(H,22,23)

> <InChI Key>
JPZGTLSIVWQMBU-UHFFFAOYSA-N

> <PERCENTSP3>
6

> <Link>
https://www.chemdiv.com/catalog/screening-compounds/compound-Y505-4869/

> <MFCDNUMBER>
MFCD02157518

> <STEREO>
ACHIRAL

> <State>
Solid

> <Similarity score>
0.18

$$$$
N-(3-cyano-4,5,6,7-tetrahydro-1-benzothiophen-2-yl)-3,6-dimethyl[1,2]oxazolo[5,4
  -OEChem-04222410502D

 25 28  0     0  0  0  0  0  0999 V2000
    0.8980   -0.0104    0.0000 C   0  0  0  0  0  0  0  0  0  0  0  0
    1.1315   -0.9980    0.0000 C   0  0  0  0  0  0  0  0  0  0  0  0
   -2.5358   -0.4605    0.0000 C   0  0  0  0  0  0  0  0  0  0  0  0
   -3.4610   -0.0728    0.0000 C   0  0  0  0  0  0  0  0  0  0  0  0
   -1.7399    0.1480    0.0000 C   0  0  0  0  0  0  0  0  0  0  0  0
    1.7482    0.5106    0.0000 S   0  0  0  0  0  0  0  0  0  0  0  0
    2.1233   -1.0689    0.0000 C   0  0  0  0  0  0  0  0  0  0  0  0
   -0.0229    0.3730    0.0000 N   0  0  0  0  0  0  0  0  0  0  0  0
   -0.8148   -0.2354    0.0000 C   0  0  0  0  0  0  0  0  0  0  0  0
    2.5235   -0.1521    0.0000 C   0  0  0  0  0  0  0  0  0  0  0  0
   -3.5904   -1.6900    0.0000 N   0  0  0  0  0  0  0  0  0  0  0  0
   -4.1112   -0.8355    0.0000 O   0  0  0  0  0  0  0  0  0  0  0  0
   -3.5904    0.9189    0.0000 N   0  0  0  0  0  0  0  0  0  0  0  0
   -2.6192   -1.4565    0.0000 C   0  0  0  0  0  0  0  0  0  0  0  0
    0.5065   -1.7566    0.0000 C   0  0  0  0  0  0  0  0  0  0  0  0
   -0.1146   -2.5193    0.0000 N   0  0  0  0  0  0  0  0  0  0  0  0
   -1.8691    1.1439    0.0000 C   0  0  0  0  0  0  0  0  0  0  0  0
   -2.7943    1.5274    0.0000 C   0  0  0  0  0  0  0  0  0  0  0  0
   -0.6897   -1.2273    0.0000 O   0  0  0  0  0  0  0  0  0  0  0  0
    2.7068   -1.8608    0.0000 C   0  0  0  0  0  0  0  0  0  0  0  0
    3.5195   -0.0145    0.0000 C   0  0  0  0  0  0  0  0  0  0  0  0
   -1.9066   -2.1358    0.0000 C   0  0  0  0  0  0  0  0  0  0  0  0
   -2.9235    2.5193    0.0000 C   0  0  0  0  0  0  0  0  0  0  0  0
    3.7154   -1.7482    0.0000 C   0  0  0  0  0  0  0  0  0  0  0  0
    4.1112   -0.8355    0.0000 C   0  0  0  0  0  0  0  0  0  0  0  0
  1  2  2  0  0  0  0
  3  5  1  0  0  0  0
  3  4  2  0  0  0  0
  4 13  1  0  0  0  0
  5  9  1  0  0  0  0
  1  6  1  0  0  0  0
  2  7  1  0  0  0  0
  7 10  2  0  0  0  0
  1  8  1  0  0  0  0
  8  9  1  0  0  0  0
  6 10  1  0  0  0  0
 11 14  2  0  0  0  0
 11 12  1  0  0  0  0
  4 12  1  0  0  0  0
 13 18  2  0  0  0  0
  3 14  1  0  0  0  0
  2 15  1  0  0  0  0
 15 16  3  0  0  0  0
  5 17  2  0  0  0  0
 17 18  1  0  0  0  0
  9 19  2  0  0  0  0
  7 20  1  0  0  0  0
 10 21  1  0  0  0  0
 14 22  1  0  0  0  0
 18 23  1  0  0  0  0
 20 24  1  0  0  0  0
 24 25  1  0  0  0  0
 21 25  1  0  0  0  0
M  END
> <IDNUMBER>
Y501-3619

> <available>
10

> <H_acceptor>
6

> <H_donor>
1

> <B_rotN>
4

> <N_O>
6

> <logP>
3.28

> <logD>
0.4442

> <logSw>
-3.8539

> <PSA>
70.702

> <pKa_ma>
4.5648

> <pKa_mb>
-0.8466

> <N_Chirals>
0

> <Name>
N-(3-cyano-4,5,6,7-tetrahydro-1-benzothiophen-2-yl)-3,6-dimethyl[1,2]oxazolo[5,4-b]pyridine-4-carboxamide

> <Smile>
Cc1noc2nc(C)cc(C(Nc(sc3c4CCCC3)c4C#N)=O)c12

> <Color>
BROWN

> <Collection>
DC

> <InChI>
InChI=1S/C18H16N4O2S/c1-9-7-12(15-10(2)22-24-17(15)20-9)16(23)21-18-13(8-19)11-5-3-4-6-14(11)25-18/h7H,3-6H2,1-2H3,(H,21,23)

> <InChI Key>
SOSNZNYHDGCPDZ-UHFFFAOYSA-N

> <PERCENTSP3>
33.33

> <Link>
https://www.chemdiv.com/catalog/screening-compounds/compound-Y501-3619/

> <MFCDNUMBER>
MFCD08555592

> <CLNUMBER>
CL7490

> <STEREO>
ACHIRAL

> <State>
Solid

> <Similarity score>
0.18

$$$$
N-(3-cyano-4,5,6,7-tetrahydro-1-benzothiophen-2-yl)-5-(propan-2-yl)-1,2-oxazole-
  -OEChem-04222410502D

 22 24  0     0  0  0  0  0  0999 V2000
   -0.5790   -1.4913    0.0000 C   0  0  0  0  0  0  0  0  0  0  0  0
    0.0277   -2.2642    0.0000 C   0  0  0  0  0  0  0  0  0  0  0  0
    0.2397    1.6850    0.0000 C   0  0  0  0  0  0  0  0  0  0  0  0
   -1.5043   -1.8257    0.0000 S   0  0  0  0  0  0  0  0  0  0  0  0
   -0.5030   -3.0808    0.0000 C   0  0  0  0  0  0  0  0  0  0  0  0
   -0.4592    2.3218    0.0000 N   0  0  0  0  0  0  0  0  0  0  0  0
   -0.5790   -0.4763    0.0000 N   0  0  0  0  0  0  0  0  0  0  0  0
    1.0126    2.3032    0.0000 C   0  0  0  0  0  0  0  0  0  0  0  0
   -1.4627   -2.8200    0.0000 C   0  0  0  0  0  0  0  0  0  0  0  0
    0.2859    0.0243    0.0000 C   0  0  0  0  0  0  0  0  0  0  0  0
    0.7336    3.1729    0.0000 C   0  0  0  0  0  0  0  0  0  0  0  0
   -0.1755    3.1822    0.0000 O   0  0  0  0  0  0  0  0  0  0  0  0
    1.0426   -2.2018    0.0000 C   0  0  0  0  0  0  0  0  0  0  0  0
    2.0506   -2.1718    0.0000 N   0  0  0  0  0  0  0  0  0  0  0  0
    1.0588   -0.4602    0.0000 O   0  0  0  0  0  0  0  0  0  0  0  0
    1.2847    3.9134    0.0000 C   0  0  0  0  0  0  0  0  0  0  0  0
   -0.2469   -4.0518    0.0000 C   0  0  0  0  0  0  0  0  0  0  0  0
   -2.1868   -3.5212    0.0000 C   0  0  0  0  0  0  0  0  0  0  0  0
    0.9225    4.7646    0.0000 C   0  0  0  0  0  0  0  0  0  0  0  0
    2.1868    3.8234    0.0000 C   0  0  0  0  0  0  0  0  0  0  0  0
   -0.9575   -4.7646    0.0000 C   0  0  0  0  0  0  0  0  0  0  0  0
   -1.9285   -4.5016    0.0000 C   0  0  0  0  0  0  0  0  0  0  0  0
  1  2  2  0  0  0  0
  3 10  1  0  0  0  0
  1  4  1  0  0  0  0
  2  5  1  0  0  0  0
  3  6  2  0  0  0  0
  1  7  1  0  0  0  0
  3  8  1  0  0  0  0
  4  9  1  0  0  0  0
  5  9  2  0  0  0  0
  7 10  1  0  0  0  0
  8 11  2  0  0  0  0
 11 12  1  0  0  0  0
  6 12  1  0  0  0  0
  2 13  1  0  0  0  0
 13 14  3  0  0  0  0
 10 15  2  0  0  0  0
 11 16  1  0  0  0  0
  5 17  1  0  0  0  0
  9 18  1  0  0  0  0
 16 19  1  0  0  0  0
 16 20  1  0  0  0  0
 17 21  1  0  0  0  0
 21 22  1  0  0  0  0
 18 22  1  0  0  0  0
M  END
> <IDNUMBER>
C226-2941

> <available>
48

> <H_acceptor>
5

> <H_donor>
1

> <B_rotN>
5

> <N_O>
5

> <logP>
3.9048

> <logD>
2.2344

> <logSw>
-4.1434

> <PSA>
61.908

> <pKa_ma>
5.739

> <pKa_mb>
-5.3583

> <N_Chirals>
0

> <Name>
N-(3-cyano-4,5,6,7-tetrahydro-1-benzothiophen-2-yl)-5-(propan-2-yl)-1,2-oxazole-3-carboxamide

> <Smile>
CC(C)c1cc(C(Nc(sc2c3CCCC2)c3C#N)=O)no1

> <Color>
ORANGE

> <Collection>
DC

> <InChI>
InChI=1S/C16H17N3O2S/c1-9(2)13-7-12(19-21-13)15(20)18-16-11(8-17)10-5-3-4-6-14(10)22-16/h7,9H,3-6H2,1-2H3,(H,18,20)

> <InChI Key>
DFPPLONANWUOAM-UHFFFAOYSA-N

> <PERCENTSP3>
43.8

> <Link>
https://www.chemdiv.com/catalog/screening-compounds/compound-C226-2941/

> <MFCDNUMBER>
MFCD09782910

> <CLNUMBER>
CL2030

> <STEREO>
ACHIRAL

> <State>
Solid

> <Similarity score>
0.18

$$$$
2-(4-chloro-2-methylphenoxy)-N-(3-cyano-5,6-dihydro-4H-cyclopenta[b]thiophen-2-y
  -OEChem-04222410502D

 24 26  0     0  0  0  0  0  0999 V2000
   -2.0067   -0.2647    0.0000 C   0  0  0  0  0  0  0  0  0  0  0  0
   -2.6359   -1.0524    0.0000 C   0  0  0  0  0  0  0  0  0  0  0  0
   -2.5153    0.5523    0.0000 S   0  0  0  0  0  0  0  0  0  0  0  0
   -3.5988   -0.6731    0.0000 C   0  0  0  0  0  0  0  0  0  0  0  0
   -1.0105   -0.3522    0.0000 N   0  0  0  0  0  0  0  0  0  0  0  0
   -3.4988    0.3188    0.0000 C   0  0  0  0  0  0  0  0  0  0  0  0
   -0.4480    0.4647    0.0000 C   0  0  0  0  0  0  0  0  0  0  0  0
   -2.3693   -2.0024    0.0000 C   0  0  0  0  0  0  0  0  0  0  0  0
   -2.1066   -2.9528    0.0000 N   0  0  0  0  0  0  0  0  0  0  0  0
    1.0773    1.2482    0.0000 O   0  0  0  0  0  0  0  0  0  0  0  0
    2.0816    1.2149    0.0000 C   0  0  0  0  0  0  0  0  0  0  0  0
    0.5481    0.3980    0.0000 C   0  0  3  0  0  0  0  0  0  0  0  0
    2.6152    2.0775    0.0000 C   0  0  0  0  0  0  0  0  0  0  0  0
   -0.8440    1.3358    0.0000 O   0  0  0  0  0  0  0  0  0  0  0  0
    3.6321    2.0653    0.0000 C   0  0  0  0  0  0  0  0  0  0  0  0
    2.5608    0.3522    0.0000 C   0  0  0  0  0  0  0  0  0  0  0  0
    4.0947    1.1815    0.0000 C   0  0  0  0  0  0  0  0  0  0  0  0
   -4.5491   -0.9065    0.0000 C   0  0  0  0  0  0  0  0  0  0  0  0
   -4.4280    0.7189    0.0000 C   0  0  0  0  0  0  0  0  0  0  0  0
    3.5653    0.3105    0.0000 C   0  0  0  0  0  0  0  0  0  0  0  0
    5.0907    1.1733    0.0000 Cl  0  0  0  0  0  0  0  0  0  0  0  0
   -5.0907   -0.0229    0.0000 C   0  0  0  0  0  0  0  0  0  0  0  0
    2.1276    2.9528    0.0000 C   0  0  0  0  0  0  0  0  0  0  0  0
    0.9774   -0.5064    0.0000 C   0  0  0  0  0  0  0  0  0  0  0  0
  1  2  2  0  0  0  0
  1  3  1  0  0  0  0
  2  4  1  0  0  0  0
  4  6  2  0  0  0  0
  1  5  1  0  0  0  0
  3  6  1  0  0  0  0
  5  7  1  0  0  0  0
  2  8  1  0  0  0  0
  8  9  3  0  0  0  0
 10 12  1  0  0  0  0
 10 11  1  0  0  0  0
  7 12  1  0  0  0  0
 11 13  2  0  0  0  0
  7 14  2  0  0  0  0
 13 15  1  0  0  0  0
 11 16  1  0  0  0  0
 17 20  1  0  0  0  0
 15 17  2  0  0  0  0
  4 18  1  0  0  0  0
  6 19  1  0  0  0  0
 16 20  2  0  0  0  0
 17 21  1  0  0  0  0
 19 22  1  0  0  0  0
 18 22  1  0  0  0  0
 13 23  1  0  0  0  0
 12 24  1  0  0  0  0
M  END
> <IDNUMBER>
Y205-6122

> <available>
17

> <H_acceptor>
4

> <H_donor>
1

> <B_rotN>
6

> <N_O>
4

> <logP>
5.1134

> <logD>
3.6755

> <logSw>
-5.5602

> <PSA>
47.342

> <pKa_ma>
5.9783

> <pKa_mb>
-6.1288

> <N_Chirals>
1

> <Name>
2-(4-chloro-2-methylphenoxy)-N-(3-cyano-5,6-dihydro-4H-cyclopenta[b]thiophen-2-yl)propanamide

> <Smile>
CC(C(Nc(sc1c2CCC1)c2C#N)=O)Oc(cc1)c(C)cc1Cl

> <Color>
BROWN

> <Collection>
DC

> <InChI>
InChI=1S/C18H17ClN2O2S/c1-10-8-12(19)6-7-15(10)23-11(2)17(22)21-18-14(9-20)13-4-3-5-16(13)24-18/h6-8,11H,3-5H2,1-2H3,(H,21,22)/t11-/m0/s1

> <InChI Key>
PZOFNWUCEWCCMZ-NSHDSACASA-N

> <PERCENTSP3>
33.33

> <Link>
https://www.chemdiv.com/catalog/screening-compounds/compound-Y205-6122/

> <MFCDNUMBER>
MFCD07182410

> <STEREO>
RACEMIC MIXTURE

> <State>
Solid

> <Similarity score>
0.18

$$$$
3-[(3-cyano-5,6-dihydro-4H-cyclopenta[b]thiophen-2-yl)carbamoyl]-2,2-dimethylcyc
  -OEChem-04222410502D

 21 23  0     0  0  0  0  0  0999 V2000
    1.2437   -0.6478    0.0000 C   0  0  3  0  0  0  0  0  0  0  0  0
    1.7394   -1.5102    0.0000 C   0  0  0  0  0  0  0  0  0  0  0  0
   -1.3477   -0.1189    0.0000 C   0  0  0  0  0  0  0  0  0  0  0  0
    2.2518   -0.6478    0.0000 C   0  0  3  0  0  0  0  0  0  0  0  0
   -1.4434    0.8770    0.0000 C   0  0  0  0  0  0  0  0  0  0  0  0
    0.3771   -0.1397    0.0000 C   0  0  0  0  0  0  0  0  0  0  0  0
   -2.2601   -0.5188    0.0000 S   0  0  0  0  0  0  0  0  0  0  0  0
   -2.4225    1.0935    0.0000 C   0  0  0  0  0  0  0  0  0  0  0  0
   -0.4895   -0.6228    0.0000 N   0  0  0  0  0  0  0  0  0  0  0  0
   -2.9225    0.2311    0.0000 C   0  0  0  0  0  0  0  0  0  0  0  0
    3.1266   -0.1479    0.0000 C   0  0  0  0  0  0  0  0  0  0  0  0
   -0.6978    1.5434    0.0000 C   0  0  0  0  0  0  0  0  0  0  0  0
    0.0438    2.2142    0.0000 N   0  0  0  0  0  0  0  0  0  0  0  0
    0.3771    0.8603    0.0000 O   0  0  0  0  0  0  0  0  0  0  0  0
    3.1349    0.8520    0.0000 O   0  0  0  0  0  0  0  0  0  0  0  0
    1.0312   -2.2142    0.0000 C   0  0  0  0  0  0  0  0  0  0  0  0
    2.5143   -2.1518    0.0000 C   0  0  0  0  0  0  0  0  0  0  0  0
    3.9973   -0.6521    0.0000 O   0  0  0  0  0  0  0  0  0  0  0  0
   -3.0767    1.8351    0.0000 C   0  0  0  0  0  0  0  0  0  0  0  0
   -3.8972    0.4436    0.0000 C   0  0  0  0  0  0  0  0  0  0  0  0
   -3.9973    1.4351    0.0000 C   0  0  0  0  0  0  0  0  0  0  0  0
  1  2  1  0  0  0  0
  3  9  1  0  0  0  0
  1  4  1  0  0  0  0
  2  4  1  0  0  0  0
  3  5  2  0  0  0  0
  1  6  1  0  0  0  0
  3  7  1  0  0  0  0
  5  8  1  0  0  0  0
  6  9  1  0  0  0  0
  7 10  1  0  0  0  0
  8 10  2  0  0  0  0
  4 11  1  0  0  0  0
  5 12  1  0  0  0  0
 12 13  3  0  0  0  0
  6 14  2  0  0  0  0
 11 15  2  0  0  0  0
  2 16  1  0  0  0  0
  2 17  1  0  0  0  0
 11 18  1  0  0  0  0
  8 19  1  0  0  0  0
 10 20  1  0  0  0  0
 20 21  1  0  0  0  0
 19 21  1  0  0  0  0
M  END
> <IDNUMBER>
IB06-0239

> <available>
50

> <H_acceptor>
6

> <H_donor>
2

> <B_rotN>
5

> <N_O>
5

> <logP>
2.02

> <logD>
-0.4

> <logSw>
-2.77

> <PSA>
156.23

> <pKa_ma>
4.98

> <pKa_mb>
0

> <N_Chirals>
2

> <Name>
3-[(3-cyano-5,6-dihydro-4H-cyclopenta[b]thiophen-2-yl)carbamoyl]-2,2-dimethylcyclopropane-1-carboxylic acid

> <Smile>
CC(C)(C1C(Nc(sc2c3CCC2)c3C#N)=O)C1C(O)=O

> <Color>
NOT COLORED

> <Collection>
DC

> <InChI>
InChI=1S/C15H16N2O3S/c1-15(2)10(11(15)14(19)20)12(18)17-13-8(6-16)7-4-3-5-9(7)21-13/h10-11H,3-5H2,1-2H3,(H,17,18)(H,19,20)

> <InChI Key>
ZCSQDGAYQDGGTR-UHFFFAOYSA-N

> <PERCENTSP3>
53.3

> <Link>
https://www.chemdiv.com/catalog/screening-compounds/compound-IB06-0239/

> <STEREO>
MIXTURE OF STEREOISOMERS

> <State>
Solid

> <Similarity score>
0.18

$$$$
2-amino-6-(propan-2-yl)-4,5,6,7-tetrahydrothieno[2,3-c]pyridine-3-carbonitrile
  -OEChem-04222410502D

 15 16  0     0  0  0  0  0  0999 V2000
    1.6707   -0.0209    0.0000 C   0  0  0  0  0  0  0  0  0  0  0  0
    1.9541   -0.9833    0.0000 C   0  0  0  0  0  0  0  0  0  0  0  0
    0.3292   -0.9208    0.0000 C   0  0  0  0  0  0  0  0  0  0  0  0
    0.6708    0.0167    0.0000 C   0  0  0  0  0  0  0  0  0  0  0  0
    1.1166   -1.5459    0.0000 S   0  0  0  0  0  0  0  0  0  0  0  0
   -1.2959   -0.3209    0.0000 N   0  0  0  0  0  0  0  0  0  0  0  0
   -0.6458   -1.0917    0.0000 C   0  0  0  0  0  0  0  0  0  0  0  0
    2.2834    0.7584    0.0000 C   0  0  0  0  0  0  0  0  0  0  0  0
    2.9166    1.5459    0.0000 N   0  0  0  0  0  0  0  0  0  0  0  0
    0.0334    0.7709    0.0000 C   0  0  0  0  0  0  0  0  0  0  0  0
   -0.9541    0.6166    0.0000 C   0  0  0  0  0  0  0  0  0  0  0  0
    2.8833   -1.3167    0.0000 N   0  0  0  0  0  0  0  0  0  0  0  0
   -2.2834   -0.4916    0.0000 C   0  0  0  0  0  0  0  0  0  0  0  0
   -2.6333   -1.4416    0.0000 C   0  0  0  0  0  0  0  0  0  0  0  0
   -2.9166    0.2792    0.0000 C   0  0  0  0  0  0  0  0  0  0  0  0
  1  2  2  0  0  0  0
  3  4  2  0  0  0  0
  1  4  1  0  0  0  0
  2  5  1  0  0  0  0
  3  5  1  0  0  0  0
  6 11  1  0  0  0  0
  3  7  1  0  0  0  0
  6  7  1  0  0  0  0
  1  8  1  0  0  0  0
  8  9  3  0  0  0  0
  4 10  1  0  0  0  0
 10 11  1  0  0  0  0
  2 12  1  0  0  0  0
  6 13  1  0  0  0  0
 13 14  1  0  0  0  0
 13 15  1  0  0  0  0
M  END
> <IDNUMBER>
Y512-6850

> <available>
73

> <H_acceptor>
2

> <H_donor>
2

> <B_rotN>
2

> <N_O>
3

> <logP>
1.827

> <logD>
1.797

> <logSw>
-1.691

> <PSA>
42.29

> <pKa_ma>
15.47

> <pKa_mb>
6.257

> <N_Chirals>
0

> <Name>
2-amino-6-(propan-2-yl)-4,5,6,7-tetrahydrothieno[2,3-c]pyridine-3-carbonitrile

> <Smile>
c1(c(sc2c1CCN(C2)C(C)C)N)C#N

> <Color>
BROWN

> <Collection>
DC

> <InChI>
InChI=1S/C11H15N3S/c1-7(2)14-4-3-8-9(5-12)11(13)15-10(8)6-14/h7H,3-4,6,13H2,1-2H3

> <InChI Key>
GRVDEWDYQKUPSB-UHFFFAOYSA-N

> <PERCENTSP3>
54.5

> <Link>
https://www.chemdiv.com/catalog/screening-compounds/compound-Y512-6850/

> <MFCDNUMBER>
MFCD00742042

> <STEREO>
ACHIRAL

> <State>
Solid

> <Similarity score>
0.18

$$$$
