N-(3-cyano-5,6-dihydro-4H-cyclopenta[b]thiophen-2-yl)-1-[4-(1-methyl-1H-pyrazol-
  -OEChem-04222410502D

 34 38  0     0  0  0  0  0  0999 V2000
    3.0957    0.2187    0.0000 C   0  0  0  0  0  0  0  0  0  0  0  0
    3.8874    0.8147    0.0000 C   0  0  0  0  0  0  0  0  0  0  0  0
   -2.1292   -0.0855    0.0000 C   0  0  0  0  0  0  0  0  0  0  0  0
   -0.4292   -0.4396    0.0000 N   0  0  0  0  0  0  0  0  0  0  0  0
   -1.1667    0.2063    0.0000 N   0  0  0  0  0  0  0  0  0  0  0  0
    0.4375    0.0979    0.0000 C   0  0  0  0  0  0  0  0  0  0  0  0
    3.4250   -0.7313    0.0000 S   0  0  0  0  0  0  0  0  0  0  0  0
   -4.5582    0.9729    0.0000 C   0  0  0  0  0  0  0  0  0  0  0  0
    4.7125    0.2562    0.0000 C   0  0  0  0  0  0  0  0  0  0  0  0
    2.1375    0.4855    0.0000 N   0  0  0  0  0  0  0  0  0  0  0  0
   -2.8707    0.5812    0.0000 N   0  0  0  0  0  0  0  0  0  0  0  0
   -2.3459   -1.0688    0.0000 N   0  0  0  0  0  0  0  0  0  0  0  0
    4.4333   -0.7063    0.0000 C   0  0  0  0  0  0  0  0  0  0  0  0
    1.4083   -0.1938    0.0000 C   0  0  0  0  0  0  0  0  0  0  0  0
   -3.8167    0.2938    0.0000 C   0  0  0  0  0  0  0  0  0  0  0  0
   -3.2957   -1.3603    0.0000 C   0  0  0  0  0  0  0  0  0  0  0  0
   -3.5042   -2.3438    0.0000 C   0  0  0  0  0  0  0  0  0  0  0  0
    0.2042    1.0563    0.0000 C   0  0  0  0  0  0  0  0  0  0  0  0
   -6.0499    1.5938    0.0000 N   0  0  0  0  0  0  0  0  0  0  0  0
   -4.4875    1.9687    0.0000 C   0  0  0  0  0  0  0  0  0  0  0  0
   -5.4207    2.3355    0.0000 N   0  0  0  0  0  0  0  0  0  0  0  0
   -0.7918    1.1311    0.0000 C   0  0  0  0  0  0  0  0  0  0  0  0
    3.8625    1.8229    0.0000 C   0  0  0  0  0  0  0  0  0  0  0  0
   -4.0374   -0.6812    0.0000 C   0  0  0  0  0  0  0  0  0  0  0  0
   -5.5207    0.7313    0.0000 C   0  0  0  0  0  0  0  0  0  0  0  0
    3.8249    2.8187    0.0000 N   0  0  0  0  0  0  0  0  0  0  0  0
    1.6499   -1.1563    0.0000 O   0  0  0  0  0  0  0  0  0  0  0  0
   -4.4875   -2.1271    0.0000 F   0  0  0  0  0  0  0  0  0  0  0  0
   -2.5417   -2.5521    0.0000 F   0  0  0  0  0  0  0  0  0  0  0  0
   -3.7207   -3.3312    0.0000 F   0  0  0  0  0  0  0  0  0  0  0  0
    5.7083    0.2938    0.0000 C   0  0  0  0  0  0  0  0  0  0  0  0
    5.2625   -1.2646    0.0000 C   0  0  0  0  0  0  0  0  0  0  0  0
   -5.6667    3.3312    0.0000 C   0  0  0  0  0  0  0  0  0  0  0  0
    6.0499   -0.6437    0.0000 C   0  0  0  0  0  0  0  0  0  0  0  0
  1  2  2  0  0  0  0
  3  5  1  0  0  0  0
  4  6  2  0  0  0  0
  4  5  1  0  0  0  0
  6 14  1  0  0  0  0
  1  7  1  0  0  0  0
  8 15  1  0  0  0  0
  2  9  1  0  0  0  0
  1 10  1  0  0  0  0
  3 11  2  0  0  0  0
  3 12  1  0  0  0  0
  7 13  1  0  0  0  0
  9 13  2  0  0  0  0
 10 14  1  0  0  0  0
 11 15  1  0  0  0  0
 15 24  2  0  0  0  0
 12 16  2  0  0  0  0
 16 17  1  0  0  0  0
  6 18  1  0  0  0  0
 19 25  2  0  0  0  0
  8 20  2  0  0  0  0
 20 21  1  0  0  0  0
 19 21  1  0  0  0  0
 18 22  2  0  0  0  0
  5 22  1  0  0  0  0
  2 23  1  0  0  0  0
 16 24  1  0  0  0  0
  8 25  1  0  0  0  0
 23 26  3  0  0  0  0
 14 27  2  0  0  0  0
 17 28  1  0  0  0  0
 17 29  1  0  0  0  0
 17 30  1  0  0  0  0
  9 31  1  0  0  0  0
 31 34  1  0  0  0  0
 13 32  1  0  0  0  0
 21 33  1  0  0  0  0
 32 34  1  0  0  0  0
M  END
> <IDNUMBER>
Y503-1755

> <available>
5

> <H_acceptor>
7

> <H_donor>
1

> <B_rotN>
7

> <N_O>
9

> <logP>
3.4559

> <logD>
1.8473

> <logSw>
-4.1443

> <PSA>
86.743

> <pKa_ma>
5.8023

> <pKa_mb>
3.3904

> <N_Chirals>
0

> <Name>
N-(3-cyano-5,6-dihydro-4H-cyclopenta[b]thiophen-2-yl)-1-[4-(1-methyl-1H-pyrazol-4-yl)-6-(trifluoromethyl)pyrimidin-2-yl]-1H-pyrazole-3-carboxamide

> <Smile>
Cn1ncc(-c2cc(C(F)(F)F)nc(-n(cc3)nc3C(Nc(sc3c4CCC3)c4C#N)=O)n2)c1

> <Color>
BROWN

> <Collection>
DC

> <InChI>
InChI=1S/C21H15F3N8OS/c1-31-10-11(9-26-31)15-7-17(21(22,23)24)28-20(27-15)32-6-5-14(30-32)18(33)29-19-13(8-25)12-3-2-4-16(12)34-19/h5-7,9-10H,2-4H2,1H3,(H,29,33)

> <InChI Key>
XSYPRIFHVYFDTQ-UHFFFAOYSA-N

> <PERCENTSP3>
23.81

> <Link>
https://www.chemdiv.com/catalog/screening-compounds/compound-Y503-1755/

> <MFCDNUMBER>
MFCD04140301

> <STEREO>
ACHIRAL

> <State>
Solid

> <Similarity score>
0.27

$$$$
N-(3-cyano-6-ethyl-4,5,6,7-tetrahydro-1-benzothiophen-2-yl)-1-[4-(1-methyl-1H-py
  -OEChem-04222410502D

 37 41  0     0  0  0  0  0  0999 V2000
    2.1882    0.6688    0.0000 C   0  0  0  0  0  0  0  0  0  0  0  0
    2.9051    1.3483    0.0000 C   0  0  0  0  0  0  0  0  0  0  0  0
   -2.9927   -0.0227    0.0000 C   0  0  0  0  0  0  0  0  0  0  0  0
   -1.2462   -0.2688    0.0000 N   0  0  0  0  0  0  0  0  0  0  0  0
   -2.0590    0.3145    0.0000 N   0  0  0  0  0  0  0  0  0  0  0  0
    3.7929    0.8609    0.0000 C   0  0  0  0  0  0  0  0  0  0  0  0
    3.5968   -0.1228    0.0000 C   0  0  0  0  0  0  0  0  0  0  0  0
   -0.4459    0.3145    0.0000 C   0  0  0  0  0  0  0  0  0  0  0  0
    2.6008   -0.2437    0.0000 S   0  0  0  0  0  0  0  0  0  0  0  0
   -5.4683    0.9105    0.0000 C   0  0  0  0  0  0  0  0  0  0  0  0
    1.2045    0.8609    0.0000 N   0  0  0  0  0  0  0  0  0  0  0  0
   -3.7594    0.6065    0.0000 N   0  0  0  0  0  0  0  0  0  0  0  0
   -3.1510   -1.0067    0.0000 N   0  0  0  0  0  0  0  0  0  0  0  0
    0.5377    0.1106    0.0000 C   0  0  0  0  0  0  0  0  0  0  0  0
   -4.7056    0.2564    0.0000 C   0  0  0  0  0  0  0  0  0  0  0  0
   -4.0971   -1.3610    0.0000 C   0  0  0  0  0  0  0  0  0  0  0  0
   -4.2805   -2.3447    0.0000 C   0  0  0  0  0  0  0  0  0  0  0  0
   -0.7503    1.2609    0.0000 C   0  0  0  0  0  0  0  0  0  0  0  0
   -6.9939    1.4440    0.0000 N   0  0  0  0  0  0  0  0  0  0  0  0
   -5.4476    1.9067    0.0000 C   0  0  0  0  0  0  0  0  0  0  0  0
   -6.3895    2.2317    0.0000 N   0  0  0  0  0  0  0  0  0  0  0  0
   -1.7423    1.2609    0.0000 C   0  0  0  0  0  0  0  0  0  0  0  0
    2.7842    2.3405    0.0000 C   0  0  0  0  0  0  0  0  0  0  0  0
   -4.8640   -0.7149    0.0000 C   0  0  0  0  0  0  0  0  0  0  0  0
   -6.4228    0.6190    0.0000 C   0  0  0  0  0  0  0  0  0  0  0  0
    2.6382    3.3363    0.0000 N   0  0  0  0  0  0  0  0  0  0  0  0
    4.7265    1.1900    0.0000 C   0  0  0  0  0  0  0  0  0  0  0  0
    4.3471   -0.7650    0.0000 C   0  0  0  0  0  0  0  0  0  0  0  0
    0.8546   -0.8358    0.0000 O   0  0  0  0  0  0  0  0  0  0  0  0
   -4.4638   -3.3363    0.0000 F   0  0  0  0  0  0  0  0  0  0  0  0
   -5.2642   -2.1609    0.0000 F   0  0  0  0  0  0  0  0  0  0  0  0
   -3.2843   -2.5237    0.0000 F   0  0  0  0  0  0  0  0  0  0  0  0
    5.4891    0.5357    0.0000 C   0  0  0  0  0  0  0  0  0  0  0  0
    5.2850   -0.4478    0.0000 C   0  0  3  0  0  0  0  0  0  0  0  0
   -6.6813    3.2032    0.0000 C   0  0  0  0  0  0  0  0  0  0  0  0
    6.0477   -1.1068    0.0000 C   0  0  0  0  0  0  0  0  0  0  0  0
    6.9939   -0.7772    0.0000 C   0  0  0  0  0  0  0  0  0  0  0  0
  1  2  2  0  0  0  0
  3  5  1  0  0  0  0
  4  8  2  0  0  0  0
  4  5  1  0  0  0  0
  5 22  1  0  0  0  0
  2  6  1  0  0  0  0
  6  7  2  0  0  0  0
  7  9  1  0  0  0  0
  8 14  1  0  0  0  0
  1  9  1  0  0  0  0
 10 15  1  0  0  0  0
  1 11  1  0  0  0  0
  3 12  2  0  0  0  0
  3 13  1  0  0  0  0
 11 14  1  0  0  0  0
 12 15  1  0  0  0  0
 13 16  2  0  0  0  0
 16 17  1  0  0  0  0
  8 18  1  0  0  0  0
 19 25  2  0  0  0  0
 19 21  1  0  0  0  0
 10 20  2  0  0  0  0
 20 21  1  0  0  0  0
 18 22  2  0  0  0  0
  2 23  1  0  0  0  0
 16 24  1  0  0  0  0
 15 24  2  0  0  0  0
 10 25  1  0  0  0  0
 23 26  3  0  0  0  0
  6 27  1  0  0  0  0
  7 28  1  0  0  0  0
 14 29  2  0  0  0  0
 17 30  1  0  0  0  0
 17 31  1  0  0  0  0
 17 32  1  0  0  0  0
 27 33  1  0  0  0  0
 28 34  1  0  0  0  0
 33 34  1  0  0  0  0
 21 35  1  0  0  0  0
 34 36  1  0  0  0  0
 36 37  1  0  0  0  0
M  END
> <IDNUMBER>
Y501-0441

> <available>
13

> <H_acceptor>
7

> <H_donor>
1

> <B_rotN>
8

> <N_O>
9

> <logP>
4.8455

> <logD>
3.2571

> <logSw>
-4.6909

> <PSA>
86.377

> <pKa_ma>
5.8229

> <pKa_mb>
3.3904

> <N_Chirals>
1

> <Name>
N-(3-cyano-6-ethyl-4,5,6,7-tetrahydro-1-benzothiophen-2-yl)-1-[4-(1-methyl-1H-pyrazol-4-yl)-6-(trifluoromethyl)pyrimidin-2-yl]-1H-pyrazole-3-carboxamide

> <Smile>
CCC(CC1)Cc2c1c(C#N)c(NC(c(cc1)nn1-c1nc(-c3cn(C)nc3)cc(C(F)(F)F)n1)=O)s2

> <Color>
ORANGE

> <Collection>
DC

> <InChI>
InChI=1S/C24H21F3N8OS/c1-3-13-4-5-15-16(10-28)22(37-19(15)8-13)32-21(36)17-6-7-35(33-17)23-30-18(14-11-29-34(2)12-14)9-20(31-23)24(25,26)27/h6-7,9,11-13H,3-5,8H2,1-2H3,(H,32,36)/t13-/m1/s1

> <InChI Key>
ZXVFBWYTJCCXSR-CYBMUJFWSA-N

> <PERCENTSP3>
33.33

> <Link>
https://www.chemdiv.com/catalog/screening-compounds/compound-Y501-0441/

> <MFCDNUMBER>
MFCD08553965

> <STEREO>
RACEMIC MIXTURE

> <State>
Solid

> <Similarity score>
0.25

$$$$
4-[(3-cyano-5,6-dihydro-4H-cyclopenta[b]thiophen-2-yl)carbamoyl]phenyl 1-methyl-
  -OEChem-04222410502D

 28 31  0     0  0  0  0  0  0999 V2000
   -3.1618   -0.4457    0.0000 C   0  0  0  0  0  0  0  0  0  0  0  0
   -4.0198    0.0791    0.0000 C   0  0  0  0  0  0  0  0  0  0  0  0
    4.0407    0.4582    0.0000 C   0  0  0  0  0  0  0  0  0  0  0  0
   -3.3951   -1.4163    0.0000 S   0  0  0  0  0  0  0  0  0  0  0  0
   -4.7698   -0.5540    0.0000 C   0  0  0  0  0  0  0  0  0  0  0  0
    4.3906    1.4039    0.0000 N   0  0  0  0  0  0  0  0  0  0  0  0
   -2.2203   -0.0791    0.0000 N   0  0  0  0  0  0  0  0  0  0  0  0
   -4.4033   -1.4829    0.0000 C   0  0  0  0  0  0  0  0  0  0  0  0
    3.1244    0.1084    0.0000 C   0  0  0  0  0  0  0  0  0  0  0  0
   -1.4204   -0.7208    0.0000 C   0  0  0  0  0  0  0  0  0  0  0  0
    4.8281   -0.1208    0.0000 C   0  0  0  0  0  0  0  0  0  0  0  0
    5.3904    1.3581    0.0000 N   0  0  0  0  0  0  0  0  0  0  0  0
   -4.0490    1.0790    0.0000 C   0  0  0  0  0  0  0  0  0  0  0  0
   -4.1073    2.0787    0.0000 N   0  0  0  0  0  0  0  0  0  0  0  0
    5.6737    0.4041    0.0000 C   0  0  0  0  0  0  0  0  0  0  0  0
    2.3119    0.7539    0.0000 O   0  0  0  0  0  0  0  0  0  0  0  0
   -0.4873   -0.3332    0.0000 C   0  0  0  0  0  0  0  0  0  0  0  0
    2.9661   -0.8789    0.0000 O   0  0  0  0  0  0  0  0  0  0  0  0
   -1.5705   -1.7329    0.0000 O   0  0  0  0  0  0  0  0  0  0  0  0
   -0.3375    0.6291    0.0000 C   0  0  0  0  0  0  0  0  0  0  0  0
    0.2792   -0.9581    0.0000 C   0  0  0  0  0  0  0  0  0  0  0  0
    1.3538    0.3915    0.0000 C   0  0  0  0  0  0  0  0  0  0  0  0
   -5.7362   -0.5707    0.0000 C   0  0  0  0  0  0  0  0  0  0  0  0
   -5.1822   -2.1162    0.0000 C   0  0  0  0  0  0  0  0  0  0  0  0
    0.5666    0.9914    0.0000 C   0  0  0  0  0  0  0  0  0  0  0  0
    1.1996   -0.5958    0.0000 C   0  0  0  0  0  0  0  0  0  0  0  0
    6.0236    2.1162    0.0000 C   0  0  0  0  0  0  0  0  0  0  0  0
   -6.0236   -1.5663    0.0000 C   0  0  0  0  0  0  0  0  0  0  0  0
  1  2  2  0  0  0  0
  3  9  1  0  0  0  0
  1  4  1  0  0  0  0
  2  5  1  0  0  0  0
  5  8  2  0  0  0  0
  3  6  2  0  0  0  0
  1  7  1  0  0  0  0
  4  8  1  0  0  0  0
  9 16  1  0  0  0  0
  7 10  1  0  0  0  0
  3 11  1  0  0  0  0
  6 12  1  0  0  0  0
  2 13  1  0  0  0  0
 13 14  3  0  0  0  0
 11 15  2  0  0  0  0
 12 15  1  0  0  0  0
 16 22  1  0  0  0  0
 10 17  1  0  0  0  0
  9 18  2  0  0  0  0
 10 19  2  0  0  0  0
 17 20  1  0  0  0  0
 17 21  2  0  0  0  0
 22 26  2  0  0  0  0
 22 25  1  0  0  0  0
  5 23  1  0  0  0  0
 23 28  1  0  0  0  0
  8 24  1  0  0  0  0
 20 25  2  0  0  0  0
 21 26  1  0  0  0  0
 12 27  1  0  0  0  0
 24 28  1  0  0  0  0
M  END
> <IDNUMBER>
8016-8143

> <available>
6

> <H_acceptor>
7

> <H_donor>
1

> <B_rotN>
7

> <N_O>
7

> <logP>
2.6222

> <logD>
0.2987

> <logSw>
-3.1782

> <PSA>
75.537

> <pKa_ma>
5.0786

> <pKa_mb>
-2.8007

> <N_Chirals>
0

> <Name>
4-[(3-cyano-5,6-dihydro-4H-cyclopenta[b]thiophen-2-yl)carbamoyl]phenyl 1-methyl-1H-pyrazole-3-carboxylate

> <Smile>
Cn(cc1)nc1C(Oc(cc1)ccc1C(Nc(sc1c2CCC1)c2C#N)=O)=O

> <Color>
NOT COLORED

> <Collection>
DC

> <InChI>
InChI=1S/C20H16N4O3S/c1-24-10-9-16(23-24)20(26)27-13-7-5-12(6-8-13)18(25)22-19-15(11-21)14-3-2-4-17(14)28-19/h5-10H,2-4H2,1H3,(H,22,25)

> <InChI Key>
FSJFRVRGFYEHKX-UHFFFAOYSA-N

> <PERCENTSP3>
20

> <Link>
https://www.chemdiv.com/catalog/screening-compounds/compound-8016-8143/

> <MFCDNUMBER>
MFCD05859418

> <STEREO>
ACHIRAL

> <State>
Solid

> <Similarity score>
0.23

$$$$
4-[(3-cyano-4,5,6,7-tetrahydro-1-benzothiophen-2-yl)carbamoyl]phenyl 1-methyl-1H
  -OEChem-04222410502D

 29 32  0     0  0  0  0  0  0999 V2000
   -2.9839   -0.3688    0.0000 C   0  0  0  0  0  0  0  0  0  0  0  0
   -3.8384    0.1561    0.0000 C   0  0  0  0  0  0  0  0  0  0  0  0
    4.2260    0.5440    0.0000 C   0  0  0  0  0  0  0  0  0  0  0  0
   -3.2215   -1.3400    0.0000 S   0  0  0  0  0  0  0  0  0  0  0  0
   -4.5968   -0.4687    0.0000 C   0  0  0  0  0  0  0  0  0  0  0  0
    4.5761    1.4859    0.0000 N   0  0  0  0  0  0  0  0  0  0  0  0
   -2.0380   -0.0019    0.0000 N   0  0  0  0  0  0  0  0  0  0  0  0
   -4.2218   -1.4067    0.0000 C   0  0  0  0  0  0  0  0  0  0  0  0
    3.3049    0.1937    0.0000 C   0  0  0  0  0  0  0  0  0  0  0  0
   -1.2378   -0.6398    0.0000 C   0  0  0  0  0  0  0  0  0  0  0  0
    5.0136   -0.0436    0.0000 C   0  0  0  0  0  0  0  0  0  0  0  0
    5.5764    1.4442    0.0000 N   0  0  0  0  0  0  0  0  0  0  0  0
   -3.8717    1.1608    0.0000 C   0  0  0  0  0  0  0  0  0  0  0  0
   -3.9258    2.1609    0.0000 N   0  0  0  0  0  0  0  0  0  0  0  0
    5.8556    0.4856    0.0000 C   0  0  0  0  0  0  0  0  0  0  0  0
    2.4923    0.8316    0.0000 O   0  0  0  0  0  0  0  0  0  0  0  0
   -0.3083   -0.2564    0.0000 C   0  0  0  0  0  0  0  0  0  0  0  0
    3.1424   -0.7937    0.0000 O   0  0  0  0  0  0  0  0  0  0  0  0
   -1.3877   -1.6524    0.0000 O   0  0  0  0  0  0  0  0  0  0  0  0
   -0.1582    0.7107    0.0000 C   0  0  0  0  0  0  0  0  0  0  0  0
    0.4544   -0.8771    0.0000 C   0  0  0  0  0  0  0  0  0  0  0  0
    1.5378    0.4732    0.0000 C   0  0  0  0  0  0  0  0  0  0  0  0
   -5.5971   -0.3312    0.0000 C   0  0  0  0  0  0  0  0  0  0  0  0
    0.7501    1.0689    0.0000 C   0  0  0  0  0  0  0  0  0  0  0  0
    1.3796   -0.5189    0.0000 C   0  0  0  0  0  0  0  0  0  0  0  0
   -4.8511   -2.1943    0.0000 C   0  0  0  0  0  0  0  0  0  0  0  0
    6.2056    2.1943    0.0000 C   0  0  0  0  0  0  0  0  0  0  0  0
   -6.2056   -1.1149    0.0000 C   0  0  0  0  0  0  0  0  0  0  0  0
   -5.8347   -2.0444    0.0000 C   0  0  0  0  0  0  0  0  0  0  0  0
  1  2  2  0  0  0  0
  3  9  1  0  0  0  0
  1  4  1  0  0  0  0
  2  5  1  0  0  0  0
  3  6  2  0  0  0  0
  1  7  1  0  0  0  0
  4  8  1  0  0  0  0
  5  8  2  0  0  0  0
  9 16  1  0  0  0  0
  7 10  1  0  0  0  0
  3 11  1  0  0  0  0
  6 12  1  0  0  0  0
 12 15  1  0  0  0  0
  2 13  1  0  0  0  0
 13 14  3  0  0  0  0
 11 15  2  0  0  0  0
 16 22  1  0  0  0  0
 10 17  1  0  0  0  0
  9 18  2  0  0  0  0
 10 19  2  0  0  0  0
 17 20  1  0  0  0  0
 17 21  2  0  0  0  0
 22 25  2  0  0  0  0
  5 23  1  0  0  0  0
 20 24  2  0  0  0  0
 22 24  1  0  0  0  0
 21 25  1  0  0  0  0
  8 26  1  0  0  0  0
 12 27  1  0  0  0  0
 23 28  1  0  0  0  0
 26 29  1  0  0  0  0
 28 29  1  0  0  0  0
M  END
> <IDNUMBER>
8016-8142

> <available>
14

> <H_acceptor>
7

> <H_donor>
1

> <B_rotN>
7

> <N_O>
7

> <logP>
3.0324

> <logD>
0.7295

> <logSw>
-3.6419

> <PSA>
75.171

> <pKa_ma>
5.0993

> <pKa_mb>
-2.8007

> <N_Chirals>
0

> <Name>
4-[(3-cyano-4,5,6,7-tetrahydro-1-benzothiophen-2-yl)carbamoyl]phenyl 1-methyl-1H-pyrazole-3-carboxylate

> <Smile>
Cn(cc1)nc1C(Oc(cc1)ccc1C(Nc(sc1c2CCCC1)c2C#N)=O)=O

> <Color>
NOT COLORED

> <Collection>
DC

> <InChI>
InChI=1S/C21H18N4O3S/c1-25-11-10-17(24-25)21(27)28-14-8-6-13(7-9-14)19(26)23-20-16(12-22)15-4-2-3-5-18(15)29-20/h6-11H,2-5H2,1H3,(H,23,26)

> <InChI Key>
HEGRFGTYGNEFSG-UHFFFAOYSA-N

> <PERCENTSP3>
23.81

> <Link>
https://www.chemdiv.com/catalog/screening-compounds/compound-8016-8142/

> <MFCDNUMBER>
MFCD05859417

> <STEREO>
ACHIRAL

> <State>
Solid

> <Similarity score>
0.23

$$$$
N-(3-cyano-4,5,6,7-tetrahydro-1-benzothiophen-2-yl)-1-methyl-1H-pyrazole-3-carbo
  -OEChem-04222410502D

 20 22  0     0  0  0  0  0  0999 V2000
   -0.6229   -0.8313    0.0000 C   0  0  0  0  0  0  0  0  0  0  0  0
   -1.2270   -0.0312    0.0000 C   0  0  0  0  0  0  0  0  0  0  0  0
    1.8562    0.0729    0.0000 C   0  0  0  0  0  0  0  0  0  0  0  0
   -1.1978   -1.6437    0.0000 S   0  0  0  0  0  0  0  0  0  0  0  0
   -2.1686   -0.3646    0.0000 C   0  0  0  0  0  0  0  0  0  0  0  0
    2.8519    0.2021    0.0000 N   0  0  0  0  0  0  0  0  0  0  0  0
    0.3729   -0.8187    0.0000 N   0  0  0  0  0  0  0  0  0  0  0  0
   -2.1563   -1.3520    0.0000 C   0  0  0  0  0  0  0  0  0  0  0  0
    1.3728   -0.8187    0.0000 C   0  0  0  0  0  0  0  0  0  0  0  0
    1.4269    0.9770    0.0000 C   0  0  0  0  0  0  0  0  0  0  0  0
    3.0019    1.1812    0.0000 N   0  0  0  0  0  0  0  0  0  0  0  0
   -0.9312    0.9271    0.0000 C   0  0  0  0  0  0  0  0  0  0  0  0
   -0.6355    1.8728    0.0000 N   0  0  0  0  0  0  0  0  0  0  0  0
    2.1563    1.6645    0.0000 C   0  0  0  0  0  0  0  0  0  0  0  0
    1.9103   -1.6938    0.0000 O   0  0  0  0  0  0  0  0  0  0  0  0
   -3.0521    0.1271    0.0000 C   0  0  0  0  0  0  0  0  0  0  0  0
   -3.0102   -1.8728    0.0000 C   0  0  0  0  0  0  0  0  0  0  0  0
    3.9060    1.6104    0.0000 C   0  0  0  0  0  0  0  0  0  0  0  0
   -3.9060   -0.3896    0.0000 C   0  0  0  0  0  0  0  0  0  0  0  0
   -3.8770   -1.4062    0.0000 C   0  0  0  0  0  0  0  0  0  0  0  0
  1  2  2  0  0  0  0
  3  9  1  0  0  0  0
  1  4  1  0  0  0  0
  2  5  1  0  0  0  0
  5  8  2  0  0  0  0
  3  6  2  0  0  0  0
  1  7  1  0  0  0  0
  4  8  1  0  0  0  0
  7  9  1  0  0  0  0
  3 10  1  0  0  0  0
  6 11  1  0  0  0  0
 11 14  1  0  0  0  0
  2 12  1  0  0  0  0
 12 13  3  0  0  0  0
 10 14  2  0  0  0  0
  9 15  2  0  0  0  0
  5 16  1  0  0  0  0
  8 17  1  0  0  0  0
 11 18  1  0  0  0  0
 16 19  1  0  0  0  0
 19 20  1  0  0  0  0
 17 20  1  0  0  0  0
M  END
> <IDNUMBER>
Y502-0856

> <available>
27

> <H_acceptor>
4

> <H_donor>
1

> <B_rotN>
4

> <N_O>
5

> <logP>
2.0079

> <logD>
0.2065

> <logSw>
-2.6345

> <PSA>
54.793

> <pKa_ma>
5.6055

> <pKa_mb>
-2.0161

> <N_Chirals>
0

> <Name>
N-(3-cyano-4,5,6,7-tetrahydro-1-benzothiophen-2-yl)-1-methyl-1H-pyrazole-3-carboxamide

> <Smile>
Cn(cc1)nc1C(Nc(sc1c2CCCC1)c2C#N)=O

> <Color>
YELLOW

> <Collection>
DC

> <InChI>
InChI=1S/C14H14N4OS/c1-18-7-6-11(17-18)13(19)16-14-10(8-15)9-4-2-3-5-12(9)20-14/h6-7H,2-5H2,1H3,(H,16,19)

> <InChI Key>
ZZKVQWPMKSKGBQ-UHFFFAOYSA-N

> <PERCENTSP3>
35.71

> <Link>
https://www.chemdiv.com/catalog/screening-compounds/compound-Y502-0856/

> <MFCDNUMBER>
MFCD03757142

> <STEREO>
ACHIRAL

> <State>
Solid

> <Similarity score>
0.23

$$$$
N-(3-cyano-4,5,6,7-tetrahydro-1-benzothiophen-2-yl)-1-(4-ethoxyphenyl)-4-oxo-1,4
  -OEChem-04222410502D

 31 34  0     0  0  0  0  0  0999 V2000
   -2.0839   -0.8663    0.0000 C   0  0  0  0  0  0  0  0  0  0  0  0
   -2.6752   -0.0579    0.0000 C   0  0  0  0  0  0  0  0  0  0  0  0
    0.9018   -0.8819    0.0000 N   0  0  0  0  0  0  0  0  0  0  0  0
    0.4117   -1.7457    0.0000 C   0  0  0  0  0  0  0  0  0  0  0  0
   -2.6803   -1.6801    0.0000 S   0  0  0  0  0  0  0  0  0  0  0  0
    1.9024   -0.8765    0.0000 N   0  0  0  0  0  0  0  0  0  0  0  0
   -3.6198   -0.3665    0.0000 C   0  0  0  0  0  0  0  0  0  0  0  0
   -0.5835   -1.7457    0.0000 C   0  0  0  0  0  0  0  0  0  0  0  0
   -1.0838   -0.8765    0.0000 N   0  0  0  0  0  0  0  0  0  0  0  0
   -3.6301   -1.3666    0.0000 C   0  0  0  0  0  0  0  0  0  0  0  0
    0.9120   -2.5944    0.0000 C   0  0  0  0  0  0  0  0  0  0  0  0
    1.9024   -2.5944    0.0000 C   0  0  0  0  0  0  0  0  0  0  0  0
    2.4022   -1.7306    0.0000 C   0  0  0  0  0  0  0  0  0  0  0  0
   -2.3620    0.8918    0.0000 C   0  0  0  0  0  0  0  0  0  0  0  0
   -2.1044    1.8617    0.0000 N   0  0  0  0  0  0  0  0  0  0  0  0
    2.3872   -0.0177    0.0000 C   0  0  0  0  0  0  0  0  0  0  0  0
   -1.1290   -2.6551    0.0000 O   0  0  0  0  0  0  0  0  0  0  0  0
    0.4169   -3.4685    0.0000 O   0  0  0  0  0  0  0  0  0  0  0  0
    3.3826   -0.0177    0.0000 C   0  0  0  0  0  0  0  0  0  0  0  0
    1.8822    0.8461    0.0000 C   0  0  0  0  0  0  0  0  0  0  0  0
    3.3724    1.7254    0.0000 C   0  0  0  0  0  0  0  0  0  0  0  0
   -4.4788    0.1390    0.0000 C   0  0  0  0  0  0  0  0  0  0  0  0
    2.3723    1.7152    0.0000 C   0  0  0  0  0  0  0  0  0  0  0  0
    3.8829    0.8514    0.0000 C   0  0  0  0  0  0  0  0  0  0  0  0
   -4.4939   -1.8519    0.0000 C   0  0  0  0  0  0  0  0  0  0  0  0
    3.8675    2.5944    0.0000 O   0  0  0  0  0  0  0  0  0  0  0  0
    4.8679    2.6042    0.0000 C   0  0  0  0  0  0  0  0  0  0  0  0
   -5.3478   -0.3463    0.0000 C   0  0  0  0  0  0  0  0  0  0  0  0
   -5.3580   -1.3464    0.0000 C   0  0  0  0  0  0  0  0  0  0  0  0
    5.3580    3.4685    0.0000 C   0  0  0  0  0  0  0  0  0  0  0  0
   -0.5835   -0.0127    0.0000 H   0  0  0  0  0  0  0  0  0  0  0  0
  1  2  2  0  0  0  0
  3  4  2  0  0  0  0
  4  8  1  0  0  0  0
  1  5  1  0  0  0  0
  3  6  1  0  0  0  0
  6 13  1  0  0  0  0
  2  7  1  0  0  0  0
  8  9  1  0  0  0  0
  1  9  1  0  0  0  0
  5 10  1  0  0  0  0
  7 10  2  0  0  0  0
  4 11  1  0  0  0  0
 11 12  1  0  0  0  0
 12 13  2  0  0  0  0
  2 14  1  0  0  0  0
 14 15  3  0  0  0  0
  6 16  1  0  0  0  0
  8 17  2  0  0  0  0
 11 18  2  0  0  0  0
 16 19  1  0  0  0  0
 16 20  2  0  0  0  0
 21 23  2  0  0  0  0
 21 24  1  0  0  0  0
  7 22  1  0  0  0  0
 20 23  1  0  0  0  0
 19 24  2  0  0  0  0
 10 25  1  0  0  0  0
 21 26  1  0  0  0  0
 26 27  1  0  0  0  0
 22 28  1  0  0  0  0
 28 29  1  0  0  0  0
 25 29  1  0  0  0  0
 27 30  1  0  0  0  0
  9 31  1  0  0  0  0
M  END
> <IDNUMBER>
D223-0763

> <available>
86

> <H_acceptor>
7

> <H_donor>
1

> <B_rotN>
7

> <N_O>
7

> <logP>
3.8857

> <logD>
-0.5972

> <logSw>
-4.2107

> <PSA>
73.635

> <pKa_ma>
2.9171

> <pKa_mb>
-0.7117

> <N_Chirals>
0

> <Name>
N-(3-cyano-4,5,6,7-tetrahydro-1-benzothiophen-2-yl)-1-(4-ethoxyphenyl)-4-oxo-1,4-dihydropyridazine-3-carboxamide

> <Smile>
CCOc(cc1)ccc1N(C=C1)N=C(C(Nc(sc2c3CCCC2)c3C#N)=O)C1=O

> <Color>
ORANGE

> <Collection>
DC

> <InChI>
InChI=1S/C22H20N4O3S/c1-2-29-15-9-7-14(8-10-15)26-12-11-18(27)20(25-26)21(28)24-22-17(13-23)16-5-3-4-6-19(16)30-22/h7-12H,2-6H2,1H3,(H,24,28)

> <InChI Key>
XUUOGMZGTAKKRX-UHFFFAOYSA-N

> <PERCENTSP3>
27.3

> <Link>
https://www.chemdiv.com/catalog/screening-compounds/compound-D223-0763/

> <MFCDNUMBER>
MFCD07642031

> <CLNUMBER>
CL6185

> <STEREO>
ACHIRAL

> <State>
Solid

> <Similarity score>
0.23

$$$$
N-(3-cyano-5,6-dihydro-4H-cyclopenta[b]thiophen-2-yl)-1-(difluoromethyl)-1H-pyra
  -OEChem-04222410502D

 21 23  0     0  0  0  0  0  0999 V2000
   -1.3107    0.7688    0.0000 C   0  0  0  0  0  0  0  0  0  0  0  0
   -2.3066    0.8773    0.0000 C   0  0  0  0  0  0  0  0  0  0  0  0
    1.7024   -1.0648    0.0000 N   0  0  0  0  0  0  0  0  0  0  0  0
    0.7231   -0.9773    0.0000 C   0  0  0  0  0  0  0  0  0  0  0  0
   -0.9022    1.6441    0.0000 S   0  0  0  0  0  0  0  0  0  0  0  0
    1.9150   -2.0276    0.0000 N   0  0  0  0  0  0  0  0  0  0  0  0
   -2.4901    1.8191    0.0000 C   0  0  0  0  0  0  0  0  0  0  0  0
   -0.7939   -0.1105    0.0000 N   0  0  0  0  0  0  0  0  0  0  0  0
   -1.6525    2.3192    0.0000 C   0  0  0  0  0  0  0  0  0  0  0  0
    0.2062   -0.1105    0.0000 C   0  0  0  0  0  0  0  0  0  0  0  0
    0.3105   -1.8608    0.0000 C   0  0  0  0  0  0  0  0  0  0  0  0
    1.0731   -2.5444    0.0000 C   0  0  0  0  0  0  0  0  0  0  0  0
   -2.9694    0.1063    0.0000 C   0  0  0  0  0  0  0  0  0  0  0  0
    2.8445   -2.4319    0.0000 C   0  0  0  0  0  0  0  0  0  0  0  0
   -3.6403   -0.6730    0.0000 N   0  0  0  0  0  0  0  0  0  0  0  0
    0.7065    0.7688    0.0000 O   0  0  0  0  0  0  0  0  0  0  0  0
    2.9653   -3.4278    0.0000 F   0  0  0  0  0  0  0  0  0  0  0  0
    3.6403   -1.8275    0.0000 F   0  0  0  0  0  0  0  0  0  0  0  0
   -3.2402    2.5152    0.0000 C   0  0  0  0  0  0  0  0  0  0  0  0
   -1.8275    3.3027    0.0000 C   0  0  0  0  0  0  0  0  0  0  0  0
   -2.8235    3.4278    0.0000 C   0  0  0  0  0  0  0  0  0  0  0  0
  1  2  2  0  0  0  0
  3  4  2  0  0  0  0
  4 10  1  0  0  0  0
  1  5  1  0  0  0  0
  3  6  1  0  0  0  0
  6 12  1  0  0  0  0
  2  7  1  0  0  0  0
  7  9  2  0  0  0  0
  1  8  1  0  0  0  0
  5  9  1  0  0  0  0
  8 10  1  0  0  0  0
  4 11  1  0  0  0  0
 11 12  2  0  0  0  0
  2 13  1  0  0  0  0
  6 14  1  0  0  0  0
 13 15  3  0  0  0  0
 10 16  2  0  0  0  0
 14 17  1  0  0  0  0
 14 18  1  0  0  0  0
  7 19  1  0  0  0  0
 19 21  1  0  0  0  0
  9 20  1  0  0  0  0
 20 21  1  0  0  0  0
M  END
> <IDNUMBER>
Y500-1756

> <available>
9

> <H_acceptor>
4

> <H_donor>
1

> <B_rotN>
5

> <N_O>
5

> <logP>
1.9217

> <logD>
0.0999

> <logSw>
-2.5756

> <PSA>
54.229

> <pKa_ma>
5.5848

> <pKa_mb>
-2.7735

> <N_Chirals>
0

> <Name>
N-(3-cyano-5,6-dihydro-4H-cyclopenta[b]thiophen-2-yl)-1-(difluoromethyl)-1H-pyrazole-3-carboxamide

> <Smile>
N#Cc1c(NC(c2nn(C(F)F)cc2)=O)sc2c1CCC2

> <Color>
BROWN

> <Collection>
DC

> <InChI>
InChI=1S/C13H10F2N4OS/c14-13(15)19-5-4-9(18-19)11(20)17-12-8(6-16)7-2-1-3-10(7)21-12/h4-5,13H,1-3H2,(H,17,20)

> <InChI Key>
QDHPITATACBGTK-UHFFFAOYSA-N

> <PERCENTSP3>
30.77

> <Link>
https://www.chemdiv.com/catalog/screening-compounds/compound-Y500-1756/

> <MFCDNUMBER>
MFCD04043156

> <STEREO>
ACHIRAL

> <State>
Solid

> <Similarity score>
0.23

$$$$
N-(3-cyano-5,6-dihydro-4H-cyclopenta[b]thiophen-2-yl)-1-ethyl-1H-pyrazole-3-carb
  -OEChem-04222410502D

 20 22  0     0  0  0  0  0  0999 V2000
   -1.4480    0.5541    0.0000 C   0  0  0  0  0  0  0  0  0  0  0  0
   -2.1687   -0.1584    0.0000 C   0  0  0  0  0  0  0  0  0  0  0  0
    1.1561    1.0415    0.0000 C   0  0  0  0  0  0  0  0  0  0  0  0
   -1.8855    1.4291    0.0000 S   0  0  0  0  0  0  0  0  0  0  0  0
   -3.0435    0.3166    0.0000 C   0  0  0  0  0  0  0  0  0  0  0  0
    1.7770    1.8290    0.0000 N   0  0  0  0  0  0  0  0  0  0  0  0
   -0.4688    0.4082    0.0000 N   0  0  0  0  0  0  0  0  0  0  0  0
   -2.8687    1.2957    0.0000 C   0  0  0  0  0  0  0  0  0  0  0  0
    0.1645    1.1916    0.0000 C   0  0  0  0  0  0  0  0  0  0  0  0
    1.7186    0.2042    0.0000 C   0  0  0  0  0  0  0  0  0  0  0  0
    2.7061    1.4915    0.0000 N   0  0  0  0  0  0  0  0  0  0  0  0
   -2.0187   -1.1292    0.0000 C   0  0  0  0  0  0  0  0  0  0  0  0
   -1.8728   -2.1208    0.0000 N   0  0  0  0  0  0  0  0  0  0  0  0
    2.6768    0.4832    0.0000 C   0  0  0  0  0  0  0  0  0  0  0  0
   -0.2104    2.1208    0.0000 O   0  0  0  0  0  0  0  0  0  0  0  0
   -4.0354    0.1667    0.0000 C   0  0  0  0  0  0  0  0  0  0  0  0
   -3.7561    1.7582    0.0000 C   0  0  0  0  0  0  0  0  0  0  0  0
    3.5560    2.0540    0.0000 C   0  0  0  0  0  0  0  0  0  0  0  0
   -4.4686    1.0665    0.0000 C   0  0  0  0  0  0  0  0  0  0  0  0
    4.4686    1.6039    0.0000 C   0  0  0  0  0  0  0  0  0  0  0  0
  1  2  2  0  0  0  0
  3  9  1  0  0  0  0
  1  4  1  0  0  0  0
  2  5  1  0  0  0  0
  5  8  2  0  0  0  0
  3  6  2  0  0  0  0
  1  7  1  0  0  0  0
  4  8  1  0  0  0  0
  7  9  1  0  0  0  0
  3 10  1  0  0  0  0
  6 11  1  0  0  0  0
  2 12  1  0  0  0  0
 12 13  3  0  0  0  0
 10 14  2  0  0  0  0
 11 14  1  0  0  0  0
  9 15  2  0  0  0  0
  5 16  1  0  0  0  0
  8 17  1  0  0  0  0
 11 18  1  0  0  0  0
 17 19  1  0  0  0  0
 16 19  1  0  0  0  0
 18 20  1  0  0  0  0
M  END
> <IDNUMBER>
Y509-2067

> <available>
16

> <H_acceptor>
4

> <H_donor>
1

> <B_rotN>
5

> <N_O>
5

> <logP>
2.023

> <logD>
0.2012

> <logSw>
-2.628

> <PSA>
54.85

> <pKa_ma>
5.585

> <pKa_mb>
-1.774

> <N_Chirals>
0

> <Name>
N-(3-cyano-5,6-dihydro-4H-cyclopenta[b]thiophen-2-yl)-1-ethyl-1H-pyrazole-3-carboxamide

> <Smile>
c1(c(c2c(s1)CCC2)C#N)NC(c1nn(cc1)CC)=O

> <Color>
ORANGE

> <Collection>
DC

> <InChI>
InChI=1S/C14H14N4OS/c1-2-18-7-6-11(17-18)13(19)16-14-10(8-15)9-4-3-5-12(9)20-14/h6-7H,2-5H2,1H3,(H,16,19)

> <InChI Key>
KFSGNLUEAPEJDP-UHFFFAOYSA-N

> <PERCENTSP3>
35.71

> <Link>
https://www.chemdiv.com/catalog/screening-compounds/compound-Y509-2067/

> <MFCDNUMBER>
MFCD02604544

> <STEREO>
ACHIRAL

> <State>
Solid

> <Similarity score>
0.23

$$$$
N-(3-cyano-4,5,6,7-tetrahydro-1-benzothiophen-2-yl)-1-(3-methylphenyl)-4-oxo-1,4
  -OEChem-04222410502D

 29 32  0     0  0  0  0  0  0999 V2000
   -1.9179   -0.0381    0.0000 C   0  0  0  0  0  0  0  0  0  0  0  0
   -2.5092    0.7705    0.0000 C   0  0  0  0  0  0  0  0  0  0  0  0
    1.1145   -0.1238    0.0000 N   0  0  0  0  0  0  0  0  0  0  0  0
    0.5838   -0.9629    0.0000 C   0  0  0  0  0  0  0  0  0  0  0  0
    2.1150   -0.1692    0.0000 N   0  0  0  0  0  0  0  0  0  0  0  0
   -2.5144   -0.8514    0.0000 S   0  0  0  0  0  0  0  0  0  0  0  0
   -3.4541    0.4625    0.0000 C   0  0  0  0  0  0  0  0  0  0  0  0
   -0.4169   -0.9175    0.0000 C   0  0  0  0  0  0  0  0  0  0  0  0
   -0.9171   -0.0480    0.0000 N   0  0  0  0  0  0  0  0  0  0  0  0
   -3.4644   -0.5382    0.0000 C   0  0  0  0  0  0  0  0  0  0  0  0
    1.0385   -1.8422    0.0000 C   0  0  0  0  0  0  0  0  0  0  0  0
    2.0391   -1.8877    0.0000 C   0  0  0  0  0  0  0  0  0  0  0  0
    2.5799   -1.0538    0.0000 C   0  0  0  0  0  0  0  0  0  0  0  0
   -2.1958    1.7205    0.0000 C   0  0  0  0  0  0  0  0  0  0  0  0
   -1.9380    2.6911    0.0000 N   0  0  0  0  0  0  0  0  0  0  0  0
    2.6455    0.6746    0.0000 C   0  0  0  0  0  0  0  0  0  0  0  0
   -0.8868   -1.7968    0.0000 O   0  0  0  0  0  0  0  0  0  0  0  0
    3.6462    0.6291    0.0000 C   0  0  0  0  0  0  0  0  0  0  0  0
    0.5081   -2.6911    0.0000 O   0  0  0  0  0  0  0  0  0  0  0  0
   -4.3133    0.9676    0.0000 C   0  0  0  0  0  0  0  0  0  0  0  0
    4.1921    1.4681    0.0000 C   0  0  0  0  0  0  0  0  0  0  0  0
   -4.3284   -1.0233    0.0000 C   0  0  0  0  0  0  0  0  0  0  0  0
    2.1759    1.5691    0.0000 C   0  0  0  0  0  0  0  0  0  0  0  0
    2.7213    2.4079    0.0000 C   0  0  0  0  0  0  0  0  0  0  0  0
    3.7220    2.3625    0.0000 C   0  0  0  0  0  0  0  0  0  0  0  0
    5.1926    1.4176    0.0000 C   0  0  0  0  0  0  0  0  0  0  0  0
   -5.1824    0.4824    0.0000 C   0  0  0  0  0  0  0  0  0  0  0  0
   -5.1926   -0.5181    0.0000 C   0  0  0  0  0  0  0  0  0  0  0  0
   -0.4169    0.8164    0.0000 H   0  0  0  0  0  0  0  0  0  0  0  0
  1  2  2  0  0  0  0
  3  4  2  0  0  0  0
  4  8  1  0  0  0  0
  3  5  1  0  0  0  0
  5 13  1  0  0  0  0
  1  6  1  0  0  0  0
  2  7  1  0  0  0  0
  8  9  1  0  0  0  0
  1  9  1  0  0  0  0
  6 10  1  0  0  0  0
  7 10  2  0  0  0  0
  4 11  1  0  0  0  0
 11 12  1  0  0  0  0
 12 13  2  0  0  0  0
  2 14  1  0  0  0  0
 14 15  3  0  0  0  0
  5 16  1  0  0  0  0
  8 17  2  0  0  0  0
 16 18  1  0  0  0  0
 11 19  2  0  0  0  0
  7 20  1  0  0  0  0
 18 21  2  0  0  0  0
 10 22  1  0  0  0  0
 16 23  2  0  0  0  0
 23 24  1  0  0  0  0
 24 25  2  0  0  0  0
 21 25  1  0  0  0  0
 21 26  1  0  0  0  0
 20 27  1  0  0  0  0
 27 28  1  0  0  0  0
 22 28  1  0  0  0  0
  9 29  1  0  0  0  0
M  END
> <IDNUMBER>
D223-0594

> <available>
99

> <H_acceptor>
6

> <H_donor>
1

> <B_rotN>
5

> <N_O>
6

> <logP>
3.9845

> <logD>
-0.4985

> <logSw>
-4.2804

> <PSA>
66.511

> <pKa_ma>
2.9171

> <pKa_mb>
-0.4149

> <N_Chirals>
0

> <Name>
N-(3-cyano-4,5,6,7-tetrahydro-1-benzothiophen-2-yl)-1-(3-methylphenyl)-4-oxo-1,4-dihydropyridazine-3-carboxamide

> <Smile>
Cc1cccc(N(C=C2)N=C(C(Nc(sc3c4CCCC3)c4C#N)=O)C2=O)c1

> <Color>
ORANGE

> <Collection>
DC

> <InChI>
InChI=1S/C21H18N4O2S/c1-13-5-4-6-14(11-13)25-10-9-17(26)19(24-25)20(27)23-21-16(12-22)15-7-2-3-8-18(15)28-21/h4-6,9-11H,2-3,7-8H2,1H3,(H,23,27)

> <InChI Key>
QJALJEXLCZGOBW-UHFFFAOYSA-N

> <PERCENTSP3>
23.8

> <Link>
https://www.chemdiv.com/catalog/screening-compounds/compound-D223-0594/

> <MFCDNUMBER>
MFCD07428305

> <CLNUMBER>
CL6185

> <STEREO>
ACHIRAL

> <State>
Solid

> <Similarity score>
0.23

$$$$
N-(3-cyano-4,5,6,7-tetrahydro-1-benzothiophen-2-yl)-1-(difluoromethyl)-1H-pyrazo
  -OEChem-04222410502D

 22 24  0     0  0  0  0  0  0999 V2000
   -1.3018    0.5645    0.0000 C   0  0  0  0  0  0  0  0  0  0  0  0
   -2.2932    0.6687    0.0000 C   0  0  0  0  0  0  0  0  0  0  0  0
    1.7142   -1.2809    0.0000 N   0  0  0  0  0  0  0  0  0  0  0  0
    0.7311   -1.1935    0.0000 C   0  0  0  0  0  0  0  0  0  0  0  0
   -0.8894    1.4226    0.0000 S   0  0  0  0  0  0  0  0  0  0  0  0
    1.9226   -2.2433    0.0000 N   0  0  0  0  0  0  0  0  0  0  0  0
   -2.4681    1.6477    0.0000 C   0  0  0  0  0  0  0  0  0  0  0  0
   -0.7853   -0.3226    0.0000 N   0  0  0  0  0  0  0  0  0  0  0  0
   -1.6017    2.1141    0.0000 C   0  0  0  0  0  0  0  0  0  0  0  0
    0.2146   -0.3226    0.0000 C   0  0  0  0  0  0  0  0  0  0  0  0
    0.3188   -2.0766    0.0000 C   0  0  0  0  0  0  0  0  0  0  0  0
    1.0810   -2.7597    0.0000 C   0  0  0  0  0  0  0  0  0  0  0  0
   -2.9556   -0.0978    0.0000 C   0  0  0  0  0  0  0  0  0  0  0  0
    2.8514   -2.6431    0.0000 C   0  0  0  0  0  0  0  0  0  0  0  0
   -3.6470   -0.8393    0.0000 N   0  0  0  0  0  0  0  0  0  0  0  0
    0.7145    0.5520    0.0000 O   0  0  0  0  0  0  0  0  0  0  0  0
    2.9721   -3.6428    0.0000 F   0  0  0  0  0  0  0  0  0  0  0  0
    3.6470   -2.0392    0.0000 F   0  0  0  0  0  0  0  0  0  0  0  0
   -3.3389    2.1642    0.0000 C   0  0  0  0  0  0  0  0  0  0  0  0
   -1.5683    3.1179    0.0000 C   0  0  0  0  0  0  0  0  0  0  0  0
   -3.3179    3.1597    0.0000 C   0  0  0  0  0  0  0  0  0  0  0  0
   -2.4265    3.6428    0.0000 C   0  0  0  0  0  0  0  0  0  0  0  0
  1  2  2  0  0  0  0
  3  4  2  0  0  0  0
  4 10  1  0  0  0  0
  1  5  1  0  0  0  0
  3  6  1  0  0  0  0
  6 12  1  0  0  0  0
  2  7  1  0  0  0  0
  7  9  2  0  0  0  0
  1  8  1  0  0  0  0
  5  9  1  0  0  0  0
  8 10  1  0  0  0  0
  4 11  1  0  0  0  0
 11 12  2  0  0  0  0
  2 13  1  0  0  0  0
  6 14  1  0  0  0  0
 13 15  3  0  0  0  0
 10 16  2  0  0  0  0
 14 17  1  0  0  0  0
 14 18  1  0  0  0  0
  7 19  1  0  0  0  0
  9 20  1  0  0  0  0
 19 21  1  0  0  0  0
 21 22  1  0  0  0  0
 20 22  1  0  0  0  0
M  END
> <IDNUMBER>
Y500-4786

> <available>
12

> <H_acceptor>
4

> <H_donor>
1

> <B_rotN>
5

> <N_O>
5

> <logP>
2.332

> <logD>
0.5305

> <logSw>
-2.8954

> <PSA>
53.863

> <pKa_ma>
5.6055

> <pKa_mb>
-2.7735

> <N_Chirals>
0

> <Name>
N-(3-cyano-4,5,6,7-tetrahydro-1-benzothiophen-2-yl)-1-(difluoromethyl)-1H-pyrazole-3-carboxamide

> <Smile>
N#Cc1c(NC(c2nn(C(F)F)cc2)=O)sc2c1CCCC2

> <Color>
BROWN

> <Collection>
DC

> <InChI>
InChI=1S/C14H12F2N4OS/c15-14(16)20-6-5-10(19-20)12(21)18-13-9(7-17)8-3-1-2-4-11(8)22-13/h5-6,14H,1-4H2,(H,18,21)

> <InChI Key>
MQDQFAUBXBTKOY-UHFFFAOYSA-N

> <PERCENTSP3>
35.71

> <Link>
https://www.chemdiv.com/catalog/screening-compounds/compound-Y500-4786/

> <MFCDNUMBER>
MFCD04047324

> <STEREO>
ACHIRAL

> <State>
Solid

> <Similarity score>
0.23

$$$$
1-(3-chlorophenyl)-N-(3-cyano-4,5,6,7-tetrahydro-1-benzothiophen-2-yl)-4-oxo-1,4
  -OEChem-04222410502D

 29 32  0     0  0  0  0  0  0999 V2000
   -1.8495   -0.0632    0.0000 C   0  0  0  0  0  0  0  0  0  0  0  0
   -2.4403    0.7453    0.0000 C   0  0  0  0  0  0  0  0  0  0  0  0
    1.1370   -0.0733    0.0000 N   0  0  0  0  0  0  0  0  0  0  0  0
    0.6517   -0.9371    0.0000 C   0  0  0  0  0  0  0  0  0  0  0  0
    2.1373   -0.0632    0.0000 N   0  0  0  0  0  0  0  0  0  0  0  0
   -2.4454   -0.8768    0.0000 S   0  0  0  0  0  0  0  0  0  0  0  0
   -3.3853    0.4373    0.0000 C   0  0  0  0  0  0  0  0  0  0  0  0
   -0.3487   -0.9423    0.0000 C   0  0  0  0  0  0  0  0  0  0  0  0
   -0.8488   -0.0733    0.0000 N   0  0  0  0  0  0  0  0  0  0  0  0
   -3.3955   -0.5633    0.0000 C   0  0  0  0  0  0  0  0  0  0  0  0
    1.1522   -1.7913    0.0000 C   0  0  0  0  0  0  0  0  0  0  0  0
    2.1526   -1.7913    0.0000 C   0  0  0  0  0  0  0  0  0  0  0  0
    2.6478   -0.9219    0.0000 C   0  0  0  0  0  0  0  0  0  0  0  0
   -2.1273    1.6954    0.0000 C   0  0  0  0  0  0  0  0  0  0  0  0
    2.6225    0.8010    0.0000 C   0  0  0  0  0  0  0  0  0  0  0  0
   -1.8695    2.6654    0.0000 N   0  0  0  0  0  0  0  0  0  0  0  0
    3.6229    0.8062    0.0000 C   0  0  0  0  0  0  0  0  0  0  0  0
   -0.8689   -1.8062    0.0000 O   0  0  0  0  0  0  0  0  0  0  0  0
    0.6619   -2.6654    0.0000 O   0  0  0  0  0  0  0  0  0  0  0  0
    4.1232    1.6802    0.0000 C   0  0  0  0  0  0  0  0  0  0  0  0
   -4.2443    0.9423    0.0000 C   0  0  0  0  0  0  0  0  0  0  0  0
    5.1236    1.6802    0.0000 Cl  0  0  0  0  0  0  0  0  0  0  0  0
   -4.2595   -1.0484    0.0000 C   0  0  0  0  0  0  0  0  0  0  0  0
    2.1170    1.6650    0.0000 C   0  0  0  0  0  0  0  0  0  0  0  0
    2.6073    2.5440    0.0000 C   0  0  0  0  0  0  0  0  0  0  0  0
    3.6077    2.5440    0.0000 C   0  0  0  0  0  0  0  0  0  0  0  0
   -5.1135    0.4574    0.0000 C   0  0  0  0  0  0  0  0  0  0  0  0
   -5.1236   -0.5429    0.0000 C   0  0  0  0  0  0  0  0  0  0  0  0
   -0.3487    0.7910    0.0000 H   0  0  0  0  0  0  0  0  0  0  0  0
  1  2  2  0  0  0  0
  3  4  2  0  0  0  0
  4  8  1  0  0  0  0
  3  5  1  0  0  0  0
  5 13  1  0  0  0  0
  1  6  1  0  0  0  0
  2  7  1  0  0  0  0
  8  9  1  0  0  0  0
  1  9  1  0  0  0  0
  6 10  1  0  0  0  0
  7 10  2  0  0  0  0
  4 11  1  0  0  0  0
 11 12  1  0  0  0  0
 12 13  2  0  0  0  0
  2 14  1  0  0  0  0
  5 15  1  0  0  0  0
 14 16  3  0  0  0  0
 15 17  1  0  0  0  0
  8 18  2  0  0  0  0
 11 19  2  0  0  0  0
 17 20  2  0  0  0  0
  7 21  1  0  0  0  0
 20 22  1  0  0  0  0
 10 23  1  0  0  0  0
 15 24  2  0  0  0  0
 24 25  1  0  0  0  0
 25 26  2  0  0  0  0
 20 26  1  0  0  0  0
 21 27  1  0  0  0  0
 27 28  1  0  0  0  0
 23 28  1  0  0  0  0
  9 29  1  0  0  0  0
M  END
> <IDNUMBER>
D223-0824

> <available>
101

> <H_acceptor>
6

> <H_donor>
1

> <B_rotN>
5

> <N_O>
6

> <logP>
4.1255

> <logD>
-0.3574

> <logSw>
-4.7169

> <PSA>
66.511

> <pKa_ma>
2.9171

> <pKa_mb>
-0.7695

> <N_Chirals>
0

> <Name>
1-(3-chlorophenyl)-N-(3-cyano-4,5,6,7-tetrahydro-1-benzothiophen-2-yl)-4-oxo-1,4-dihydropyridazine-3-carboxamide

> <Smile>
N#Cc1c(NC(C(C(C=C2)=O)=NN2c2cccc(Cl)c2)=O)sc2c1CCCC2

> <Color>
ORANGE

> <Collection>
DC

> <InChI>
InChI=1S/C20H15ClN4O2S/c21-12-4-3-5-13(10-12)25-9-8-16(26)18(24-25)19(27)23-20-15(11-22)14-6-1-2-7-17(14)28-20/h3-5,8-10H,1-2,6-7H2,(H,23,27)

> <InChI Key>
DDFTYXNLOPFCSA-UHFFFAOYSA-N

> <PERCENTSP3>
20

> <Link>
https://www.chemdiv.com/catalog/screening-compounds/compound-D223-0824/

> <MFCDNUMBER>
MFCD07642323

> <CLNUMBER>
CL6185

> <STEREO>
ACHIRAL

> <State>
Solid

> <Similarity score>
0.23

$$$$
1-(chloromethyl)-N-(3-cyano-5,6-dihydro-4H-cyclopenta[b]thiophen-2-yl)-1H-pyrazo
  -OEChem-04222410502D

 20 22  0     0  0  0  0  0  0999 V2000
   -1.4396    0.3813    0.0000 C   0  0  0  0  0  0  0  0  0  0  0  0
   -2.3147   -0.1271    0.0000 C   0  0  0  0  0  0  0  0  0  0  0  0
    1.1605   -0.1395    0.0000 C   0  0  0  0  0  0  0  0  0  0  0  0
   -1.6606    1.3564    0.0000 S   0  0  0  0  0  0  0  0  0  0  0  0
   -3.0564    0.5398    0.0000 C   0  0  0  0  0  0  0  0  0  0  0  0
    2.0606    0.2731    0.0000 N   0  0  0  0  0  0  0  0  0  0  0  0
   -0.5771   -0.1271    0.0000 N   0  0  0  0  0  0  0  0  0  0  0  0
   -2.6439    1.4523    0.0000 C   0  0  0  0  0  0  0  0  0  0  0  0
    0.2854    0.3689    0.0000 C   0  0  0  0  0  0  0  0  0  0  0  0
    1.2564   -1.1354    0.0000 C   0  0  0  0  0  0  0  0  0  0  0  0
    2.7399   -0.4813    0.0000 N   0  0  0  0  0  0  0  0  0  0  0  0
   -2.4107   -1.1229    0.0000 C   0  0  0  0  0  0  0  0  0  0  0  0
   -2.4231   -2.1188    0.0000 N   0  0  0  0  0  0  0  0  0  0  0  0
    2.2442   -1.3438    0.0000 C   0  0  0  0  0  0  0  0  0  0  0  0
    0.2854    1.3689    0.0000 O   0  0  0  0  0  0  0  0  0  0  0  0
    3.7483   -0.4813    0.0000 C   0  0  0  0  0  0  0  0  0  0  0  0
   -4.0400    0.6522    0.0000 C   0  0  0  0  0  0  0  0  0  0  0  0
   -3.3858    2.1188    0.0000 C   0  0  0  0  0  0  0  0  0  0  0  0
    4.2483    0.3813    0.0000 Cl  0  0  0  0  0  0  0  0  0  0  0  0
   -4.2483    1.6356    0.0000 C   0  0  0  0  0  0  0  0  0  0  0  0
  1  2  2  0  0  0  0
  3  9  1  0  0  0  0
  1  4  1  0  0  0  0
  2  5  1  0  0  0  0
  3  6  2  0  0  0  0
  1  7  1  0  0  0  0
  4  8  1  0  0  0  0
  5  8  2  0  0  0  0
  7  9  1  0  0  0  0
  3 10  1  0  0  0  0
  6 11  1  0  0  0  0
  2 12  1  0  0  0  0
 12 13  3  0  0  0  0
 10 14  2  0  0  0  0
 11 14  1  0  0  0  0
  9 15  2  0  0  0  0
 11 16  1  0  0  0  0
  5 17  1  0  0  0  0
  8 18  1  0  0  0  0
 16 19  1  0  0  0  0
 18 20  1  0  0  0  0
 17 20  1  0  0  0  0
M  END
> <IDNUMBER>
Y502-0752

> <available>
25

> <H_acceptor>
4

> <H_donor>
1

> <B_rotN>
5

> <N_O>
5

> <logP>
2.2936

> <logD>
0.4718

> <logSw>
-2.9328

> <PSA>
55.166

> <pKa_ma>
5.5848

> <pKa_mb>
-2.7735

> <N_Chirals>
0

> <Name>
1-(chloromethyl)-N-(3-cyano-5,6-dihydro-4H-cyclopenta[b]thiophen-2-yl)-1H-pyrazole-3-carboxamide

> <Smile>
N#Cc1c(NC(c2nn(CCl)cc2)=O)sc2c1CCC2

> <Color>
ORANGE

> <Collection>
DC

> <InChI>
InChI=1S/C13H11ClN4OS/c14-7-18-5-4-10(17-18)12(19)16-13-9(6-15)8-2-1-3-11(8)20-13/h4-5H,1-3,7H2,(H,16,19)

> <InChI Key>
AXNLQLAGDVGEPM-UHFFFAOYSA-N

> <PERCENTSP3>
30.77

> <Link>
https://www.chemdiv.com/catalog/screening-compounds/compound-Y502-0752/

> <MFCDNUMBER>
MFCD04050623

> <STEREO>
ACHIRAL

> <State>
Solid

> <Similarity score>
0.22

$$$$
N-(3-cyano-4,5,6,7-tetrahydro-1-benzothiophen-2-yl)-1-(4-methylphenyl)-4-oxo-1,4
  -OEChem-04222410502D

 29 32  0     0  0  0  0  0  0999 V2000
   -1.4854   -0.2500    0.0000 C   0  0  0  0  0  0  0  0  0  0  0  0
   -2.0764    0.5581    0.0000 C   0  0  0  0  0  0  0  0  0  0  0  0
    1.5610   -0.3562    0.0000 N   0  0  0  0  0  0  0  0  0  0  0  0
    1.0104   -1.1898    0.0000 C   0  0  0  0  0  0  0  0  0  0  0  0
   -2.0815   -1.0633    0.0000 S   0  0  0  0  0  0  0  0  0  0  0  0
    2.5563   -0.4170    0.0000 N   0  0  0  0  0  0  0  0  0  0  0  0
   -3.0214    0.2500    0.0000 C   0  0  0  0  0  0  0  0  0  0  0  0
    0.0103   -1.1291    0.0000 C   0  0  0  0  0  0  0  0  0  0  0  0
   -0.4848   -0.2603    0.0000 N   0  0  0  0  0  0  0  0  0  0  0  0
   -3.0310   -0.7501    0.0000 C   0  0  0  0  0  0  0  0  0  0  0  0
    1.4552   -2.0838    0.0000 C   0  0  0  0  0  0  0  0  0  0  0  0
    2.4553   -2.1447    0.0000 C   0  0  0  0  0  0  0  0  0  0  0  0
    3.0008   -1.3110    0.0000 C   0  0  0  0  0  0  0  0  0  0  0  0
   -1.7632    1.5082    0.0000 C   0  0  0  0  0  0  0  0  0  0  0  0
   -1.5053    2.4781    0.0000 N   0  0  0  0  0  0  0  0  0  0  0  0
    3.1020    0.4067    0.0000 C   0  0  0  0  0  0  0  0  0  0  0  0
   -0.4445   -2.0235    0.0000 O   0  0  0  0  0  0  0  0  0  0  0  0
    0.9042   -2.9174    0.0000 O   0  0  0  0  0  0  0  0  0  0  0  0
    4.0920    0.3410    0.0000 C   0  0  0  0  0  0  0  0  0  0  0  0
    2.6525    1.3110    0.0000 C   0  0  0  0  0  0  0  0  0  0  0  0
   -3.8801    0.7552    0.0000 C   0  0  0  0  0  0  0  0  0  0  0  0
    3.1980    2.1447    0.0000 C   0  0  0  0  0  0  0  0  0  0  0  0
    4.6528    1.1746    0.0000 C   0  0  0  0  0  0  0  0  0  0  0  0
    4.2084    2.0838    0.0000 C   0  0  0  0  0  0  0  0  0  0  0  0
   -3.8952   -1.2353    0.0000 C   0  0  0  0  0  0  0  0  0  0  0  0
    4.7590    2.9174    0.0000 C   0  0  0  0  0  0  0  0  0  0  0  0
   -4.7487    0.2704    0.0000 C   0  0  0  0  0  0  0  0  0  0  0  0
   -4.7590   -0.7301    0.0000 C   0  0  0  0  0  0  0  0  0  0  0  0
    0.0153    0.6036    0.0000 H   0  0  0  0  0  0  0  0  0  0  0  0
  1  2  2  0  0  0  0
  3  4  2  0  0  0  0
  4  8  1  0  0  0  0
  1  5  1  0  0  0  0
  3  6  1  0  0  0  0
  6 13  1  0  0  0  0
  2  7  1  0  0  0  0
  8  9  1  0  0  0  0
  1  9  1  0  0  0  0
  5 10  1  0  0  0  0
  7 10  2  0  0  0  0
  4 11  1  0  0  0  0
 11 12  1  0  0  0  0
 12 13  2  0  0  0  0
  2 14  1  0  0  0  0
 14 15  3  0  0  0  0
  6 16  1  0  0  0  0
  8 17  2  0  0  0  0
 11 18  2  0  0  0  0
 16 19  1  0  0  0  0
 16 20  2  0  0  0  0
  7 21  1  0  0  0  0
 20 22  1  0  0  0  0
 19 23  2  0  0  0  0
 22 24  2  0  0  0  0
 23 24  1  0  0  0  0
 10 25  1  0  0  0  0
 24 26  1  0  0  0  0
 21 27  1  0  0  0  0
 27 28  1  0  0  0  0
 25 28  1  0  0  0  0
  9 29  1  0  0  0  0
M  END
> <IDNUMBER>
D223-0502

> <available>
196

> <H_acceptor>
6

> <H_donor>
1

> <B_rotN>
5

> <N_O>
6

> <logP>
3.9401

> <logD>
-0.5428

> <logSw>
-4.2475

> <PSA>
66.511

> <pKa_ma>
2.9171

> <pKa_mb>
-1.8472

> <N_Chirals>
0

> <Name>
N-(3-cyano-4,5,6,7-tetrahydro-1-benzothiophen-2-yl)-1-(4-methylphenyl)-4-oxo-1,4-dihydropyridazine-3-carboxamide

> <Smile>
Cc(cc1)ccc1N(C=C1)N=C(C(Nc(sc2c3CCCC2)c3C#N)=O)C1=O

> <Color>
ORANGE

> <Collection>
DC

> <InChI>
InChI=1S/C21H18N4O2S/c1-13-6-8-14(9-7-13)25-11-10-17(26)19(24-25)20(27)23-21-16(12-22)15-4-2-3-5-18(15)28-21/h6-11H,2-5H2,1H3,(H,23,27)

> <InChI Key>
YJBLHJYIROHWMQ-UHFFFAOYSA-N

> <PERCENTSP3>
23.8

> <Link>
https://www.chemdiv.com/catalog/screening-compounds/compound-D223-0502/

> <MFCDNUMBER>
MFCD07641603

> <CLNUMBER>
CL6185

> <STEREO>
ACHIRAL

> <State>
Solid

> <Similarity score>
0.22

$$$$
N-(3-cyano-4,5,6,7-tetrahydro-1-benzothiophen-2-yl)-1-(4-fluorophenyl)-4-oxo-1,4
  -OEChem-04222410502D

 29 32  0     0  0  0  0  0  0999 V2000
   -1.3492   -0.4243    0.0000 C   0  0  0  0  0  0  0  0  0  0  0  0
   -1.9402    0.3840    0.0000 C   0  0  0  0  0  0  0  0  0  0  0  0
    1.6373   -0.4397    0.0000 N   0  0  0  0  0  0  0  0  0  0  0  0
    1.1469   -1.3037    0.0000 C   0  0  0  0  0  0  0  0  0  0  0  0
   -1.9454   -1.2379    0.0000 S   0  0  0  0  0  0  0  0  0  0  0  0
    2.6377   -0.4397    0.0000 N   0  0  0  0  0  0  0  0  0  0  0  0
   -2.8854    0.0759    0.0000 C   0  0  0  0  0  0  0  0  0  0  0  0
    0.1516   -1.3037    0.0000 C   0  0  0  0  0  0  0  0  0  0  0  0
   -0.3486   -0.4345    0.0000 N   0  0  0  0  0  0  0  0  0  0  0  0
   -2.8953   -0.9245    0.0000 C   0  0  0  0  0  0  0  0  0  0  0  0
    1.6471   -2.1625    0.0000 C   0  0  0  0  0  0  0  0  0  0  0  0
    2.6377   -2.1526    0.0000 C   0  0  0  0  0  0  0  0  0  0  0  0
    3.1378   -1.2985    0.0000 C   0  0  0  0  0  0  0  0  0  0  0  0
   -1.6273    1.3339    0.0000 C   0  0  0  0  0  0  0  0  0  0  0  0
   -1.3695    2.3040    0.0000 N   0  0  0  0  0  0  0  0  0  0  0  0
    3.1230    0.4145    0.0000 C   0  0  0  0  0  0  0  0  0  0  0  0
   -0.3993   -2.2283    0.0000 O   0  0  0  0  0  0  0  0  0  0  0  0
    1.1520   -3.0168    0.0000 O   0  0  0  0  0  0  0  0  0  0  0  0
    4.1234    0.4145    0.0000 C   0  0  0  0  0  0  0  0  0  0  0  0
    2.6223    1.2787    0.0000 C   0  0  0  0  0  0  0  0  0  0  0  0
    4.1234    2.1526    0.0000 C   0  0  0  0  0  0  0  0  0  0  0  0
   -3.7441    0.5812    0.0000 C   0  0  0  0  0  0  0  0  0  0  0  0
    3.1230    2.1424    0.0000 C   0  0  0  0  0  0  0  0  0  0  0  0
    4.6234    1.2733    0.0000 C   0  0  0  0  0  0  0  0  0  0  0  0
   -3.7594   -1.4098    0.0000 C   0  0  0  0  0  0  0  0  0  0  0  0
    4.6234    3.0168    0.0000 F   0  0  0  0  0  0  0  0  0  0  0  0
   -4.6134    0.0959    0.0000 C   0  0  0  0  0  0  0  0  0  0  0  0
   -4.6234   -0.9045    0.0000 C   0  0  0  0  0  0  0  0  0  0  0  0
    0.1516    0.4294    0.0000 H   0  0  0  0  0  0  0  0  0  0  0  0
  1  2  2  0  0  0  0
  3  4  2  0  0  0  0
  4  8  1  0  0  0  0
  1  5  1  0  0  0  0
  3  6  1  0  0  0  0
  6 13  1  0  0  0  0
  2  7  1  0  0  0  0
  8  9  1  0  0  0  0
  1  9  1  0  0  0  0
  5 10  1  0  0  0  0
  7 10  2  0  0  0  0
  4 11  1  0  0  0  0
 11 12  1  0  0  0  0
 12 13  2  0  0  0  0
  2 14  1  0  0  0  0
 14 15  3  0  0  0  0
  6 16  1  0  0  0  0
  8 17  2  0  0  0  0
 11 18  2  0  0  0  0
 16 19  1  0  0  0  0
 16 20  2  0  0  0  0
 21 23  2  0  0  0  0
 21 24  1  0  0  0  0
  7 22  1  0  0  0  0
 20 23  1  0  0  0  0
 19 24  2  0  0  0  0
 10 25  1  0  0  0  0
 21 26  1  0  0  0  0
 22 27  1  0  0  0  0
 27 28  1  0  0  0  0
 25 28  1  0  0  0  0
  9 29  1  0  0  0  0
M  END
> <IDNUMBER>
D223-0959

> <available>
95

> <H_acceptor>
6

> <H_donor>
1

> <B_rotN>
5

> <N_O>
6

> <logP>
3.5458

> <logD>
-0.9371

> <logSw>
-4.0944

> <PSA>
66.511

> <pKa_ma>
2.9171

> <pKa_mb>
-0.7653

> <N_Chirals>
0

> <Name>
N-(3-cyano-4,5,6,7-tetrahydro-1-benzothiophen-2-yl)-1-(4-fluorophenyl)-4-oxo-1,4-dihydropyridazine-3-carboxamide

> <Smile>
N#Cc1c(NC(C(C(C=C2)=O)=NN2c(cc2)ccc2F)=O)sc2c1CCCC2

> <Color>
ORANGE

> <Collection>
DC

> <InChI>
InChI=1S/C20H15FN4O2S/c21-12-5-7-13(8-6-12)25-10-9-16(26)18(24-25)19(27)23-20-15(11-22)14-3-1-2-4-17(14)28-20/h5-10H,1-4H2,(H,23,27)

> <InChI Key>
UJFVGTULZIDTAR-UHFFFAOYSA-N

> <PERCENTSP3>
20

> <Link>
https://www.chemdiv.com/catalog/screening-compounds/compound-D223-0959/

> <MFCDNUMBER>
MFCD08285699

> <CLNUMBER>
CL6185

> <STEREO>
ACHIRAL

> <State>
Solid

> <Similarity score>
0.22

$$$$
N-(3-cyano-5,6-dihydro-4H-cyclopenta[b]thiophen-2-yl)-7-methoxy-4,5-dihydronapht
  -OEChem-04222410502D

 28 32  0     0  0  0  0  0  0999 V2000
   -1.2330   -2.7196    0.0000 C   0  0  0  0  0  0  0  0  0  0  0  0
   -0.4167    0.4024    0.0000 C   0  0  0  0  0  0  0  0  0  0  0  0
   -0.6289   -3.4984    0.0000 C   0  0  0  0  0  0  0  0  0  0  0  0
    0.3680    0.9781    0.0000 C   0  0  0  0  0  0  0  0  0  0  0  0
    0.0844    1.9001    0.0000 C   0  0  0  0  0  0  0  0  0  0  0  0
   -1.1872    0.9868    0.0000 N   0  0  0  0  0  0  0  0  0  0  0  0
   -2.1722   -3.0574    0.0000 S   0  0  0  0  0  0  0  0  0  0  0  0
   -0.3710   -1.2128    0.0000 C   0  0  0  0  0  0  0  0  0  0  0  0
   -1.1729   -4.3262    0.0000 C   0  0  0  0  0  0  0  0  0  0  0  0
   -0.8834    1.9001    0.0000 O   0  0  0  0  0  0  0  0  0  0  0  0
   -1.2330   -1.7142    0.0000 N   0  0  0  0  0  0  0  0  0  0  0  0
   -2.1265   -4.0426    0.0000 C   0  0  0  0  0  0  0  0  0  0  0  0
    0.7319    2.6134    0.0000 C   0  0  0  0  0  0  0  0  0  0  0  0
    0.3797   -3.4612    0.0000 C   0  0  0  0  0  0  0  0  0  0  0  0
    1.6711    2.4012    0.0000 C   0  0  0  0  0  0  0  0  0  0  0  0
    1.3188    0.7661    0.0000 C   0  0  0  0  0  0  0  0  0  0  0  0
    1.3790   -3.4210    0.0000 N   0  0  0  0  0  0  0  0  0  0  0  0
    0.4453    3.5355    0.0000 C   0  0  0  0  0  0  0  0  0  0  0  0
    0.4538   -1.7284    0.0000 O   0  0  0  0  0  0  0  0  0  0  0  0
    1.9691    1.4878    0.0000 C   0  0  0  0  0  0  0  0  0  0  0  0
    2.3213    3.1117    0.0000 C   0  0  0  0  0  0  0  0  0  0  0  0
    2.0347    4.0369    0.0000 C   0  0  0  0  0  0  0  0  0  0  0  0
    1.0956    4.2485    0.0000 C   0  0  0  0  0  0  0  0  0  0  0  0
   -1.1271   -5.3284    0.0000 C   0  0  0  0  0  0  0  0  0  0  0  0
   -2.6850   -4.8847    0.0000 C   0  0  0  0  0  0  0  0  0  0  0  0
    2.6850    4.7468    0.0000 O   0  0  0  0  0  0  0  0  0  0  0  0
   -2.0808   -5.6720    0.0000 C   0  0  0  0  0  0  0  0  0  0  0  0
    2.3987    5.6720    0.0000 C   0  0  0  0  0  0  0  0  0  0  0  0
  2  8  1  0  0  0  0
  1  3  2  0  0  0  0
  2  4  1  0  0  0  0
  4  5  2  0  0  0  0
  5 10  1  0  0  0  0
  2  6  2  0  0  0  0
  1  7  1  0  0  0  0
  8 11  1  0  0  0  0
  3  9  1  0  0  0  0
  9 12  2  0  0  0  0
  6 10  1  0  0  0  0
  1 11  1  0  0  0  0
  7 12  1  0  0  0  0
  5 13  1  0  0  0  0
 13 15  2  0  0  0  0
  3 14  1  0  0  0  0
 15 20  1  0  0  0  0
  4 16  1  0  0  0  0
 14 17  3  0  0  0  0
 13 18  1  0  0  0  0
  8 19  2  0  0  0  0
 16 20  1  0  0  0  0
 15 21  1  0  0  0  0
 21 22  2  0  0  0  0
 22 23  1  0  0  0  0
 18 23  2  0  0  0  0
  9 24  1  0  0  0  0
 12 25  1  0  0  0  0
 22 26  1  0  0  0  0
 25 27  1  0  0  0  0
 24 27  1  0  0  0  0
 26 28  1  0  0  0  0
M  END
> <IDNUMBER>
C226-4085

> <available>
136

> <H_acceptor>
6

> <H_donor>
1

> <B_rotN>
5

> <N_O>
6

> <logP>
4.5266

> <logD>
2.7336

> <logSw>
-4.498

> <PSA>
70.091

> <pKa_ma>
5.614

> <pKa_mb>
-6.2231

> <N_Chirals>
0

> <Name>
N-(3-cyano-5,6-dihydro-4H-cyclopenta[b]thiophen-2-yl)-7-methoxy-4,5-dihydronaphtho[2,1-d][1,2]oxazole-3-carboxamide

> <Smile>
COc(cc1)cc(CC2)c1-c1c2c(C(Nc(sc2c3CCC2)c3C#N)=O)no1

> <Color>
PINK

> <Collection>
DC

> <InChI>
InChI=1S/C21H17N3O3S/c1-26-12-6-8-13-11(9-12)5-7-15-18(24-27-19(13)15)20(25)23-21-16(10-22)14-3-2-4-17(14)28-21/h6,8-9H,2-5,7H2,1H3,(H,23,25)

> <InChI Key>
QQVXHZSFJVNFGU-UHFFFAOYSA-N

> <PERCENTSP3>
28.6

> <Link>
https://www.chemdiv.com/catalog/screening-compounds/compound-C226-4085/

> <MFCDNUMBER>
MFCD09783254

> <CLNUMBER>
CL6931

> <STEREO>
ACHIRAL

> <State>
Solid

> <Similarity score>
0.22

$$$$
N-(6-tert-butyl-3-cyano-4,5,6,7-tetrahydro-1-benzothiophen-2-yl)-1-(difluorometh
  -OEChem-04222410502D

 26 28  0     0  0  0  0  0  0999 V2000
   -1.2811   -0.4041    0.0000 C   0  0  0  0  0  0  0  0  0  0  0  0
   -2.2437   -0.3624    0.0000 C   0  0  0  0  0  0  0  0  0  0  0  0
   -1.6521    1.1375    0.0000 C   0  0  0  0  0  0  0  0  0  0  0  0
    1.7269   -2.2416    0.0000 N   0  0  0  0  0  0  0  0  0  0  0  0
   -2.4936    0.6083    0.0000 C   0  0  0  0  0  0  0  0  0  0  0  0
    0.7479   -2.1541    0.0000 C   0  0  0  0  0  0  0  0  0  0  0  0
   -0.8853    0.5041    0.0000 S   0  0  0  0  0  0  0  0  0  0  0  0
    1.9394   -3.2041    0.0000 N   0  0  0  0  0  0  0  0  0  0  0  0
   -0.7687   -1.2874    0.0000 N   0  0  0  0  0  0  0  0  0  0  0  0
    0.2314   -1.2874    0.0000 C   0  0  0  0  0  0  0  0  0  0  0  0
    0.3352   -3.0373    0.0000 C   0  0  0  0  0  0  0  0  0  0  0  0
    1.0978   -3.7206    0.0000 C   0  0  0  0  0  0  0  0  0  0  0  0
   -2.8771   -1.1500    0.0000 C   0  0  0  0  0  0  0  0  0  0  0  0
    2.8645   -3.6081    0.0000 C   0  0  0  0  0  0  0  0  0  0  0  0
   -1.7062    2.1457    0.0000 C   0  0  0  0  0  0  0  0  0  0  0  0
   -3.4977   -1.9416    0.0000 N   0  0  0  0  0  0  0  0  0  0  0  0
   -3.3812    1.0625    0.0000 C   0  0  0  0  0  0  0  0  0  0  0  0
   -2.5811    2.6123    0.0000 C   0  0  3  0  0  0  0  0  0  0  0  0
   -2.6520    3.6166    0.0000 C   0  0  0  0  0  0  0  0  0  0  0  0
    0.7271   -0.4083    0.0000 O   0  0  0  0  0  0  0  0  0  0  0  0
   -3.4271    2.0624    0.0000 C   0  0  0  0  0  0  0  0  0  0  0  0
    2.9894   -4.6040    0.0000 F   0  0  0  0  0  0  0  0  0  0  0  0
    3.6645   -3.0041    0.0000 F   0  0  0  0  0  0  0  0  0  0  0  0
   -2.7061    4.6040    0.0000 C   0  0  0  0  0  0  0  0  0  0  0  0
   -1.6438    3.6707    0.0000 C   0  0  0  0  0  0  0  0  0  0  0  0
   -3.6645    3.5500    0.0000 C   0  0  0  0  0  0  0  0  0  0  0  0
  1  2  2  0  0  0  0
  3  7  1  0  0  0  0
  4  6  2  0  0  0  0
  2  5  1  0  0  0  0
  3  5  2  0  0  0  0
  6 10  1  0  0  0  0
  1  7  1  0  0  0  0
  4  8  1  0  0  0  0
  8 12  1  0  0  0  0
  1  9  1  0  0  0  0
  9 10  1  0  0  0  0
  6 11  1  0  0  0  0
 11 12  2  0  0  0  0
  2 13  1  0  0  0  0
  8 14  1  0  0  0  0
  3 15  1  0  0  0  0
 13 16  3  0  0  0  0
  5 17  1  0  0  0  0
 15 18  1  0  0  0  0
 18 19  1  0  0  0  0
 10 20  2  0  0  0  0
 17 21  1  0  0  0  0
 18 21  1  0  0  0  0
 14 22  1  0  0  0  0
 14 23  1  0  0  0  0
 19 24  1  0  0  0  0
 19 25  1  0  0  0  0
 19 26  1  0  0  0  0
M  END
> <IDNUMBER>
Y500-1811

> <available>
9

> <H_acceptor>
4

> <H_donor>
1

> <B_rotN>
6

> <N_O>
5

> <logP>
3.8892

> <logD>
2.0878

> <logSw>
-4.2452

> <PSA>
53.863

> <pKa_ma>
5.6055

> <pKa_mb>
-2.7735

> <N_Chirals>
1

> <Name>
N-(6-tert-butyl-3-cyano-4,5,6,7-tetrahydro-1-benzothiophen-2-yl)-1-(difluoromethyl)-1H-pyrazole-3-carboxamide

> <Smile>
CC(C)(C)C(CC1)Cc2c1c(C#N)c(NC(c1nn(C(F)F)cc1)=O)s2

> <Color>
ORANGE

> <Collection>
DC

> <InChI>
InChI=1S/C18H20F2N4OS/c1-18(2,3)10-4-5-11-12(9-21)16(26-14(11)8-10)22-15(25)13-6-7-24(23-13)17(19)20/h6-7,10,17H,4-5,8H2,1-3H3,(H,22,25)/t10-/m1/s1

> <InChI Key>
POHVJROAWKQOKR-SNVBAGLBSA-N

> <PERCENTSP3>
50

> <Link>
https://www.chemdiv.com/catalog/screening-compounds/compound-Y500-1811/

> <MFCDNUMBER>
MFCD04043212

> <STEREO>
RACEMIC MIXTURE

> <State>
Solid

> <Similarity score>
0.22

$$$$
methyl 2-({1-[4-(1-methyl-1H-pyrazol-4-yl)-6-(trifluoromethyl)pyrimidin-2-yl]-1H
  -OEChem-04222410502D

 38 42  0     0  0  0  0  0  0999 V2000
    2.9007    0.1646    0.0000 C   0  0  0  0  0  0  0  0  0  0  0  0
    3.6927    0.7771    0.0000 C   0  0  0  0  0  0  0  0  0  0  0  0
   -2.3298    0.0436    0.0000 C   0  0  0  0  0  0  0  0  0  0  0  0
   -0.6127   -0.2647    0.0000 N   0  0  0  0  0  0  0  0  0  0  0  0
   -1.3837    0.3728    0.0000 N   0  0  0  0  0  0  0  0  0  0  0  0
    0.2417    0.2647    0.0000 C   0  0  0  0  0  0  0  0  0  0  0  0
    3.2549   -0.7898    0.0000 S   0  0  0  0  0  0  0  0  0  0  0  0
   -4.8137    0.9730    0.0000 C   0  0  0  0  0  0  0  0  0  0  0  0
    4.5261    0.2145    0.0000 C   0  0  0  0  0  0  0  0  0  0  0  0
    1.9671    0.5313    0.0000 N   0  0  0  0  0  0  0  0  0  0  0  0
   -3.1008    0.6898    0.0000 N   0  0  0  0  0  0  0  0  0  0  0  0
   -2.5006   -0.9483    0.0000 N   0  0  0  0  0  0  0  0  0  0  0  0
    4.2553   -0.7399    0.0000 C   0  0  0  0  0  0  0  0  0  0  0  0
    1.1836   -0.1022    0.0000 C   0  0  0  0  0  0  0  0  0  0  0  0
   -4.0427    0.3354    0.0000 C   0  0  0  0  0  0  0  0  0  0  0  0
   -3.4425   -1.3025    0.0000 C   0  0  0  0  0  0  0  0  0  0  0  0
   -3.6259   -2.2945    0.0000 C   0  0  0  0  0  0  0  0  0  0  0  0
    0.0083    1.2438    0.0000 C   0  0  0  0  0  0  0  0  0  0  0  0
   -6.3391    1.5232    0.0000 N   0  0  0  0  0  0  0  0  0  0  0  0
   -4.7888    1.9901    0.0000 C   0  0  0  0  0  0  0  0  0  0  0  0
    3.6717    1.8066    0.0000 C   0  0  0  0  0  0  0  0  0  0  0  0
   -5.7432    2.3191    0.0000 N   0  0  0  0  0  0  0  0  0  0  0  0
   -0.9919    1.3148    0.0000 C   0  0  0  0  0  0  0  0  0  0  0  0
   -4.2135   -0.6565    0.0000 C   0  0  0  0  0  0  0  0  0  0  0  0
   -5.7806    0.6898    0.0000 C   0  0  0  0  0  0  0  0  0  0  0  0
    1.3336   -1.0941    0.0000 O   0  0  0  0  0  0  0  0  0  0  0  0
    4.5261    2.3443    0.0000 O   0  0  0  0  0  0  0  0  0  0  0  0
   -4.6178   -2.1236    0.0000 F   0  0  0  0  0  0  0  0  0  0  0  0
   -2.6214   -2.4653    0.0000 F   0  0  0  0  0  0  0  0  0  0  0  0
   -3.7967   -3.2862    0.0000 F   0  0  0  0  0  0  0  0  0  0  0  0
    2.7757    2.2941    0.0000 O   0  0  0  0  0  0  0  0  0  0  0  0
    5.2971    0.6189    0.0000 C   0  0  0  0  0  0  0  0  0  0  0  0
    4.6719   -1.4734    0.0000 C   0  0  0  0  0  0  0  0  0  0  0  0
   -6.0306    3.2862    0.0000 C   0  0  0  0  0  0  0  0  0  0  0  0
    1.9089    1.7690    0.0000 C   0  0  0  0  0  0  0  0  0  0  0  0
    6.1808    0.1771    0.0000 C   0  0  0  0  0  0  0  0  0  0  0  0
    5.6388   -1.5860    0.0000 C   0  0  0  0  0  0  0  0  0  0  0  0
    6.3391   -0.8399    0.0000 C   0  0  0  0  0  0  0  0  0  0  0  0
  1  2  2  0  0  0  0
  3  5  1  0  0  0  0
  4  6  2  0  0  0  0
  4  5  1  0  0  0  0
  5 23  1  0  0  0  0
  6 14  1  0  0  0  0
  1  7  1  0  0  0  0
  8 15  1  0  0  0  0
  2  9  1  0  0  0  0
  1 10  1  0  0  0  0
  3 11  2  0  0  0  0
  3 12  1  0  0  0  0
  7 13  1  0  0  0  0
  9 13  2  0  0  0  0
 10 14  1  0  0  0  0
 11 15  1  0  0  0  0
 12 16  2  0  0  0  0
 16 17  1  0  0  0  0
  6 18  1  0  0  0  0
 19 25  2  0  0  0  0
 19 22  1  0  0  0  0
  8 20  2  0  0  0  0
  2 21  1  0  0  0  0
 20 22  1  0  0  0  0
 18 23  2  0  0  0  0
 16 24  1  0  0  0  0
 15 24  2  0  0  0  0
  8 25  1  0  0  0  0
 14 26  2  0  0  0  0
 21 27  2  0  0  0  0
 17 28  1  0  0  0  0
 17 29  1  0  0  0  0
 17 30  1  0  0  0  0
 21 31  1  0  0  0  0
  9 32  1  0  0  0  0
 13 33  1  0  0  0  0
 22 34  1  0  0  0  0
 31 35  1  0  0  0  0
 32 36  1  0  0  0  0
 36 38  1  0  0  0  0
 33 37  1  0  0  0  0
 37 38  1  0  0  0  0
M  END
> <IDNUMBER>
Y501-0442

> <available>
23

> <H_acceptor>
9

> <H_donor>
1

> <B_rotN>
8

> <N_O>
10

> <logP>
4.4421

> <logD>
1.8338

> <logSw>
-4.4681

> <PSA>
90.826

> <pKa_ma>
4.7928

> <pKa_mb>
3.3904

> <N_Chirals>
0

> <Name>
methyl 2-({1-[4-(1-methyl-1H-pyrazol-4-yl)-6-(trifluoromethyl)pyrimidin-2-yl]-1H-pyrazole-3-carbonyl}amino)-5,6,7,8-tetrahydro-4H-cyclohepta[b]thiophene-3-carboxylate

> <Smile>
Cn1ncc(-c2cc(C(F)(F)F)nc(-n(cc3)nc3C(Nc3c(C(OC)=O)c(CCCCC4)c4s3)=O)n2)c1

> <Color>
YELLOW

> <Collection>
DC

> <InChI>
InChI=1S/C24H22F3N7O3S/c1-33-12-13(11-28-33)16-10-18(24(25,26)27)30-23(29-16)34-9-8-15(32-34)20(35)31-21-19(22(36)37-2)14-6-4-3-5-7-17(14)38-21/h8-12H,3-7H2,1-2H3,(H,31,35)

> <InChI Key>
QOLHELYNCZZRES-UHFFFAOYSA-N

> <PERCENTSP3>
33.33

> <Link>
https://www.chemdiv.com/catalog/screening-compounds/compound-Y501-0442/

> <MFCDNUMBER>
MFCD08554543

> <STEREO>
ACHIRAL

> <State>
Solid

> <Similarity score>
0.22

$$$$
ethyl 2-({1-[4-(1-methyl-1H-pyrazol-4-yl)-6-(trifluoromethyl)pyrimidin-2-yl]-1H-
  -OEChem-04222410502D

 38 42  0     0  0  0  0  0  0999 V2000
    2.9336    0.5897    0.0000 C   0  0  0  0  0  0  0  0  0  0  0  0
    3.7089    1.2815    0.0000 C   0  0  0  0  0  0  0  0  0  0  0  0
   -2.2212    0.0228    0.0000 C   0  0  0  0  0  0  0  0  0  0  0  0
   -0.5125   -0.2105    0.0000 N   0  0  0  0  0  0  0  0  0  0  0  0
   -1.2752    0.3939    0.0000 N   0  0  0  0  0  0  0  0  0  0  0  0
    0.2875    0.3190    0.0000 C   0  0  0  0  0  0  0  0  0  0  0  0
    3.3380   -0.2938    0.0000 S   0  0  0  0  0  0  0  0  0  0  0  0
   -4.7091    0.9608    0.0000 C   0  0  0  0  0  0  0  0  0  0  0  0
    4.5674    0.7397    0.0000 C   0  0  0  0  0  0  0  0  0  0  0  0
    1.9461    0.8230    0.0000 N   0  0  0  0  0  0  0  0  0  0  0  0
   -3.0087    0.6646    0.0000 N   0  0  0  0  0  0  0  0  0  0  0  0
   -2.4087   -0.9606    0.0000 N   0  0  0  0  0  0  0  0  0  0  0  0
    4.3339   -0.2355    0.0000 C   0  0  0  0  0  0  0  0  0  0  0  0
    1.2710    0.0979    0.0000 C   0  0  0  0  0  0  0  0  0  0  0  0
   -3.9463    0.3312    0.0000 C   0  0  0  0  0  0  0  0  0  0  0  0
   -3.3421   -1.2940    0.0000 C   0  0  0  0  0  0  0  0  0  0  0  0
   -3.5505   -2.2899    0.0000 C   0  0  0  0  0  0  0  0  0  0  0  0
    0.0168    1.3022    0.0000 C   0  0  0  0  0  0  0  0  0  0  0  0
   -6.2426    1.5275    0.0000 N   0  0  0  0  0  0  0  0  0  0  0  0
   -4.7091    1.9690    0.0000 C   0  0  0  0  0  0  0  0  0  0  0  0
    3.6338    2.2774    0.0000 C   0  0  0  0  0  0  0  0  0  0  0  0
   -5.6425    2.2899    0.0000 N   0  0  0  0  0  0  0  0  0  0  0  0
   -0.9793    1.3022    0.0000 C   0  0  0  0  0  0  0  0  0  0  0  0
   -4.1047   -0.6646    0.0000 C   0  0  0  0  0  0  0  0  0  0  0  0
   -5.6925    0.6898    0.0000 C   0  0  0  0  0  0  0  0  0  0  0  0
    1.5544   -0.8730    0.0000 O   0  0  0  0  0  0  0  0  0  0  0  0
    4.4964    2.8193    0.0000 O   0  0  0  0  0  0  0  0  0  0  0  0
   -4.5339   -2.0774    0.0000 F   0  0  0  0  0  0  0  0  0  0  0  0
   -2.5546   -2.4857    0.0000 F   0  0  0  0  0  0  0  0  0  0  0  0
   -3.7463   -3.2733    0.0000 F   0  0  0  0  0  0  0  0  0  0  0  0
    2.7462    2.7066    0.0000 O   0  0  0  0  0  0  0  0  0  0  0  0
    5.5300    1.0564    0.0000 C   0  0  0  0  0  0  0  0  0  0  0  0
    5.0590   -0.8980    0.0000 C   0  0  0  0  0  0  0  0  0  0  0  0
   -5.9383    3.2733    0.0000 C   0  0  0  0  0  0  0  0  0  0  0  0
    1.9377    2.1650    0.0000 C   0  0  0  0  0  0  0  0  0  0  0  0
    6.2426    0.3562    0.0000 C   0  0  0  0  0  0  0  0  0  0  0  0
    6.0216   -0.6147    0.0000 C   0  0  0  0  0  0  0  0  0  0  0  0
    1.0376    2.6314    0.0000 C   0  0  0  0  0  0  0  0  0  0  0  0
  1  2  2  0  0  0  0
  3  5  1  0  0  0  0
  4  6  2  0  0  0  0
  4  5  1  0  0  0  0
  5 23  1  0  0  0  0
  6 14  1  0  0  0  0
  1  7  1  0  0  0  0
  8 15  1  0  0  0  0
  2  9  1  0  0  0  0
  9 13  2  0  0  0  0
  1 10  1  0  0  0  0
  3 11  2  0  0  0  0
  3 12  1  0  0  0  0
  7 13  1  0  0  0  0
 10 14  1  0  0  0  0
 11 15  1  0  0  0  0
 12 16  2  0  0  0  0
 16 17  1  0  0  0  0
  6 18  1  0  0  0  0
 19 25  2  0  0  0  0
 19 22  1  0  0  0  0
  8 20  2  0  0  0  0
  2 21  1  0  0  0  0
 20 22  1  0  0  0  0
 18 23  2  0  0  0  0
 16 24  1  0  0  0  0
 15 24  2  0  0  0  0
  8 25  1  0  0  0  0
 14 26  2  0  0  0  0
 21 27  2  0  0  0  0
 17 28  1  0  0  0  0
 17 29  1  0  0  0  0
 17 30  1  0  0  0  0
 21 31  1  0  0  0  0
  9 32  1  0  0  0  0
 13 33  1  0  0  0  0
 22 34  1  0  0  0  0
 31 35  1  0  0  0  0
 32 36  1  0  0  0  0
 33 37  1  0  0  0  0
 36 37  1  0  0  0  0
 35 38  1  0  0  0  0
M  END
> <IDNUMBER>
Y503-1753

> <available>
26

> <H_acceptor>
9

> <H_donor>
1

> <B_rotN>
9

> <N_O>
10

> <logP>
4.3285

> <logD>
1.7202

> <logSw>
-4.3838

> <PSA>
90.075

> <pKa_ma>
4.7928

> <pKa_mb>
3.3904

> <N_Chirals>
0

> <Name>
ethyl 2-({1-[4-(1-methyl-1H-pyrazol-4-yl)-6-(trifluoromethyl)pyrimidin-2-yl]-1H-pyrazole-3-carbonyl}amino)-4,5,6,7-tetrahydro-1-benzothiophene-3-carboxylate

> <Smile>
CCOC(c1c(NC(c(cc2)nn2-c2nc(-c3cn(C)nc3)cc(C(F)(F)F)n2)=O)sc2c1CCCC2)=O

> <Color>
YELLOW

> <Collection>
DC

> <InChI>
InChI=1S/C24H22F3N7O3S/c1-3-37-22(36)19-14-6-4-5-7-17(14)38-21(19)31-20(35)15-8-9-34(32-15)23-29-16(13-11-28-33(2)12-13)10-18(30-23)24(25,26)27/h8-12H,3-7H2,1-2H3,(H,31,35)

> <InChI Key>
AUADPSFYYONKOJ-UHFFFAOYSA-N

> <PERCENTSP3>
33.33

> <Link>
https://www.chemdiv.com/catalog/screening-compounds/compound-Y503-1753/

> <MFCDNUMBER>
MFCD04140180

> <STEREO>
ACHIRAL

> <State>
Solid

> <Similarity score>
0.22

$$$$
1-(4-chlorophenyl)-N-(3-cyano-4,5,6,7-tetrahydro-1-benzothiophen-2-yl)-4-oxo-1,4
  -OEChem-04222410502D

 29 32  0     0  0  0  0  0  0999 V2000
   -1.3565   -0.4398    0.0000 C   0  0  0  0  0  0  0  0  0  0  0  0
   -1.9477    0.3689    0.0000 C   0  0  0  0  0  0  0  0  0  0  0  0
    1.6394   -0.4497    0.0000 N   0  0  0  0  0  0  0  0  0  0  0  0
    1.1445   -1.3136    0.0000 C   0  0  0  0  0  0  0  0  0  0  0  0
   -1.9527   -1.2530    0.0000 S   0  0  0  0  0  0  0  0  0  0  0  0
    2.6451   -0.4398    0.0000 N   0  0  0  0  0  0  0  0  0  0  0  0
   -2.8925    0.0605    0.0000 C   0  0  0  0  0  0  0  0  0  0  0  0
    0.1441   -1.3188    0.0000 C   0  0  0  0  0  0  0  0  0  0  0  0
   -0.3561   -0.4497    0.0000 N   0  0  0  0  0  0  0  0  0  0  0  0
   -2.9028   -0.9399    0.0000 C   0  0  0  0  0  0  0  0  0  0  0  0
    1.6447   -2.1775    0.0000 C   0  0  0  0  0  0  0  0  0  0  0  0
    2.6551   -2.1675    0.0000 C   0  0  0  0  0  0  0  0  0  0  0  0
    3.1453   -1.3037    0.0000 C   0  0  0  0  0  0  0  0  0  0  0  0
   -1.6344    1.3186    0.0000 C   0  0  0  0  0  0  0  0  0  0  0  0
   -1.3767    2.2888    0.0000 N   0  0  0  0  0  0  0  0  0  0  0  0
    3.1300    0.4246    0.0000 C   0  0  0  0  0  0  0  0  0  0  0  0
   -0.3561   -2.1474    0.0000 O   0  0  0  0  0  0  0  0  0  0  0  0
    1.1545   -3.0466    0.0000 O   0  0  0  0  0  0  0  0  0  0  0  0
    4.1303    0.4246    0.0000 C   0  0  0  0  0  0  0  0  0  0  0  0
    2.6145    1.2885    0.0000 C   0  0  0  0  0  0  0  0  0  0  0  0
    4.1254    2.1725    0.0000 C   0  0  0  0  0  0  0  0  0  0  0  0
   -3.7513    0.5659    0.0000 C   0  0  0  0  0  0  0  0  0  0  0  0
    3.1148    2.1675    0.0000 C   0  0  0  0  0  0  0  0  0  0  0  0
    4.6306    1.2934    0.0000 C   0  0  0  0  0  0  0  0  0  0  0  0
   -3.7667   -1.4249    0.0000 C   0  0  0  0  0  0  0  0  0  0  0  0
    4.6154    3.0466    0.0000 Cl  0  0  0  0  0  0  0  0  0  0  0  0
   -4.6207    0.0807    0.0000 C   0  0  0  0  0  0  0  0  0  0  0  0
   -4.6306   -0.9197    0.0000 C   0  0  0  0  0  0  0  0  0  0  0  0
    0.1441    0.4141    0.0000 H   0  0  0  0  0  0  0  0  0  0  0  0
  1  2  2  0  0  0  0
  3  4  2  0  0  0  0
  4  8  1  0  0  0  0
  1  5  1  0  0  0  0
  3  6  1  0  0  0  0
  6 13  1  0  0  0  0
  2  7  1  0  0  0  0
  8  9  1  0  0  0  0
  1  9  1  0  0  0  0
  5 10  1  0  0  0  0
  7 10  2  0  0  0  0
  4 11  1  0  0  0  0
 11 12  1  0  0  0  0
 12 13  2  0  0  0  0
  2 14  1  0  0  0  0
 14 15  3  0  0  0  0
  6 16  1  0  0  0  0
  8 17  2  0  0  0  0
 11 18  2  0  0  0  0
 16 19  1  0  0  0  0
 16 20  2  0  0  0  0
 21 23  2  0  0  0  0
 21 24  1  0  0  0  0
  7 22  1  0  0  0  0
 20 23  1  0  0  0  0
 19 24  2  0  0  0  0
 10 25  1  0  0  0  0
 21 26  1  0  0  0  0
 22 27  1  0  0  0  0
 27 28  1  0  0  0  0
 25 28  1  0  0  0  0
  9 29  1  0  0  0  0
M  END
> <IDNUMBER>
D223-0889

> <available>
145

> <H_acceptor>
6

> <H_donor>
1

> <B_rotN>
5

> <N_O>
6

> <logP>
4.1115

> <logD>
-0.3714

> <logSw>
-4.9196

> <PSA>
66.511

> <pKa_ma>
2.9171

> <pKa_mb>
-0.7653

> <N_Chirals>
0

> <Name>
1-(4-chlorophenyl)-N-(3-cyano-4,5,6,7-tetrahydro-1-benzothiophen-2-yl)-4-oxo-1,4-dihydropyridazine-3-carboxamide

> <Smile>
N#Cc1c(NC(C(C(C=C2)=O)=NN2c(cc2)ccc2Cl)=O)sc2c1CCCC2

> <Color>
ORANGE

> <Collection>
DC

> <InChI>
InChI=1S/C20H15ClN4O2S/c21-12-5-7-13(8-6-12)25-10-9-16(26)18(24-25)19(27)23-20-15(11-22)14-3-1-2-4-17(14)28-20/h5-10H,1-4H2,(H,23,27)

> <InChI Key>
XCVOWLQISGMFTO-UHFFFAOYSA-N

> <PERCENTSP3>
20

> <Link>
https://www.chemdiv.com/catalog/screening-compounds/compound-D223-0889/

> <MFCDNUMBER>
MFCD08544874

> <CLNUMBER>
CL6185

> <STEREO>
ACHIRAL

> <State>
Solid

> <Similarity score>
0.22

$$$$
N-(3-cyano-4,5,6,7-tetrahydro-1-benzothiophen-2-yl)-6-cyclopropyl-3-(4-methoxyph
  -OEChem-04222410502D

 34 39  0     0  0  0  0  0  0999 V2000
    0.1208    1.0978    0.0000 C   0  0  0  0  0  0  0  0  0  0  0  0
    0.3457    2.0935    0.0000 C   0  0  0  0  0  0  0  0  0  0  0  0
    0.7833   -2.2935    0.0000 C   0  0  0  0  0  0  0  0  0  0  0  0
    1.4415   -3.0433    0.0000 C   0  0  0  0  0  0  0  0  0  0  0  0
    1.1081   -1.3435    0.0000 C   0  0  0  0  0  0  0  0  0  0  0  0
   -0.0458   -3.6808    0.0000 N   0  0  0  0  0  0  0  0  0  0  0  0
   -0.8707    1.0102    0.0000 S   0  0  0  0  0  0  0  0  0  0  0  0
   -0.5083    2.5934    0.0000 C   0  0  0  0  0  0  0  0  0  0  0  0
   -0.1332   -2.6809    0.0000 C   0  0  0  0  0  0  0  0  0  0  0  0
    0.7790    0.3562    0.0000 N   0  0  0  0  0  0  0  0  0  0  0  0
    0.4542   -0.5935    0.0000 C   0  0  0  0  0  0  0  0  0  0  0  0
    2.4206   -2.8559    0.0000 N   0  0  0  0  0  0  0  0  0  0  0  0
   -1.2706    1.9518    0.0000 C   0  0  0  0  0  0  0  0  0  0  0  0
    0.9291   -3.9057    0.0000 O   0  0  0  0  0  0  0  0  0  0  0  0
    2.7454   -1.9058    0.0000 C   0  0  0  0  0  0  0  0  0  0  0  0
    2.0913   -1.1560    0.0000 C   0  0  0  0  0  0  0  0  0  0  0  0
    1.2456    2.4975    0.0000 C   0  0  0  0  0  0  0  0  0  0  0  0
    3.7286   -1.7184    0.0000 C   0  0  0  0  0  0  0  0  0  0  0  0
    2.1371    2.9058    0.0000 N   0  0  0  0  0  0  0  0  0  0  0  0
    4.6701   -2.0435    0.0000 C   0  0  0  0  0  0  0  0  0  0  0  0
    4.4827   -1.0562    0.0000 C   0  0  0  0  0  0  0  0  0  0  0  0
   -1.0789   -2.3642    0.0000 C   0  0  0  0  0  0  0  0  0  0  0  0
   -0.5290   -0.7812    0.0000 O   0  0  0  0  0  0  0  0  0  0  0  0
   -1.8372   -3.0183    0.0000 C   0  0  0  0  0  0  0  0  0  0  0  0
   -1.2706   -1.3810    0.0000 C   0  0  0  0  0  0  0  0  0  0  0  0
   -2.9705   -1.7144    0.0000 C   0  0  0  0  0  0  0  0  0  0  0  0
   -0.6833    3.5599    0.0000 C   0  0  0  0  0  0  0  0  0  0  0  0
   -2.2205   -1.0562    0.0000 C   0  0  0  0  0  0  0  0  0  0  0  0
   -2.7787   -2.6933    0.0000 C   0  0  0  0  0  0  0  0  0  0  0  0
   -2.2288    2.2683    0.0000 C   0  0  0  0  0  0  0  0  0  0  0  0
   -3.9162   -1.3810    0.0000 O   0  0  0  0  0  0  0  0  0  0  0  0
   -4.6701   -2.0435    0.0000 C   0  0  0  0  0  0  0  0  0  0  0  0
   -1.6332    3.9057    0.0000 C   0  0  0  0  0  0  0  0  0  0  0  0
   -2.3955    3.2641    0.0000 C   0  0  0  0  0  0  0  0  0  0  0  0
  1  2  2  0  0  0  0
  3  5  1  0  0  0  0
  3  4  2  0  0  0  0
  5 11  1  0  0  0  0
  6  9  2  0  0  0  0
  6 14  1  0  0  0  0
  1  7  1  0  0  0  0
  2  8  1  0  0  0  0
  3  9  1  0  0  0  0
  1 10  1  0  0  0  0
 10 11  1  0  0  0  0
 12 15  2  0  0  0  0
  4 12  1  0  0  0  0
  7 13  1  0  0  0  0
  8 13  2  0  0  0  0
  4 14  1  0  0  0  0
 15 16  1  0  0  0  0
  5 16  2  0  0  0  0
  2 17  1  0  0  0  0
 15 18  1  0  0  0  0
 17 19  3  0  0  0  0
 18 20  1  0  0  0  0
 18 21  1  0  0  0  0
 20 21  1  0  0  0  0
  9 22  1  0  0  0  0
 11 23  2  0  0  0  0
 22 24  2  0  0  0  0
 22 25  1  0  0  0  0
 26 28  1  0  0  0  0
 26 29  2  0  0  0  0
  8 27  1  0  0  0  0
 25 28  2  0  0  0  0
 24 29  1  0  0  0  0
 13 30  1  0  0  0  0
 26 31  1  0  0  0  0
 31 32  1  0  0  0  0
 27 33  1  0  0  0  0
 30 34  1  0  0  0  0
 33 34  1  0  0  0  0
M  END
> <IDNUMBER>
Y505-2298

> <available>
17

> <H_acceptor>
7

> <H_donor>
1

> <B_rotN>
7

> <N_O>
7

> <logP>
5.6464

> <logD>
4.141

> <logSw>
-5.6909

> <PSA>
78.613

> <pKa_ma>
5.9084

> <pKa_mb>
-0.3426

> <N_Chirals>
0

> <Name>
N-(3-cyano-4,5,6,7-tetrahydro-1-benzothiophen-2-yl)-6-cyclopropyl-3-(4-methoxyphenyl)[1,2]oxazolo[5,4-b]pyridine-4-carboxamide

> <Smile>
COc(cc1)ccc1-c1noc2nc(C3CC3)cc(C(Nc(sc3c4CCCC3)c4C#N)=O)c12

> <Color>
BROWN

> <Collection>
DC

> <InChI>
InChI=1S/C26H22N4O3S/c1-32-16-10-8-15(9-11-16)23-22-18(12-20(14-6-7-14)28-25(22)33-30-23)24(31)29-26-19(13-27)17-4-2-3-5-21(17)34-26/h8-12,14H,2-7H2,1H3,(H,29,31)

> <InChI Key>
FSQSTPJPFLTSGF-UHFFFAOYSA-N

> <PERCENTSP3>
30.8

> <Link>
https://www.chemdiv.com/catalog/screening-compounds/compound-Y505-2298/

> <MFCDNUMBER>
MFCD10701920

> <CLNUMBER>
CL7490

> <STEREO>
ACHIRAL

> <State>
Solid

> <Similarity score>
0.22

$$$$
N-(6-tert-butyl-3-cyano-4,5,6,7-tetrahydro-1-benzothiophen-2-yl)-7-methoxy-4,5-d
  -OEChem-04222410502D

 33 37  0     0  0  0  0  0  0999 V2000
   -0.6047   -1.6597    0.0000 C   0  0  0  0  0  0  0  0  0  0  0  0
    0.2101    1.4626    0.0000 C   0  0  0  0  0  0  0  0  0  0  0  0
   -1.4111   -2.2203    0.0000 C   0  0  0  0  0  0  0  0  0  0  0  0
    0.9934    2.0375    0.0000 C   0  0  0  0  0  0  0  0  0  0  0  0
    0.7104    2.9580    0.0000 C   0  0  0  0  0  0  0  0  0  0  0  0
   -0.5591    2.0459    0.0000 N   0  0  0  0  0  0  0  0  0  0  0  0
   -0.1271   -3.2009    0.0000 C   0  0  0  0  0  0  0  0  0  0  0  0
   -1.1338   -3.1810    0.0000 C   0  0  0  0  0  0  0  0  0  0  0  0
    0.1956   -2.2632    0.0000 S   0  0  0  0  0  0  0  0  0  0  0  0
    0.2557   -0.1498    0.0000 C   0  0  0  0  0  0  0  0  0  0  0  0
   -0.2557    2.9580    0.0000 O   0  0  0  0  0  0  0  0  0  0  0  0
   -0.6047   -0.6505    0.0000 N   0  0  0  0  0  0  0  0  0  0  0  0
    1.3569    3.6701    0.0000 C   0  0  0  0  0  0  0  0  0  0  0  0
   -2.3546   -1.8858    0.0000 C   0  0  0  0  0  0  0  0  0  0  0  0
    2.2947    3.4583    0.0000 C   0  0  0  0  0  0  0  0  0  0  0  0
    1.9430    1.8257    0.0000 C   0  0  0  0  0  0  0  0  0  0  0  0
    0.3473   -4.0786    0.0000 C   0  0  0  0  0  0  0  0  0  0  0  0
   -3.3068   -1.5540    0.0000 N   0  0  0  0  0  0  0  0  0  0  0  0
   -1.6486   -4.0273    0.0000 C   0  0  0  0  0  0  0  0  0  0  0  0
   -0.1818   -4.9338    0.0000 C   0  0  3  0  0  0  0  0  0  0  0  0
    1.0708    4.5906    0.0000 C   0  0  0  0  0  0  0  0  0  0  0  0
    0.2958   -5.8259    0.0000 C   0  0  0  0  0  0  0  0  0  0  0  0
    1.0794   -0.6646    0.0000 O   0  0  0  0  0  0  0  0  0  0  0  0
    2.5922    2.5464    0.0000 C   0  0  0  0  0  0  0  0  0  0  0  0
    2.9437    4.1675    0.0000 C   0  0  0  0  0  0  0  0  0  0  0  0
   -1.1680   -4.9052    0.0000 C   0  0  0  0  0  0  0  0  0  0  0  0
    2.6576    5.0911    0.0000 C   0  0  0  0  0  0  0  0  0  0  0  0
    1.7198    5.3025    0.0000 C   0  0  0  0  0  0  0  0  0  0  0  0
    3.3068    5.8001    0.0000 O   0  0  0  0  0  0  0  0  0  0  0  0
   -0.6047   -6.2949    0.0000 C   0  0  0  0  0  0  0  0  0  0  0  0
    1.1853   -5.3626    0.0000 C   0  0  0  0  0  0  0  0  0  0  0  0
    0.7564   -6.7238    0.0000 C   0  0  0  0  0  0  0  0  0  0  0  0
    3.0211    6.7238    0.0000 C   0  0  0  0  0  0  0  0  0  0  0  0
  2 10  1  0  0  0  0
  1  3  2  0  0  0  0
  2  4  1  0  0  0  0
  4  5  2  0  0  0  0
  5 11  1  0  0  0  0
  2  6  2  0  0  0  0
  7  9  1  0  0  0  0
  7  8  2  0  0  0  0
  3  8  1  0  0  0  0
  1  9  1  0  0  0  0
 10 12  1  0  0  0  0
  6 11  1  0  0  0  0
  1 12  1  0  0  0  0
  5 13  1  0  0  0  0
 13 15  2  0  0  0  0
  3 14  1  0  0  0  0
 15 24  1  0  0  0  0
  4 16  1  0  0  0  0
  7 17  1  0  0  0  0
 14 18  3  0  0  0  0
  8 19  1  0  0  0  0
 17 20  1  0  0  0  0
 13 21  1  0  0  0  0
 20 22  1  0  0  0  0
 10 23  2  0  0  0  0
 16 24  1  0  0  0  0
 15 25  1  0  0  0  0
 19 26  1  0  0  0  0
 20 26  1  0  0  0  0
 25 27  2  0  0  0  0
 21 28  2  0  0  0  0
 27 28  1  0  0  0  0
 27 29  1  0  0  0  0
 22 30  1  0  0  0  0
 22 31  1  0  0  0  0
 22 32  1  0  0  0  0
 29 33  1  0  0  0  0
M  END
> <IDNUMBER>
C226-4089

> <available>
179

> <H_acceptor>
6

> <H_donor>
1

> <B_rotN>
6

> <N_O>
6

> <logP>
6.4941

> <logD>
4.7214

> <logSw>
-5.7453

> <PSA>
69.726

> <pKa_ma>
5.6347

> <pKa_mb>
-6.2231

> <N_Chirals>
1

> <Name>
N-(6-tert-butyl-3-cyano-4,5,6,7-tetrahydro-1-benzothiophen-2-yl)-7-methoxy-4,5-dihydronaphtho[2,1-d][1,2]oxazole-3-carboxamide

> <Smile>
CC(C)(C)C(CC1)Cc2c1c(C#N)c(NC(c1noc-3c1CCc1c3ccc(OC)c1)=O)s2

> <Color>
PINK

> <Collection>
DC

> <InChI>
InChI=1S/C26H27N3O3S/c1-26(2,3)15-6-9-18-20(13-27)25(33-21(18)12-15)28-24(30)22-19-8-5-14-11-16(31-4)7-10-17(14)23(19)32-29-22/h7,10-11,15H,5-6,8-9,12H2,1-4H3,(H,28,30)/t15-/m1/s1

> <InChI Key>
WFZSOGLSFMECFP-OAHLLOKOSA-N

> <PERCENTSP3>
42.3

> <Link>
https://www.chemdiv.com/catalog/screening-compounds/compound-C226-4089/

> <MFCDNUMBER>
MFCD09783258

> <CLNUMBER>
CL6931

> <STEREO>
RACEMIC MIXTURE

> <State>
Solid

> <Similarity score>
0.22

$$$$
N-(3-cyano-5,6,7,8-tetrahydro-4H-cyclohepta[b]thiophen-2-yl)-6-cyclopropyl-3-(4-
  -OEChem-04222410502D

 35 40  0     0  0  0  0  0  0999 V2000
    1.6182    0.6311    0.0000 C   0  0  0  0  0  0  0  0  0  0  0  0
    2.3057    1.3808    0.0000 C   0  0  0  0  0  0  0  0  0  0  0  0
   -0.2062   -1.7683    0.0000 C   0  0  0  0  0  0  0  0  0  0  0  0
    0.1813   -2.6888    0.0000 C   0  0  0  0  0  0  0  0  0  0  0  0
    0.3936   -0.9686    0.0000 C   0  0  0  0  0  0  0  0  0  0  0  0
   -1.4308   -2.8304    0.0000 N   0  0  0  0  0  0  0  0  0  0  0  0
    2.1181   -0.2145    0.0000 S   0  0  0  0  0  0  0  0  0  0  0  0
    3.2136    0.9559    0.0000 C   0  0  0  0  0  0  0  0  0  0  0  0
   -1.2058   -1.8557    0.0000 C   0  0  0  0  0  0  0  0  0  0  0  0
    0.6018    0.7560    0.0000 N   0  0  0  0  0  0  0  0  0  0  0  0
    0.0022   -0.0439    0.0000 C   0  0  0  0  0  0  0  0  0  0  0  0
    1.1768   -2.8055    0.0000 N   0  0  0  0  0  0  0  0  0  0  0  0
    3.0888   -0.0312    0.0000 C   0  0  0  0  0  0  0  0  0  0  0  0
   -0.5686   -3.3427    0.0000 O   0  0  0  0  0  0  0  0  0  0  0  0
    1.7766   -2.0059    0.0000 C   0  0  0  0  0  0  0  0  0  0  0  0
    1.3810   -1.0892    0.0000 C   0  0  0  0  0  0  0  0  0  0  0  0
    2.1348    2.3680    0.0000 C   0  0  0  0  0  0  0  0  0  0  0  0
    2.7679   -2.1307    0.0000 C   0  0  0  0  0  0  0  0  0  0  0  0
    1.9682    3.3427    0.0000 N   0  0  0  0  0  0  0  0  0  0  0  0
    3.5678   -2.7305    0.0000 C   0  0  0  0  0  0  0  0  0  0  0  0
    3.6926   -1.7309    0.0000 C   0  0  0  0  0  0  0  0  0  0  0  0
   -2.0056   -1.2558    0.0000 C   0  0  0  0  0  0  0  0  0  0  0  0
   -0.9935    0.0729    0.0000 O   0  0  0  0  0  0  0  0  0  0  0  0
   -2.9221   -1.6432    0.0000 C   0  0  0  0  0  0  0  0  0  0  0  0
   -1.8806   -0.2645    0.0000 C   0  0  0  0  0  0  0  0  0  0  0  0
   -3.6052   -0.0563    0.0000 C   0  0  0  0  0  0  0  0  0  0  0  0
    4.0801    1.4808    0.0000 C   0  0  0  0  0  0  0  0  0  0  0  0
   -2.6805    0.3355    0.0000 C   0  0  0  0  0  0  0  0  0  0  0  0
   -3.7177   -1.0435    0.0000 C   0  0  0  0  0  0  0  0  0  0  0  0
    3.7760   -0.7519    0.0000 C   0  0  0  0  0  0  0  0  0  0  0  0
   -4.4008    0.5478    0.0000 O   0  0  0  0  0  0  0  0  0  0  0  0
   -5.3172    0.1562    0.0000 C   0  0  0  0  0  0  0  0  0  0  0  0
    5.0048    1.1058    0.0000 C   0  0  0  0  0  0  0  0  0  0  0  0
    4.7675   -0.6811    0.0000 C   0  0  0  0  0  0  0  0  0  0  0  0
    5.3172    0.1562    0.0000 C   0  0  0  0  0  0  0  0  0  0  0  0
  1  2  2  0  0  0  0
  3  5  1  0  0  0  0
  3  4  2  0  0  0  0
  5 11  1  0  0  0  0
  6  9  2  0  0  0  0
  6 14  1  0  0  0  0
  1  7  1  0  0  0  0
  2  8  1  0  0  0  0
  3  9  1  0  0  0  0
  1 10  1  0  0  0  0
 10 11  1  0  0  0  0
 12 15  2  0  0  0  0
  4 12  1  0  0  0  0
  7 13  1  0  0  0  0
  8 13  2  0  0  0  0
  4 14  1  0  0  0  0
 15 16  1  0  0  0  0
  5 16  2  0  0  0  0
  2 17  1  0  0  0  0
 15 18  1  0  0  0  0
 17 19  3  0  0  0  0
 18 20  1  0  0  0  0
 18 21  1  0  0  0  0
 20 21  1  0  0  0  0
  9 22  1  0  0  0  0
 11 23  2  0  0  0  0
 22 24  2  0  0  0  0
 22 25  1  0  0  0  0
 26 28  1  0  0  0  0
 26 29  2  0  0  0  0
  8 27  1  0  0  0  0
 25 28  2  0  0  0  0
 24 29  1  0  0  0  0
 13 30  1  0  0  0  0
 26 31  1  0  0  0  0
 31 32  1  0  0  0  0
 27 33  1  0  0  0  0
 33 35  1  0  0  0  0
 30 34  1  0  0  0  0
 34 35  1  0  0  0  0
M  END
> <IDNUMBER>
Y505-2299

> <available>
17

> <H_acceptor>
7

> <H_donor>
1

> <B_rotN>
7

> <N_O>
7

> <logP>
6.1423

> <logD>
4.6369

> <logSw>
-5.6765

> <PSA>
78.944

> <pKa_ma>
5.9084

> <pKa_mb>
-0.3426

> <N_Chirals>
0

> <Name>
N-(3-cyano-5,6,7,8-tetrahydro-4H-cyclohepta[b]thiophen-2-yl)-6-cyclopropyl-3-(4-methoxyphenyl)[1,2]oxazolo[5,4-b]pyridine-4-carboxamide

> <Smile>
COc(cc1)ccc1-c1noc2nc(C3CC3)cc(C(Nc(sc3c4CCCCC3)c4C#N)=O)c12

> <Color>
BROWN

> <Collection>
DC

> <InChI>
InChI=1S/C27H24N4O3S/c1-33-17-11-9-16(10-12-17)24-23-19(13-21(15-7-8-15)29-26(23)34-31-24)25(32)30-27-20(14-28)18-5-3-2-4-6-22(18)35-27/h9-13,15H,2-8H2,1H3,(H,30,32)

> <InChI Key>
WVKCYYZLRAXGGS-UHFFFAOYSA-N

> <PERCENTSP3>
33.3

> <Link>
https://www.chemdiv.com/catalog/screening-compounds/compound-Y505-2299/

> <MFCDNUMBER>
MFCD10701637

> <CLNUMBER>
CL7490

> <STEREO>
ACHIRAL

> <State>
Solid

> <Similarity score>
0.22

$$$$
N-(3-cyano-4,5,6,7-tetrahydro-1-benzothiophen-2-yl)-6-(4H-1,2,4-triazol-4-yl)pyr
  -OEChem-04222410502D

 25 28  0     0  0  0  0  0  0999 V2000
    1.9308   -0.0896    0.0000 C   0  0  0  0  0  0  0  0  0  0  0  0
    2.9013   -0.3063    0.0000 C   0  0  0  0  0  0  0  0  0  0  0  0
    1.8433    0.9102    0.0000 S   0  0  0  0  0  0  0  0  0  0  0  0
   -3.1471   -1.2435    0.0000 N   0  0  0  0  0  0  0  0  0  0  0  0
    3.4136    0.5476    0.0000 C   0  0  0  0  0  0  0  0  0  0  0  0
    1.1684   -0.7435    0.0000 N   0  0  0  0  0  0  0  0  0  0  0  0
    2.7637    1.2976    0.0000 C   0  0  0  0  0  0  0  0  0  0  0  0
   -1.4227   -1.2435    0.0000 N   0  0  0  0  0  0  0  0  0  0  0  0
   -2.2807   -0.7435    0.0000 C   0  0  0  0  0  0  0  0  0  0  0  0
    0.3063   -1.2435    0.0000 C   0  0  0  0  0  0  0  0  0  0  0  0
   -4.2301   -2.4430    0.0000 N   0  0  0  0  0  0  0  0  0  0  0  0
   -4.7299   -1.5765    0.0000 N   0  0  0  0  0  0  0  0  0  0  0  0
    3.2929   -1.2310    0.0000 C   0  0  0  0  0  0  0  0  0  0  0  0
   -0.5561   -0.7435    0.0000 C   0  0  0  0  0  0  0  0  0  0  0  0
   -4.0593   -0.8393    0.0000 C   0  0  0  0  0  0  0  0  0  0  0  0
   -3.2553   -2.2390    0.0000 C   0  0  0  0  0  0  0  0  0  0  0  0
    2.6888   -2.0390    0.0000 N   0  0  0  0  0  0  0  0  0  0  0  0
    0.3063   -2.2431    0.0000 O   0  0  0  0  0  0  0  0  0  0  0  0
    4.4009    0.7311    0.0000 C   0  0  0  0  0  0  0  0  0  0  0  0
    3.0803    2.2473    0.0000 C   0  0  0  0  0  0  0  0  0  0  0  0
   -2.2807    0.2562    0.0000 C   0  0  0  0  0  0  0  0  0  0  0  0
   -0.5561    0.2562    0.0000 C   0  0  0  0  0  0  0  0  0  0  0  0
   -1.4227    0.7560    0.0000 C   0  0  0  0  0  0  0  0  0  0  0  0
    4.7299    1.6850    0.0000 C   0  0  0  0  0  0  0  0  0  0  0  0
    4.0634    2.4430    0.0000 C   0  0  0  0  0  0  0  0  0  0  0  0
  1  2  2  0  0  0  0
  1  3  1  0  0  0  0
  4  9  1  0  0  0  0
  2  5  1  0  0  0  0
  1  6  1  0  0  0  0
  3  7  1  0  0  0  0
  5  7  2  0  0  0  0
  8 14  2  0  0  0  0
  8  9  1  0  0  0  0
  9 21  2  0  0  0  0
  6 10  1  0  0  0  0
 11 16  2  0  0  0  0
 11 12  1  0  0  0  0
 12 15  2  0  0  0  0
  2 13  1  0  0  0  0
 10 14  1  0  0  0  0
  4 15  1  0  0  0  0
  4 16  1  0  0  0  0
 13 17  3  0  0  0  0
 10 18  2  0  0  0  0
  5 19  1  0  0  0  0
  7 20  1  0  0  0  0
 21 23  1  0  0  0  0
 14 22  1  0  0  0  0
 22 23  2  0  0  0  0
 19 24  1  0  0  0  0
 20 25  1  0  0  0  0
 24 25  1  0  0  0  0
M  END
> <IDNUMBER>
J015-0046

> <available>
24

> <H_acceptor>
6

> <H_donor>
1

> <B_rotN>
5

> <N_O>
7

> <logP>
2.7543

> <logD>
0.136

> <logSw>
-3.2333

> <PSA>
74.212

> <pKa_ma>
4.7827

> <pKa_mb>
3.1122

> <N_Chirals>
0

> <Name>
N-(3-cyano-4,5,6,7-tetrahydro-1-benzothiophen-2-yl)-6-(4H-1,2,4-triazol-4-yl)pyridine-2-carboxamide

> <Smile>
N#Cc1c(NC(c2nc(-n3cnnc3)ccc2)=O)sc2c1CCCC2

> <Color>
YELLOW

> <Collection>
DC

> <InChI>
InChI=1S/C17H14N6OS/c18-8-12-11-4-1-2-6-14(11)25-17(12)22-16(24)13-5-3-7-15(21-13)23-9-19-20-10-23/h3,5,7,9-10H,1-2,4,6H2,(H,22,24)

> <InChI Key>
NMKUQPFUBPTIQL-UHFFFAOYSA-N

> <PERCENTSP3>
23.5

> <Link>
https://www.chemdiv.com/catalog/screening-compounds/compound-J015-0046/

> <MFCDNUMBER>
MFCD27217774

> <CLNUMBER>
CL8311

> <STEREO>
ACHIRAL

> <State>
Solid

> <Similarity score>
0.22

$$$$
N-(3-cyano-6-methyl-4,5,6,7-tetrahydro-1-benzothiophen-2-yl)-1-methyl-1H-pyrazol
  -OEChem-04222410502D

 21 23  0     0  0  0  0  0  0999 V2000
    0.1729   -1.0356    0.0000 C   0  0  0  0  0  0  0  0  0  0  0  0
   -0.2562   -0.1396    0.0000 C   0  0  0  0  0  0  0  0  0  0  0  0
   -1.2438   -0.2814    0.0000 C   0  0  0  0  0  0  0  0  0  0  0  0
   -1.4147   -1.2647    0.0000 C   0  0  0  0  0  0  0  0  0  0  0  0
    2.7524   -0.4105    0.0000 C   0  0  0  0  0  0  0  0  0  0  0  0
   -0.5313   -1.7274    0.0000 S   0  0  0  0  0  0  0  0  0  0  0  0
    2.4440    0.5436    0.0000 N   0  0  0  0  0  0  0  0  0  0  0  0
    1.1647   -1.2189    0.0000 N   0  0  0  0  0  0  0  0  0  0  0  0
    2.1690   -1.2189    0.0000 C   0  0  0  0  0  0  0  0  0  0  0  0
    3.7526   -0.4105    0.0000 C   0  0  0  0  0  0  0  0  0  0  0  0
    3.2566    1.1314    0.0000 N   0  0  0  0  0  0  0  0  0  0  0  0
    0.2145    0.7523    0.0000 C   0  0  0  0  0  0  0  0  0  0  0  0
    0.6896    1.6481    0.0000 N   0  0  0  0  0  0  0  0  0  0  0  0
    4.0693    0.5436    0.0000 C   0  0  0  0  0  0  0  0  0  0  0  0
   -2.0066    0.3521    0.0000 C   0  0  0  0  0  0  0  0  0  0  0  0
   -2.3483   -1.6107    0.0000 C   0  0  0  0  0  0  0  0  0  0  0  0
    2.5732   -2.1274    0.0000 O   0  0  0  0  0  0  0  0  0  0  0  0
   -2.9401    0.0104    0.0000 C   0  0  0  0  0  0  0  0  0  0  0  0
   -3.1191   -0.9647    0.0000 C   0  0  3  0  0  0  0  0  0  0  0  0
    3.2482    2.1274    0.0000 C   0  0  0  0  0  0  0  0  0  0  0  0
   -4.0693   -1.3105    0.0000 C   0  0  0  0  0  0  0  0  0  0  0  0
  1  2  2  0  0  0  0
  2  3  1  0  0  0  0
  3  4  2  0  0  0  0
  4  6  1  0  0  0  0
  5  9  1  0  0  0  0
  1  6  1  0  0  0  0
  5  7  2  0  0  0  0
  1  8  1  0  0  0  0
  8  9  1  0  0  0  0
  5 10  1  0  0  0  0
  7 11  1  0  0  0  0
  2 12  1  0  0  0  0
 12 13  3  0  0  0  0
 10 14  2  0  0  0  0
 11 14  1  0  0  0  0
  3 15  1  0  0  0  0
  4 16  1  0  0  0  0
  9 17  2  0  0  0  0
 15 18  1  0  0  0  0
 18 19  1  0  0  0  0
 16 19  1  0  0  0  0
 11 20  1  0  0  0  0
 19 21  1  0  0  0  0
M  END
> <IDNUMBER>
Y501-3970

> <available>
16

> <H_acceptor>
4

> <H_donor>
1

> <B_rotN>
4

> <N_O>
5

> <logP>
2.4419

> <logD>
0.6404

> <logSw>
-2.8647

> <PSA>
54.793

> <pKa_ma>
5.6055

> <pKa_mb>
-2.0161

> <N_Chirals>
1

> <Name>
N-(3-cyano-6-methyl-4,5,6,7-tetrahydro-1-benzothiophen-2-yl)-1-methyl-1H-pyrazole-3-carboxamide

> <Smile>
CC(CC1)Cc2c1c(C#N)c(NC(c1nn(C)cc1)=O)s2

> <Color>
ORANGE

> <Collection>
DC

> <InChI>
InChI=1S/C15H16N4OS/c1-9-3-4-10-11(8-16)15(21-13(10)7-9)17-14(20)12-5-6-19(2)18-12/h5-6,9H,3-4,7H2,1-2H3,(H,17,20)/t9-/m1/s1

> <InChI Key>
JYULXJBSFJJZOZ-SECBINFHSA-N

> <PERCENTSP3>
40

> <Link>
https://www.chemdiv.com/catalog/screening-compounds/compound-Y501-3970/

> <MFCDNUMBER>
MFCD03075424

> <STEREO>
RACEMIC MIXTURE

> <State>
Solid

> <Similarity score>
0.22

$$$$
N-(3-cyano-5,6-dihydro-4H-cyclopenta[b]thiophen-2-yl)-1-[(2-fluorophenoxy)methyl
  -OEChem-04222410502D

 27 30  0     0  0  0  0  0  0999 V2000
   -2.7151   -0.4355    0.0000 C   0  0  0  0  0  0  0  0  0  0  0  0
   -3.6985   -0.3772    0.0000 C   0  0  0  0  0  0  0  0  0  0  0  0
   -0.7106   -0.4605    0.0000 C   0  0  0  0  0  0  0  0  0  0  0  0
   -2.3026    0.5104    0.0000 S   0  0  0  0  0  0  0  0  0  0  0  0
   -3.8903    0.5813    0.0000 C   0  0  0  0  0  0  0  0  0  0  0  0
    0.2854   -0.3646    0.0000 N   0  0  0  0  0  0  0  0  0  0  0  0
   -2.2149   -1.3232    0.0000 N   0  0  0  0  0  0  0  0  0  0  0  0
   -3.0653    1.1399    0.0000 C   0  0  0  0  0  0  0  0  0  0  0  0
   -1.2189   -1.3232    0.0000 C   0  0  0  0  0  0  0  0  0  0  0  0
    0.5022    0.6188    0.0000 N   0  0  0  0  0  0  0  0  0  0  0  0
   -1.1232    0.4605    0.0000 C   0  0  0  0  0  0  0  0  0  0  0  0
   -4.3404   -1.1191    0.0000 C   0  0  0  0  0  0  0  0  0  0  0  0
   -4.9738   -1.8692    0.0000 N   0  0  0  0  0  0  0  0  0  0  0  0
   -0.3688    1.1190    0.0000 C   0  0  0  0  0  0  0  0  0  0  0  0
    1.4023    1.0189    0.0000 C   0  0  0  0  0  0  0  0  0  0  0  0
    2.2149    0.4271    0.0000 O   0  0  0  0  0  0  0  0  0  0  0  0
   -0.7229   -2.1984    0.0000 O   0  0  0  0  0  0  0  0  0  0  0  0
    3.1278    0.8398    0.0000 C   0  0  0  0  0  0  0  0  0  0  0  0
    3.9528    0.2313    0.0000 C   0  0  0  0  0  0  0  0  0  0  0  0
   -4.6571    1.2523    0.0000 C   0  0  0  0  0  0  0  0  0  0  0  0
    3.8196   -0.7647    0.0000 F   0  0  0  0  0  0  0  0  0  0  0  0
   -3.2860    2.1232    0.0000 C   0  0  0  0  0  0  0  0  0  0  0  0
   -4.3028    2.1858    0.0000 C   0  0  0  0  0  0  0  0  0  0  0  0
    3.2485    1.8106    0.0000 C   0  0  0  0  0  0  0  0  0  0  0  0
    4.8531    0.6312    0.0000 C   0  0  0  0  0  0  0  0  0  0  0  0
    4.9738    1.6149    0.0000 C   0  0  0  0  0  0  0  0  0  0  0  0
    4.1611    2.1984    0.0000 C   0  0  0  0  0  0  0  0  0  0  0  0
  1  2  2  0  0  0  0
  3  9  1  0  0  0  0
  1  4  1  0  0  0  0
  2  5  1  0  0  0  0
  5  8  2  0  0  0  0
  3  6  2  0  0  0  0
  1  7  1  0  0  0  0
  4  8  1  0  0  0  0
  7  9  1  0  0  0  0
  6 10  1  0  0  0  0
 10 14  1  0  0  0  0
  3 11  1  0  0  0  0
  2 12  1  0  0  0  0
 12 13  3  0  0  0  0
 11 14  2  0  0  0  0
 10 15  1  0  0  0  0
 15 16  1  0  0  0  0
  9 17  2  0  0  0  0
 16 18  1  0  0  0  0
 18 19  2  0  0  0  0
  5 20  1  0  0  0  0
 20 23  1  0  0  0  0
 19 21  1  0  0  0  0
  8 22  1  0  0  0  0
 22 23  1  0  0  0  0
 18 24  1  0  0  0  0
 19 25  1  0  0  0  0
 25 26  2  0  0  0  0
 26 27  1  0  0  0  0
 24 27  2  0  0  0  0
M  END
> <IDNUMBER>
Y502-2880

> <available>
24

> <H_acceptor>
5

> <H_donor>
1

> <B_rotN>
7

> <N_O>
6

> <logP>
3.5506

> <logD>
1.7288

> <logSw>
-4.1361

> <PSA>
62.917

> <pKa_ma>
5.5848

> <pKa_mb>
-4.2107

> <N_Chirals>
0

> <Name>
N-(3-cyano-5,6-dihydro-4H-cyclopenta[b]thiophen-2-yl)-1-[(2-fluorophenoxy)methyl]-1H-pyrazole-3-carboxamide

> <Smile>
N#Cc1c(NC(c2nn(COc(cccc3)c3F)cc2)=O)sc2c1CCC2

> <Color>
ORANGE

> <Collection>
DC

> <InChI>
InChI=1S/C19H15FN4O2S/c20-14-5-1-2-6-16(14)26-11-24-9-8-15(23-24)18(25)22-19-13(10-21)12-4-3-7-17(12)27-19/h1-2,5-6,8-9H,3-4,7,11H2,(H,22,25)

> <InChI Key>
WBCDVCYYUWFBAD-UHFFFAOYSA-N

> <PERCENTSP3>
21.05

> <Link>
https://www.chemdiv.com/catalog/screening-compounds/compound-Y502-2880/

> <MFCDNUMBER>
MFCD04132503

> <STEREO>
ACHIRAL

> <State>
Solid

> <Similarity score>
0.22

$$$$
N-(3-cyano-4,5,6,7-tetrahydro-1-benzothiophen-2-yl)-1-[(2-fluorophenoxy)methyl]-
  -OEChem-04222410502D

 28 31  0     0  0  0  0  0  0999 V2000
   -2.6400   -0.6855    0.0000 C   0  0  0  0  0  0  0  0  0  0  0  0
   -3.6609   -0.5395    0.0000 C   0  0  0  0  0  0  0  0  0  0  0  0
   -0.6479   -0.6980    0.0000 C   0  0  0  0  0  0  0  0  0  0  0  0
   -2.1940    0.2228    0.0000 S   0  0  0  0  0  0  0  0  0  0  0  0
   -3.7942    0.4312    0.0000 C   0  0  0  0  0  0  0  0  0  0  0  0
    0.3480   -0.5895    0.0000 N   0  0  0  0  0  0  0  0  0  0  0  0
   -2.1564   -1.5605    0.0000 N   0  0  0  0  0  0  0  0  0  0  0  0
   -2.9442    0.9313    0.0000 C   0  0  0  0  0  0  0  0  0  0  0  0
   -1.1606   -1.5605    0.0000 C   0  0  0  0  0  0  0  0  0  0  0  0
    0.5647    0.3813    0.0000 N   0  0  0  0  0  0  0  0  0  0  0  0
   -1.0646    0.2228    0.0000 C   0  0  0  0  0  0  0  0  0  0  0  0
   -4.3318   -1.2313    0.0000 C   0  0  0  0  0  0  0  0  0  0  0  0
   -5.0360   -1.9606    0.0000 N   0  0  0  0  0  0  0  0  0  0  0  0
   -0.3103    0.8937    0.0000 C   0  0  0  0  0  0  0  0  0  0  0  0
    1.4647    0.7855    0.0000 C   0  0  0  0  0  0  0  0  0  0  0  0
    2.2775    0.2022    0.0000 O   0  0  0  0  0  0  0  0  0  0  0  0
   -0.6603   -2.4233    0.0000 O   0  0  0  0  0  0  0  0  0  0  0  0
    3.1900    0.5898    0.0000 C   0  0  0  0  0  0  0  0  0  0  0  0
    4.0025   -0.0063    0.0000 C   0  0  0  0  0  0  0  0  0  0  0  0
    3.8818   -1.0022    0.0000 F   0  0  0  0  0  0  0  0  0  0  0  0
   -4.6317    0.9313    0.0000 C   0  0  0  0  0  0  0  0  0  0  0  0
   -2.8982    1.9231    0.0000 C   0  0  0  0  0  0  0  0  0  0  0  0
    3.2983    1.5731    0.0000 C   0  0  0  0  0  0  0  0  0  0  0  0
    4.9152    0.3938    0.0000 C   0  0  0  0  0  0  0  0  0  0  0  0
   -4.6317    1.9482    0.0000 C   0  0  0  0  0  0  0  0  0  0  0  0
   -3.7860    2.4233    0.0000 C   0  0  0  0  0  0  0  0  0  0  0  0
    5.0360    1.3774    0.0000 C   0  0  0  0  0  0  0  0  0  0  0  0
    4.2111    1.9732    0.0000 C   0  0  0  0  0  0  0  0  0  0  0  0
  1  2  2  0  0  0  0
  3  9  1  0  0  0  0
  1  4  1  0  0  0  0
  2  5  1  0  0  0  0
  5  8  2  0  0  0  0
  3  6  2  0  0  0  0
  1  7  1  0  0  0  0
  4  8  1  0  0  0  0
  7  9  1  0  0  0  0
  6 10  1  0  0  0  0
 10 14  1  0  0  0  0
  3 11  1  0  0  0  0
  2 12  1  0  0  0  0
 12 13  3  0  0  0  0
 11 14  2  0  0  0  0
 10 15  1  0  0  0  0
 15 16  1  0  0  0  0
  9 17  2  0  0  0  0
 16 18  1  0  0  0  0
 18 19  2  0  0  0  0
 19 20  1  0  0  0  0
  5 21  1  0  0  0  0
  8 22  1  0  0  0  0
 18 23  1  0  0  0  0
 19 24  1  0  0  0  0
 24 27  2  0  0  0  0
 21 25  1  0  0  0  0
 25 26  1  0  0  0  0
 22 26  1  0  0  0  0
 27 28  1  0  0  0  0
 23 28  2  0  0  0  0
M  END
> <IDNUMBER>
Y502-2001

> <available>
13

> <H_acceptor>
5

> <H_donor>
1

> <B_rotN>
7

> <N_O>
6

> <logP>
3.9609

> <logD>
2.1594

> <logSw>
-4.4431

> <PSA>
62.551

> <pKa_ma>
5.6055

> <pKa_mb>
-4.2107

> <N_Chirals>
0

> <Name>
N-(3-cyano-4,5,6,7-tetrahydro-1-benzothiophen-2-yl)-1-[(2-fluorophenoxy)methyl]-1H-pyrazole-3-carboxamide

> <Smile>
N#Cc1c(NC(c2nn(COc(cccc3)c3F)cc2)=O)sc2c1CCCC2

> <Color>
NOT COLORED

> <Collection>
DC

> <InChI>
InChI=1S/C20H17FN4O2S/c21-15-6-2-3-7-17(15)27-12-25-10-9-16(24-25)19(26)23-20-14(11-22)13-5-1-4-8-18(13)28-20/h2-3,6-7,9-10H,1,4-5,8,12H2,(H,23,26)

> <InChI Key>
PZAFWIZMPOUBNK-UHFFFAOYSA-N

> <PERCENTSP3>
25

> <Link>
https://www.chemdiv.com/catalog/screening-compounds/compound-Y502-2001/

> <MFCDNUMBER>
MFCD04132766

> <STEREO>
ACHIRAL

> <State>
Solid

> <Similarity score>
0.22

$$$$
N-(3-cyano-5,6,7,8-tetrahydro-4H-cyclohepta[b]thiophen-2-yl)-1-[(2-fluorophenoxy
  -OEChem-04222410502D

 29 32  0     0  0  0  0  0  0999 V2000
   -2.6568   -0.7689    0.0000 C   0  0  0  0  0  0  0  0  0  0  0  0
   -3.6738   -0.6606    0.0000 C   0  0  0  0  0  0  0  0  0  0  0  0
   -0.6314   -0.8065    0.0000 C   0  0  0  0  0  0  0  0  0  0  0  0
   -2.2693    0.1396    0.0000 S   0  0  0  0  0  0  0  0  0  0  0  0
   -3.8697    0.3106    0.0000 C   0  0  0  0  0  0  0  0  0  0  0  0
    0.3771   -0.6981    0.0000 N   0  0  0  0  0  0  0  0  0  0  0  0
   -2.1359   -1.6691    0.0000 N   0  0  0  0  0  0  0  0  0  0  0  0
   -3.0069    0.7938    0.0000 C   0  0  0  0  0  0  0  0  0  0  0  0
   -1.1400   -1.6691    0.0000 C   0  0  0  0  0  0  0  0  0  0  0  0
    0.5814    0.2854    0.0000 N   0  0  0  0  0  0  0  0  0  0  0  0
   -1.0315    0.1271    0.0000 C   0  0  0  0  0  0  0  0  0  0  0  0
   -4.3449   -1.3900    0.0000 C   0  0  0  0  0  0  0  0  0  0  0  0
   -5.0365   -2.1276    0.0000 N   0  0  0  0  0  0  0  0  0  0  0  0
   -0.2772    0.7938    0.0000 C   0  0  0  0  0  0  0  0  0  0  0  0
    1.4941    0.6854    0.0000 C   0  0  0  0  0  0  0  0  0  0  0  0
    2.2943    0.0896    0.0000 O   0  0  0  0  0  0  0  0  0  0  0  0
   -0.6439   -2.5276    0.0000 O   0  0  0  0  0  0  0  0  0  0  0  0
    3.2154    0.4898    0.0000 C   0  0  0  0  0  0  0  0  0  0  0  0
    4.0279   -0.1021    0.0000 C   0  0  0  0  0  0  0  0  0  0  0  0
    3.9071   -1.1106    0.0000 F   0  0  0  0  0  0  0  0  0  0  0  0
   -4.7906    0.6981    0.0000 C   0  0  0  0  0  0  0  0  0  0  0  0
   -2.8402    1.7777    0.0000 C   0  0  0  0  0  0  0  0  0  0  0  0
    3.3236    1.4608    0.0000 C   0  0  0  0  0  0  0  0  0  0  0  0
    4.9364    0.2854    0.0000 C   0  0  0  0  0  0  0  0  0  0  0  0
   -5.0573    1.6566    0.0000 C   0  0  0  0  0  0  0  0  0  0  0  0
   -3.4945    2.5276    0.0000 C   0  0  0  0  0  0  0  0  0  0  0  0
    5.0573    1.2691    0.0000 C   0  0  0  0  0  0  0  0  0  0  0  0
    4.2322    1.8609    0.0000 C   0  0  0  0  0  0  0  0  0  0  0  0
   -4.4780    2.4693    0.0000 C   0  0  0  0  0  0  0  0  0  0  0  0
  1  2  2  0  0  0  0
  3  9  1  0  0  0  0
  1  4  1  0  0  0  0
  2  5  1  0  0  0  0
  5  8  2  0  0  0  0
  3  6  2  0  0  0  0
  1  7  1  0  0  0  0
  4  8  1  0  0  0  0
  7  9  1  0  0  0  0
  6 10  1  0  0  0  0
 10 14  1  0  0  0  0
  3 11  1  0  0  0  0
  2 12  1  0  0  0  0
 12 13  3  0  0  0  0
 11 14  2  0  0  0  0
 10 15  1  0  0  0  0
 15 16  1  0  0  0  0
  9 17  2  0  0  0  0
 16 18  1  0  0  0  0
 18 19  2  0  0  0  0
 19 20  1  0  0  0  0
  5 21  1  0  0  0  0
  8 22  1  0  0  0  0
 18 23  1  0  0  0  0
 19 24  1  0  0  0  0
 24 27  2  0  0  0  0
 21 25  1  0  0  0  0
 25 29  1  0  0  0  0
 22 26  1  0  0  0  0
 27 28  1  0  0  0  0
 23 28  2  0  0  0  0
 26 29  1  0  0  0  0
M  END
> <IDNUMBER>
Y502-2008

> <available>
23

> <H_acceptor>
5

> <H_donor>
1

> <B_rotN>
7

> <N_O>
6

> <logP>
4.4568

> <logD>
2.6554

> <logSw>
-4.5284

> <PSA>
62.882

> <pKa_ma>
5.6055

> <pKa_mb>
-4.2107

> <N_Chirals>
0

> <Name>
N-(3-cyano-5,6,7,8-tetrahydro-4H-cyclohepta[b]thiophen-2-yl)-1-[(2-fluorophenoxy)methyl]-1H-pyrazole-3-carboxamide

> <Smile>
N#Cc1c(NC(c2nn(COc(cccc3)c3F)cc2)=O)sc2c1CCCCC2

> <Color>
ORANGE

> <Collection>
DC

> <InChI>
InChI=1S/C21H19FN4O2S/c22-16-7-4-5-8-18(16)28-13-26-11-10-17(25-26)20(27)24-21-15(12-23)14-6-2-1-3-9-19(14)29-21/h4-5,7-8,10-11H,1-3,6,9,13H2,(H,24,27)

> <InChI Key>
SVYXNDQZLSWROV-UHFFFAOYSA-N

> <PERCENTSP3>
28.57

> <Link>
https://www.chemdiv.com/catalog/screening-compounds/compound-Y502-2008/

> <MFCDNUMBER>
MFCD04051158

> <STEREO>
ACHIRAL

> <State>
Solid

> <Similarity score>
0.22

$$$$
N-(3-cyano-6-methyl-4,5,6,7-tetrahydro-1-benzothiophen-2-yl)-1-[(2-fluorophenoxy
  -OEChem-04222410502D

 29 32  0     0  0  0  0  0  0999 V2000
   -2.5903   -1.1692    0.0000 C   0  0  0  0  0  0  0  0  0  0  0  0
   -3.5822   -1.0607    0.0000 C   0  0  0  0  0  0  0  0  0  0  0  0
   -3.7908   -0.0771    0.0000 C   0  0  0  0  0  0  0  0  0  0  0  0
   -2.9156    0.4188    0.0000 C   0  0  0  0  0  0  0  0  0  0  0  0
   -0.5772   -1.1818    0.0000 C   0  0  0  0  0  0  0  0  0  0  0  0
   -2.1777   -0.2605    0.0000 S   0  0  0  0  0  0  0  0  0  0  0  0
    0.4062   -0.9775    0.0000 N   0  0  0  0  0  0  0  0  0  0  0  0
   -2.0902   -2.0443    0.0000 N   0  0  0  0  0  0  0  0  0  0  0  0
   -1.0858   -2.0571    0.0000 C   0  0  0  0  0  0  0  0  0  0  0  0
    0.5023    0.0061    0.0000 N   0  0  0  0  0  0  0  0  0  0  0  0
   -1.0733   -0.3106    0.0000 C   0  0  0  0  0  0  0  0  0  0  0  0
   -4.2367   -1.8027    0.0000 C   0  0  0  0  0  0  0  0  0  0  0  0
   -4.9036   -2.5404    0.0000 N   0  0  0  0  0  0  0  0  0  0  0  0
   -0.3940    0.4312    0.0000 C   0  0  0  0  0  0  0  0  0  0  0  0
   -4.6370    0.4312    0.0000 C   0  0  0  0  0  0  0  0  0  0  0  0
   -2.9156    1.4109    0.0000 C   0  0  0  0  0  0  0  0  0  0  0  0
    1.4024    0.5022    0.0000 C   0  0  0  0  0  0  0  0  0  0  0  0
    2.2610   -0.0188    0.0000 O   0  0  0  0  0  0  0  0  0  0  0  0
   -0.5981   -2.9155    0.0000 O   0  0  0  0  0  0  0  0  0  0  0  0
    3.1363    0.4688    0.0000 C   0  0  0  0  0  0  0  0  0  0  0  0
    3.9951   -0.0564    0.0000 C   0  0  0  0  0  0  0  0  0  0  0  0
   -4.6242    1.4233    0.0000 C   0  0  0  0  0  0  0  0  0  0  0  0
    3.9823   -1.0607    0.0000 F   0  0  0  0  0  0  0  0  0  0  0  0
   -3.7658    1.9234    0.0000 C   0  0  3  0  0  0  0  0  0  0  0  0
    3.1572    1.4608    0.0000 C   0  0  0  0  0  0  0  0  0  0  0  0
    4.8828    0.4312    0.0000 C   0  0  0  0  0  0  0  0  0  0  0  0
   -3.7658    2.9155    0.0000 C   0  0  0  0  0  0  0  0  0  0  0  0
    4.9036    1.4109    0.0000 C   0  0  0  0  0  0  0  0  0  0  0  0
    4.0324    1.9441    0.0000 C   0  0  0  0  0  0  0  0  0  0  0  0
  1  2  2  0  0  0  0
  2  3  1  0  0  0  0
  3  4  2  0  0  0  0
  4  6  1  0  0  0  0
  5  9  1  0  0  0  0
  1  6  1  0  0  0  0
  5  7  2  0  0  0  0
  1  8  1  0  0  0  0
  8  9  1  0  0  0  0
  7 10  1  0  0  0  0
 10 14  1  0  0  0  0
  5 11  1  0  0  0  0
  2 12  1  0  0  0  0
 12 13  3  0  0  0  0
 11 14  2  0  0  0  0
  3 15  1  0  0  0  0
  4 16  1  0  0  0  0
 10 17  1  0  0  0  0
 17 18  1  0  0  0  0
  9 19  2  0  0  0  0
 18 20  1  0  0  0  0
 20 21  2  0  0  0  0
 15 22  1  0  0  0  0
 22 24  1  0  0  0  0
 21 23  1  0  0  0  0
 16 24  1  0  0  0  0
 20 25  1  0  0  0  0
 21 26  1  0  0  0  0
 26 28  2  0  0  0  0
 24 27  1  0  0  0  0
 28 29  1  0  0  0  0
 25 29  2  0  0  0  0
M  END
> <IDNUMBER>
Y502-2000

> <available>
15

> <H_acceptor>
5

> <H_donor>
1

> <B_rotN>
7

> <N_O>
6

> <logP>
4.3948

> <logD>
2.5934

> <logSw>
-4.4567

> <PSA>
62.551

> <pKa_ma>
5.6055

> <pKa_mb>
-4.2107

> <N_Chirals>
1

> <Name>
N-(3-cyano-6-methyl-4,5,6,7-tetrahydro-1-benzothiophen-2-yl)-1-[(2-fluorophenoxy)methyl]-1H-pyrazole-3-carboxamide

> <Smile>
CC(CC1)Cc2c1c(C#N)c(NC(c1nn(COc(cccc3)c3F)cc1)=O)s2

> <Color>
NOT COLORED

> <Collection>
DC

> <InChI>
InChI=1S/C21H19FN4O2S/c1-13-6-7-14-15(11-23)21(29-19(14)10-13)24-20(27)17-8-9-26(25-17)12-28-18-5-3-2-4-16(18)22/h2-5,8-9,13H,6-7,10,12H2,1H3,(H,24,27)/t13-/m1/s1

> <InChI Key>
KLRNUHNBQTXOKB-CYBMUJFWSA-N

> <PERCENTSP3>
28.57

> <Link>
https://www.chemdiv.com/catalog/screening-compounds/compound-Y502-2000/

> <MFCDNUMBER>
MFCD04132429

> <STEREO>
RACEMIC MIXTURE

> <State>
Solid

> <Similarity score>
0.21

$$$$
N-(3-cyano-4,5,6,7-tetrahydro-1-benzothiophen-2-yl)-5-(4-ethoxyphenyl)-7-methylp
  -OEChem-04222410502D

 33 37  0     0  0  0  0  0  0999 V2000
   -0.4836    0.0541    0.0000 C   0  0  0  0  0  0  0  0  0  0  0  0
   -0.4836    0.9840    0.0000 N   0  0  0  0  0  0  0  0  0  0  0  0
    3.6934   -0.4583    0.0000 C   0  0  0  0  0  0  0  0  0  0  0  0
    1.1130    0.9840    0.0000 N   0  0  0  0  0  0  0  0  0  0  0  0
    3.6934   -1.4423    0.0000 C   0  0  0  0  0  0  0  0  0  0  0  0
    1.1130    0.0541    0.0000 C   0  0  0  0  0  0  0  0  0  0  0  0
    0.3044   -0.3920    0.0000 C   0  0  0  0  0  0  0  0  0  0  0  0
   -1.2882   -0.3920    0.0000 N   0  0  0  0  0  0  0  0  0  0  0  0
    4.5439    0.0419    0.0000 S   0  0  0  0  0  0  0  0  0  0  0  0
    5.3691   -1.4423    0.0000 C   0  0  0  0  0  0  0  0  0  0  0  0
    2.8012    0.0541    0.0000 N   0  0  0  0  0  0  0  0  0  0  0  0
   -1.2882    1.4547    0.0000 C   0  0  0  0  0  0  0  0  0  0  0  0
    5.3691   -0.4583    0.0000 C   0  0  0  0  0  0  0  0  0  0  0  0
   -2.0717    0.0541    0.0000 C   0  0  0  0  0  0  0  0  0  0  0  0
   -2.0717    0.9840    0.0000 C   0  0  0  0  0  0  0  0  0  0  0  0
    1.9176   -0.4166    0.0000 C   0  0  0  0  0  0  0  0  0  0  0  0
    2.8431   -1.9343    0.0000 C   0  0  0  0  0  0  0  0  0  0  0  0
    1.9926   -2.4218    0.0000 N   0  0  0  0  0  0  0  0  0  0  0  0
   -2.8972   -0.4166    0.0000 C   0  0  0  0  0  0  0  0  0  0  0  0
    1.9176   -1.4088    0.0000 O   0  0  0  0  0  0  0  0  0  0  0  0
   -2.8972   -1.3713    0.0000 C   0  0  0  0  0  0  0  0  0  0  0  0
   -3.7475    0.0541    0.0000 C   0  0  0  0  0  0  0  0  0  0  0  0
   -4.5980   -1.3713    0.0000 C   0  0  0  0  0  0  0  0  0  0  0  0
    6.2321   -1.9090    0.0000 C   0  0  0  0  0  0  0  0  0  0  0  0
   -3.7475   -1.8802    0.0000 C   0  0  0  0  0  0  0  0  0  0  0  0
   -4.5980   -0.4166    0.0000 C   0  0  0  0  0  0  0  0  0  0  0  0
   -1.2882    2.4218    0.0000 C   0  0  0  0  0  0  0  0  0  0  0  0
    6.2321    0.0665    0.0000 C   0  0  0  0  0  0  0  0  0  0  0  0
   -5.4359   -1.8467    0.0000 O   0  0  0  0  0  0  0  0  0  0  0  0
   -6.2447   -1.3465    0.0000 C   0  0  0  0  0  0  0  0  0  0  0  0
    7.0950   -1.4088    0.0000 C   0  0  0  0  0  0  0  0  0  0  0  0
    7.0950   -0.4295    0.0000 C   0  0  0  0  0  0  0  0  0  0  0  0
   -7.0950   -1.8219    0.0000 C   0  0  0  0  0  0  0  0  0  0  0  0
  1  2  1  0  0  0  0
  3 11  1  0  0  0  0
  2  4  1  0  0  0  0
  4  6  2  0  0  0  0
  3  5  2  0  0  0  0
  6  7  1  0  0  0  0
  1  7  2  0  0  0  0
  1  8  1  0  0  0  0
  3  9  1  0  0  0  0
  5 10  1  0  0  0  0
 11 16  1  0  0  0  0
  2 12  1  0  0  0  0
 12 15  2  0  0  0  0
  9 13  1  0  0  0  0
 10 13  2  0  0  0  0
  8 14  2  0  0  0  0
 14 15  1  0  0  0  0
  6 16  1  0  0  0  0
  5 17  1  0  0  0  0
 17 18  3  0  0  0  0
 14 19  1  0  0  0  0
 16 20  2  0  0  0  0
 19 21  2  0  0  0  0
 19 22  1  0  0  0  0
 23 26  1  0  0  0  0
 10 24  1  0  0  0  0
 21 25  1  0  0  0  0
 23 25  2  0  0  0  0
 22 26  2  0  0  0  0
 12 27  1  0  0  0  0
 13 28  1  0  0  0  0
 23 29  1  0  0  0  0
 29 30  1  0  0  0  0
 24 31  1  0  0  0  0
 28 32  1  0  0  0  0
 31 32  1  0  0  0  0
 30 33  1  0  0  0  0
M  END
> <IDNUMBER>
Y508-2564

> <available>
6

> <H_acceptor>
6

> <H_donor>
1

> <B_rotN>
7

> <N_O>
7

> <logP>
5.2499

> <logD>
3.6239

> <logSw>
-5.0727

> <PSA>
66.354

> <pKa_ma>
5.7844

> <pKa_mb>
2.3568

> <N_Chirals>
0

> <Name>
N-(3-cyano-4,5,6,7-tetrahydro-1-benzothiophen-2-yl)-5-(4-ethoxyphenyl)-7-methylpyrazolo[1,5-a]pyrimidine-2-carboxamide

> <Smile>
CCOc(cc1)ccc1-c1nc2cc(C(Nc(sc3c4CCCC3)c4C#N)=O)nn2c(C)c1

> <Color>
BROWN

> <Collection>
DC

> <InChI>
InChI=1S/C25H23N5O2S/c1-3-32-17-10-8-16(9-11-17)20-12-15(2)30-23(27-20)13-21(29-30)24(31)28-25-19(14-26)18-6-4-5-7-22(18)33-25/h8-13H,3-7H2,1-2H3,(H,28,31)

> <InChI Key>
QTBXLRKAEKLXOO-UHFFFAOYSA-N

> <PERCENTSP3>
28

> <Link>
https://www.chemdiv.com/catalog/screening-compounds/compound-Y508-2564/

> <MFCDNUMBER>
MFCD01194507

> <STEREO>
ACHIRAL

> <State>
Solid

> <Similarity score>
0.21

$$$$
3-(2H-1,3-benzodioxol-5-yl)-N-(3-cyano-5,6-dihydro-4H-cyclopenta[b]thiophen-2-yl
  -OEChem-04222410502D

 32 37  0     0  0  0  0  0  0999 V2000
    1.5853    0.6562    0.0000 C   0  0  0  0  0  0  0  0  0  0  0  0
    2.5562    0.7187    0.0000 C   0  0  0  0  0  0  0  0  0  0  0  0
   -1.4105   -1.0770    0.0000 C   0  0  0  0  0  0  0  0  0  0  0  0
   -1.9062   -1.9438    0.0000 C   0  0  0  0  0  0  0  0  0  0  0  0
   -0.4147   -1.0770    0.0000 C   0  0  0  0  0  0  0  0  0  0  0  0
   -2.9896   -0.7438    0.0000 N   0  0  0  0  0  0  0  0  0  0  0  0
   -2.0854   -0.3396    0.0000 C   0  0  0  0  0  0  0  0  0  0  0  0
    1.2312    1.6270    0.0000 S   0  0  0  0  0  0  0  0  0  0  0  0
    2.8353    1.6646    0.0000 C   0  0  0  0  0  0  0  0  0  0  0  0
    1.0896   -0.2104    0.0000 N   0  0  0  0  0  0  0  0  0  0  0  0
    0.0811   -0.2104    0.0000 C   0  0  0  0  0  0  0  0  0  0  0  0
    2.0312    2.2478    0.0000 C   0  0  0  0  0  0  0  0  0  0  0  0
   -2.8853   -1.7271    0.0000 O   0  0  0  0  0  0  0  0  0  0  0  0
   -1.4105   -2.8104    0.0000 N   0  0  0  0  0  0  0  0  0  0  0  0
   -2.1105    0.6562    0.0000 C   0  0  0  0  0  0  0  0  0  0  0  0
    3.2062   -0.0689    0.0000 C   0  0  0  0  0  0  0  0  0  0  0  0
    3.8188   -0.8354    0.0000 N   0  0  0  0  0  0  0  0  0  0  0  0
   -3.0396    2.1229    0.0000 C   0  0  0  0  0  0  0  0  0  0  0  0
   -3.0022    1.1271    0.0000 C   0  0  0  0  0  0  0  0  0  0  0  0
    0.0811   -1.9438    0.0000 C   0  0  0  0  0  0  0  0  0  0  0  0
   -2.1980    2.6562    0.0000 C   0  0  0  0  0  0  0  0  0  0  0  0
   -3.8188    2.7605    0.0000 O   0  0  0  0  0  0  0  0  0  0  0  0
   -0.4147   -2.8104    0.0000 C   0  0  0  0  0  0  0  0  0  0  0  0
   -2.4521    3.6271    0.0000 O   0  0  0  0  0  0  0  0  0  0  0  0
   -0.4147    0.6562    0.0000 O   0  0  0  0  0  0  0  0  0  0  0  0
   -3.4479    3.6896    0.0000 C   0  0  0  0  0  0  0  0  0  0  0  0
   -1.2687    1.1937    0.0000 C   0  0  0  0  0  0  0  0  0  0  0  0
   -1.3062    2.1978    0.0000 C   0  0  0  0  0  0  0  0  0  0  0  0
    3.6396    2.2895    0.0000 C   0  0  0  0  0  0  0  0  0  0  0  0
    2.3146    3.2187    0.0000 C   0  0  0  0  0  0  0  0  0  0  0  0
    3.2938    3.2187    0.0000 C   0  0  0  0  0  0  0  0  0  0  0  0
    0.0937   -3.6896    0.0000 C   0  0  0  0  0  0  0  0  0  0  0  0
  1  2  2  0  0  0  0
  3  5  1  0  0  0  0
  3  4  2  0  0  0  0
  4 14  1  0  0  0  0
  5 11  1  0  0  0  0
  6  7  2  0  0  0  0
  3  7  1  0  0  0  0
  1  8  1  0  0  0  0
  2  9  1  0  0  0  0
  9 12  2  0  0  0  0
  1 10  1  0  0  0  0
 10 11  1  0  0  0  0
  8 12  1  0  0  0  0
  4 13  1  0  0  0  0
  6 13  1  0  0  0  0
 14 23  2  0  0  0  0
  7 15  1  0  0  0  0
  2 16  1  0  0  0  0
 16 17  3  0  0  0  0
 18 19  1  0  0  0  0
 18 21  2  0  0  0  0
 15 19  2  0  0  0  0
  5 20  2  0  0  0  0
 21 28  1  0  0  0  0
 18 22  1  0  0  0  0
 20 23  1  0  0  0  0
 21 24  1  0  0  0  0
 11 25  2  0  0  0  0
 22 26  1  0  0  0  0
 24 26  1  0  0  0  0
 15 27  1  0  0  0  0
 27 28  2  0  0  0  0
  9 29  1  0  0  0  0
 29 31  1  0  0  0  0
 12 30  1  0  0  0  0
 30 31  1  0  0  0  0
 23 32  1  0  0  0  0
M  END
> <IDNUMBER>
Y501-2683

> <available>
13

> <H_acceptor>
8

> <H_donor>
1

> <B_rotN>
5

> <N_O>
8

> <logP>
4.2591

> <logD>
2.7337

> <logSw>
-4.5644

> <PSA>
88.105

> <pKa_ma>
5.8877

> <pKa_mb>
-1.9333

> <N_Chirals>
0

> <Name>
3-(2H-1,3-benzodioxol-5-yl)-N-(3-cyano-5,6-dihydro-4H-cyclopenta[b]thiophen-2-yl)-6-methyl[1,2]oxazolo[5,4-b]pyridine-4-carboxamide

> <Smile>
Cc1cc(C(Nc(sc2c3CCC2)c3C#N)=O)c(c(-c(cc2)cc3c2OCO3)no2)c2n1

> <Color>
BROWN

> <Collection>
DC

> <InChI>
InChI=1S/C23H16N4O4S/c1-11-7-14(21(28)26-23-15(9-24)13-3-2-4-18(13)32-23)19-20(27-31-22(19)25-11)12-5-6-16-17(8-12)30-10-29-16/h5-8H,2-4,10H2,1H3,(H,26,28)

> <InChI Key>
GSFFRALGTHMSLX-UHFFFAOYSA-N

> <PERCENTSP3>
21.74

> <Link>
https://www.chemdiv.com/catalog/screening-compounds/compound-Y501-2683/

> <MFCDNUMBER>
MFCD08557785

> <CLNUMBER>
CL7490

> <STEREO>
ACHIRAL

> <State>
Solid

> <Similarity score>
0.21

$$$$
N-(3-cyano-5,6-dihydro-4H-cyclopenta[b]thiophen-2-yl)-6-methyl-3-phenyl[1,2]oxaz
  -OEChem-04222410502D

 29 33  0     0  0  0  0  0  0999 V2000
    1.0187   -0.7271    0.0000 C   0  0  0  0  0  0  0  0  0  0  0  0
    1.8186   -1.2853    0.0000 C   0  0  0  0  0  0  0  0  0  0  0  0
   -2.4021   -0.2022    0.0000 C   0  0  0  0  0  0  0  0  0  0  0  0
   -3.3354   -0.5645    0.0000 C   0  0  0  0  0  0  0  0  0  0  0  0
   -1.6187   -0.8271    0.0000 C   0  0  0  0  0  0  0  0  0  0  0  0
   -3.4311    1.0480    0.0000 N   0  0  0  0  0  0  0  0  0  0  0  0
    1.3521    0.2523    0.0000 S   0  0  0  0  0  0  0  0  0  0  0  0
    2.6352   -0.7188    0.0000 C   0  0  0  0  0  0  0  0  0  0  0  0
   -2.4562    0.7937    0.0000 C   0  0  0  0  0  0  0  0  0  0  0  0
    0.0895   -1.0895    0.0000 N   0  0  0  0  0  0  0  0  0  0  0  0
   -0.6855   -0.4645    0.0000 C   0  0  0  0  0  0  0  0  0  0  0  0
    2.3603    0.2354    0.0000 C   0  0  0  0  0  0  0  0  0  0  0  0
   -3.9686    0.2022    0.0000 O   0  0  0  0  0  0  0  0  0  0  0  0
   -3.4811   -1.5520    0.0000 N   0  0  0  0  0  0  0  0  0  0  0  0
    1.8354   -2.3019    0.0000 C   0  0  0  0  0  0  0  0  0  0  0  0
    1.8395   -3.2853    0.0000 N   0  0  0  0  0  0  0  0  0  0  0  0
   -1.7729   -1.8186    0.0000 C   0  0  0  0  0  0  0  0  0  0  0  0
   -2.7021   -2.1813    0.0000 C   0  0  0  0  0  0  0  0  0  0  0  0
   -0.5355    0.5186    0.0000 O   0  0  0  0  0  0  0  0  0  0  0  0
   -1.8313    1.5772    0.0000 C   0  0  0  0  0  0  0  0  0  0  0  0
    3.6477   -0.7312    0.0000 C   0  0  0  0  0  0  0  0  0  0  0  0
    3.1936    0.8147    0.0000 C   0  0  0  0  0  0  0  0  0  0  0  0
    3.9686    0.2022    0.0000 C   0  0  0  0  0  0  0  0  0  0  0  0
   -2.8521   -3.1687    0.0000 C   0  0  0  0  0  0  0  0  0  0  0  0
   -2.1979    2.5104    0.0000 C   0  0  0  0  0  0  0  0  0  0  0  0
   -0.8437    1.4229    0.0000 C   0  0  0  0  0  0  0  0  0  0  0  0
   -1.5729    3.2853    0.0000 C   0  0  0  0  0  0  0  0  0  0  0  0
   -0.2186    2.2061    0.0000 C   0  0  0  0  0  0  0  0  0  0  0  0
   -0.5855    3.1355    0.0000 C   0  0  0  0  0  0  0  0  0  0  0  0
  1  2  2  0  0  0  0
  3  5  1  0  0  0  0
  3  4  2  0  0  0  0
  5 11  1  0  0  0  0
  6  9  2  0  0  0  0
  6 13  1  0  0  0  0
  1  7  1  0  0  0  0
  2  8  1  0  0  0  0
  3  9  1  0  0  0  0
  1 10  1  0  0  0  0
 10 11  1  0  0  0  0
  7 12  1  0  0  0  0
  8 12  2  0  0  0  0
  4 13  1  0  0  0  0
 14 18  2  0  0  0  0
  4 14  1  0  0  0  0
  2 15  1  0  0  0  0
 15 16  3  0  0  0  0
  5 17  2  0  0  0  0
 17 18  1  0  0  0  0
 11 19  2  0  0  0  0
  9 20  1  0  0  0  0
  8 21  1  0  0  0  0
 12 22  1  0  0  0  0
 22 23  1  0  0  0  0
 21 23  1  0  0  0  0
 18 24  1  0  0  0  0
 20 25  1  0  0  0  0
 20 26  2  0  0  0  0
 25 27  2  0  0  0  0
 27 29  1  0  0  0  0
 26 28  1  0  0  0  0
 28 29  2  0  0  0  0
M  END
> <IDNUMBER>
Y501-2729

> <available>
10

> <H_acceptor>
6

> <H_donor>
1

> <B_rotN>
5

> <N_O>
6

> <logP>
4.1451

> <logD>
2.6197

> <logSw>
-4.59

> <PSA>
70.99

> <pKa_ma>
5.8877

> <pKa_mb>
-1.9333

> <N_Chirals>
0

> <Name>
N-(3-cyano-5,6-dihydro-4H-cyclopenta[b]thiophen-2-yl)-6-methyl-3-phenyl[1,2]oxazolo[5,4-b]pyridine-4-carboxamide

> <Smile>
Cc1cc(C(Nc(sc2c3CCC2)c3C#N)=O)c(c(-c2ccccc2)no2)c2n1

> <Color>
BROWN

> <Collection>
DC

> <InChI>
InChI=1S/C22H16N4O2S/c1-12-10-15(18-19(26-28-21(18)24-12)13-6-3-2-4-7-13)20(27)25-22-16(11-23)14-8-5-9-17(14)29-22/h2-4,6-7,10H,5,8-9H2,1H3,(H,25,27)

> <InChI Key>
GJEICPIYJGGZKP-UHFFFAOYSA-N

> <PERCENTSP3>
18.18

> <Link>
https://www.chemdiv.com/catalog/screening-compounds/compound-Y501-2729/

> <MFCDNUMBER>
MFCD08557909

> <CLNUMBER>
CL7490

> <STEREO>
ACHIRAL

> <State>
Solid

> <Similarity score>
0.21

$$$$
3-(2H-1,3-benzodioxol-5-yl)-N-(3-cyano-4,5,6,7-tetrahydro-1-benzothiophen-2-yl)-
  -OEChem-04222410502D

 33 38  0     0  0  0  0  0  0999 V2000
    1.6521   -0.6228    0.0000 C   0  0  0  0  0  0  0  0  0  0  0  0
    1.2438   -1.5478    0.0000 C   0  0  0  0  0  0  0  0  0  0  0  0
   -1.3437    1.0979    0.0000 C   0  0  0  0  0  0  0  0  0  0  0  0
   -1.8396    1.9730    0.0000 C   0  0  0  0  0  0  0  0  0  0  0  0
   -0.3436    1.0979    0.0000 C   0  0  0  0  0  0  0  0  0  0  0  0
   -2.9144    0.7729    0.0000 N   0  0  0  0  0  0  0  0  0  0  0  0
   -2.0021    0.3604    0.0000 C   0  0  0  0  0  0  0  0  0  0  0  0
    2.6519   -0.7228    0.0000 S   0  0  0  0  0  0  0  0  0  0  0  0
    1.9897   -2.2103    0.0000 C   0  0  0  0  0  0  0  0  0  0  0  0
    1.1563    0.2354    0.0000 N   0  0  0  0  0  0  0  0  0  0  0  0
    0.1564    0.2354    0.0000 C   0  0  0  0  0  0  0  0  0  0  0  0
    2.8645   -1.7229    0.0000 C   0  0  0  0  0  0  0  0  0  0  0  0
   -2.8146    1.7603    0.0000 O   0  0  0  0  0  0  0  0  0  0  0  0
   -1.3437    2.8353    0.0000 N   0  0  0  0  0  0  0  0  0  0  0  0
   -2.0396   -0.6353    0.0000 C   0  0  0  0  0  0  0  0  0  0  0  0
    0.2813   -1.7728    0.0000 C   0  0  0  0  0  0  0  0  0  0  0  0
   -0.6687   -2.0104    0.0000 N   0  0  0  0  0  0  0  0  0  0  0  0
   -2.9645   -2.0978    0.0000 C   0  0  0  0  0  0  0  0  0  0  0  0
   -2.9270   -1.0979    0.0000 C   0  0  0  0  0  0  0  0  0  0  0  0
    0.1564    1.9730    0.0000 C   0  0  0  0  0  0  0  0  0  0  0  0
   -2.1146   -2.6353    0.0000 C   0  0  0  0  0  0  0  0  0  0  0  0
   -3.7396   -2.7354    0.0000 O   0  0  0  0  0  0  0  0  0  0  0  0
   -0.3436    2.8353    0.0000 C   0  0  0  0  0  0  0  0  0  0  0  0
   -2.3772   -3.5936    0.0000 O   0  0  0  0  0  0  0  0  0  0  0  0
   -0.3436   -0.6228    0.0000 O   0  0  0  0  0  0  0  0  0  0  0  0
   -3.3771   -3.6561    0.0000 C   0  0  0  0  0  0  0  0  0  0  0  0
   -1.1937   -1.1603    0.0000 C   0  0  0  0  0  0  0  0  0  0  0  0
   -1.2313   -2.1602    0.0000 C   0  0  0  0  0  0  0  0  0  0  0  0
    1.9647   -3.1937    0.0000 C   0  0  0  0  0  0  0  0  0  0  0  0
    3.7396   -2.2228    0.0000 C   0  0  0  0  0  0  0  0  0  0  0  0
    0.1564    3.7187    0.0000 C   0  0  0  0  0  0  0  0  0  0  0  0
    2.8395   -3.7187    0.0000 C   0  0  0  0  0  0  0  0  0  0  0  0
    3.7144   -3.2311    0.0000 C   0  0  0  0  0  0  0  0  0  0  0  0
  1  2  2  0  0  0  0
  3  5  1  0  0  0  0
  3  4  2  0  0  0  0
  5 11  1  0  0  0  0
  6  7  2  0  0  0  0
  6 13  1  0  0  0  0
  3  7  1  0  0  0  0
  1  8  1  0  0  0  0
  2  9  1  0  0  0  0
  1 10  1  0  0  0  0
 10 11  1  0  0  0  0
  8 12  1  0  0  0  0
  9 12  2  0  0  0  0
  4 13  1  0  0  0  0
 14 23  2  0  0  0  0
  4 14  1  0  0  0  0
  7 15  1  0  0  0  0
  2 16  1  0  0  0  0
 16 17  3  0  0  0  0
 18 19  1  0  0  0  0
 15 19  2  0  0  0  0
  5 20  2  0  0  0  0
 21 28  1  0  0  0  0
 18 21  2  0  0  0  0
 18 22  1  0  0  0  0
 20 23  1  0  0  0  0
 21 24  1  0  0  0  0
 24 26  1  0  0  0  0
 11 25  2  0  0  0  0
 22 26  1  0  0  0  0
 15 27  1  0  0  0  0
 27 28  2  0  0  0  0
  9 29  1  0  0  0  0
 12 30  1  0  0  0  0
 23 31  1  0  0  0  0
 29 32  1  0  0  0  0
 30 33  1  0  0  0  0
 32 33  1  0  0  0  0
M  END
> <IDNUMBER>
Y501-6644

> <available>
8

> <H_acceptor>
8

> <H_donor>
1

> <B_rotN>
5

> <N_O>
8

> <logP>
4.6694

> <logD>
3.164

> <logSw>
-4.7313

> <PSA>
87.739

> <pKa_ma>
5.9084

> <pKa_mb>
-1.9333

> <N_Chirals>
0

> <Name>
3-(2H-1,3-benzodioxol-5-yl)-N-(3-cyano-4,5,6,7-tetrahydro-1-benzothiophen-2-yl)-6-methyl[1,2]oxazolo[5,4-b]pyridine-4-carboxamide

> <Smile>
Cc1cc(C(Nc(sc2c3CCCC2)c3C#N)=O)c(c(-c(cc2)cc3c2OCO3)no2)c2n1

> <Color>
BROWN

> <Collection>
DC

> <InChI>
InChI=1S/C24H18N4O4S/c1-12-8-15(22(29)27-24-16(10-25)14-4-2-3-5-19(14)33-24)20-21(28-32-23(20)26-12)13-6-7-17-18(9-13)31-11-30-17/h6-9H,2-5,11H2,1H3,(H,27,29)

> <InChI Key>
RNLJRMSRWMDHRK-UHFFFAOYSA-N

> <PERCENTSP3>
25

> <Link>
https://www.chemdiv.com/catalog/screening-compounds/compound-Y501-6644/

> <MFCDNUMBER>
MFCD08557730

> <CLNUMBER>
CL7490

> <STEREO>
ACHIRAL

> <State>
Solid

> <Similarity score>
0.21

$$$$
3-(2H-1,3-benzodioxol-5-yl)-N-(3-cyano-5,6,7,8-tetrahydro-4H-cyclohepta[b]thioph
  -OEChem-04222410502D

 34 39  0     0  0  0  0  0  0999 V2000
    1.6314    0.5605    0.0000 C   0  0  0  0  0  0  0  0  0  0  0  0
    2.3688    1.2728    0.0000 C   0  0  0  0  0  0  0  0  0  0  0  0
   -0.3521   -1.7019    0.0000 C   0  0  0  0  0  0  0  0  0  0  0  0
   -0.0188   -2.6478    0.0000 C   0  0  0  0  0  0  0  0  0  0  0  0
    0.2979   -0.9478    0.0000 C   0  0  0  0  0  0  0  0  0  0  0  0
   -1.6314   -2.6896    0.0000 N   0  0  0  0  0  0  0  0  0  0  0  0
   -1.3480   -1.7269    0.0000 C   0  0  0  0  0  0  0  0  0  0  0  0
    2.0730   -0.3063    0.0000 S   0  0  0  0  0  0  0  0  0  0  0  0
    3.2437    0.7853    0.0000 C   0  0  0  0  0  0  0  0  0  0  0  0
    0.6187    0.7521    0.0000 N   0  0  0  0  0  0  0  0  0  0  0  0
   -0.0312   -0.0063    0.0000 C   0  0  0  0  0  0  0  0  0  0  0  0
    3.0521   -0.1896    0.0000 C   0  0  0  0  0  0  0  0  0  0  0  0
   -0.8148   -3.2563    0.0000 O   0  0  0  0  0  0  0  0  0  0  0  0
    0.9604   -2.8354    0.0000 N   0  0  0  0  0  0  0  0  0  0  0  0
   -2.1271   -1.1062    0.0000 C   0  0  0  0  0  0  0  0  0  0  0  0
    2.2603    2.2605    0.0000 C   0  0  0  0  0  0  0  0  0  0  0  0
    2.1564    3.2563    0.0000 N   0  0  0  0  0  0  0  0  0  0  0  0
   -3.8353   -0.8521    0.0000 C   0  0  0  0  0  0  0  0  0  0  0  0
   -3.0521   -1.4771    0.0000 C   0  0  0  0  0  0  0  0  0  0  0  0
    1.2852   -1.1313    0.0000 C   0  0  0  0  0  0  0  0  0  0  0  0
   -3.6937    0.1312    0.0000 C   0  0  0  0  0  0  0  0  0  0  0  0
   -4.8230   -1.0270    0.0000 O   0  0  0  0  0  0  0  0  0  0  0  0
    1.6147   -2.0770    0.0000 C   0  0  0  0  0  0  0  0  0  0  0  0
   -4.5978    0.5647    0.0000 O   0  0  0  0  0  0  0  0  0  0  0  0
   -1.0146    0.1772    0.0000 O   0  0  0  0  0  0  0  0  0  0  0  0
   -5.2896   -0.1479    0.0000 C   0  0  0  0  0  0  0  0  0  0  0  0
   -1.9729   -0.1228    0.0000 C   0  0  0  0  0  0  0  0  0  0  0  0
   -2.7604    0.5063    0.0000 C   0  0  0  0  0  0  0  0  0  0  0  0
    4.1395    1.2522    0.0000 C   0  0  0  0  0  0  0  0  0  0  0  0
    3.6895   -0.9521    0.0000 C   0  0  0  0  0  0  0  0  0  0  0  0
    2.6063   -2.2686    0.0000 C   0  0  0  0  0  0  0  0  0  0  0  0
    5.0437    0.8148    0.0000 C   0  0  0  0  0  0  0  0  0  0  0  0
    4.6894   -0.9439    0.0000 C   0  0  0  0  0  0  0  0  0  0  0  0
    5.2896   -0.1479    0.0000 C   0  0  0  0  0  0  0  0  0  0  0  0
  1  2  2  0  0  0  0
  3  5  1  0  0  0  0
  3  4  2  0  0  0  0
  4 14  1  0  0  0  0
  5 11  1  0  0  0  0
  6  7  2  0  0  0  0
  3  7  1  0  0  0  0
  1  8  1  0  0  0  0
  2  9  1  0  0  0  0
  9 12  2  0  0  0  0
  1 10  1  0  0  0  0
 10 11  1  0  0  0  0
  8 12  1  0  0  0  0
  4 13  1  0  0  0  0
  6 13  1  0  0  0  0
 14 23  2  0  0  0  0
  7 15  1  0  0  0  0
  2 16  1  0  0  0  0
 16 17  3  0  0  0  0
 18 19  1  0  0  0  0
 18 21  2  0  0  0  0
 15 19  2  0  0  0  0
  5 20  2  0  0  0  0
 21 28  1  0  0  0  0
 18 22  1  0  0  0  0
 20 23  1  0  0  0  0
 21 24  1  0  0  0  0
 11 25  2  0  0  0  0
 22 26  1  0  0  0  0
 24 26  1  0  0  0  0
 15 27  1  0  0  0  0
 27 28  2  0  0  0  0
  9 29  1  0  0  0  0
 12 30  1  0  0  0  0
 23 31  1  0  0  0  0
 29 32  1  0  0  0  0
 32 34  1  0  0  0  0
 30 33  1  0  0  0  0
 33 34  1  0  0  0  0
M  END
> <IDNUMBER>
Y501-6656

> <available>
20

> <H_acceptor>
8

> <H_donor>
1

> <B_rotN>
5

> <N_O>
8

> <logP>
5.1653

> <logD>
3.6599

> <logSw>
-5.0627

> <PSA>
88.07

> <pKa_ma>
5.9084

> <pKa_mb>
-1.9333

> <N_Chirals>
0

> <Name>
3-(2H-1,3-benzodioxol-5-yl)-N-(3-cyano-5,6,7,8-tetrahydro-4H-cyclohepta[b]thiophen-2-yl)-6-methyl[1,2]oxazolo[5,4-b]pyridine-4-carboxamide

> <Smile>
Cc1cc(C(Nc(sc2c3CCCCC2)c3C#N)=O)c(c(-c(cc2)cc3c2OCO3)no2)c2n1

> <Color>
BROWN

> <Collection>
DC

> <InChI>
InChI=1S/C25H20N4O4S/c1-13-9-16(23(30)28-25-17(11-26)15-5-3-2-4-6-20(15)34-25)21-22(29-33-24(21)27-13)14-7-8-18-19(10-14)32-12-31-18/h7-10H,2-6,12H2,1H3,(H,28,30)

> <InChI Key>
LWINYZMOSDMBEP-UHFFFAOYSA-N

> <PERCENTSP3>
28

> <Link>
https://www.chemdiv.com/catalog/screening-compounds/compound-Y501-6656/

> <MFCDNUMBER>
MFCD08557486

> <CLNUMBER>
CL7490

> <STEREO>
ACHIRAL

> <State>
Solid

> <Similarity score>
0.21

$$$$
N-(6-tert-butyl-3-cyano-4,5,6,7-tetrahydro-1-benzothiophen-2-yl)-4,5-dihydronaph
  -OEChem-04222410502D

 31 35  0     0  0  0  0  0  0999 V2000
   -0.4173   -0.9279    0.0000 C   0  0  0  0  0  0  0  0  0  0  0  0
    0.4151    2.1390    0.0000 C   0  0  0  0  0  0  0  0  0  0  0  0
   -1.2250   -1.4828    0.0000 C   0  0  0  0  0  0  0  0  0  0  0  0
    1.2005    2.7138    0.0000 C   0  0  0  0  0  0  0  0  0  0  0  0
    0.8979    3.6353    0.0000 C   0  0  0  0  0  0  0  0  0  0  0  0
   -0.3555    2.7138    0.0000 N   0  0  0  0  0  0  0  0  0  0  0  0
    0.0607   -2.4661    0.0000 C   0  0  0  0  0  0  0  0  0  0  0  0
   -0.9473   -2.4463    0.0000 C   0  0  0  0  0  0  0  0  0  0  0  0
    0.3853   -1.5298    0.0000 S   0  0  0  0  0  0  0  0  0  0  0  0
    0.4447    0.5858    0.0000 C   0  0  0  0  0  0  0  0  0  0  0  0
   -0.0706    3.6203    0.0000 O   0  0  0  0  0  0  0  0  0  0  0  0
   -0.4173    0.0880    0.0000 N   0  0  0  0  0  0  0  0  0  0  0  0
    1.5446    4.3563    0.0000 C   0  0  0  0  0  0  0  0  0  0  0  0
   -2.1662   -1.1507    0.0000 C   0  0  0  0  0  0  0  0  0  0  0  0
    2.1368    2.5155    0.0000 C   0  0  0  0  0  0  0  0  0  0  0  0
    0.5364   -3.3430    0.0000 C   0  0  0  0  0  0  0  0  0  0  0  0
   -3.1201   -0.8213    0.0000 N   0  0  0  0  0  0  0  0  0  0  0  0
   -1.4601   -3.2934    0.0000 C   0  0  0  0  0  0  0  0  0  0  0  0
    0.0062   -4.2002    0.0000 C   0  0  3  0  0  0  0  0  0  0  0  0
    0.4842   -5.0919    0.0000 C   0  0  0  0  0  0  0  0  0  0  0  0
    2.4786    4.1504    0.0000 C   0  0  0  0  0  0  0  0  0  0  0  0
    1.2720    0.0880    0.0000 O   0  0  0  0  0  0  0  0  0  0  0  0
   -0.9822   -4.1704    0.0000 C   0  0  0  0  0  0  0  0  0  0  0  0
    2.7806    3.2414    0.0000 C   0  0  0  0  0  0  0  0  0  0  0  0
    1.2422    5.2703    0.0000 C   0  0  0  0  0  0  0  0  0  0  0  0
   -0.4173   -5.5628    0.0000 C   0  0  0  0  0  0  0  0  0  0  0  0
    1.3761   -4.6287    0.0000 C   0  0  0  0  0  0  0  0  0  0  0  0
    0.9449   -5.9911    0.0000 C   0  0  0  0  0  0  0  0  0  0  0  0
    3.1201    4.8764    0.0000 C   0  0  0  0  0  0  0  0  0  0  0  0
    1.8790    5.9911    0.0000 C   0  0  0  0  0  0  0  0  0  0  0  0
    2.8155    5.7929    0.0000 C   0  0  0  0  0  0  0  0  0  0  0  0
  2 10  1  0  0  0  0
  1  3  2  0  0  0  0
  2  4  1  0  0  0  0
  4  5  2  0  0  0  0
  5 11  1  0  0  0  0
  2  6  2  0  0  0  0
  7  9  1  0  0  0  0
  7  8  2  0  0  0  0
  3  8  1  0  0  0  0
  1  9  1  0  0  0  0
 10 12  1  0  0  0  0
  6 11  1  0  0  0  0
  1 12  1  0  0  0  0
  5 13  1  0  0  0  0
 13 21  2  0  0  0  0
  3 14  1  0  0  0  0
  4 15  1  0  0  0  0
  7 16  1  0  0  0  0
 14 17  3  0  0  0  0
  8 18  1  0  0  0  0
 16 19  1  0  0  0  0
 19 20  1  0  0  0  0
 21 24  1  0  0  0  0
 10 22  2  0  0  0  0
 18 23  1  0  0  0  0
 19 23  1  0  0  0  0
 15 24  1  0  0  0  0
 13 25  1  0  0  0  0
 20 26  1  0  0  0  0
 20 27  1  0  0  0  0
 20 28  1  0  0  0  0
 21 29  1  0  0  0  0
 25 30  2  0  0  0  0
 29 31  2  0  0  0  0
 30 31  1  0  0  0  0
M  END
> <IDNUMBER>
C226-3975

> <available>
196

> <H_acceptor>
5

> <H_donor>
1

> <B_rotN>
5

> <N_O>
5

> <logP>
6.3912

> <logD>
4.6185

> <logSw>
-5.717

> <PSA>
62.182

> <pKa_ma>
5.6347

> <pKa_mb>
-6.2231

> <N_Chirals>
1

> <Name>
N-(6-tert-butyl-3-cyano-4,5,6,7-tetrahydro-1-benzothiophen-2-yl)-4,5-dihydronaphtho[2,1-d][1,2]oxazole-3-carboxamide

> <Smile>
CC(C)(C)C(CC1)Cc2c1c(C#N)c(NC(c1noc-3c1CCc1c3cccc1)=O)s2

> <Color>
NOT COLORED

> <Collection>
DC

> <InChI>
InChI=1S/C25H25N3O2S/c1-25(2,3)15-9-11-17-19(13-26)24(31-20(17)12-15)27-23(29)21-18-10-8-14-6-4-5-7-16(14)22(18)30-28-21/h4-7,15H,8-12H2,1-3H3,(H,27,29)/t15-/m1/s1

> <InChI Key>
JDWZNYXLRZPBNZ-OAHLLOKOSA-N

> <PERCENTSP3>
40

> <Link>
https://www.chemdiv.com/catalog/screening-compounds/compound-C226-3975/

> <MFCDNUMBER>
MFCD09783182

> <CLNUMBER>
CL6931

> <STEREO>
RACEMIC MIXTURE

> <State>
Solid

> <Similarity score>
0.21

$$$$
N-(6-tert-butyl-3-cyano-4,5,6,7-tetrahydro-1-benzothiophen-2-yl)-6-methyl-3-phen
  -OEChem-04222410502D

 34 38  0     0  0  0  0  0  0999 V2000
   -0.2772   -1.0770    0.0000 C   0  0  0  0  0  0  0  0  0  0  0  0
    0.0270   -2.0227    0.0000 C   0  0  0  0  0  0  0  0  0  0  0  0
   -2.7520    1.4020    0.0000 C   0  0  0  0  0  0  0  0  0  0  0  0
   -3.7185    1.6687    0.0000 C   0  0  0  0  0  0  0  0  0  0  0  0
    1.3227   -0.9687    0.0000 C   0  0  0  0  0  0  0  0  0  0  0  0
    1.1188   -1.9102    0.0000 C   0  0  0  0  0  0  0  0  0  0  0  0
    0.4688   -0.4394    0.0000 S   0  0  0  0  0  0  0  0  0  0  0  0
   -2.5021    0.4355    0.0000 C   0  0  0  0  0  0  0  0  0  0  0  0
   -2.8270    3.0229    0.0000 N   0  0  0  0  0  0  0  0  0  0  0  0
   -2.2021    2.2354    0.0000 C   0  0  0  0  0  0  0  0  0  0  0  0
   -1.2853   -0.7977    0.0000 N   0  0  0  0  0  0  0  0  0  0  0  0
   -1.5354    0.1687    0.0000 C   0  0  0  0  0  0  0  0  0  0  0  0
   -3.7645    2.6687    0.0000 O   0  0  0  0  0  0  0  0  0  0  0  0
   -4.4310    0.9646    0.0000 N   0  0  0  0  0  0  0  0  0  0  0  0
   -0.4355   -2.8562    0.0000 C   0  0  0  0  0  0  0  0  0  0  0  0
    2.3061   -0.6478    0.0000 C   0  0  0  0  0  0  0  0  0  0  0  0
   -0.9187   -3.7062    0.0000 N   0  0  0  0  0  0  0  0  0  0  0  0
    1.8603   -2.6019    0.0000 C   0  0  0  0  0  0  0  0  0  0  0  0
    3.0102   -1.3186    0.0000 C   0  0  3  0  0  0  0  0  0  0  0  0
   -3.2145   -0.2645    0.0000 C   0  0  0  0  0  0  0  0  0  0  0  0
   -4.1769   -0.0021    0.0000 C   0  0  0  0  0  0  0  0  0  0  0  0
    3.9560   -1.0103    0.0000 C   0  0  0  0  0  0  0  0  0  0  0  0
   -0.8271    0.8688    0.0000 O   0  0  0  0  0  0  0  0  0  0  0  0
   -1.2312    2.4895    0.0000 C   0  0  0  0  0  0  0  0  0  0  0  0
    2.8352   -2.2853    0.0000 C   0  0  0  0  0  0  0  0  0  0  0  0
    3.6437   -0.0646    0.0000 C   0  0  0  0  0  0  0  0  0  0  0  0
    4.2600   -1.9437    0.0000 C   0  0  0  0  0  0  0  0  0  0  0  0
    4.8894   -0.7064    0.0000 C   0  0  0  0  0  0  0  0  0  0  0  0
   -4.8894   -0.7064    0.0000 C   0  0  0  0  0  0  0  0  0  0  0  0
   -0.5313    1.7771    0.0000 C   0  0  0  0  0  0  0  0  0  0  0  0
   -0.9728    3.4560    0.0000 C   0  0  0  0  0  0  0  0  0  0  0  0
    0.4355    2.0311    0.0000 C   0  0  0  0  0  0  0  0  0  0  0  0
   -0.0105    3.7062    0.0000 C   0  0  0  0  0  0  0  0  0  0  0  0
    0.6937    2.9978    0.0000 C   0  0  0  0  0  0  0  0  0  0  0  0
  1  2  2  0  0  0  0
  3  8  1  0  0  0  0
  3  4  2  0  0  0  0
  5  7  1  0  0  0  0
  5  6  2  0  0  0  0
  2  6  1  0  0  0  0
  1  7  1  0  0  0  0
  8 12  1  0  0  0  0
  9 10  2  0  0  0  0
  9 13  1  0  0  0  0
  3 10  1  0  0  0  0
  1 11  1  0  0  0  0
 11 12  1  0  0  0  0
  4 13  1  0  0  0  0
 14 21  2  0  0  0  0
  4 14  1  0  0  0  0
  2 15  1  0  0  0  0
  5 16  1  0  0  0  0
 15 17  3  0  0  0  0
  6 18  1  0  0  0  0
 16 19  1  0  0  0  0
 19 25  1  0  0  0  0
  8 20  2  0  0  0  0
 20 21  1  0  0  0  0
 19 22  1  0  0  0  0
 12 23  2  0  0  0  0
 10 24  1  0  0  0  0
 18 25  1  0  0  0  0
 22 26  1  0  0  0  0
 22 27  1  0  0  0  0
 22 28  1  0  0  0  0
 21 29  1  0  0  0  0
 24 30  2  0  0  0  0
 24 31  1  0  0  0  0
 30 32  1  0  0  0  0
 31 33  2  0  0  0  0
 33 34  1  0  0  0  0
 32 34  2  0  0  0  0
M  END
> <IDNUMBER>
Y501-3243

> <available>
22

> <H_acceptor>
6

> <H_donor>
1

> <B_rotN>
6

> <N_O>
6

> <logP>
6.1127

> <logD>
4.6073

> <logSw>
-5.8344

> <PSA>
70.624

> <pKa_ma>
5.9084

> <pKa_mb>
-1.9333

> <N_Chirals>
1

> <Name>
N-(6-tert-butyl-3-cyano-4,5,6,7-tetrahydro-1-benzothiophen-2-yl)-6-methyl-3-phenyl[1,2]oxazolo[5,4-b]pyridine-4-carboxamide

> <Smile>
CC(C)(C)C(CC1)Cc2c1c(C#N)c(NC(c1c(c(-c3ccccc3)no3)c3nc(C)c1)=O)s2

> <Color>
BROWN

> <Collection>
DC

> <InChI>
InChI=1S/C27H26N4O2S/c1-15-12-19(22-23(31-33-25(22)29-15)16-8-6-5-7-9-16)24(32)30-26-20(14-28)18-11-10-17(27(2,3)4)13-21(18)34-26/h5-9,12,17H,10-11,13H2,1-4H3,(H,30,32)/t17-/m1/s1

> <InChI Key>
UNLHKJVPYHSOBN-QGZVFWFLSA-N

> <PERCENTSP3>
33.33

> <Link>
https://www.chemdiv.com/catalog/screening-compounds/compound-Y501-3243/

> <MFCDNUMBER>
MFCD08558513

> <CLNUMBER>
CL7490

> <STEREO>
RACEMIC MIXTURE

> <State>
Solid

> <Similarity score>
0.21

$$$$
N-(3-cyano-5,6,7,8-tetrahydro-4H-cyclohepta[b]thiophen-2-yl)-5-(4-methoxyphenyl)
  -OEChem-04222410502D

 36 40  0     0  0  0  0  0  0999 V2000
    0.5365   -0.2635    0.0000 N   0  0  0  0  0  0  0  0  0  0  0  0
    0.9916    0.5443    0.0000 C   0  0  0  0  0  0  0  0  0  0  0  0
    0.9633   -1.0809    0.0000 C   0  0  0  0  0  0  0  0  0  0  0  0
   -3.2843   -0.2845    0.0000 C   0  0  0  0  0  0  0  0  0  0  0  0
   -0.4648   -0.2635    0.0000 N   0  0  0  0  0  0  0  0  0  0  0  0
   -3.7318    0.4760    0.0000 C   0  0  0  0  0  0  0  0  0  0  0  0
   -0.9084   -1.0655    0.0000 C   0  0  0  0  0  0  0  0  0  0  0  0
   -0.3699   -1.8546    0.0000 C   0  0  0  0  0  0  0  0  0  0  0  0
    1.9797   -1.0809    0.0000 N   0  0  0  0  0  0  0  0  0  0  0  0
    2.0044    0.5443    0.0000 C   0  0  0  0  0  0  0  0  0  0  0  0
   -3.7545   -1.1055    0.0000 S   0  0  0  0  0  0  0  0  0  0  0  0
   -5.0972   -0.3072    0.0000 C   0  0  0  0  0  0  0  0  0  0  0  0
    0.5480    1.3863    0.0000 C   0  0  0  0  0  0  0  0  0  0  0  0
    2.4594   -0.2389    0.0000 C   0  0  0  0  0  0  0  0  0  0  0  0
   -2.3647   -0.2845    0.0000 N   0  0  0  0  0  0  0  0  0  0  0  0
   -4.6668   -1.1055    0.0000 C   0  0  0  0  0  0  0  0  0  0  0  0
   -1.8926   -1.0655    0.0000 C   0  0  0  0  0  0  0  0  0  0  0  0
   -3.2102    1.3351    0.0000 C   0  0  0  0  0  0  0  0  0  0  0  0
   -2.7078    2.1864    0.0000 N   0  0  0  0  0  0  0  0  0  0  0  0
    3.4834   -0.2389    0.0000 C   0  0  0  0  0  0  0  0  0  0  0  0
   -2.4365   -1.9456    0.0000 O   0  0  0  0  0  0  0  0  0  0  0  0
    0.1042    2.2186    0.0000 F   0  0  0  0  0  0  0  0  0  0  0  0
    1.3956    1.8870    0.0000 F   0  0  0  0  0  0  0  0  0  0  0  0
   -0.2825    0.9045    0.0000 F   0  0  0  0  0  0  0  0  0  0  0  0
    4.0409    0.6012    0.0000 C   0  0  0  0  0  0  0  0  0  0  0  0
    3.9821   -1.0655    0.0000 C   0  0  0  0  0  0  0  0  0  0  0  0
    5.4839   -0.2237    0.0000 C   0  0  0  0  0  0  0  0  0  0  0  0
   -6.1058   -0.0415    0.0000 C   0  0  0  0  0  0  0  0  0  0  0  0
    4.9625   -1.0655    0.0000 C   0  0  0  0  0  0  0  0  0  0  0  0
    5.0079    0.6012    0.0000 C   0  0  0  0  0  0  0  0  0  0  0  0
   -5.0535   -2.0214    0.0000 C   0  0  0  0  0  0  0  0  0  0  0  0
    6.5308   -0.2237    0.0000 O   0  0  0  0  0  0  0  0  0  0  0  0
    6.9176    0.5575    0.0000 C   0  0  0  0  0  0  0  0  0  0  0  0
   -6.9176   -0.6503    0.0000 C   0  0  0  0  0  0  0  0  0  0  0  0
   -6.1458   -2.2186    0.0000 C   0  0  0  0  0  0  0  0  0  0  0  0
   -6.9176   -1.6498    0.0000 C   0  0  0  0  0  0  0  0  0  0  0  0
  1  2  1  0  0  0  0
  1  3  1  0  0  0  0
  4 15  1  0  0  0  0
  1  5  1  0  0  0  0
  4  6  2  0  0  0  0
  5  7  2  0  0  0  0
  3  8  2  0  0  0  0
  7  8  1  0  0  0  0
  3  9  1  0  0  0  0
  2 10  2  0  0  0  0
  4 11  1  0  0  0  0
  6 12  1  0  0  0  0
 12 16  2  0  0  0  0
  2 13  1  0  0  0  0
  9 14  2  0  0  0  0
 10 14  1  0  0  0  0
 15 17  1  0  0  0  0
 11 16  1  0  0  0  0
  7 17  1  0  0  0  0
  6 18  1  0  0  0  0
 18 19  3  0  0  0  0
 14 20  1  0  0  0  0
 17 21  2  0  0  0  0
 13 22  1  0  0  0  0
 13 23  1  0  0  0  0
 13 24  1  0  0  0  0
 20 25  2  0  0  0  0
 20 26  1  0  0  0  0
 27 29  1  0  0  0  0
 27 30  2  0  0  0  0
 12 28  1  0  0  0  0
 26 29  2  0  0  0  0
 25 30  1  0  0  0  0
 16 31  1  0  0  0  0
 27 32  1  0  0  0  0
 32 33  1  0  0  0  0
 28 34  1  0  0  0  0
 34 36  1  0  0  0  0
 31 35  1  0  0  0  0
 35 36  1  0  0  0  0
M  END
> <IDNUMBER>
K061-0672

> <available>
30

> <H_acceptor>
6

> <H_donor>
1

> <B_rotN>
7

> <N_O>
7

> <logP>
6.1437

> <logD>
4.5177

> <logSw>
-5.4014

> <PSA>
66.135

> <pKa_ma>
5.7844

> <pKa_mb>
1.3116

> <N_Chirals>
0

> <Name>
N-(3-cyano-5,6,7,8-tetrahydro-4H-cyclohepta[b]thiophen-2-yl)-5-(4-methoxyphenyl)-7-(trifluoromethyl)pyrazolo[1,5-a]pyrimidine-2-carboxamide

> <Smile>
COc(cc1)ccc1-c1nc2cc(C(Nc(sc3c4CCCCC3)c4C#N)=O)nn2c(C(F)(F)F)c1

> <Color>
YELLOW

> <Collection>
DC

> <InChI>
InChI=1S/C25H20F3N5O2S/c1-35-15-9-7-14(8-10-15)18-11-21(25(26,27)28)33-22(30-18)12-19(32-33)23(34)31-24-17(13-29)16-5-3-2-4-6-20(16)36-24/h7-12H,2-6H2,1H3,(H,31,34)

> <InChI Key>
UQKRFLNWZQVQAC-UHFFFAOYSA-N

> <PERCENTSP3>
28

> <Link>
https://www.chemdiv.com/catalog/screening-compounds/compound-K061-0672/

> <MFCDNUMBER>
MFCD01450817

> <CLNUMBER>
CL1652

> <STEREO>
ACHIRAL

> <State>
Solid

> <Similarity score>
0.20

$$$$
3-(2H-1,3-benzodioxol-5-yl)-N-(3-cyano-6-methyl-4,5,6,7-tetrahydro-1-benzothioph
  -OEChem-04222410502D

 34 39  0     0  0  0  0  0  0999 V2000
    1.2437   -0.6103    0.0000 C   0  0  0  0  0  0  0  0  0  0  0  0
    0.8437   -1.5476    0.0000 C   0  0  0  0  0  0  0  0  0  0  0  0
   -1.7560    1.1103    0.0000 C   0  0  0  0  0  0  0  0  0  0  0  0
   -2.2519    1.9852    0.0000 C   0  0  0  0  0  0  0  0  0  0  0  0
    1.5936   -2.1976    0.0000 C   0  0  0  0  0  0  0  0  0  0  0  0
    2.4517   -1.7102    0.0000 C   0  0  0  0  0  0  0  0  0  0  0  0
    2.2394   -0.7103    0.0000 S   0  0  0  0  0  0  0  0  0  0  0  0
   -0.7561    1.1103    0.0000 C   0  0  0  0  0  0  0  0  0  0  0  0
   -3.3267    0.7853    0.0000 N   0  0  0  0  0  0  0  0  0  0  0  0
   -2.4143    0.3729    0.0000 C   0  0  0  0  0  0  0  0  0  0  0  0
    0.7437    0.2479    0.0000 N   0  0  0  0  0  0  0  0  0  0  0  0
   -0.2562    0.2479    0.0000 C   0  0  0  0  0  0  0  0  0  0  0  0
   -3.2268    1.7727    0.0000 O   0  0  0  0  0  0  0  0  0  0  0  0
   -1.7560    2.8476    0.0000 N   0  0  0  0  0  0  0  0  0  0  0  0
   -2.4518   -0.6227    0.0000 C   0  0  0  0  0  0  0  0  0  0  0  0
   -0.1188   -1.7727    0.0000 C   0  0  0  0  0  0  0  0  0  0  0  0
   -1.0811   -2.0102    0.0000 N   0  0  0  0  0  0  0  0  0  0  0  0
   -3.3767   -2.0851    0.0000 C   0  0  0  0  0  0  0  0  0  0  0  0
    1.5811   -3.1851    0.0000 C   0  0  0  0  0  0  0  0  0  0  0  0
   -3.3392   -1.0853    0.0000 C   0  0  0  0  0  0  0  0  0  0  0  0
   -0.2562    1.9852    0.0000 C   0  0  0  0  0  0  0  0  0  0  0  0
    3.3392   -2.1976    0.0000 C   0  0  0  0  0  0  0  0  0  0  0  0
   -2.5269   -2.6225    0.0000 C   0  0  0  0  0  0  0  0  0  0  0  0
   -4.1516   -2.7225    0.0000 O   0  0  0  0  0  0  0  0  0  0  0  0
   -0.7561    2.8476    0.0000 C   0  0  0  0  0  0  0  0  0  0  0  0
   -2.7894   -3.5849    0.0000 O   0  0  0  0  0  0  0  0  0  0  0  0
   -0.7561   -0.6103    0.0000 O   0  0  0  0  0  0  0  0  0  0  0  0
   -3.7893   -3.6474    0.0000 C   0  0  0  0  0  0  0  0  0  0  0  0
   -1.6062   -1.1477    0.0000 C   0  0  0  0  0  0  0  0  0  0  0  0
   -1.6436   -2.1475    0.0000 C   0  0  0  0  0  0  0  0  0  0  0  0
    2.4393   -3.7099    0.0000 C   0  0  0  0  0  0  0  0  0  0  0  0
    3.3142   -3.2100    0.0000 C   0  0  3  0  0  0  0  0  0  0  0  0
   -0.2562    3.7350    0.0000 C   0  0  0  0  0  0  0  0  0  0  0  0
    4.1516   -3.7350    0.0000 C   0  0  0  0  0  0  0  0  0  0  0  0
  1  2  2  0  0  0  0
  3  8  1  0  0  0  0
  3  4  2  0  0  0  0
  2  5  1  0  0  0  0
  6  7  1  0  0  0  0
  5  6  2  0  0  0  0
  1  7  1  0  0  0  0
  8 12  1  0  0  0  0
  9 10  2  0  0  0  0
  9 13  1  0  0  0  0
  3 10  1  0  0  0  0
  1 11  1  0  0  0  0
 11 12  1  0  0  0  0
  4 13  1  0  0  0  0
 14 25  2  0  0  0  0
  4 14  1  0  0  0  0
 10 15  1  0  0  0  0
  2 16  1  0  0  0  0
 16 17  3  0  0  0  0
 18 20  1  0  0  0  0
  5 19  1  0  0  0  0
 15 20  2  0  0  0  0
  8 21  2  0  0  0  0
  6 22  1  0  0  0  0
 23 30  1  0  0  0  0
 18 23  2  0  0  0  0
 18 24  1  0  0  0  0
 21 25  1  0  0  0  0
 23 26  1  0  0  0  0
 26 28  1  0  0  0  0
 12 27  2  0  0  0  0
 24 28  1  0  0  0  0
 15 29  1  0  0  0  0
 29 30  2  0  0  0  0
 19 31  1  0  0  0  0
 22 32  1  0  0  0  0
 31 32  1  0  0  0  0
 25 33  1  0  0  0  0
 32 34  1  0  0  0  0
M  END
> <IDNUMBER>
Y501-6662

> <available>
18

> <H_acceptor>
8

> <H_donor>
1

> <B_rotN>
5

> <N_O>
8

> <logP>
5.1033

> <logD>
3.5979

> <logSw>
-5.1086

> <PSA>
87.739

> <pKa_ma>
5.9084

> <pKa_mb>
-1.9333

> <N_Chirals>
1

> <Name>
3-(2H-1,3-benzodioxol-5-yl)-N-(3-cyano-6-methyl-4,5,6,7-tetrahydro-1-benzothiophen-2-yl)-6-methyl[1,2]oxazolo[5,4-b]pyridine-4-carboxamide

> <Smile>
CC(CC1)Cc2c1c(C#N)c(NC(c1c(c(-c(cc3)cc4c3OCO4)no3)c3nc(C)c1)=O)s2

> <Color>
BROWN

> <Collection>
DC

> <InChI>
InChI=1S/C25H20N4O4S/c1-12-3-5-15-17(10-26)25(34-20(15)7-12)28-23(30)16-8-13(2)27-24-21(16)22(29-33-24)14-4-6-18-19(9-14)32-11-31-18/h4,6,8-9,12H,3,5,7,11H2,1-2H3,(H,28,30)/t12-/m1/s1

> <InChI Key>
BWJFNRGMLBOHQH-GFCCVEGCSA-N

> <PERCENTSP3>
28

> <Link>
https://www.chemdiv.com/catalog/screening-compounds/compound-Y501-6662/

> <MFCDNUMBER>
MFCD08557385

> <CLNUMBER>
CL7490

> <STEREO>
RACEMIC MIXTURE

> <State>
Solid

> <Similarity score>
0.20

$$$$
N-(3-cyano-5,6-dihydro-4H-cyclopenta[b]thiophen-2-yl)-3-phenyl-6-(thiophen-2-yl)
  -OEChem-04222410502D

 33 38  0     0  0  0  0  0  0999 V2000
    1.4084   -1.0333    0.0000 C   0  0  0  0  0  0  0  0  0  0  0  0
    1.7542   -1.9415    0.0000 C   0  0  0  0  0  0  0  0  0  0  0  0
   -1.1085    1.3211    0.0000 C   0  0  0  0  0  0  0  0  0  0  0  0
   -2.0833    1.5459    0.0000 C   0  0  0  0  0  0  0  0  0  0  0  0
   -0.8293    0.3667    0.0000 C   0  0  0  0  0  0  0  0  0  0  0  0
   -1.2541    2.9210    0.0000 N   0  0  0  0  0  0  0  0  0  0  0  0
    2.2334   -0.4083    0.0000 S   0  0  0  0  0  0  0  0  0  0  0  0
    2.7458   -1.9334    0.0000 C   0  0  0  0  0  0  0  0  0  0  0  0
   -0.6042    2.1709    0.0000 C   0  0  0  0  0  0  0  0  0  0  0  0
    0.4333   -0.8082    0.0000 N   0  0  0  0  0  0  0  0  0  0  0  0
    0.1457    0.1459    0.0000 C   0  0  0  0  0  0  0  0  0  0  0  0
    3.0585   -0.9916    0.0000 C   0  0  0  0  0  0  0  0  0  0  0  0
   -2.7667    0.8167    0.0000 N   0  0  0  0  0  0  0  0  0  0  0  0
   -2.1709    2.5335    0.0000 O   0  0  0  0  0  0  0  0  0  0  0  0
   -2.4666   -0.1333    0.0000 C   0  0  0  0  0  0  0  0  0  0  0  0
   -1.4959   -0.3583    0.0000 C   0  0  0  0  0  0  0  0  0  0  0  0
    1.1959   -2.7915    0.0000 C   0  0  0  0  0  0  0  0  0  0  0  0
   -3.1459   -0.8583    0.0000 C   0  0  0  0  0  0  0  0  0  0  0  0
    0.6416   -3.6042    0.0000 N   0  0  0  0  0  0  0  0  0  0  0  0
   -2.7542   -1.7708    0.0000 S   0  0  0  0  0  0  0  0  0  0  0  0
    0.8293    0.8792    0.0000 O   0  0  0  0  0  0  0  0  0  0  0  0
    0.3959    2.3167    0.0000 C   0  0  0  0  0  0  0  0  0  0  0  0
   -4.1417   -0.9457    0.0000 C   0  0  0  0  0  0  0  0  0  0  0  0
   -3.5084   -2.4333    0.0000 C   0  0  0  0  0  0  0  0  0  0  0  0
   -4.3667   -1.9166    0.0000 C   0  0  0  0  0  0  0  0  0  0  0  0
    3.5793   -2.5167    0.0000 C   0  0  0  0  0  0  0  0  0  0  0  0
    4.0710   -0.9791    0.0000 C   0  0  0  0  0  0  0  0  0  0  0  0
    4.3667   -1.9166    0.0000 C   0  0  0  0  0  0  0  0  0  0  0  0
    0.6209    3.3085    0.0000 C   0  0  0  0  0  0  0  0  0  0  0  0
    1.1418    1.6336    0.0000 C   0  0  0  0  0  0  0  0  0  0  0  0
    1.5917    3.6042    0.0000 C   0  0  0  0  0  0  0  0  0  0  0  0
    2.0959    1.9293    0.0000 C   0  0  0  0  0  0  0  0  0  0  0  0
    2.3209    2.9167    0.0000 C   0  0  0  0  0  0  0  0  0  0  0  0
  1  2  2  0  0  0  0
  3  5  1  0  0  0  0
  3  4  2  0  0  0  0
  4 13  1  0  0  0  0
  5 11  1  0  0  0  0
  6  9  2  0  0  0  0
  6 14  1  0  0  0  0
  1  7  1  0  0  0  0
  2  8  1  0  0  0  0
  8 12  2  0  0  0  0
  3  9  1  0  0  0  0
  1 10  1  0  0  0  0
 10 11  1  0  0  0  0
  7 12  1  0  0  0  0
 13 15  2  0  0  0  0
  4 14  1  0  0  0  0
 15 16  1  0  0  0  0
  5 16  2  0  0  0  0
  2 17  1  0  0  0  0
 15 18  1  0  0  0  0
 17 19  3  0  0  0  0
 18 20  1  0  0  0  0
 11 21  2  0  0  0  0
  9 22  1  0  0  0  0
 18 23  2  0  0  0  0
 20 24  1  0  0  0  0
 24 25  2  0  0  0  0
 23 25  1  0  0  0  0
  8 26  1  0  0  0  0
 26 28  1  0  0  0  0
 12 27  1  0  0  0  0
 27 28  1  0  0  0  0
 22 29  2  0  0  0  0
 22 30  1  0  0  0  0
 29 31  1  0  0  0  0
 30 32  2  0  0  0  0
 32 33  1  0  0  0  0
 31 33  2  0  0  0  0
M  END
> <IDNUMBER>
F018-3060

> <available>
1

> <H_acceptor>
6

> <H_donor>
1

> <B_rotN>
6

> <N_O>
6

> <logP>
5.8098

> <logD>
5.1874

> <logSw>
-6.1333

> <PSA>
71.93

> <pKa_ma>
6.896

> <pKa_mb>
-3.6716

> <N_Chirals>
0

> <Name>
N-(3-cyano-5,6-dihydro-4H-cyclopenta[b]thiophen-2-yl)-3-phenyl-6-(thiophen-2-yl)[1,2]oxazolo[5,4-b]pyridine-4-carboxamide

> <Smile>
N#Cc1c(NC(c2c(c(-c3ccccc3)no3)c3nc(-c3cccs3)c2)=O)sc2c1CCC2

> <Color>
BLACK

> <Collection>
DC

> <InChI>
InChI=1S/C25H16N4O2S2/c26-13-17-15-8-4-9-19(15)33-25(17)28-23(30)16-12-18(20-10-5-11-32-20)27-24-21(16)22(29-31-24)14-6-2-1-3-7-14/h1-3,5-7,10-12H,4,8-9H2,(H,28,30)

> <InChI Key>
GQMPWATWISUSFY-UHFFFAOYSA-N

> <PERCENTSP3>
12

> <Link>
https://www.chemdiv.com/catalog/screening-compounds/compound-F018-3060/

> <MFCDNUMBER>
MFCD08557424

> <CLNUMBER>
CL7490

> <STEREO>
ACHIRAL

> <State>
Solid

> <Similarity score>
0.20

$$$$
1-[4-(5-ethyl-1,2,4-oxadiazol-3-yl)phenyl]-N-(3-methoxyphenyl)-1H-pyrazole-3-car
  -OEChem-04222410502D

 29 32  0     0  0  0  0  0  0999 V2000
    0.4918   -0.3313    0.0000 N   0  0  0  0  0  0  0  0  0  0  0  0
    1.4376   -0.6563    0.0000 C   0  0  0  0  0  0  0  0  0  0  0  0
   -4.7337   -1.7896    0.0000 N   0  0  0  0  0  0  0  0  0  0  0  0
   -0.1207   -1.1106    0.0000 N   0  0  0  0  0  0  0  0  0  0  0  0
   -4.1255   -0.9937    0.0000 C   0  0  0  0  0  0  0  0  0  0  0  0
   -4.6797   -0.1771    0.0000 N   0  0  0  0  0  0  0  0  0  0  0  0
    2.2585   -0.1023    0.0000 C   0  0  0  0  0  0  0  0  0  0  0  0
    1.4001   -1.6563    0.0000 C   0  0  0  0  0  0  0  0  0  0  0  0
    0.4376   -1.9438    0.0000 C   0  0  0  0  0  0  0  0  0  0  0  0
   -5.6672   -1.4522    0.0000 C   0  0  0  0  0  0  0  0  0  0  0  0
   -5.6422   -0.4482    0.0000 O   0  0  0  0  0  0  0  0  0  0  0  0
    2.1920    0.8896    0.0000 N   0  0  0  0  0  0  0  0  0  0  0  0
   -1.1209   -1.0854    0.0000 C   0  0  0  0  0  0  0  0  0  0  0  0
   -3.1212   -1.0229    0.0000 C   0  0  0  0  0  0  0  0  0  0  0  0
    3.0252    1.4520    0.0000 C   0  0  0  0  0  0  0  0  0  0  0  0
    3.1670   -0.5437    0.0000 O   0  0  0  0  0  0  0  0  0  0  0  0
    3.9212    1.0189    0.0000 C   0  0  0  0  0  0  0  0  0  0  0  0
   -1.6543   -1.9315    0.0000 C   0  0  0  0  0  0  0  0  0  0  0  0
   -1.5876   -0.2023    0.0000 C   0  0  0  0  0  0  0  0  0  0  0  0
   -2.6545   -1.9065    0.0000 C   0  0  0  0  0  0  0  0  0  0  0  0
   -2.5878   -0.1771    0.0000 C   0  0  0  0  0  0  0  0  0  0  0  0
    4.7463    1.5646    0.0000 C   0  0  0  0  0  0  0  0  0  0  0  0
    5.6589    1.1353    0.0000 O   0  0  0  0  0  0  0  0  0  0  0  0
   -6.4923   -2.0063    0.0000 C   0  0  0  0  0  0  0  0  0  0  0  0
    3.7753    3.0025    0.0000 C   0  0  0  0  0  0  0  0  0  0  0  0
    2.9420    2.4480    0.0000 C   0  0  0  0  0  0  0  0  0  0  0  0
    4.6879    2.5772    0.0000 C   0  0  0  0  0  0  0  0  0  0  0  0
    6.4923    1.6939    0.0000 C   0  0  0  0  0  0  0  0  0  0  0  0
   -6.4172   -3.0025    0.0000 C   0  0  0  0  0  0  0  0  0  0  0  0
  1  2  2  0  0  0  0
  3  5  1  0  0  0  0
  1  4  1  0  0  0  0
  5 14  1  0  0  0  0
  5  6  2  0  0  0  0
  2  7  1  0  0  0  0
  2  8  1  0  0  0  0
  4  9  1  0  0  0  0
  8  9  2  0  0  0  0
  3 10  2  0  0  0  0
  6 11  1  0  0  0  0
 10 11  1  0  0  0  0
  7 12  1  0  0  0  0
  4 13  1  0  0  0  0
 14 21  2  0  0  0  0
 12 15  1  0  0  0  0
  7 16  2  0  0  0  0
 15 17  1  0  0  0  0
 13 18  1  0  0  0  0
 13 19  2  0  0  0  0
 18 20  2  0  0  0  0
 14 20  1  0  0  0  0
 19 21  1  0  0  0  0
 17 22  2  0  0  0  0
 22 23  1  0  0  0  0
 10 24  1  0  0  0  0
 25 26  1  0  0  0  0
 15 26  2  0  0  0  0
 25 27  2  0  0  0  0
 22 27  1  0  0  0  0
 23 28  1  0  0  0  0
 24 29  1  0  0  0  0
M  END
> <IDNUMBER>
P152-0693

> <available>
9

> <H_acceptor>
7

> <H_donor>
1

> <B_rotN>
7

> <N_O>
8

> <logP>
4.2806

> <logD>
4.2805

> <logSw>
-4.3978

> <PSA>
76.457

> <pKa_ma>
11.4346

> <pKa_mb>
-3.1488

> <N_Chirals>
0

> <Name>
1-[4-(5-ethyl-1,2,4-oxadiazol-3-yl)phenyl]-N-(3-methoxyphenyl)-1H-pyrazole-3-carboxamide

> <Smile>
CCc1nc(-c(cc2)ccc2-n(cc2)nc2C(Nc2cc(OC)ccc2)=O)no1

> <Color>
NOT COLORED

> <Collection>
NC

> <InChI>
InChI=1S/C21H19N5O3/c1-3-19-23-20(25-29-19)14-7-9-16(10-8-14)26-12-11-18(24-26)21(27)22-15-5-4-6-17(13-15)28-2/h4-13H,3H2,1-2H3,(H,22,27)

> <InChI Key>
APKMOOYGFLZZTG-UHFFFAOYSA-N

> <PERCENTSP3>
14.3

> <Link>
https://www.chemdiv.com/catalog/screening-compounds/compound-P152-0693/

> <MFCDNUMBER>
MFCD27566694

> <CLNUMBER>
CM0204

> <STEREO>
ACHIRAL

> <State>
Solid

> <Similarity score>
0.20

$$$$
N-(3-cyano-5,6,7,8-tetrahydro-4H-cyclohepta[b]thiophen-2-yl)-6-(furan-2-yl)-3-ph
  -OEChem-04222410502D

 35 40  0     0  0  0  0  0  0999 V2000
    1.1021    1.0562    0.0000 C   0  0  0  0  0  0  0  0  0  0  0  0
    1.4853    2.0061    0.0000 C   0  0  0  0  0  0  0  0  0  0  0  0
   -1.4353   -1.3314    0.0000 C   0  0  0  0  0  0  0  0  0  0  0  0
   -2.4103   -1.5645    0.0000 C   0  0  0  0  0  0  0  0  0  0  0  0
   -1.1562   -0.3687    0.0000 C   0  0  0  0  0  0  0  0  0  0  0  0
   -1.5729   -2.9395    0.0000 N   0  0  0  0  0  0  0  0  0  0  0  0
    1.8604    0.4437    0.0000 S   0  0  0  0  0  0  0  0  0  0  0  0
    2.4812    1.9186    0.0000 C   0  0  0  0  0  0  0  0  0  0  0  0
   -0.9187   -2.1813    0.0000 C   0  0  0  0  0  0  0  0  0  0  0  0
    0.1022    0.8186    0.0000 N   0  0  0  0  0  0  0  0  0  0  0  0
   -0.1813   -0.1397    0.0000 C   0  0  0  0  0  0  0  0  0  0  0  0
   -3.1020   -0.8355    0.0000 N   0  0  0  0  0  0  0  0  0  0  0  0
    2.7062    0.9478    0.0000 C   0  0  0  0  0  0  0  0  0  0  0  0
   -2.4937   -2.5563    0.0000 O   0  0  0  0  0  0  0  0  0  0  0  0
   -2.8103    0.1229    0.0000 C   0  0  0  0  0  0  0  0  0  0  0  0
   -1.8397    0.3562    0.0000 C   0  0  0  0  0  0  0  0  0  0  0  0
    0.9813    2.8645    0.0000 C   0  0  0  0  0  0  0  0  0  0  0  0
   -3.5021    0.8436    0.0000 C   0  0  0  0  0  0  0  0  0  0  0  0
    0.4812    3.7271    0.0000 N   0  0  0  0  0  0  0  0  0  0  0  0
   -3.1145    1.7687    0.0000 O   0  0  0  0  0  0  0  0  0  0  0  0
    0.5062   -0.8687    0.0000 O   0  0  0  0  0  0  0  0  0  0  0  0
    0.0396   -2.4729    0.0000 C   0  0  0  0  0  0  0  0  0  0  0  0
   -4.5019    0.9311    0.0000 C   0  0  0  0  0  0  0  0  0  0  0  0
   -3.8771    2.4271    0.0000 C   0  0  0  0  0  0  0  0  0  0  0  0
   -4.7311    1.9021    0.0000 C   0  0  0  0  0  0  0  0  0  0  0  0
    3.1144    2.7103    0.0000 C   0  0  0  0  0  0  0  0  0  0  0  0
    3.5979    0.5104    0.0000 C   0  0  0  0  0  0  0  0  0  0  0  0
    0.7604   -1.7813    0.0000 C   0  0  0  0  0  0  0  0  0  0  0  0
    0.2729   -3.4397    0.0000 C   0  0  0  0  0  0  0  0  0  0  0  0
    4.1144    2.6811    0.0000 C   0  0  0  0  0  0  0  0  0  0  0  0
    4.5061    0.9270    0.0000 C   0  0  0  0  0  0  0  0  0  0  0  0
    1.7187   -2.0730    0.0000 C   0  0  0  0  0  0  0  0  0  0  0  0
    1.2271   -3.7271    0.0000 C   0  0  0  0  0  0  0  0  0  0  0  0
    1.9520   -3.0439    0.0000 C   0  0  0  0  0  0  0  0  0  0  0  0
    4.7311    1.9021    0.0000 C   0  0  0  0  0  0  0  0  0  0  0  0
  1  2  2  0  0  0  0
  3  5  1  0  0  0  0
  3  4  2  0  0  0  0
  4 12  1  0  0  0  0
  5 11  1  0  0  0  0
  6  9  2  0  0  0  0
  6 14  1  0  0  0  0
  1  7  1  0  0  0  0
  2  8  1  0  0  0  0
  8 13  2  0  0  0  0
  3  9  1  0  0  0  0
  1 10  1  0  0  0  0
 10 11  1  0  0  0  0
 12 15  2  0  0  0  0
  7 13  1  0  0  0  0
  4 14  1  0  0  0  0
 15 16  1  0  0  0  0
  5 16  2  0  0  0  0
  2 17  1  0  0  0  0
 15 18  1  0  0  0  0
 17 19  3  0  0  0  0
 18 20  1  0  0  0  0
 11 21  2  0  0  0  0
  9 22  1  0  0  0  0
 18 23  2  0  0  0  0
 20 24  1  0  0  0  0
 24 25  2  0  0  0  0
 23 25  1  0  0  0  0
  8 26  1  0  0  0  0
 13 27  1  0  0  0  0
 22 28  2  0  0  0  0
 22 29  1  0  0  0  0
 26 30  1  0  0  0  0
 30 35  1  0  0  0  0
 27 31  1  0  0  0  0
 28 32  1  0  0  0  0
 32 34  2  0  0  0  0
 29 33  2  0  0  0  0
 33 34  1  0  0  0  0
 31 35  1  0  0  0  0
M  END
> <IDNUMBER>
Y501-2733

> <available>
22

> <H_acceptor>
7

> <H_donor>
1

> <B_rotN>
6

> <N_O>
7

> <logP>
5.9781

> <logD>
5.3714

> <logSw>
-6.1136

> <PSA>
79.455

> <pKa_ma>
6.9166

> <pKa_mb>
-4.0324

> <N_Chirals>
0

> <Name>
N-(3-cyano-5,6,7,8-tetrahydro-4H-cyclohepta[b]thiophen-2-yl)-6-(furan-2-yl)-3-phenyl[1,2]oxazolo[5,4-b]pyridine-4-carboxamide

> <Smile>
N#Cc1c(NC(c2c(c(-c3ccccc3)no3)c3nc(-c3ccco3)c2)=O)sc2c1CCCCC2

> <Color>
ORANGE

> <Collection>
DC

> <InChI>
InChI=1S/C27H20N4O3S/c28-15-19-17-10-5-2-6-12-22(17)35-27(19)30-25(32)18-14-20(21-11-7-13-33-21)29-26-23(18)24(31-34-26)16-8-3-1-4-9-16/h1,3-4,7-9,11,13-14H,2,5-6,10,12H2,(H,30,32)

> <InChI Key>
YOZXUXIUTROHGN-UHFFFAOYSA-N

> <PERCENTSP3>
18.52

> <Link>
https://www.chemdiv.com/catalog/screening-compounds/compound-Y501-2733/

> <MFCDNUMBER>
MFCD08557563

> <CLNUMBER>
CL7490

> <STEREO>
ACHIRAL

> <State>
Solid

> <Similarity score>
0.20

$$$$
N-(3-cyano-4,5,6,7,8,9-hexahydrocycloocta[b]thiophen-2-yl)-5-methyl-3-phenyl-1,2
  -OEChem-04222410502D

 28 31  0     0  0  0  0  0  0999 V2000
   -1.2730   -0.6438    0.0000 C   0  0  0  0  0  0  0  0  0  0  0  0
   -2.2437   -0.5562    0.0000 C   0  0  0  0  0  0  0  0  0  0  0  0
    0.7771   -0.6352    0.0000 C   0  0  0  0  0  0  0  0  0  0  0  0
    0.2395   -1.5228    0.0000 C   0  0  0  0  0  0  0  0  0  0  0  0
    1.9729    0.3897    0.0000 N   0  0  0  0  0  0  0  0  0  0  0  0
   -0.8855    0.2813    0.0000 S   0  0  0  0  0  0  0  0  0  0  0  0
    1.7813   -0.5978    0.0000 C   0  0  0  0  0  0  0  0  0  0  0  0
   -0.7604   -1.5228    0.0000 N   0  0  0  0  0  0  0  0  0  0  0  0
   -2.4772    0.3937    0.0000 C   0  0  0  0  0  0  0  0  0  0  0  0
   -1.6563    0.9438    0.0000 C   0  0  0  0  0  0  0  0  0  0  0  0
    1.1188    0.8855    0.0000 O   0  0  0  0  0  0  0  0  0  0  0  0
    0.4062    0.2229    0.0000 C   0  0  0  0  0  0  0  0  0  0  0  0
   -2.9272   -1.3563    0.0000 C   0  0  0  0  0  0  0  0  0  0  0  0
   -3.5647   -2.1522    0.0000 N   0  0  0  0  0  0  0  0  0  0  0  0
    0.7147   -2.4062    0.0000 O   0  0  0  0  0  0  0  0  0  0  0  0
    2.4188   -1.3313    0.0000 C   0  0  0  0  0  0  0  0  0  0  0  0
   -3.4855    0.6522    0.0000 C   0  0  0  0  0  0  0  0  0  0  0  0
   -1.4104    1.9064    0.0000 C   0  0  0  0  0  0  0  0  0  0  0  0
   -0.5646    0.4605    0.0000 C   0  0  0  0  0  0  0  0  0  0  0  0
    2.1272   -2.2895    0.0000 C   0  0  0  0  0  0  0  0  0  0  0  0
    3.3896   -1.1687    0.0000 C   0  0  0  0  0  0  0  0  0  0  0  0
   -4.0397    1.5105    0.0000 C   0  0  0  0  0  0  0  0  0  0  0  0
   -1.9646    2.7772    0.0000 C   0  0  0  0  0  0  0  0  0  0  0  0
    2.7646   -3.0188    0.0000 C   0  0  0  0  0  0  0  0  0  0  0  0
    4.0397   -1.8812    0.0000 C   0  0  0  0  0  0  0  0  0  0  0  0
    3.7480   -2.8272    0.0000 C   0  0  0  0  0  0  0  0  0  0  0  0
   -3.8230    2.4813    0.0000 C   0  0  0  0  0  0  0  0  0  0  0  0
   -2.9355    3.0188    0.0000 C   0  0  0  0  0  0  0  0  0  0  0  0
  1  2  2  0  0  0  0
  3  4  1  0  0  0  0
  4  8  1  0  0  0  0
  5  7  2  0  0  0  0
  5 11  1  0  0  0  0
  1  6  1  0  0  0  0
  3  7  1  0  0  0  0
  1  8  1  0  0  0  0
  2  9  1  0  0  0  0
  9 10  2  0  0  0  0
  6 10  1  0  0  0  0
 11 12  1  0  0  0  0
  3 12  2  0  0  0  0
  2 13  1  0  0  0  0
 13 14  3  0  0  0  0
  4 15  2  0  0  0  0
  7 16  1  0  0  0  0
  9 17  1  0  0  0  0
 10 18  1  0  0  0  0
 12 19  1  0  0  0  0
 16 20  2  0  0  0  0
 16 21  1  0  0  0  0
 17 22  1  0  0  0  0
 18 23  1  0  0  0  0
 20 24  1  0  0  0  0
 24 26  2  0  0  0  0
 21 25  2  0  0  0  0
 25 26  1  0  0  0  0
 22 27  1  0  0  0  0
 23 28  1  0  0  0  0
 27 28  1  0  0  0  0
M  END
> <IDNUMBER>
Y503-0304

> <available>
21

> <H_acceptor>
5

> <H_donor>
1

> <B_rotN>
5

> <N_O>
5

> <logP>
4.9538

> <logD>
3.1345

> <logSw>
-4.7084

> <PSA>
62.392

> <pKa_ma>
5.5873

> <pKa_mb>
-6.2591

> <N_Chirals>
0

> <Name>
N-(3-cyano-4,5,6,7,8,9-hexahydrocycloocta[b]thiophen-2-yl)-5-methyl-3-phenyl-1,2-oxazole-4-carboxamide

> <Smile>
Cc1c(C(Nc(sc2c3CCCCCC2)c3C#N)=O)c(-c2ccccc2)no1

> <Color>
ORANGE

> <Collection>
DC

> <InChI>
InChI=1S/C22H21N3O2S/c1-14-19(20(25-27-14)15-9-5-4-6-10-15)21(26)24-22-17(13-23)16-11-7-2-3-8-12-18(16)28-22/h4-6,9-10H,2-3,7-8,11-12H2,1H3,(H,24,26)

> <InChI Key>
NXKOYVAULDCALT-UHFFFAOYSA-N

> <PERCENTSP3>
31.82

> <Link>
https://www.chemdiv.com/catalog/screening-compounds/compound-Y503-0304/

> <MFCDNUMBER>
MFCD01338205

> <CLNUMBER>
CL2451

> <STEREO>
ACHIRAL

> <State>
Solid

> <Similarity score>
0.20

$$$$
3-(2-chlorophenyl)-N-(3-cyano-5,6-dihydro-4H-cyclopenta[b]thiophen-2-yl)-5-methy
  -OEChem-04222410502D

 26 29  0     0  0  0  0  0  0999 V2000
    0.9916   -1.1651    0.0000 C   0  0  0  0  0  0  0  0  0  0  0  0
   -1.6308   -0.9219    0.0000 C   0  0  0  0  0  0  0  0  0  0  0  0
    1.2895   -0.2375    0.0000 C   0  0  0  0  0  0  0  0  0  0  0  0
   -2.3301   -0.1981    0.0000 C   0  0  0  0  0  0  0  0  0  0  0  0
   -0.6674   -0.6844    0.0000 C   0  0  0  0  0  0  0  0  0  0  0  0
   -3.2143   -0.6391    0.0000 N   0  0  0  0  0  0  0  0  0  0  0  0
    1.7986   -1.7703    0.0000 S   0  0  0  0  0  0  0  0  0  0  0  0
    0.0339   -1.4083    0.0000 N   0  0  0  0  0  0  0  0  0  0  0  0
    2.2849   -0.2375    0.0000 C   0  0  0  0  0  0  0  0  0  0  0  0
    2.6073   -1.2048    0.0000 C   0  0  0  0  0  0  0  0  0  0  0  0
   -2.1680    0.7730    0.0000 C   0  0  0  0  0  0  0  0  0  0  0  0
   -3.1107   -1.6063    0.0000 O   0  0  0  0  0  0  0  0  0  0  0  0
   -2.1114   -1.8099    0.0000 C   0  0  0  0  0  0  0  0  0  0  0  0
    0.6730    0.5656    0.0000 C   0  0  0  0  0  0  0  0  0  0  0  0
    0.0566    1.3648    0.0000 N   0  0  0  0  0  0  0  0  0  0  0  0
   -0.3959    0.2828    0.0000 O   0  0  0  0  0  0  0  0  0  0  0  0
   -2.9750    1.3648    0.0000 C   0  0  0  0  0  0  0  0  0  0  0  0
    3.0881    0.3280    0.0000 C   0  0  0  0  0  0  0  0  0  0  0  0
   -3.9195    1.0162    0.0000 Cl  0  0  0  0  0  0  0  0  0  0  0  0
    3.5971   -1.2048    0.0000 C   0  0  0  0  0  0  0  0  0  0  0  0
   -1.2556    1.1311    0.0000 C   0  0  0  0  0  0  0  0  0  0  0  0
   -1.7137   -2.7374    0.0000 C   0  0  0  0  0  0  0  0  0  0  0  0
    3.9195   -0.2375    0.0000 C   0  0  0  0  0  0  0  0  0  0  0  0
   -2.8449    2.3755    0.0000 C   0  0  0  0  0  0  0  0  0  0  0  0
   -1.1217    2.1284    0.0000 C   0  0  0  0  0  0  0  0  0  0  0  0
   -1.9003    2.7374    0.0000 C   0  0  0  0  0  0  0  0  0  0  0  0
  2  5  1  0  0  0  0
  1  3  2  0  0  0  0
  2  4  1  0  0  0  0
  5  8  1  0  0  0  0
  4  6  2  0  0  0  0
  1  7  1  0  0  0  0
  1  8  1  0  0  0  0
  3  9  1  0  0  0  0
  7 10  1  0  0  0  0
  9 10  2  0  0  0  0
  4 11  1  0  0  0  0
 12 13  1  0  0  0  0
  6 12  1  0  0  0  0
  2 13  2  0  0  0  0
  3 14  1  0  0  0  0
 14 15  3  0  0  0  0
  5 16  2  0  0  0  0
 11 17  1  0  0  0  0
  9 18  1  0  0  0  0
 18 23  1  0  0  0  0
 17 19  1  0  0  0  0
 10 20  1  0  0  0  0
 11 21  2  0  0  0  0
 13 22  1  0  0  0  0
 20 23  1  0  0  0  0
 17 24  2  0  0  0  0
 24 26  1  0  0  0  0
 21 25  1  0  0  0  0
 25 26  2  0  0  0  0
M  END
> <IDNUMBER>
8008-9661

> <available>
15

> <H_acceptor>
5

> <H_donor>
1

> <B_rotN>
5

> <N_O>
5

> <logP>
4.0983

> <logD>
1.3248

> <logSw>
-4.6576

> <PSA>
62.427

> <pKa_ma>
4.6272

> <pKa_mb>
-6.8683

> <N_Chirals>
0

> <Name>
3-(2-chlorophenyl)-N-(3-cyano-5,6-dihydro-4H-cyclopenta[b]thiophen-2-yl)-5-methyl-1,2-oxazole-4-carboxamide

> <Smile>
Cc1c(C(Nc(sc2c3CCC2)c3C#N)=O)c(-c(cccc2)c2Cl)no1

> <Color>
BROWN

> <Collection>
DC

> <InChI>
InChI=1S/C19H14ClN3O2S/c1-10-16(17(23-25-10)12-5-2-3-7-14(12)20)18(24)22-19-13(9-21)11-6-4-8-15(11)26-19/h2-3,5,7H,4,6,8H2,1H3,(H,22,24)

> <InChI Key>
PPPHOQFSIXVYRL-UHFFFAOYSA-N

> <PERCENTSP3>
21.1

> <Link>
https://www.chemdiv.com/catalog/screening-compounds/compound-8008-9661/

> <MFCDNUMBER>
MFCD01460598

> <CLNUMBER>
CL2451

> <STEREO>
ACHIRAL

> <State>
Solid

> <Similarity score>
0.20

$$$$
N-(3-cyano-5,6,7,8-tetrahydro-4H-cyclohepta[b]thiophen-2-yl)-5-(furan-2-yl)-7-(t
  -OEChem-04222410502D

 33 37  0     0  0  0  0  0  0999 V2000
    1.6525   -0.1793    0.0000 N   0  0  0  0  0  0  0  0  0  0  0  0
    2.4384    0.4265    0.0000 C   0  0  0  0  0  0  0  0  0  0  0  0
    1.8097   -1.1635    0.0000 C   0  0  0  0  0  0  0  0  0  0  0  0
   -2.3518   -0.3252    0.0000 C   0  0  0  0  0  0  0  0  0  0  0  0
    0.6501   -0.0418    0.0000 N   0  0  0  0  0  0  0  0  0  0  0  0
   -2.9478    0.4757    0.0000 C   0  0  0  0  0  0  0  0  0  0  0  0
    0.2423   -0.9393    0.0000 C   0  0  0  0  0  0  0  0  0  0  0  0
    0.9352   -1.6352    0.0000 C   0  0  0  0  0  0  0  0  0  0  0  0
    2.7530   -1.5418    0.0000 N   0  0  0  0  0  0  0  0  0  0  0  0
    3.3802    0.0974    0.0000 C   0  0  0  0  0  0  0  0  0  0  0  0
   -2.9478   -1.1143    0.0000 S   0  0  0  0  0  0  0  0  0  0  0  0
   -3.8830    0.1941    0.0000 C   0  0  0  0  0  0  0  0  0  0  0  0
    3.5374   -0.9393    0.0000 C   0  0  0  0  0  0  0  0  0  0  0  0
    2.2812    1.4631    0.0000 C   0  0  0  0  0  0  0  0  0  0  0  0
   -1.3494   -0.2317    0.0000 N   0  0  0  0  0  0  0  0  0  0  0  0
   -3.8830   -0.7967    0.0000 C   0  0  0  0  0  0  0  0  0  0  0  0
   -0.7844   -1.0326    0.0000 C   0  0  0  0  0  0  0  0  0  0  0  0
   -2.6285    1.4631    0.0000 C   0  0  0  0  0  0  0  0  0  0  0  0
    4.4480   -1.3354    0.0000 C   0  0  0  0  0  0  0  0  0  0  0  0
   -2.3518    2.4541    0.0000 N   0  0  0  0  0  0  0  0  0  0  0  0
    4.6379   -2.3279    0.0000 O   0  0  0  0  0  0  0  0  0  0  0  0
   -1.1922   -1.9201    0.0000 O   0  0  0  0  0  0  0  0  0  0  0  0
    5.3569   -0.8607    0.0000 C   0  0  0  0  0  0  0  0  0  0  0  0
    5.6599   -2.4541    0.0000 C   0  0  0  0  0  0  0  0  0  0  0  0
    6.0530   -1.5108    0.0000 C   0  0  0  0  0  0  0  0  0  0  0  0
    2.1240    2.4541    0.0000 F   0  0  0  0  0  0  0  0  0  0  0  0
    3.2836    1.6091    0.0000 F   0  0  0  0  0  0  0  0  0  0  0  0
    1.2791    1.2749    0.0000 F   0  0  0  0  0  0  0  0  0  0  0  0
   -4.6691    0.8033    0.0000 C   0  0  0  0  0  0  0  0  0  0  0  0
   -4.6691   -1.3994    0.0000 C   0  0  0  0  0  0  0  0  0  0  0  0
   -5.6075    0.5641    0.0000 C   0  0  0  0  0  0  0  0  0  0  0  0
   -5.6075   -1.1635    0.0000 C   0  0  0  0  0  0  0  0  0  0  0  0
   -6.0530   -0.3252    0.0000 C   0  0  0  0  0  0  0  0  0  0  0  0
  1  2  1  0  0  0  0
  1  3  1  0  0  0  0
  4 15  1  0  0  0  0
  1  5  1  0  0  0  0
  4  6  2  0  0  0  0
  5  7  2  0  0  0  0
  3  8  2  0  0  0  0
  7  8  1  0  0  0  0
  3  9  1  0  0  0  0
  2 10  2  0  0  0  0
  4 11  1  0  0  0  0
  6 12  1  0  0  0  0
 12 16  2  0  0  0  0
  9 13  2  0  0  0  0
 10 13  1  0  0  0  0
  2 14  1  0  0  0  0
 15 17  1  0  0  0  0
 11 16  1  0  0  0  0
  7 17  1  0  0  0  0
  6 18  1  0  0  0  0
 13 19  1  0  0  0  0
 18 20  3  0  0  0  0
 19 21  1  0  0  0  0
 17 22  2  0  0  0  0
 19 23  2  0  0  0  0
 21 24  1  0  0  0  0
 24 25  2  0  0  0  0
 23 25  1  0  0  0  0
 14 26  1  0  0  0  0
 14 27  1  0  0  0  0
 14 28  1  0  0  0  0
 12 29  1  0  0  0  0
 16 30  1  0  0  0  0
 29 31  1  0  0  0  0
 31 33  1  0  0  0  0
 30 32  1  0  0  0  0
 32 33  1  0  0  0  0
M  END
> <IDNUMBER>
K061-0527

> <available>
1

> <H_acceptor>
6

> <H_donor>
1

> <B_rotN>
6

> <N_O>
7

> <logP>
5.0676

> <logD>
3.4416

> <logSw>
-4.9616

> <PSA>
67.169

> <pKa_ma>
5.7844

> <pKa_mb>
0.7525

> <N_Chirals>
0

> <Name>
N-(3-cyano-5,6,7,8-tetrahydro-4H-cyclohepta[b]thiophen-2-yl)-5-(furan-2-yl)-7-(trifluoromethyl)pyrazolo[1,5-a]pyrimidine-2-carboxamide

> <Smile>
N#Cc1c(NC(c2nn3c(C(F)(F)F)cc(-c4ccco4)nc3c2)=O)sc2c1CCCCC2

> <Color>
YELLOW

> <Collection>
DC

> <InChI>
InChI=1S/C22H16F3N5O2S/c23-22(24,25)18-9-14(16-6-4-8-32-16)27-19-10-15(29-30(18)19)20(31)28-21-13(11-26)12-5-2-1-3-7-17(12)33-21/h4,6,8-10H,1-3,5,7H2,(H,28,31)

> <InChI Key>
ITKVWIQULDNLQG-UHFFFAOYSA-N

> <PERCENTSP3>
27.3

> <Link>
https://www.chemdiv.com/catalog/screening-compounds/compound-K061-0527/

> <MFCDNUMBER>
MFCD01243929

> <CLNUMBER>
CL1646

> <STEREO>
ACHIRAL

> <State>
Solid

> <Similarity score>
0.20

$$$$
N-(3-cyano-6-methyl-4,5,6,7-tetrahydro-1-benzothiophen-2-yl)-3-phenyl-6-(thiophe
  -OEChem-04222410502D

 35 40  0     0  0  0  0  0  0999 V2000
    0.7833   -1.0063    0.0000 C   0  0  0  0  0  0  0  0  0  0  0  0
    1.1084   -1.9688    0.0000 C   0  0  0  0  0  0  0  0  0  0  0  0
   -1.5166    1.5604    0.0000 C   0  0  0  0  0  0  0  0  0  0  0  0
   -2.4668    1.8687    0.0000 C   0  0  0  0  0  0  0  0  0  0  0  0
   -1.3167    0.5855    0.0000 C   0  0  0  0  0  0  0  0  0  0  0  0
    2.1083   -1.9521    0.0000 C   0  0  0  0  0  0  0  0  0  0  0  0
    2.4208   -1.0063    0.0000 C   0  0  0  0  0  0  0  0  0  0  0  0
    1.6042   -0.4062    0.0000 S   0  0  0  0  0  0  0  0  0  0  0  0
   -1.5207    3.1687    0.0000 N   0  0  0  0  0  0  0  0  0  0  0  0
   -0.9333    2.3606    0.0000 C   0  0  0  0  0  0  0  0  0  0  0  0
   -0.1583   -0.6939    0.0000 N   0  0  0  0  0  0  0  0  0  0  0  0
   -0.3668    0.2812    0.0000 C   0  0  0  0  0  0  0  0  0  0  0  0
   -3.2041    1.1979    0.0000 N   0  0  0  0  0  0  0  0  0  0  0  0
   -2.4668    2.8605    0.0000 O   0  0  0  0  0  0  0  0  0  0  0  0
   -2.9958    0.2229    0.0000 C   0  0  0  0  0  0  0  0  0  0  0  0
   -2.0458   -0.0770    0.0000 C   0  0  0  0  0  0  0  0  0  0  0  0
    0.5543   -2.7813    0.0000 C   0  0  0  0  0  0  0  0  0  0  0  0
   -3.7333   -0.4314    0.0000 C   0  0  0  0  0  0  0  0  0  0  0  0
   -0.0043   -3.5937    0.0000 N   0  0  0  0  0  0  0  0  0  0  0  0
    2.7542   -2.6938    0.0000 C   0  0  0  0  0  0  0  0  0  0  0  0
   -3.4291   -1.3813    0.0000 S   0  0  0  0  0  0  0  0  0  0  0  0
    3.4083   -0.7813    0.0000 C   0  0  0  0  0  0  0  0  0  0  0  0
    0.3791    0.9480    0.0000 O   0  0  0  0  0  0  0  0  0  0  0  0
    0.0709    2.4230    0.0000 C   0  0  0  0  0  0  0  0  0  0  0  0
   -4.7333   -0.4396    0.0000 C   0  0  0  0  0  0  0  0  0  0  0  0
   -4.2334   -1.9688    0.0000 C   0  0  0  0  0  0  0  0  0  0  0  0
   -5.0416   -1.3813    0.0000 C   0  0  0  0  0  0  0  0  0  0  0  0
    3.7541   -2.4937    0.0000 C   0  0  0  0  0  0  0  0  0  0  0  0
    4.0710   -1.5437    0.0000 C   0  0  3  0  0  0  0  0  0  0  0  0
    0.7585    1.6730    0.0000 C   0  0  0  0  0  0  0  0  0  0  0  0
    0.3835    3.3896    0.0000 C   0  0  0  0  0  0  0  0  0  0  0  0
    5.0416   -1.3813    0.0000 C   0  0  0  0  0  0  0  0  0  0  0  0
    1.3790    3.5937    0.0000 C   0  0  0  0  0  0  0  0  0  0  0  0
    1.7417    1.8813    0.0000 C   0  0  0  0  0  0  0  0  0  0  0  0
    2.0458    2.8479    0.0000 C   0  0  0  0  0  0  0  0  0  0  0  0
  1  2  2  0  0  0  0
  3  5  1  0  0  0  0
  3  4  2  0  0  0  0
  5 12  1  0  0  0  0
  2  6  1  0  0  0  0
  7  8  1  0  0  0  0
  6  7  2  0  0  0  0
  1  8  1  0  0  0  0
  9 10  2  0  0  0  0
  3 10  1  0  0  0  0
  1 11  1  0  0  0  0
 11 12  1  0  0  0  0
 13 15  2  0  0  0  0
  4 13  1  0  0  0  0
  4 14  1  0  0  0  0
  9 14  1  0  0  0  0
 15 16  1  0  0  0  0
  5 16  2  0  0  0  0
  2 17  1  0  0  0  0
 15 18  1  0  0  0  0
 17 19  3  0  0  0  0
  6 20  1  0  0  0  0
 18 21  1  0  0  0  0
  7 22  1  0  0  0  0
 12 23  2  0  0  0  0
 10 24  1  0  0  0  0
 18 25  2  0  0  0  0
 21 26  1  0  0  0  0
 25 27  1  0  0  0  0
 26 27  2  0  0  0  0
 20 28  1  0  0  0  0
 22 29  1  0  0  0  0
 28 29  1  0  0  0  0
 24 30  1  0  0  0  0
 24 31  2  0  0  0  0
 29 32  1  0  0  0  0
 31 33  1  0  0  0  0
 30 34  2  0  0  0  0
 33 35  2  0  0  0  0
 34 35  1  0  0  0  0
M  END
> <IDNUMBER>
Y509-2638

> <available>
11

> <H_acceptor>
6

> <H_donor>
1

> <B_rotN>
6

> <N_O>
6

> <logP>
6.654

> <logD>
6.0473

> <logSw>
-5.9755

> <PSA>
71.564

> <pKa_ma>
6.9166

> <pKa_mb>
-3.6716

> <N_Chirals>
1

> <Name>
N-(3-cyano-6-methyl-4,5,6,7-tetrahydro-1-benzothiophen-2-yl)-3-phenyl-6-(thiophen-2-yl)[1,2]oxazolo[5,4-b]pyridine-4-carboxamide

> <Smile>
c1(c(c2c(s1)CC(CC2)C)C#N)NC(c1c2c(nc(c1)c1sccc1)onc2c1ccccc1)=O

> <Color>
BROWN

> <Collection>
DC

> <InChI>
InChI=1S/C27H20N4O2S2/c1-15-9-10-17-19(14-28)27(35-22(17)12-15)30-25(32)18-13-20(21-8-5-11-34-21)29-26-23(18)24(31-33-26)16-6-3-2-4-7-16/h2-8,11,13,15H,9-10,12H2,1H3,(H,30,32)/t15-/m1/s1

> <InChI Key>
VIEYFJYZLGSPQI-OAHLLOKOSA-N

> <PERCENTSP3>
18.5

> <Link>
https://www.chemdiv.com/catalog/screening-compounds/compound-Y509-2638/

> <MFCDNUMBER>
MFCD08557610

> <CLNUMBER>
CL7490

> <STEREO>
RACEMIC MIXTURE

> <State>
Solid

> <Similarity score>
0.20

$$$$
7-[chloro(difluoro)methyl]-N-(3-cyano-5,6,7,8-tetrahydro-4H-cyclohepta[b]thiophe
  -OEChem-04222410502D

 33 37  0     0  0  0  0  0  0999 V2000
   -2.6457    0.5842    0.0000 N   0  0  0  0  0  0  0  0  0  0  0  0
   -3.6374    0.5983    0.0000 C   0  0  0  0  0  0  0  0  0  0  0  0
   -2.1380   -0.3066    0.0000 C   0  0  0  0  0  0  0  0  0  0  0  0
    1.6791    0.9059    0.0000 C   0  0  0  0  0  0  0  0  0  0  0  0
   -1.9645    1.3079    0.0000 N   0  0  0  0  0  0  0  0  0  0  0  0
    2.2610    1.6800    0.0000 C   0  0  0  0  0  0  0  0  0  0  0  0
   -1.0738    0.9059    0.0000 C   0  0  0  0  0  0  0  0  0  0  0  0
   -1.1573   -0.0876    0.0000 C   0  0  0  0  0  0  0  0  0  0  0  0
   -2.6173   -1.1612    0.0000 N   0  0  0  0  0  0  0  0  0  0  0  0
   -4.1388   -0.2766    0.0000 C   0  0  0  0  0  0  0  0  0  0  0  0
    2.2294    0.0876    0.0000 S   0  0  0  0  0  0  0  0  0  0  0  0
    3.2070    1.3694    0.0000 C   0  0  0  0  0  0  0  0  0  0  0  0
   -3.6233   -1.1612    0.0000 C   0  0  0  0  0  0  0  0  0  0  0  0
   -4.1262    1.4497    0.0000 C   0  0  0  0  0  0  0  0  0  0  0  0
    0.6765    0.9059    0.0000 N   0  0  0  0  0  0  0  0  0  0  0  0
    3.1880    0.3760    0.0000 C   0  0  0  0  0  0  0  0  0  0  0  0
   -0.1892    1.4072    0.0000 C   0  0  0  0  0  0  0  0  0  0  0  0
    1.9393    2.6322    0.0000 C   0  0  0  0  0  0  0  0  0  0  0  0
   -4.1388   -2.0284    0.0000 C   0  0  0  0  0  0  0  0  0  0  0  0
    1.6082    3.5971    0.0000 N   0  0  0  0  0  0  0  0  0  0  0  0
   -3.7556   -2.9398    0.0000 O   0  0  0  0  0  0  0  0  0  0  0  0
   -0.1892    2.4148    0.0000 O   0  0  0  0  0  0  0  0  0  0  0  0
   -5.1226   -2.0978    0.0000 C   0  0  0  0  0  0  0  0  0  0  0  0
   -4.5409   -3.5971    0.0000 C   0  0  0  0  0  0  0  0  0  0  0  0
   -5.3781   -3.0722    0.0000 C   0  0  0  0  0  0  0  0  0  0  0  0
   -4.6307    2.3233    0.0000 Cl  0  0  0  0  0  0  0  0  0  0  0  0
   -3.2606    1.9543    0.0000 F   0  0  0  0  0  0  0  0  0  0  0  0
   -5.0011    0.9437    0.0000 F   0  0  0  0  0  0  0  0  0  0  0  0
    4.0016    1.9638    0.0000 C   0  0  0  0  0  0  0  0  0  0  0  0
    3.9510   -0.2766    0.0000 C   0  0  0  0  0  0  0  0  0  0  0  0
    4.9759    1.7193    0.0000 C   0  0  0  0  0  0  0  0  0  0  0  0
    4.9287   -0.0780    0.0000 C   0  0  0  0  0  0  0  0  0  0  0  0
    5.3781    0.8097    0.0000 C   0  0  0  0  0  0  0  0  0  0  0  0
  1  3  1  0  0  0  0
  1  2  1  0  0  0  0
  4 15  1  0  0  0  0
  1  5  1  0  0  0  0
  4  6  2  0  0  0  0
  5  7  2  0  0  0  0
  3  8  2  0  0  0  0
  7  8  1  0  0  0  0
  3  9  1  0  0  0  0
  2 10  2  0  0  0  0
  4 11  1  0  0  0  0
  6 12  1  0  0  0  0
  9 13  2  0  0  0  0
 10 13  1  0  0  0  0
  2 14  1  0  0  0  0
 14 26  1  0  0  0  0
 15 17  1  0  0  0  0
 11 16  1  0  0  0  0
 12 16  2  0  0  0  0
  7 17  1  0  0  0  0
  6 18  1  0  0  0  0
 13 19  1  0  0  0  0
 18 20  3  0  0  0  0
 19 21  1  0  0  0  0
 17 22  2  0  0  0  0
 19 23  2  0  0  0  0
 21 24  1  0  0  0  0
 23 25  1  0  0  0  0
 24 25  2  0  0  0  0
 14 27  1  0  0  0  0
 14 28  1  0  0  0  0
 12 29  1  0  0  0  0
 16 30  1  0  0  0  0
 29 31  1  0  0  0  0
 30 32  1  0  0  0  0
 32 33  1  0  0  0  0
 31 33  1  0  0  0  0
M  END
> <IDNUMBER>
8012-9521

> <available>
25

> <H_acceptor>
6

> <H_donor>
1

> <B_rotN>
6

> <N_O>
7

> <logP>
5.5277

> <logD>
3.9017

> <logSw>
-6.1887

> <PSA>
67.169

> <pKa_ma>
5.7844

> <pKa_mb>
0.7525

> <N_Chirals>
0

> <Name>
7-[chloro(difluoro)methyl]-N-(3-cyano-5,6,7,8-tetrahydro-4H-cyclohepta[b]thiophen-2-yl)-5-(furan-2-yl)pyrazolo[1,5-a]pyrimidine-2-carboxamide

> <Smile>
N#Cc1c(NC(c2nn3c(C(F)(F)Cl)cc(-c4ccco4)nc3c2)=O)sc2c1CCCCC2

> <Color>
YELLOW

> <Collection>
DC

> <InChI>
InChI=1S/C22H16ClF2N5O2S/c23-22(24,25)18-9-14(16-6-4-8-32-16)27-19-10-15(29-30(18)19)20(31)28-21-13(11-26)12-5-2-1-3-7-17(12)33-21/h4,6,8-10H,1-3,5,7H2,(H,28,31)

> <InChI Key>
BAMXBFLPNULUET-UHFFFAOYSA-N

> <PERCENTSP3>
27.3

> <Link>
https://www.chemdiv.com/catalog/screening-compounds/compound-8012-9521/

> <MFCDNUMBER>
MFCD03308283

> <CLNUMBER>
CL1640

> <STEREO>
ACHIRAL

> <State>
Solid

> <Similarity score>
0.20

$$$$
N-(3-cyano-6-methyl-4,5,6,7-tetrahydro-1-benzothiophen-2-yl)-6-(furan-2-yl)-3-ph
  -OEChem-04222410502D

 35 40  0     0  0  0  0  0  0999 V2000
    0.7980   -1.0812    0.0000 C   0  0  0  0  0  0  0  0  0  0  0  0
    1.1228   -2.0438    0.0000 C   0  0  0  0  0  0  0  0  0  0  0  0
   -1.5062    1.4936    0.0000 C   0  0  0  0  0  0  0  0  0  0  0  0
   -2.4602    1.8021    0.0000 C   0  0  0  0  0  0  0  0  0  0  0  0
   -1.3060    0.5147    0.0000 C   0  0  0  0  0  0  0  0  0  0  0  0
    2.1145   -2.0311    0.0000 C   0  0  0  0  0  0  0  0  0  0  0  0
    2.4353   -1.0853    0.0000 C   0  0  0  0  0  0  0  0  0  0  0  0
    1.6145   -0.4896    0.0000 S   0  0  0  0  0  0  0  0  0  0  0  0
   -1.5144    3.1061    0.0000 N   0  0  0  0  0  0  0  0  0  0  0  0
   -0.9229    2.3020    0.0000 C   0  0  0  0  0  0  0  0  0  0  0  0
   -0.1479   -0.7728    0.0000 N   0  0  0  0  0  0  0  0  0  0  0  0
   -0.3520    0.2022    0.0000 C   0  0  0  0  0  0  0  0  0  0  0  0
   -3.2103    1.1311    0.0000 N   0  0  0  0  0  0  0  0  0  0  0  0
   -2.4602    2.7978    0.0000 O   0  0  0  0  0  0  0  0  0  0  0  0
   -2.9978    0.1520    0.0000 C   0  0  0  0  0  0  0  0  0  0  0  0
   -2.0395   -0.1561    0.0000 C   0  0  0  0  0  0  0  0  0  0  0  0
    0.5645   -2.8603    0.0000 C   0  0  0  0  0  0  0  0  0  0  0  0
   -3.7394   -0.5061    0.0000 C   0  0  0  0  0  0  0  0  0  0  0  0
    0.0021   -3.6686    0.0000 N   0  0  0  0  0  0  0  0  0  0  0  0
    2.7603   -2.7685    0.0000 C   0  0  0  0  0  0  0  0  0  0  0  0
    3.4187   -0.8645    0.0000 C   0  0  0  0  0  0  0  0  0  0  0  0
   -3.4310   -1.4603    0.0000 O   0  0  0  0  0  0  0  0  0  0  0  0
    0.3937    0.8773    0.0000 O   0  0  0  0  0  0  0  0  0  0  0  0
    0.0564    2.5104    0.0000 C   0  0  0  0  0  0  0  0  0  0  0  0
   -4.7433   -0.5147    0.0000 C   0  0  0  0  0  0  0  0  0  0  0  0
   -4.2435   -2.0562    0.0000 C   0  0  0  0  0  0  0  0  0  0  0  0
   -5.0518   -1.4646    0.0000 C   0  0  0  0  0  0  0  0  0  0  0  0
    3.7603   -2.5769    0.0000 C   0  0  0  0  0  0  0  0  0  0  0  0
    4.0811   -1.6268    0.0000 C   0  0  3  0  0  0  0  0  0  0  0  0
    0.7188    1.7647    0.0000 C   0  0  0  0  0  0  0  0  0  0  0  0
    0.3647    3.4602    0.0000 C   0  0  0  0  0  0  0  0  0  0  0  0
    5.0518   -1.4646    0.0000 C   0  0  0  0  0  0  0  0  0  0  0  0
    1.3354    3.6686    0.0000 C   0  0  0  0  0  0  0  0  0  0  0  0
    1.6979    1.9770    0.0000 C   0  0  0  0  0  0  0  0  0  0  0  0
    2.0062    2.9270    0.0000 C   0  0  0  0  0  0  0  0  0  0  0  0
  1  2  2  0  0  0  0
  3  5  1  0  0  0  0
  3  4  2  0  0  0  0
  4 13  1  0  0  0  0
  5 12  1  0  0  0  0
  2  6  1  0  0  0  0
  6  7  2  0  0  0  0
  7  8  1  0  0  0  0
  1  8  1  0  0  0  0
  9 10  2  0  0  0  0
  9 14  1  0  0  0  0
  3 10  1  0  0  0  0
  1 11  1  0  0  0  0
 11 12  1  0  0  0  0
 13 15  2  0  0  0  0
  4 14  1  0  0  0  0
 15 16  1  0  0  0  0
  5 16  2  0  0  0  0
  2 17  1  0  0  0  0
 15 18  1  0  0  0  0
 17 19  3  0  0  0  0
  6 20  1  0  0  0  0
  7 21  1  0  0  0  0
 18 22  1  0  0  0  0
 12 23  2  0  0  0  0
 10 24  1  0  0  0  0
 18 25  2  0  0  0  0
 22 26  1  0  0  0  0
 26 27  2  0  0  0  0
 25 27  1  0  0  0  0
 20 28  1  0  0  0  0
 28 29  1  0  0  0  0
 21 29  1  0  0  0  0
 24 30  2  0  0  0  0
 24 31  1  0  0  0  0
 29 32  1  0  0  0  0
 31 33  2  0  0  0  0
 30 34  1  0  0  0  0
 34 35  2  0  0  0  0
 33 35  1  0  0  0  0
M  END
> <IDNUMBER>
Y501-6664

> <available>
29

> <H_acceptor>
7

> <H_donor>
1

> <B_rotN>
6

> <N_O>
7

> <logP>
5.9162

> <logD>
5.3094

> <logSw>
-5.8785

> <PSA>
79.124

> <pKa_ma>
6.9166

> <pKa_mb>
-4.0324

> <N_Chirals>
1

> <Name>
N-(3-cyano-6-methyl-4,5,6,7-tetrahydro-1-benzothiophen-2-yl)-6-(furan-2-yl)-3-phenyl[1,2]oxazolo[5,4-b]pyridine-4-carboxamide

> <Smile>
CC(CC1)Cc2c1c(C#N)c(NC(c1c(c(-c3ccccc3)no3)c3nc(-c3ccco3)c1)=O)s2

> <Color>
ORANGE

> <Collection>
DC

> <InChI>
InChI=1S/C27H20N4O3S/c1-15-9-10-17-19(14-28)27(35-22(17)12-15)30-25(32)18-13-20(21-8-5-11-33-21)29-26-23(18)24(31-34-26)16-6-3-2-4-7-16/h2-8,11,13,15H,9-10,12H2,1H3,(H,30,32)/t15-/m1/s1

> <InChI Key>
IIPXLUKWQQTBEF-OAHLLOKOSA-N

> <PERCENTSP3>
18.5

> <Link>
https://www.chemdiv.com/catalog/screening-compounds/compound-Y501-6664/

> <MFCDNUMBER>
MFCD08557383

> <CLNUMBER>
CL7490

> <STEREO>
RACEMIC MIXTURE

> <State>
Solid

> <Similarity score>
0.20

$$$$
N-(6-tert-butyl-3-cyano-4,5,6,7-tetrahydro-1-benzothiophen-2-yl)-5-(4-methoxyphe
  -OEChem-04222410502D

 39 43  0     0  0  0  0  0  0999 V2000
    0.8591    0.4395    0.0000 N   0  0  0  0  0  0  0  0  0  0  0  0
    1.3176    1.2471    0.0000 C   0  0  0  0  0  0  0  0  0  0  0  0
    1.2757   -0.3765    0.0000 C   0  0  0  0  0  0  0  0  0  0  0  0
   -2.9938    0.4250    0.0000 C   0  0  0  0  0  0  0  0  0  0  0  0
   -0.1735    0.4395    0.0000 N   0  0  0  0  0  0  0  0  0  0  0  0
   -3.4419    1.1820    0.0000 C   0  0  0  0  0  0  0  0  0  0  0  0
   -0.6046   -0.3617    0.0000 C   0  0  0  0  0  0  0  0  0  0  0  0
   -0.0746   -1.1505    0.0000 C   0  0  0  0  0  0  0  0  0  0  0  0
    2.2978   -0.3765    0.0000 N   0  0  0  0  0  0  0  0  0  0  0  0
    2.3273    1.2471    0.0000 C   0  0  0  0  0  0  0  0  0  0  0  0
   -4.3819   -0.4016    0.0000 C   0  0  0  0  0  0  0  0  0  0  0  0
   -4.8174    0.3996    0.0000 C   0  0  0  0  0  0  0  0  0  0  0  0
   -3.4732   -0.4016    0.0000 S   0  0  0  0  0  0  0  0  0  0  0  0
    0.8697    2.0905    0.0000 C   0  0  0  0  0  0  0  0  0  0  0  0
    2.7879    0.4649    0.0000 C   0  0  0  0  0  0  0  0  0  0  0  0
   -2.0749    0.4250    0.0000 N   0  0  0  0  0  0  0  0  0  0  0  0
   -1.6016   -0.3617    0.0000 C   0  0  0  0  0  0  0  0  0  0  0  0
   -2.9432    2.0402    0.0000 C   0  0  0  0  0  0  0  0  0  0  0  0
   -4.8741   -1.3020    0.0000 C   0  0  0  0  0  0  0  0  0  0  0  0
   -2.4386    2.8897    0.0000 N   0  0  0  0  0  0  0  0  0  0  0  0
   -5.8773    0.3996    0.0000 C   0  0  0  0  0  0  0  0  0  0  0  0
   -5.8941   -1.2850    0.0000 C   0  0  3  0  0  0  0  0  0  0  0  0
    3.8227    0.4649    0.0000 C   0  0  0  0  0  0  0  0  0  0  0  0
   -6.4241   -2.1179    0.0000 C   0  0  0  0  0  0  0  0  0  0  0  0
   -2.1569   -1.2430    0.0000 O   0  0  0  0  0  0  0  0  0  0  0  0
   -6.3989   -0.4586    0.0000 C   0  0  0  0  0  0  0  0  0  0  0  0
    1.7109    2.5953    0.0000 F   0  0  0  0  0  0  0  0  0  0  0  0
    0.0200    1.6174    0.0000 F   0  0  0  0  0  0  0  0  0  0  0  0
    0.3985    2.9319    0.0000 F   0  0  0  0  0  0  0  0  0  0  0  0
    4.3672    1.3040    0.0000 C   0  0  0  0  0  0  0  0  0  0  0  0
    4.3105   -0.3617    0.0000 C   0  0  0  0  0  0  0  0  0  0  0  0
    5.8186    0.4817    0.0000 C   0  0  0  0  0  0  0  0  0  0  0  0
    5.3011   -0.3617    0.0000 C   0  0  0  0  0  0  0  0  0  0  0  0
    5.3390    1.3040    0.0000 C   0  0  0  0  0  0  0  0  0  0  0  0
    6.8659    0.4817    0.0000 O   0  0  0  0  0  0  0  0  0  0  0  0
   -6.9437   -2.9319    0.0000 C   0  0  0  0  0  0  0  0  0  0  0  0
   -5.5934   -2.6479    0.0000 C   0  0  0  0  0  0  0  0  0  0  0  0
   -7.2571   -1.5879    0.0000 C   0  0  0  0  0  0  0  0  0  0  0  0
    7.2571    1.2641    0.0000 C   0  0  0  0  0  0  0  0  0  0  0  0
  1  2  1  0  0  0  0
  1  3  1  0  0  0  0
  4 16  1  0  0  0  0
  1  5  1  0  0  0  0
  4  6  2  0  0  0  0
  5  7  2  0  0  0  0
  7  8  1  0  0  0  0
  3  8  2  0  0  0  0
  3  9  1  0  0  0  0
  2 10  2  0  0  0  0
 10 15  1  0  0  0  0
 11 13  1  0  0  0  0
 11 12  2  0  0  0  0
  6 12  1  0  0  0  0
  4 13  1  0  0  0  0
  2 14  1  0  0  0  0
  9 15  2  0  0  0  0
 16 17  1  0  0  0  0
  7 17  1  0  0  0  0
  6 18  1  0  0  0  0
 11 19  1  0  0  0  0
 18 20  3  0  0  0  0
 12 21  1  0  0  0  0
 19 22  1  0  0  0  0
 15 23  1  0  0  0  0
 22 24  1  0  0  0  0
 17 25  2  0  0  0  0
 21 26  1  0  0  0  0
 22 26  1  0  0  0  0
 14 27  1  0  0  0  0
 14 28  1  0  0  0  0
 14 29  1  0  0  0  0
 23 30  2  0  0  0  0
 23 31  1  0  0  0  0
 32 33  1  0  0  0  0
 31 33  2  0  0  0  0
 30 34  1  0  0  0  0
 32 34  2  0  0  0  0
 32 35  1  0  0  0  0
 24 36  1  0  0  0  0
 24 37  1  0  0  0  0
 24 38  1  0  0  0  0
 35 39  1  0  0  0  0
M  END
> <IDNUMBER>
2774-1302

> <available>
3

> <H_acceptor>
6

> <H_donor>
1

> <B_rotN>
8

> <N_O>
7

> <logP>
7.205

> <logD>
5.579

> <logSw>
-5.705

> <PSA>
65.8

> <pKa_ma>
5.784

> <pKa_mb>
1.312

> <N_Chirals>
1

> <Name>
N-(6-tert-butyl-3-cyano-4,5,6,7-tetrahydro-1-benzothiophen-2-yl)-5-(4-methoxyphenyl)-7-(trifluoromethyl)pyrazolo[1,5-a]pyrimidine-2-carboxamide

> <Smile>
CC(C)(C)C(CC1)Cc2c1c(C#N)c(NC(c1nn3c(C(F)(F)F)cc(-c(cc4)ccc4OC)nc3c1)=O)s2

> <Color>
YELLOW

> <Collection>
DC

> <InChI>
InChI=1S/C28H26F3N5O2S/c1-27(2,3)16-7-10-18-19(14-32)26(39-22(18)11-16)34-25(37)21-13-24-33-20(15-5-8-17(38-4)9-6-15)12-23(28(29,30)31)36(24)35-21/h5-6,8-9,12-13,16H,7,10-11H2,1-4H3,(H,34,37)/t16-/m1/
s1

> <InChI Key>
YRTVZWNVFLBIEQ-MRXNPFEDSA-N

> <PERCENTSP3>
35.714

> <Link>
https://www.chemdiv.com/catalog/screening-compounds/compound-2774-1302/

> <MFCDNUMBER>
MFCD01451926

> <CLNUMBER>
CL1652

> <STEREO>
RACEMIC MIXTURE

> <State>
Solid

> <Similarity score>
0.20

$$$$
N-(3-cyano-4,5,6,7-tetrahydro-1-benzothiophen-2-yl)-7-(3,5-dichlorophenyl)pyrazo
  -OEChem-04222410502D

 31 35  0     0  0  0  0  0  0999 V2000
   -1.6858    0.8773    0.0000 N   0  0  0  0  0  0  0  0  0  0  0  0
    2.5110    0.1687    0.0000 C   0  0  0  0  0  0  0  0  0  0  0  0
   -0.9938    0.1522    0.0000 N   0  0  0  0  0  0  0  0  0  0  0  0
    2.6484   -0.8315    0.0000 C   0  0  0  0  0  0  0  0  0  0  0  0
   -0.0937    0.5897    0.0000 C   0  0  0  0  0  0  0  0  0  0  0  0
   -1.2106    1.7566    0.0000 C   0  0  0  0  0  0  0  0  0  0  0  0
   -0.2313    1.5814    0.0000 C   0  0  0  0  0  0  0  0  0  0  0  0
   -2.6859    0.8523    0.0000 C   0  0  0  0  0  0  0  0  0  0  0  0
    3.4151    0.6063    0.0000 S   0  0  0  0  0  0  0  0  0  0  0  0
    3.6277   -1.0022    0.0000 C   0  0  0  0  0  0  0  0  0  0  0  0
    1.6358    0.6396    0.0000 N   0  0  0  0  0  0  0  0  0  0  0  0
    4.1154   -0.1312    0.0000 C   0  0  0  0  0  0  0  0  0  0  0  0
    0.7856    0.1145    0.0000 C   0  0  0  0  0  0  0  0  0  0  0  0
   -3.1567   -0.0271    0.0000 C   0  0  0  0  0  0  0  0  0  0  0  0
   -1.7399    2.6109    0.0000 N   0  0  0  0  0  0  0  0  0  0  0  0
    1.9525   -1.5315    0.0000 C   0  0  0  0  0  0  0  0  0  0  0  0
    1.2566   -2.2276    0.0000 N   0  0  0  0  0  0  0  0  0  0  0  0
   -3.2110    1.7025    0.0000 C   0  0  0  0  0  0  0  0  0  0  0  0
   -2.7359    2.5818    0.0000 C   0  0  0  0  0  0  0  0  0  0  0  0
   -2.6359   -0.8816    0.0000 C   0  0  0  0  0  0  0  0  0  0  0  0
   -4.1611   -0.0604    0.0000 C   0  0  0  0  0  0  0  0  0  0  0  0
    0.8148   -0.8816    0.0000 O   0  0  0  0  0  0  0  0  0  0  0  0
   -3.1069   -1.7608    0.0000 C   0  0  0  0  0  0  0  0  0  0  0  0
   -4.6363   -0.9356    0.0000 C   0  0  0  0  0  0  0  0  0  0  0  0
   -4.1112   -1.7899    0.0000 C   0  0  0  0  0  0  0  0  0  0  0  0
   -2.5859   -2.6109    0.0000 Cl  0  0  0  0  0  0  0  0  0  0  0  0
   -5.6364   -0.9689    0.0000 Cl  0  0  0  0  0  0  0  0  0  0  0  0
    4.1320   -1.8482    0.0000 C   0  0  0  0  0  0  0  0  0  0  0  0
    5.1198   -0.0979    0.0000 C   0  0  0  0  0  0  0  0  0  0  0  0
    5.1448   -1.8399    0.0000 C   0  0  0  0  0  0  0  0  0  0  0  0
    5.6364   -0.9689    0.0000 C   0  0  0  0  0  0  0  0  0  0  0  0
  2 11  1  0  0  0  0
  1  3  1  0  0  0  0
  2  4  2  0  0  0  0
  3  5  2  0  0  0  0
  5  7  1  0  0  0  0
  1  6  1  0  0  0  0
  6  7  2  0  0  0  0
  1  8  1  0  0  0  0
  2  9  1  0  0  0  0
  4 10  1  0  0  0  0
 11 13  1  0  0  0  0
  9 12  1  0  0  0  0
 10 12  2  0  0  0  0
  5 13  1  0  0  0  0
  8 14  1  0  0  0  0
  6 15  1  0  0  0  0
  4 16  1  0  0  0  0
 16 17  3  0  0  0  0
  8 18  2  0  0  0  0
 18 19  1  0  0  0  0
 15 19  2  0  0  0  0
 14 20  1  0  0  0  0
 14 21  2  0  0  0  0
 13 22  2  0  0  0  0
 20 23  2  0  0  0  0
 23 25  1  0  0  0  0
 21 24  1  0  0  0  0
 24 25  2  0  0  0  0
 23 26  1  0  0  0  0
 24 27  1  0  0  0  0
 10 28  1  0  0  0  0
 12 29  1  0  0  0  0
 28 30  1  0  0  0  0
 29 31  1  0  0  0  0
 30 31  1  0  0  0  0
M  END
> <IDNUMBER>
Y501-3531

> <available>
22

> <H_acceptor>
5

> <H_donor>
1

> <B_rotN>
5

> <N_O>
6

> <logP>
5.5826

> <logD>
3.326

> <logSw>
-6.1895

> <PSA>
58.692

> <pKa_ma>
5.1458

> <pKa_mb>
-1.755

> <N_Chirals>
0

> <Name>
N-(3-cyano-4,5,6,7-tetrahydro-1-benzothiophen-2-yl)-7-(3,5-dichlorophenyl)pyrazolo[1,5-a]pyrimidine-2-carboxamide

> <Smile>
N#Cc1c(NC(c2nn3c(-c4cc(Cl)cc(Cl)c4)ccnc3c2)=O)sc2c1CCCC2

> <Color>
ORANGE

> <Collection>
DC

> <InChI>
InChI=1S/C22H15Cl2N5OS/c23-13-7-12(8-14(24)9-13)18-5-6-26-20-10-17(28-29(18)20)21(30)27-22-16(11-25)15-3-1-2-4-19(15)31-22/h5-10H,1-4H2,(H,27,30)

> <InChI Key>
PKKHSXSFTJGJJV-UHFFFAOYSA-N

> <PERCENTSP3>
18.18

> <Link>
https://www.chemdiv.com/catalog/screening-compounds/compound-Y501-3531/

> <MFCDNUMBER>
MFCD08555780

> <STEREO>
ACHIRAL

> <State>
Solid

> <Similarity score>
0.20

$$$$
3-(2-chlorophenyl)-N-(3-cyano-4,5,6,7-tetrahydro-1-benzothiophen-2-yl)-5-methyl-
  -OEChem-04222410502D

 27 30  0     0  0  0  0  0  0999 V2000
    1.1989   -0.2311    0.0000 C   0  0  0  0  0  0  0  0  0  0  0  0
   -1.3869   -0.7378    0.0000 C   0  0  0  0  0  0  0  0  0  0  0  0
    1.2939    0.7948    0.0000 C   0  0  0  0  0  0  0  0  0  0  0  0
   -2.3495   -0.4592    0.0000 C   0  0  0  0  0  0  0  0  0  0  0  0
   -0.5466   -0.2311    0.0000 C   0  0  0  0  0  0  0  0  0  0  0  0
   -2.9384   -1.2508    0.0000 N   0  0  0  0  0  0  0  0  0  0  0  0
    2.1026   -0.5985    0.0000 S   0  0  0  0  0  0  0  0  0  0  0  0
    0.3420   -0.7378    0.0000 N   0  0  0  0  0  0  0  0  0  0  0  0
    2.2861    0.9827    0.0000 C   0  0  0  0  0  0  0  0  0  0  0  0
    2.7801    0.1424    0.0000 C   0  0  0  0  0  0  0  0  0  0  0  0
   -2.6851    0.4655    0.0000 C   0  0  0  0  0  0  0  0  0  0  0  0
   -2.3178   -2.0867    0.0000 O   0  0  0  0  0  0  0  0  0  0  0  0
   -1.3869   -1.7637    0.0000 C   0  0  0  0  0  0  0  0  0  0  0  0
    0.5636    1.4406    0.0000 C   0  0  0  0  0  0  0  0  0  0  0  0
   -0.2153    2.0867    0.0000 N   0  0  0  0  0  0  0  0  0  0  0  0
   -0.5466    0.7440    0.0000 O   0  0  0  0  0  0  0  0  0  0  0  0
   -3.6794    0.6492    0.0000 C   0  0  0  0  0  0  0  0  0  0  0  0
   -4.3000   -0.1363    0.0000 Cl  0  0  0  0  0  0  0  0  0  0  0  0
    2.8075    1.8480    0.0000 C   0  0  0  0  0  0  0  0  0  0  0  0
    3.8060    0.1424    0.0000 C   0  0  0  0  0  0  0  0  0  0  0  0
   -2.0708    1.2571    0.0000 C   0  0  0  0  0  0  0  0  0  0  0  0
   -0.5466   -2.3653    0.0000 C   0  0  0  0  0  0  0  0  0  0  0  0
   -4.0213    1.5843    0.0000 C   0  0  0  0  0  0  0  0  0  0  0  0
    3.8060    1.8480    0.0000 C   0  0  0  0  0  0  0  0  0  0  0  0
    4.3000    0.9827    0.0000 C   0  0  0  0  0  0  0  0  0  0  0  0
   -2.4338    2.1753    0.0000 C   0  0  0  0  0  0  0  0  0  0  0  0
   -3.4007    2.3653    0.0000 C   0  0  0  0  0  0  0  0  0  0  0  0
  2  5  1  0  0  0  0
  1  3  2  0  0  0  0
  2  4  1  0  0  0  0
  5  8  1  0  0  0  0
  4  6  2  0  0  0  0
  1  7  1  0  0  0  0
  1  8  1  0  0  0  0
  3  9  1  0  0  0  0
  7 10  1  0  0  0  0
  9 10  2  0  0  0  0
  4 11  1  0  0  0  0
 12 13  1  0  0  0  0
  6 12  1  0  0  0  0
  2 13  2  0  0  0  0
  3 14  1  0  0  0  0
 14 15  3  0  0  0  0
  5 16  2  0  0  0  0
 11 17  1  0  0  0  0
 17 18  1  0  0  0  0
  9 19  1  0  0  0  0
 10 20  1  0  0  0  0
 11 21  2  0  0  0  0
 13 22  1  0  0  0  0
 17 23  2  0  0  0  0
 23 27  1  0  0  0  0
 19 24  1  0  0  0  0
 20 25  1  0  0  0  0
 24 25  1  0  0  0  0
 21 26  1  0  0  0  0
 26 27  2  0  0  0  0
M  END
> <IDNUMBER>
8009-5648

> <available>
9

> <H_acceptor>
5

> <H_donor>
1

> <B_rotN>
5

> <N_O>
5

> <logP>
4.5086

> <logD>
1.7557

> <logSw>
-4.8238

> <PSA>
62.061

> <pKa_ma>
4.6479

> <pKa_mb>
-6.8125

> <N_Chirals>
0

> <Name>
3-(2-chlorophenyl)-N-(3-cyano-4,5,6,7-tetrahydro-1-benzothiophen-2-yl)-5-methyl-1,2-oxazole-4-carboxamide

> <Smile>
Cc1c(C(Nc(sc2c3CCCC2)c3C#N)=O)c(-c(cccc2)c2Cl)no1

> <Color>
NOT COLORED

> <Collection>
DC

> <InChI>
InChI=1S/C20H16ClN3O2S/c1-11-17(18(24-26-11)13-7-2-4-8-15(13)21)19(25)23-20-14(10-22)12-6-3-5-9-16(12)27-20/h2,4,7-8H,3,5-6,9H2,1H3,(H,23,25)

> <InChI Key>
IEYTVLZRFYNCEB-UHFFFAOYSA-N

> <PERCENTSP3>
25

> <Link>
https://www.chemdiv.com/catalog/screening-compounds/compound-8009-5648/

> <MFCDNUMBER>
MFCD01197445

> <CLNUMBER>
CL2451

> <STEREO>
ACHIRAL

> <State>
Solid

> <Similarity score>
0.20

$$$$
5-(4-bromophenyl)-N-(3-cyano-4,5,6,7-tetrahydro-1-benzothiophen-2-yl)-7-(trifluo
  -OEChem-04222410502D

 34 38  0     0  0  0  0  0  0999 V2000
   -1.0964    0.5196    0.0000 N   0  0  0  0  0  0  0  0  0  0  0  0
   -1.9043    0.9768    0.0000 C   0  0  0  0  0  0  0  0  0  0  0  0
   -1.0964   -0.4122    0.0000 C   0  0  0  0  0  0  0  0  0  0  0  0
    3.1344   -0.8950    0.0000 C   0  0  0  0  0  0  0  0  0  0  0  0
    0.5404    0.5196    0.0000 N   0  0  0  0  0  0  0  0  0  0  0  0
    4.0430   -0.4816    0.0000 C   0  0  0  0  0  0  0  0  0  0  0  0
    0.5404   -0.4122    0.0000 C   0  0  0  0  0  0  0  0  0  0  0  0
   -0.2761   -0.8782    0.0000 C   0  0  0  0  0  0  0  0  0  0  0  0
   -1.9043   -0.8782    0.0000 N   0  0  0  0  0  0  0  0  0  0  0  0
   -2.7334    0.5196    0.0000 C   0  0  0  0  0  0  0  0  0  0  0  0
    3.2435   -1.9107    0.0000 S   0  0  0  0  0  0  0  0  0  0  0  0
    4.7104   -1.2306    0.0000 C   0  0  0  0  0  0  0  0  0  0  0  0
   -1.9043    1.9780    0.0000 C   0  0  0  0  0  0  0  0  0  0  0  0
   -2.7334   -0.4122    0.0000 C   0  0  0  0  0  0  0  0  0  0  0  0
    2.2676   -0.3998    0.0000 N   0  0  0  0  0  0  0  0  0  0  0  0
    4.2320   -2.0682    0.0000 C   0  0  0  0  0  0  0  0  0  0  0  0
    1.4155   -0.9034    0.0000 C   0  0  0  0  0  0  0  0  0  0  0  0
    4.2571    0.4902    0.0000 C   0  0  0  0  0  0  0  0  0  0  0  0
    4.4692    1.4555    0.0000 N   0  0  0  0  0  0  0  0  0  0  0  0
   -3.5897   -0.9034    0.0000 C   0  0  0  0  0  0  0  0  0  0  0  0
    1.3988   -1.7847    0.0000 O   0  0  0  0  0  0  0  0  0  0  0  0
   -0.9119    1.9780    0.0000 F   0  0  0  0  0  0  0  0  0  0  0  0
   -2.9098    1.9780    0.0000 F   0  0  0  0  0  0  0  0  0  0  0  0
   -1.9043    2.9664    0.0000 F   0  0  0  0  0  0  0  0  0  0  0  0
   -4.4418   -0.3871    0.0000 C   0  0  0  0  0  0  0  0  0  0  0  0
   -3.5897   -1.9107    0.0000 C   0  0  0  0  0  0  0  0  0  0  0  0
   -5.3525   -1.8729    0.0000 C   0  0  0  0  0  0  0  0  0  0  0  0
    5.7114   -1.2036    0.0000 C   0  0  0  0  0  0  0  0  0  0  0  0
   -5.3358   -0.8782    0.0000 C   0  0  0  0  0  0  0  0  0  0  0  0
   -4.4963   -2.3892    0.0000 C   0  0  0  0  0  0  0  0  0  0  0  0
    4.7229   -2.9664    0.0000 C   0  0  0  0  0  0  0  0  0  0  0  0
   -6.2341   -2.3514    0.0000 Br  0  0  0  0  0  0  0  0  0  0  0  0
    6.2341   -2.0682    0.0000 C   0  0  0  0  0  0  0  0  0  0  0  0
    5.7429   -2.9433    0.0000 C   0  0  0  0  0  0  0  0  0  0  0  0
  1  2  1  0  0  0  0
  1  3  1  0  0  0  0
  4 15  1  0  0  0  0
  1  5  1  0  0  0  0
  4  6  2  0  0  0  0
  5  7  2  0  0  0  0
  3  8  2  0  0  0  0
  7  8  1  0  0  0  0
  3  9  1  0  0  0  0
  2 10  2  0  0  0  0
  4 11  1  0  0  0  0
  6 12  1  0  0  0  0
 12 16  2  0  0  0  0
  2 13  1  0  0  0  0
  9 14  2  0  0  0  0
 10 14  1  0  0  0  0
 15 17  1  0  0  0  0
 11 16  1  0  0  0  0
  7 17  1  0  0  0  0
  6 18  1  0  0  0  0
 18 19  3  0  0  0  0
 14 20  1  0  0  0  0
 17 21  2  0  0  0  0
 13 22  1  0  0  0  0
 13 23  1  0  0  0  0
 13 24  1  0  0  0  0
 20 25  2  0  0  0  0
 20 26  1  0  0  0  0
 27 30  1  0  0  0  0
 27 29  2  0  0  0  0
 12 28  1  0  0  0  0
 25 29  1  0  0  0  0
 26 30  2  0  0  0  0
 16 31  1  0  0  0  0
 27 32  1  0  0  0  0
 28 33  1  0  0  0  0
 33 34  1  0  0  0  0
 31 34  1  0  0  0  0
M  END
> <IDNUMBER>
K061-0771

> <available>
33

> <H_acceptor>
5

> <H_donor>
1

> <B_rotN>
6

> <N_O>
6

> <logP>
6.4993

> <logD>
4.8733

> <logSw>
-6.1631

> <PSA>
58.26

> <pKa_ma>
5.7844

> <pKa_mb>
1.5188

> <N_Chirals>
0

> <Name>
5-(4-bromophenyl)-N-(3-cyano-4,5,6,7-tetrahydro-1-benzothiophen-2-yl)-7-(trifluoromethyl)pyrazolo[1,5-a]pyrimidine-2-carboxamide

> <Smile>
N#Cc1c(NC(c2nn3c(C(F)(F)F)cc(-c(cc4)ccc4Br)nc3c2)=O)sc2c1CCCC2

> <Color>
YELLOW

> <Collection>
DC

> <InChI>
InChI=1S/C23H15BrF3N5OS/c24-13-7-5-12(6-8-13)16-9-19(23(25,26)27)32-20(29-16)10-17(31-32)21(33)30-22-15(11-28)14-3-1-2-4-18(14)34-22/h5-10H,1-4H2,(H,30,33)

> <InChI Key>
PKPXKBGUFNWZPE-UHFFFAOYSA-N

> <PERCENTSP3>
21.7

> <Link>
https://www.chemdiv.com/catalog/screening-compounds/compound-K061-0771/

> <MFCDNUMBER>
MFCD01417408

> <CLNUMBER>
CL1652

> <STEREO>
ACHIRAL

> <State>
Solid

> <Similarity score>
0.20

$$$$
3-(2-chlorophenyl)-N-(3-cyano-4,5,6,7,8,9-hexahydrocycloocta[b]thiophen-2-yl)-5-
  -OEChem-04222410502D

 29 32  0     0  0  0  0  0  0999 V2000
   -1.2731   -0.6458    0.0000 C   0  0  0  0  0  0  0  0  0  0  0  0
    0.7771   -0.6335    0.0000 C   0  0  0  0  0  0  0  0  0  0  0  0
   -2.2481   -0.5585    0.0000 C   0  0  0  0  0  0  0  0  0  0  0  0
    1.7813   -0.5959    0.0000 C   0  0  0  0  0  0  0  0  0  0  0  0
    0.2395   -1.5293    0.0000 C   0  0  0  0  0  0  0  0  0  0  0  0
    1.9771    0.3918    0.0000 N   0  0  0  0  0  0  0  0  0  0  0  0
   -0.8856    0.2792    0.0000 S   0  0  0  0  0  0  0  0  0  0  0  0
   -0.7605   -1.5293    0.0000 N   0  0  0  0  0  0  0  0  0  0  0  0
   -2.4815    0.3918    0.0000 C   0  0  0  0  0  0  0  0  0  0  0  0
   -1.6563    0.9417    0.0000 C   0  0  0  0  0  0  0  0  0  0  0  0
    2.4190   -1.3334    0.0000 C   0  0  0  0  0  0  0  0  0  0  0  0
    1.1187    0.8834    0.0000 O   0  0  0  0  0  0  0  0  0  0  0  0
    0.4062    0.2209    0.0000 C   0  0  0  0  0  0  0  0  0  0  0  0
   -2.9315   -1.3585    0.0000 C   0  0  0  0  0  0  0  0  0  0  0  0
   -3.5690   -2.1543    0.0000 N   0  0  0  0  0  0  0  0  0  0  0  0
    0.7145   -2.4085    0.0000 O   0  0  0  0  0  0  0  0  0  0  0  0
    3.3898   -1.1709    0.0000 C   0  0  0  0  0  0  0  0  0  0  0  0
    3.7188   -0.2541    0.0000 Cl  0  0  0  0  0  0  0  0  0  0  0  0
   -3.4940    0.6542    0.0000 C   0  0  0  0  0  0  0  0  0  0  0  0
   -1.4189    1.9044    0.0000 C   0  0  0  0  0  0  0  0  0  0  0  0
    2.1271   -2.2960    0.0000 C   0  0  0  0  0  0  0  0  0  0  0  0
   -0.5688    0.4584    0.0000 C   0  0  0  0  0  0  0  0  0  0  0  0
    4.0440   -1.8834    0.0000 C   0  0  0  0  0  0  0  0  0  0  0  0
   -4.0440    1.5084    0.0000 C   0  0  0  0  0  0  0  0  0  0  0  0
   -1.9689    2.7792    0.0000 C   0  0  0  0  0  0  0  0  0  0  0  0
    2.7689   -3.0210    0.0000 C   0  0  0  0  0  0  0  0  0  0  0  0
    3.7440   -2.8335    0.0000 C   0  0  0  0  0  0  0  0  0  0  0  0
   -3.8232    2.4835    0.0000 C   0  0  0  0  0  0  0  0  0  0  0  0
   -2.9440    3.0210    0.0000 C   0  0  0  0  0  0  0  0  0  0  0  0
  2  5  1  0  0  0  0
  1  3  2  0  0  0  0
  2  4  1  0  0  0  0
  5  8  1  0  0  0  0
  4  6  2  0  0  0  0
  6 12  1  0  0  0  0
  1  7  1  0  0  0  0
  1  8  1  0  0  0  0
  3  9  1  0  0  0  0
  9 10  2  0  0  0  0
  7 10  1  0  0  0  0
  4 11  1  0  0  0  0
 12 13  1  0  0  0  0
  2 13  2  0  0  0  0
  3 14  1  0  0  0  0
 14 15  3  0  0  0  0
  5 16  2  0  0  0  0
 11 17  1  0  0  0  0
 17 18  1  0  0  0  0
  9 19  1  0  0  0  0
 10 20  1  0  0  0  0
 11 21  2  0  0  0  0
 13 22  1  0  0  0  0
 17 23  2  0  0  0  0
 19 24  1  0  0  0  0
 20 25  1  0  0  0  0
 21 26  1  0  0  0  0
 26 27  2  0  0  0  0
 23 27  1  0  0  0  0
 24 28  1  0  0  0  0
 25 29  1  0  0  0  0
 28 29  1  0  0  0  0
M  END
> <IDNUMBER>
Y509-7636

> <available>
21

> <H_acceptor>
5

> <H_donor>
1

> <B_rotN>
5

> <N_O>
5

> <logP>
5.5

> <logD>
2.748

> <logSw>
-5.831

> <PSA>
62.39

> <pKa_ma>
4.648

> <pKa_mb>
-6.812

> <N_Chirals>
0

> <Name>
3-(2-chlorophenyl)-N-(3-cyano-4,5,6,7,8,9-hexahydrocycloocta[b]thiophen-2-yl)-5-methyl-1,2-oxazole-4-carboxamide

> <Smile>
c1(c(c2c(s1)CCCCCC2)C#N)NC(c1c(noc1C)c1c(Cl)cccc1)=O

> <Color>
BROWN

> <Collection>
DC

> <InChI>
InChI=1S/C22H20ClN3O2S/c1-13-19(20(26-28-13)15-9-6-7-10-17(15)23)21(27)25-22-16(12-24)14-8-4-2-3-5-11-18(14)29-22/h6-7,9-10H,2-5,8,11H2,1H3,(H,25,27)

> <InChI Key>
ZYOACJCWPUYMAG-UHFFFAOYSA-N

> <PERCENTSP3>
31.82

> <Link>
https://www.chemdiv.com/catalog/screening-compounds/compound-Y509-7636/

> <MFCDNUMBER>
MFCD01349375

> <CLNUMBER>
CL2451

> <STEREO>
ACHIRAL

> <State>
Solid

> <Similarity score>
0.20

$$$$
3-(2-chlorophenyl)-N-(3-cyano-5,6,7,8-tetrahydro-4H-cyclohepta[b]thiophen-2-yl)-
  -OEChem-04222410502D

 28 31  0     0  0  0  0  0  0999 V2000
   -1.4936    0.0312    0.0000 C   0  0  0  0  0  0  0  0  0  0  0  0
    0.5394   -1.7352    0.0000 C   0  0  0  0  0  0  0  0  0  0  0  0
   -2.4643    0.1521    0.0000 C   0  0  0  0  0  0  0  0  0  0  0  0
    1.5518   -1.8061    0.0000 C   0  0  0  0  0  0  0  0  0  0  0  0
    0.0146   -0.8604    0.0000 C   0  0  0  0  0  0  0  0  0  0  0  0
    1.7935   -2.8185    0.0000 N   0  0  0  0  0  0  0  0  0  0  0  0
   -1.0644    0.9227    0.0000 S   0  0  0  0  0  0  0  0  0  0  0  0
   -0.9895   -0.8604    0.0000 N   0  0  0  0  0  0  0  0  0  0  0  0
   -2.6518    1.1309    0.0000 C   0  0  0  0  0  0  0  0  0  0  0  0
   -1.7978    1.6310    0.0000 C   0  0  0  0  0  0  0  0  0  0  0  0
    2.1976   -1.0144    0.0000 C   0  0  0  0  0  0  0  0  0  0  0  0
    0.9477   -3.3516    0.0000 O   0  0  0  0  0  0  0  0  0  0  0  0
    0.1562   -2.7018    0.0000 C   0  0  0  0  0  0  0  0  0  0  0  0
   -3.1601   -0.5896    0.0000 C   0  0  0  0  0  0  0  0  0  0  0  0
   -3.8475   -1.3602    0.0000 N   0  0  0  0  0  0  0  0  0  0  0  0
    0.5145    0.0187    0.0000 O   0  0  0  0  0  0  0  0  0  0  0  0
    3.2099   -1.1644    0.0000 C   0  0  0  0  0  0  0  0  0  0  0  0
    3.5684   -2.0934    0.0000 Cl  0  0  0  0  0  0  0  0  0  0  0  0
   -3.5725    1.5269    0.0000 C   0  0  0  0  0  0  0  0  0  0  0  0
   -1.6269    2.5976    0.0000 C   0  0  0  0  0  0  0  0  0  0  0  0
    1.8393   -0.0564    0.0000 C   0  0  0  0  0  0  0  0  0  0  0  0
   -0.4729   -2.9100    0.0000 C   0  0  0  0  0  0  0  0  0  0  0  0
    3.8558   -0.3812    0.0000 C   0  0  0  0  0  0  0  0  0  0  0  0
   -3.8558    2.4851    0.0000 C   0  0  0  0  0  0  0  0  0  0  0  0
   -2.2935    3.3516    0.0000 C   0  0  0  0  0  0  0  0  0  0  0  0
    2.4767    0.7437    0.0000 C   0  0  0  0  0  0  0  0  0  0  0  0
    3.4974    0.5854    0.0000 C   0  0  0  0  0  0  0  0  0  0  0  0
   -3.2934    3.2850    0.0000 C   0  0  0  0  0  0  0  0  0  0  0  0
  2  5  1  0  0  0  0
  1  3  2  0  0  0  0
  2  4  1  0  0  0  0
  5  8  1  0  0  0  0
  4  6  2  0  0  0  0
  6 12  1  0  0  0  0
  1  7  1  0  0  0  0
  1  8  1  0  0  0  0
  3  9  1  0  0  0  0
  9 10  2  0  0  0  0
  7 10  1  0  0  0  0
  4 11  1  0  0  0  0
 12 13  1  0  0  0  0
  2 13  2  0  0  0  0
  3 14  1  0  0  0  0
 14 15  3  0  0  0  0
  5 16  2  0  0  0  0
 11 17  2  0  0  0  0
 17 18  1  0  0  0  0
  9 19  1  0  0  0  0
 10 20  1  0  0  0  0
 11 21  1  0  0  0  0
 13 22  1  0  0  0  0
 17 23  1  0  0  0  0
 23 27  2  0  0  0  0
 19 24  1  0  0  0  0
 24 28  1  0  0  0  0
 20 25  1  0  0  0  0
 21 26  2  0  0  0  0
 26 27  1  0  0  0  0
 25 28  1  0  0  0  0
M  END
> <IDNUMBER>
Y205-1523

> <available>
21

> <H_acceptor>
5

> <H_donor>
1

> <B_rotN>
5

> <N_O>
5

> <logP>
5.0045

> <logD>
2.2516

> <logSw>
-5.0998

> <PSA>
62.392

> <pKa_ma>
4.6479

> <pKa_mb>
-6.7294

> <N_Chirals>
0

> <Name>
3-(2-chlorophenyl)-N-(3-cyano-5,6,7,8-tetrahydro-4H-cyclohepta[b]thiophen-2-yl)-5-methyl-1,2-oxazole-4-carboxamide

> <Smile>
Cc1c(C(Nc(sc2c3CCCCC2)c3C#N)=O)c(-c(cccc2)c2Cl)no1

> <Color>
BROWN

> <Collection>
DC

> <InChI>
InChI=1S/C21H18ClN3O2S/c1-12-18(19(25-27-12)14-8-5-6-9-16(14)22)20(26)24-21-15(11-23)13-7-3-2-4-10-17(13)28-21/h5-6,8-9H,2-4,7,10H2,1H3,(H,24,26)

> <InChI Key>
PYRADUXWQSGPRH-UHFFFAOYSA-N

> <PERCENTSP3>
28.57

> <Link>
https://www.chemdiv.com/catalog/screening-compounds/compound-Y205-1523/

> <MFCDNUMBER>
MFCD03386073

> <CLNUMBER>
CL2451

> <STEREO>
ACHIRAL

> <State>
Solid

> <Similarity score>
0.20

$$$$
N-(3-cyano-5,6-dihydro-4H-cyclopenta[b]thiophen-2-yl)-5-methyl-4-[(4-nitrophenox
  -OEChem-04222410502D

 30 33  0     0  0  0  0  0  0999 V2000
    2.8232    0.0604    0.0000 C   0  0  0  0  0  0  0  0  0  0  0  0
    0.8104    1.7898    0.0000 C   0  0  0  0  0  0  0  0  0  0  0  0
    2.3858   -0.8187    0.0000 C   0  0  0  0  0  0  0  0  0  0  0  0
   -0.1731    1.9064    0.0000 C   0  0  0  0  0  0  0  0  0  0  0  0
    1.2273    2.6983    0.0000 N   0  0  0  0  0  0  0  0  0  0  0  0
    3.8401   -0.1188    0.0000 S   0  0  0  0  0  0  0  0  0  0  0  0
    1.3190    0.9231    0.0000 C   0  0  0  0  0  0  0  0  0  0  0  0
    3.0732   -1.5397    0.0000 C   0  0  0  0  0  0  0  0  0  0  0  0
    2.3274    0.9231    0.0000 N   0  0  0  0  0  0  0  0  0  0  0  0
    3.9734   -1.1230    0.0000 C   0  0  0  0  0  0  0  0  0  0  0  0
   -3.7235   -2.3898    0.0000 N   0  3  0  0  0  0  0  0  0  0  0  0
    0.4896    3.3733    0.0000 O   0  0  0  0  0  0  0  0  0  0  0  0
   -0.3730    2.8777    0.0000 C   0  0  0  0  0  0  0  0  0  0  0  0
    1.3897   -0.9814    0.0000 C   0  0  0  0  0  0  0  0  0  0  0  0
   -0.9314    1.2314    0.0000 C   0  0  0  0  0  0  0  0  0  0  0  0
    0.4188   -1.1355    0.0000 N   0  0  0  0  0  0  0  0  0  0  0  0
   -2.9776   -1.7272    0.0000 C   0  0  0  0  0  0  0  0  0  0  0  0
   -4.6694   -2.0731    0.0000 O   0  5  0  0  0  0  0  0  0  0  0  0
   -3.5235   -3.3733    0.0000 O   0  0  0  0  0  0  0  0  0  0  0  0
    0.8228    0.0604    0.0000 O   0  0  0  0  0  0  0  0  0  0  0  0
   -0.7273    0.2605    0.0000 O   0  0  0  0  0  0  0  0  0  0  0  0
   -2.0315   -2.0481    0.0000 C   0  0  0  0  0  0  0  0  0  0  0  0
   -3.1777   -0.7437    0.0000 C   0  0  0  0  0  0  0  0  0  0  0  0
   -1.4730   -0.4020    0.0000 C   0  0  0  0  0  0  0  0  0  0  0  0
    3.2150   -2.5315    0.0000 C   0  0  0  0  0  0  0  0  0  0  0  0
    4.6694   -1.8606    0.0000 C   0  0  0  0  0  0  0  0  0  0  0  0
   -2.4233   -0.0813    0.0000 C   0  0  0  0  0  0  0  0  0  0  0  0
   -1.2731   -1.3855    0.0000 C   0  0  0  0  0  0  0  0  0  0  0  0
   -1.2857    3.3026    0.0000 C   0  0  0  0  0  0  0  0  0  0  0  0
    4.1860   -2.7107    0.0000 C   0  0  0  0  0  0  0  0  0  0  0  0
  2  7  1  0  0  0  0
  1  3  2  0  0  0  0
  2  4  1  0  0  0  0
  2  5  2  0  0  0  0
  1  6  1  0  0  0  0
  7  9  1  0  0  0  0
  3  8  1  0  0  0  0
  8 10  2  0  0  0  0
  1  9  1  0  0  0  0
  6 10  1  0  0  0  0
 11 17  1  0  0  0  0
  5 12  1  0  0  0  0
 12 13  1  0  0  0  0
  4 13  2  0  0  0  0
  3 14  1  0  0  0  0
  4 15  1  0  0  0  0
 14 16  3  0  0  0  0
 17 22  1  0  0  0  0
 11 18  1  0  0  0  0
 11 19  2  0  0  0  0
  7 20  2  0  0  0  0
 15 21  1  0  0  0  0
 22 28  2  0  0  0  0
 23 27  1  0  0  0  0
 17 23  2  0  0  0  0
 21 24  1  0  0  0  0
  8 25  1  0  0  0  0
 25 30  1  0  0  0  0
 10 26  1  0  0  0  0
 24 27  2  0  0  0  0
 24 28  1  0  0  0  0
 13 29  1  0  0  0  0
 26 30  1  0  0  0  0
M  CHG  2  11   1  18  -1
M  END
> <IDNUMBER>
Y501-2467

> <available>
17

> <H_acceptor>
10

> <H_donor>
1

> <B_rotN>
8

> <N_O>
9

> <logP>
3.8492

> <logD>
1.3615

> <logSw>
-4.2784

> <PSA>
103.308

> <pKa_ma>
4.9137

> <pKa_mb>
-6.5152

> <N_Chirals>
0

> <Name>
N-(3-cyano-5,6-dihydro-4H-cyclopenta[b]thiophen-2-yl)-5-methyl-4-[(4-nitrophenoxy)methyl]-1,2-oxazole-3-carboxamide

> <Smile>
Cc1c(COc(cc2)ccc2[N+]([O-])=O)c(C(Nc(sc2c3CCC2)c3C#N)=O)no1

> <Color>
BROWN

> <Collection>
DC

> <InChI>
InChI=1S/C20H16N4O5S/c1-11-16(10-28-13-7-5-12(6-8-13)24(26)27)18(23-29-11)19(25)22-20-15(9-21)14-3-2-4-17(14)30-20/h5-8H,2-4,10H2,1H3,(H,22,25)

> <InChI Key>
BZKKAAWEHXQYMU-UHFFFAOYSA-N

> <PERCENTSP3>
25

> <Link>
https://www.chemdiv.com/catalog/screening-compounds/compound-Y501-2467/

> <MFCDNUMBER>
MFCD08557403

> <STEREO>
ACHIRAL

> <State>
Solid

> <Similarity score>
0.20

$$$$
N-(3-cyano-4,5,6,7-tetrahydro-1-benzothiophen-2-yl)-5-(2-methyl-2,3-dihydro-1-be
  -OEChem-04222410502D

 30 34  0     0  0  0  0  0  0999 V2000
   -1.9170    1.4959    0.0000 C   0  0  0  0  0  0  0  0  0  0  0  0
   -2.5045    2.3002    0.0000 C   0  0  0  0  0  0  0  0  0  0  0  0
    0.5708    0.6083    0.0000 C   0  0  0  0  0  0  0  0  0  0  0  0
   -2.5087    0.6833    0.0000 S   0  0  0  0  0  0  0  0  0  0  0  0
   -3.4547    1.9961    0.0000 C   0  0  0  0  0  0  0  0  0  0  0  0
    1.1585    1.4084    0.0000 N   0  0  0  0  0  0  0  0  0  0  0  0
   -0.9168    1.4834    0.0000 N   0  0  0  0  0  0  0  0  0  0  0  0
    1.1585   -0.2043    0.0000 C   0  0  0  0  0  0  0  0  0  0  0  0
   -3.4588    0.9960    0.0000 C   0  0  0  0  0  0  0  0  0  0  0  0
   -0.4168    0.6125    0.0000 C   0  0  0  0  0  0  0  0  0  0  0  0
    2.1086    0.0875    0.0000 C   0  0  0  0  0  0  0  0  0  0  0  0
    2.1086    1.0876    0.0000 O   0  0  0  0  0  0  0  0  0  0  0  0
   -2.1920    3.2504    0.0000 C   0  0  0  0  0  0  0  0  0  0  0  0
    3.5964   -2.0794    0.0000 C   0  0  0  0  0  0  0  0  0  0  0  0
    5.1924   -2.4295    0.0000 O   0  0  0  0  0  0  0  0  0  0  0  0
    4.5216   -1.6877    0.0000 C   0  0  0  0  0  0  0  0  0  0  0  0
    2.9171   -0.5041    0.0000 C   0  0  0  0  0  0  0  0  0  0  0  0
   -1.9337    4.2172    0.0000 N   0  0  0  0  0  0  0  0  0  0  0  0
    2.7964   -1.4920    0.0000 C   0  0  0  0  0  0  0  0  0  0  0  0
    3.6965   -3.0878    0.0000 C   0  0  0  0  0  0  0  0  0  0  0  0
   -0.9293   -0.2500    0.0000 O   0  0  0  0  0  0  0  0  0  0  0  0
    4.6840   -3.3046    0.0000 C   0  0  3  0  0  0  0  0  0  0  0  0
    4.6298   -0.6794    0.0000 C   0  0  0  0  0  0  0  0  0  0  0  0
    3.8172   -0.0957    0.0000 C   0  0  0  0  0  0  0  0  0  0  0  0
   -4.3090    2.5003    0.0000 C   0  0  0  0  0  0  0  0  0  0  0  0
   -4.3298    0.5084    0.0000 C   0  0  0  0  0  0  0  0  0  0  0  0
    5.0716   -4.2172    0.0000 C   0  0  0  0  0  0  0  0  0  0  0  0
   -5.1799    2.0169    0.0000 C   0  0  0  0  0  0  0  0  0  0  0  0
   -5.1924    1.0127    0.0000 C   0  0  0  0  0  0  0  0  0  0  0  0
   -0.4168    2.3460    0.0000 H   0  0  0  0  0  0  0  0  0  0  0  0
  1  2  2  0  0  0  0
  3 10  1  0  0  0  0
  1  4  1  0  0  0  0
  2  5  1  0  0  0  0
  3  6  2  0  0  0  0
  1  7  1  0  0  0  0
  3  8  1  0  0  0  0
  4  9  1  0  0  0  0
  5  9  2  0  0  0  0
  7 10  1  0  0  0  0
  8 11  2  0  0  0  0
 11 12  1  0  0  0  0
  6 12  1  0  0  0  0
  2 13  1  0  0  0  0
 14 19  1  0  0  0  0
 15 16  1  0  0  0  0
 16 23  1  0  0  0  0
 14 16  2  0  0  0  0
 11 17  1  0  0  0  0
 13 18  3  0  0  0  0
 17 19  2  0  0  0  0
 14 20  1  0  0  0  0
 10 21  2  0  0  0  0
 20 22  1  0  0  0  0
 15 22  1  0  0  0  0
 23 24  2  0  0  0  0
 17 24  1  0  0  0  0
  5 25  1  0  0  0  0
  9 26  1  0  0  0  0
 22 27  1  0  0  0  0
 25 28  1  0  0  0  0
 26 29  1  0  0  0  0
 28 29  1  0  0  0  0
  7 30  1  0  0  0  0
M  END
> <IDNUMBER>
D337-1093

> <available>
64

> <H_acceptor>
6

> <H_donor>
1

> <B_rotN>
5

> <N_O>
6

> <logP>
4.8655

> <logD>
3.5744

> <logSw>
-4.7257

> <PSA>
69.038

> <pKa_ma>
6.1318

> <pKa_mb>
-6.3269

> <N_Chirals>
1

> <Name>
N-(3-cyano-4,5,6,7-tetrahydro-1-benzothiophen-2-yl)-5-(2-methyl-2,3-dihydro-1-benzofuran-5-yl)-1,2-oxazole-3-carboxamide

> <Smile>
CC(C1)Oc(cc2)c1cc2-c1cc(C(Nc(sc2c3CCCC2)c3C#N)=O)no1

> <Color>
ORANGE

> <Collection>
DC

> <InChI>
InChI=1S/C22H19N3O3S/c1-12-8-14-9-13(6-7-18(14)27-12)19-10-17(25-28-19)21(26)24-22-16(11-23)15-4-2-3-5-20(15)29-22/h6-7,9-10,12H,2-5,8H2,1H3,(H,24,26)/t12-/m1/s1

> <InChI Key>
ZRFPTQSWEYXVAA-GFCCVEGCSA-N

> <PERCENTSP3>
31.8

> <Link>
https://www.chemdiv.com/catalog/screening-compounds/compound-D337-1093/

> <MFCDNUMBER>
MFCD08545738

> <CLNUMBER>
CL2028

> <STEREO>
RACEMIC MIXTURE

> <State>
Solid

> <Similarity score>
0.20

$$$$
N-(3-cyano-4,5,6,7-tetrahydro-1-benzothiophen-2-yl)-5-(3-methoxyphenyl)-1,2-oxaz
  -OEChem-04222410502D

 27 30  0     0  0  0  0  0  0999 V2000
   -1.6810   -1.8937    0.0000 C   0  0  0  0  0  0  0  0  0  0  0  0
   -1.0746   -2.6665    0.0000 C   0  0  0  0  0  0  0  0  0  0  0  0
   -0.8608    1.3401    0.0000 C   0  0  0  0  0  0  0  0  0  0  0  0
   -2.6048   -2.2259    0.0000 S   0  0  0  0  0  0  0  0  0  0  0  0
   -1.6056   -3.4844    0.0000 C   0  0  0  0  0  0  0  0  0  0  0  0
   -1.6206    1.9215    0.0000 N   0  0  0  0  0  0  0  0  0  0  0  0
   -1.6810   -0.8795    0.0000 N   0  0  0  0  0  0  0  0  0  0  0  0
   -0.0728    1.8761    0.0000 C   0  0  0  0  0  0  0  0  0  0  0  0
   -2.5645   -3.2201    0.0000 C   0  0  0  0  0  0  0  0  0  0  0  0
   -0.8156   -0.3789    0.0000 C   0  0  0  0  0  0  0  0  0  0  0  0
   -0.3446    2.7873    0.0000 C   0  0  0  0  0  0  0  0  0  0  0  0
   -1.3012    2.8124    0.0000 O   0  0  0  0  0  0  0  0  0  0  0  0
   -0.0578   -2.6034    0.0000 C   0  0  0  0  0  0  0  0  0  0  0  0
    0.9511   -2.5732    0.0000 N   0  0  0  0  0  0  0  0  0  0  0  0
    0.2466    3.5396    0.0000 C   0  0  0  0  0  0  0  0  0  0  0  0
   -0.0026   -0.8795    0.0000 O   0  0  0  0  0  0  0  0  0  0  0  0
    1.1828    3.4188    0.0000 C   0  0  0  0  0  0  0  0  0  0  0  0
    1.7591    4.1662    0.0000 C   0  0  0  0  0  0  0  0  0  0  0  0
   -1.3464   -4.4530    0.0000 C   0  0  0  0  0  0  0  0  0  0  0  0
   -3.2868   -3.9246    0.0000 C   0  0  0  0  0  0  0  0  0  0  0  0
    2.7003    4.0302    0.0000 O   0  0  0  0  0  0  0  0  0  0  0  0
   -0.1234    4.4078    0.0000 C   0  0  0  0  0  0  0  0  0  0  0  0
    0.4556    5.1680    0.0000 C   0  0  0  0  0  0  0  0  0  0  0  0
    1.3942    5.0448    0.0000 C   0  0  0  0  0  0  0  0  0  0  0  0
    3.2868    4.7880    0.0000 C   0  0  0  0  0  0  0  0  0  0  0  0
   -2.0586   -5.1680    0.0000 C   0  0  0  0  0  0  0  0  0  0  0  0
   -3.0301   -4.9036    0.0000 C   0  0  0  0  0  0  0  0  0  0  0  0
  1  2  2  0  0  0  0
  3 10  1  0  0  0  0
  1  4  1  0  0  0  0
  2  5  1  0  0  0  0
  3  6  2  0  0  0  0
  1  7  1  0  0  0  0
  3  8  1  0  0  0  0
  4  9  1  0  0  0  0
  5  9  2  0  0  0  0
  7 10  1  0  0  0  0
  8 11  2  0  0  0  0
 11 12  1  0  0  0  0
  6 12  1  0  0  0  0
  2 13  1  0  0  0  0
 13 14  3  0  0  0  0
 11 15  1  0  0  0  0
 10 16  2  0  0  0  0
 15 17  2  0  0  0  0
 17 18  1  0  0  0  0
 18 24  2  0  0  0  0
  5 19  1  0  0  0  0
  9 20  1  0  0  0  0
 18 21  1  0  0  0  0
 15 22  1  0  0  0  0
 22 23  2  0  0  0  0
 23 24  1  0  0  0  0
 21 25  1  0  0  0  0
 19 26  1  0  0  0  0
 26 27  1  0  0  0  0
 20 27  1  0  0  0  0
M  END
> <IDNUMBER>
C226-0889

> <available>
118

> <H_acceptor>
6

> <H_donor>
1

> <B_rotN>
6

> <N_O>
6

> <logP>
4.4551

> <logD>
3.1641

> <logSw>
-4.4893

> <PSA>
69.18

> <pKa_ma>
6.1318

> <pKa_mb>
-6.8683

> <N_Chirals>
0

> <Name>
N-(3-cyano-4,5,6,7-tetrahydro-1-benzothiophen-2-yl)-5-(3-methoxyphenyl)-1,2-oxazole-3-carboxamide

> <Smile>
COc1cccc(-c2cc(C(Nc(sc3c4CCCC3)c4C#N)=O)no2)c1

> <Color>
NOT COLORED

> <Collection>
DC

> <InChI>
InChI=1S/C20H17N3O3S/c1-25-13-6-4-5-12(9-13)17-10-16(23-26-17)19(24)22-20-15(11-21)14-7-2-3-8-18(14)27-20/h4-6,9-10H,2-3,7-8H2,1H3,(H,22,24)

> <InChI Key>
SGBTUQGUXSHNJF-UHFFFAOYSA-N

> <PERCENTSP3>
25

> <Link>
https://www.chemdiv.com/catalog/screening-compounds/compound-C226-0889/

> <MFCDNUMBER>
MFCD09782061

> <CLNUMBER>
CL2028

> <STEREO>
ACHIRAL

> <State>
Solid

> <Similarity score>
0.20

$$$$
N-(6-tert-butyl-3-cyano-4,5,6,7-tetrahydro-1-benzothiophen-2-yl)-4,5,6,7-tetrahy
  -OEChem-04222410502D

 27 30  0     0  0  0  0  0  0999 V2000
   -0.2489   -0.1276    0.0000 C   0  0  0  0  0  0  0  0  0  0  0  0
   -1.0559   -0.6835    0.0000 C   0  0  0  0  0  0  0  0  0  0  0  0
    0.5816    2.9347    0.0000 C   0  0  0  0  0  0  0  0  0  0  0  0
    0.2296   -1.6664    0.0000 C   0  0  0  0  0  0  0  0  0  0  0  0
   -0.7792   -1.6471    0.0000 C   0  0  0  0  0  0  0  0  0  0  0  0
   -0.0987    3.5850    0.0000 N   0  0  0  0  0  0  0  0  0  0  0  0
    0.5516   -0.7288    0.0000 S   0  0  0  0  0  0  0  0  0  0  0  0
    1.4227    3.6001    0.0000 C   0  0  0  0  0  0  0  0  0  0  0  0
    0.6116    1.3831    0.0000 C   0  0  0  0  0  0  0  0  0  0  0  0
   -0.2489    0.8852    0.0000 N   0  0  0  0  0  0  0  0  0  0  0  0
    0.1826    4.4779    0.0000 O   0  0  0  0  0  0  0  0  0  0  0  0
    1.1245    4.4928    0.0000 C   0  0  0  0  0  0  0  0  0  0  0  0
   -1.9981   -0.3530    0.0000 C   0  0  0  0  0  0  0  0  0  0  0  0
    0.7015   -2.5419    0.0000 C   0  0  0  0  0  0  0  0  0  0  0  0
   -2.9509   -0.0204    0.0000 N   0  0  0  0  0  0  0  0  0  0  0  0
   -1.2918   -2.4927    0.0000 C   0  0  0  0  0  0  0  0  0  0  0  0
    0.1736   -3.3982    0.0000 C   0  0  3  0  0  0  0  0  0  0  0  0
    0.6526   -4.2911    0.0000 C   0  0  0  0  0  0  0  0  0  0  0  0
    1.4227    0.8896    0.0000 O   0  0  0  0  0  0  0  0  0  0  0  0
   -0.8134   -3.3684    0.0000 C   0  0  0  0  0  0  0  0  0  0  0  0
    2.3264    3.4200    0.0000 C   0  0  0  0  0  0  0  0  0  0  0  0
    1.7447    5.1881    0.0000 C   0  0  0  0  0  0  0  0  0  0  0  0
   -0.2489   -4.7590    0.0000 C   0  0  0  0  0  0  0  0  0  0  0  0
    1.5430   -3.8276    0.0000 C   0  0  0  0  0  0  0  0  0  0  0  0
    1.1096   -5.1881    0.0000 C   0  0  0  0  0  0  0  0  0  0  0  0
    2.9509    4.1088    0.0000 C   0  0  0  0  0  0  0  0  0  0  0  0
    2.6505    5.0057    0.0000 C   0  0  0  0  0  0  0  0  0  0  0  0
  1  2  2  0  0  0  0
  3  9  1  0  0  0  0
  4  7  1  0  0  0  0
  4  5  2  0  0  0  0
  2  5  1  0  0  0  0
  3  6  2  0  0  0  0
  1  7  1  0  0  0  0
  3  8  1  0  0  0  0
  9 10  1  0  0  0  0
  1 10  1  0  0  0  0
  6 11  1  0  0  0  0
  8 12  2  0  0  0  0
 11 12  1  0  0  0  0
  2 13  1  0  0  0  0
  4 14  1  0  0  0  0
 13 15  3  0  0  0  0
  5 16  1  0  0  0  0
 14 17  1  0  0  0  0
 17 18  1  0  0  0  0
  9 19  2  0  0  0  0
 16 20  1  0  0  0  0
 17 20  1  0  0  0  0
  8 21  1  0  0  0  0
 12 22  1  0  0  0  0
 18 23  1  0  0  0  0
 18 24  1  0  0  0  0
 18 25  1  0  0  0  0
 21 26  1  0  0  0  0
 26 27  1  0  0  0  0
 22 27  1  0  0  0  0
M  END
> <IDNUMBER>
C226-3405

> <available>
220

> <H_acceptor>
5

> <H_donor>
1

> <B_rotN>
5

> <N_O>
5

> <logP>
5.0495

> <logD>
2.8678

> <logSw>
-4.6096

> <PSA>
62.501

> <pKa_ma>
5.2212

> <pKa_mb>
-5.5427

> <N_Chirals>
1

> <Name>
N-(6-tert-butyl-3-cyano-4,5,6,7-tetrahydro-1-benzothiophen-2-yl)-4,5,6,7-tetrahydro-1,2-benzoxazole-3-carboxamide

> <Smile>
CC(C)(C)C(CC1)Cc2c1c(C#N)c(NC(c1noc3c1CCCC3)=O)s2

> <Color>
NOT COLORED

> <Collection>
DC

> <InChI>
InChI=1S/C21H25N3O2S/c1-21(2,3)12-8-9-13-15(11-22)20(27-17(13)10-12)23-19(25)18-14-6-4-5-7-16(14)26-24-18/h12H,4-10H2,1-3H3,(H,23,25)/t12-/m1/s1

> <InChI Key>
YSLLOKYIJDDBBV-GFCCVEGCSA-N

> <PERCENTSP3>
57.1

> <Link>
https://www.chemdiv.com/catalog/screening-compounds/compound-C226-3405/

> <MFCDNUMBER>
MFCD09783055

> <CLNUMBER>
CL2031

> <STEREO>
RACEMIC MIXTURE

> <CAS>
912800-47-6

> <State>
Solid

> <Similarity score>
0.20

$$$$
N-(6-tert-butyl-3-cyano-4,5,6,7-tetrahydro-1-benzothiophen-2-yl)-5,6,7,8-tetrahy
  -OEChem-04222410502D

 28 31  0     0  0  0  0  0  0999 V2000
   -0.2948   -0.2327    0.0000 C   0  0  0  0  0  0  0  0  0  0  0  0
   -1.1018   -0.7886    0.0000 C   0  0  0  0  0  0  0  0  0  0  0  0
    0.4602    3.0260    0.0000 C   0  0  0  0  0  0  0  0  0  0  0  0
    0.1834   -1.7709    0.0000 C   0  0  0  0  0  0  0  0  0  0  0  0
   -0.8250   -1.7516    0.0000 C   0  0  0  0  0  0  0  0  0  0  0  0
   -0.2948    3.6309    0.0000 N   0  0  0  0  0  0  0  0  0  0  0  0
    0.5052   -0.8336    0.0000 S   0  0  0  0  0  0  0  0  0  0  0  0
    1.2603    3.5687    0.0000 C   0  0  0  0  0  0  0  0  0  0  0  0
    0.5652    1.2774    0.0000 C   0  0  0  0  0  0  0  0  0  0  0  0
   -0.2948    0.7798    0.0000 N   0  0  0  0  0  0  0  0  0  0  0  0
    0.0461    4.5319    0.0000 O   0  0  0  0  0  0  0  0  0  0  0  0
    1.0029    4.4912    0.0000 C   0  0  0  0  0  0  0  0  0  0  0  0
   -2.0434   -0.4580    0.0000 C   0  0  0  0  0  0  0  0  0  0  0  0
    0.6553   -2.6462    0.0000 C   0  0  0  0  0  0  0  0  0  0  0  0
   -2.9959   -0.1257    0.0000 N   0  0  0  0  0  0  0  0  0  0  0  0
   -1.3376   -2.5971    0.0000 C   0  0  0  0  0  0  0  0  0  0  0  0
    0.1277   -3.5022    0.0000 C   0  0  3  0  0  0  0  0  0  0  0  0
    0.6060   -4.3948    0.0000 C   0  0  0  0  0  0  0  0  0  0  0  0
    1.3657    0.7496    0.0000 O   0  0  0  0  0  0  0  0  0  0  0  0
   -0.8592   -3.4723    0.0000 C   0  0  0  0  0  0  0  0  0  0  0  0
    1.9705    3.1760    0.0000 C   0  0  0  0  0  0  0  0  0  0  0  0
    1.4364    5.2012    0.0000 C   0  0  0  0  0  0  0  0  0  0  0  0
   -0.2948   -4.8624    0.0000 C   0  0  0  0  0  0  0  0  0  0  0  0
    1.4963   -3.9313    0.0000 C   0  0  0  0  0  0  0  0  0  0  0  0
    1.0631   -5.2913    0.0000 C   0  0  0  0  0  0  0  0  0  0  0  0
    2.8094    3.5687    0.0000 C   0  0  0  0  0  0  0  0  0  0  0  0
    2.3608    5.2913    0.0000 C   0  0  0  0  0  0  0  0  0  0  0  0
    2.9959    4.5363    0.0000 C   0  0  0  0  0  0  0  0  0  0  0  0
  1  2  2  0  0  0  0
  3  9  1  0  0  0  0
  4  7  1  0  0  0  0
  4  5  2  0  0  0  0
  2  5  1  0  0  0  0
  3  6  2  0  0  0  0
  1  7  1  0  0  0  0
  3  8  1  0  0  0  0
  9 10  1  0  0  0  0
  1 10  1  0  0  0  0
  6 11  1  0  0  0  0
  8 12  2  0  0  0  0
 11 12  1  0  0  0  0
  2 13  1  0  0  0  0
  4 14  1  0  0  0  0
 13 15  3  0  0  0  0
  5 16  1  0  0  0  0
 14 17  1  0  0  0  0
 17 18  1  0  0  0  0
  9 19  2  0  0  0  0
 16 20  1  0  0  0  0
 17 20  1  0  0  0  0
  8 21  1  0  0  0  0
 12 22  1  0  0  0  0
 18 23  1  0  0  0  0
 18 24  1  0  0  0  0
 18 25  1  0  0  0  0
 21 26  1  0  0  0  0
 22 27  1  0  0  0  0
 26 28  1  0  0  0  0
 27 28  1  0  0  0  0
M  END
> <IDNUMBER>
C226-3519

> <available>
242

> <H_acceptor>
5

> <H_donor>
1

> <B_rotN>
5

> <N_O>
5

> <logP>
5.5454

> <logD>
3.3637

> <logSw>
-5.1755

> <PSA>
62.832

> <pKa_ma>
5.2212

> <pKa_mb>
-5.3039

> <N_Chirals>
1

> <Name>
N-(6-tert-butyl-3-cyano-4,5,6,7-tetrahydro-1-benzothiophen-2-yl)-5,6,7,8-tetrahydro-4H-cyclohepta[d][1,2]oxazole-3-carboxamide

> <Smile>
CC(C)(C)C(CC1)Cc2c1c(C#N)c(NC(c1noc3c1CCCCC3)=O)s2

> <Color>
NOT COLORED

> <Collection>
DC

> <InChI>
InChI=1S/C22H27N3O2S/c1-22(2,3)13-9-10-14-16(12-23)21(28-18(14)11-13)24-20(26)19-15-7-5-4-6-8-17(15)27-25-19/h13H,4-11H2,1-3H3,(H,24,26)/t13-/m1/s1

> <InChI Key>
LFJDGOOGHKSHIG-CYBMUJFWSA-N

> <PERCENTSP3>
59.1

> <Link>
https://www.chemdiv.com/catalog/screening-compounds/compound-C226-3519/

> <MFCDNUMBER>
MFCD09783109

> <CLNUMBER>
CL2031

> <STEREO>
RACEMIC MIXTURE

> <State>
Solid

> <Similarity score>
0.20

$$$$
3-bromo-N-(3-cyano-4,5,6,7-tetrahydro-1-benzothiophen-2-yl)-6-(4H-1,2,4-triazol-
  -OEChem-04222410502D

 26 29  0     0  0  0  0  0  0999 V2000
    1.9354   -0.0896    0.0000 C   0  0  0  0  0  0  0  0  0  0  0  0
    2.9022   -0.3103    0.0000 C   0  0  0  0  0  0  0  0  0  0  0  0
   -0.5562   -0.7480    0.0000 C   0  0  0  0  0  0  0  0  0  0  0  0
   -1.4229   -1.2479    0.0000 N   0  0  0  0  0  0  0  0  0  0  0  0
    1.8438    0.9105    0.0000 S   0  0  0  0  0  0  0  0  0  0  0  0
   -3.1479   -1.2479    0.0000 N   0  0  0  0  0  0  0  0  0  0  0  0
    3.4146    0.5479    0.0000 C   0  0  0  0  0  0  0  0  0  0  0  0
    0.3103   -1.2479    0.0000 C   0  0  0  0  0  0  0  0  0  0  0  0
    1.1688   -0.7437    0.0000 N   0  0  0  0  0  0  0  0  0  0  0  0
    2.7645    1.2980    0.0000 C   0  0  0  0  0  0  0  0  0  0  0  0
   -2.2813   -0.7480    0.0000 C   0  0  0  0  0  0  0  0  0  0  0  0
   -4.2312   -2.4437    0.0000 N   0  0  0  0  0  0  0  0  0  0  0  0
   -4.7312   -1.5771    0.0000 N   0  0  0  0  0  0  0  0  0  0  0  0
    3.2938   -1.2354    0.0000 C   0  0  0  0  0  0  0  0  0  0  0  0
   -4.0604   -0.8396    0.0000 C   0  0  0  0  0  0  0  0  0  0  0  0
   -3.2563   -2.2396    0.0000 C   0  0  0  0  0  0  0  0  0  0  0  0
    2.6895   -2.0396    0.0000 N   0  0  0  0  0  0  0  0  0  0  0  0
   -0.5562    0.2522    0.0000 C   0  0  0  0  0  0  0  0  0  0  0  0
    0.3103   -2.2438    0.0000 O   0  0  0  0  0  0  0  0  0  0  0  0
   -2.2813    0.2522    0.0000 C   0  0  0  0  0  0  0  0  0  0  0  0
   -1.4229    0.7521    0.0000 C   0  0  0  0  0  0  0  0  0  0  0  0
    0.3063    0.7563    0.0000 Br  0  0  0  0  0  0  0  0  0  0  0  0
    4.4021    0.7313    0.0000 C   0  0  0  0  0  0  0  0  0  0  0  0
    3.0853    2.2479    0.0000 C   0  0  0  0  0  0  0  0  0  0  0  0
    4.7312    1.6855    0.0000 C   0  0  0  0  0  0  0  0  0  0  0  0
    4.0646    2.4437    0.0000 C   0  0  0  0  0  0  0  0  0  0  0  0
  1  2  2  0  0  0  0
  3  8  1  0  0  0  0
  3  4  2  0  0  0  0
  1  5  1  0  0  0  0
  6 11  1  0  0  0  0
  2  7  1  0  0  0  0
  7 10  2  0  0  0  0
  8  9  1  0  0  0  0
  1  9  1  0  0  0  0
  5 10  1  0  0  0  0
  4 11  1  0  0  0  0
 12 16  2  0  0  0  0
 13 15  2  0  0  0  0
 12 13  1  0  0  0  0
  2 14  1  0  0  0  0
  6 15  1  0  0  0  0
  6 16  1  0  0  0  0
 14 17  3  0  0  0  0
  3 18  1  0  0  0  0
  8 19  2  0  0  0  0
 20 21  1  0  0  0  0
 11 20  2  0  0  0  0
 18 21  2  0  0  0  0
 18 22  1  0  0  0  0
  7 23  1  0  0  0  0
 10 24  1  0  0  0  0
 23 25  1  0  0  0  0
 25 26  1  0  0  0  0
 24 26  1  0  0  0  0
M  END
> <IDNUMBER>
J015-0222

> <available>
51

> <H_acceptor>
6

> <H_donor>
1

> <B_rotN>
5

> <N_O>
7

> <logP>
3.4552

> <logD>
-0.1017

> <logSw>
-4.0674

> <PSA>
74.982

> <pKa_ma>
3.8432

> <pKa_mb>
1.2706

> <N_Chirals>
0

> <Name>
3-bromo-N-(3-cyano-4,5,6,7-tetrahydro-1-benzothiophen-2-yl)-6-(4H-1,2,4-triazol-4-yl)pyridine-2-carboxamide

> <Smile>
N#Cc1c(NC(c(nc(cc2)-n3cnnc3)c2Br)=O)sc2c1CCCC2

> <Color>
ORANGE

> <Collection>
NC

> <InChI>
InChI=1S/C17H13BrN6OS/c18-12-5-6-14(24-8-20-21-9-24)22-15(12)16(25)23-17-11(7-19)10-3-1-2-4-13(10)26-17/h5-6,8-9H,1-4H2,(H,23,25)

> <InChI Key>
DYXRUGKERAFRSC-UHFFFAOYSA-N

> <PERCENTSP3>
23.5

> <Link>
https://www.chemdiv.com/catalog/screening-compounds/compound-J015-0222/

> <MFCDNUMBER>
MFCD27217836

> <CLNUMBER>
CL8311

> <STEREO>
ACHIRAL

> <State>
Solid

> <Similarity score>
0.20

$$$$
N-(6-tert-butyl-3-cyano-4,5,6,7-tetrahydro-1-benzothiophen-2-yl)-5-(furan-2-yl)-
  -OEChem-04222410502D

 36 40  0     0  0  0  0  0  0999 V2000
    2.3152   -0.2654    0.0000 N   0  0  0  0  0  0  0  0  0  0  0  0
    3.0990    0.3631    0.0000 C   0  0  0  0  0  0  0  0  0  0  0  0
    2.4926   -1.2657    0.0000 C   0  0  0  0  0  0  0  0  0  0  0  0
   -1.6883   -0.4079    0.0000 C   0  0  0  0  0  0  0  0  0  0  0  0
    1.3387   -0.1322    0.0000 N   0  0  0  0  0  0  0  0  0  0  0  0
   -2.2560    0.4131    0.0000 C   0  0  0  0  0  0  0  0  0  0  0  0
    0.8857   -0.9884    0.0000 C   0  0  0  0  0  0  0  0  0  0  0  0
    1.5829   -1.7243    0.0000 C   0  0  0  0  0  0  0  0  0  0  0  0
    3.4320   -1.6318    0.0000 N   0  0  0  0  0  0  0  0  0  0  0  0
    4.0457    0.0008    0.0000 C   0  0  0  0  0  0  0  0  0  0  0  0
   -3.1952   -0.9032    0.0000 C   0  0  0  0  0  0  0  0  0  0  0  0
   -3.2266    0.0914    0.0000 C   0  0  0  0  0  0  0  0  0  0  0  0
   -2.2560   -1.2214    0.0000 S   0  0  0  0  0  0  0  0  0  0  0  0
    4.1919   -0.9884    0.0000 C   0  0  0  0  0  0  0  0  0  0  0  0
    2.9492    1.3674    0.0000 C   0  0  0  0  0  0  0  0  0  0  0  0
   -0.7175   -0.3190    0.0000 N   0  0  0  0  0  0  0  0  0  0  0  0
   -0.1092   -1.1271    0.0000 C   0  0  0  0  0  0  0  0  0  0  0  0
   -1.9435    1.3339    0.0000 C   0  0  0  0  0  0  0  0  0  0  0  0
    5.1017   -1.3544    0.0000 C   0  0  0  0  0  0  0  0  0  0  0  0
   -4.0717   -1.4042    0.0000 C   0  0  0  0  0  0  0  0  0  0  0  0
   -1.6272    2.2439    0.0000 N   0  0  0  0  0  0  0  0  0  0  0  0
   -4.0717    0.5945    0.0000 C   0  0  0  0  0  0  0  0  0  0  0  0
   -4.9259   -0.9032    0.0000 C   0  0  3  0  0  0  0  0  0  0  0  0
    5.3458   -2.3290    0.0000 O   0  0  0  0  0  0  0  0  0  0  0  0
   -5.8062   -1.4042    0.0000 C   0  0  0  0  0  0  0  0  0  0  0  0
   -0.5307   -2.0405    0.0000 O   0  0  0  0  0  0  0  0  0  0  0  0
    5.9541   -0.8350    0.0000 C   0  0  0  0  0  0  0  0  0  0  0  0
   -4.9259    0.0914    0.0000 C   0  0  0  0  0  0  0  0  0  0  0  0
    6.3609   -2.3750    0.0000 C   0  0  0  0  0  0  0  0  0  0  0  0
    6.6937   -1.4488    0.0000 C   0  0  0  0  0  0  0  0  0  0  0  0
    3.9570    1.5096    0.0000 F   0  0  0  0  0  0  0  0  0  0  0  0
    1.9452    1.2285    0.0000 F   0  0  0  0  0  0  0  0  0  0  0  0
    2.8032    2.3750    0.0000 F   0  0  0  0  0  0  0  0  0  0  0  0
   -6.6937   -1.9075    0.0000 C   0  0  0  0  0  0  0  0  0  0  0  0
   -6.3182   -0.5466    0.0000 C   0  0  0  0  0  0  0  0  0  0  0  0
   -5.3196   -2.3141    0.0000 C   0  0  0  0  0  0  0  0  0  0  0  0
  1  2  1  0  0  0  0
  1  3  1  0  0  0  0
  4 16  1  0  0  0  0
  1  5  1  0  0  0  0
  4  6  2  0  0  0  0
  5  7  2  0  0  0  0
  3  8  2  0  0  0  0
  7  8  1  0  0  0  0
  3  9  1  0  0  0  0
  2 10  2  0  0  0  0
 11 13  1  0  0  0  0
 11 12  2  0  0  0  0
  6 12  1  0  0  0  0
  4 13  1  0  0  0  0
  9 14  2  0  0  0  0
 10 14  1  0  0  0  0
  2 15  1  0  0  0  0
 16 17  1  0  0  0  0
  7 17  1  0  0  0  0
  6 18  1  0  0  0  0
 14 19  1  0  0  0  0
 11 20  1  0  0  0  0
 18 21  3  0  0  0  0
 12 22  1  0  0  0  0
 20 23  1  0  0  0  0
 23 28  1  0  0  0  0
 19 24  1  0  0  0  0
 23 25  1  0  0  0  0
 17 26  2  0  0  0  0
 19 27  2  0  0  0  0
 22 28  1  0  0  0  0
 24 29  1  0  0  0  0
 29 30  2  0  0  0  0
 27 30  1  0  0  0  0
 15 31  1  0  0  0  0
 15 32  1  0  0  0  0
 15 33  1  0  0  0  0
 25 34  1  0  0  0  0
 25 35  1  0  0  0  0
 25 36  1  0  0  0  0
M  END
> <IDNUMBER>
K061-0526

> <available>
27

> <H_acceptor>
6

> <H_donor>
1

> <B_rotN>
7

> <N_O>
7

> <logP>
6.1289

> <logD>
4.5029

> <logSw>
-5.462

> <PSA>
66.838

> <pKa_ma>
5.7844

> <pKa_mb>
0.7525

> <N_Chirals>
1

> <Name>
N-(6-tert-butyl-3-cyano-4,5,6,7-tetrahydro-1-benzothiophen-2-yl)-5-(furan-2-yl)-7-(trifluoromethyl)pyrazolo[1,5-a]pyrimidine-2-carboxamide

> <Smile>
CC(C)(C)C(CC1)Cc2c1c(C#N)c(NC(c1nn3c(C(F)(F)F)cc(-c4ccco4)nc3c1)=O)s2

> <Color>
YELLOW

> <Collection>
DC

> <InChI>
InChI=1S/C25H22F3N5O2S/c1-24(2,3)13-6-7-14-15(12-29)23(36-19(14)9-13)31-22(34)17-11-21-30-16(18-5-4-8-35-18)10-20(25(26,27)28)33(21)32-17/h4-5,8,10-11,13H,6-7,9H2,1-3H3,(H,31,34)/t13-/m1/s1

> <InChI Key>
RDDLGKKHOCSNCD-CYBMUJFWSA-N

> <PERCENTSP3>
36

> <Link>
https://www.chemdiv.com/catalog/screening-compounds/compound-K061-0526/

> <MFCDNUMBER>
MFCD01244390

> <CLNUMBER>
CL1646

> <STEREO>
RACEMIC MIXTURE

> <State>
Solid

> <Similarity score>
0.20

$$$$
N-(3-cyano-6-methyl-4,5,6,7-tetrahydro-1-benzothiophen-2-yl)-5-(4-methoxyphenyl)
  -OEChem-04222410502D

 36 40  0     0  0  0  0  0  0999 V2000
    0.4327    0.0306    0.0000 N   0  0  0  0  0  0  0  0  0  0  0  0
    0.8888    0.8421    0.0000 C   0  0  0  0  0  0  0  0  0  0  0  0
    0.8654   -0.7859    0.0000 C   0  0  0  0  0  0  0  0  0  0  0  0
   -3.4093    0.0199    0.0000 C   0  0  0  0  0  0  0  0  0  0  0  0
   -0.5823    0.0306    0.0000 N   0  0  0  0  0  0  0  0  0  0  0  0
   -3.8527    0.7662    0.0000 C   0  0  0  0  0  0  0  0  0  0  0  0
   -1.0386   -0.7789    0.0000 C   0  0  0  0  0  0  0  0  0  0  0  0
   -0.4760   -1.5594    0.0000 C   0  0  0  0  0  0  0  0  0  0  0  0
    1.8822   -0.7859    0.0000 N   0  0  0  0  0  0  0  0  0  0  0  0
    1.8948    0.8421    0.0000 C   0  0  0  0  0  0  0  0  0  0  0  0
   -5.2482   -0.0124    0.0000 C   0  0  0  0  0  0  0  0  0  0  0  0
   -4.8157   -0.8221    0.0000 C   0  0  0  0  0  0  0  0  0  0  0  0
   -3.8853   -0.8221    0.0000 S   0  0  0  0  0  0  0  0  0  0  0  0
    0.4452    1.6859    0.0000 C   0  0  0  0  0  0  0  0  0  0  0  0
    2.3582    0.0579    0.0000 C   0  0  0  0  0  0  0  0  0  0  0  0
   -2.4718    0.0199    0.0000 N   0  0  0  0  0  0  0  0  0  0  0  0
   -1.9994   -0.7789    0.0000 C   0  0  0  0  0  0  0  0  0  0  0  0
   -3.3390    1.6156    0.0000 C   0  0  0  0  0  0  0  0  0  0  0  0
   -2.8252    2.4519    0.0000 N   0  0  0  0  0  0  0  0  0  0  0  0
   -6.2958   -0.0124    0.0000 C   0  0  0  0  0  0  0  0  0  0  0  0
    3.3968    0.0579    0.0000 C   0  0  0  0  0  0  0  0  0  0  0  0
   -5.2861   -1.6730    0.0000 C   0  0  0  0  0  0  0  0  0  0  0  0
   -2.5492   -1.6460    0.0000 O   0  0  0  0  0  0  0  0  0  0  0  0
   -0.0054    2.5095    0.0000 F   0  0  0  0  0  0  0  0  0  0  0  0
    1.3052    2.1653    0.0000 F   0  0  0  0  0  0  0  0  0  0  0  0
   -0.3948    1.1989    0.0000 F   0  0  0  0  0  0  0  0  0  0  0  0
    3.9592    0.8961    0.0000 C   0  0  0  0  0  0  0  0  0  0  0  0
    3.8960   -0.7789    0.0000 C   0  0  0  0  0  0  0  0  0  0  0  0
   -6.7934   -0.8654    0.0000 C   0  0  0  0  0  0  0  0  0  0  0  0
    5.4087    0.0739    0.0000 C   0  0  0  0  0  0  0  0  0  0  0  0
    4.9329    0.8961    0.0000 C   0  0  0  0  0  0  0  0  0  0  0  0
    4.8896   -0.7789    0.0000 C   0  0  0  0  0  0  0  0  0  0  0  0
   -6.3084   -1.6730    0.0000 C   0  0  3  0  0  0  0  0  0  0  0  0
    6.4490    0.0739    0.0000 O   0  0  0  0  0  0  0  0  0  0  0  0
    6.8584    0.8528    0.0000 C   0  0  0  0  0  0  0  0  0  0  0  0
   -6.8584   -2.5095    0.0000 C   0  0  0  0  0  0  0  0  0  0  0  0
  1  2  1  0  0  0  0
  1  3  1  0  0  0  0
  4 16  1  0  0  0  0
  1  5  1  0  0  0  0
  4  6  2  0  0  0  0
  5  7  2  0  0  0  0
  3  8  2  0  0  0  0
  7  8  1  0  0  0  0
  3  9  1  0  0  0  0
  2 10  2  0  0  0  0
  6 11  1  0  0  0  0
 12 13  1  0  0  0  0
 11 12  2  0  0  0  0
  4 13  1  0  0  0  0
  2 14  1  0  0  0  0
  9 15  2  0  0  0  0
 10 15  1  0  0  0  0
 16 17  1  0  0  0  0
  7 17  1  0  0  0  0
  6 18  1  0  0  0  0
 18 19  3  0  0  0  0
 11 20  1  0  0  0  0
 15 21  1  0  0  0  0
 12 22  1  0  0  0  0
 17 23  2  0  0  0  0
 14 24  1  0  0  0  0
 14 25  1  0  0  0  0
 14 26  1  0  0  0  0
 21 27  2  0  0  0  0
 21 28  1  0  0  0  0
 20 29  1  0  0  0  0
 29 33  1  0  0  0  0
 30 32  1  0  0  0  0
 30 31  2  0  0  0  0
 27 31  1  0  0  0  0
 28 32  2  0  0  0  0
 22 33  1  0  0  0  0
 30 34  1  0  0  0  0
 34 35  1  0  0  0  0
 33 36  1  0  0  0  0
M  END
> <IDNUMBER>
K061-0674

> <available>
60

> <H_acceptor>
6

> <H_donor>
1

> <B_rotN>
7

> <N_O>
7

> <logP>
6.0818

> <logD>
4.4558

> <logSw>
-5.552

> <PSA>
65.804

> <pKa_ma>
5.7844

> <pKa_mb>
1.3116

> <N_Chirals>
1

> <Name>
N-(3-cyano-6-methyl-4,5,6,7-tetrahydro-1-benzothiophen-2-yl)-5-(4-methoxyphenyl)-7-(trifluoromethyl)pyrazolo[1,5-a]pyrimidine-2-carboxamide

> <Smile>
CC(CC1)Cc2c1c(C#N)c(NC(c1nn3c(C(F)(F)F)cc(-c(cc4)ccc4OC)nc3c1)=O)s2

> <Color>
YELLOW

> <Collection>
DC

> <InChI>
InChI=1S/C25H20F3N5O2S/c1-13-3-8-16-17(12-29)24(36-20(16)9-13)31-23(34)19-11-22-30-18(14-4-6-15(35-2)7-5-14)10-21(25(26,27)28)33(22)32-19/h4-7,10-11,13H,3,8-9H2,1-2H3,(H,31,34)/t13-/m1/s1

> <InChI Key>
QISVFMGVLMVQID-CYBMUJFWSA-N

> <PERCENTSP3>
28

> <Link>
https://www.chemdiv.com/catalog/screening-compounds/compound-K061-0674/

> <MFCDNUMBER>
MFCD01451836

> <CLNUMBER>
CL1652

> <STEREO>
RACEMIC MIXTURE

> <State>
Solid

> <Similarity score>
0.20

$$$$
5-(4-chlorophenyl)-N-(3-cyano-4,5,6,7-tetrahydro-1-benzothiophen-2-yl)-7-(triflu
  -OEChem-04222410502D

 34 38  0     0  0  0  0  0  0999 V2000
    1.0665    0.7962    0.0000 N   0  0  0  0  0  0  0  0  0  0  0  0
    1.9265    1.2827    0.0000 C   0  0  0  0  0  0  0  0  0  0  0  0
    1.0665   -0.2112    0.0000 C   0  0  0  0  0  0  0  0  0  0  0  0
   -2.9585   -0.5653    0.0000 C   0  0  0  0  0  0  0  0  0  0  0  0
    0.0983    1.0960    0.0000 N   0  0  0  0  0  0  0  0  0  0  0  0
   -3.5878   -1.3712    0.0000 C   0  0  0  0  0  0  0  0  0  0  0  0
   -0.4572    0.2850    0.0000 C   0  0  0  0  0  0  0  0  0  0  0  0
    0.0983   -0.5356    0.0000 C   0  0  0  0  0  0  0  0  0  0  0  0
    1.9265   -0.7225    0.0000 N   0  0  0  0  0  0  0  0  0  0  0  0
    2.7916    0.7962    0.0000 C   0  0  0  0  0  0  0  0  0  0  0  0
   -3.5335    0.2309    0.0000 S   0  0  0  0  0  0  0  0  0  0  0  0
   -4.5066   -1.0468    0.0000 C   0  0  0  0  0  0  0  0  0  0  0  0
    1.9265    2.3000    0.0000 C   0  0  0  0  0  0  0  0  0  0  0  0
    2.7916   -0.2112    0.0000 C   0  0  0  0  0  0  0  0  0  0  0  0
   -1.9659   -0.5653    0.0000 N   0  0  0  0  0  0  0  0  0  0  0  0
   -4.5166   -0.0934    0.0000 C   0  0  0  0  0  0  0  0  0  0  0  0
   -1.4547    0.2850    0.0000 C   0  0  0  0  0  0  0  0  0  0  0  0
   -3.3436   -2.3394    0.0000 C   0  0  0  0  0  0  0  0  0  0  0  0
   -3.1124   -3.2977    0.0000 N   0  0  0  0  0  0  0  0  0  0  0  0
    3.6515   -0.7225    0.0000 C   0  0  0  0  0  0  0  0  0  0  0  0
   -1.9659    1.1500    0.0000 O   0  0  0  0  0  0  0  0  0  0  0  0
    0.9043    2.3000    0.0000 F   0  0  0  0  0  0  0  0  0  0  0  0
    2.9536    2.3000    0.0000 F   0  0  0  0  0  0  0  0  0  0  0  0
    1.9265    3.2977    0.0000 F   0  0  0  0  0  0  0  0  0  0  0  0
    3.6515   -1.7201    0.0000 C   0  0  0  0  0  0  0  0  0  0  0  0
    4.5166   -0.2112    0.0000 C   0  0  0  0  0  0  0  0  0  0  0  0
    5.3766   -1.7201    0.0000 C   0  0  0  0  0  0  0  0  0  0  0  0
   -5.3520   -1.5579    0.0000 C   0  0  0  0  0  0  0  0  0  0  0  0
    5.3766   -0.7225    0.0000 C   0  0  0  0  0  0  0  0  0  0  0  0
    4.5166   -2.2312    0.0000 C   0  0  0  0  0  0  0  0  0  0  0  0
   -5.3814    0.4324    0.0000 C   0  0  0  0  0  0  0  0  0  0  0  0
    6.2416   -2.2068    0.0000 Cl  0  0  0  0  0  0  0  0  0  0  0  0
   -6.2170   -1.0763    0.0000 C   0  0  0  0  0  0  0  0  0  0  0  0
   -6.2416   -0.0786    0.0000 C   0  0  0  0  0  0  0  0  0  0  0  0
  1  3  1  0  0  0  0
  1  2  1  0  0  0  0
  4 15  1  0  0  0  0
  1  5  1  0  0  0  0
  4  6  2  0  0  0  0
  5  7  2  0  0  0  0
  3  8  2  0  0  0  0
  7  8  1  0  0  0  0
  3  9  1  0  0  0  0
  2 10  2  0  0  0  0
 10 14  1  0  0  0  0
  4 11  1  0  0  0  0
  6 12  1  0  0  0  0
 12 16  2  0  0  0  0
  2 13  1  0  0  0  0
  9 14  2  0  0  0  0
 15 17  1  0  0  0  0
 11 16  1  0  0  0  0
  7 17  1  0  0  0  0
  6 18  1  0  0  0  0
 18 19  3  0  0  0  0
 14 20  1  0  0  0  0
 17 21  2  0  0  0  0
 13 22  1  0  0  0  0
 13 23  1  0  0  0  0
 13 24  1  0  0  0  0
 20 25  1  0  0  0  0
 20 26  2  0  0  0  0
 27 29  2  0  0  0  0
 12 28  1  0  0  0  0
 26 29  1  0  0  0  0
 25 30  2  0  0  0  0
 27 30  1  0  0  0  0
 16 31  1  0  0  0  0
 27 32  1  0  0  0  0
 28 33  1  0  0  0  0
 33 34  1  0  0  0  0
 31 34  1  0  0  0  0
M  END
> <IDNUMBER>
8010-2561

> <available>
3

> <H_acceptor>
5

> <H_donor>
1

> <B_rotN>
6

> <N_O>
6

> <logP>
6.2602

> <logD>
4.6341

> <logSw>
-6.5494

> <PSA>
58.26

> <pKa_ma>
5.7844

> <pKa_mb>
1.5188

> <N_Chirals>
0

> <Name>
5-(4-chlorophenyl)-N-(3-cyano-4,5,6,7-tetrahydro-1-benzothiophen-2-yl)-7-(trifluoromethyl)pyrazolo[1,5-a]pyrimidine-2-carboxamide

> <Smile>
N#Cc1c(NC(c2nn3c(C(F)(F)F)cc(-c(cc4)ccc4Cl)nc3c2)=O)sc2c1CCCC2

> <Color>
YELLOW

> <Collection>
DC

> <InChI>
InChI=1S/C23H15ClF3N5OS/c24-13-7-5-12(6-8-13)16-9-19(23(25,26)27)32-20(29-16)10-17(31-32)21(33)30-22-15(11-28)14-3-1-2-4-18(14)34-22/h5-10H,1-4H2,(H,30,33)

> <InChI Key>
PFZQILRSEOHRGJ-UHFFFAOYSA-N

> <PERCENTSP3>
21.7

> <Link>
https://www.chemdiv.com/catalog/screening-compounds/compound-8010-2561/

> <MFCDNUMBER>
MFCD01529576

> <CLNUMBER>
CL1652

> <STEREO>
ACHIRAL

> <State>
Solid

> <Similarity score>
0.20

$$$$
1-(4-ethylphenyl)-4-oxo-N-(3-{[(oxolan-2-yl)methyl]carbamoyl}-5,6-dihydro-4H-cyc
  -OEChem-04222410502D

 36 40  0     0  0  0  0  0  0999 V2000
   -2.5510   -1.1960    0.0000 C   0  0  0  0  0  0  0  0  0  0  0  0
   -2.6469   -0.1970    0.0000 C   0  0  0  0  0  0  0  0  0  0  0  0
    0.0379   -2.7101    0.0000 N   0  0  0  0  0  0  0  0  0  0  0  0
   -0.8250   -3.2046    0.0000 C   0  0  0  0  0  0  0  0  0  0  0  0
   -3.4491   -1.6047    0.0000 S   0  0  0  0  0  0  0  0  0  0  0  0
    0.8856   -3.2197    0.0000 N   0  0  0  0  0  0  0  0  0  0  0  0
   -3.6256    0.0050    0.0000 C   0  0  0  0  0  0  0  0  0  0  0  0
   -1.6779   -2.6946    0.0000 C   0  0  0  0  0  0  0  0  0  0  0  0
   -1.6727   -1.6957    0.0000 N   0  0  0  0  0  0  0  0  0  0  0  0
   -4.1252   -0.8579    0.0000 C   0  0  0  0  0  0  0  0  0  0  0  0
   -1.9000    0.4540    0.0000 C   0  0  0  0  0  0  0  0  0  0  0  0
   -0.8302   -4.1936    0.0000 C   0  0  0  0  0  0  0  0  0  0  0  0
    0.0228   -4.6931    0.0000 C   0  0  0  0  0  0  0  0  0  0  0  0
    0.8806   -4.2087    0.0000 C   0  0  0  0  0  0  0  0  0  0  0  0
   -2.1017    1.4281    0.0000 N   0  0  0  0  0  0  0  0  0  0  0  0
    1.7485   -2.7351    0.0000 C   0  0  0  0  0  0  0  0  0  0  0  0
   -2.6568   -3.2701    0.0000 O   0  0  0  0  0  0  0  0  0  0  0  0
   -0.9614    0.1363    0.0000 O   0  0  0  0  0  0  0  0  0  0  0  0
   -1.6931   -4.6780    0.0000 O   0  0  0  0  0  0  0  0  0  0  0  0
   -0.5982    3.7391    0.0000 O   0  0  0  0  0  0  0  0  0  0  0  0
    1.7485   -1.7411    0.0000 C   0  0  0  0  0  0  0  0  0  0  0  0
    2.5962   -3.2398    0.0000 C   0  0  0  0  0  0  0  0  0  0  0  0
   -1.4005    2.1397    0.0000 C   0  0  0  0  0  0  0  0  0  0  0  0
   -4.3070    0.7568    0.0000 C   0  0  0  0  0  0  0  0  0  0  0  0
   -5.1094   -0.6458    0.0000 C   0  0  0  0  0  0  0  0  0  0  0  0
   -1.4005    3.1388    0.0000 C   0  0  3  0  0  0  0  0  0  0  0  0
    3.4695   -2.7501    0.0000 C   0  0  0  0  0  0  0  0  0  0  0  0
    2.6116   -1.2516    0.0000 C   0  0  0  0  0  0  0  0  0  0  0  0
    3.4745   -1.7560    0.0000 C   0  0  0  0  0  0  0  0  0  0  0  0
   -5.2001    0.3482    0.0000 C   0  0  0  0  0  0  0  0  0  0  0  0
   -0.9159    4.6931    0.0000 C   0  0  0  0  0  0  0  0  0  0  0  0
    4.3372   -1.2566    0.0000 C   0  0  0  0  0  0  0  0  0  0  0  0
   -2.2179    3.7239    0.0000 C   0  0  0  0  0  0  0  0  0  0  0  0
    5.2001   -1.7663    0.0000 C   0  0  0  0  0  0  0  0  0  0  0  0
   -1.9151    4.6777    0.0000 C   0  0  0  0  0  0  0  0  0  0  0  0
   -0.8101   -1.1960    0.0000 H   0  0  0  0  0  0  0  0  0  0  0  0
  1  2  2  0  0  0  0
  3  4  2  0  0  0  0
  4  8  1  0  0  0  0
  1  5  1  0  0  0  0
  3  6  1  0  0  0  0
  6 14  1  0  0  0  0
  2  7  1  0  0  0  0
  7 10  2  0  0  0  0
  8  9  1  0  0  0  0
  1  9  1  0  0  0  0
  5 10  1  0  0  0  0
  2 11  1  0  0  0  0
  4 12  1  0  0  0  0
 12 13  1  0  0  0  0
 13 14  2  0  0  0  0
 11 15  1  0  0  0  0
  6 16  1  0  0  0  0
  8 17  2  0  0  0  0
 11 18  2  0  0  0  0
 12 19  2  0  0  0  0
 20 26  1  0  0  0  0
 16 21  1  0  0  0  0
 16 22  2  0  0  0  0
 15 23  1  0  0  0  0
  7 24  1  0  0  0  0
 24 30  1  0  0  0  0
 10 25  1  0  0  0  0
 23 26  1  0  0  0  0
 22 27  1  0  0  0  0
 21 28  2  0  0  0  0
 27 29  2  0  0  0  0
 28 29  1  0  0  0  0
 25 30  1  0  0  0  0
 20 31  1  0  0  0  0
 31 35  1  0  0  0  0
 29 32  1  0  0  0  0
 26 33  1  0  0  0  0
 32 34  1  0  0  0  0
 33 35  1  0  0  0  0
  9 36  1  0  0  0  0
M  END
> <IDNUMBER>
D223-1069

> <available>
110

> <H_acceptor>
8

> <H_donor>
2

> <B_rotN>
9

> <N_O>
8

> <logP>
3.4915

> <logD>
-0.5094

> <logSw>
-3.9502

> <PSA>
82.889

> <pKa_ma>
3.3991

> <pKa_mb>
-0.3256

> <N_Chirals>
1

> <Name>
1-(4-ethylphenyl)-4-oxo-N-(3-{[(oxolan-2-yl)methyl]carbamoyl}-5,6-dihydro-4H-cyclopenta[b]thiophen-2-yl)-1,4-dihydropyridazine-3-carboxamide

> <Smile>
CCc(cc1)ccc1N(C=C1)N=C(C(Nc2c(C(NCC3OCCC3)=O)c(CCC3)c3s2)=O)C1=O

> <Color>
BROWN

> <Collection>
DC

> <InChI>
InChI=1S/C26H28N4O4S/c1-2-16-8-10-17(11-9-16)30-13-12-20(31)23(29-30)25(33)28-26-22(19-6-3-7-21(19)35-26)24(32)27-15-18-5-4-14-34-18/h8-13,18H,2-7,14-15H2,1H3,(H,27,32)(H,28,33)/t18-/m1/s1

> <InChI Key>
OBJBMXCOLNYNMM-GOSISDBHSA-N

> <PERCENTSP3>
38.5

> <Link>
https://www.chemdiv.com/catalog/screening-compounds/compound-D223-1069/

> <MFCDNUMBER>
MFCD08546806

> <CLNUMBER>
CL6185

> <STEREO>
RACEMIC MIXTURE

> <State>
Solid

> <Similarity score>
0.20

$$$$
5-(4-bromophenyl)-N-(6-tert-butyl-3-cyano-4,5,6,7-tetrahydro-1-benzothiophen-2-y
  -OEChem-04222410502D

 38 42  0     0  0  0  0  0  0999 V2000
   -1.5644    1.4069    0.0000 N   0  0  0  0  0  0  0  0  0  0  0  0
   -2.3734    1.8648    0.0000 C   0  0  0  0  0  0  0  0  0  0  0  0
   -1.5644    0.4740    0.0000 C   0  0  0  0  0  0  0  0  0  0  0  0
    2.6720   -0.0094    0.0000 C   0  0  0  0  0  0  0  0  0  0  0  0
    0.0746    1.4069    0.0000 N   0  0  0  0  0  0  0  0  0  0  0  0
    3.5818    0.4046    0.0000 C   0  0  0  0  0  0  0  0  0  0  0  0
    0.0746    0.4740    0.0000 C   0  0  0  0  0  0  0  0  0  0  0  0
   -0.7430    0.0073    0.0000 C   0  0  0  0  0  0  0  0  0  0  0  0
   -2.3734    0.0073    0.0000 N   0  0  0  0  0  0  0  0  0  0  0  0
   -3.2036    1.4069    0.0000 C   0  0  0  0  0  0  0  0  0  0  0  0
    3.7709   -1.1841    0.0000 C   0  0  0  0  0  0  0  0  0  0  0  0
    4.2500   -0.3455    0.0000 C   0  0  0  0  0  0  0  0  0  0  0  0
    2.7812   -1.0264    0.0000 S   0  0  0  0  0  0  0  0  0  0  0  0
   -2.3734    2.8673    0.0000 C   0  0  0  0  0  0  0  0  0  0  0  0
   -3.2036    0.4740    0.0000 C   0  0  0  0  0  0  0  0  0  0  0  0
    1.8040    0.4866    0.0000 N   0  0  0  0  0  0  0  0  0  0  0  0
    0.9510   -0.0178    0.0000 C   0  0  0  0  0  0  0  0  0  0  0  0
    3.7961    1.3774    0.0000 C   0  0  0  0  0  0  0  0  0  0  0  0
    4.2626   -2.0835    0.0000 C   0  0  0  0  0  0  0  0  0  0  0  0
    4.0085    2.3441    0.0000 N   0  0  0  0  0  0  0  0  0  0  0  0
    5.2525   -0.3185    0.0000 C   0  0  0  0  0  0  0  0  0  0  0  0
    5.2840   -2.0604    0.0000 C   0  0  3  0  0  0  0  0  0  0  0  0
   -4.0609   -0.0178    0.0000 C   0  0  0  0  0  0  0  0  0  0  0  0
    5.7884   -2.9158    0.0000 C   0  0  0  0  0  0  0  0  0  0  0  0
    0.9342   -0.9004    0.0000 O   0  0  0  0  0  0  0  0  0  0  0  0
    5.7758   -1.1841    0.0000 C   0  0  0  0  0  0  0  0  0  0  0  0
   -2.3734    3.8571    0.0000 F   0  0  0  0  0  0  0  0  0  0  0  0
   -3.3801    2.8673    0.0000 F   0  0  0  0  0  0  0  0  0  0  0  0
   -1.3795    2.8673    0.0000 F   0  0  0  0  0  0  0  0  0  0  0  0
   -4.9141    0.4992    0.0000 C   0  0  0  0  0  0  0  0  0  0  0  0
   -4.0609   -1.0264    0.0000 C   0  0  0  0  0  0  0  0  0  0  0  0
   -5.8261   -0.9885    0.0000 C   0  0  0  0  0  0  0  0  0  0  0  0
   -4.9686   -1.5055    0.0000 C   0  0  0  0  0  0  0  0  0  0  0  0
   -5.8093    0.0073    0.0000 C   0  0  0  0  0  0  0  0  0  0  0  0
   -6.7087   -1.4677    0.0000 Br  0  0  0  0  0  0  0  0  0  0  0  0
    6.2276   -3.8571    0.0000 C   0  0  0  0  0  0  0  0  0  0  0  0
    4.9686   -3.2940    0.0000 C   0  0  0  0  0  0  0  0  0  0  0  0
    6.7087   -2.4870    0.0000 C   0  0  0  0  0  0  0  0  0  0  0  0
  1  2  1  0  0  0  0
  1  3  1  0  0  0  0
  4 16  1  0  0  0  0
  1  5  1  0  0  0  0
  4  6  2  0  0  0  0
  5  7  2  0  0  0  0
  7  8  1  0  0  0  0
  3  8  2  0  0  0  0
  3  9  1  0  0  0  0
  2 10  2  0  0  0  0
 10 15  1  0  0  0  0
 11 13  1  0  0  0  0
 11 12  2  0  0  0  0
  6 12  1  0  0  0  0
  4 13  1  0  0  0  0
  2 14  1  0  0  0  0
  9 15  2  0  0  0  0
 16 17  1  0  0  0  0
  7 17  1  0  0  0  0
  6 18  1  0  0  0  0
 11 19  1  0  0  0  0
 18 20  3  0  0  0  0
 12 21  1  0  0  0  0
 19 22  1  0  0  0  0
 22 26  1  0  0  0  0
 15 23  1  0  0  0  0
 22 24  1  0  0  0  0
 17 25  2  0  0  0  0
 21 26  1  0  0  0  0
 14 27  1  0  0  0  0
 14 28  1  0  0  0  0
 14 29  1  0  0  0  0
 23 30  2  0  0  0  0
 23 31  1  0  0  0  0
 32 33  1  0  0  0  0
 32 34  2  0  0  0  0
 31 33  2  0  0  0  0
 30 34  1  0  0  0  0
 32 35  1  0  0  0  0
 24 36  1  0  0  0  0
 24 37  1  0  0  0  0
 24 38  1  0  0  0  0
M  END
> <IDNUMBER>
K061-0797

> <available>
51

> <H_acceptor>
5

> <H_donor>
1

> <B_rotN>
7

> <N_O>
6

> <logP>
8.0566

> <logD>
6.4306

> <logSw>
-5.7154

> <PSA>
58.26

> <pKa_ma>
5.7844

> <pKa_mb>
1.5188

> <N_Chirals>
1

> <Name>
5-(4-bromophenyl)-N-(6-tert-butyl-3-cyano-4,5,6,7-tetrahydro-1-benzothiophen-2-yl)-7-(trifluoromethyl)pyrazolo[1,5-a]pyrimidine-2-carboxamide

> <Smile>
CC(C)(C)C(CC1)Cc2c1c(C#N)c(NC(c1nn3c(C(F)(F)F)cc(-c(cc4)ccc4Br)nc3c1)=O)s2

> <Color>
NOT COLORED

> <Collection>
DC

> <InChI>
InChI=1S/C27H23BrF3N5OS/c1-26(2,3)15-6-9-17-18(13-32)25(38-21(17)10-15)34-24(37)20-12-23-33-19(14-4-7-16(28)8-5-14)11-22(27(29,30)31)36(23)35-20/h4-5,7-8,11-12,15H,6,9-10H2,1-3H3,(H,34,37)/t15-/m1/s1

> <InChI Key>
CQDWCEUNSPCRRV-OAHLLOKOSA-N

> <PERCENTSP3>
33.3

> <Link>
https://www.chemdiv.com/catalog/screening-compounds/compound-K061-0797/

> <MFCDNUMBER>
MFCD01447901

> <CLNUMBER>
CL1652

> <STEREO>
RACEMIC MIXTURE

> <State>
Solid

> <Similarity score>
0.20

$$$$
N-(3-cyano-4,5,6,7-tetrahydro-1-benzothiophen-2-yl)-5-phenyl-7-(trifluoromethyl)
  -OEChem-04222410502D

 33 37  0     0  0  0  0  0  0999 V2000
    1.4839    0.0262    0.0000 N   0  0  0  0  0  0  0  0  0  0  0  0
    2.3533    0.5269    0.0000 C   0  0  0  0  0  0  0  0  0  0  0  0
    1.4839   -1.0067    0.0000 C   0  0  0  0  0  0  0  0  0  0  0  0
   -2.5482    0.3965    0.0000 C   0  0  0  0  0  0  0  0  0  0  0  0
    0.5278    0.3131    0.0000 N   0  0  0  0  0  0  0  0  0  0  0  0
   -3.1063    1.1894    0.0000 C   0  0  0  0  0  0  0  0  0  0  0  0
   -0.0236   -0.5005    0.0000 C   0  0  0  0  0  0  0  0  0  0  0  0
    0.5278   -1.2934    0.0000 C   0  0  0  0  0  0  0  0  0  0  0  0
    2.3533   -1.5074    0.0000 N   0  0  0  0  0  0  0  0  0  0  0  0
    3.2296    0.0262    0.0000 C   0  0  0  0  0  0  0  0  0  0  0  0
   -3.1428   -0.4121    0.0000 S   0  0  0  0  0  0  0  0  0  0  0  0
   -4.0783    0.9077    0.0000 C   0  0  0  0  0  0  0  0  0  0  0  0
    2.3533    1.5284    0.0000 C   0  0  0  0  0  0  0  0  0  0  0  0
   -1.5535    0.3965    0.0000 N   0  0  0  0  0  0  0  0  0  0  0  0
    3.2296   -1.0067    0.0000 C   0  0  0  0  0  0  0  0  0  0  0  0
   -4.0955   -0.0886    0.0000 C   0  0  0  0  0  0  0  0  0  0  0  0
   -1.0581   -0.5005    0.0000 C   0  0  0  0  0  0  0  0  0  0  0  0
   -2.7427    2.0934    0.0000 C   0  0  0  0  0  0  0  0  0  0  0  0
   -2.3866    3.0131    0.0000 N   0  0  0  0  0  0  0  0  0  0  0  0
   -1.5535   -1.3439    0.0000 O   0  0  0  0  0  0  0  0  0  0  0  0
    4.0710   -1.5074    0.0000 C   0  0  0  0  0  0  0  0  0  0  0  0
    3.3616    1.5284    0.0000 F   0  0  0  0  0  0  0  0  0  0  0  0
    2.3533    2.5333    0.0000 F   0  0  0  0  0  0  0  0  0  0  0  0
    1.3517    1.5284    0.0000 F   0  0  0  0  0  0  0  0  0  0  0  0
   -4.9353    1.4137    0.0000 C   0  0  0  0  0  0  0  0  0  0  0  0
   -4.9596   -0.5684    0.0000 C   0  0  0  0  0  0  0  0  0  0  0  0
    4.9456   -1.0067    0.0000 C   0  0  0  0  0  0  0  0  0  0  0  0
    4.0710   -2.5124    0.0000 C   0  0  0  0  0  0  0  0  0  0  0  0
   -5.8116    0.9233    0.0000 C   0  0  0  0  0  0  0  0  0  0  0  0
   -5.8116   -0.0574    0.0000 C   0  0  0  0  0  0  0  0  0  0  0  0
    5.8116   -1.5074    0.0000 C   0  0  0  0  0  0  0  0  0  0  0  0
    4.9456   -3.0131    0.0000 C   0  0  0  0  0  0  0  0  0  0  0  0
    5.8116   -2.5124    0.0000 C   0  0  0  0  0  0  0  0  0  0  0  0
  1  2  1  0  0  0  0
  1  3  1  0  0  0  0
  4 14  1  0  0  0  0
  1  5  1  0  0  0  0
  4  6  2  0  0  0  0
  5  7  2  0  0  0  0
  3  8  2  0  0  0  0
  7  8  1  0  0  0  0
  3  9  1  0  0  0  0
  2 10  2  0  0  0  0
 10 15  1  0  0  0  0
  4 11  1  0  0  0  0
  6 12  1  0  0  0  0
  2 13  1  0  0  0  0
 14 17  1  0  0  0  0
  9 15  2  0  0  0  0
 11 16  1  0  0  0  0
 12 16  2  0  0  0  0
  7 17  1  0  0  0  0
  6 18  1  0  0  0  0
 18 19  3  0  0  0  0
 17 20  2  0  0  0  0
 15 21  1  0  0  0  0
 13 22  1  0  0  0  0
 13 23  1  0  0  0  0
 13 24  1  0  0  0  0
 12 25  1  0  0  0  0
 16 26  1  0  0  0  0
 21 27  1  0  0  0  0
 21 28  2  0  0  0  0
 25 29  1  0  0  0  0
 26 30  1  0  0  0  0
 29 30  1  0  0  0  0
 27 31  2  0  0  0  0
 31 33  1  0  0  0  0
 28 32  1  0  0  0  0
 32 33  2  0  0  0  0
M  END
> <IDNUMBER>
8004-8806

> <available>
29

> <H_acceptor>
5

> <H_donor>
1

> <B_rotN>
6

> <N_O>
6

> <logP>
5.5604

> <logD>
3.9344

> <logSw>
-5.7868

> <PSA>
58.26

> <pKa_ma>
5.7844

> <pKa_mb>
1.5188

> <N_Chirals>
0

> <Name>
N-(3-cyano-4,5,6,7-tetrahydro-1-benzothiophen-2-yl)-5-phenyl-7-(trifluoromethyl)pyrazolo[1,5-a]pyrimidine-2-carboxamide

> <Smile>
N#Cc1c(NC(c2nn3c(C(F)(F)F)cc(-c4ccccc4)nc3c2)=O)sc2c1CCCC2

> <Color>
NOT COLORED

> <Collection>
DC

> <InChI>
InChI=1S/C23H16F3N5OS/c24-23(25,26)19-10-16(13-6-2-1-3-7-13)28-20-11-17(30-31(19)20)21(32)29-22-15(12-27)14-8-4-5-9-18(14)33-22/h1-3,6-7,10-11H,4-5,8-9H2,(H,29,32)

> <InChI Key>
MPBXWWLORQAGOR-UHFFFAOYSA-N

> <PERCENTSP3>
21.7

> <Link>
https://www.chemdiv.com/catalog/screening-compounds/compound-8004-8806/

> <MFCDNUMBER>
MFCD00289728

> <STEREO>
ACHIRAL

> <State>
Solid

> <Similarity score>
0.20

$$$$
N-(3-cyano-4,5,6,7-tetrahydro-1-benzothiophen-2-yl)-5-(propan-2-yl)-1,2-oxazole-
  -OEChem-04222410502D

 22 24  0     0  0  0  0  0  0999 V2000
   -0.5790   -1.4913    0.0000 C   0  0  0  0  0  0  0  0  0  0  0  0
    0.0277   -2.2642    0.0000 C   0  0  0  0  0  0  0  0  0  0  0  0
    0.2397    1.6850    0.0000 C   0  0  0  0  0  0  0  0  0  0  0  0
   -1.5043   -1.8257    0.0000 S   0  0  0  0  0  0  0  0  0  0  0  0
   -0.5030   -3.0808    0.0000 C   0  0  0  0  0  0  0  0  0  0  0  0
   -0.4592    2.3218    0.0000 N   0  0  0  0  0  0  0  0  0  0  0  0
   -0.5790   -0.4763    0.0000 N   0  0  0  0  0  0  0  0  0  0  0  0
    1.0126    2.3032    0.0000 C   0  0  0  0  0  0  0  0  0  0  0  0
   -1.4627   -2.8200    0.0000 C   0  0  0  0  0  0  0  0  0  0  0  0
    0.2859    0.0243    0.0000 C   0  0  0  0  0  0  0  0  0  0  0  0
    0.7336    3.1729    0.0000 C   0  0  0  0  0  0  0  0  0  0  0  0
   -0.1755    3.1822    0.0000 O   0  0  0  0  0  0  0  0  0  0  0  0
    1.0426   -2.2018    0.0000 C   0  0  0  0  0  0  0  0  0  0  0  0
    2.0506   -2.1718    0.0000 N   0  0  0  0  0  0  0  0  0  0  0  0
    1.0588   -0.4602    0.0000 O   0  0  0  0  0  0  0  0  0  0  0  0
    1.2847    3.9134    0.0000 C   0  0  0  0  0  0  0  0  0  0  0  0
   -0.2469   -4.0518    0.0000 C   0  0  0  0  0  0  0  0  0  0  0  0
   -2.1868   -3.5212    0.0000 C   0  0  0  0  0  0  0  0  0  0  0  0
    0.9225    4.7646    0.0000 C   0  0  0  0  0  0  0  0  0  0  0  0
    2.1868    3.8234    0.0000 C   0  0  0  0  0  0  0  0  0  0  0  0
   -0.9575   -4.7646    0.0000 C   0  0  0  0  0  0  0  0  0  0  0  0
   -1.9285   -4.5016    0.0000 C   0  0  0  0  0  0  0  0  0  0  0  0
  1  2  2  0  0  0  0
  3 10  1  0  0  0  0
  1  4  1  0  0  0  0
  2  5  1  0  0  0  0
  3  6  2  0  0  0  0
  1  7  1  0  0  0  0
  3  8  1  0  0  0  0
  4  9  1  0  0  0  0
  5  9  2  0  0  0  0
  7 10  1  0  0  0  0
  8 11  2  0  0  0  0
 11 12  1  0  0  0  0
  6 12  1  0  0  0  0
  2 13  1  0  0  0  0
 13 14  3  0  0  0  0
 10 15  2  0  0  0  0
 11 16  1  0  0  0  0
  5 17  1  0  0  0  0
  9 18  1  0  0  0  0
 16 19  1  0  0  0  0
 16 20  1  0  0  0  0
 17 21  1  0  0  0  0
 21 22  1  0  0  0  0
 18 22  1  0  0  0  0
M  END
> <IDNUMBER>
C226-2941

> <available>
48

> <H_acceptor>
5

> <H_donor>
1

> <B_rotN>
5

> <N_O>
5

> <logP>
3.9048

> <logD>
2.2344

> <logSw>
-4.1434

> <PSA>
61.908

> <pKa_ma>
5.739

> <pKa_mb>
-5.3583

> <N_Chirals>
0

> <Name>
N-(3-cyano-4,5,6,7-tetrahydro-1-benzothiophen-2-yl)-5-(propan-2-yl)-1,2-oxazole-3-carboxamide

> <Smile>
CC(C)c1cc(C(Nc(sc2c3CCCC2)c3C#N)=O)no1

> <Color>
ORANGE

> <Collection>
DC

> <InChI>
InChI=1S/C16H17N3O2S/c1-9(2)13-7-12(19-21-13)15(20)18-16-11(8-17)10-5-3-4-6-14(10)22-16/h7,9H,3-6H2,1-2H3,(H,18,20)

> <InChI Key>
DFPPLONANWUOAM-UHFFFAOYSA-N

> <PERCENTSP3>
43.8

> <Link>
https://www.chemdiv.com/catalog/screening-compounds/compound-C226-2941/

> <MFCDNUMBER>
MFCD09782910

> <CLNUMBER>
CL2030

> <STEREO>
ACHIRAL

> <State>
Solid

> <Similarity score>
0.20

$$$$
N-(3-cyano-5,6-dihydro-4H-cyclopenta[b]thiophen-2-yl)-4,5,6,7-tetrahydro-1,2-ben
  -OEChem-04222410502D

 22 25  0     0  0  0  0  0  0999 V2000
   -0.8782   -1.1844    0.0000 C   0  0  0  0  0  0  0  0  0  0  0  0
   -0.2715   -1.9604    0.0000 C   0  0  0  0  0  0  0  0  0  0  0  0
   -0.0445    1.8777    0.0000 C   0  0  0  0  0  0  0  0  0  0  0  0
   -0.7274    2.5300    0.0000 N   0  0  0  0  0  0  0  0  0  0  0  0
    0.7975    2.5443    0.0000 C   0  0  0  0  0  0  0  0  0  0  0  0
   -1.8170   -1.5230    0.0000 S   0  0  0  0  0  0  0  0  0  0  0  0
   -0.8183   -2.7879    0.0000 C   0  0  0  0  0  0  0  0  0  0  0  0
   -0.0155    0.3238    0.0000 C   0  0  0  0  0  0  0  0  0  0  0  0
   -0.8782   -0.1754    0.0000 N   0  0  0  0  0  0  0  0  0  0  0  0
   -1.7716   -2.5052    0.0000 C   0  0  0  0  0  0  0  0  0  0  0  0
   -0.4449    3.4234    0.0000 O   0  0  0  0  0  0  0  0  0  0  0  0
    0.5002    3.4379    0.0000 C   0  0  0  0  0  0  0  0  0  0  0  0
    0.7376   -1.9253    0.0000 C   0  0  0  0  0  0  0  0  0  0  0  0
    1.7343   -1.8839    0.0000 N   0  0  0  0  0  0  0  0  0  0  0  0
    0.7975   -0.1714    0.0000 O   0  0  0  0  0  0  0  0  0  0  0  0
    1.7034    2.3628    0.0000 C   0  0  0  0  0  0  0  0  0  0  0  0
   -0.7730   -3.7929    0.0000 C   0  0  0  0  0  0  0  0  0  0  0  0
   -2.3308   -3.3491    0.0000 C   0  0  0  0  0  0  0  0  0  0  0  0
    1.1214    4.1353    0.0000 C   0  0  0  0  0  0  0  0  0  0  0  0
   -1.7264   -4.1353    0.0000 C   0  0  0  0  0  0  0  0  0  0  0  0
    2.3308    3.0541    0.0000 C   0  0  0  0  0  0  0  0  0  0  0  0
    2.0275    3.9516    0.0000 C   0  0  0  0  0  0  0  0  0  0  0  0
  1  2  2  0  0  0  0
  3  8  1  0  0  0  0
  3  4  2  0  0  0  0
  3  5  1  0  0  0  0
  1  6  1  0  0  0  0
  2  7  1  0  0  0  0
  7 10  2  0  0  0  0
  8  9  1  0  0  0  0
  1  9  1  0  0  0  0
  6 10  1  0  0  0  0
  4 11  1  0  0  0  0
  5 12  2  0  0  0  0
 11 12  1  0  0  0  0
  2 13  1  0  0  0  0
 13 14  3  0  0  0  0
  8 15  2  0  0  0  0
  5 16  1  0  0  0  0
  7 17  1  0  0  0  0
 10 18  1  0  0  0  0
 12 19  1  0  0  0  0
 18 20  1  0  0  0  0
 17 20  1  0  0  0  0
 16 21  1  0  0  0  0
 21 22  1  0  0  0  0
 19 22  1  0  0  0  0
M  END
> <IDNUMBER>
C226-3401

> <available>
1

> <H_acceptor>
5

> <H_donor>
1

> <B_rotN>
4

> <N_O>
5

> <logP>
3.0819

> <logD>
0.8798

> <logSw>
-3.3368

> <PSA>
62.867

> <pKa_ma>
5.2006

> <pKa_mb>
-5.5427

> <N_Chirals>
0

> <Name>
N-(3-cyano-5,6-dihydro-4H-cyclopenta[b]thiophen-2-yl)-4,5,6,7-tetrahydro-1,2-benzoxazole-3-carboxamide

> <Smile>
N#Cc1c(NC(c2noc3c2CCCC3)=O)sc2c1CCC2

> <Color>
BROWN

> <Collection>
NC

> <InChI>
InChI=1S/C16H15N3O2S/c17-8-11-9-5-3-7-13(9)22-16(11)18-15(20)14-10-4-1-2-6-12(10)21-19-14/h1-7H2,(H,18,20)

> <InChI Key>
GQOOVLDOQVJXGH-UHFFFAOYSA-N

> <PERCENTSP3>
43.8

> <Link>
https://www.chemdiv.com/catalog/screening-compounds/compound-C226-3401/

> <MFCDNUMBER>
MFCD09783053

> <CLNUMBER>
CL2031

> <STEREO>
ACHIRAL

> <State>
Solid

> <Similarity score>
0.20

$$$$
N-[(3-cyano-4,5,6,7-tetrahydro-1-benzothiophen-2-yl)carbamothioyl]-3-(2,6-dichlo
  -OEChem-04222410502D

 31 34  0     0  0  0  0  0  0999 V2000
    1.9882    0.2101    0.0000 C   0  0  0  0  0  0  0  0  0  0  0  0
   -3.2629    0.2652    0.0000 C   0  0  0  0  0  0  0  0  0  0  0  0
   -2.3326    0.6581    0.0000 C   0  0  0  0  0  0  0  0  0  0  0  0
    2.8495    0.6786    0.0000 C   0  0  0  0  0  0  0  0  0  0  0  0
   -1.4715    0.1827    0.0000 C   0  0  0  0  0  0  0  0  0  0  0  0
   -3.9038    0.9546    0.0000 N   0  0  0  0  0  0  0  0  0  0  0  0
    2.1329   -0.7823    0.0000 S   0  0  0  0  0  0  0  0  0  0  0  0
    3.5592    0.0378    0.0000 C   0  0  0  0  0  0  0  0  0  0  0  0
    1.1199    0.6994    0.0000 N   0  0  0  0  0  0  0  0  0  0  0  0
   -3.4905   -0.6994    0.0000 C   0  0  0  0  0  0  0  0  0  0  0  0
   -0.6236    0.6994    0.0000 N   0  0  0  0  0  0  0  0  0  0  0  0
    0.2515    0.2033    0.0000 C   0  0  0  0  0  0  0  0  0  0  0  0
    3.1251   -0.8925    0.0000 C   0  0  0  0  0  0  0  0  0  0  0  0
   -3.4352    1.8157    0.0000 O   0  0  0  0  0  0  0  0  0  0  0  0
   -2.4430    1.6160    0.0000 C   0  0  0  0  0  0  0  0  0  0  0  0
    2.9321    1.6366    0.0000 C   0  0  0  0  0  0  0  0  0  0  0  0
    3.0218    2.6014    0.0000 N   0  0  0  0  0  0  0  0  0  0  0  0
    0.2515   -0.8097    0.0000 S   0  0  0  0  0  0  0  0  0  0  0  0
   -2.7944   -1.3680    0.0000 C   0  0  0  0  0  0  0  0  0  0  0  0
   -4.4277   -0.9476    0.0000 C   0  0  0  0  0  0  0  0  0  0  0  0
   -1.4715   -0.8097    0.0000 O   0  0  0  0  0  0  0  0  0  0  0  0
   -1.5333   -2.1121    0.0000 Cl  0  0  0  0  0  0  0  0  0  0  0  0
   -5.1098   -0.2311    0.0000 Cl  0  0  0  0  0  0  0  0  0  0  0  0
    4.5102    0.0998    0.0000 C   0  0  0  0  0  0  0  0  0  0  0  0
    3.6834   -1.6917    0.0000 C   0  0  0  0  0  0  0  0  0  0  0  0
   -1.7193    2.2707    0.0000 C   0  0  0  0  0  0  0  0  0  0  0  0
   -3.9659   -2.6014    0.0000 C   0  0  0  0  0  0  0  0  0  0  0  0
   -3.0424   -2.3187    0.0000 C   0  0  0  0  0  0  0  0  0  0  0  0
   -4.6757   -1.8849    0.0000 C   0  0  0  0  0  0  0  0  0  0  0  0
    5.1098   -0.6994    0.0000 C   0  0  0  0  0  0  0  0  0  0  0  0
    4.6757   -1.6091    0.0000 C   0  0  0  0  0  0  0  0  0  0  0  0
  2  3  1  0  0  0  0
  3  5  1  0  0  0  0
  1  4  2  0  0  0  0
  5 11  1  0  0  0  0
  2  6  2  0  0  0  0
  1  7  1  0  0  0  0
  4  8  1  0  0  0  0
  1  9  1  0  0  0  0
  2 10  1  0  0  0  0
 11 12  1  0  0  0  0
  9 12  1  0  0  0  0
  7 13  1  0  0  0  0
  8 13  2  0  0  0  0
 14 15  1  0  0  0  0
  6 14  1  0  0  0  0
  3 15  2  0  0  0  0
  4 16  1  0  0  0  0
 16 17  3  0  0  0  0
 12 18  2  0  0  0  0
 10 19  2  0  0  0  0
 10 20  1  0  0  0  0
  5 21  2  0  0  0  0
 19 22  1  0  0  0  0
 20 23  1  0  0  0  0
  8 24  1  0  0  0  0
 13 25  1  0  0  0  0
 15 26  1  0  0  0  0
 27 29  1  0  0  0  0
 19 28  1  0  0  0  0
 27 28  2  0  0  0  0
 20 29  2  0  0  0  0
 24 30  1  0  0  0  0
 25 31  1  0  0  0  0
 30 31  1  0  0  0  0
M  END
> <IDNUMBER>
5182-2771

> <available>
48

> <H_acceptor>
7

> <H_donor>
2

> <B_rotN>
7

> <N_O>
6

> <logP>
5.2664

> <logD>
4.9199

> <logSw>
-5.8804

> <PSA>
71.971

> <pKa_ma>
7.3133

> <pKa_mb>
-6.8683

> <N_Chirals>
0

> <Name>
N-[(3-cyano-4,5,6,7-tetrahydro-1-benzothiophen-2-yl)carbamothioyl]-3-(2,6-dichlorophenyl)-5-methyl-1,2-oxazole-4-carboxamide

> <Smile>
Cc1c(C(NC(Nc(sc2c3CCCC2)c3C#N)=S)=O)c(-c(c(Cl)ccc2)c2Cl)no1

> <Color>
YELLOW

> <Collection>
DC

> <InChI>
InChI=1S/C21H16Cl2N4O2S2/c1-10-16(18(27-29-10)17-13(22)6-4-7-14(17)23)19(28)25-21(30)26-20-12(9-24)11-5-2-3-8-15(11)31-20/h4,6-7H,2-3,5,8H2,1H3,(H2,25,26,28,30)

> <InChI Key>
ZJUSXZVMLXZJDW-UHFFFAOYSA-N

> <PERCENTSP3>
23.8

> <Link>
https://www.chemdiv.com/catalog/screening-compounds/compound-5182-2771/

> <MFCDNUMBER>
MFCD01963048

> <CLNUMBER>
CL2451

> <STEREO>
ACHIRAL

> <State>
Solid

> <Similarity score>
0.20

$$$$
N-(3-cyano-5,6,7,8-tetrahydro-4H-cyclohepta[b]thiophen-2-yl)-5-phenyl-7-(trifluo
  -OEChem-04222410502D

 34 38  0     0  0  0  0  0  0999 V2000
    1.4002   -0.1689    0.0000 N   0  0  0  0  0  0  0  0  0  0  0  0
    2.1210    0.5230    0.0000 C   0  0  0  0  0  0  0  0  0  0  0  0
    1.6544   -1.1148    0.0000 C   0  0  0  0  0  0  0  0  0  0  0  0
   -2.6002   -1.0105    0.0000 C   0  0  0  0  0  0  0  0  0  0  0  0
    0.3834   -0.1521    0.0000 N   0  0  0  0  0  0  0  0  0  0  0  0
   -3.3378   -0.3314    0.0000 C   0  0  0  0  0  0  0  0  0  0  0  0
    0.0542   -1.0647    0.0000 C   0  0  0  0  0  0  0  0  0  0  0  0
    0.8167   -1.6773    0.0000 C   0  0  0  0  0  0  0  0  0  0  0  0
    2.6628   -1.3980    0.0000 N   0  0  0  0  0  0  0  0  0  0  0  0
    3.0795    0.2687    0.0000 C   0  0  0  0  0  0  0  0  0  0  0  0
   -3.0378   -1.9191    0.0000 S   0  0  0  0  0  0  0  0  0  0  0  0
   -4.2254   -0.8148    0.0000 C   0  0  0  0  0  0  0  0  0  0  0  0
    1.8793    1.5272    0.0000 C   0  0  0  0  0  0  0  0  0  0  0  0
   -1.6294   -0.7230    0.0000 N   0  0  0  0  0  0  0  0  0  0  0  0
    3.3335   -0.6480    0.0000 C   0  0  0  0  0  0  0  0  0  0  0  0
   -4.0295   -1.7523    0.0000 C   0  0  0  0  0  0  0  0  0  0  0  0
   -0.9209   -1.3980    0.0000 C   0  0  0  0  0  0  0  0  0  0  0  0
   -3.2171    0.6437    0.0000 C   0  0  0  0  0  0  0  0  0  0  0  0
   -3.0961    1.6063    0.0000 N   0  0  0  0  0  0  0  0  0  0  0  0
   -1.1460   -2.3857    0.0000 O   0  0  0  0  0  0  0  0  0  0  0  0
    4.3421   -0.9314    0.0000 C   0  0  0  0  0  0  0  0  0  0  0  0
    1.6544    2.5023    0.0000 F   0  0  0  0  0  0  0  0  0  0  0  0
    0.9042    1.3062    0.0000 F   0  0  0  0  0  0  0  0  0  0  0  0
    2.8877    1.7687    0.0000 F   0  0  0  0  0  0  0  0  0  0  0  0
   -5.0921   -0.3314    0.0000 C   0  0  0  0  0  0  0  0  0  0  0  0
   -4.7046   -2.5023    0.0000 C   0  0  0  0  0  0  0  0  0  0  0  0
    4.5963   -1.9024    0.0000 C   0  0  0  0  0  0  0  0  0  0  0  0
    5.0463   -0.2272    0.0000 C   0  0  0  0  0  0  0  0  0  0  0  0
   -6.0047   -0.7355    0.0000 C   0  0  0  0  0  0  0  0  0  0  0  0
   -5.7088   -2.4606    0.0000 C   0  0  0  0  0  0  0  0  0  0  0  0
    6.0047   -0.4856    0.0000 C   0  0  0  0  0  0  0  0  0  0  0  0
    5.5589   -2.1899    0.0000 C   0  0  0  0  0  0  0  0  0  0  0  0
   -6.2631   -1.7106    0.0000 C   0  0  0  0  0  0  0  0  0  0  0  0
    6.2631   -1.4397    0.0000 C   0  0  0  0  0  0  0  0  0  0  0  0
  1  2  1  0  0  0  0
  1  3  1  0  0  0  0
  4 14  1  0  0  0  0
  1  5  1  0  0  0  0
  4  6  2  0  0  0  0
  5  7  2  0  0  0  0
  3  8  2  0  0  0  0
  7  8  1  0  0  0  0
  3  9  1  0  0  0  0
  2 10  2  0  0  0  0
 10 15  1  0  0  0  0
  4 11  1  0  0  0  0
  6 12  1  0  0  0  0
  2 13  1  0  0  0  0
 14 17  1  0  0  0  0
  9 15  2  0  0  0  0
 11 16  1  0  0  0  0
 12 16  2  0  0  0  0
  7 17  1  0  0  0  0
  6 18  1  0  0  0  0
 18 19  3  0  0  0  0
 17 20  2  0  0  0  0
 15 21  1  0  0  0  0
 13 22  1  0  0  0  0
 13 23  1  0  0  0  0
 13 24  1  0  0  0  0
 12 25  1  0  0  0  0
 16 26  1  0  0  0  0
 21 27  1  0  0  0  0
 21 28  2  0  0  0  0
 25 29  1  0  0  0  0
 29 33  1  0  0  0  0
 26 30  1  0  0  0  0
 28 31  1  0  0  0  0
 27 32  2  0  0  0  0
 30 33  1  0  0  0  0
 32 34  1  0  0  0  0
 31 34  2  0  0  0  0
M  END
> <IDNUMBER>
Y500-0391

> <available>
17

> <H_acceptor>
5

> <H_donor>
1

> <B_rotN>
6

> <N_O>
6

> <logP>
6.0563

> <logD>
4.4303

> <logSw>
-5.8883

> <PSA>
58.591

> <pKa_ma>
5.7844

> <pKa_mb>
1.5188

> <N_Chirals>
0

> <Name>
N-(3-cyano-5,6,7,8-tetrahydro-4H-cyclohepta[b]thiophen-2-yl)-5-phenyl-7-(trifluoromethyl)pyrazolo[1,5-a]pyrimidine-2-carboxamide

> <Smile>
N#Cc1c(NC(c2nn3c(C(F)(F)F)cc(-c4ccccc4)nc3c2)=O)sc2c1CCCCC2

> <Color>
YELLOW

> <Collection>
DC

> <InChI>
InChI=1S/C24H18F3N5OS/c25-24(26,27)20-11-17(14-7-3-1-4-8-14)29-21-12-18(31-32(20)21)22(33)30-23-16(13-28)15-9-5-2-6-10-19(15)34-23/h1,3-4,7-8,11-12H,2,5-6,9-10H2,(H,30,33)

> <InChI Key>
ZDOFQHDLYXNTEB-UHFFFAOYSA-N

> <PERCENTSP3>
25

> <Link>
https://www.chemdiv.com/catalog/screening-compounds/compound-Y500-0391/

> <MFCDNUMBER>
MFCD01451763

> <STEREO>
ACHIRAL

> <State>
Solid

> <Similarity score>
0.20

$$$$
N-(3-cyano-5,6-dihydro-4H-cyclopenta[b]thiophen-2-yl)-5-(2,5-dimethoxyphenyl)-1,
  -OEChem-04222410502D

 28 31  0     0  0  0  0  0  0999 V2000
   -1.7000   -2.0773    0.0000 C   0  0  0  0  0  0  0  0  0  0  0  0
   -1.0938   -2.8501    0.0000 C   0  0  0  0  0  0  0  0  0  0  0  0
   -0.8689    1.0748    0.0000 C   0  0  0  0  0  0  0  0  0  0  0  0
   -2.6369   -2.4107    0.0000 S   0  0  0  0  0  0  0  0  0  0  0  0
   -1.6393   -3.6760    0.0000 C   0  0  0  0  0  0  0  0  0  0  0  0
   -0.3688    2.5574    0.0000 C   0  0  0  0  0  0  0  0  0  0  0  0
   -0.0709    1.6330    0.0000 C   0  0  0  0  0  0  0  0  0  0  0  0
   -1.6393    1.6481    0.0000 N   0  0  0  0  0  0  0  0  0  0  0  0
   -1.7000   -1.0696    0.0000 N   0  0  0  0  0  0  0  0  0  0  0  0
   -2.5913   -3.3957    0.0000 C   0  0  0  0  0  0  0  0  0  0  0  0
   -0.8386   -0.5696    0.0000 C   0  0  0  0  0  0  0  0  0  0  0  0
    0.1615    3.3579    0.0000 C   0  0  0  0  0  0  0  0  0  0  0  0
   -1.3362    2.5574    0.0000 O   0  0  0  0  0  0  0  0  0  0  0  0
   -0.0862   -2.8147    0.0000 C   0  0  0  0  0  0  0  0  0  0  0  0
    0.9092   -2.7743    0.0000 N   0  0  0  0  0  0  0  0  0  0  0  0
   -0.2627    4.2342    0.0000 C   0  0  0  0  0  0  0  0  0  0  0  0
    1.1262    3.2923    0.0000 C   0  0  0  0  0  0  0  0  0  0  0  0
   -0.0104   -1.0696    0.0000 O   0  0  0  0  0  0  0  0  0  0  0  0
    0.2776    5.0223    0.0000 C   0  0  0  0  0  0  0  0  0  0  0  0
    1.6542    4.0927    0.0000 C   0  0  0  0  0  0  0  0  0  0  0  0
   -1.5939   -4.6812    0.0000 C   0  0  0  0  0  0  0  0  0  0  0  0
   -3.1519   -4.2366    0.0000 C   0  0  0  0  0  0  0  0  0  0  0  0
    1.2425    4.9565    0.0000 C   0  0  0  0  0  0  0  0  0  0  0  0
   -1.2149    4.2190    0.0000 O   0  0  0  0  0  0  0  0  0  0  0  0
    2.6089    4.0221    0.0000 O   0  0  0  0  0  0  0  0  0  0  0  0
   -2.5458   -5.0223    0.0000 C   0  0  0  0  0  0  0  0  0  0  0  0
   -1.9121    4.8859    0.0000 C   0  0  0  0  0  0  0  0  0  0  0  0
    3.1519    4.8253    0.0000 C   0  0  0  0  0  0  0  0  0  0  0  0
  1  2  2  0  0  0  0
  3 11  1  0  0  0  0
  1  4  1  0  0  0  0
  2  5  1  0  0  0  0
  5 10  2  0  0  0  0
  6  7  2  0  0  0  0
  6 13  1  0  0  0  0
  3  7  1  0  0  0  0
  3  8  2  0  0  0  0
  1  9  1  0  0  0  0
  4 10  1  0  0  0  0
  9 11  1  0  0  0  0
  6 12  1  0  0  0  0
  8 13  1  0  0  0  0
  2 14  1  0  0  0  0
 14 15  3  0  0  0  0
 12 16  1  0  0  0  0
 12 17  2  0  0  0  0
 11 18  2  0  0  0  0
 16 19  2  0  0  0  0
 19 23  1  0  0  0  0
 17 20  1  0  0  0  0
  5 21  1  0  0  0  0
 10 22  1  0  0  0  0
 20 23  2  0  0  0  0
 16 24  1  0  0  0  0
 20 25  1  0  0  0  0
 22 26  1  0  0  0  0
 21 26  1  0  0  0  0
 24 27  1  0  0  0  0
 25 28  1  0  0  0  0
M  END
> <IDNUMBER>
C226-1691

> <available>
115

> <H_acceptor>
7

> <H_donor>
1

> <B_rotN>
7

> <N_O>
7

> <logP>
3.9051

> <logD>
2.5944

> <logSw>
-4.4028

> <PSA>
77.176

> <pKa_ma>
6.1111

> <pKa_mb>
-5.7541

> <N_Chirals>
0

> <Name>
N-(3-cyano-5,6-dihydro-4H-cyclopenta[b]thiophen-2-yl)-5-(2,5-dimethoxyphenyl)-1,2-oxazole-3-carboxamide

> <Smile>
COc(cc1)cc(-c2cc(C(Nc(sc3c4CCC3)c4C#N)=O)no2)c1OC

> <Color>
NOT COLORED

> <Collection>
DC

> <InChI>
InChI=1S/C20H17N3O4S/c1-25-11-6-7-16(26-2)13(8-11)17-9-15(23-27-17)19(24)22-20-14(10-21)12-4-3-5-18(12)28-20/h6-9H,3-5H2,1-2H3,(H,22,24)

> <InChI Key>
HEIQHOGETAVXGS-UHFFFAOYSA-N

> <PERCENTSP3>
25

> <Link>
https://www.chemdiv.com/catalog/screening-compounds/compound-C226-1691/

> <MFCDNUMBER>
MFCD14733077

> <CLNUMBER>
CL2028

> <STEREO>
ACHIRAL

> <State>
Solid

> <Similarity score>
0.20

$$$$
5-(2H-1,3-benzodioxol-5-yl)-N-(3-cyano-4,5,6,7-tetrahydro-1-benzothiophen-2-yl)-
  -OEChem-04222410502D

 36 41  0     0  0  0  0  0  0999 V2000
   -0.7567   -0.0272    0.0000 N   0  0  0  0  0  0  0  0  0  0  0  0
   -1.6013    0.4648    0.0000 C   0  0  0  0  0  0  0  0  0  0  0  0
   -0.7567   -1.0483    0.0000 C   0  0  0  0  0  0  0  0  0  0  0  0
    3.2724    0.2945    0.0000 C   0  0  0  0  0  0  0  0  0  0  0  0
    0.2097    0.2644    0.0000 N   0  0  0  0  0  0  0  0  0  0  0  0
    3.7647    1.1395    0.0000 C   0  0  0  0  0  0  0  0  0  0  0  0
    0.7929   -0.5561    0.0000 C   0  0  0  0  0  0  0  0  0  0  0  0
    0.2097   -1.3399    0.0000 C   0  0  0  0  0  0  0  0  0  0  0  0
   -1.6013   -1.5465    0.0000 N   0  0  0  0  0  0  0  0  0  0  0  0
   -2.4764   -0.0272    0.0000 C   0  0  0  0  0  0  0  0  0  0  0  0
    3.9653   -0.4648    0.0000 S   0  0  0  0  0  0  0  0  0  0  0  0
    4.7615    0.9328    0.0000 C   0  0  0  0  0  0  0  0  0  0  0  0
   -2.4764   -1.0483    0.0000 C   0  0  0  0  0  0  0  0  0  0  0  0
   -1.6013    1.4615    0.0000 C   0  0  0  0  0  0  0  0  0  0  0  0
    2.2818    0.2945    0.0000 N   0  0  0  0  0  0  0  0  0  0  0  0
    4.8770   -0.0272    0.0000 C   0  0  0  0  0  0  0  0  0  0  0  0
    1.7776   -0.5561    0.0000 C   0  0  0  0  0  0  0  0  0  0  0  0
    3.3575    2.0995    0.0000 C   0  0  0  0  0  0  0  0  0  0  0  0
   -3.3517   -1.5465    0.0000 C   0  0  0  0  0  0  0  0  0  0  0  0
    2.9808    3.0354    0.0000 N   0  0  0  0  0  0  0  0  0  0  0  0
   -5.0774   -1.5465    0.0000 C   0  0  0  0  0  0  0  0  0  0  0  0
   -4.2025   -1.0483    0.0000 C   0  0  0  0  0  0  0  0  0  0  0  0
   -5.0774   -2.5312    0.0000 C   0  0  0  0  0  0  0  0  0  0  0  0
   -6.0316   -1.2184    0.0000 O   0  0  0  0  0  0  0  0  0  0  0  0
   -6.0316   -2.8593    0.0000 O   0  0  0  0  0  0  0  0  0  0  0  0
   -6.5906   -2.0692    0.0000 C   0  0  0  0  0  0  0  0  0  0  0  0
    2.2818   -1.4312    0.0000 O   0  0  0  0  0  0  0  0  0  0  0  0
   -3.3517   -2.5312    0.0000 C   0  0  0  0  0  0  0  0  0  0  0  0
   -1.6013    2.4824    0.0000 F   0  0  0  0  0  0  0  0  0  0  0  0
   -0.6107    1.4615    0.0000 F   0  0  0  0  0  0  0  0  0  0  0  0
   -2.6224    1.4615    0.0000 F   0  0  0  0  0  0  0  0  0  0  0  0
   -4.2025   -3.0354    0.0000 C   0  0  0  0  0  0  0  0  0  0  0  0
    5.5453    1.5162    0.0000 C   0  0  0  0  0  0  0  0  0  0  0  0
    5.7822   -0.4346    0.0000 C   0  0  0  0  0  0  0  0  0  0  0  0
    6.4812    1.1150    0.0000 C   0  0  0  0  0  0  0  0  0  0  0  0
    6.5906    0.1489    0.0000 C   0  0  0  0  0  0  0  0  0  0  0  0
  1  2  1  0  0  0  0
  1  3  1  0  0  0  0
  4 15  1  0  0  0  0
  1  5  1  0  0  0  0
  4  6  2  0  0  0  0
  5  7  2  0  0  0  0
  7  8  1  0  0  0  0
  3  8  2  0  0  0  0
  3  9  1  0  0  0  0
  2 10  2  0  0  0  0
 10 13  1  0  0  0  0
  4 11  1  0  0  0  0
  6 12  1  0  0  0  0
  9 13  2  0  0  0  0
  2 14  1  0  0  0  0
 15 17  1  0  0  0  0
 11 16  1  0  0  0  0
 12 16  2  0  0  0  0
  7 17  1  0  0  0  0
  6 18  1  0  0  0  0
 13 19  1  0  0  0  0
 18 20  3  0  0  0  0
 21 22  2  0  0  0  0
 21 23  1  0  0  0  0
 19 22  1  0  0  0  0
 23 32  2  0  0  0  0
 21 24  1  0  0  0  0
 23 25  1  0  0  0  0
 25 26  1  0  0  0  0
 24 26  1  0  0  0  0
 17 27  2  0  0  0  0
 19 28  2  0  0  0  0
 14 29  1  0  0  0  0
 14 30  1  0  0  0  0
 14 31  1  0  0  0  0
 28 32  1  0  0  0  0
 12 33  1  0  0  0  0
 16 34  1  0  0  0  0
 33 35  1  0  0  0  0
 35 36  1  0  0  0  0
 34 36  1  0  0  0  0
M  END
> <IDNUMBER>
2774-1439

> <available>
1

> <H_acceptor>
7

> <H_donor>
1

> <B_rotN>
6

> <N_O>
8

> <logP>
5.4642

> <logD>
3.8382

> <logSw>
-5.914

> <PSA>
75.375

> <pKa_ma>
5.7844

> <pKa_mb>
2.841

> <N_Chirals>
0

> <Name>
5-(2H-1,3-benzodioxol-5-yl)-N-(3-cyano-4,5,6,7-tetrahydro-1-benzothiophen-2-yl)-7-(trifluoromethyl)pyrazolo[1,5-a]pyrimidine-2-carboxamide

> <Smile>
N#Cc1c(NC(c2nn3c(C(F)(F)F)cc(-c(cc4)cc5c4OCO5)nc3c2)=O)sc2c1CCCC2

> <Color>
YELLOW

> <Collection>
DC

> <InChI>
InChI=1S/C24H16F3N5O3S/c25-24(26,27)20-8-15(12-5-6-17-18(7-12)35-11-34-17)29-21-9-16(31-32(20)21)22(33)30-23-14(10-28)13-3-1-2-4-19(13)36-23/h5-9H,1-4,11H2,(H,30,33)

> <InChI Key>
VUSXCWIZFFHDDH-UHFFFAOYSA-N

> <PERCENTSP3>
25

> <Link>
https://www.chemdiv.com/catalog/screening-compounds/compound-2774-1439/

> <MFCDNUMBER>
MFCD01597131

> <CLNUMBER>
CL1652

> <STEREO>
ACHIRAL

> <State>
Solid

> <Similarity score>
0.20

$$$$
N-(3-cyano-4,5,6,7-tetrahydro-1-benzothiophen-2-yl)-5-(thiophen-2-yl)-7-(trifluo
  -OEChem-04222410502D

 32 36  0     0  0  0  0  0  0999 V2000
    0.3729   -1.8586    0.0000 N   0  0  0  0  0  0  0  0  0  0  0  0
    0.6315   -2.8296    0.0000 C   0  0  0  0  0  0  0  0  0  0  0  0
    1.0897   -1.1460    0.0000 C   0  0  0  0  0  0  0  0  0  0  0  0
   -2.6193    1.2002    0.0000 C   0  0  0  0  0  0  0  0  0  0  0  0
   -0.5481   -1.3711    0.0000 N   0  0  0  0  0  0  0  0  0  0  0  0
   -3.6110    1.3044    0.0000 C   0  0  0  0  0  0  0  0  0  0  0  0
   -0.3856   -0.4001    0.0000 C   0  0  0  0  0  0  0  0  0  0  0  0
    0.6147   -0.2250    0.0000 C   0  0  0  0  0  0  0  0  0  0  0  0
    2.0691   -1.3962    0.0000 N   0  0  0  0  0  0  0  0  0  0  0  0
    1.5940   -3.0964    0.0000 C   0  0  0  0  0  0  0  0  0  0  0  0
   -2.2067    2.0587    0.0000 S   0  0  0  0  0  0  0  0  0  0  0  0
   -3.7903    2.2837    0.0000 C   0  0  0  0  0  0  0  0  0  0  0  0
    2.3315   -2.3671    0.0000 C   0  0  0  0  0  0  0  0  0  0  0  0
   -0.1062   -3.5673    0.0000 C   0  0  0  0  0  0  0  0  0  0  0  0
   -2.1025    0.3126    0.0000 N   0  0  0  0  0  0  0  0  0  0  0  0
   -2.9193    2.7504    0.0000 C   0  0  0  0  0  0  0  0  0  0  0  0
   -1.1023    0.3126    0.0000 C   0  0  0  0  0  0  0  0  0  0  0  0
    3.2942   -2.6463    0.0000 C   0  0  0  0  0  0  0  0  0  0  0  0
   -4.2737    0.5377    0.0000 C   0  0  0  0  0  0  0  0  0  0  0  0
   -4.9696   -0.2044    0.0000 N   0  0  0  0  0  0  0  0  0  0  0  0
    3.6569   -3.6005    0.0000 S   0  0  0  0  0  0  0  0  0  0  0  0
   -0.6189    1.2044    0.0000 O   0  0  0  0  0  0  0  0  0  0  0  0
    4.1069   -2.0045    0.0000 C   0  0  0  0  0  0  0  0  0  0  0  0
    4.6986   -3.5673    0.0000 C   0  0  0  0  0  0  0  0  0  0  0  0
    4.9696   -2.5753    0.0000 C   0  0  0  0  0  0  0  0  0  0  0  0
   -0.6773   -3.0214    0.0000 F   0  0  0  0  0  0  0  0  0  0  0  0
    0.6147   -4.2757    0.0000 F   0  0  0  0  0  0  0  0  0  0  0  0
   -0.6439   -4.1799    0.0000 F   0  0  0  0  0  0  0  0  0  0  0  0
   -4.6570    2.8046    0.0000 C   0  0  0  0  0  0  0  0  0  0  0  0
   -2.8901    3.7549    0.0000 C   0  0  0  0  0  0  0  0  0  0  0  0
   -4.6362    3.7965    0.0000 C   0  0  0  0  0  0  0  0  0  0  0  0
   -3.7486    4.2757    0.0000 C   0  0  0  0  0  0  0  0  0  0  0  0
  1  2  1  0  0  0  0
  1  3  1  0  0  0  0
  4 15  1  0  0  0  0
  1  5  1  0  0  0  0
  4  6  2  0  0  0  0
  5  7  2  0  0  0  0
  3  8  2  0  0  0  0
  7  8  1  0  0  0  0
  3  9  1  0  0  0  0
  2 10  2  0  0  0  0
  4 11  1  0  0  0  0
  6 12  1  0  0  0  0
 12 16  2  0  0  0  0
  9 13  2  0  0  0  0
 10 13  1  0  0  0  0
  2 14  1  0  0  0  0
 15 17  1  0  0  0  0
 11 16  1  0  0  0  0
  7 17  1  0  0  0  0
 13 18  1  0  0  0  0
  6 19  1  0  0  0  0
 19 20  3  0  0  0  0
 18 21  1  0  0  0  0
 17 22  2  0  0  0  0
 18 23  2  0  0  0  0
 21 24  1  0  0  0  0
 23 25  1  0  0  0  0
 24 25  2  0  0  0  0
 14 26  1  0  0  0  0
 14 27  1  0  0  0  0
 14 28  1  0  0  0  0
 12 29  1  0  0  0  0
 16 30  1  0  0  0  0
 29 31  1  0  0  0  0
 31 32  1  0  0  0  0
 30 32  1  0  0  0  0
M  END
> <IDNUMBER>
Y500-2081

> <available>
26

> <H_acceptor>
5

> <H_donor>
1

> <B_rotN>
6

> <N_O>
6

> <logP>
5.3095

> <logD>
3.6835

> <logSw>
-5.6327

> <PSA>
59.278

> <pKa_ma>
5.7844

> <pKa_mb>
0.7525

> <N_Chirals>
0

> <Name>
N-(3-cyano-4,5,6,7-tetrahydro-1-benzothiophen-2-yl)-5-(thiophen-2-yl)-7-(trifluoromethyl)pyrazolo[1,5-a]pyrimidine-2-carboxamide

> <Smile>
N#Cc1c(NC(c2nn3c(C(F)(F)F)cc(-c4cccs4)nc3c2)=O)sc2c1CCCC2

> <Color>
ORANGE

> <Collection>
DC

> <InChI>
InChI=1S/C21H14F3N5OS2/c22-21(23,24)17-8-13(16-6-3-7-31-16)26-18-9-14(28-29(17)18)19(30)27-20-12(10-25)11-4-1-2-5-15(11)32-20/h3,6-9H,1-2,4-5H2,(H,27,30)

> <InChI Key>
SXUQHHNFGVPKLT-UHFFFAOYSA-N

> <PERCENTSP3>
23.81

> <Link>
https://www.chemdiv.com/catalog/screening-compounds/compound-Y500-2081/

> <MFCDNUMBER>
MFCD04043526

> <STEREO>
ACHIRAL

> <State>
Solid

> <Similarity score>
0.20

$$$$
N-(3-cyano-6-methyl-4,5,6,7-tetrahydro-1-benzothiophen-2-yl)-5-(furan-2-yl)-7-(t
  -OEChem-04222410502D

 33 37  0     0  0  0  0  0  0999 V2000
    1.7037   -0.2127    0.0000 N   0  0  0  0  0  0  0  0  0  0  0  0
    2.4106    0.5372    0.0000 C   0  0  0  0  0  0  0  0  0  0  0  0
    2.0331   -1.1593    0.0000 C   0  0  0  0  0  0  0  0  0  0  0  0
   -2.2393   -0.9646    0.0000 C   0  0  0  0  0  0  0  0  0  0  0  0
    0.6959   -0.2413    0.0000 N   0  0  0  0  0  0  0  0  0  0  0  0
   -2.9393   -0.2127    0.0000 C   0  0  0  0  0  0  0  0  0  0  0  0
    0.4149   -1.1292    0.0000 C   0  0  0  0  0  0  0  0  0  0  0  0
    1.2131   -1.7411    0.0000 C   0  0  0  0  0  0  0  0  0  0  0  0
    3.0092   -1.3703    0.0000 N   0  0  0  0  0  0  0  0  0  0  0  0
    3.3885    0.3276    0.0000 C   0  0  0  0  0  0  0  0  0  0  0  0
   -3.8425   -0.6654    0.0000 C   0  0  0  0  0  0  0  0  0  0  0  0
   -3.6928   -1.6313    0.0000 C   0  0  0  0  0  0  0  0  0  0  0  0
   -2.7184   -1.8159    0.0000 S   0  0  0  0  0  0  0  0  0  0  0  0
    3.6879   -0.6119    0.0000 C   0  0  0  0  0  0  0  0  0  0  0  0
    2.1229    1.4984    0.0000 C   0  0  0  0  0  0  0  0  0  0  0  0
   -1.2798   -0.6802    0.0000 N   0  0  0  0  0  0  0  0  0  0  0  0
   -0.5615   -1.3838    0.0000 C   0  0  0  0  0  0  0  0  0  0  0  0
   -2.7981    0.7650    0.0000 C   0  0  0  0  0  0  0  0  0  0  0  0
    4.6656   -0.8115    0.0000 C   0  0  0  0  0  0  0  0  0  0  0  0
   -2.6401    1.7245    0.0000 N   0  0  0  0  0  0  0  0  0  0  0  0
   -4.7889   -0.3010    0.0000 C   0  0  0  0  0  0  0  0  0  0  0  0
   -4.4746   -2.2685    0.0000 C   0  0  0  0  0  0  0  0  0  0  0  0
    5.0664   -1.7096    0.0000 O   0  0  0  0  0  0  0  0  0  0  0  0
   -0.8425   -2.3397    0.0000 O   0  0  0  0  0  0  0  0  0  0  0  0
    5.4257   -0.1530    0.0000 C   0  0  0  0  0  0  0  0  0  0  0  0
    6.0626   -1.6014    0.0000 C   0  0  0  0  0  0  0  0  0  0  0  0
    6.2623   -0.6503    0.0000 C   0  0  0  0  0  0  0  0  0  0  0  0
    1.8519    2.5078    0.0000 F   0  0  0  0  0  0  0  0  0  0  0  0
    3.0891    1.7844    0.0000 F   0  0  0  0  0  0  0  0  0  0  0  0
    1.1333    1.2440    0.0000 F   0  0  0  0  0  0  0  0  0  0  0  0
   -5.5722   -0.9797    0.0000 C   0  0  0  0  0  0  0  0  0  0  0  0
   -5.4190   -1.9208    0.0000 C   0  0  3  0  0  0  0  0  0  0  0  0
   -6.2623   -2.5078    0.0000 C   0  0  0  0  0  0  0  0  0  0  0  0
  1  2  1  0  0  0  0
  1  3  1  0  0  0  0
  4 16  1  0  0  0  0
  1  5  1  0  0  0  0
  4  6  2  0  0  0  0
  5  7  2  0  0  0  0
  3  8  2  0  0  0  0
  7  8  1  0  0  0  0
  3  9  1  0  0  0  0
  2 10  2  0  0  0  0
  6 11  1  0  0  0  0
 12 13  1  0  0  0  0
 11 12  2  0  0  0  0
  4 13  1  0  0  0  0
  9 14  2  0  0  0  0
 10 14  1  0  0  0  0
  2 15  1  0  0  0  0
 16 17  1  0  0  0  0
  7 17  1  0  0  0  0
  6 18  1  0  0  0  0
 14 19  1  0  0  0  0
 18 20  3  0  0  0  0
 11 21  1  0  0  0  0
 12 22  1  0  0  0  0
 19 23  1  0  0  0  0
 17 24  2  0  0  0  0
 19 25  2  0  0  0  0
 23 26  1  0  0  0  0
 26 27  2  0  0  0  0
 25 27  1  0  0  0  0
 15 28  1  0  0  0  0
 15 29  1  0  0  0  0
 15 30  1  0  0  0  0
 21 31  1  0  0  0  0
 22 32  1  0  0  0  0
 31 32  1  0  0  0  0
 32 33  1  0  0  0  0
M  END
> <IDNUMBER>
K061-0529

> <available>
1

> <H_acceptor>
6

> <H_donor>
1

> <B_rotN>
6

> <N_O>
7

> <logP>
5.0056

> <logD>
3.3796

> <logSw>
-4.7795

> <PSA>
66.838

> <pKa_ma>
5.7844

> <pKa_mb>
0.7525

> <N_Chirals>
1

> <Name>
N-(3-cyano-6-methyl-4,5,6,7-tetrahydro-1-benzothiophen-2-yl)-5-(furan-2-yl)-7-(trifluoromethyl)pyrazolo[1,5-a]pyrimidine-2-carboxamide

> <Smile>
CC(CC1)Cc2c1c(C#N)c(NC(c1nn3c(C(F)(F)F)cc(-c4ccco4)nc3c1)=O)s2

> <Color>
YELLOW

> <Collection>
DC

> <InChI>
InChI=1S/C22H16F3N5O2S/c1-11-4-5-12-13(10-26)21(33-17(12)7-11)28-20(31)15-9-19-27-14(16-3-2-6-32-16)8-18(22(23,24)25)30(19)29-15/h2-3,6,8-9,11H,4-5,7H2,1H3,(H,28,31)/t11-/m1/s1

> <InChI Key>
BLXFUKQLPOACMX-LLVKDONJSA-N

> <PERCENTSP3>
27.3

> <Link>
https://www.chemdiv.com/catalog/screening-compounds/compound-K061-0529/

> <MFCDNUMBER>
MFCD01450526

> <CLNUMBER>
CL1646

> <STEREO>
RACEMIC MIXTURE

> <State>
Solid

> <Similarity score>
0.20

$$$$
N-(3-cyano-4,5,6,7-tetrahydro-1-benzothiophen-2-yl)-5,7-bis(difluoromethyl)pyraz
  -OEChem-04222410502D

 29 32  0     0  0  0  0  0  0999 V2000
   -1.4067   -1.1672    0.0000 N   0  0  0  0  0  0  0  0  0  0  0  0
   -0.5397   -1.6673    0.0000 C   0  0  0  0  0  0  0  0  0  0  0  0
   -2.2778   -1.6798    0.0000 C   0  0  0  0  0  0  0  0  0  0  0  0
    1.7486    1.6464    0.0000 C   0  0  0  0  0  0  0  0  0  0  0  0
   -1.2150   -0.1918    0.0000 N   0  0  0  0  0  0  0  0  0  0  0  0
    2.7448    1.7590    0.0000 C   0  0  0  0  0  0  0  0  0  0  0  0
   -0.2188   -0.0917    0.0000 C   0  0  0  0  0  0  0  0  0  0  0  0
    0.2064   -1.0004    0.0000 C   0  0  0  0  0  0  0  0  0  0  0  0
   -0.5314   -2.6676    0.0000 N   0  0  0  0  0  0  0  0  0  0  0  0
   -2.2695   -2.6884    0.0000 C   0  0  0  0  0  0  0  0  0  0  0  0
    1.3360    2.5468    0.0000 S   0  0  0  0  0  0  0  0  0  0  0  0
    2.9323    2.7217    0.0000 C   0  0  0  0  0  0  0  0  0  0  0  0
   -1.4024   -3.1804    0.0000 C   0  0  0  0  0  0  0  0  0  0  0  0
    1.2609    0.7878    0.0000 N   0  0  0  0  0  0  0  0  0  0  0  0
    2.0862    3.2220    0.0000 C   0  0  0  0  0  0  0  0  0  0  0  0
    0.2731    0.7878    0.0000 C   0  0  0  0  0  0  0  0  0  0  0  0
    3.4200    1.0462    0.0000 C   0  0  0  0  0  0  0  0  0  0  0  0
   -3.1906   -1.1546    0.0000 C   0  0  0  0  0  0  0  0  0  0  0  0
    4.0869    0.3460    0.0000 N   0  0  0  0  0  0  0  0  0  0  0  0
   -1.3942   -4.1806    0.0000 C   0  0  0  0  0  0  0  0  0  0  0  0
   -0.2313    1.6590    0.0000 O   0  0  0  0  0  0  0  0  0  0  0  0
   -3.1949   -0.1251    0.0000 F   0  0  0  0  0  0  0  0  0  0  0  0
   -4.0869   -1.6798    0.0000 F   0  0  0  0  0  0  0  0  0  0  0  0
   -0.5314   -4.6683    0.0000 F   0  0  0  0  0  0  0  0  0  0  0  0
   -2.2653   -4.6934    0.0000 F   0  0  0  0  0  0  0  0  0  0  0  0
    3.7868    3.1969    0.0000 C   0  0  0  0  0  0  0  0  0  0  0  0
    2.0737    4.2057    0.0000 C   0  0  0  0  0  0  0  0  0  0  0  0
    3.7993    4.1890    0.0000 C   0  0  0  0  0  0  0  0  0  0  0  0
    2.9491    4.6934    0.0000 C   0  0  0  0  0  0  0  0  0  0  0  0
  1  2  1  0  0  0  0
  1  3  1  0  0  0  0
  4 14  1  0  0  0  0
  1  5  1  0  0  0  0
  4  6  2  0  0  0  0
  5  7  2  0  0  0  0
  2  8  2  0  0  0  0
  7  8  1  0  0  0  0
  2  9  1  0  0  0  0
  9 13  2  0  0  0  0
  3 10  2  0  0  0  0
  4 11  1  0  0  0  0
  6 12  1  0  0  0  0
 10 13  1  0  0  0  0
 14 16  1  0  0  0  0
 11 15  1  0  0  0  0
 12 15  2  0  0  0  0
  7 16  1  0  0  0  0
  6 17  1  0  0  0  0
  3 18  1  0  0  0  0
 17 19  3  0  0  0  0
 13 20  1  0  0  0  0
 16 21  2  0  0  0  0
 18 22  1  0  0  0  0
 18 23  1  0  0  0  0
 20 24  1  0  0  0  0
 20 25  1  0  0  0  0
 12 26  1  0  0  0  0
 15 27  1  0  0  0  0
 26 28  1  0  0  0  0
 27 29  1  0  0  0  0
 28 29  1  0  0  0  0
M  END
> <IDNUMBER>
Y509-6148

> <available>
76

> <H_acceptor>
5

> <H_donor>
1

> <B_rotN>
6

> <N_O>
6

> <logP>
3.313

> <logD>
1.687

> <logSw>
-3.773

> <PSA>
58.53

> <pKa_ma>
5.784

> <pKa_mb>
-2.385

> <N_Chirals>
0

> <Name>
N-(3-cyano-4,5,6,7-tetrahydro-1-benzothiophen-2-yl)-5,7-bis(difluoromethyl)pyrazolo[1,5-a]pyrimidine-2-carboxamide

> <Smile>
n12c(cc(n1)C(Nc1c(c3c(s1)CCCC3)C#N)=O)nc(cc2C(F)F)C(F)F

> <Color>
BROWN

> <Collection>
DC

> <InChI>
InChI=1S/C18H13F4N5OS/c19-15(20)10-5-12(16(21)22)27-14(24-10)6-11(26-27)17(28)25-18-9(7-23)8-3-1-2-4-13(8)29-18/h5-6,15-16H,1-4H2,(H,25,28)

> <InChI Key>
MNYMLAZEETVFSA-UHFFFAOYSA-N

> <PERCENTSP3>
33.33

> <Link>
https://www.chemdiv.com/catalog/screening-compounds/compound-Y509-6148/

> <MFCDNUMBER>
MFCD04053781

> <STEREO>
ACHIRAL

> <State>
Solid

> <Similarity score>
0.20

$$$$
N-(3-cyano-5,6,7,8-tetrahydro-4H-cyclohepta[b]thiophen-2-yl)-5-(thiophen-2-yl)-7
  -OEChem-04222410502D

 33 37  0     0  0  0  0  0  0999 V2000
    1.9371   -0.0320    0.0000 N   0  0  0  0  0  0  0  0  0  0  0  0
    2.8684    0.3945    0.0000 C   0  0  0  0  0  0  0  0  0  0  0  0
    1.8660   -1.0344    0.0000 C   0  0  0  0  0  0  0  0  0  0  0  0
   -2.1949    0.4853    0.0000 C   0  0  0  0  0  0  0  0  0  0  0  0
    1.0414    0.3823    0.0000 N   0  0  0  0  0  0  0  0  0  0  0  0
   -2.7671    1.2831    0.0000 C   0  0  0  0  0  0  0  0  0  0  0  0
    0.3643   -0.3945    0.0000 C   0  0  0  0  0  0  0  0  0  0  0  0
    0.8637   -1.2385    0.0000 C   0  0  0  0  0  0  0  0  0  0  0  0
    2.6676   -1.6119    0.0000 N   0  0  0  0  0  0  0  0  0  0  0  0
    3.6805   -0.1812    0.0000 C   0  0  0  0  0  0  0  0  0  0  0  0
   -2.7671   -0.3375    0.0000 S   0  0  0  0  0  0  0  0  0  0  0  0
   -3.7232    0.9687    0.0000 C   0  0  0  0  0  0  0  0  0  0  0  0
    3.5791   -1.2051    0.0000 C   0  0  0  0  0  0  0  0  0  0  0  0
    2.9537    1.4113    0.0000 C   0  0  0  0  0  0  0  0  0  0  0  0
   -1.1820    0.4853    0.0000 N   0  0  0  0  0  0  0  0  0  0  0  0
   -3.7232   -0.0320    0.0000 C   0  0  0  0  0  0  0  0  0  0  0  0
   -0.6808   -0.3945    0.0000 C   0  0  0  0  0  0  0  0  0  0  0  0
    4.4110   -1.7717    0.0000 C   0  0  0  0  0  0  0  0  0  0  0  0
   -2.4419    2.1984    0.0000 C   0  0  0  0  0  0  0  0  0  0  0  0
   -2.1150    3.1101    0.0000 N   0  0  0  0  0  0  0  0  0  0  0  0
    4.3736   -2.7617    0.0000 S   0  0  0  0  0  0  0  0  0  0  0  0
   -1.1820   -1.2385    0.0000 O   0  0  0  0  0  0  0  0  0  0  0  0
    5.3636   -1.5106    0.0000 C   0  0  0  0  0  0  0  0  0  0  0  0
    5.3120   -3.1101    0.0000 C   0  0  0  0  0  0  0  0  0  0  0  0
    5.9181   -2.3423    0.0000 C   0  0  0  0  0  0  0  0  0  0  0  0
    3.0461    2.4170    0.0000 F   0  0  0  0  0  0  0  0  0  0  0  0
    1.9371    1.5071    0.0000 F   0  0  0  0  0  0  0  0  0  0  0  0
    3.9773    1.3205    0.0000 F   0  0  0  0  0  0  0  0  0  0  0  0
   -4.4643    1.5818    0.0000 C   0  0  0  0  0  0  0  0  0  0  0  0
   -4.5320   -0.5864    0.0000 C   0  0  0  0  0  0  0  0  0  0  0  0
   -5.4489    1.4006    0.0000 C   0  0  0  0  0  0  0  0  0  0  0  0
   -5.4933   -0.3643    0.0000 C   0  0  0  0  0  0  0  0  0  0  0  0
   -5.9181    0.5421    0.0000 C   0  0  0  0  0  0  0  0  0  0  0  0
  1  2  1  0  0  0  0
  1  3  1  0  0  0  0
  4 15  1  0  0  0  0
  1  5  1  0  0  0  0
  4  6  2  0  0  0  0
  5  7  2  0  0  0  0
  7  8  1  0  0  0  0
  3  8  2  0  0  0  0
  3  9  1  0  0  0  0
  2 10  2  0  0  0  0
  4 11  1  0  0  0  0
  6 12  1  0  0  0  0
  9 13  2  0  0  0  0
 10 13  1  0  0  0  0
  2 14  1  0  0  0  0
 15 17  1  0  0  0  0
 11 16  1  0  0  0  0
 12 16  2  0  0  0  0
  7 17  1  0  0  0  0
 13 18  1  0  0  0  0
  6 19  1  0  0  0  0
 19 20  3  0  0  0  0
 18 21  1  0  0  0  0
 17 22  2  0  0  0  0
 18 23  2  0  0  0  0
 21 24  1  0  0  0  0
 24 25  2  0  0  0  0
 23 25  1  0  0  0  0
 14 26  1  0  0  0  0
 14 27  1  0  0  0  0
 14 28  1  0  0  0  0
 12 29  1  0  0  0  0
 16 30  1  0  0  0  0
 29 31  1  0  0  0  0
 30 32  1  0  0  0  0
 32 33  1  0  0  0  0
 31 33  1  0  0  0  0
M  END
> <IDNUMBER>
K061-0568

> <available>
32

> <H_acceptor>
5

> <H_donor>
1

> <B_rotN>
6

> <N_O>
6

> <logP>
5.8055

> <logD>
4.1795

> <logSw>
-5.786

> <PSA>
59.609

> <pKa_ma>
5.7844

> <pKa_mb>
0.7525

> <N_Chirals>
0

> <Name>
N-(3-cyano-5,6,7,8-tetrahydro-4H-cyclohepta[b]thiophen-2-yl)-5-(thiophen-2-yl)-7-(trifluoromethyl)pyrazolo[1,5-a]pyrimidine-2-carboxamide

> <Smile>
N#Cc1c(NC(c2nn3c(C(F)(F)F)cc(-c4cccs4)nc3c2)=O)sc2c1CCCCC2

> <Color>
YELLOW

> <Collection>
DC

> <InChI>
InChI=1S/C22H16F3N5OS2/c23-22(24,25)18-9-14(17-7-4-8-32-17)27-19-10-15(29-30(18)19)20(31)28-21-13(11-26)12-5-2-1-3-6-16(12)33-21/h4,7-10H,1-3,5-6H2,(H,28,31)

> <InChI Key>
DYUDAZWVAHRVEF-UHFFFAOYSA-N

> <PERCENTSP3>
27.3

> <Link>
https://www.chemdiv.com/catalog/screening-compounds/compound-K061-0568/

> <MFCDNUMBER>
MFCD01451879

> <CLNUMBER>
CL1647

> <STEREO>
ACHIRAL

> <State>
Solid

> <Similarity score>
0.20

$$$$
2-[2-(4-amino-1,2,5-oxadiazol-3-yl)-1H-benzimidazol-1-yl]-N-(6-tert-butyl-3-cyan
  -OEChem-04222410502D

 34 38  0     0  0  0  0  0  0999 V2000
    3.4465   -0.1069    0.0000 C   0  0  0  0  0  0  0  0  0  0  0  0
    2.4766   -0.1674    0.0000 N   0  0  0  0  0  0  0  0  0  0  0  0
   -0.9532    0.5361    0.0000 C   0  0  0  0  0  0  0  0  0  0  0  0
   -1.7373    1.1344    0.0000 C   0  0  0  0  0  0  0  0  0  0  0  0
    4.0231    0.7066    0.0000 C   0  0  0  0  0  0  0  0  0  0  0  0
    3.8045   -1.0337    0.0000 N   0  0  0  0  0  0  0  0  0  0  0  0
   -2.2362   -0.4091    0.0000 C   0  0  0  0  0  0  0  0  0  0  0  0
   -2.5338    0.5471    0.0000 C   0  0  0  0  0  0  0  0  0  0  0  0
   -1.2538   -0.4091    0.0000 S   0  0  0  0  0  0  0  0  0  0  0  0
    3.7487    1.6769    0.0000 C   0  0  0  0  0  0  0  0  0  0  0  0
    4.5888    2.2191    0.0000 N   0  0  0  0  0  0  0  0  0  0  0  0
    0.0139    0.8708    0.0000 N   0  0  0  0  0  0  0  0  0  0  0  0
    5.0164    0.6959    0.0000 N   0  0  0  0  0  0  0  0  0  0  0  0
    2.2083   -1.1158    0.0000 C   0  0  0  0  0  0  0  0  0  0  0  0
    5.3558    1.6551    0.0000 O   0  0  0  0  0  0  0  0  0  0  0  0
    3.0530   -1.6581    0.0000 C   0  0  0  0  0  0  0  0  0  0  0  0
   -1.6923    2.1418    0.0000 C   0  0  0  0  0  0  0  0  0  0  0  0
    0.7764    0.1906    0.0000 C   0  0  0  0  0  0  0  0  0  0  0  0
    1.7482    0.5147    0.0000 C   0  0  0  0  0  0  0  0  0  0  0  0
   -2.9258   -1.1374    0.0000 C   0  0  0  0  0  0  0  0  0  0  0  0
   -1.6675    3.1460    0.0000 N   0  0  0  0  0  0  0  0  0  0  0  0
   -3.5286    0.7779    0.0000 C   0  0  0  0  0  0  0  0  0  0  0  0
   -3.8851   -0.9173    0.0000 C   0  0  3  0  0  0  0  0  0  0  0  0
   -4.5561   -1.6581    0.0000 C   0  0  0  0  0  0  0  0  0  0  0  0
   -4.1874    0.0311    0.0000 C   0  0  0  0  0  0  0  0  0  0  0  0
    0.5798   -0.7764    0.0000 O   0  0  0  0  0  0  0  0  0  0  0  0
    2.8220    2.0006    0.0000 N   0  0  0  0  0  0  0  0  0  0  0  0
    1.3078   -1.5994    0.0000 C   0  0  0  0  0  0  0  0  0  0  0  0
    3.0419   -2.6625    0.0000 C   0  0  0  0  0  0  0  0  0  0  0  0
   -5.3558   -2.3494    0.0000 C   0  0  0  0  0  0  0  0  0  0  0  0
   -5.1575   -0.9624    0.0000 C   0  0  0  0  0  0  0  0  0  0  0  0
   -3.8743   -2.4422    0.0000 C   0  0  0  0  0  0  0  0  0  0  0  0
    1.2646   -2.6034    0.0000 C   0  0  0  0  0  0  0  0  0  0  0  0
    2.1525   -3.1460    0.0000 C   0  0  0  0  0  0  0  0  0  0  0  0
  1  2  1  0  0  0  0
  3 12  1  0  0  0  0
  3  4  2  0  0  0  0
  1  5  1  0  0  0  0
  1  6  2  0  0  0  0
  7  9  1  0  0  0  0
  7  8  2  0  0  0  0
  4  8  1  0  0  0  0
  3  9  1  0  0  0  0
  5 10  1  0  0  0  0
 10 11  2  0  0  0  0
 12 18  1  0  0  0  0
  5 13  2  0  0  0  0
  2 14  1  0  0  0  0
 14 16  1  0  0  0  0
 13 15  1  0  0  0  0
 11 15  1  0  0  0  0
  6 16  1  0  0  0  0
  4 17  1  0  0  0  0
 18 19  1  0  0  0  0
  2 19  1  0  0  0  0
  7 20  1  0  0  0  0
 17 21  3  0  0  0  0
  8 22  1  0  0  0  0
 20 23  1  0  0  0  0
 23 24  1  0  0  0  0
 22 25  1  0  0  0  0
 23 25  1  0  0  0  0
 18 26  2  0  0  0  0
 10 27  1  0  0  0  0
 14 28  2  0  0  0  0
 16 29  2  0  0  0  0
 24 30  1  0  0  0  0
 24 31  1  0  0  0  0
 24 32  1  0  0  0  0
 28 33  1  0  0  0  0
 33 34  2  0  0  0  0
 29 34  1  0  0  0  0
M  END
> <IDNUMBER>
8014-1167

> <available>
25

> <H_acceptor>
7

> <H_donor>
3

> <B_rotN>
7

> <N_O>
9

> <logP>
5.3736

> <logD>
3.971

> <logSw>
-5.3873

> <PSA>
106.901

> <pKa_ma>
6.0149

> <pKa_mb>
3.9643

> <N_Chirals>
1

> <Name>
2-[2-(4-amino-1,2,5-oxadiazol-3-yl)-1H-benzimidazol-1-yl]-N-(6-tert-butyl-3-cyano-4,5,6,7-tetrahydro-1-benzothiophen-2-yl)acetamide

> <Smile>
CC(C)(C)C(CC1)Cc2c1c(C#N)c(NC(Cn1c(-c3nonc3N)nc3c1cccc3)=O)s2

> <Color>
BROWN

> <Collection>
DC

> <InChI>
InChI=1S/C24H25N7O2S/c1-24(2,3)13-8-9-14-15(11-25)23(34-18(14)10-13)28-19(32)12-31-17-7-5-4-6-16(17)27-22(31)20-21(26)30-33-29-20/h4-7,13H,8-10,12H2,1-3H3,(H2,26,30)(H,28,32)/t13-/m1/s1

> <InChI Key>
IDKGSEMMYVDLEV-CYBMUJFWSA-N

> <PERCENTSP3>
37.5

> <Link>
https://www.chemdiv.com/catalog/screening-compounds/compound-8014-1167/

> <MFCDNUMBER>
MFCD03767504

> <CLNUMBER>
CL2888

> <STEREO>
RACEMIC MIXTURE

> <State>
Solid

> <Similarity score>
0.20

$$$$
N-(6-tert-butyl-3-cyano-4,5,6,7-tetrahydro-1-benzothiophen-2-yl)-5-(4-methylphen
  -OEChem-04222410502D

 38 42  0     0  0  0  0  0  0999 V2000
   -0.0100    1.9400    0.0000 N   0  0  0  0  0  0  0  0  0  0  0  0
   -0.4939    2.8016    0.0000 C   0  0  0  0  0  0  0  0  0  0  0  0
    1.0029    1.9249    0.0000 C   0  0  0  0  0  0  0  0  0  0  0  0
   -0.3728   -2.1011    0.0000 C   0  0  0  0  0  0  0  0  0  0  0  0
   -0.3173    0.9873    0.0000 N   0  0  0  0  0  0  0  0  0  0  0  0
   -1.1739   -2.6807    0.0000 C   0  0  0  0  0  0  0  0  0  0  0  0
    0.4885    0.3981    0.0000 C   0  0  0  0  0  0  0  0  0  0  0  0
    1.2897    0.9573    0.0000 C   0  0  0  0  0  0  0  0  0  0  0  0
    1.5112    2.7711    0.0000 N   0  0  0  0  0  0  0  0  0  0  0  0
    0.0051    3.6731    0.0000 C   0  0  0  0  0  0  0  0  0  0  0  0
    0.1109   -3.6431    0.0000 C   0  0  0  0  0  0  0  0  0  0  0  0
   -0.8867   -3.6178    0.0000 C   0  0  0  0  0  0  0  0  0  0  0  0
    0.4281   -2.6807    0.0000 S   0  0  0  0  0  0  0  0  0  0  0  0
   -1.4912    2.8164    0.0000 C   0  0  0  0  0  0  0  0  0  0  0  0
    1.0178    3.6578    0.0000 C   0  0  0  0  0  0  0  0  0  0  0  0
   -0.3728   -1.0935    0.0000 N   0  0  0  0  0  0  0  0  0  0  0  0
    0.4885   -0.6047    0.0000 C   0  0  0  0  0  0  0  0  0  0  0  0
   -2.1215   -2.3634    0.0000 C   0  0  0  0  0  0  0  0  0  0  0  0
    0.6047   -4.5045    0.0000 C   0  0  0  0  0  0  0  0  0  0  0  0
   -3.0735   -2.0455    0.0000 N   0  0  0  0  0  0  0  0  0  0  0  0
   -1.3906   -4.4794    0.0000 C   0  0  0  0  0  0  0  0  0  0  0  0
    0.0958   -5.3661    0.0000 C   0  0  3  0  0  0  0  0  0  0  0  0
    1.5316    4.5094    0.0000 C   0  0  0  0  0  0  0  0  0  0  0  0
    0.5792   -6.2327    0.0000 C   0  0  0  0  0  0  0  0  0  0  0  0
    1.3501   -1.1086    0.0000 O   0  0  0  0  0  0  0  0  0  0  0  0
   -0.9169   -5.3412    0.0000 C   0  0  0  0  0  0  0  0  0  0  0  0
   -1.5068    1.8187    0.0000 F   0  0  0  0  0  0  0  0  0  0  0  0
   -2.4843    2.8315    0.0000 F   0  0  0  0  0  0  0  0  0  0  0  0
   -1.4763    3.8242    0.0000 F   0  0  0  0  0  0  0  0  0  0  0  0
    1.0477    5.3860    0.0000 C   0  0  0  0  0  0  0  0  0  0  0  0
    2.5396    4.4945    0.0000 C   0  0  0  0  0  0  0  0  0  0  0  0
    1.5567    6.2476    0.0000 C   0  0  0  0  0  0  0  0  0  0  0  0
    3.0535    5.3561    0.0000 C   0  0  0  0  0  0  0  0  0  0  0  0
    2.5596    6.2327    0.0000 C   0  0  0  0  0  0  0  0  0  0  0  0
    1.0733   -7.1094    0.0000 C   0  0  0  0  0  0  0  0  0  0  0  0
    1.4561   -5.7493    0.0000 C   0  0  0  0  0  0  0  0  0  0  0  0
   -0.2973   -6.7266    0.0000 C   0  0  0  0  0  0  0  0  0  0  0  0
    3.0735    7.1094    0.0000 C   0  0  0  0  0  0  0  0  0  0  0  0
  1  2  1  0  0  0  0
  1  3  1  0  0  0  0
  4 16  1  0  0  0  0
  1  5  1  0  0  0  0
  4  6  2  0  0  0  0
  5  7  2  0  0  0  0
  7  8  1  0  0  0  0
  3  8  2  0  0  0  0
  3  9  1  0  0  0  0
  2 10  2  0  0  0  0
 10 15  1  0  0  0  0
 11 13  1  0  0  0  0
 11 12  2  0  0  0  0
  6 12  1  0  0  0  0
  4 13  1  0  0  0  0
  2 14  1  0  0  0  0
  9 15  2  0  0  0  0
 16 17  1  0  0  0  0
  7 17  1  0  0  0  0
  6 18  1  0  0  0  0
 11 19  1  0  0  0  0
 18 20  3  0  0  0  0
 12 21  1  0  0  0  0
 19 22  1  0  0  0  0
 15 23  1  0  0  0  0
 22 24  1  0  0  0  0
 17 25  2  0  0  0  0
 21 26  1  0  0  0  0
 22 26  1  0  0  0  0
 14 27  1  0  0  0  0
 14 28  1  0  0  0  0
 14 29  1  0  0  0  0
 23 30  2  0  0  0  0
 23 31  1  0  0  0  0
 30 32  1  0  0  0  0
 32 34  2  0  0  0  0
 31 33  2  0  0  0  0
 33 34  1  0  0  0  0
 24 35  1  0  0  0  0
 24 36  1  0  0  0  0
 24 37  1  0  0  0  0
 34 38  1  0  0  0  0
M  END
> <IDNUMBER>
A0005597

> <available>
11

> <H_acceptor>
5

> <H_donor>
1

> <B_rotN>
7

> <N_O>
6

> <logP>
7.6461

> <logD>
6.0201

> <logSw>
-5.7032

> <PSA>
58.26

> <pKa_ma>
5.7844

> <pKa_mb>
2.2681

> <N_Chirals>
1

> <Name>
N-(6-tert-butyl-3-cyano-4,5,6,7-tetrahydro-1-benzothiophen-2-yl)-5-(4-methylphenyl)-7-(trifluoromethyl)pyrazolo[1,5-a]pyrimidine-2-carboxamide

> <Smile>
CC(C)(C)C(CC1)Cc2c1c(C#N)c(NC(c1nn3c(C(F)(F)F)cc(-c4ccc(C)cc4)nc3c1)=O)s2

> <Color>
YELLOW

> <Collection>
DC

> <InChI>
InChI=1S/C28H26F3N5OS/c1-15-5-7-16(8-6-15)20-12-23(28(29,30)31)36-24(33-20)13-21(35-36)25(37)34-26-19(14-32)18-10-9-17(27(2,3)4)11-22(18)38-26/h5-8,12-13,17H,9-11H2,1-4H3,(H,34,37)/t17-/m1/s1

> <InChI Key>
XIPSFBQKNBHORV-QGZVFWFLSA-N

> <PERCENTSP3>
35.7

> <Link>
https://www.chemdiv.com/catalog/screening-compounds/compound-A0005597/

> <MFCDNUMBER>
MFCD02087746

> <CLNUMBER>
CL1652

> <STEREO>
RACEMIC MIXTURE

> <State>
Solid

> <Similarity score>
0.20

$$$$
1-[4-(1-methyl-1H-pyrazol-4-yl)-6-(trifluoromethyl)pyrimidin-2-yl]-1H-pyrazole-3
  -OEChem-04222410502D

 24 26  0     0  0  0  0  0  0999 V2000
    0.0563    0.4793    0.0000 C   0  0  0  0  0  0  0  0  0  0  0  0
    1.8318    0.5293    0.0000 N   0  0  0  0  0  0  0  0  0  0  0  0
    0.9191    0.9710    0.0000 N   0  0  0  0  0  0  0  0  0  0  0  0
    2.5278    1.2419    0.0000 C   0  0  0  0  0  0  0  0  0  0  0  0
   -2.5319    0.9460    0.0000 C   0  0  0  0  0  0  0  0  0  0  0  0
   -0.8064    0.9710    0.0000 N   0  0  0  0  0  0  0  0  0  0  0  0
    0.0563   -0.5335    0.0000 N   0  0  0  0  0  0  0  0  0  0  0  0
   -1.6691    0.4542    0.0000 C   0  0  0  0  0  0  0  0  0  0  0  0
   -0.8064   -1.0211    0.0000 C   0  0  0  0  0  0  0  0  0  0  0  0
   -0.8064   -2.0339    0.0000 C   0  0  0  0  0  0  0  0  0  0  0  0
    2.0569    2.1297    0.0000 C   0  0  0  0  0  0  0  0  0  0  0  0
   -4.1323    1.2419    0.0000 N   0  0  0  0  0  0  0  0  0  0  0  0
   -2.6819    1.9338    0.0000 C   0  0  0  0  0  0  0  0  0  0  0  0
   -3.6614    2.1089    0.0000 N   0  0  0  0  0  0  0  0  0  0  0  0
    1.0690    1.9588    0.0000 C   0  0  0  0  0  0  0  0  0  0  0  0
    3.5405    1.1211    0.0000 C   0  0  0  0  0  0  0  0  0  0  0  0
   -1.6691   -0.5335    0.0000 C   0  0  0  0  0  0  0  0  0  0  0  0
   -3.4447    0.5041    0.0000 C   0  0  0  0  0  0  0  0  0  0  0  0
    3.9323    0.2333    0.0000 O   0  0  0  0  0  0  0  0  0  0  0  0
   -0.8064   -3.0218    0.0000 F   0  0  0  0  0  0  0  0  0  0  0  0
   -1.7942   -2.0339    0.0000 F   0  0  0  0  0  0  0  0  0  0  0  0
    0.2064   -2.0339    0.0000 F   0  0  0  0  0  0  0  0  0  0  0  0
    4.1323    1.9338    0.0000 N   0  0  0  0  0  0  0  0  0  0  0  0
   -4.1073    3.0218    0.0000 C   0  0  0  0  0  0  0  0  0  0  0  0
  2  3  1  0  0  0  0
  1  3  1  0  0  0  0
  2  4  2  0  0  0  0
  4 11  1  0  0  0  0
  5  8  1  0  0  0  0
  1  6  2  0  0  0  0
  1  7  1  0  0  0  0
  6  8  1  0  0  0  0
  8 17  2  0  0  0  0
  7  9  2  0  0  0  0
  9 10  1  0  0  0  0
 11 15  2  0  0  0  0
 12 18  2  0  0  0  0
  5 13  2  0  0  0  0
 13 14  1  0  0  0  0
 12 14  1  0  0  0  0
  3 15  1  0  0  0  0
  4 16  1  0  0  0  0
  9 17  1  0  0  0  0
  5 18  1  0  0  0  0
 16 19  2  0  0  0  0
 10 20  1  0  0  0  0
 10 21  1  0  0  0  0
 10 22  1  0  0  0  0
 16 23  1  0  0  0  0
 14 24  1  0  0  0  0
M  END
> <IDNUMBER>
Y509-8880

> <available>
1

> <H_acceptor>
6

> <H_donor>
2

> <B_rotN>
4

> <N_O>
8

> <logP>
1.1279

> <logD>
1.1279

> <logSw>
-1.8373

> <PSA>
80.574

> <pKa_ma>
15.0784

> <pKa_mb>
3.3904

> <N_Chirals>
0

> <Name>
1-[4-(1-methyl-1H-pyrazol-4-yl)-6-(trifluoromethyl)pyrimidin-2-yl]-1H-pyrazole-3-carboxamide

> <Smile>
c1(n2nc(cc2)C(=O)N)nc(c2cn(nc2)C)cc(n1)C(F)(F)F

> <Color>
NOT COLORED

> <Collection>
DC

> <InChI>
InChI=1S/C13H10F3N7O/c1-22-6-7(5-18-22)9-4-10(13(14,15)16)20-12(19-9)23-3-2-8(21-23)11(17)24/h2-6H,1H3,(H2,17,24)

> <InChI Key>
CCXICUAIZMHRCC-UHFFFAOYSA-N

> <PERCENTSP3>
15.4

> <Link>
https://www.chemdiv.com/catalog/screening-compounds/compound-Y509-8880/

> <MFCDNUMBER>
MFCD04139951

> <STEREO>
ACHIRAL

> <State>
Solid

> <Similarity score>
0.20

$$$$
N-(6-tert-butyl-3-cyano-4,5,6,7-tetrahydro-1-benzothiophen-2-yl)-5-(4-chlorophen
  -OEChem-04222410502D

 38 42  0     0  0  0  0  0  0999 V2000
   -0.0100    1.9400    0.0000 N   0  0  0  0  0  0  0  0  0  0  0  0
   -0.4939    2.8016    0.0000 C   0  0  0  0  0  0  0  0  0  0  0  0
    1.0029    1.9249    0.0000 C   0  0  0  0  0  0  0  0  0  0  0  0
   -0.3728   -2.1011    0.0000 C   0  0  0  0  0  0  0  0  0  0  0  0
   -0.3173    0.9873    0.0000 N   0  0  0  0  0  0  0  0  0  0  0  0
   -1.1739   -2.6807    0.0000 C   0  0  0  0  0  0  0  0  0  0  0  0
    0.4885    0.3981    0.0000 C   0  0  0  0  0  0  0  0  0  0  0  0
    1.2897    0.9573    0.0000 C   0  0  0  0  0  0  0  0  0  0  0  0
    1.5112    2.7711    0.0000 N   0  0  0  0  0  0  0  0  0  0  0  0
    0.0051    3.6731    0.0000 C   0  0  0  0  0  0  0  0  0  0  0  0
    0.1109   -3.6431    0.0000 C   0  0  0  0  0  0  0  0  0  0  0  0
   -0.8867   -3.6178    0.0000 C   0  0  0  0  0  0  0  0  0  0  0  0
    0.4281   -2.6807    0.0000 S   0  0  0  0  0  0  0  0  0  0  0  0
   -1.4912    2.8164    0.0000 C   0  0  0  0  0  0  0  0  0  0  0  0
    1.0178    3.6578    0.0000 C   0  0  0  0  0  0  0  0  0  0  0  0
   -0.3728   -1.0935    0.0000 N   0  0  0  0  0  0  0  0  0  0  0  0
    0.4885   -0.6047    0.0000 C   0  0  0  0  0  0  0  0  0  0  0  0
   -2.1215   -2.3634    0.0000 C   0  0  0  0  0  0  0  0  0  0  0  0
    0.6047   -4.5045    0.0000 C   0  0  0  0  0  0  0  0  0  0  0  0
   -3.0735   -2.0455    0.0000 N   0  0  0  0  0  0  0  0  0  0  0  0
   -1.3906   -4.4794    0.0000 C   0  0  0  0  0  0  0  0  0  0  0  0
    0.0958   -5.3661    0.0000 C   0  0  3  0  0  0  0  0  0  0  0  0
    1.5316    4.5094    0.0000 C   0  0  0  0  0  0  0  0  0  0  0  0
    0.5792   -6.2327    0.0000 C   0  0  0  0  0  0  0  0  0  0  0  0
    1.3501   -1.1086    0.0000 O   0  0  0  0  0  0  0  0  0  0  0  0
   -0.9169   -5.3412    0.0000 C   0  0  0  0  0  0  0  0  0  0  0  0
   -1.5068    1.8187    0.0000 F   0  0  0  0  0  0  0  0  0  0  0  0
   -2.4843    2.8315    0.0000 F   0  0  0  0  0  0  0  0  0  0  0  0
   -1.4763    3.8242    0.0000 F   0  0  0  0  0  0  0  0  0  0  0  0
    1.0477    5.3860    0.0000 C   0  0  0  0  0  0  0  0  0  0  0  0
    2.5396    4.4945    0.0000 C   0  0  0  0  0  0  0  0  0  0  0  0
    2.5596    6.2327    0.0000 C   0  0  0  0  0  0  0  0  0  0  0  0
    1.5567    6.2476    0.0000 C   0  0  0  0  0  0  0  0  0  0  0  0
    3.0535    5.3561    0.0000 C   0  0  0  0  0  0  0  0  0  0  0  0
    3.0735    7.1094    0.0000 Cl  0  0  0  0  0  0  0  0  0  0  0  0
    1.0733   -7.1094    0.0000 C   0  0  0  0  0  0  0  0  0  0  0  0
    1.4561   -5.7493    0.0000 C   0  0  0  0  0  0  0  0  0  0  0  0
   -0.2973   -6.7266    0.0000 C   0  0  0  0  0  0  0  0  0  0  0  0
  1  2  1  0  0  0  0
  1  3  1  0  0  0  0
  4 16  1  0  0  0  0
  1  5  1  0  0  0  0
  4  6  2  0  0  0  0
  5  7  2  0  0  0  0
  7  8  1  0  0  0  0
  3  8  2  0  0  0  0
  3  9  1  0  0  0  0
  2 10  2  0  0  0  0
 10 15  1  0  0  0  0
 11 13  1  0  0  0  0
 11 12  2  0  0  0  0
  6 12  1  0  0  0  0
  4 13  1  0  0  0  0
  2 14  1  0  0  0  0
  9 15  2  0  0  0  0
 16 17  1  0  0  0  0
  7 17  1  0  0  0  0
  6 18  1  0  0  0  0
 11 19  1  0  0  0  0
 18 20  3  0  0  0  0
 12 21  1  0  0  0  0
 19 22  1  0  0  0  0
 15 23  1  0  0  0  0
 22 24  1  0  0  0  0
 17 25  2  0  0  0  0
 21 26  1  0  0  0  0
 22 26  1  0  0  0  0
 14 27  1  0  0  0  0
 14 28  1  0  0  0  0
 14 29  1  0  0  0  0
 23 30  2  0  0  0  0
 23 31  1  0  0  0  0
 32 34  1  0  0  0  0
 30 33  1  0  0  0  0
 32 33  2  0  0  0  0
 31 34  2  0  0  0  0
 32 35  1  0  0  0  0
 24 36  1  0  0  0  0
 24 37  1  0  0  0  0
 24 38  1  0  0  0  0
M  END
> <IDNUMBER>
A0005729

> <available>
12

> <H_acceptor>
5

> <H_donor>
1

> <B_rotN>
7

> <N_O>
6

> <logP>
7.8174

> <logD>
6.1914

> <logSw>
-6.6576

> <PSA>
58.26

> <pKa_ma>
5.7844

> <pKa_mb>
1.5188

> <N_Chirals>
1

> <Name>
N-(6-tert-butyl-3-cyano-4,5,6,7-tetrahydro-1-benzothiophen-2-yl)-5-(4-chlorophenyl)-7-(trifluoromethyl)pyrazolo[1,5-a]pyrimidine-2-carboxamide

> <Smile>
CC(C)(C)C(CC1)Cc2c1c(C#N)c(NC(c1nn3c(C(F)(F)F)cc(-c(cc4)ccc4Cl)nc3c1)=O)s2

> <Color>
YELLOW

> <Collection>
DC

> <InChI>
InChI=1S/C27H23ClF3N5OS/c1-26(2,3)15-6-9-17-18(13-32)25(38-21(17)10-15)34-24(37)20-12-23-33-19(14-4-7-16(28)8-5-14)11-22(27(29,30)31)36(23)35-20/h4-5,7-8,11-12,15H,6,9-10H2,1-3H3,(H,34,37)/t15-/m1/s1

> <InChI Key>
LEMQIJMAVHQUMR-OAHLLOKOSA-N

> <PERCENTSP3>
33.3

> <Link>
https://www.chemdiv.com/catalog/screening-compounds/compound-A0005729/

> <MFCDNUMBER>
MFCD02087756

> <CLNUMBER>
CL1652

> <STEREO>
RACEMIC MIXTURE

> <State>
Solid

> <Similarity score>
0.19

$$$$
N-(6-tert-butyl-3-cyano-4,5,6,7-tetrahydro-1-benzothiophen-2-yl)-5-(3,4-dimethox
  -OEChem-04222410502D

 41 45  0     0  0  0  0  0  0999 V2000
    1.0250    1.5008    0.0000 N   0  0  0  0  0  0  0  0  0  0  0  0
    1.5083    2.3619    0.0000 C   0  0  0  0  0  0  0  0  0  0  0  0
    0.0229    1.4854    0.0000 C   0  0  0  0  0  0  0  0  0  0  0  0
   -0.3345   -2.5383    0.0000 C   0  0  0  0  0  0  0  0  0  0  0  0
    1.3421    0.5490    0.0000 N   0  0  0  0  0  0  0  0  0  0  0  0
   -1.1358   -3.1173    0.0000 C   0  0  0  0  0  0  0  0  0  0  0  0
    0.5363   -0.0403    0.0000 C   0  0  0  0  0  0  0  0  0  0  0  0
   -0.2744    0.5184    0.0000 C   0  0  0  0  0  0  0  0  0  0  0  0
   -0.5010    2.3315    0.0000 N   0  0  0  0  0  0  0  0  0  0  0  0
    1.0047    3.2330    0.0000 C   0  0  0  0  0  0  0  0  0  0  0  0
    0.1485   -4.0793    0.0000 C   0  0  0  0  0  0  0  0  0  0  0  0
   -0.8487   -4.0541    0.0000 C   0  0  0  0  0  0  0  0  0  0  0  0
    0.4661   -3.1173    0.0000 S   0  0  0  0  0  0  0  0  0  0  0  0
   -0.0024    3.2179    0.0000 C   0  0  0  0  0  0  0  0  0  0  0  0
    2.5055    2.3768    0.0000 C   0  0  0  0  0  0  0  0  0  0  0  0
   -0.3345   -1.5314    0.0000 N   0  0  0  0  0  0  0  0  0  0  0  0
    0.5264   -1.0425    0.0000 C   0  0  0  0  0  0  0  0  0  0  0  0
   -2.0826   -2.8002    0.0000 C   0  0  0  0  0  0  0  0  0  0  0  0
    0.6424   -4.9405    0.0000 C   0  0  0  0  0  0  0  0  0  0  0  0
   -0.5163    4.0692    0.0000 C   0  0  0  0  0  0  0  0  0  0  0  0
   -3.0343   -2.4831    0.0000 N   0  0  0  0  0  0  0  0  0  0  0  0
   -1.3520   -4.9155    0.0000 C   0  0  0  0  0  0  0  0  0  0  0  0
    0.1337   -5.8017    0.0000 C   0  0  3  0  0  0  0  0  0  0  0  0
   -1.5182    4.0539    0.0000 C   0  0  0  0  0  0  0  0  0  0  0  0
   -2.0319    4.9150    0.0000 C   0  0  0  0  0  0  0  0  0  0  0  0
    0.6172   -6.6678    0.0000 C   0  0  0  0  0  0  0  0  0  0  0  0
    1.4027   -1.5314    0.0000 O   0  0  0  0  0  0  0  0  0  0  0  0
   -1.5434    5.7915    0.0000 C   0  0  0  0  0  0  0  0  0  0  0  0
   -0.8786   -5.7762    0.0000 C   0  0  0  0  0  0  0  0  0  0  0  0
   -0.0328    4.9455    0.0000 C   0  0  0  0  0  0  0  0  0  0  0  0
    2.4902    3.3841    0.0000 F   0  0  0  0  0  0  0  0  0  0  0  0
    3.5126    2.3921    0.0000 F   0  0  0  0  0  0  0  0  0  0  0  0
    2.5208    1.3798    0.0000 F   0  0  0  0  0  0  0  0  0  0  0  0
   -0.5462    5.8062    0.0000 C   0  0  0  0  0  0  0  0  0  0  0  0
   -3.0289    4.8849    0.0000 O   0  0  0  0  0  0  0  0  0  0  0  0
   -2.0519    6.6673    0.0000 O   0  0  0  0  0  0  0  0  0  0  0  0
    1.1106   -7.5438    0.0000 C   0  0  0  0  0  0  0  0  0  0  0  0
    1.4932   -6.1843    0.0000 C   0  0  0  0  0  0  0  0  0  0  0  0
   -0.2593   -7.1612    0.0000 C   0  0  0  0  0  0  0  0  0  0  0  0
   -3.5126    4.0086    0.0000 C   0  0  0  0  0  0  0  0  0  0  0  0
   -1.5637    7.5438    0.0000 C   0  0  0  0  0  0  0  0  0  0  0  0
  1  2  1  0  0  0  0
  1  3  1  0  0  0  0
  4 16  1  0  0  0  0
  1  5  1  0  0  0  0
  4  6  2  0  0  0  0
  5  7  2  0  0  0  0
  3  8  2  0  0  0  0
  7  8  1  0  0  0  0
  3  9  1  0  0  0  0
  2 10  2  0  0  0  0
 10 14  1  0  0  0  0
 11 13  1  0  0  0  0
 11 12  2  0  0  0  0
  6 12  1  0  0  0  0
  4 13  1  0  0  0  0
  9 14  2  0  0  0  0
  2 15  1  0  0  0  0
 16 17  1  0  0  0  0
  7 17  1  0  0  0  0
  6 18  1  0  0  0  0
 11 19  1  0  0  0  0
 14 20  1  0  0  0  0
 18 21  3  0  0  0  0
 12 22  1  0  0  0  0
 19 23  1  0  0  0  0
 20 24  2  0  0  0  0
 24 25  1  0  0  0  0
 25 28  2  0  0  0  0
 23 26  1  0  0  0  0
 17 27  2  0  0  0  0
 28 34  1  0  0  0  0
 22 29  1  0  0  0  0
 23 29  1  0  0  0  0
 20 30  1  0  0  0  0
 15 31  1  0  0  0  0
 15 32  1  0  0  0  0
 15 33  1  0  0  0  0
 30 34  2  0  0  0  0
 25 35  1  0  0  0  0
 28 36  1  0  0  0  0
 26 37  1  0  0  0  0
 26 38  1  0  0  0  0
 26 39  1  0  0  0  0
 35 40  1  0  0  0  0
 36 41  1  0  0  0  0
M  END
> <IDNUMBER>
A0005392

> <available>
17

> <H_acceptor>
7

> <H_donor>
1

> <B_rotN>
9

> <N_O>
8

> <logP>
6.7233

> <logD>
5.0973

> <logSw>
-5.7265

> <PSA>
73.521

> <pKa_ma>
5.7844

> <pKa_mb>
2.841

> <N_Chirals>
1

> <Name>
N-(6-tert-butyl-3-cyano-4,5,6,7-tetrahydro-1-benzothiophen-2-yl)-5-(3,4-dimethoxyphenyl)-7-(trifluoromethyl)pyrazolo[1,5-a]pyrimidine-2-carboxamide

> <Smile>
CC(C)(C)C(CC1)Cc2c1c(C#N)c(NC(c1nn3c(C(F)(F)F)cc(-c(cc4)cc(OC)c4OC)nc3c1)=O)s2

> <Color>
YELLOW

> <Collection>
DC

> <InChI>
InChI=1S/C29H28F3N5O3S/c1-28(2,3)16-7-8-17-18(14-33)27(41-23(17)11-16)35-26(38)20-13-25-34-19(12-24(29(30,31)32)37(25)36-20)15-6-9-21(39-4)22(10-15)40-5/h6,9-10,12-13,16H,7-8,11H2,1-5H3,(H,35,38)/t16-
/m1/s1

> <InChI Key>
FFOYFNVKIILCBM-MRXNPFEDSA-N

> <PERCENTSP3>
37.9

> <Link>
https://www.chemdiv.com/catalog/screening-compounds/compound-A0005392/

> <MFCDNUMBER>
MFCD02087733

> <CLNUMBER>
CL1652

> <STEREO>
RACEMIC MIXTURE

> <State>
Solid

> <Similarity score>
0.19

$$$$
N-(3-cyano-4,5,6,7-tetrahydro-1-benzothiophen-2-yl)-2-[(5-methoxy-1H-benzimidazo
  -OEChem-04222410502D

 27 30  0     0  0  0  0  0  0999 V2000
    2.3969   -1.2795    0.0000 C   0  0  0  0  0  0  0  0  0  0  0  0
    3.0304   -0.4710    0.0000 C   0  0  0  0  0  0  0  0  0  0  0  0
    2.9220   -2.0843    0.0000 S   0  0  0  0  0  0  0  0  0  0  0  0
    3.9476   -0.8337    0.0000 C   0  0  0  0  0  0  0  0  0  0  0  0
   -1.6172    0.4544    0.0000 C   0  0  0  0  0  0  0  0  0  0  0  0
   -2.1798    1.2672    0.0000 N   0  0  0  0  0  0  0  0  0  0  0  0
    3.8723   -1.8465    0.0000 C   0  0  0  0  0  0  0  0  0  0  0  0
   -2.1798   -0.3459    0.0000 N   0  0  0  0  0  0  0  0  0  0  0  0
    1.3965   -1.2795    0.0000 N   0  0  0  0  0  0  0  0  0  0  0  0
   -3.1219    0.9421    0.0000 C   0  0  0  0  0  0  0  0  0  0  0  0
    2.7970    0.4961    0.0000 C   0  0  0  0  0  0  0  0  0  0  0  0
   -3.1219   -0.0708    0.0000 C   0  0  0  0  0  0  0  0  0  0  0  0
    2.5720    1.4673    0.0000 N   0  0  0  0  0  0  0  0  0  0  0  0
    0.9169   -0.4335    0.0000 C   0  0  0  0  0  0  0  0  0  0  0  0
   -3.9807    1.4673    0.0000 C   0  0  0  0  0  0  0  0  0  0  0  0
   -0.5919    0.4544    0.0000 S   0  0  0  0  0  0  0  0  0  0  0  0
    1.3965    0.4544    0.0000 O   0  0  0  0  0  0  0  0  0  0  0  0
   -3.9807   -0.5542    0.0000 C   0  0  0  0  0  0  0  0  0  0  0  0
   -0.1041   -0.4335    0.0000 C   0  0  0  0  0  0  0  0  0  0  0  0
   -4.8435    0.9421    0.0000 C   0  0  0  0  0  0  0  0  0  0  0  0
   -4.8435   -0.0708    0.0000 C   0  0  0  0  0  0  0  0  0  0  0  0
    4.8602   -0.4335    0.0000 C   0  0  0  0  0  0  0  0  0  0  0  0
    4.7103   -2.4218    0.0000 C   0  0  0  0  0  0  0  0  0  0  0  0
   -5.7064    1.4298    0.0000 O   0  0  0  0  0  0  0  0  0  0  0  0
   -5.7064    2.4218    0.0000 C   0  0  0  0  0  0  0  0  0  0  0  0
    5.7064   -0.9712    0.0000 C   0  0  0  0  0  0  0  0  0  0  0  0
    5.6358   -1.9799    0.0000 C   0  0  0  0  0  0  0  0  0  0  0  0
  1  2  2  0  0  0  0
  1  3  1  0  0  0  0
  2  4  1  0  0  0  0
  4  7  2  0  0  0  0
  5 16  1  0  0  0  0
  5  6  2  0  0  0  0
  3  7  1  0  0  0  0
  5  8  1  0  0  0  0
  1  9  1  0  0  0  0
  6 10  1  0  0  0  0
 10 12  2  0  0  0  0
  2 11  1  0  0  0  0
  8 12  1  0  0  0  0
 11 13  3  0  0  0  0
  9 14  1  0  0  0  0
 10 15  1  0  0  0  0
 16 19  1  0  0  0  0
 14 17  2  0  0  0  0
 12 18  1  0  0  0  0
 14 19  1  0  0  0  0
 15 20  2  0  0  0  0
 20 21  1  0  0  0  0
 18 21  2  0  0  0  0
  4 22  1  0  0  0  0
  7 23  1  0  0  0  0
 20 24  1  0  0  0  0
 24 25  1  0  0  0  0
 22 26  1  0  0  0  0
 26 27  1  0  0  0  0
 23 27  1  0  0  0  0
M  END
> <IDNUMBER>
Y505-4845

> <available>
26

> <H_acceptor>
6

> <H_donor>
2

> <B_rotN>
7

> <N_O>
6

> <logP>
3.5256

> <logD>
2.4929

> <logSw>
-4.2098

> <PSA>
65.444

> <pKa_ma>
6.4095

> <pKa_mb>
4.2873

> <N_Chirals>
0

> <Name>
N-(3-cyano-4,5,6,7-tetrahydro-1-benzothiophen-2-yl)-2-[(5-methoxy-1H-benzimidazol-2-yl)sulfanyl]acetamide

> <Smile>
c1(c(c2c(s1)CCCC2)C#N)NC(=O)CSc1nc2c([nH]1)ccc(c2)OC

> <Color>
ORANGE

> <Collection>
DC

> <InChI>
InChI=1S/C19H18N4O2S2/c1-25-11-6-7-14-15(8-11)22-19(21-14)26-10-17(24)23-18-13(9-20)12-4-2-3-5-16(12)27-18/h6-8H,2-5,10H2,1H3,(H,21,22)(H,23,24)

> <InChI Key>
JPLSNKJYBYFQJI-UHFFFAOYSA-N

> <PERCENTSP3>
8

> <Link>
https://www.chemdiv.com/catalog/screening-compounds/compound-Y505-4845/

> <MFCDNUMBER>
MFCD02008494

> <STEREO>
ACHIRAL

> <State>
Solid

> <Similarity score>
0.19

$$$$
N-(3-cyano-5,6-dihydro-4H-cyclopenta[b]thiophen-2-yl)-5-(4-methoxyphenyl)-1,2-ox
  -OEChem-04222410502D

 26 29  0     0  0  0  0  0  0999 V2000
   -1.0049   -2.9090    0.0000 C   0  0  0  0  0  0  0  0  0  0  0  0
   -0.3971   -3.6881    0.0000 C   0  0  0  0  0  0  0  0  0  0  0  0
   -0.0803    0.3956    0.0000 C   0  0  0  0  0  0  0  0  0  0  0  0
   -1.9412   -3.2496    0.0000 S   0  0  0  0  0  0  0  0  0  0  0  0
   -0.9426   -4.5149    0.0000 C   0  0  0  0  0  0  0  0  0  0  0  0
   -0.8654    0.9202    0.0000 N   0  0  0  0  0  0  0  0  0  0  0  0
   -1.0049   -1.9042    0.0000 N   0  0  0  0  0  0  0  0  0  0  0  0
    0.6697    0.9708    0.0000 C   0  0  0  0  0  0  0  0  0  0  0  0
   -1.8967   -4.2336    0.0000 C   0  0  0  0  0  0  0  0  0  0  0  0
   -0.1393   -1.4032    0.0000 C   0  0  0  0  0  0  0  0  0  0  0  0
    0.3408    1.8626    0.0000 C   0  0  0  0  0  0  0  0  0  0  0  0
   -0.5986    1.8331    0.0000 O   0  0  0  0  0  0  0  0  0  0  0  0
    0.6104   -3.6526    0.0000 C   0  0  0  0  0  0  0  0  0  0  0  0
    1.6090   -3.6112    0.0000 N   0  0  0  0  0  0  0  0  0  0  0  0
    0.8711    2.6510    0.0000 C   0  0  0  0  0  0  0  0  0  0  0  0
    0.6992   -1.8567    0.0000 O   0  0  0  0  0  0  0  0  0  0  0  0
    1.8107    2.5856    0.0000 C   0  0  0  0  0  0  0  0  0  0  0  0
    0.4594    3.4985    0.0000 C   0  0  0  0  0  0  0  0  0  0  0  0
   -0.8980   -5.5195    0.0000 C   0  0  0  0  0  0  0  0  0  0  0  0
    1.9263    4.2098    0.0000 C   0  0  0  0  0  0  0  0  0  0  0  0
   -2.4570   -5.0750    0.0000 C   0  0  0  0  0  0  0  0  0  0  0  0
    0.9777    4.2869    0.0000 C   0  0  0  0  0  0  0  0  0  0  0  0
    2.3414    3.3623    0.0000 C   0  0  0  0  0  0  0  0  0  0  0  0
    2.4570    5.0100    0.0000 O   0  0  0  0  0  0  0  0  0  0  0  0
   -1.8523   -5.8635    0.0000 C   0  0  0  0  0  0  0  0  0  0  0  0
    2.0390    5.8635    0.0000 C   0  0  0  0  0  0  0  0  0  0  0  0
  1  2  2  0  0  0  0
  3 10  1  0  0  0  0
  1  4  1  0  0  0  0
  2  5  1  0  0  0  0
  5  9  2  0  0  0  0
  3  6  2  0  0  0  0
  1  7  1  0  0  0  0
  3  8  1  0  0  0  0
  4  9  1  0  0  0  0
  7 10  1  0  0  0  0
  8 11  2  0  0  0  0
 11 12  1  0  0  0  0
  6 12  1  0  0  0  0
  2 13  1  0  0  0  0
 13 14  3  0  0  0  0
 11 15  1  0  0  0  0
 10 16  2  0  0  0  0
 15 17  2  0  0  0  0
 15 18  1  0  0  0  0
  5 19  1  0  0  0  0
 20 22  1  0  0  0  0
  9 21  1  0  0  0  0
 18 22  2  0  0  0  0
 17 23  1  0  0  0  0
 20 23  2  0  0  0  0
 20 24  1  0  0  0  0
 21 25  1  0  0  0  0
 19 25  1  0  0  0  0
 24 26  1  0  0  0  0
M  END
> <IDNUMBER>
C226-0779

> <available>
49

> <H_acceptor>
6

> <H_donor>
1

> <B_rotN>
6

> <N_O>
6

> <logP>
4.0602

> <logD>
2.7496

> <logSw>
-4.3837

> <PSA>
69.546

> <pKa_ma>
6.1111

> <pKa_mb>
-6.8683

> <N_Chirals>
0

> <Name>
N-(3-cyano-5,6-dihydro-4H-cyclopenta[b]thiophen-2-yl)-5-(4-methoxyphenyl)-1,2-oxazole-3-carboxamide

> <Smile>
COc(cc1)ccc1-c1cc(C(Nc(sc2c3CCC2)c3C#N)=O)no1

> <Color>
NOT COLORED

> <Collection>
DC

> <InChI>
InChI=1S/C19H15N3O3S/c1-24-12-7-5-11(6-8-12)16-9-15(22-25-16)18(23)21-19-14(10-20)13-3-2-4-17(13)26-19/h5-9H,2-4H2,1H3,(H,21,23)

> <InChI Key>
JKWBKXHLKIHMPX-UHFFFAOYSA-N

> <PERCENTSP3>
21.1

> <Link>
https://www.chemdiv.com/catalog/screening-compounds/compound-C226-0779/

> <MFCDNUMBER>
MFCD09781980

> <CLNUMBER>
CL2028

> <STEREO>
ACHIRAL

> <State>
Solid

> <Similarity score>
0.19

$$$$
N-(6-tert-butyl-3-cyano-4,5,6,7-tetrahydro-1-benzothiophen-2-yl)-5-phenyl-7-(tri
  -OEChem-04222410502D

 37 41  0     0  0  0  0  0  0999 V2000
    2.1497   -0.0602    0.0000 N   0  0  0  0  0  0  0  0  0  0  0  0
    2.9330    0.5686    0.0000 C   0  0  0  0  0  0  0  0  0  0  0  0
    2.2997   -1.0518    0.0000 C   0  0  0  0  0  0  0  0  0  0  0  0
   -1.8831   -0.4229    0.0000 C   0  0  0  0  0  0  0  0  0  0  0  0
    1.1542    0.0895    0.0000 N   0  0  0  0  0  0  0  0  0  0  0  0
   -2.5415    0.3603    0.0000 C   0  0  0  0  0  0  0  0  0  0  0  0
    0.7124   -0.8185    0.0000 C   0  0  0  0  0  0  0  0  0  0  0  0
    1.4291   -1.5060    0.0000 C   0  0  0  0  0  0  0  0  0  0  0  0
    3.2331   -1.4142    0.0000 N   0  0  0  0  0  0  0  0  0  0  0  0
    3.8664    0.2106    0.0000 C   0  0  0  0  0  0  0  0  0  0  0  0
   -3.3830   -0.9979    0.0000 C   0  0  0  0  0  0  0  0  0  0  0  0
   -3.4454   -0.0314    0.0000 C   0  0  0  0  0  0  0  0  0  0  0  0
   -2.4248   -1.2600    0.0000 S   0  0  0  0  0  0  0  0  0  0  0  0
    2.7790    1.5646    0.0000 C   0  0  0  0  0  0  0  0  0  0  0  0
   -0.9167   -0.2397    0.0000 N   0  0  0  0  0  0  0  0  0  0  0  0
    4.0163   -0.7811    0.0000 C   0  0  0  0  0  0  0  0  0  0  0  0
   -0.2834   -0.9979    0.0000 C   0  0  0  0  0  0  0  0  0  0  0  0
   -2.3455    1.3396    0.0000 C   0  0  0  0  0  0  0  0  0  0  0  0
   -4.1996   -1.5642    0.0000 C   0  0  0  0  0  0  0  0  0  0  0  0
   -2.1540    2.3061    0.0000 N   0  0  0  0  0  0  0  0  0  0  0  0
   -4.3495    0.4189    0.0000 C   0  0  0  0  0  0  0  0  0  0  0  0
   -5.1037   -1.1103    0.0000 C   0  0  3  0  0  0  0  0  0  0  0  0
   -5.9495   -1.6851    0.0000 C   0  0  0  0  0  0  0  0  0  0  0  0
   -0.6165   -1.9561    0.0000 O   0  0  0  0  0  0  0  0  0  0  0  0
    4.9495   -1.1686    0.0000 C   0  0  0  0  0  0  0  0  0  0  0  0
   -5.1621   -0.1521    0.0000 C   0  0  0  0  0  0  0  0  0  0  0  0
    2.6289    2.5561    0.0000 F   0  0  0  0  0  0  0  0  0  0  0  0
    1.7873    1.4144    0.0000 F   0  0  0  0  0  0  0  0  0  0  0  0
    3.7746    1.7143    0.0000 F   0  0  0  0  0  0  0  0  0  0  0  0
   -6.4827   -0.8185    0.0000 C   0  0  0  0  0  0  0  0  0  0  0  0
   -6.7869   -2.2267    0.0000 C   0  0  0  0  0  0  0  0  0  0  0  0
   -5.4036   -2.5266    0.0000 C   0  0  0  0  0  0  0  0  0  0  0  0
    5.0704   -2.1642    0.0000 C   0  0  0  0  0  0  0  0  0  0  0  0
    5.7288   -0.5438    0.0000 C   0  0  0  0  0  0  0  0  0  0  0  0
    6.0036   -2.5561    0.0000 C   0  0  0  0  0  0  0  0  0  0  0  0
    6.6369   -0.9313    0.0000 C   0  0  0  0  0  0  0  0  0  0  0  0
    6.7869   -1.8935    0.0000 C   0  0  0  0  0  0  0  0  0  0  0  0
  1  2  1  0  0  0  0
  1  3  1  0  0  0  0
  4 15  1  0  0  0  0
  1  5  1  0  0  0  0
  4  6  2  0  0  0  0
  5  7  2  0  0  0  0
  3  8  2  0  0  0  0
  7  8  1  0  0  0  0
  3  9  1  0  0  0  0
  2 10  2  0  0  0  0
 10 16  1  0  0  0  0
 11 13  1  0  0  0  0
 11 12  2  0  0  0  0
  6 12  1  0  0  0  0
  4 13  1  0  0  0  0
  2 14  1  0  0  0  0
 15 17  1  0  0  0  0
  9 16  2  0  0  0  0
  7 17  1  0  0  0  0
  6 18  1  0  0  0  0
 11 19  1  0  0  0  0
 18 20  3  0  0  0  0
 12 21  1  0  0  0  0
 19 22  1  0  0  0  0
 22 26  1  0  0  0  0
 22 23  1  0  0  0  0
 17 24  2  0  0  0  0
 16 25  1  0  0  0  0
 21 26  1  0  0  0  0
 14 27  1  0  0  0  0
 14 28  1  0  0  0  0
 14 29  1  0  0  0  0
 23 30  1  0  0  0  0
 23 31  1  0  0  0  0
 23 32  1  0  0  0  0
 25 33  1  0  0  0  0
 25 34  2  0  0  0  0
 33 35  2  0  0  0  0
 34 36  1  0  0  0  0
 35 37  1  0  0  0  0
 36 37  2  0  0  0  0
M  END
> <IDNUMBER>
Y501-6583

> <available>
29

> <H_acceptor>
5

> <H_donor>
1

> <B_rotN>
7

> <N_O>
6

> <logP>
7.1176

> <logD>
5.4916

> <logSw>
-5.6704

> <PSA>
58.26

> <pKa_ma>
5.7844

> <pKa_mb>
1.5188

> <N_Chirals>
1

> <Name>
N-(6-tert-butyl-3-cyano-4,5,6,7-tetrahydro-1-benzothiophen-2-yl)-5-phenyl-7-(trifluoromethyl)pyrazolo[1,5-a]pyrimidine-2-carboxamide

> <Smile>
CC(C)(C)C(CC1)Cc2c1c(C#N)c(NC(c1nn3c(C(F)(F)F)cc(-c4ccccc4)nc3c1)=O)s2

> <Color>
YELLOW

> <Collection>
DC

> <InChI>
InChI=1S/C27H24F3N5OS/c1-26(2,3)16-9-10-17-18(14-31)25(37-21(17)11-16)33-24(36)20-13-23-32-19(15-7-5-4-6-8-15)12-22(27(28,29)30)35(23)34-20/h4-8,12-13,16H,9-11H2,1-3H3,(H,33,36)/t16-/m1/s1

> <InChI Key>
WXUQVCRGXLUUMF-MRXNPFEDSA-N

> <PERCENTSP3>
33.3

> <Link>
https://www.chemdiv.com/catalog/screening-compounds/compound-Y501-6583/

> <MFCDNUMBER>
MFCD01451770

> <STEREO>
RACEMIC MIXTURE

> <State>
Solid

> <Similarity score>
0.19

$$$$
N-(6-tert-butyl-3-cyano-4,5,6,7-tetrahydro-1-benzothiophen-2-yl)-5-(3-methoxyphe
  -OEChem-04222410502D

 31 34  0     0  0  0  0  0  0999 V2000
   -1.1277   -0.9895    0.0000 C   0  0  0  0  0  0  0  0  0  0  0  0
   -1.9338   -1.5470    0.0000 C   0  0  0  0  0  0  0  0  0  0  0  0
   -0.6480   -2.5316    0.0000 C   0  0  0  0  0  0  0  0  0  0  0  0
   -1.6578   -2.5114    0.0000 C   0  0  0  0  0  0  0  0  0  0  0  0
   -0.3091    2.2378    0.0000 C   0  0  0  0  0  0  0  0  0  0  0  0
   -0.3241   -1.5923    0.0000 S   0  0  0  0  0  0  0  0  0  0  0  0
   -1.0673    2.8179    0.0000 N   0  0  0  0  0  0  0  0  0  0  0  0
   -1.1277    0.0225    0.0000 N   0  0  0  0  0  0  0  0  0  0  0  0
    0.4773    2.7728    0.0000 C   0  0  0  0  0  0  0  0  0  0  0  0
   -0.2639    0.5223    0.0000 C   0  0  0  0  0  0  0  0  0  0  0  0
    0.2060    3.6821    0.0000 C   0  0  0  0  0  0  0  0  0  0  0  0
   -0.7485    3.7071    0.0000 O   0  0  0  0  0  0  0  0  0  0  0  0
   -2.8785   -1.2156    0.0000 C   0  0  0  0  0  0  0  0  0  0  0  0
   -0.1734   -3.4082    0.0000 C   0  0  0  0  0  0  0  0  0  0  0  0
   -3.8303   -0.8841    0.0000 N   0  0  0  0  0  0  0  0  0  0  0  0
   -2.1703   -3.3580    0.0000 C   0  0  0  0  0  0  0  0  0  0  0  0
    0.7961    4.4329    0.0000 C   0  0  0  0  0  0  0  0  0  0  0  0
   -0.7033   -4.2671    0.0000 C   0  0  3  0  0  0  0  0  0  0  0  0
   -0.2236   -5.1589    0.0000 C   0  0  0  0  0  0  0  0  0  0  0  0
    0.5475    0.0225    0.0000 O   0  0  0  0  0  0  0  0  0  0  0  0
   -1.6928   -4.2370    0.0000 C   0  0  0  0  0  0  0  0  0  0  0  0
    1.7305    4.3123    0.0000 C   0  0  0  0  0  0  0  0  0  0  0  0
    2.3054    5.0582    0.0000 C   0  0  0  0  0  0  0  0  0  0  0  0
    3.2450    4.9226    0.0000 O   0  0  0  0  0  0  0  0  0  0  0  0
    0.4269    5.2994    0.0000 C   0  0  0  0  0  0  0  0  0  0  0  0
    1.0047    6.0579    0.0000 C   0  0  0  0  0  0  0  0  0  0  0  0
   -1.1277   -5.6284    0.0000 C   0  0  0  0  0  0  0  0  0  0  0  0
    0.6681   -4.6941    0.0000 C   0  0  0  0  0  0  0  0  0  0  0  0
    0.2361   -6.0579    0.0000 C   0  0  0  0  0  0  0  0  0  0  0  0
    1.9414    5.9351    0.0000 C   0  0  0  0  0  0  0  0  0  0  0  0
    3.8303    5.6787    0.0000 C   0  0  0  0  0  0  0  0  0  0  0  0
  1  2  2  0  0  0  0
  3  6  1  0  0  0  0
  3  4  2  0  0  0  0
  2  4  1  0  0  0  0
  5 10  1  0  0  0  0
  1  6  1  0  0  0  0
  5  7  2  0  0  0  0
  1  8  1  0  0  0  0
  5  9  1  0  0  0  0
  8 10  1  0  0  0  0
  9 11  2  0  0  0  0
 11 12  1  0  0  0  0
  7 12  1  0  0  0  0
  2 13  1  0  0  0  0
  3 14  1  0  0  0  0
 13 15  3  0  0  0  0
  4 16  1  0  0  0  0
 11 17  1  0  0  0  0
 14 18  1  0  0  0  0
 18 19  1  0  0  0  0
 10 20  2  0  0  0  0
 16 21  1  0  0  0  0
 18 21  1  0  0  0  0
 17 22  2  0  0  0  0
 22 23  1  0  0  0  0
 23 30  2  0  0  0  0
 23 24  1  0  0  0  0
 17 25  1  0  0  0  0
 25 26  2  0  0  0  0
 19 27  1  0  0  0  0
 19 28  1  0  0  0  0
 19 29  1  0  0  0  0
 26 30  1  0  0  0  0
 24 31  1  0  0  0  0
M  END
> <IDNUMBER>
C226-0897

> <available>
235

> <H_acceptor>
6

> <H_donor>
1

> <B_rotN>
7

> <N_O>
6

> <logP>
6.0123

> <logD>
4.7213

> <logSw>
-5.5449

> <PSA>
69.18

> <pKa_ma>
6.1318

> <pKa_mb>
-6.8683

> <N_Chirals>
1

> <Name>
N-(6-tert-butyl-3-cyano-4,5,6,7-tetrahydro-1-benzothiophen-2-yl)-5-(3-methoxyphenyl)-1,2-oxazole-3-carboxamide

> <Smile>
CC(C)(C)C(CC1)Cc2c1c(C#N)c(NC(c1noc(-c3cc(OC)ccc3)c1)=O)s2

> <Color>
NOT COLORED

> <Collection>
DC

> <InChI>
InChI=1S/C24H25N3O3S/c1-24(2,3)15-8-9-17-18(13-25)23(31-21(17)11-15)26-22(28)19-12-20(30-27-19)14-6-5-7-16(10-14)29-4/h5-7,10,12,15H,8-9,11H2,1-4H3,(H,26,28)/t15-/m1/s1

> <InChI Key>
FUETUFSSHFXHMC-OAHLLOKOSA-N

> <PERCENTSP3>
37.5

> <Link>
https://www.chemdiv.com/catalog/screening-compounds/compound-C226-0897/

> <MFCDNUMBER>
MFCD09782069

> <CLNUMBER>
CL2028

> <STEREO>
RACEMIC MIXTURE

> <State>
Solid

> <Similarity score>
0.19

$$$$
3-(2-chlorophenyl)-N-[3-cyano-6-(2-methylbutan-2-yl)-4,5,6,7-tetrahydro-1-benzot
  -OEChem-04222410502D

 32 35  0     0  0  0  0  0  0999 V2000
   -1.4988   -1.6134    0.0000 C   0  0  0  0  0  0  0  0  0  0  0  0
    0.6441   -1.6134    0.0000 C   0  0  0  0  0  0  0  0  0  0  0  0
   -2.4451   -1.5634    0.0000 C   0  0  0  0  0  0  0  0  0  0  0  0
    1.6529   -1.5759    0.0000 C   0  0  0  0  0  0  0  0  0  0  0  0
    0.1063   -2.5014    0.0000 C   0  0  0  0  0  0  0  0  0  0  0  0
   -1.9116   -0.0668    0.0000 C   0  0  0  0  0  0  0  0  0  0  0  0
   -2.6620   -0.5796    0.0000 C   0  0  0  0  0  0  0  0  0  0  0  0
    1.8448   -0.5921    0.0000 N   0  0  0  0  0  0  0  0  0  0  0  0
   -1.1319   -0.6796    0.0000 S   0  0  0  0  0  0  0  0  0  0  0  0
   -0.8942   -2.5014    0.0000 N   0  0  0  0  0  0  0  0  0  0  0  0
    2.2950   -2.3138    0.0000 C   0  0  0  0  0  0  0  0  0  0  0  0
    0.9900   -0.0918    0.0000 O   0  0  0  0  0  0  0  0  0  0  0  0
    0.2772   -0.7629    0.0000 C   0  0  0  0  0  0  0  0  0  0  0  0
   -3.1122   -2.3806    0.0000 C   0  0  0  0  0  0  0  0  0  0  0  0
   -1.9698    0.8837    0.0000 C   0  0  0  0  0  0  0  0  0  0  0  0
   -3.7751   -3.1935    0.0000 N   0  0  0  0  0  0  0  0  0  0  0  0
   -3.5957   -0.1793    0.0000 C   0  0  0  0  0  0  0  0  0  0  0  0
   -2.8328    1.3590    0.0000 C   0  0  3  0  0  0  0  0  0  0  0  0
    0.5816   -3.3894    0.0000 O   0  0  0  0  0  0  0  0  0  0  0  0
   -2.8703    2.4221    0.0000 C   0  0  0  0  0  0  0  0  0  0  0  0
    3.2706   -2.1429    0.0000 C   0  0  0  0  0  0  0  0  0  0  0  0
   -3.6958    0.8087    0.0000 C   0  0  0  0  0  0  0  0  0  0  0  0
    3.5957   -1.2299    0.0000 Cl  0  0  0  0  0  0  0  0  0  0  0  0
    1.9949   -3.2686    0.0000 C   0  0  0  0  0  0  0  0  0  0  0  0
   -0.6984   -0.5128    0.0000 C   0  0  0  0  0  0  0  0  0  0  0  0
   -2.9329    3.4812    0.0000 C   0  0  0  0  0  0  0  0  0  0  0  0
   -3.9209    2.3971    0.0000 C   0  0  0  0  0  0  0  0  0  0  0  0
   -1.8865    2.4471    0.0000 C   0  0  0  0  0  0  0  0  0  0  0  0
    3.9209   -2.8641    0.0000 C   0  0  0  0  0  0  0  0  0  0  0  0
   -2.0824    4.0022    0.0000 C   0  0  0  0  0  0  0  0  0  0  0  0
    2.6410   -4.0022    0.0000 C   0  0  0  0  0  0  0  0  0  0  0  0
    3.6208   -3.8064    0.0000 C   0  0  0  0  0  0  0  0  0  0  0  0
  2  5  1  0  0  0  0
  1  3  2  0  0  0  0
  2  4  1  0  0  0  0
  5 10  1  0  0  0  0
  6  9  1  0  0  0  0
  6  7  2  0  0  0  0
  3  7  1  0  0  0  0
  4  8  2  0  0  0  0
  8 12  1  0  0  0  0
  1  9  1  0  0  0  0
  1 10  1  0  0  0  0
  4 11  1  0  0  0  0
 12 13  1  0  0  0  0
  2 13  2  0  0  0  0
  3 14  1  0  0  0  0
  6 15  1  0  0  0  0
 14 16  3  0  0  0  0
  7 17  1  0  0  0  0
 15 18  1  0  0  0  0
 18 22  1  0  0  0  0
  5 19  2  0  0  0  0
 18 20  1  0  0  0  0
 11 21  1  0  0  0  0
 17 22  1  0  0  0  0
 21 23  1  0  0  0  0
 11 24  2  0  0  0  0
 13 25  1  0  0  0  0
 20 26  1  0  0  0  0
 20 27  1  0  0  0  0
 20 28  1  0  0  0  0
 21 29  2  0  0  0  0
 26 30  1  0  0  0  0
 24 31  1  0  0  0  0
 31 32  2  0  0  0  0
 29 32  1  0  0  0  0
M  END
> <IDNUMBER>
Y509-7610

> <available>
27

> <H_acceptor>
5

> <H_donor>
1

> <B_rotN>
7

> <N_O>
5

> <logP>
5.9743

> <logD>
3.2214

> <logSw>
-5.9648

> <PSA>
62.061

> <pKa_ma>
4.6479

> <pKa_mb>
-6.8683

> <N_Chirals>
1

> <Name>
3-(2-chlorophenyl)-N-[3-cyano-6-(2-methylbutan-2-yl)-4,5,6,7-tetrahydro-1-benzothiophen-2-yl]-5-methyl-1,2-oxazole-4-carboxamide

> <Smile>
c1(c(c2c(s1)CC(C(CC)(C)C)CC2)C#N)NC(c1c(noc1C)c1c(Cl)cccc1)=O

> <Color>
ORANGE

> <Collection>
DC

> <InChI>
InChI=1S/C25H26ClN3O2S/c1-5-25(3,4)15-10-11-16-18(13-27)24(32-20(16)12-15)28-23(30)21-14(2)31-29-22(21)17-8-6-7-9-19(17)26/h6-9,15H,5,10-12H2,1-4H3,(H,28,30)/t15-/m1/s1

> <InChI Key>
WKMHDJPWBULJDL-OAHLLOKOSA-N

> <PERCENTSP3>
40

> <Link>
https://www.chemdiv.com/catalog/screening-compounds/compound-Y509-7610/

> <MFCDNUMBER>
MFCD01350468

> <CLNUMBER>
CL2451

> <STEREO>
RACEMIC MIXTURE

> <State>
Solid

> <Similarity score>
0.19

$$$$
N-(3-cyano-6-methyl-4,5,6,7-tetrahydro-1-benzothiophen-2-yl)-5-methyl-3-phenyl-1
  -OEChem-04222410502D

 27 30  0     0  0  0  0  0  0999 V2000
    0.9064   -0.3084    0.0000 C   0  0  0  0  0  0  0  0  0  0  0  0
    1.8065   -0.7084    0.0000 C   0  0  0  0  0  0  0  0  0  0  0  0
   -1.6605   -0.8334    0.0000 C   0  0  0  0  0  0  0  0  0  0  0  0
   -0.8106   -0.3333    0.0000 C   0  0  0  0  0  0  0  0  0  0  0  0
    2.5065    0.0333    0.0000 C   0  0  0  0  0  0  0  0  0  0  0  0
    2.0064    0.9085    0.0000 C   0  0  0  0  0  0  0  0  0  0  0  0
    1.0064    0.6835    0.0000 S   0  0  0  0  0  0  0  0  0  0  0  0
   -3.1857   -1.3334    0.0000 N   0  0  0  0  0  0  0  0  0  0  0  0
   -2.6107   -0.5334    0.0000 C   0  0  0  0  0  0  0  0  0  0  0  0
    0.0563   -0.8084    0.0000 N   0  0  0  0  0  0  0  0  0  0  0  0
   -2.6107   -2.1335    0.0000 O   0  0  0  0  0  0  0  0  0  0  0  0
   -1.6605   -1.8335    0.0000 C   0  0  0  0  0  0  0  0  0  0  0  0
    2.0064   -1.7084    0.0000 C   0  0  0  0  0  0  0  0  0  0  0  0
    2.1814   -2.6835    0.0000 N   0  0  0  0  0  0  0  0  0  0  0  0
    3.5066    0.0333    0.0000 C   0  0  0  0  0  0  0  0  0  0  0  0
    2.5065    1.7834    0.0000 C   0  0  0  0  0  0  0  0  0  0  0  0
   -0.8106    0.6585    0.0000 O   0  0  0  0  0  0  0  0  0  0  0  0
   -2.8356    0.4333    0.0000 C   0  0  0  0  0  0  0  0  0  0  0  0
    4.0066    0.9085    0.0000 C   0  0  0  0  0  0  0  0  0  0  0  0
    3.5066    1.7834    0.0000 C   0  0  3  0  0  0  0  0  0  0  0  0
   -0.8355   -2.4335    0.0000 C   0  0  0  0  0  0  0  0  0  0  0  0
   -2.1106    1.1084    0.0000 C   0  0  0  0  0  0  0  0  0  0  0  0
   -3.7816    0.7335    0.0000 C   0  0  0  0  0  0  0  0  0  0  0  0
    4.0066    2.6835    0.0000 C   0  0  0  0  0  0  0  0  0  0  0  0
   -4.0066    1.7085    0.0000 C   0  0  0  0  0  0  0  0  0  0  0  0
   -2.3356    2.0835    0.0000 C   0  0  0  0  0  0  0  0  0  0  0  0
   -3.2858    2.3878    0.0000 C   0  0  0  0  0  0  0  0  0  0  0  0
  1  2  2  0  0  0  0
  3  4  1  0  0  0  0
  4 10  1  0  0  0  0
  2  5  1  0  0  0  0
  5  6  2  0  0  0  0
  6  7  1  0  0  0  0
  1  7  1  0  0  0  0
  8  9  2  0  0  0  0
  3  9  1  0  0  0  0
  1 10  1  0  0  0  0
 11 12  1  0  0  0  0
  8 11  1  0  0  0  0
  3 12  2  0  0  0  0
  2 13  1  0  0  0  0
 13 14  3  0  0  0  0
  5 15  1  0  0  0  0
  6 16  1  0  0  0  0
  4 17  2  0  0  0  0
  9 18  1  0  0  0  0
 15 19  1  0  0  0  0
 19 20  1  0  0  0  0
 16 20  1  0  0  0  0
 12 21  1  0  0  0  0
 18 22  1  0  0  0  0
 18 23  2  0  0  0  0
 20 24  1  0  0  0  0
 23 25  1  0  0  0  0
 22 26  2  0  0  0  0
 26 27  1  0  0  0  0
 25 27  2  0  0  0  0
M  END
> <IDNUMBER>
Y509-7405

> <available>
25

> <H_acceptor>
5

> <H_donor>
1

> <B_rotN>
5

> <N_O>
5

> <logP>
4.396

> <logD>
2.577

> <logSw>
-4.454

> <PSA>
62.06

> <pKa_ma>
5.587

> <pKa_mb>
-6.342

> <N_Chirals>
1

> <Name>
N-(3-cyano-6-methyl-4,5,6,7-tetrahydro-1-benzothiophen-2-yl)-5-methyl-3-phenyl-1,2-oxazole-4-carboxamide

> <Smile>
c1(c(c2c(s1)CC(CC2)C)C#N)NC(c1c(noc1C)c1ccccc1)=O

> <Color>
ORANGE

> <Collection>
DC

> <InChI>
InChI=1S/C21H19N3O2S/c1-12-8-9-15-16(11-22)21(27-17(15)10-12)23-20(25)18-13(2)26-24-19(18)14-6-4-3-5-7-14/h3-7,12H,8-10H2,1-2H3,(H,23,25)/t12-/m1/s1

> <InChI Key>
WBMFCSWUYHUKII-GFCCVEGCSA-N

> <PERCENTSP3>
28.57

> <Link>
https://www.chemdiv.com/catalog/screening-compounds/compound-Y509-7405/

> <MFCDNUMBER>
MFCD01106773

> <CLNUMBER>
CL2451

> <STEREO>
RACEMIC MIXTURE

> <State>
Solid

> <Similarity score>
0.19

$$$$
N-[(3-cyano-5,6-dihydro-4H-cyclopenta[b]thiophen-2-yl)carbamothioyl]-5-methyl-3-
  -OEChem-04222410502D

 28 31  0     0  0  0  0  0  0999 V2000
   -1.2568    1.3505    0.0000 C   0  0  0  0  0  0  0  0  0  0  0  0
   -1.8403    2.1715    0.0000 C   0  0  0  0  0  0  0  0  0  0  0  0
    2.7572   -0.3751    0.0000 C   0  0  0  0  0  0  0  0  0  0  0  0
    1.7485   -0.3751    0.0000 C   0  0  0  0  0  0  0  0  0  0  0  0
    4.3243   -0.7253    0.0000 N   0  0  0  0  0  0  0  0  0  0  0  0
   -1.8403    0.5459    0.0000 S   0  0  0  0  0  0  0  0  0  0  0  0
    3.4322   -1.1296    0.0000 C   0  0  0  0  0  0  0  0  0  0  0  0
   -2.7905    1.8631    0.0000 C   0  0  0  0  0  0  0  0  0  0  0  0
   -0.2564    1.3505    0.0000 N   0  0  0  0  0  0  0  0  0  0  0  0
    1.2482    0.4876    0.0000 N   0  0  0  0  0  0  0  0  0  0  0  0
    0.2355    0.4876    0.0000 C   0  0  0  0  0  0  0  0  0  0  0  0
   -2.7905    0.8585    0.0000 C   0  0  0  0  0  0  0  0  0  0  0  0
    4.2326    0.2751    0.0000 O   0  0  0  0  0  0  0  0  0  0  0  0
    3.2491    0.4876    0.0000 C   0  0  0  0  0  0  0  0  0  0  0  0
   -1.5318    3.1218    0.0000 C   0  0  0  0  0  0  0  0  0  0  0  0
   -1.2274    4.0680    0.0000 N   0  0  0  0  0  0  0  0  0  0  0  0
   -0.2564   -0.3876    0.0000 S   0  0  0  0  0  0  0  0  0  0  0  0
    1.2482   -1.2505    0.0000 O   0  0  0  0  0  0  0  0  0  0  0  0
    3.2491   -2.0923    0.0000 C   0  0  0  0  0  0  0  0  0  0  0  0
   -3.7408    2.1715    0.0000 C   0  0  0  0  0  0  0  0  0  0  0  0
   -3.7408    0.5459    0.0000 C   0  0  0  0  0  0  0  0  0  0  0  0
    2.8446    1.4088    0.0000 C   0  0  0  0  0  0  0  0  0  0  0  0
   -4.3243    1.3505    0.0000 C   0  0  0  0  0  0  0  0  0  0  0  0
    2.3237   -2.4508    0.0000 C   0  0  0  0  0  0  0  0  0  0  0  0
    4.0242   -2.7384    0.0000 C   0  0  0  0  0  0  0  0  0  0  0  0
    3.8616   -3.7180    0.0000 C   0  0  0  0  0  0  0  0  0  0  0  0
    2.1487   -3.4303    0.0000 C   0  0  0  0  0  0  0  0  0  0  0  0
    2.9196   -4.0680    0.0000 C   0  0  0  0  0  0  0  0  0  0  0  0
  1  2  2  0  0  0  0
  3  4  1  0  0  0  0
  4 10  1  0  0  0  0
  5  7  2  0  0  0  0
  1  6  1  0  0  0  0
  3  7  1  0  0  0  0
  2  8  1  0  0  0  0
  8 12  2  0  0  0  0
  1  9  1  0  0  0  0
 10 11  1  0  0  0  0
  9 11  1  0  0  0  0
  6 12  1  0  0  0  0
 13 14  1  0  0  0  0
  5 13  1  0  0  0  0
  3 14  2  0  0  0  0
  2 15  1  0  0  0  0
 15 16  3  0  0  0  0
 11 17  2  0  0  0  0
  4 18  2  0  0  0  0
  7 19  1  0  0  0  0
  8 20  1  0  0  0  0
 12 21  1  0  0  0  0
 14 22  1  0  0  0  0
 21 23  1  0  0  0  0
 20 23  1  0  0  0  0
 19 24  2  0  0  0  0
 19 25  1  0  0  0  0
 25 26  2  0  0  0  0
 24 27  1  0  0  0  0
 26 28  1  0  0  0  0
 27 28  2  0  0  0  0
M  END
> <IDNUMBER>
8015-9527

> <available>
6

> <H_acceptor>
7

> <H_donor>
2

> <B_rotN>
7

> <N_O>
6

> <logP>
3.9988

> <logD>
3.6408

> <logSw>
-4.3864

> <PSA>
72.337

> <pKa_ma>
7.2927

> <pKa_mb>
-6.8683

> <N_Chirals>
0

> <Name>
N-[(3-cyano-5,6-dihydro-4H-cyclopenta[b]thiophen-2-yl)carbamothioyl]-5-methyl-3-phenyl-1,2-oxazole-4-carboxamide

> <Smile>
Cc1c(C(NC(Nc(sc2c3CCC2)c3C#N)=S)=O)c(-c2ccccc2)no1

> <Color>
ORANGE

> <Collection>
DC

> <InChI>
InChI=1S/C20H16N4O2S2/c1-11-16(17(24-26-11)12-6-3-2-4-7-12)18(25)22-20(27)23-19-14(10-21)13-8-5-9-15(13)28-19/h2-4,6-7H,5,8-9H2,1H3,(H2,22,23,25,27)

> <InChI Key>
OETZIRPFQXQKQY-UHFFFAOYSA-N

> <PERCENTSP3>
20

> <Link>
https://www.chemdiv.com/catalog/screening-compounds/compound-8015-9527/

> <MFCDNUMBER>
MFCD03682695

> <STEREO>
ACHIRAL

> <State>
Solid

> <Similarity score>
0.19

$$$$
5-(2H-1,3-benzodioxol-5-yl)-N-(6-tert-butyl-3-cyano-4,5,6,7-tetrahydro-1-benzoth
  -OEChem-04222410502D

 40 45  0     0  0  0  0  0  0999 V2000
    0.7864    1.6075    0.0000 N   0  0  0  0  0  0  0  0  0  0  0  0
    1.2702    2.4692    0.0000 C   0  0  0  0  0  0  0  0  0  0  0  0
   -0.2168    1.5923    0.0000 C   0  0  0  0  0  0  0  0  0  0  0  0
   -0.5745   -2.4339    0.0000 C   0  0  0  0  0  0  0  0  0  0  0  0
    1.1037    0.6552    0.0000 N   0  0  0  0  0  0  0  0  0  0  0  0
   -1.3758   -3.0137    0.0000 C   0  0  0  0  0  0  0  0  0  0  0  0
    0.2975    0.0656    0.0000 C   0  0  0  0  0  0  0  0  0  0  0  0
   -0.5140    0.6250    0.0000 C   0  0  0  0  0  0  0  0  0  0  0  0
   -0.7408    2.4392    0.0000 N   0  0  0  0  0  0  0  0  0  0  0  0
    0.7662    3.3410    0.0000 C   0  0  0  0  0  0  0  0  0  0  0  0
   -0.0907   -3.9760    0.0000 C   0  0  0  0  0  0  0  0  0  0  0  0
   -1.0883   -3.9508    0.0000 C   0  0  0  0  0  0  0  0  0  0  0  0
    0.2270   -3.0137    0.0000 S   0  0  0  0  0  0  0  0  0  0  0  0
   -0.2419    3.3261    0.0000 C   0  0  0  0  0  0  0  0  0  0  0  0
    2.2678    2.4846    0.0000 C   0  0  0  0  0  0  0  0  0  0  0  0
   -0.5745   -1.4263    0.0000 N   0  0  0  0  0  0  0  0  0  0  0  0
    0.2873   -0.9371    0.0000 C   0  0  0  0  0  0  0  0  0  0  0  0
   -2.3229   -2.6962    0.0000 C   0  0  0  0  0  0  0  0  0  0  0  0
    0.4033   -4.8377    0.0000 C   0  0  0  0  0  0  0  0  0  0  0  0
   -0.7557    4.1774    0.0000 C   0  0  0  0  0  0  0  0  0  0  0  0
   -3.2754   -2.3787    0.0000 N   0  0  0  0  0  0  0  0  0  0  0  0
   -1.5921   -4.8126    0.0000 C   0  0  0  0  0  0  0  0  0  0  0  0
   -0.7862    5.9112    0.0000 C   0  0  0  0  0  0  0  0  0  0  0  0
   -0.1056   -5.6995    0.0000 C   0  0  3  0  0  0  0  0  0  0  0  0
   -0.2719    5.0545    0.0000 C   0  0  0  0  0  0  0  0  0  0  0  0
   -1.7835    5.8858    0.0000 C   0  0  0  0  0  0  0  0  0  0  0  0
   -0.4987    6.8685    0.0000 O   0  0  0  0  0  0  0  0  0  0  0  0
    0.3782   -6.5664    0.0000 C   0  0  0  0  0  0  0  0  0  0  0  0
   -2.1064    6.8534    0.0000 O   0  0  0  0  0  0  0  0  0  0  0  0
   -1.3302    7.4430    0.0000 C   0  0  0  0  0  0  0  0  0  0  0  0
    1.1644   -1.4263    0.0000 O   0  0  0  0  0  0  0  0  0  0  0  0
   -1.1185   -5.6741    0.0000 C   0  0  0  0  0  0  0  0  0  0  0  0
   -1.7584    4.1625    0.0000 C   0  0  0  0  0  0  0  0  0  0  0  0
    3.2754    2.4995    0.0000 F   0  0  0  0  0  0  0  0  0  0  0  0
    2.2829    1.4865    0.0000 F   0  0  0  0  0  0  0  0  0  0  0  0
    2.2529    3.4922    0.0000 F   0  0  0  0  0  0  0  0  0  0  0  0
   -2.2727    5.0243    0.0000 C   0  0  0  0  0  0  0  0  0  0  0  0
    0.8720   -7.4430    0.0000 C   0  0  0  0  0  0  0  0  0  0  0  0
    1.2548   -6.0826    0.0000 C   0  0  0  0  0  0  0  0  0  0  0  0
   -0.4987   -7.0597    0.0000 C   0  0  0  0  0  0  0  0  0  0  0  0
  1  2  1  0  0  0  0
  1  3  1  0  0  0  0
  4 16  1  0  0  0  0
  1  5  1  0  0  0  0
  4  6  2  0  0  0  0
  5  7  2  0  0  0  0
  7  8  1  0  0  0  0
  3  8  2  0  0  0  0
  3  9  1  0  0  0  0
  2 10  2  0  0  0  0
 10 14  1  0  0  0  0
 11 13  1  0  0  0  0
 11 12  2  0  0  0  0
  6 12  1  0  0  0  0
  4 13  1  0  0  0  0
  9 14  2  0  0  0  0
  2 15  1  0  0  0  0
 16 17  1  0  0  0  0
  7 17  1  0  0  0  0
  6 18  1  0  0  0  0
 11 19  1  0  0  0  0
 14 20  1  0  0  0  0
 18 21  3  0  0  0  0
 12 22  1  0  0  0  0
 23 25  2  0  0  0  0
 23 26  1  0  0  0  0
 19 24  1  0  0  0  0
 20 25  1  0  0  0  0
 26 37  2  0  0  0  0
 23 27  1  0  0  0  0
 24 28  1  0  0  0  0
 26 29  1  0  0  0  0
 29 30  1  0  0  0  0
 27 30  1  0  0  0  0
 17 31  2  0  0  0  0
 22 32  1  0  0  0  0
 24 32  1  0  0  0  0
 20 33  2  0  0  0  0
 15 34  1  0  0  0  0
 15 35  1  0  0  0  0
 15 36  1  0  0  0  0
 33 37  1  0  0  0  0
 28 38  1  0  0  0  0
 28 39  1  0  0  0  0
 28 40  1  0  0  0  0
M  END
> <IDNUMBER>
A0005409

> <available>
13

> <H_acceptor>
7

> <H_donor>
1

> <B_rotN>
7

> <N_O>
8

> <logP>
7.0215

> <logD>
5.3955

> <logSw>
-5.7534

> <PSA>
75.375

> <pKa_ma>
5.7844

> <pKa_mb>
2.841

> <N_Chirals>
1

> <Name>
5-(2H-1,3-benzodioxol-5-yl)-N-(6-tert-butyl-3-cyano-4,5,6,7-tetrahydro-1-benzothiophen-2-yl)-7-(trifluoromethyl)pyrazolo[1,5-a]pyrimidine-2-carboxamide

> <Smile>
CC(C)(C)C(CC1)Cc2c1c(C#N)c(NC(c1nn3c(C(F)(F)F)cc(-c(cc4)cc5c4OCO5)nc3c1)=O)s2

> <Color>
YELLOW

> <Collection>
DC

> <InChI>
InChI=1S/C28H24F3N5O3S/c1-27(2,3)15-5-6-16-17(12-32)26(40-22(16)9-15)34-25(37)19-11-24-33-18(10-23(28(29,30)31)36(24)35-19)14-4-7-20-21(8-14)39-13-38-20/h4,7-8,10-11,15H,5-6,9,13H2,1-3H3,(H,34,37)/t15
-/m1/s1

> <InChI Key>
AKYOYLCLJFKLBW-OAHLLOKOSA-N

> <PERCENTSP3>
35.7

> <Link>
https://www.chemdiv.com/catalog/screening-compounds/compound-A0005409/

> <MFCDNUMBER>
MFCD02087736

> <CLNUMBER>
CL1652

> <STEREO>
RACEMIC MIXTURE

> <State>
Solid

> <Similarity score>
0.19

$$$$
N-(3-cyano-4,5,6,7-tetrahydro-1-benzothiophen-2-yl)-5-(4-methoxyphenyl)-1,2-oxaz
  -OEChem-04222410502D

 27 30  0     0  0  0  0  0  0999 V2000
   -0.9292   -2.7527    0.0000 C   0  0  0  0  0  0  0  0  0  0  0  0
   -0.3215   -3.5263    0.0000 C   0  0  0  0  0  0  0  0  0  0  0  0
   -0.0045    0.5571    0.0000 C   0  0  0  0  0  0  0  0  0  0  0  0
   -1.8506   -3.0878    0.0000 S   0  0  0  0  0  0  0  0  0  0  0  0
   -0.8521   -4.3441    0.0000 C   0  0  0  0  0  0  0  0  0  0  0  0
   -0.7897    1.0815    0.0000 N   0  0  0  0  0  0  0  0  0  0  0  0
   -0.9292   -1.7425    0.0000 N   0  0  0  0  0  0  0  0  0  0  0  0
    0.7453    1.1320    0.0000 C   0  0  0  0  0  0  0  0  0  0  0  0
   -1.8122   -4.0805    0.0000 C   0  0  0  0  0  0  0  0  0  0  0  0
   -0.0636   -1.2416    0.0000 C   0  0  0  0  0  0  0  0  0  0  0  0
    0.4164    2.0240    0.0000 C   0  0  0  0  0  0  0  0  0  0  0  0
   -0.5232    1.9942    0.0000 O   0  0  0  0  0  0  0  0  0  0  0  0
    0.6888   -3.4639    0.0000 C   0  0  0  0  0  0  0  0  0  0  0  0
    1.6994   -3.4344    0.0000 N   0  0  0  0  0  0  0  0  0  0  0  0
    0.9466    2.8122    0.0000 C   0  0  0  0  0  0  0  0  0  0  0  0
    0.7749   -1.6949    0.0000 O   0  0  0  0  0  0  0  0  0  0  0  0
    1.8862    2.7469    0.0000 C   0  0  0  0  0  0  0  0  0  0  0  0
    0.5348    3.6595    0.0000 C   0  0  0  0  0  0  0  0  0  0  0  0
    2.0016    4.3708    0.0000 C   0  0  0  0  0  0  0  0  0  0  0  0
   -0.5941   -5.3130    0.0000 C   0  0  0  0  0  0  0  0  0  0  0  0
    2.4167    3.5234    0.0000 C   0  0  0  0  0  0  0  0  0  0  0  0
    1.0533    4.4478    0.0000 C   0  0  0  0  0  0  0  0  0  0  0  0
   -2.5323   -4.7829    0.0000 C   0  0  0  0  0  0  0  0  0  0  0  0
    2.5323    5.1709    0.0000 O   0  0  0  0  0  0  0  0  0  0  0  0
    2.1143    6.0243    0.0000 C   0  0  0  0  0  0  0  0  0  0  0  0
   -1.3054   -6.0243    0.0000 C   0  0  0  0  0  0  0  0  0  0  0  0
   -2.2743   -5.7635    0.0000 C   0  0  0  0  0  0  0  0  0  0  0  0
  1  2  2  0  0  0  0
  3 10  1  0  0  0  0
  1  4  1  0  0  0  0
  2  5  1  0  0  0  0
  3  6  2  0  0  0  0
  1  7  1  0  0  0  0
  3  8  1  0  0  0  0
  4  9  1  0  0  0  0
  5  9  2  0  0  0  0
  7 10  1  0  0  0  0
  8 11  2  0  0  0  0
 11 12  1  0  0  0  0
  6 12  1  0  0  0  0
  2 13  1  0  0  0  0
 13 14  3  0  0  0  0
 11 15  1  0  0  0  0
 10 16  2  0  0  0  0
 15 17  2  0  0  0  0
 15 18  1  0  0  0  0
 19 22  1  0  0  0  0
  5 20  1  0  0  0  0
 17 21  1  0  0  0  0
 19 21  2  0  0  0  0
 18 22  2  0  0  0  0
  9 23  1  0  0  0  0
 19 24  1  0  0  0  0
 24 25  1  0  0  0  0
 20 26  1  0  0  0  0
 26 27  1  0  0  0  0
 23 27  1  0  0  0  0
M  END
> <IDNUMBER>
C226-0775

> <available>
64

> <H_acceptor>
6

> <H_donor>
1

> <B_rotN>
6

> <N_O>
6

> <logP>
4.4705

> <logD>
3.1794

> <logSw>
-4.4701

> <PSA>
69.18

> <pKa_ma>
6.1318

> <pKa_mb>
-6.8683

> <N_Chirals>
0

> <Name>
N-(3-cyano-4,5,6,7-tetrahydro-1-benzothiophen-2-yl)-5-(4-methoxyphenyl)-1,2-oxazole-3-carboxamide

> <Smile>
COc(cc1)ccc1-c1cc(C(Nc(sc2c3CCCC2)c3C#N)=O)no1

> <Color>
NOT COLORED

> <Collection>
DC

> <InChI>
InChI=1S/C20H17N3O3S/c1-25-13-8-6-12(7-9-13)17-10-16(23-26-17)19(24)22-20-15(11-21)14-4-2-3-5-18(14)27-20/h6-10H,2-5H2,1H3,(H,22,24)

> <InChI Key>
GEOFPCNFWRTZNM-UHFFFAOYSA-N

> <PERCENTSP3>
25

> <Link>
https://www.chemdiv.com/catalog/screening-compounds/compound-C226-0775/

> <MFCDNUMBER>
MFCD08546569

> <CLNUMBER>
CL2028

> <STEREO>
ACHIRAL

> <State>
Solid

> <Similarity score>
0.19

$$$$
N-(3-cyano-4,5,6,7-tetrahydro-1-benzothiophen-2-yl)-2-(1-ethyl-3-methyl-1H-pyraz
  -OEChem-04222410502D

 32 36  0     0  0  0  0  0  0999 V2000
   -1.7858    1.5941    0.0000 C   0  0  0  0  0  0  0  0  0  0  0  0
   -2.7068    1.9150    0.0000 C   0  0  0  0  0  0  0  0  0  0  0  0
    1.6025   -2.1069    0.0000 C   0  0  0  0  0  0  0  0  0  0  0  0
   -1.8066    0.6315    0.0000 S   0  0  0  0  0  0  0  0  0  0  0  0
    0.7606   -1.6025    0.0000 C   0  0  0  0  0  0  0  0  0  0  0  0
   -3.3029    1.1440    0.0000 C   0  0  0  0  0  0  0  0  0  0  0  0
   -0.9399    2.0734    0.0000 N   0  0  0  0  0  0  0  0  0  0  0  0
    2.7152   -3.2279    0.0000 N   0  0  0  0  0  0  0  0  0  0  0  0
   -0.0855    1.5941    0.0000 C   0  0  0  0  0  0  0  0  0  0  0  0
   -2.7485    0.3437    0.0000 C   0  0  0  0  0  0  0  0  0  0  0  0
    1.7525   -3.0696    0.0000 C   0  0  0  0  0  0  0  0  0  0  0  0
   -0.0855   -0.1397    0.0000 C   0  0  0  0  0  0  0  0  0  0  0  0
   -0.0855   -2.1069    0.0000 N   0  0  0  0  0  0  0  0  0  0  0  0
    3.1777   -2.3859    0.0000 N   0  0  0  0  0  0  0  0  0  0  0  0
    2.4901   -1.6694    0.0000 C   0  0  0  0  0  0  0  0  0  0  0  0
    0.7606   -0.6315    0.0000 C   0  0  0  0  0  0  0  0  0  0  0  0
   -3.0070    2.8361    0.0000 C   0  0  0  0  0  0  0  0  0  0  0  0
   -0.9315   -0.6315    0.0000 C   0  0  0  0  0  0  0  0  0  0  0  0
   -0.9315   -1.6025    0.0000 C   0  0  0  0  0  0  0  0  0  0  0  0
   -3.3029    3.7654    0.0000 N   0  0  0  0  0  0  0  0  0  0  0  0
    0.7606    2.0734    0.0000 O   0  0  0  0  0  0  0  0  0  0  0  0
   -4.2864    1.0688    0.0000 C   0  0  0  0  0  0  0  0  0  0  0  0
   -3.1569   -0.5439    0.0000 C   0  0  0  0  0  0  0  0  0  0  0  0
    4.1488   -2.2901    0.0000 C   0  0  0  0  0  0  0  0  0  0  0  0
    1.0815   -3.7654    0.0000 C   0  0  0  0  0  0  0  0  0  0  0  0
   -1.7858   -0.1397    0.0000 C   0  0  0  0  0  0  0  0  0  0  0  0
   -1.7858   -2.1069    0.0000 C   0  0  0  0  0  0  0  0  0  0  0  0
    4.7157   -3.1029    0.0000 C   0  0  0  0  0  0  0  0  0  0  0  0
   -4.7157    0.1729    0.0000 C   0  0  0  0  0  0  0  0  0  0  0  0
   -4.1488   -0.6315    0.0000 C   0  0  0  0  0  0  0  0  0  0  0  0
   -2.6318   -0.6315    0.0000 C   0  0  0  0  0  0  0  0  0  0  0  0
   -2.6318   -1.6025    0.0000 C   0  0  0  0  0  0  0  0  0  0  0  0
  1  2  2  0  0  0  0
  3  5  1  0  0  0  0
  1  4  1  0  0  0  0
  5 16  2  0  0  0  0
  5 13  1  0  0  0  0
  2  6  1  0  0  0  0
  6 10  2  0  0  0  0
  1  7  1  0  0  0  0
  8 11  2  0  0  0  0
  8 14  1  0  0  0  0
  7  9  1  0  0  0  0
  4 10  1  0  0  0  0
  3 11  1  0  0  0  0
  9 12  1  0  0  0  0
 13 19  2  0  0  0  0
 14 15  1  0  0  0  0
  3 15  2  0  0  0  0
 12 16  1  0  0  0  0
  2 17  1  0  0  0  0
 12 18  2  0  0  0  0
 18 19  1  0  0  0  0
 17 20  3  0  0  0  0
  9 21  2  0  0  0  0
  6 22  1  0  0  0  0
 10 23  1  0  0  0  0
 14 24  1  0  0  0  0
 11 25  1  0  0  0  0
 18 26  1  0  0  0  0
 19 27  1  0  0  0  0
 27 32  2  0  0  0  0
 24 28  1  0  0  0  0
 22 29  1  0  0  0  0
 29 30  1  0  0  0  0
 23 30  1  0  0  0  0
 26 31  2  0  0  0  0
 31 32  1  0  0  0  0
M  END
> <IDNUMBER>
Y502-5910

> <available>
16

> <H_acceptor>
5

> <H_donor>
1

> <B_rotN>
6

> <N_O>
6

> <logP>
4.7561

> <logD>
3.8009

> <logSw>
-4.6546

> <PSA>
63.015

> <pKa_ma>
6.4958

> <pKa_mb>
1.1099

> <N_Chirals>
0

> <Name>
N-(3-cyano-4,5,6,7-tetrahydro-1-benzothiophen-2-yl)-2-(1-ethyl-3-methyl-1H-pyrazol-4-yl)quinoline-4-carboxamide

> <Smile>
CCn1nc(C)c(-c2nc3ccccc3c(C(Nc(sc3c4CCCC3)c4C#N)=O)c2)c1

> <Color>
YELLOW

> <Collection>
DC

> <InChI>
InChI=1S/C25H23N5OS/c1-3-30-14-20(15(2)29-30)22-12-18(16-8-4-6-10-21(16)27-22)24(31)28-25-19(13-26)17-9-5-7-11-23(17)32-25/h4,6,8,10,12,14H,3,5,7,9,11H2,1-2H3,(H,28,31)

> <InChI Key>
DXQQNJMMJXLMGQ-UHFFFAOYSA-N

> <PERCENTSP3>
28

> <Link>
https://www.chemdiv.com/catalog/screening-compounds/compound-Y502-5910/

> <MFCDNUMBER>
MFCD04133913

> <CLNUMBER>
CL7494

> <Saltdata>
HCl

> <Saltdata_MW>
36.461

> <STEREO>
ACHIRAL

> <State>
Solid

> <Similarity score>
0.19

$$$$
N-(3-cyano-5,6-dihydro-4H-cyclopenta[b]thiophen-2-yl)-7-(1,3,5-trimethyl-1H-pyra
  -OEChem-04222410502D

 30 34  0     0  0  0  0  0  0999 V2000
   -2.1013    1.0476    0.0000 N   0  0  0  0  0  0  0  0  0  0  0  0
   -3.3634   -0.1355    0.0000 C   0  0  0  0  0  0  0  0  0  0  0  0
   -3.0758    0.8184    0.0000 C   0  0  0  0  0  0  0  0  0  0  0  0
    2.1637    1.1892    0.0000 C   0  0  0  0  0  0  0  0  0  0  0  0
   -1.2766    0.4726    0.0000 N   0  0  0  0  0  0  0  0  0  0  0  0
    2.4470    0.2604    0.0000 C   0  0  0  0  0  0  0  0  0  0  0  0
   -0.4769    1.0850    0.0000 C   0  0  0  0  0  0  0  0  0  0  0  0
   -1.8097    2.0053    0.0000 C   0  0  0  0  0  0  0  0  0  0  0  0
   -0.8101    2.0264    0.0000 C   0  0  0  0  0  0  0  0  0  0  0  0
   -4.2921   -1.4682    0.0000 N   0  0  0  0  0  0  0  0  0  0  0  0
   -3.3340   -1.7595    0.0000 N   0  0  0  0  0  0  0  0  0  0  0  0
   -4.3087   -0.4643    0.0000 C   0  0  0  0  0  0  0  0  0  0  0  0
   -2.7594   -0.9391    0.0000 C   0  0  0  0  0  0  0  0  0  0  0  0
    3.0259    1.7515    0.0000 S   0  0  0  0  0  0  0  0  0  0  0  0
    3.4381    0.2022    0.0000 C   0  0  0  0  0  0  0  0  0  0  0  0
    1.2101    1.4807    0.0000 N   0  0  0  0  0  0  0  0  0  0  0  0
    3.8133    1.1184    0.0000 C   0  0  0  0  0  0  0  0  0  0  0  0
    0.4769    0.7934    0.0000 C   0  0  0  0  0  0  0  0  0  0  0  0
   -2.4968    2.7385    0.0000 N   0  0  0  0  0  0  0  0  0  0  0  0
    1.8307   -0.5518    0.0000 C   0  0  0  0  0  0  0  0  0  0  0  0
   -3.7630    1.5515    0.0000 C   0  0  0  0  0  0  0  0  0  0  0  0
    1.2267   -1.3266    0.0000 N   0  0  0  0  0  0  0  0  0  0  0  0
   -3.4713    2.5095    0.0000 C   0  0  0  0  0  0  0  0  0  0  0  0
    0.7060   -0.1853    0.0000 O   0  0  0  0  0  0  0  0  0  0  0  0
   -3.1051   -2.7385    0.0000 C   0  0  0  0  0  0  0  0  0  0  0  0
    4.2254   -0.4352    0.0000 C   0  0  0  0  0  0  0  0  0  0  0  0
    4.8253    1.0643    0.0000 C   0  0  0  0  0  0  0  0  0  0  0  0
   -5.0584    0.1103    0.0000 C   0  0  0  0  0  0  0  0  0  0  0  0
   -1.7513   -0.8642    0.0000 C   0  0  0  0  0  0  0  0  0  0  0  0
    5.0584    0.1103    0.0000 C   0  0  0  0  0  0  0  0  0  0  0  0
  2  3  1  0  0  0  0
  1  3  1  0  0  0  0
  4 16  1  0  0  0  0
  1  5  1  0  0  0  0
  4  6  2  0  0  0  0
  5  7  2  0  0  0  0
  7  9  1  0  0  0  0
  1  8  1  0  0  0  0
  8  9  2  0  0  0  0
 10 12  2  0  0  0  0
 10 11  1  0  0  0  0
 11 13  1  0  0  0  0
  2 12  1  0  0  0  0
  2 13  2  0  0  0  0
  4 14  1  0  0  0  0
  6 15  1  0  0  0  0
 16 18  1  0  0  0  0
 14 17  1  0  0  0  0
 15 17  2  0  0  0  0
  7 18  1  0  0  0  0
  8 19  1  0  0  0  0
  6 20  1  0  0  0  0
  3 21  2  0  0  0  0
 21 23  1  0  0  0  0
 20 22  3  0  0  0  0
 19 23  2  0  0  0  0
 18 24  2  0  0  0  0
 11 25  1  0  0  0  0
 15 26  1  0  0  0  0
 17 27  1  0  0  0  0
 12 28  1  0  0  0  0
 13 29  1  0  0  0  0
 27 30  1  0  0  0  0
 26 30  1  0  0  0  0
M  END
> <IDNUMBER>
Y501-2728

> <available>
6

> <H_acceptor>
6

> <H_donor>
1

> <B_rotN>
5

> <N_O>
8

> <logP>
2.0321

> <logD>
-0.2451

> <logSw>
-2.8949

> <PSA>
73.897

> <pKa_ma>
5.1251

> <pKa_mb>
3.8634

> <N_Chirals>
0

> <Name>
N-(3-cyano-5,6-dihydro-4H-cyclopenta[b]thiophen-2-yl)-7-(1,3,5-trimethyl-1H-pyrazol-4-yl)pyrazolo[1,5-a]pyrimidine-2-carboxamide

> <Smile>
Cc(n(C)nc1C)c1-c1ccnc2cc(C(Nc(sc3c4CCC3)c4C#N)=O)nn12

> <Color>
BROWN

> <Collection>
DC

> <InChI>
InChI=1S/C21H19N7OS/c1-11-19(12(2)27(3)25-11)16-7-8-23-18-9-15(26-28(16)18)20(29)24-21-14(10-22)13-5-4-6-17(13)30-21/h7-9H,4-6H2,1-3H3,(H,24,29)

> <InChI Key>
AUKHSOVUQBRDPH-UHFFFAOYSA-N

> <PERCENTSP3>
28.57

> <Link>
https://www.chemdiv.com/catalog/screening-compounds/compound-Y501-2728/

> <MFCDNUMBER>
MFCD08557601

> <STEREO>
ACHIRAL

> <State>
Solid

> <Similarity score>
0.19

$$$$
3-bromo-N-(3-cyano-6-methyl-4,5,6,7-tetrahydro-1-benzothiophen-2-yl)-6-(4H-1,2,4
  -OEChem-04222410502D

 27 30  0     0  0  0  0  0  0999 V2000
    1.3145   -0.3353    0.0000 C   0  0  0  0  0  0  0  0  0  0  0  0
    1.6269    0.6188    0.0000 C   0  0  0  0  0  0  0  0  0  0  0  0
    2.6269    0.6188    0.0000 C   0  0  0  0  0  0  0  0  0  0  0  0
    2.9351   -0.3311    0.0000 C   0  0  0  0  0  0  0  0  0  0  0  0
   -1.3687   -0.6436    0.0000 C   0  0  0  0  0  0  0  0  0  0  0  0
    2.1271   -0.9101    0.0000 S   0  0  0  0  0  0  0  0  0  0  0  0
   -2.2394   -1.1437    0.0000 N   0  0  0  0  0  0  0  0  0  0  0  0
   -3.9685   -1.1437    0.0000 N   0  0  0  0  0  0  0  0  0  0  0  0
   -0.5021   -1.1437    0.0000 C   0  0  0  0  0  0  0  0  0  0  0  0
    0.3604   -0.6395    0.0000 N   0  0  0  0  0  0  0  0  0  0  0  0
   -3.1020   -0.6436    0.0000 C   0  0  0  0  0  0  0  0  0  0  0  0
   -5.0560   -2.3438    0.0000 N   0  0  0  0  0  0  0  0  0  0  0  0
   -5.5560   -1.4770    0.0000 N   0  0  0  0  0  0  0  0  0  0  0  0
    1.0395    1.4355    0.0000 C   0  0  0  0  0  0  0  0  0  0  0  0
   -4.8853   -0.7353    0.0000 C   0  0  0  0  0  0  0  0  0  0  0  0
   -4.0771   -2.1394    0.0000 C   0  0  0  0  0  0  0  0  0  0  0  0
    1.4479    2.3438    0.0000 N   0  0  0  0  0  0  0  0  0  0  0  0
    3.2852    1.3604    0.0000 C   0  0  0  0  0  0  0  0  0  0  0  0
   -1.3687    0.3604    0.0000 C   0  0  0  0  0  0  0  0  0  0  0  0
    3.9060   -0.5311    0.0000 C   0  0  0  0  0  0  0  0  0  0  0  0
   -0.5021   -2.1436    0.0000 O   0  0  0  0  0  0  0  0  0  0  0  0
   -3.1020    0.3604    0.0000 C   0  0  0  0  0  0  0  0  0  0  0  0
   -2.2394    0.8605    0.0000 C   0  0  0  0  0  0  0  0  0  0  0  0
    4.2686    1.1647    0.0000 C   0  0  0  0  0  0  0  0  0  0  0  0
   -0.5061    0.8647    0.0000 Br  0  0  0  0  0  0  0  0  0  0  0  0
    4.5809    0.2104    0.0000 C   0  0  3  0  0  0  0  0  0  0  0  0
    5.5560    0.0023    0.0000 C   0  0  0  0  0  0  0  0  0  0  0  0
  1  2  2  0  0  0  0
  2  3  1  0  0  0  0
  4  6  1  0  0  0  0
  3  4  2  0  0  0  0
  5  9  1  0  0  0  0
  1  6  1  0  0  0  0
  5  7  2  0  0  0  0
  8 11  1  0  0  0  0
  9 10  1  0  0  0  0
  1 10  1  0  0  0  0
  7 11  1  0  0  0  0
 12 16  2  0  0  0  0
 13 15  2  0  0  0  0
 12 13  1  0  0  0  0
  2 14  1  0  0  0  0
  8 15  1  0  0  0  0
  8 16  1  0  0  0  0
 14 17  3  0  0  0  0
  3 18  1  0  0  0  0
  5 19  1  0  0  0  0
  4 20  1  0  0  0  0
  9 21  2  0  0  0  0
 22 23  1  0  0  0  0
 11 22  2  0  0  0  0
 19 23  2  0  0  0  0
 18 24  1  0  0  0  0
 24 26  1  0  0  0  0
 19 25  1  0  0  0  0
 20 26  1  0  0  0  0
 26 27  1  0  0  0  0
M  END
> <IDNUMBER>
J015-0225

> <available>
76

> <H_acceptor>
6

> <H_donor>
1

> <B_rotN>
5

> <N_O>
7

> <logP>
3.8892

> <logD>
0.3323

> <logSw>
-4.3333

> <PSA>
74.982

> <pKa_ma>
3.8432

> <pKa_mb>
1.2706

> <N_Chirals>
1

> <Name>
3-bromo-N-(3-cyano-6-methyl-4,5,6,7-tetrahydro-1-benzothiophen-2-yl)-6-(4H-1,2,4-triazol-4-yl)pyridine-2-carboxamide

> <Smile>
CC(CC1)Cc2c1c(C#N)c(NC(c(nc(cc1)-n3cnnc3)c1Br)=O)s2

> <Color>
YELLOW

> <Collection>
NC

> <InChI>
InChI=1S/C18H15BrN6OS/c1-10-2-3-11-12(7-20)18(27-14(11)6-10)24-17(26)16-13(19)4-5-15(23-16)25-8-21-22-9-25/h4-5,8-10H,2-3,6H2,1H3,(H,24,26)/t10-/m1/s1

> <InChI Key>
JRWLUCUNKGZYHY-SNVBAGLBSA-N

> <PERCENTSP3>
27.8

> <Link>
https://www.chemdiv.com/catalog/screening-compounds/compound-J015-0225/

> <MFCDNUMBER>
MFCD27217838

> <CLNUMBER>
CL8311

> <STEREO>
RACEMIC MIXTURE

> <State>
Solid

> <Similarity score>
0.19

$$$$
N-(6-tert-butyl-3-cyano-4,5,6,7-tetrahydro-1-benzothiophen-2-yl)-5-(thiophen-2-y
  -OEChem-04222410502D

 36 40  0     0  0  0  0  0  0999 V2000
    2.5717   -0.0312    0.0000 N   0  0  0  0  0  0  0  0  0  0  0  0
    3.4929    0.3937    0.0000 C   0  0  0  0  0  0  0  0  0  0  0  0
    2.4966   -1.0318    0.0000 C   0  0  0  0  0  0  0  0  0  0  0  0
   -1.5463    0.4815    0.0000 C   0  0  0  0  0  0  0  0  0  0  0  0
    1.6798    0.3815    0.0000 N   0  0  0  0  0  0  0  0  0  0  0  0
   -2.1131    1.2775    0.0000 C   0  0  0  0  0  0  0  0  0  0  0  0
    1.0046   -0.3939    0.0000 C   0  0  0  0  0  0  0  0  0  0  0  0
    1.5006   -1.2359    0.0000 C   0  0  0  0  0  0  0  0  0  0  0  0
    3.3010   -1.6108    0.0000 N   0  0  0  0  0  0  0  0  0  0  0  0
    4.3097   -0.1853    0.0000 C   0  0  0  0  0  0  0  0  0  0  0  0
   -3.0761   -0.0312    0.0000 C   0  0  0  0  0  0  0  0  0  0  0  0
   -3.0761    0.9605    0.0000 C   0  0  0  0  0  0  0  0  0  0  0  0
   -2.1131   -0.3396    0.0000 S   0  0  0  0  0  0  0  0  0  0  0  0
    4.2097   -1.1983    0.0000 C   0  0  0  0  0  0  0  0  0  0  0  0
    3.5845    1.4024    0.0000 C   0  0  0  0  0  0  0  0  0  0  0  0
   -0.5335    0.4815    0.0000 N   0  0  0  0  0  0  0  0  0  0  0  0
   -0.0333   -0.3939    0.0000 C   0  0  0  0  0  0  0  0  0  0  0  0
    5.0351   -1.7696    0.0000 C   0  0  0  0  0  0  0  0  0  0  0  0
   -1.7923    2.1943    0.0000 C   0  0  0  0  0  0  0  0  0  0  0  0
   -3.9305   -0.5358    0.0000 C   0  0  0  0  0  0  0  0  0  0  0  0
   -1.4630    3.1030    0.0000 N   0  0  0  0  0  0  0  0  0  0  0  0
   -3.9305    1.4651    0.0000 C   0  0  0  0  0  0  0  0  0  0  0  0
    4.9975   -2.7532    0.0000 S   0  0  0  0  0  0  0  0  0  0  0  0
   -4.8100   -0.0312    0.0000 C   0  0  3  0  0  0  0  0  0  0  0  0
   -5.6811   -0.5358    0.0000 C   0  0  0  0  0  0  0  0  0  0  0  0
   -0.5335   -1.2359    0.0000 O   0  0  0  0  0  0  0  0  0  0  0  0
    5.9811   -1.5110    0.0000 C   0  0  0  0  0  0  0  0  0  0  0  0
    5.9311   -3.1030    0.0000 C   0  0  0  0  0  0  0  0  0  0  0  0
   -4.8100    0.9605    0.0000 C   0  0  0  0  0  0  0  0  0  0  0  0
    6.5314   -2.3362    0.0000 C   0  0  0  0  0  0  0  0  0  0  0  0
    2.5717    1.4983    0.0000 F   0  0  0  0  0  0  0  0  0  0  0  0
    4.5973    1.3151    0.0000 F   0  0  0  0  0  0  0  0  0  0  0  0
    3.6761    2.4154    0.0000 F   0  0  0  0  0  0  0  0  0  0  0  0
   -5.1767   -1.4024    0.0000 C   0  0  0  0  0  0  0  0  0  0  0  0
   -6.1813    0.3396    0.0000 C   0  0  0  0  0  0  0  0  0  0  0  0
   -6.5314   -1.0318    0.0000 C   0  0  0  0  0  0  0  0  0  0  0  0
  1  2  1  0  0  0  0
  1  3  1  0  0  0  0
  4 16  1  0  0  0  0
  1  5  1  0  0  0  0
  4  6  2  0  0  0  0
  5  7  2  0  0  0  0
  7  8  1  0  0  0  0
  3  8  2  0  0  0  0
  3  9  1  0  0  0  0
  2 10  2  0  0  0  0
 11 13  1  0  0  0  0
  6 12  1  0  0  0  0
 11 12  2  0  0  0  0
  4 13  1  0  0  0  0
  9 14  2  0  0  0  0
 10 14  1  0  0  0  0
  2 15  1  0  0  0  0
 16 17  1  0  0  0  0
  7 17  1  0  0  0  0
 14 18  1  0  0  0  0
  6 19  1  0  0  0  0
 11 20  1  0  0  0  0
 19 21  3  0  0  0  0
 12 22  1  0  0  0  0
 18 23  1  0  0  0  0
 20 24  1  0  0  0  0
 24 25  1  0  0  0  0
 17 26  2  0  0  0  0
 18 27  2  0  0  0  0
 23 28  1  0  0  0  0
 28 30  2  0  0  0  0
 22 29  1  0  0  0  0
 24 29  1  0  0  0  0
 27 30  1  0  0  0  0
 15 31  1  0  0  0  0
 15 32  1  0  0  0  0
 15 33  1  0  0  0  0
 25 34  1  0  0  0  0
 25 35  1  0  0  0  0
 25 36  1  0  0  0  0
M  END
> <IDNUMBER>
Y500-0421

> <available>
18

> <H_acceptor>
5

> <H_donor>
1

> <B_rotN>
7

> <N_O>
6

> <logP>
6.8668

> <logD>
5.2408

> <logSw>
-5.6465

> <PSA>
59.278

> <pKa_ma>
5.7844

> <pKa_mb>
0.7525

> <N_Chirals>
1

> <Name>
N-(6-tert-butyl-3-cyano-4,5,6,7-tetrahydro-1-benzothiophen-2-yl)-5-(thiophen-2-yl)-7-(trifluoromethyl)pyrazolo[1,5-a]pyrimidine-2-carboxamide

> <Smile>
CC(C)(C)C(CC1)Cc2c1c(C#N)c(NC(c1nn3c(C(F)(F)F)cc(-c4cccs4)nc3c1)=O)s2

> <Color>
YELLOW

> <Collection>
DC

> <InChI>
InChI=1S/C25H22F3N5OS2/c1-24(2,3)13-6-7-14-15(12-29)23(36-19(14)9-13)31-22(34)17-11-21-30-16(18-5-4-8-35-18)10-20(25(26,27)28)33(21)32-17/h4-5,8,10-11,13H,6-7,9H2,1-3H3,(H,31,34)/t13-/m1/s1

> <InChI Key>
VEMOBZAPPNEBJZ-CYBMUJFWSA-N

> <PERCENTSP3>
36

> <Link>
https://www.chemdiv.com/catalog/screening-compounds/compound-Y500-0421/

> <MFCDNUMBER>
MFCD01451921

> <STEREO>
RACEMIC MIXTURE

> <State>
Solid

> <Similarity score>
0.19

$$$$
N-(3-cyano-4,5,6,7-tetrahydro-1-benzothiophen-2-yl)-5-(3,4-dichlorophenyl)-7-(tr
  -OEChem-04222410502D

 35 39  0     0  0  0  0  0  0999 V2000
    1.0458   -0.0486    0.0000 N   0  0  0  0  0  0  0  0  0  0  0  0
    1.9216    0.4439    0.0000 C   0  0  0  0  0  0  0  0  0  0  0  0
    1.0458   -1.0703    0.0000 C   0  0  0  0  0  0  0  0  0  0  0  0
   -2.9676    0.2980    0.0000 C   0  0  0  0  0  0  0  0  0  0  0  0
    0.0974    0.2431    0.0000 N   0  0  0  0  0  0  0  0  0  0  0  0
   -3.4722    1.1735    0.0000 C   0  0  0  0  0  0  0  0  0  0  0  0
   -0.4622   -0.5778    0.0000 C   0  0  0  0  0  0  0  0  0  0  0  0
    0.0974   -1.3620    0.0000 C   0  0  0  0  0  0  0  0  0  0  0  0
    1.9216   -1.5750    0.0000 N   0  0  0  0  0  0  0  0  0  0  0  0
    2.7971   -0.0486    0.0000 C   0  0  0  0  0  0  0  0  0  0  0  0
   -3.6423   -0.4316    0.0000 S   0  0  0  0  0  0  0  0  0  0  0  0
   -4.4267    0.9365    0.0000 C   0  0  0  0  0  0  0  0  0  0  0  0
    2.7971   -1.0703    0.0000 C   0  0  0  0  0  0  0  0  0  0  0  0
    1.9216    1.4351    0.0000 C   0  0  0  0  0  0  0  0  0  0  0  0
   -1.9760    0.2980    0.0000 N   0  0  0  0  0  0  0  0  0  0  0  0
   -4.5484   -0.0243    0.0000 C   0  0  0  0  0  0  0  0  0  0  0  0
   -1.4837   -0.5778    0.0000 C   0  0  0  0  0  0  0  0  0  0  0  0
   -3.0587    2.1040    0.0000 C   0  0  0  0  0  0  0  0  0  0  0  0
    3.6425   -1.5750    0.0000 C   0  0  0  0  0  0  0  0  0  0  0  0
   -2.6511    3.0406    0.0000 N   0  0  0  0  0  0  0  0  0  0  0  0
    5.3938   -1.5750    0.0000 C   0  0  0  0  0  0  0  0  0  0  0  0
    4.5180   -1.0703    0.0000 C   0  0  0  0  0  0  0  0  0  0  0  0
    5.3938   -2.5479    0.0000 C   0  0  0  0  0  0  0  0  0  0  0  0
   -1.9760   -1.4533    0.0000 O   0  0  0  0  0  0  0  0  0  0  0  0
    3.6425   -2.5479    0.0000 C   0  0  0  0  0  0  0  0  0  0  0  0
    2.9129    1.4351    0.0000 F   0  0  0  0  0  0  0  0  0  0  0  0
    0.8998    1.4351    0.0000 F   0  0  0  0  0  0  0  0  0  0  0  0
    1.9216    2.4568    0.0000 F   0  0  0  0  0  0  0  0  0  0  0  0
    4.5180   -3.0406    0.0000 C   0  0  0  0  0  0  0  0  0  0  0  0
    6.2693   -1.0703    0.0000 Cl  0  0  0  0  0  0  0  0  0  0  0  0
    6.2693   -3.0406    0.0000 Cl  0  0  0  0  0  0  0  0  0  0  0  0
   -5.2478    1.5203    0.0000 C   0  0  0  0  0  0  0  0  0  0  0  0
   -5.4788   -0.4316    0.0000 C   0  0  0  0  0  0  0  0  0  0  0  0
   -6.1537    1.1189    0.0000 C   0  0  0  0  0  0  0  0  0  0  0  0
   -6.2693    0.1520    0.0000 C   0  0  0  0  0  0  0  0  0  0  0  0
  1  2  1  0  0  0  0
  1  3  1  0  0  0  0
  4 15  1  0  0  0  0
  1  5  1  0  0  0  0
  4  6  2  0  0  0  0
  5  7  2  0  0  0  0
  3  8  2  0  0  0  0
  7  8  1  0  0  0  0
  3  9  1  0  0  0  0
  2 10  2  0  0  0  0
  4 11  1  0  0  0  0
  6 12  1  0  0  0  0
 12 16  2  0  0  0  0
  9 13  2  0  0  0  0
 10 13  1  0  0  0  0
  2 14  1  0  0  0  0
 15 17  1  0  0  0  0
 11 16  1  0  0  0  0
  7 17  1  0  0  0  0
  6 18  1  0  0  0  0
 13 19  1  0  0  0  0
 18 20  3  0  0  0  0
 21 22  1  0  0  0  0
 19 22  2  0  0  0  0
 23 29  1  0  0  0  0
 21 23  2  0  0  0  0
 17 24  2  0  0  0  0
 19 25  1  0  0  0  0
 14 26  1  0  0  0  0
 14 27  1  0  0  0  0
 14 28  1  0  0  0  0
 25 29  2  0  0  0  0
 21 30  1  0  0  0  0
 23 31  1  0  0  0  0
 12 32  1  0  0  0  0
 16 33  1  0  0  0  0
 32 34  1  0  0  0  0
 34 35  1  0  0  0  0
 33 35  1  0  0  0  0
M  END
> <IDNUMBER>
K061-0993

> <available>
91

> <H_acceptor>
5

> <H_donor>
1

> <B_rotN>
6

> <N_O>
6

> <logP>
6.8259

> <logD>
5.1999

> <logSw>
-6.8963

> <PSA>
58.26

> <pKa_ma>
5.7844

> <pKa_mb>
1.5188

> <N_Chirals>
0

> <Name>
N-(3-cyano-4,5,6,7-tetrahydro-1-benzothiophen-2-yl)-5-(3,4-dichlorophenyl)-7-(trifluoromethyl)pyrazolo[1,5-a]pyrimidine-2-carboxamide

> <Smile>
N#Cc1c(NC(c2nn3c(C(F)(F)F)cc(-c(cc4)cc(Cl)c4Cl)nc3c2)=O)sc2c1CCCC2

> <Color>
YELLOW

> <Collection>
DC

> <InChI>
InChI=1S/C23H14Cl2F3N5OS/c24-14-6-5-11(7-15(14)25)16-8-19(23(26,27)28)33-20(30-16)9-17(32-33)21(34)31-22-13(10-29)12-3-1-2-4-18(12)35-22/h5-9H,1-4H2,(H,31,34)

> <InChI Key>
DYSOLZAYGRGFJE-UHFFFAOYSA-N

> <PERCENTSP3>
21.7

> <Link>
https://www.chemdiv.com/catalog/screening-compounds/compound-K061-0993/

> <MFCDNUMBER>
MFCD01445193

> <CLNUMBER>
CL1652

> <STEREO>
ACHIRAL

> <State>
Solid

> <Similarity score>
0.19

$$$$
2-[2-(4-amino-1,2,5-oxadiazol-3-yl)-1H-benzimidazol-1-yl]-N-(3-cyano-6-methyl-4,
  -OEChem-04222410502D

 31 35  0     0  0  0  0  0  0999 V2000
    2.3808    0.1042    0.0000 C   0  0  0  0  0  0  0  0  0  0  0  0
    1.6517    0.8041    0.0000 N   0  0  0  0  0  0  0  0  0  0  0  0
   -1.5727    0.4290    0.0000 C   0  0  0  0  0  0  0  0  0  0  0  0
   -2.5808    0.4666    0.0000 C   0  0  0  0  0  0  0  0  0  0  0  0
    2.2434   -0.8915    0.0000 C   0  0  0  0  0  0  0  0  0  0  0  0
    3.2681    0.5791    0.0000 N   0  0  0  0  0  0  0  0  0  0  0  0
   -2.9183   -0.4708    0.0000 C   0  0  0  0  0  0  0  0  0  0  0  0
   -2.1308   -1.0832    0.0000 C   0  0  0  0  0  0  0  0  0  0  0  0
   -1.3061   -0.5290    0.0000 S   0  0  0  0  0  0  0  0  0  0  0  0
    2.9682   -1.5831    0.0000 C   0  0  0  0  0  0  0  0  0  0  0  0
    2.5266   -2.4829    0.0000 N   0  0  0  0  0  0  0  0  0  0  0  0
   -0.9603    1.2082    0.0000 N   0  0  0  0  0  0  0  0  0  0  0  0
    1.3560   -1.3581    0.0000 N   0  0  0  0  0  0  0  0  0  0  0  0
    2.0934    1.7038    0.0000 C   0  0  0  0  0  0  0  0  0  0  0  0
    1.5309   -2.3454    0.0000 O   0  0  0  0  0  0  0  0  0  0  0  0
    3.0889    1.5664    0.0000 C   0  0  0  0  0  0  0  0  0  0  0  0
   -3.1349    1.2915    0.0000 C   0  0  0  0  0  0  0  0  0  0  0  0
    0.0187    1.3831    0.0000 C   0  0  0  0  0  0  0  0  0  0  0  0
    0.6686    0.6208    0.0000 C   0  0  0  0  0  0  0  0  0  0  0  0
   -2.7433    2.2205    0.0000 N   0  0  0  0  0  0  0  0  0  0  0  0
   -3.8305   -0.8457    0.0000 C   0  0  0  0  0  0  0  0  0  0  0  0
   -2.2684   -2.0580    0.0000 C   0  0  0  0  0  0  0  0  0  0  0  0
    0.3687    2.3287    0.0000 O   0  0  0  0  0  0  0  0  0  0  0  0
    3.9555   -1.4082    0.0000 N   0  0  0  0  0  0  0  0  0  0  0  0
   -3.9555   -1.8288    0.0000 C   0  0  0  0  0  0  0  0  0  0  0  0
   -3.1932   -2.4412    0.0000 C   0  0  3  0  0  0  0  0  0  0  0  0
    1.7184    2.6412    0.0000 C   0  0  0  0  0  0  0  0  0  0  0  0
    3.7056    2.3663    0.0000 C   0  0  0  0  0  0  0  0  0  0  0  0
   -3.3307   -3.4285    0.0000 C   0  0  0  0  0  0  0  0  0  0  0  0
    2.3308    3.4285    0.0000 C   0  0  0  0  0  0  0  0  0  0  0  0
    3.3307    3.2910    0.0000 C   0  0  0  0  0  0  0  0  0  0  0  0
  1  2  1  0  0  0  0
  3 12  1  0  0  0  0
  3  4  2  0  0  0  0
  1  5  1  0  0  0  0
  1  6  2  0  0  0  0
  4  7  1  0  0  0  0
  8  9  1  0  0  0  0
  7  8  2  0  0  0  0
  3  9  1  0  0  0  0
  5 10  1  0  0  0  0
 10 11  2  0  0  0  0
 12 18  1  0  0  0  0
  5 13  2  0  0  0  0
  2 14  1  0  0  0  0
 13 15  1  0  0  0  0
 11 15  1  0  0  0  0
  6 16  1  0  0  0  0
 14 16  2  0  0  0  0
  4 17  1  0  0  0  0
 18 19  1  0  0  0  0
  2 19  1  0  0  0  0
 17 20  3  0  0  0  0
  7 21  1  0  0  0  0
  8 22  1  0  0  0  0
 18 23  2  0  0  0  0
 10 24  1  0  0  0  0
 21 25  1  0  0  0  0
 25 26  1  0  0  0  0
 22 26  1  0  0  0  0
 26 29  1  0  0  0  0
 14 27  1  0  0  0  0
 16 28  1  0  0  0  0
 27 30  2  0  0  0  0
 28 31  2  0  0  0  0
 30 31  1  0  0  0  0
M  END
> <IDNUMBER>
8016-2378

> <available>
15

> <H_acceptor>
7

> <H_donor>
3

> <B_rotN>
6

> <N_O>
9

> <logP>
4.2503

> <logD>
2.8477

> <logSw>
-4.4837

> <PSA>
106.901

> <pKa_ma>
6.0149

> <pKa_mb>
3.9643

> <N_Chirals>
1

> <Name>
2-[2-(4-amino-1,2,5-oxadiazol-3-yl)-1H-benzimidazol-1-yl]-N-(3-cyano-6-methyl-4,5,6,7-tetrahydro-1-benzothiophen-2-yl)acetamide

> <Smile>
CC(CC1)Cc2c1c(C#N)c(NC(Cn1c(-c3nonc3N)nc3c1cccc3)=O)s2

> <Color>
BROWN

> <Collection>
DC

> <InChI>
InChI=1S/C21H19N7O2S/c1-11-6-7-12-13(9-22)21(31-16(12)8-11)25-17(29)10-28-15-5-3-2-4-14(15)24-20(28)18-19(23)27-30-26-18/h2-5,11H,6-8,10H2,1H3,(H2,23,27)(H,25,29)/t11-/m1/s1

> <InChI Key>
YYKQUXZJLHAVCS-LLVKDONJSA-N

> <PERCENTSP3>
28.57

> <Link>
https://www.chemdiv.com/catalog/screening-compounds/compound-8016-2378/

> <MFCDNUMBER>
MFCD05854943

> <CLNUMBER>
CL2888

> <STEREO>
RACEMIC MIXTURE

> <State>
Solid

> <Similarity score>
0.19

$$$$
N-(3-cyano-5,6-dihydro-4H-cyclopenta[b]thiophen-2-yl)-7-(difluoromethyl)-5-methy
  -OEChem-04222410502D

 26 29  0     0  0  0  0  0  0999 V2000
    2.3066   -1.0897    0.0000 C   0  0  0  0  0  0  0  0  0  0  0  0
    2.0105   -0.1147    0.0000 N   0  0  0  0  0  0  0  0  0  0  0  0
    1.4939   -1.6731    0.0000 N   0  0  0  0  0  0  0  0  0  0  0  0
    0.6813   -1.0565    0.0000 C   0  0  0  0  0  0  0  0  0  0  0  0
    1.0063   -0.1147    0.0000 N   0  0  0  0  0  0  0  0  0  0  0  0
    2.6940    0.6022    0.0000 C   0  0  0  0  0  0  0  0  0  0  0  0
   -1.9482   -0.8939    0.0000 C   0  0  0  0  0  0  0  0  0  0  0  0
   -2.6315   -0.1772    0.0000 C   0  0  0  0  0  0  0  0  0  0  0  0
   -2.3689   -1.7689    0.0000 S   0  0  0  0  0  0  0  0  0  0  0  0
    3.2774   -1.2814    0.0000 N   0  0  0  0  0  0  0  0  0  0  0  0
   -3.5065   -0.6313    0.0000 C   0  0  0  0  0  0  0  0  0  0  0  0
   -1.0062   -0.6313    0.0000 N   0  0  0  0  0  0  0  0  0  0  0  0
   -0.2939   -1.3480    0.0000 C   0  0  0  0  0  0  0  0  0  0  0  0
   -3.3775   -1.6065    0.0000 C   0  0  0  0  0  0  0  0  0  0  0  0
    3.6358    0.3728    0.0000 C   0  0  0  0  0  0  0  0  0  0  0  0
   -2.4982    0.8271    0.0000 C   0  0  0  0  0  0  0  0  0  0  0  0
    3.9607   -0.5354    0.0000 C   0  0  0  0  0  0  0  0  0  0  0  0
    2.4357    1.6063    0.0000 C   0  0  0  0  0  0  0  0  0  0  0  0
   -2.3689    1.8357    0.0000 N   0  0  0  0  0  0  0  0  0  0  0  0
   -0.5522   -2.2898    0.0000 O   0  0  0  0  0  0  0  0  0  0  0  0
    3.1481    2.2898    0.0000 F   0  0  0  0  0  0  0  0  0  0  0  0
    1.4606    1.8980    0.0000 F   0  0  0  0  0  0  0  0  0  0  0  0
   -4.5109   -0.4397    0.0000 C   0  0  0  0  0  0  0  0  0  0  0  0
   -4.3025   -2.0273    0.0000 C   0  0  0  0  0  0  0  0  0  0  0  0
   -4.9650   -1.3146    0.0000 C   0  0  0  0  0  0  0  0  0  0  0  0
    4.9650   -0.7648    0.0000 C   0  0  0  0  0  0  0  0  0  0  0  0
  1  2  1  0  0  0  0
  1  3  2  0  0  0  0
  3  4  1  0  0  0  0
  4  5  2  0  0  0  0
  2  5  1  0  0  0  0
  2  6  1  0  0  0  0
  7 12  1  0  0  0  0
  7  8  2  0  0  0  0
  7  9  1  0  0  0  0
  1 10  1  0  0  0  0
  8 11  1  0  0  0  0
 12 13  1  0  0  0  0
  4 13  1  0  0  0  0
  9 14  1  0  0  0  0
 11 14  2  0  0  0  0
 15 17  1  0  0  0  0
  6 15  2  0  0  0  0
  8 16  1  0  0  0  0
 10 17  2  0  0  0  0
  6 18  1  0  0  0  0
 16 19  3  0  0  0  0
 13 20  2  0  0  0  0
 18 21  1  0  0  0  0
 18 22  1  0  0  0  0
 11 23  1  0  0  0  0
 23 25  1  0  0  0  0
 14 24  1  0  0  0  0
 24 25  1  0  0  0  0
 17 26  1  0  0  0  0
M  END
> <IDNUMBER>
Y500-7655

> <available>
22

> <H_acceptor>
6

> <H_donor>
1

> <B_rotN>
5

> <N_O>
7

> <logP>
2.1039

> <logD>
0.2395

> <logSw>
-2.7387

> <PSA>
70.087

> <pKa_ma>
5.5416

> <pKa_mb>
-0.1968

> <N_Chirals>
0

> <Name>
N-(3-cyano-5,6-dihydro-4H-cyclopenta[b]thiophen-2-yl)-7-(difluoromethyl)-5-methyl[1,2,4]triazolo[1,5-a]pyrimidine-2-carboxamide

> <Smile>
Cc1nc2nc(C(Nc(sc3c4CCC3)c4C#N)=O)nn2c(C(F)F)c1

> <Color>
BROWN

> <Collection>
DC

> <InChI>
InChI=1S/C16H12F2N6OS/c1-7-5-10(12(17)18)24-16(20-7)21-13(23-24)14(25)22-15-9(6-19)8-3-2-4-11(8)26-15/h5,12H,2-4H2,1H3,(H,22,25)

> <InChI Key>
NVAZKDAOFALFAP-UHFFFAOYSA-N

> <PERCENTSP3>
31.25

> <Link>
https://www.chemdiv.com/catalog/screening-compounds/compound-Y500-7655/

> <MFCDNUMBER>
MFCD02175703

> <STEREO>
ACHIRAL

> <State>
Solid

> <Similarity score>
0.19

$$$$
N-(3-carbamoyl-4,5,6,7-tetrahydro-1-benzothiophen-2-yl)-1-(4-ethoxyphenyl)-4-oxo
  -OEChem-04222410502D

 32 35  0     0  0  0  0  0  0999 V2000
   -2.0837   -0.8764    0.0000 C   0  0  0  0  0  0  0  0  0  0  0  0
   -2.6747   -0.0633    0.0000 C   0  0  0  0  0  0  0  0  0  0  0  0
    0.9017   -0.8818    0.0000 N   0  0  0  0  0  0  0  0  0  0  0  0
    0.4117   -1.7455    0.0000 C   0  0  0  0  0  0  0  0  0  0  0  0
   -2.6799   -1.6849    0.0000 S   0  0  0  0  0  0  0  0  0  0  0  0
    1.9022   -0.8818    0.0000 N   0  0  0  0  0  0  0  0  0  0  0  0
   -3.6194   -0.3665    0.0000 C   0  0  0  0  0  0  0  0  0  0  0  0
   -0.5835   -1.7557    0.0000 C   0  0  0  0  0  0  0  0  0  0  0  0
   -1.0837   -0.8818    0.0000 N   0  0  0  0  0  0  0  0  0  0  0  0
   -3.6295   -1.3666    0.0000 C   0  0  0  0  0  0  0  0  0  0  0  0
   -2.3618    0.8915    0.0000 C   0  0  0  0  0  0  0  0  0  0  0  0
    0.9119   -2.5941    0.0000 C   0  0  0  0  0  0  0  0  0  0  0  0
    1.9022   -2.5941    0.0000 C   0  0  0  0  0  0  0  0  0  0  0  0
    2.4021   -1.7405    0.0000 C   0  0  0  0  0  0  0  0  0  0  0  0
    2.3869   -0.0177    0.0000 C   0  0  0  0  0  0  0  0  0  0  0  0
   -1.1289   -2.6650    0.0000 O   0  0  0  0  0  0  0  0  0  0  0  0
   -3.0284    1.6340    0.0000 O   0  0  0  0  0  0  0  0  0  0  0  0
    0.4170   -3.4681    0.0000 O   0  0  0  0  0  0  0  0  0  0  0  0
    3.3822   -0.0177    0.0000 C   0  0  0  0  0  0  0  0  0  0  0  0
    1.8818    0.8460    0.0000 C   0  0  0  0  0  0  0  0  0  0  0  0
   -1.3864    1.0934    0.0000 N   0  0  0  0  0  0  0  0  0  0  0  0
    3.3720    1.7150    0.0000 C   0  0  0  0  0  0  0  0  0  0  0  0
   -4.4783    0.1338    0.0000 C   0  0  0  0  0  0  0  0  0  0  0  0
    2.3718    1.7097    0.0000 C   0  0  0  0  0  0  0  0  0  0  0  0
    3.8823    0.8460    0.0000 C   0  0  0  0  0  0  0  0  0  0  0  0
   -4.4933   -1.8615    0.0000 C   0  0  0  0  0  0  0  0  0  0  0  0
    3.8669    2.5888    0.0000 O   0  0  0  0  0  0  0  0  0  0  0  0
    4.8674    2.5938    0.0000 C   0  0  0  0  0  0  0  0  0  0  0  0
   -5.3472   -0.3514    0.0000 C   0  0  0  0  0  0  0  0  0  0  0  0
   -5.3574   -1.3514    0.0000 C   0  0  0  0  0  0  0  0  0  0  0  0
    5.3574    3.4681    0.0000 C   0  0  0  0  0  0  0  0  0  0  0  0
   -0.5835   -0.0177    0.0000 H   0  0  0  0  0  0  0  0  0  0  0  0
  1  2  2  0  0  0  0
  3  4  2  0  0  0  0
  4  8  1  0  0  0  0
  1  5  1  0  0  0  0
  3  6  1  0  0  0  0
  6 14  1  0  0  0  0
  2  7  1  0  0  0  0
  8  9  1  0  0  0  0
  1  9  1  0  0  0  0
  5 10  1  0  0  0  0
  7 10  2  0  0  0  0
  2 11  1  0  0  0  0
  4 12  1  0  0  0  0
 12 13  1  0  0  0  0
 13 14  2  0  0  0  0
  6 15  1  0  0  0  0
  8 16  2  0  0  0  0
 11 17  2  0  0  0  0
 12 18  2  0  0  0  0
 15 19  1  0  0  0  0
 15 20  2  0  0  0  0
 11 21  1  0  0  0  0
 22 24  2  0  0  0  0
 22 25  1  0  0  0  0
  7 23  1  0  0  0  0
 20 24  1  0  0  0  0
 19 25  2  0  0  0  0
 10 26  1  0  0  0  0
 22 27  1  0  0  0  0
 27 28  1  0  0  0  0
 23 29  1  0  0  0  0
 29 30  1  0  0  0  0
 26 30  1  0  0  0  0
 28 31  1  0  0  0  0
  9 32  1  0  0  0  0
M  END
> <IDNUMBER>
D223-0764

> <available>
35

> <H_acceptor>
8

> <H_donor>
3

> <B_rotN>
7

> <N_O>
8

> <logP>
2.2029

> <logD>
-1.2395

> <logSw>
-2.8413

> <PSA>
90.637

> <pKa_ma>
3.9578

> <pKa_mb>
-3.4141

> <N_Chirals>
0

> <Name>
N-(3-carbamoyl-4,5,6,7-tetrahydro-1-benzothiophen-2-yl)-1-(4-ethoxyphenyl)-4-oxo-1,4-dihydropyridazine-3-carboxamide

> <Smile>
CCOc(cc1)ccc1N(C=C1)N=C(C(Nc2c(C(N)=O)c(CCCC3)c3s2)=O)C1=O

> <Color>
BROWN

> <Collection>
DC

> <InChI>
InChI=1S/C22H22N4O4S/c1-2-30-14-9-7-13(8-10-14)26-12-11-16(27)19(25-26)21(29)24-22-18(20(23)28)15-5-3-4-6-17(15)31-22/h7-12H,2-6H2,1H3,(H2,23,28)(H,24,29)

> <InChI Key>
PLECXXNZQXENIH-UHFFFAOYSA-N

> <PERCENTSP3>
27.3

> <Link>
https://www.chemdiv.com/catalog/screening-compounds/compound-D223-0764/

> <MFCDNUMBER>
MFCD08545724

> <CLNUMBER>
CL6185

> <STEREO>
ACHIRAL

> <State>
Solid

> <Similarity score>
0.19

$$$$
N-[(3-cyano-5,6,7,8-tetrahydro-4H-cyclohepta[b]thiophen-2-yl)carbamothioyl]-5-me
  -OEChem-04222410502D

 30 33  0     0  0  0  0  0  0999 V2000
   -0.9445    1.2925    0.0000 C   0  0  0  0  0  0  0  0  0  0  0  0
   -1.4574    2.1557    0.0000 C   0  0  0  0  0  0  0  0  0  0  0  0
    3.1083   -0.3711    0.0000 C   0  0  0  0  0  0  0  0  0  0  0  0
    2.1036   -0.3962    0.0000 C   0  0  0  0  0  0  0  0  0  0  0  0
    4.6720   -0.8340    0.0000 N   0  0  0  0  0  0  0  0  0  0  0  0
   -1.6075    0.5420    0.0000 S   0  0  0  0  0  0  0  0  0  0  0  0
    3.7338   -1.1717    0.0000 C   0  0  0  0  0  0  0  0  0  0  0  0
   -2.4329    1.9221    0.0000 C   0  0  0  0  0  0  0  0  0  0  0  0
    0.0562    1.3049    0.0000 N   0  0  0  0  0  0  0  0  0  0  0  0
    1.5823    0.4545    0.0000 N   0  0  0  0  0  0  0  0  0  0  0  0
    0.5817    0.4419    0.0000 C   0  0  0  0  0  0  0  0  0  0  0  0
   -2.5246    0.9297    0.0000 C   0  0  0  0  0  0  0  0  0  0  0  0
    4.6428    0.1584    0.0000 O   0  0  0  0  0  0  0  0  0  0  0  0
    3.6837    0.4419    0.0000 C   0  0  0  0  0  0  0  0  0  0  0  0
   -1.0737    3.0772    0.0000 C   0  0  0  0  0  0  0  0  0  0  0  0
   -0.6817    3.9986    0.0000 N   0  0  0  0  0  0  0  0  0  0  0  0
    0.0895   -0.4295    0.0000 S   0  0  0  0  0  0  0  0  0  0  0  0
    1.6282   -1.2717    0.0000 O   0  0  0  0  0  0  0  0  0  0  0  0
    3.4168   -2.1098    0.0000 C   0  0  0  0  0  0  0  0  0  0  0  0
   -3.1708    2.6184    0.0000 C   0  0  0  0  0  0  0  0  0  0  0  0
   -3.3586    0.3711    0.0000 C   0  0  0  0  0  0  0  0  0  0  0  0
    3.3544    1.3969    0.0000 C   0  0  0  0  0  0  0  0  0  0  0  0
    2.4454   -2.3226    0.0000 C   0  0  0  0  0  0  0  0  0  0  0  0
    4.0924   -2.8562    0.0000 C   0  0  0  0  0  0  0  0  0  0  0  0
   -4.1592    2.4725    0.0000 C   0  0  0  0  0  0  0  0  0  0  0  0
   -4.3092    0.6839    0.0000 C   0  0  0  0  0  0  0  0  0  0  0  0
    3.7796   -3.7985    0.0000 C   0  0  0  0  0  0  0  0  0  0  0  0
    2.1452   -3.2730    0.0000 C   0  0  0  0  0  0  0  0  0  0  0  0
   -4.6720    1.6053    0.0000 C   0  0  0  0  0  0  0  0  0  0  0  0
    2.7958   -3.9986    0.0000 C   0  0  0  0  0  0  0  0  0  0  0  0
  1  2  2  0  0  0  0
  3  4  1  0  0  0  0
  4 10  1  0  0  0  0
  5  7  2  0  0  0  0
  1  6  1  0  0  0  0
  3  7  1  0  0  0  0
  2  8  1  0  0  0  0
  1  9  1  0  0  0  0
 10 11  1  0  0  0  0
  9 11  1  0  0  0  0
  6 12  1  0  0  0  0
  8 12  2  0  0  0  0
 13 14  1  0  0  0  0
  5 13  1  0  0  0  0
  3 14  2  0  0  0  0
  2 15  1  0  0  0  0
 15 16  3  0  0  0  0
 11 17  2  0  0  0  0
  4 18  2  0  0  0  0
  7 19  1  0  0  0  0
  8 20  1  0  0  0  0
 12 21  1  0  0  0  0
 14 22  1  0  0  0  0
 19 23  2  0  0  0  0
 19 24  1  0  0  0  0
 20 25  1  0  0  0  0
 21 26  1  0  0  0  0
 24 27  2  0  0  0  0
 23 28  1  0  0  0  0
 26 29  1  0  0  0  0
 25 29  1  0  0  0  0
 27 30  1  0  0  0  0
 28 30  2  0  0  0  0
M  END
> <IDNUMBER>
Y512-4165

> <available>
87

> <H_acceptor>
7

> <H_donor>
2

> <B_rotN>
7

> <N_O>
6

> <logP>
4.905

> <logD>
4.558

> <logSw>
-4.702

> <PSA>
72.3

> <pKa_ma>
7.313

> <pKa_mb>
-6.868

> <N_Chirals>
0

> <Name>
N-[(3-cyano-5,6,7,8-tetrahydro-4H-cyclohepta[b]thiophen-2-yl)carbamothioyl]-5-methyl-3-phenyl-1,2-oxazole-4-carboxamide

> <Smile>
c1(c(c2c(s1)CCCCC2)C#N)NC(NC(c1c(noc1C)c1ccccc1)=O)=S

> <Color>
ORANGE

> <Collection>
DC

> <InChI>
InChI=1S/C22H20N4O2S2/c1-13-18(19(26-28-13)14-8-4-2-5-9-14)20(27)24-22(29)25-21-16(12-23)15-10-6-3-7-11-17(15)30-21/h2,4-5,8-9H,3,6-7,10-11H2,1H3,(H2,24,25,27,29)

> <InChI Key>
MBGSVWZLCYMILA-UHFFFAOYSA-N

> <PERCENTSP3>
27.3

> <Link>
https://www.chemdiv.com/catalog/screening-compounds/compound-Y512-4165/

> <MFCDNUMBER>
MFCD03680033

> <STEREO>
ACHIRAL

> <State>
Solid

> <Similarity score>
0.19

$$$$
N-[(3-cyano-4,5,6,7,8,9-hexahydrocycloocta[b]thiophen-2-yl)carbamothioyl]-5-meth
  -OEChem-04222410502D

 31 34  0     0  0  0  0  0  0999 V2000
   -0.8146    1.2773    0.0000 C   0  0  0  0  0  0  0  0  0  0  0  0
   -1.3356    2.1231    0.0000 C   0  0  0  0  0  0  0  0  0  0  0  0
    3.2484   -0.3605    0.0000 C   0  0  0  0  0  0  0  0  0  0  0  0
    2.2400   -0.3647    0.0000 C   0  0  0  0  0  0  0  0  0  0  0  0
    4.7902   -0.7854    0.0000 N   0  0  0  0  0  0  0  0  0  0  0  0
   -1.4564    0.5272    0.0000 S   0  0  0  0  0  0  0  0  0  0  0  0
    3.8777   -1.1482    0.0000 C   0  0  0  0  0  0  0  0  0  0  0  0
   -2.3063    1.9064    0.0000 C   0  0  0  0  0  0  0  0  0  0  0  0
    0.1814    1.3148    0.0000 N   0  0  0  0  0  0  0  0  0  0  0  0
    1.7023    0.4813    0.0000 N   0  0  0  0  0  0  0  0  0  0  0  0
    0.7272    0.4521    0.0000 C   0  0  0  0  0  0  0  0  0  0  0  0
   -2.3691    0.9104    0.0000 C   0  0  0  0  0  0  0  0  0  0  0  0
    4.7610    0.2105    0.0000 O   0  0  0  0  0  0  0  0  0  0  0  0
    3.8193    0.4855    0.0000 C   0  0  0  0  0  0  0  0  0  0  0  0
   -0.9688    3.0734    0.0000 C   0  0  0  0  0  0  0  0  0  0  0  0
   -0.5730    3.9985    0.0000 N   0  0  0  0  0  0  0  0  0  0  0  0
    0.2397   -0.4229    0.0000 S   0  0  0  0  0  0  0  0  0  0  0  0
    1.7606   -1.2690    0.0000 O   0  0  0  0  0  0  0  0  0  0  0  0
    3.5819   -2.0773    0.0000 C   0  0  0  0  0  0  0  0  0  0  0  0
   -2.9734    2.6650    0.0000 C   0  0  0  0  0  0  0  0  0  0  0  0
   -3.1482    0.2439    0.0000 C   0  0  0  0  0  0  0  0  0  0  0  0
    3.4734    1.4356    0.0000 C   0  0  0  0  0  0  0  0  0  0  0  0
    2.6108   -2.3066    0.0000 C   0  0  0  0  0  0  0  0  0  0  0  0
    4.2610   -2.7900    0.0000 C   0  0  0  0  0  0  0  0  0  0  0  0
   -3.9691    2.7316    0.0000 C   0  0  0  0  0  0  0  0  0  0  0  0
   -4.1235    0.3313    0.0000 C   0  0  0  0  0  0  0  0  0  0  0  0
    3.9985   -3.7567    0.0000 C   0  0  0  0  0  0  0  0  0  0  0  0
    2.3357   -3.2734    0.0000 C   0  0  0  0  0  0  0  0  0  0  0  0
   -4.7902    1.0898    0.0000 C   0  0  0  0  0  0  0  0  0  0  0  0
    3.0026   -3.9985    0.0000 C   0  0  0  0  0  0  0  0  0  0  0  0
   -4.7278    2.0649    0.0000 C   0  0  0  0  0  0  0  0  0  0  0  0
  1  2  2  0  0  0  0
  3  4  1  0  0  0  0
  4 10  1  0  0  0  0
  5  7  2  0  0  0  0
  5 13  1  0  0  0  0
  1  6  1  0  0  0  0
  3  7  1  0  0  0  0
  2  8  1  0  0  0  0
  8 12  2  0  0  0  0
  1  9  1  0  0  0  0
 10 11  1  0  0  0  0
  9 11  1  0  0  0  0
  6 12  1  0  0  0  0
 13 14  1  0  0  0  0
  3 14  2  0  0  0  0
  2 15  1  0  0  0  0
 15 16  3  0  0  0  0
 11 17  2  0  0  0  0
  4 18  2  0  0  0  0
  7 19  1  0  0  0  0
  8 20  1  0  0  0  0
 12 21  1  0  0  0  0
 14 22  1  0  0  0  0
 19 23  2  0  0  0  0
 19 24  1  0  0  0  0
 20 25  1  0  0  0  0
 21 26  1  0  0  0  0
 24 27  2  0  0  0  0
 23 28  1  0  0  0  0
 28 30  2  0  0  0  0
 26 29  1  0  0  0  0
 29 31  1  0  0  0  0
 27 30  1  0  0  0  0
 25 31  1  0  0  0  0
M  END
> <IDNUMBER>
IB03-2476

> <available>
50

> <H_acceptor>
7

> <H_donor>
2

> <B_rotN>
7

> <N_O>
6

> <logP>
5.4

> <logD>
5.05

> <logSw>
-6.27

> <PSA>
204.3

> <pKa_ma>
7.31

> <pKa_mb>
0

> <N_Chirals>
0

> <Name>
N-[(3-cyano-4,5,6,7,8,9-hexahydrocycloocta[b]thiophen-2-yl)carbamothioyl]-5-methyl-3-phenyl-1,2-oxazole-4-carboxamide

> <Smile>
Cc1c(C(NC(Nc(sc2c3CCCCCC2)c3C#N)=S)=O)c(-c2ccccc2)no1

> <Color>
NOT COLORED

> <Collection>
DC

> <InChI>
InChI=1S/C23H22N4O2S2/c1-14-19(20(27-29-14)15-9-5-4-6-10-15)21(28)25-23(30)26-22-17(13-24)16-11-7-2-3-8-12-18(16)31-22/h4-6,9-10H,2-3,7-8,11-12H2,1H3,(H2,25,26,28,30)

> <InChI Key>
GHKNWBGJBNDAGC-UHFFFAOYSA-N

> <PERCENTSP3>
30.4

> <Link>
https://www.chemdiv.com/catalog/screening-compounds/compound-IB03-2476/

> <STEREO>
ACHIRAL

> <State>
Solid

> <Similarity score>
0.19

$$$$
N-(3-cyano-5,6,7,8-tetrahydro-4H-cyclohepta[b]thiophen-2-yl)-5-(3,4-dichlorophen
  -OEChem-04222410502D

 36 40  0     0  0  0  0  0  0999 V2000
    1.2528   -0.0319    0.0000 N   0  0  0  0  0  0  0  0  0  0  0  0
    2.0918    0.4811    0.0000 C   0  0  0  0  0  0  0  0  0  0  0  0
    1.2528   -1.0365    0.0000 C   0  0  0  0  0  0  0  0  0  0  0  0
   -2.7811    0.3046    0.0000 C   0  0  0  0  0  0  0  0  0  0  0  0
    0.2751    0.2727    0.0000 N   0  0  0  0  0  0  0  0  0  0  0  0
   -3.2622    1.1701    0.0000 C   0  0  0  0  0  0  0  0  0  0  0  0
   -0.2806   -0.5449    0.0000 C   0  0  0  0  0  0  0  0  0  0  0  0
    0.2751   -1.3145    0.0000 C   0  0  0  0  0  0  0  0  0  0  0  0
    2.0918   -1.5229    0.0000 N   0  0  0  0  0  0  0  0  0  0  0  0
    2.9843   -0.0319    0.0000 C   0  0  0  0  0  0  0  0  0  0  0  0
   -3.4437   -0.4168    0.0000 S   0  0  0  0  0  0  0  0  0  0  0  0
   -4.2399    0.9672    0.0000 C   0  0  0  0  0  0  0  0  0  0  0  0
    2.9843   -1.0365    0.0000 C   0  0  0  0  0  0  0  0  0  0  0  0
    2.0918    1.4909    0.0000 C   0  0  0  0  0  0  0  0  0  0  0  0
   -1.7767    0.3046    0.0000 N   0  0  0  0  0  0  0  0  0  0  0  0
   -4.3416   -0.0105    0.0000 C   0  0  0  0  0  0  0  0  0  0  0  0
   -1.2904   -0.5449    0.0000 C   0  0  0  0  0  0  0  0  0  0  0  0
   -2.8775    2.1054    0.0000 C   0  0  0  0  0  0  0  0  0  0  0  0
    3.8393   -1.5229    0.0000 C   0  0  0  0  0  0  0  0  0  0  0  0
   -2.4927    3.0619    0.0000 N   0  0  0  0  0  0  0  0  0  0  0  0
    5.5705   -1.5229    0.0000 C   0  0  0  0  0  0  0  0  0  0  0  0
    4.7155   -1.0365    0.0000 C   0  0  0  0  0  0  0  0  0  0  0  0
    5.5705   -2.5327    0.0000 C   0  0  0  0  0  0  0  0  0  0  0  0
   -1.7767   -1.4212    0.0000 O   0  0  0  0  0  0  0  0  0  0  0  0
    3.8393   -2.5327    0.0000 C   0  0  0  0  0  0  0  0  0  0  0  0
    2.0918    2.5008    0.0000 F   0  0  0  0  0  0  0  0  0  0  0  0
    3.1017    1.4909    0.0000 F   0  0  0  0  0  0  0  0  0  0  0  0
    1.0982    1.4909    0.0000 F   0  0  0  0  0  0  0  0  0  0  0  0
    4.7155   -3.0619    0.0000 C   0  0  0  0  0  0  0  0  0  0  0  0
    6.4682   -1.0365    0.0000 Cl  0  0  0  0  0  0  0  0  0  0  0  0
    6.4682   -3.0619    0.0000 Cl  0  0  0  0  0  0  0  0  0  0  0  0
   -4.9667    1.6567    0.0000 C   0  0  0  0  0  0  0  0  0  0  0  0
   -5.1859   -0.5449    0.0000 C   0  0  0  0  0  0  0  0  0  0  0  0
   -5.9285    1.5231    0.0000 C   0  0  0  0  0  0  0  0  0  0  0  0
   -6.1155   -0.2403    0.0000 C   0  0  0  0  0  0  0  0  0  0  0  0
   -6.4682    0.6573    0.0000 C   0  0  0  0  0  0  0  0  0  0  0  0
  1  2  1  0  0  0  0
  1  3  1  0  0  0  0
  4 15  1  0  0  0  0
  1  5  1  0  0  0  0
  4  6  2  0  0  0  0
  5  7  2  0  0  0  0
  3  8  2  0  0  0  0
  7  8  1  0  0  0  0
  3  9  1  0  0  0  0
  2 10  2  0  0  0  0
  4 11  1  0  0  0  0
  6 12  1  0  0  0  0
 12 16  2  0  0  0  0
  9 13  2  0  0  0  0
 10 13  1  0  0  0  0
  2 14  1  0  0  0  0
 15 17  1  0  0  0  0
 11 16  1  0  0  0  0
  7 17  1  0  0  0  0
  6 18  1  0  0  0  0
 13 19  1  0  0  0  0
 18 20  3  0  0  0  0
 21 22  1  0  0  0  0
 19 22  2  0  0  0  0
 23 29  1  0  0  0  0
 21 23  2  0  0  0  0
 17 24  2  0  0  0  0
 19 25  1  0  0  0  0
 14 26  1  0  0  0  0
 14 27  1  0  0  0  0
 14 28  1  0  0  0  0
 25 29  2  0  0  0  0
 21 30  1  0  0  0  0
 23 31  1  0  0  0  0
 12 32  1  0  0  0  0
 16 33  1  0  0  0  0
 32 34  1  0  0  0  0
 34 36  1  0  0  0  0
 33 35  1  0  0  0  0
 35 36  1  0  0  0  0
M  END
> <IDNUMBER>
K061-0994

> <available>
55

> <H_acceptor>
5

> <H_donor>
1

> <B_rotN>
6

> <N_O>
6

> <logP>
7.3218

> <logD>
5.6958

> <logSw>
-6.9631

> <PSA>
58.591

> <pKa_ma>
5.7844

> <pKa_mb>
1.5188

> <N_Chirals>
0

> <Name>
N-(3-cyano-5,6,7,8-tetrahydro-4H-cyclohepta[b]thiophen-2-yl)-5-(3,4-dichlorophenyl)-7-(trifluoromethyl)pyrazolo[1,5-a]pyrimidine-2-carboxamide

> <Smile>
N#Cc1c(NC(c2nn3c(C(F)(F)F)cc(-c(cc4)cc(Cl)c4Cl)nc3c2)=O)sc2c1CCCCC2

> <Color>
YELLOW

> <Collection>
DC

> <InChI>
InChI=1S/C24H16Cl2F3N5OS/c25-15-7-6-12(8-16(15)26)17-9-20(24(27,28)29)34-21(31-17)10-18(33-34)22(35)32-23-14(11-30)13-4-2-1-3-5-19(13)36-23/h6-10H,1-5H2,(H,32,35)

> <InChI Key>
WPRFDMHOHYLEAH-UHFFFAOYSA-N

> <PERCENTSP3>
25

> <Link>
https://www.chemdiv.com/catalog/screening-compounds/compound-K061-0994/

> <MFCDNUMBER>
MFCD01445194

> <CLNUMBER>
CL1652

> <STEREO>
ACHIRAL

> <State>
Solid

> <Similarity score>
0.19

$$$$
1-(3-methylphenyl)-4-oxo-N-(3-{[(oxolan-2-yl)methyl]carbamoyl}-5,6-dihydro-4H-cy
  -OEChem-04222410502D

 35 39  0     0  0  0  0  0  0999 V2000
   -2.1248   -1.1612    0.0000 C   0  0  0  0  0  0  0  0  0  0  0  0
   -2.2208   -0.1616    0.0000 C   0  0  0  0  0  0  0  0  0  0  0  0
    0.4796   -2.7356    0.0000 N   0  0  0  0  0  0  0  0  0  0  0  0
   -0.4039   -3.2001    0.0000 C   0  0  0  0  0  0  0  0  0  0  0  0
    1.3224   -3.2658    0.0000 N   0  0  0  0  0  0  0  0  0  0  0  0
   -3.0234   -1.5697    0.0000 S   0  0  0  0  0  0  0  0  0  0  0  0
   -3.2000    0.0404    0.0000 C   0  0  0  0  0  0  0  0  0  0  0  0
   -1.2466   -2.6600    0.0000 C   0  0  0  0  0  0  0  0  0  0  0  0
   -1.2466   -1.6606    0.0000 N   0  0  0  0  0  0  0  0  0  0  0  0
   -3.6997   -0.8226    0.0000 C   0  0  0  0  0  0  0  0  0  0  0  0
   -1.4737    0.4897    0.0000 C   0  0  0  0  0  0  0  0  0  0  0  0
   -0.4440   -4.1892    0.0000 C   0  0  0  0  0  0  0  0  0  0  0  0
    0.4039   -4.7294    0.0000 C   0  0  0  0  0  0  0  0  0  0  0  0
    1.2822   -4.2652    0.0000 C   0  0  0  0  0  0  0  0  0  0  0  0
    2.2008   -2.8063    0.0000 C   0  0  0  0  0  0  0  0  0  0  0  0
   -1.6758    1.4636    0.0000 N   0  0  0  0  0  0  0  0  0  0  0  0
   -2.0945   -3.1900    0.0000 O   0  0  0  0  0  0  0  0  0  0  0  0
   -0.5351    0.1716    0.0000 O   0  0  0  0  0  0  0  0  0  0  0  0
    3.0387   -3.3413    0.0000 C   0  0  0  0  0  0  0  0  0  0  0  0
   -1.3274   -4.6588    0.0000 O   0  0  0  0  0  0  0  0  0  0  0  0
   -0.1714    3.7755    0.0000 O   0  0  0  0  0  0  0  0  0  0  0  0
   -0.9740    2.1755    0.0000 C   0  0  0  0  0  0  0  0  0  0  0  0
   -3.8813    0.7923    0.0000 C   0  0  0  0  0  0  0  0  0  0  0  0
   -4.6839   -0.6106    0.0000 C   0  0  0  0  0  0  0  0  0  0  0  0
    3.9320   -2.8720    0.0000 C   0  0  0  0  0  0  0  0  0  0  0  0
   -0.9740    3.1749    0.0000 C   0  0  3  0  0  0  0  0  0  0  0  0
    2.2361   -1.7969    0.0000 C   0  0  0  0  0  0  0  0  0  0  0  0
   -4.7747    0.3838    0.0000 C   0  0  0  0  0  0  0  0  0  0  0  0
    3.1243   -1.3275    0.0000 C   0  0  0  0  0  0  0  0  0  0  0  0
   -0.4896    4.7294    0.0000 C   0  0  0  0  0  0  0  0  0  0  0  0
    3.9721   -1.8724    0.0000 C   0  0  0  0  0  0  0  0  0  0  0  0
    4.7747   -3.4171    0.0000 C   0  0  0  0  0  0  0  0  0  0  0  0
   -1.7919    3.7602    0.0000 C   0  0  0  0  0  0  0  0  0  0  0  0
   -1.4890    4.7141    0.0000 C   0  0  0  0  0  0  0  0  0  0  0  0
   -0.3835   -1.1612    0.0000 H   0  0  0  0  0  0  0  0  0  0  0  0
  1  2  2  0  0  0  0
  3  4  2  0  0  0  0
  4  8  1  0  0  0  0
  3  5  1  0  0  0  0
  5 14  1  0  0  0  0
  1  6  1  0  0  0  0
  2  7  1  0  0  0  0
  7 10  2  0  0  0  0
  8  9  1  0  0  0  0
  1  9  1  0  0  0  0
  6 10  1  0  0  0  0
  2 11  1  0  0  0  0
  4 12  1  0  0  0  0
 12 13  1  0  0  0  0
 13 14  2  0  0  0  0
  5 15  1  0  0  0  0
 11 16  1  0  0  0  0
  8 17  2  0  0  0  0
 11 18  2  0  0  0  0
 15 19  1  0  0  0  0
 12 20  2  0  0  0  0
 21 26  1  0  0  0  0
 16 22  1  0  0  0  0
  7 23  1  0  0  0  0
 23 28  1  0  0  0  0
 10 24  1  0  0  0  0
 19 25  2  0  0  0  0
 22 26  1  0  0  0  0
 15 27  2  0  0  0  0
 24 28  1  0  0  0  0
 27 29  1  0  0  0  0
 21 30  1  0  0  0  0
 30 34  1  0  0  0  0
 29 31  2  0  0  0  0
 25 31  1  0  0  0  0
 25 32  1  0  0  0  0
 26 33  1  0  0  0  0
 33 34  1  0  0  0  0
  9 35  1  0  0  0  0
M  END
> <IDNUMBER>
D223-0622

> <available>
108

> <H_acceptor>
8

> <H_donor>
2

> <B_rotN>
8

> <N_O>
8

> <logP>
3.0286

> <logD>
-0.9723

> <logSw>
-3.3838

> <PSA>
82.889

> <pKa_ma>
3.3991

> <pKa_mb>
-0.4577

> <N_Chirals>
1

> <Name>
1-(3-methylphenyl)-4-oxo-N-(3-{[(oxolan-2-yl)methyl]carbamoyl}-5,6-dihydro-4H-cyclopenta[b]thiophen-2-yl)-1,4-dihydropyridazine-3-carboxamide

> <Smile>
Cc1cccc(N(C=C2)N=C(C(Nc3c(C(NCC4OCCC4)=O)c(CCC4)c4s3)=O)C2=O)c1

> <Color>
ORANGE

> <Collection>
DC

> <InChI>
InChI=1S/C25H26N4O4S/c1-15-5-2-6-16(13-15)29-11-10-19(30)22(28-29)24(32)27-25-21(18-8-3-9-20(18)34-25)23(31)26-14-17-7-4-12-33-17/h2,5-6,10-11,13,17H,3-4,7-9,12,14H2,1H3,(H,26,31)(H,27,32)/t17-/m1/s1

> <InChI Key>
USASOXQZUKQIDO-QGZVFWFLSA-N

> <PERCENTSP3>
36

> <Link>
https://www.chemdiv.com/catalog/screening-compounds/compound-D223-0622/

> <MFCDNUMBER>
MFCD07428149

> <CLNUMBER>
CL6185

> <STEREO>
RACEMIC MIXTURE

> <State>
Solid

> <Similarity score>
0.19

$$$$
