
  -OEChem-04222410502D

 33 37  0     0  0  0  0  0  0999 V2000
    8.6875   -5.5000    0.0000 C   0  0  0  0  0  0  0  0  0  0  0  0
    8.0125   -5.9750    0.0000 N   0  0  3  0  0  0  0  0  0  0  0  0
    8.7000   -4.6750    0.0000 C   0  0  0  0  0  0  0  0  0  0  0  0
    9.4750   -5.7667    0.0000 S   0  0  0  0  0  0  0  0  0  0  0  0
    4.6417   -7.0917    0.0000 C   0  0  0  0  0  0  0  0  0  0  0  0
    6.7292   -6.3875    0.0000 C   0  0  0  0  0  0  0  0  0  0  0  0
    4.1542   -6.4125    0.0000 N   0  0  0  0  0  0  0  0  0  0  0  0
    5.4750   -7.1042    0.0000 C   0  0  0  0  0  0  0  0  0  0  0  0
    8.0000   -6.8042    0.0000 C   0  0  0  0  0  0  0  0  0  0  0  0
    7.2292   -5.7125    0.0000 C   0  0  0  0  0  0  0  0  0  0  0  0
    9.4750   -4.4250    0.0000 C   0  0  0  0  0  0  0  0  0  0  0  0
    9.9542   -5.1042    0.0000 C   0  0  0  0  0  0  0  0  0  0  0  0
    4.1542   -7.7625    0.0000 N   0  0  0  0  0  0  0  0  0  0  0  0
    5.8917   -6.3875    0.0000 C   0  0  0  0  0  0  0  0  0  0  0  0
    7.2042   -7.0542    0.0000 C   0  0  0  0  0  0  0  0  0  0  0  0
    3.3792   -6.6667    0.0000 C   0  0  0  0  0  0  0  0  0  0  0  0
    8.0292   -4.1792    0.0000 C   0  0  0  0  0  0  0  0  0  0  0  0
    3.3667   -7.4917    0.0000 C   0  0  0  0  0  0  0  0  0  0  0  0
    5.8875   -7.8250    0.0000 C   0  0  0  0  0  0  0  0  0  0  0  0
    7.4417   -3.5917    0.0000 N   0  0  0  0  0  0  0  0  0  0  0  0
    6.2917   -8.5500    0.0000 N   0  0  0  0  0  0  0  0  0  0  0  0
    2.6625   -6.2417    0.0000 C   0  0  0  0  0  0  0  0  0  0  0  0
    2.6500   -7.9042    0.0000 C   0  0  0  0  0  0  0  0  0  0  0  0
    1.9417   -6.6542    0.0000 C   0  0  0  0  0  0  0  0  0  0  0  0
    8.6625   -7.3042    0.0000 C   0  0  0  0  0  0  0  0  0  0  0  0
    9.8167   -3.6667    0.0000 C   0  0  0  0  0  0  0  0  0  0  0  0
    6.9792   -4.9292    0.0000 C   0  0  0  0  0  0  0  0  0  0  0  0
    1.9292   -7.4792    0.0000 C   0  0  0  0  0  0  0  0  0  0  0  0
   10.7792   -5.0250    0.0000 C   0  0  0  0  0  0  0  0  0  0  0  0
    1.2292   -6.2375    0.0000 O   0  0  0  0  0  0  0  0  0  0  0  0
    1.2417   -5.4125    0.0000 C   0  0  0  0  0  0  0  0  0  0  0  0
   10.6417   -3.5792    0.0000 C   0  0  0  0  0  0  0  0  0  0  0  0
   11.1292   -4.2667    0.0000 C   0  0  0  0  0  0  0  0  0  0  0  0
  1  2  1  0  0  0  0
  1  3  2  0  0  0  0
  1  4  1  0  0  0  0
  5  8  1  0  0  0  0
  6 10  2  0  0  0  0
  5  7  2  0  0  0  0
  8 14  2  0  0  0  0
  2  9  1  0  0  0  0
  2 10  1  0  0  0  0
  3 11  1  0  0  0  0
  4 12  1  0  0  0  0
  5 13  1  0  0  0  0
  6 14  1  0  0  0  0
  9 15  2  0  0  0  0
  7 16  1  0  0  0  0
  3 17  1  0  0  0  0
 13 18  1  0  0  0  0
  8 19  1  0  0  0  0
 17 20  3  0  0  0  0
 19 21  3  0  0  0  0
 16 22  1  0  0  0  0
 18 23  1  0  0  0  0
 22 24  2  0  0  0  0
  9 25  1  0  0  0  0
 11 26  1  0  0  0  0
 10 27  1  0  0  0  0
 23 28  2  0  0  0  0
 12 29  1  0  0  0  0
 24 30  1  0  0  0  0
 30 31  1  0  0  0  0
 26 32  1  0  0  0  0
 29 33  1  0  0  0  0
 11 12  2  0  0  0  0
  6 15  1  0  0  0  0
 32 33  1  0  0  0  0
 16 18  2  0  0  0  0
 24 28  1  0  0  0  0
M  END
> <MOLFORMULA>
C26 H23 N5 O S

> <MOLWEIGHT>
4.535677000000000e+002

> <IDNUMBER>
AT-139/J204542

> <PRICE>
EUR 125.00/10 mg

> <Similarity score>
0.20

$$$$

  -OEChem-04222410502D

 33 37  0     0  0  0  0  0  0999 V2000
    4.9917    4.0792    0.0000 C   0  0  0  0  0  0  0  0  0  0  0  0
    4.8917    3.2833    0.0000 N   0  0  3  0  0  0  0  0  0  0  0  0
    5.7125    4.4792    0.0000 C   0  0  0  0  0  0  0  0  0  0  0  0
    4.4042    4.6417    0.0000 S   0  0  0  0  0  0  0  0  0  0  0  0
    4.3167    0.5583    0.0000 C   0  0  0  0  0  0  0  0  0  0  0  0
    5.1542    1.9833    0.0000 C   0  0  0  0  0  0  0  0  0  0  0  0
    3.8292   -0.1042    0.0000 N   0  0  0  0  0  0  0  0  0  0  0  0
    5.1417    0.5583    0.0000 C   0  0  0  0  0  0  0  0  0  0  0  0
    4.1917    2.8750    0.0000 C   0  0  0  0  0  0  0  0  0  0  0  0
    5.5042    2.7250    0.0000 C   0  0  0  0  0  0  0  0  0  0  0  0
    5.5542    5.2792    0.0000 C   0  0  0  0  0  0  0  0  0  0  0  0
    4.7417    5.3875    0.0000 C   0  0  0  0  0  0  0  0  0  0  0  0
    3.8292    1.2333    0.0000 N   0  0  0  0  0  0  0  0  0  0  0  0
    5.5542    1.2750    0.0000 C   0  0  0  0  0  0  0  0  0  0  0  0
    4.3417    2.0708    0.0000 C   0  0  0  0  0  0  0  0  0  0  0  0
    3.0417    0.1458    0.0000 C   0  0  0  0  0  0  0  0  0  0  0  0
    6.4542    4.1375    0.0000 C   0  0  0  0  0  0  0  0  0  0  0  0
    3.0417    0.9708    0.0000 C   0  0  0  0  0  0  0  0  0  0  0  0
    5.5542   -0.1542    0.0000 C   0  0  0  0  0  0  0  0  0  0  0  0
    7.2000    3.8000    0.0000 N   0  0  0  0  0  0  0  0  0  0  0  0
    5.9625   -0.8667    0.0000 N   0  0  0  0  0  0  0  0  0  0  0  0
    2.3292   -0.2667    0.0000 C   0  0  0  0  0  0  0  0  0  0  0  0
    2.3292    1.3833    0.0000 C   0  0  0  0  0  0  0  0  0  0  0  0
    1.6167    0.1458    0.0000 C   0  0  0  0  0  0  0  0  0  0  0  0
    3.4375    3.2208    0.0000 C   0  0  0  0  0  0  0  0  0  0  0  0
    6.0417    5.9292    0.0000 C   0  0  0  0  0  0  0  0  0  0  0  0
    6.3042    2.8833    0.0000 C   0  0  0  0  0  0  0  0  0  0  0  0
    1.6167    0.9708    0.0000 C   0  0  0  0  0  0  0  0  0  0  0  0
    4.4167    6.1292    0.0000 C   0  0  0  0  0  0  0  0  0  0  0  0
    0.9042   -0.2667    0.0000 O   0  0  0  0  0  0  0  0  0  0  0  0
    0.9042   -1.0917    0.0000 C   0  0  0  0  0  0  0  0  0  0  0  0
    5.7292    6.6917    0.0000 C   0  0  0  0  0  0  0  0  0  0  0  0
    4.9167    6.7917    0.0000 C   0  0  0  0  0  0  0  0  0  0  0  0
  1  2  1  0  0  0  0
  1  3  2  0  0  0  0
  1  4  1  0  0  0  0
  5  8  1  0  0  0  0
  6 10  2  0  0  0  0
  5  7  2  0  0  0  0
  8 14  2  0  0  0  0
  2  9  1  0  0  0  0
  2 10  1  0  0  0  0
  3 11  1  0  0  0  0
  4 12  1  0  0  0  0
  5 13  1  0  0  0  0
  6 14  1  0  0  0  0
  9 15  2  0  0  0  0
  7 16  1  0  0  0  0
  3 17  1  0  0  0  0
 13 18  1  0  0  0  0
  8 19  1  0  0  0  0
 17 20  3  0  0  0  0
 19 21  3  0  0  0  0
 16 22  2  0  0  0  0
 18 23  2  0  0  0  0
 22 24  1  0  0  0  0
  9 25  1  0  0  0  0
 11 26  1  0  0  0  0
 10 27  1  0  0  0  0
 23 28  1  0  0  0  0
 12 29  1  0  0  0  0
 24 30  1  0  0  0  0
 30 31  1  0  0  0  0
 26 32  1  0  0  0  0
 29 33  1  0  0  0  0
 11 12  2  0  0  0  0
  6 15  1  0  0  0  0
 32 33  1  0  0  0  0
 16 18  1  0  0  0  0
 24 28  2  0  0  0  0
M  END
> <MOLFORMULA>
C26 H23 N5 O S

> <MOLWEIGHT>
4.535677000000000e+002

> <IDNUMBER>
AM-879/MD25802

> <PRICE>
EUR 55.00/10 mg

> <Similarity score>
0.20

$$$$

  -OEChem-04222410502D

 38 42  0     0  0  0  0  0  0999 V2000
   -4.6833   -0.0000    0.0000 C   0  0  0  0  0  0  0  0  0  0  0  0
   -5.9042    0.5417    0.0000 C   0  0  0  0  0  0  0  0  0  0  0  0
    5.7208    0.9000    0.0000 N   0  0  0  0  0  0  0  0  0  0  0  0
    4.9208    1.9667    0.0000 N   0  0  3  0  0  0  0  0  0  0  0  0
    3.7042    0.2333    0.0000 C   0  0  0  0  0  0  0  0  0  0  0  0
   -4.8208   -1.3375    0.0000 S   0  0  0  0  0  0  0  0  0  0  0  0
    4.9542   -0.1792    0.0000 C   0  0  0  0  0  0  0  0  0  0  0  0
   -6.7958   -0.4583    0.0000 C   0  0  0  0  0  0  0  0  0  0  0  0
   -3.4833    0.6625    0.0000 N   0  0  0  0  0  0  0  0  0  0  0  0
   -6.1375   -1.6167    0.0000 C   0  0  0  0  0  0  0  0  0  0  0  0
    3.7042    1.5833    0.0000 C   0  0  0  0  0  0  0  0  0  0  0  0
   -1.1625    0.6625    0.0000 C   0  0  0  0  0  0  0  0  0  0  0  0
   -2.3208   -0.0000    0.0000 C   0  0  0  0  0  0  0  0  0  0  0  0
   -6.1667    1.8500    0.0000 C   0  0  0  0  0  0  0  0  0  0  0  0
   -6.4375    3.1625    0.0000 N   0  0  0  0  0  0  0  0  0  0  0  0
    1.3375   -0.0000    0.0000 N   0  0  0  0  0  0  0  0  0  0  0  0
    5.2375   -1.5292    0.0000 C   0  0  0  0  0  0  0  0  0  0  0  0
    2.5708   -0.5292    0.0000 C   0  0  0  0  0  0  0  0  0  0  0  0
    0.0000   -0.0000    0.0000 N   0  0  0  0  0  0  0  0  0  0  0  0
    5.3875    3.2667    0.0000 C   0  0  0  0  0  0  0  0  0  0  0  0
   -1.1625    1.9917    0.0000 O   0  0  0  0  0  0  0  0  0  0  0  0
   -2.3208   -1.3292    0.0000 O   0  0  0  0  0  0  0  0  0  0  0  0
    6.5208   -1.9625    0.0000 C   0  0  0  0  0  0  0  0  0  0  0  0
    4.2542   -2.4125    0.0000 C   0  0  0  0  0  0  0  0  0  0  0  0
    5.8042   -4.1792    0.0000 C   0  0  0  0  0  0  0  0  0  0  0  0
   -8.1583   -0.4583    0.0000 C   0  0  0  0  0  0  0  0  0  0  0  0
    4.5042   -3.7458    0.0000 C   0  0  0  0  0  0  0  0  0  0  0  0
    6.7875   -3.2458    0.0000 C   0  0  0  0  0  0  0  0  0  0  0  0
   -6.7958   -2.7792    0.0000 C   0  0  0  0  0  0  0  0  0  0  0  0
    6.1042   -5.4792    0.0000 O   0  0  0  0  0  0  0  0  0  0  0  0
    4.5542    4.2958    0.0000 C   0  0  0  0  0  0  0  0  0  0  0  0
    6.7375    3.4833    0.0000 C   0  0  0  0  0  0  0  0  0  0  0  0
    7.3375   -5.8458    0.0000 C   0  0  0  0  0  0  0  0  0  0  0  0
   -8.8167   -1.6167    0.0000 C   0  0  0  0  0  0  0  0  0  0  0  0
   -8.1583   -2.7792    0.0000 C   0  0  0  0  0  0  0  0  0  0  0  0
    7.1875    4.7625    0.0000 C   0  0  0  0  0  0  0  0  0  0  0  0
    4.9875    5.5458    0.0000 C   0  0  0  0  0  0  0  0  0  0  0  0
    6.2875    5.8125    0.0000 C   0  0  0  0  0  0  0  0  0  0  0  0
  1  2  2  0  0  0  0
  3  7  2  0  0  0  0
  4 11  1  0  0  0  0
  5 18  1  0  0  0  0
  1  6  1  0  0  0  0
  5  7  1  0  0  0  0
  2  8  1  0  0  0  0
  1  9  1  0  0  0  0
  6 10  1  0  0  0  0
  5 11  2  0  0  0  0
 12 13  1  0  0  0  0
  9 13  1  0  0  0  0
  2 14  1  0  0  0  0
 14 15  3  0  0  0  0
 16 19  1  0  0  0  0
  7 17  1  0  0  0  0
 16 18  2  0  0  0  0
 12 19  1  0  0  0  0
  4 20  1  0  0  0  0
 12 21  2  0  0  0  0
 13 22  2  0  0  0  0
 17 23  1  0  0  0  0
 17 24  2  0  0  0  0
 25 27  2  0  0  0  0
  8 26  1  0  0  0  0
 24 27  1  0  0  0  0
 23 28  2  0  0  0  0
 10 29  1  0  0  0  0
 25 30  1  0  0  0  0
 20 31  1  0  0  0  0
 20 32  2  0  0  0  0
 30 33  1  0  0  0  0
 26 34  1  0  0  0  0
 29 35  1  0  0  0  0
 32 36  1  0  0  0  0
 31 37  2  0  0  0  0
 36 38  2  0  0  0  0
  8 10  2  0  0  0  0
 34 35  1  0  0  0  0
  3  4  1  0  0  0  0
 25 28  1  0  0  0  0
 37 38  1  0  0  0  0
M  END
> <MOLFORMULA>
C28 H24 N6 O3 S

> <MOLWEIGHT>
5.246026000000001e+002

> <IDNUMBER>
AT-225/NB77288

> <PRICE>
EUR 140/10 mg

> <Similarity score>
0.20

$$$$

  -OEChem-04222410502D

 27 30  0     0  0  0  0  0  0999 V2000
    2.6125    1.3000    0.0000 C   0  0  0  0  0  0  0  0  0  0  0  0
    3.6083    1.4042    0.0000 C   0  0  0  0  0  0  0  0  0  0  0  0
    2.2083    2.2167    0.0000 S   0  0  0  0  0  0  0  0  0  0  0  0
    3.8167    2.3833    0.0000 C   0  0  0  0  0  0  0  0  0  0  0  0
   -0.8875   -1.2958    0.0000 C   0  0  0  0  0  0  0  0  0  0  0  0
   -1.8792   -1.4000    0.0000 N   0  0  0  0  0  0  0  0  0  0  0  0
    2.9500    2.8833    0.0000 C   0  0  0  0  0  0  0  0  0  0  0  0
   -0.4792   -2.2125    0.0000 N   0  0  0  0  0  0  0  0  0  0  0  0
    2.1125    0.4333    0.0000 N   0  0  0  0  0  0  0  0  0  0  0  0
   -2.0875   -2.3792    0.0000 C   0  0  0  0  0  0  0  0  0  0  0  0
    4.2792    0.6625    0.0000 C   0  0  0  0  0  0  0  0  0  0  0  0
   -1.2208   -2.8792    0.0000 C   0  0  0  0  0  0  0  0  0  0  0  0
    3.9667   -0.2875    0.0000 N   0  0  0  0  0  0  0  0  0  0  0  0
    1.1125    0.4333    0.0000 C   0  0  0  0  0  0  0  0  0  0  0  0
   -2.9542   -2.8792    0.0000 C   0  0  0  0  0  0  0  0  0  0  0  0
   -0.3875   -0.4292    0.0000 S   0  0  0  0  0  0  0  0  0  0  0  0
    0.6125    1.3000    0.0000 O   0  0  0  0  0  0  0  0  0  0  0  0
   -1.2208   -3.8792    0.0000 C   0  0  0  0  0  0  0  0  0  0  0  0
    0.6125   -0.4292    0.0000 C   0  0  0  0  0  0  0  0  0  0  0  0
   -2.9542   -3.8792    0.0000 C   0  0  0  0  0  0  0  0  0  0  0  0
   -2.0875   -4.3792    0.0000 C   0  0  0  0  0  0  0  0  0  0  0  0
    4.6833    2.8833    0.0000 C   0  0  0  0  0  0  0  0  0  0  0  0
    2.9500    3.8833    0.0000 C   0  0  0  0  0  0  0  0  0  0  0  0
   -3.8208   -4.3792    0.0000 O   0  0  0  0  0  0  0  0  0  0  0  0
   -4.6875   -3.8792    0.0000 C   0  0  0  0  0  0  0  0  0  0  0  0
    4.6833    3.8833    0.0000 C   0  0  0  0  0  0  0  0  0  0  0  0
    3.8167    4.3792    0.0000 C   0  0  0  0  0  0  0  0  0  0  0  0
  1  2  2  0  0  0  0
  1  3  1  0  0  0  0
  2  4  1  0  0  0  0
  5 16  1  0  0  0  0
  5  6  2  0  0  0  0
  3  7  1  0  0  0  0
  5  8  1  0  0  0  0
  1  9  1  0  0  0  0
  6 10  1  0  0  0  0
  2 11  1  0  0  0  0
  8 12  1  0  0  0  0
 11 13  3  0  0  0  0
  9 14  1  0  0  0  0
 10 15  1  0  0  0  0
 16 19  1  0  0  0  0
 14 17  2  0  0  0  0
 12 18  1  0  0  0  0
 14 19  1  0  0  0  0
 15 20  2  0  0  0  0
 18 21  2  0  0  0  0
  4 22  1  0  0  0  0
  7 23  1  0  0  0  0
 20 24  1  0  0  0  0
 24 25  1  0  0  0  0
 22 26  1  0  0  0  0
 23 27  1  0  0  0  0
  4  7  2  0  0  0  0
 26 27  1  0  0  0  0
 10 12  2  0  0  0  0
 20 21  1  0  0  0  0
M  END
> <MOLFORMULA>
C19 H18 N4 O2 S2

> <MOLWEIGHT>
3.985092000000000e+002

> <IDNUMBER>
AN-153/I137971

> <PRICE>
EUR 130/10 mg

> <Similarity score>
0.19

$$$$

  -OEChem-04222410502D

 23 25  0     0  0  0  0  0  0999 V2000
    2.9917   -6.3167    0.0000 N   0  0  0  0  0  0  0  0  0  0  0  0
    2.1042   -7.3125    0.0000 C   0  0  0  0  0  0  0  0  0  0  0  0
    8.9417   -2.8542    0.0000 N   0  0  0  0  0  0  0  0  0  0  0  0
    4.2042   -6.8417    0.0000 N   0  0  3  0  0  0  0  0  0  0  0  0
    8.8042   -4.1792    0.0000 C   0  0  0  0  0  0  0  0  0  0  0  0
   10.0292   -4.7125    0.0000 N   0  0  0  0  0  0  0  0  0  0  0  0
    2.7667   -8.4625    0.0000 C   0  0  0  0  0  0  0  0  0  0  0  0
    4.0667   -8.1875    0.0000 C   0  0  0  0  0  0  0  0  0  0  0  0
   10.2292   -2.5750    0.0000 C   0  0  0  0  0  0  0  0  0  0  0  0
    0.7792   -7.1625    0.0000 C   0  0  0  0  0  0  0  0  0  0  0  0
   10.9167   -3.7250    0.0000 O   0  0  0  0  0  0  0  0  0  0  0  0
    5.3542   -6.1917    0.0000 C   0  0  0  0  0  0  0  0  0  0  0  0
    7.6542   -4.8625    0.0000 C   0  0  0  0  0  0  0  0  0  0  0  0
    0.0000   -8.2375    0.0000 O   0  0  0  0  0  0  0  0  0  0  0  0
    6.5042   -6.8417    0.0000 C   0  0  0  0  0  0  0  0  0  0  0  0
    5.3542   -4.8625    0.0000 C   0  0  0  0  0  0  0  0  0  0  0  0
    7.6542   -6.1917    0.0000 C   0  0  0  0  0  0  0  0  0  0  0  0
    6.5042   -4.1917    0.0000 C   0  0  0  0  0  0  0  0  0  0  0  0
    0.2375   -5.9500    0.0000 O   0  0  0  0  0  0  0  0  0  0  0  0
   10.7708   -1.3500    0.0000 C   0  0  0  0  0  0  0  0  0  0  0  0
    1.0167   -4.8750    0.0000 C   0  0  0  0  0  0  0  0  0  0  0  0
   12.0917   -1.2125    0.0000 C   0  0  0  0  0  0  0  0  0  0  0  0
   12.6292   -0.0000    0.0000 C   0  0  0  0  0  0  0  0  0  0  0  0
  1  2  2  0  0  0  0
  3  5  1  0  0  0  0
  1  4  1  0  0  0  0
  5 13  1  0  0  0  0
  5  6  2  0  0  0  0
  2  7  1  0  0  0  0
  4  8  1  0  0  0  0
  3  9  2  0  0  0  0
  2 10  1  0  0  0  0
  6 11  1  0  0  0  0
  4 12  1  0  0  0  0
 13 18  2  0  0  0  0
 10 14  2  0  0  0  0
 12 15  1  0  0  0  0
 12 16  2  0  0  0  0
 15 17  2  0  0  0  0
 16 18  1  0  0  0  0
 10 19  1  0  0  0  0
  9 20  1  0  0  0  0
 19 21  1  0  0  0  0
 20 22  1  0  0  0  0
 22 23  1  0  0  0  0
  7  8  2  0  0  0  0
 13 17  1  0  0  0  0
  9 11  1  0  0  0  0
M  END
> <MOLFORMULA>
C16 H16 N4 O3

> <MOLWEIGHT>
3.123274000000000e+002

> <IDNUMBER>
AT-687/NB03490

> <PRICE>
EUR 80/10 mg

> <Similarity score>
0.19

$$$$

  -OEChem-04222410502D

 21 23  0     0  0  0  0  0  0999 V2000
    2.2042   -3.5542    0.0000 N   0  0  0  0  0  0  0  0  0  0  0  0
    1.8042   -2.2792    0.0000 C   0  0  0  0  0  0  0  0  0  0  0  0
    2.2375  -10.4375    0.0000 N   0  0  0  0  0  0  0  0  0  0  0  0
    1.1417   -4.3375    0.0000 N   0  0  3  0  0  0  0  0  0  0  0  0
    1.1542   -9.6542    0.0000 C   0  0  0  0  0  0  0  0  0  0  0  0
    0.0792  -10.4375    0.0000 N   0  0  0  0  0  0  0  0  0  0  0  0
    0.4750   -2.2917    0.0000 C   0  0  0  0  0  0  0  0  0  0  0  0
    0.0667   -3.5542    0.0000 C   0  0  0  0  0  0  0  0  0  0  0  0
    1.8167  -11.7125    0.0000 C   0  0  0  0  0  0  0  0  0  0  0  0
    2.5875   -1.2167    0.0000 C   0  0  0  0  0  0  0  0  0  0  0  0
    0.4875  -11.7125    0.0000 O   0  0  0  0  0  0  0  0  0  0  0  0
    1.1542   -5.6667    0.0000 C   0  0  0  0  0  0  0  0  0  0  0  0
    1.1542   -8.3250    0.0000 C   0  0  0  0  0  0  0  0  0  0  0  0
    2.0250   -0.0000    0.0000 O   0  0  0  0  0  0  0  0  0  0  0  0
    0.0000   -6.3375    0.0000 C   0  0  0  0  0  0  0  0  0  0  0  0
    2.3042   -6.3375    0.0000 C   0  0  0  0  0  0  0  0  0  0  0  0
    0.0000   -7.6667    0.0000 C   0  0  0  0  0  0  0  0  0  0  0  0
    2.3042   -7.6542    0.0000 C   0  0  0  0  0  0  0  0  0  0  0  0
    3.9042   -1.3417    0.0000 O   0  0  0  0  0  0  0  0  0  0  0  0
    2.6000  -12.7875    0.0000 C   0  0  0  0  0  0  0  0  0  0  0  0
    2.0542  -13.9917    0.0000 C   0  0  0  0  0  0  0  0  0  0  0  0
  1  2  2  0  0  0  0
  3  5  1  0  0  0  0
  1  4  1  0  0  0  0
  5 13  1  0  0  0  0
  5  6  2  0  0  0  0
  2  7  1  0  0  0  0
  4  8  1  0  0  0  0
  3  9  2  0  0  0  0
  2 10  1  0  0  0  0
  6 11  1  0  0  0  0
  4 12  1  0  0  0  0
 13 18  2  0  0  0  0
 10 14  2  0  0  0  0
 12 15  1  0  0  0  0
 12 16  2  0  0  0  0
 15 17  2  0  0  0  0
 16 18  1  0  0  0  0
 10 19  1  0  0  0  0
  9 20  1  0  0  0  0
 20 21  1  0  0  0  0
  7  8  2  0  0  0  0
 13 17  1  0  0  0  0
  9 11  1  0  0  0  0
M  END
> <MOLFORMULA>
C14 H12 N4 O3

> <MOLWEIGHT>
2.842738000000000e+002

> <IDNUMBER>
AT-687/NB03489

> <PRICE>
EUR 80/10 mg

> <Similarity score>
0.19

$$$$

  -OEChem-04222410502D

 21 23  0     0  0  0  0  0  0999 V2000
    4.4750   -2.4000    0.0000 N   0  0  0  0  0  0  0  0  0  0  0  0
    4.2167   -1.6167    0.0000 C   0  0  0  0  0  0  0  0  0  0  0  0
    4.4792   -6.6750    0.0000 N   0  0  0  0  0  0  0  0  0  0  0  0
    3.8042   -2.8917    0.0000 N   0  0  3  0  0  0  0  0  0  0  0  0
    3.8167   -6.1917    0.0000 C   0  0  0  0  0  0  0  0  0  0  0  0
    3.1500   -6.6750    0.0000 N   0  0  0  0  0  0  0  0  0  0  0  0
    3.3917   -1.6250    0.0000 C   0  0  0  0  0  0  0  0  0  0  0  0
    3.1417   -2.4000    0.0000 C   0  0  0  0  0  0  0  0  0  0  0  0
    4.2250   -7.4542    0.0000 C   0  0  0  0  0  0  0  0  0  0  0  0
    4.7000   -0.9500    0.0000 C   0  0  0  0  0  0  0  0  0  0  0  0
    3.4000   -7.4542    0.0000 O   0  0  0  0  0  0  0  0  0  0  0  0
    3.8167   -3.7167    0.0000 C   0  0  0  0  0  0  0  0  0  0  0  0
    3.8167   -5.3667    0.0000 C   0  0  0  0  0  0  0  0  0  0  0  0
    4.3542   -0.2000    0.0000 O   0  0  0  0  0  0  0  0  0  0  0  0
    3.1000   -4.1250    0.0000 C   0  0  0  0  0  0  0  0  0  0  0  0
    4.5250   -4.1250    0.0000 C   0  0  0  0  0  0  0  0  0  0  0  0
    4.5250   -4.9500    0.0000 C   0  0  0  0  0  0  0  0  0  0  0  0
    3.1000   -4.9500    0.0000 C   0  0  0  0  0  0  0  0  0  0  0  0
    5.5250   -1.0292    0.0000 O   0  0  0  0  0  0  0  0  0  0  0  0
    4.7167   -8.1250    0.0000 C   0  0  0  0  0  0  0  0  0  0  0  0
    4.3750   -8.8750    0.0000 C   0  0  0  0  0  0  0  0  0  0  0  0
  1  2  2  0  0  0  0
  3  5  1  0  0  0  0
  1  4  1  0  0  0  0
  5 13  1  0  0  0  0
  5  6  2  0  0  0  0
  2  7  1  0  0  0  0
  4  8  1  0  0  0  0
  3  9  2  0  0  0  0
  2 10  1  0  0  0  0
  6 11  1  0  0  0  0
  4 12  1  0  0  0  0
 13 17  1  0  0  0  0
 10 14  2  0  0  0  0
 12 15  2  0  0  0  0
 12 16  1  0  0  0  0
 16 17  2  0  0  0  0
 15 18  1  0  0  0  0
 10 19  1  0  0  0  0
  9 20  1  0  0  0  0
 20 21  1  0  0  0  0
  7  8  2  0  0  0  0
 13 18  2  0  0  0  0
  9 11  1  0  0  0  0
M  END
> <MOLFORMULA>
C14 H12 N4 O3

> <MOLWEIGHT>
2.842738000000000e+002

> <IDNUMBER>
AT-687/PE32958

> <PRICE>
EUR 80/10 mg

> <Similarity score>
0.19

$$$$

  -OEChem-04222410502D

 22 24  0     0  0  0  0  0  0999 V2000
    4.9000   -9.9500    0.0000 N   0  0  0  0  0  0  0  0  0  0  0  0
    4.1000  -10.1250    0.0000 C   0  0  0  0  0  0  0  0  0  0  0  0
    8.6000   -7.8000    0.0000 N   0  0  0  0  0  0  0  0  0  0  0  0
    4.9917   -9.1250    0.0000 N   0  0  3  0  0  0  0  0  0  0  0  0
    7.8500   -7.4750    0.0000 C   0  0  0  0  0  0  0  0  0  0  0  0
    7.9250   -6.6500    0.0000 N   0  0  0  0  0  0  0  0  0  0  0  0
    3.6917   -9.4042    0.0000 C   0  0  0  0  0  0  0  0  0  0  0  0
    4.2417   -8.8000    0.0000 C   0  0  0  0  0  0  0  0  0  0  0  0
    9.1500   -7.1917    0.0000 C   0  0  0  0  0  0  0  0  0  0  0  0
    3.7667  -10.8750    0.0000 C   0  0  0  0  0  0  0  0  0  0  0  0
    8.7292   -6.4750    0.0000 O   0  0  0  0  0  0  0  0  0  0  0  0
    5.7000   -8.7167    0.0000 C   0  0  0  0  0  0  0  0  0  0  0  0
    7.1292   -7.8917    0.0000 C   0  0  0  0  0  0  0  0  0  0  0  0
    2.9417  -10.9667    0.0000 O   0  0  0  0  0  0  0  0  0  0  0  0
    6.4167   -9.1250    0.0000 C   0  0  0  0  0  0  0  0  0  0  0  0
    5.7000   -7.8917    0.0000 C   0  0  0  0  0  0  0  0  0  0  0  0
    6.4167   -7.4750    0.0000 C   0  0  0  0  0  0  0  0  0  0  0  0
    7.1292   -8.7167    0.0000 C   0  0  0  0  0  0  0  0  0  0  0  0
    4.2500  -11.5500    0.0000 O   0  0  0  0  0  0  0  0  0  0  0  0
    9.9750   -7.2750    0.0000 C   0  0  0  0  0  0  0  0  0  0  0  0
    3.9042  -12.3000    0.0000 C   0  0  0  0  0  0  0  0  0  0  0  0
   10.3042   -8.0250    0.0000 C   0  0  0  0  0  0  0  0  0  0  0  0
  1  2  2  0  0  0  0
  3  5  1  0  0  0  0
  1  4  1  0  0  0  0
  5 13  1  0  0  0  0
  5  6  2  0  0  0  0
  2  7  1  0  0  0  0
  4  8  1  0  0  0  0
  3  9  2  0  0  0  0
  2 10  1  0  0  0  0
  6 11  1  0  0  0  0
  4 12  1  0  0  0  0
 13 17  1  0  0  0  0
 10 14  2  0  0  0  0
 12 15  2  0  0  0  0
 12 16  1  0  0  0  0
 16 17  2  0  0  0  0
 15 18  1  0  0  0  0
 10 19  1  0  0  0  0
  9 20  1  0  0  0  0
 19 21  1  0  0  0  0
 20 22  1  0  0  0  0
  7  8  2  0  0  0  0
 13 18  2  0  0  0  0
  9 11  1  0  0  0  0
M  END
> <MOLFORMULA>
C15 H14 N4 O3

> <MOLWEIGHT>
2.983006000000000e+002

> <IDNUMBER>
AT-687/PE32959

> <PRICE>
EUR 80/10 mg

> <Similarity score>
0.19

$$$$

  -OEChem-04222410502D

 22 24  0     0  0  0  0  0  0999 V2000
    3.1625   -5.6125    0.0000 N   0  0  0  0  0  0  0  0  0  0  0  0
    1.8667   -5.8917    0.0000 C   0  0  0  0  0  0  0  0  0  0  0  0
    9.1292   -2.1375    0.0000 N   0  0  0  0  0  0  0  0  0  0  0  0
    3.3042   -4.2792    0.0000 N   0  0  3  0  0  0  0  0  0  0  0  0
    7.9167   -1.6167    0.0000 C   0  0  0  0  0  0  0  0  0  0  0  0
    8.0500   -0.2792    0.0000 N   0  0  0  0  0  0  0  0  0  0  0  0
    1.2125   -4.7417    0.0000 C   0  0  0  0  0  0  0  0  0  0  0  0
    2.0917   -3.7542    0.0000 C   0  0  0  0  0  0  0  0  0  0  0  0
   10.0208   -1.1500    0.0000 C   0  0  0  0  0  0  0  0  0  0  0  0
    1.3292   -7.1125    0.0000 C   0  0  0  0  0  0  0  0  0  0  0  0
    9.3417   -0.0000    0.0000 O   0  0  0  0  0  0  0  0  0  0  0  0
    4.4542   -3.6125    0.0000 C   0  0  0  0  0  0  0  0  0  0  0  0
    6.7667   -2.2792    0.0000 C   0  0  0  0  0  0  0  0  0  0  0  0
    0.0000   -7.2542    0.0000 O   0  0  0  0  0  0  0  0  0  0  0  0
    5.6000   -4.2792    0.0000 C   0  0  0  0  0  0  0  0  0  0  0  0
    4.4542   -2.2792    0.0000 C   0  0  0  0  0  0  0  0  0  0  0  0
    6.7667   -3.6125    0.0000 C   0  0  0  0  0  0  0  0  0  0  0  0
    5.6000   -1.6167    0.0000 C   0  0  0  0  0  0  0  0  0  0  0  0
    2.1042   -8.1917    0.0000 O   0  0  0  0  0  0  0  0  0  0  0  0
   11.3417   -1.2917    0.0000 C   0  0  0  0  0  0  0  0  0  0  0  0
    1.5667   -9.4042    0.0000 C   0  0  0  0  0  0  0  0  0  0  0  0
   11.8917   -2.4917    0.0000 C   0  0  0  0  0  0  0  0  0  0  0  0
  1  2  2  0  0  0  0
  3  5  1  0  0  0  0
  1  4  1  0  0  0  0
  5 13  1  0  0  0  0
  5  6  2  0  0  0  0
  2  7  1  0  0  0  0
  4  8  1  0  0  0  0
  3  9  2  0  0  0  0
  2 10  1  0  0  0  0
  6 11  1  0  0  0  0
  4 12  1  0  0  0  0
 13 18  2  0  0  0  0
 10 14  2  0  0  0  0
 12 15  1  0  0  0  0
 12 16  2  0  0  0  0
 15 17  2  0  0  0  0
 16 18  1  0  0  0  0
 10 19  1  0  0  0  0
  9 20  1  0  0  0  0
 19 21  1  0  0  0  0
 20 22  1  0  0  0  0
  7  8  2  0  0  0  0
 13 17  1  0  0  0  0
  9 11  1  0  0  0  0
M  END
> <MOLFORMULA>
C15 H14 N4 O3

> <MOLWEIGHT>
2.983006000000000e+002

> <IDNUMBER>
AT-687/NB03491

> <PRICE>
EUR 80/10 mg

> <Similarity score>
0.19

$$$$

  -OEChem-04222410502D

 44 49  0     0  0  0  0  0  0999 V2000
    4.5667    6.4167    0.0000 C   0  0  0  0  0  0  0  0  0  0  0  0
    3.7167    7.5500    0.0000 C   0  0  0  0  0  0  0  0  0  0  0  0
   15.4417    4.8792    0.0000 N   0  0  0  0  0  0  0  0  0  0  0  0
   14.2792    4.1875    0.0000 N   0  0  3  0  0  0  0  0  0  0  0  0
   13.0667    6.2792    0.0000 C   0  0  0  0  0  0  0  0  0  0  0  0
    3.7167    5.2917    0.0000 S   0  0  0  0  0  0  0  0  0  0  0  0
   15.4417    6.2792    0.0000 C   0  0  0  0  0  0  0  0  0  0  0  0
    2.4000    7.1292    0.0000 C   0  0  0  0  0  0  0  0  0  0  0  0
    5.9792    6.4167    0.0000 N   0  0  0  0  0  0  0  0  0  0  0  0
    2.4000    5.7167    0.0000 C   0  0  0  0  0  0  0  0  0  0  0  0
   13.0667    4.8792    0.0000 C   0  0  0  0  0  0  0  0  0  0  0  0
    8.0917    5.1917    0.0000 C   0  0  0  0  0  0  0  0  0  0  0  0
    6.6792    5.1917    0.0000 C   0  0  0  0  0  0  0  0  0  0  0  0
    4.1875    8.9167    0.0000 C   0  0  0  0  0  0  0  0  0  0  0  0
    4.5667   10.2792    0.0000 N   0  0  0  0  0  0  0  0  0  0  0  0
   10.7875    6.2792    0.0000 N   0  0  0  0  0  0  0  0  0  0  0  0
   16.4167    7.3042    0.0000 C   0  0  0  0  0  0  0  0  0  0  0  0
   11.8542    6.9292    0.0000 C   0  0  0  0  0  0  0  0  0  0  0  0
    9.3667    6.2792    0.0000 N   0  0  0  0  0  0  0  0  0  0  0  0
   14.2792    2.7958    0.0000 C   0  0  0  0  0  0  0  0  0  0  0  0
    8.8042    3.9833    0.0000 O   0  0  0  0  0  0  0  0  0  0  0  0
    5.9792    3.9833    0.0000 O   0  0  0  0  0  0  0  0  0  0  0  0
   17.7667    6.9292    0.0000 C   0  0  0  0  0  0  0  0  0  0  0  0
   16.0500    8.6042    0.0000 C   0  0  0  0  0  0  0  0  0  0  0  0
   19.4000   10.2375    0.0000 O   0  0  0  0  0  0  0  0  0  0  0  0
   18.3750    9.2542    0.0000 C   0  0  0  0  0  0  0  0  0  0  0  0
    1.1750    7.8292    0.0000 C   0  0  0  0  0  0  0  0  0  0  0  0
   20.7500    9.8625    0.0000 C   0  0  0  0  0  0  0  0  0  0  0  0
   17.0250    9.6292    0.0000 C   0  0  0  0  0  0  0  0  0  0  0  0
   18.7417    7.9042    0.0000 C   0  0  0  0  0  0  0  0  0  0  0  0
    1.1750    5.0042    0.0000 C   0  0  0  0  0  0  0  0  0  0  0  0
   21.0750    8.5042    0.0000 C   0  0  0  0  0  0  0  0  0  0  0  0
   13.0667    2.0958    0.0000 C   0  0  0  0  0  0  0  0  0  0  0  0
   15.4917    2.0958    0.0000 C   0  0  0  0  0  0  0  0  0  0  0  0
   20.0917    7.5292    0.0000 C   0  0  0  0  0  0  0  0  0  0  0  0
   22.4250    8.1417    0.0000 C   0  0  0  0  0  0  0  0  0  0  0  0
    0.0000    7.1292    0.0000 C   0  0  0  0  0  0  0  0  0  0  0  0
    0.0000    5.7167    0.0000 C   0  0  0  0  0  0  0  0  0  0  0  0
   15.4917    0.7000    0.0000 C   0  0  0  0  0  0  0  0  0  0  0  0
   13.0667    0.7000    0.0000 C   0  0  0  0  0  0  0  0  0  0  0  0
   22.7917    6.8375    0.0000 C   0  0  0  0  0  0  0  0  0  0  0  0
   20.4667    6.1875    0.0000 C   0  0  0  0  0  0  0  0  0  0  0  0
   14.2792   -0.0000    0.0000 C   0  0  0  0  0  0  0  0  0  0  0  0
   21.8167    5.8167    0.0000 C   0  0  0  0  0  0  0  0  0  0  0  0
  1  2  2  0  0  0  0
  3  7  2  0  0  0  0
  4 11  1  0  0  0  0
  5 18  1  0  0  0  0
  1  6  1  0  0  0  0
  5  7  1  0  0  0  0
  2  8  1  0  0  0  0
  1  9  1  0  0  0  0
  6 10  1  0  0  0  0
  5 11  2  0  0  0  0
 12 13  1  0  0  0  0
  9 13  1  0  0  0  0
  2 14  1  0  0  0  0
 14 15  3  0  0  0  0
 16 19  1  0  0  0  0
  7 17  1  0  0  0  0
 16 18  2  0  0  0  0
 12 19  1  0  0  0  0
  4 20  1  0  0  0  0
 12 21  2  0  0  0  0
 13 22  2  0  0  0  0
 17 23  2  0  0  0  0
 17 24  1  0  0  0  0
 25 26  1  0  0  0  0
 26 29  1  0  0  0  0
  8 27  1  0  0  0  0
 25 28  1  0  0  0  0
 24 29  2  0  0  0  0
 23 30  1  0  0  0  0
 10 31  1  0  0  0  0
 28 32  1  0  0  0  0
 20 33  2  0  0  0  0
 20 34  1  0  0  0  0
 32 35  2  0  0  0  0
 32 36  1  0  0  0  0
 27 37  1  0  0  0  0
 31 38  1  0  0  0  0
 34 39  2  0  0  0  0
 33 40  1  0  0  0  0
 36 41  2  0  0  0  0
 35 42  1  0  0  0  0
 39 43  1  0  0  0  0
 41 44  1  0  0  0  0
  8 10  2  0  0  0  0
 37 38  1  0  0  0  0
  3  4  1  0  0  0  0
 26 30  2  0  0  0  0
 40 43  2  0  0  0  0
 42 44  2  0  0  0  0
M  END
> <MOLFORMULA>
C34 H28 N6 O3 S

> <MOLWEIGHT>
6.007002000000000e+002

> <IDNUMBER>
AT-225/NB80893

> <PRICE>
EUR 140/10 mg

> <Similarity score>
0.19

$$$$

  -OEChem-04222410502D

 21 23  0     0  0  0  0  0  0999 V2000
    7.9250   -6.6500    0.0000 N   0  0  0  0  0  0  0  0  0  0  0  0
    8.7292   -6.4750    0.0000 C   0  0  0  0  0  0  0  0  0  0  0  0
    4.9000   -9.9500    0.0000 N   0  0  0  0  0  0  0  0  0  0  0  0
    7.8500   -7.4750    0.0000 N   0  0  3  0  0  0  0  0  0  0  0  0
    4.9917   -9.1250    0.0000 C   0  0  0  0  0  0  0  0  0  0  0  0
    4.2417   -8.8000    0.0000 N   0  0  0  0  0  0  0  0  0  0  0  0
    9.1500   -7.1917    0.0000 C   0  0  0  0  0  0  0  0  0  0  0  0
    8.6000   -7.8000    0.0000 C   0  0  0  0  0  0  0  0  0  0  0  0
    4.1000  -10.1250    0.0000 C   0  0  0  0  0  0  0  0  0  0  0  0
    9.0667   -5.7167    0.0000 C   0  0  0  0  0  0  0  0  0  0  0  0
    3.6917   -9.4042    0.0000 O   0  0  0  0  0  0  0  0  0  0  0  0
    7.1292   -7.8917    0.0000 C   0  0  0  0  0  0  0  0  0  0  0  0
    5.7000   -8.7167    0.0000 C   0  0  0  0  0  0  0  0  0  0  0  0
    9.8917   -5.6250    0.0000 O   0  0  0  0  0  0  0  0  0  0  0  0
    7.1292   -8.7167    0.0000 C   0  0  0  0  0  0  0  0  0  0  0  0
    6.4167   -7.4750    0.0000 C   0  0  0  0  0  0  0  0  0  0  0  0
    5.7000   -7.8917    0.0000 C   0  0  0  0  0  0  0  0  0  0  0  0
    6.4167   -9.1250    0.0000 C   0  0  0  0  0  0  0  0  0  0  0  0
    8.5750   -5.0500    0.0000 O   0  0  0  0  0  0  0  0  0  0  0  0
    3.7667  -10.8750    0.0000 C   0  0  0  0  0  0  0  0  0  0  0  0
    8.9167   -4.3000    0.0000 C   0  0  0  0  0  0  0  0  0  0  0  0
  1  2  2  0  0  0  0
  3  5  1  0  0  0  0
  1  4  1  0  0  0  0
  5 13  1  0  0  0  0
  5  6  2  0  0  0  0
  2  7  1  0  0  0  0
  4  8  1  0  0  0  0
  3  9  2  0  0  0  0
  2 10  1  0  0  0  0
  6 11  1  0  0  0  0
  4 12  1  0  0  0  0
 13 17  1  0  0  0  0
 10 14  2  0  0  0  0
 12 15  2  0  0  0  0
 12 16  1  0  0  0  0
 16 17  2  0  0  0  0
 15 18  1  0  0  0  0
 10 19  1  0  0  0  0
  9 20  1  0  0  0  0
 19 21  1  0  0  0  0
  7  8  2  0  0  0  0
 13 18  2  0  0  0  0
  9 11  1  0  0  0  0
M  END
> <MOLFORMULA>
C14 H12 N4 O3

> <MOLWEIGHT>
2.842738000000000e+002

> <IDNUMBER>
AT-687/PE32961

> <PRICE>
EUR 80/10 mg

> <Similarity score>
0.19

$$$$

  -OEChem-04222410502D

 21 23  0     0  0  0  0  0  0999 V2000
    6.8250   -3.7792    0.0000 N   0  0  0  0  0  0  0  0  0  0  0  0
    8.1292   -3.5042    0.0000 C   0  0  0  0  0  0  0  0  0  0  0  0
    1.9500   -9.1042    0.0000 N   0  0  0  0  0  0  0  0  0  0  0  0
    6.7000   -5.1167    0.0000 N   0  0  3  0  0  0  0  0  0  0  0  0
    2.0917   -7.7792    0.0000 C   0  0  0  0  0  0  0  0  0  0  0  0
    0.8875   -7.2500    0.0000 N   0  0  0  0  0  0  0  0  0  0  0  0
    8.8000   -4.6625    0.0000 C   0  0  0  0  0  0  0  0  0  0  0  0
    7.9167   -5.6500    0.0000 C   0  0  0  0  0  0  0  0  0  0  0  0
    0.6542   -9.3917    0.0000 C   0  0  0  0  0  0  0  0  0  0  0  0
    8.6625   -2.2792    0.0000 C   0  0  0  0  0  0  0  0  0  0  0  0
    0.0000   -8.2375    0.0000 O   0  0  0  0  0  0  0  0  0  0  0  0
    5.5542   -5.7875    0.0000 C   0  0  0  0  0  0  0  0  0  0  0  0
    3.2417   -7.1125    0.0000 C   0  0  0  0  0  0  0  0  0  0  0  0
    9.9875   -2.1417    0.0000 O   0  0  0  0  0  0  0  0  0  0  0  0
    5.5542   -7.1125    0.0000 C   0  0  0  0  0  0  0  0  0  0  0  0
    4.3875   -5.1167    0.0000 C   0  0  0  0  0  0  0  0  0  0  0  0
    4.3875   -7.7792    0.0000 C   0  0  0  0  0  0  0  0  0  0  0  0
    3.2417   -5.7875    0.0000 C   0  0  0  0  0  0  0  0  0  0  0  0
    7.8750   -1.2167    0.0000 O   0  0  0  0  0  0  0  0  0  0  0  0
    0.1125  -10.6000    0.0000 C   0  0  0  0  0  0  0  0  0  0  0  0
    8.4167   -0.0000    0.0000 C   0  0  0  0  0  0  0  0  0  0  0  0
  1  2  2  0  0  0  0
  3  5  1  0  0  0  0
  1  4  1  0  0  0  0
  5 13  1  0  0  0  0
  5  6  2  0  0  0  0
  2  7  1  0  0  0  0
  4  8  1  0  0  0  0
  3  9  2  0  0  0  0
  2 10  1  0  0  0  0
  6 11  1  0  0  0  0
  4 12  1  0  0  0  0
 13 18  2  0  0  0  0
 10 14  2  0  0  0  0
 12 15  1  0  0  0  0
 12 16  2  0  0  0  0
 15 17  2  0  0  0  0
 16 18  1  0  0  0  0
 10 19  1  0  0  0  0
  9 20  1  0  0  0  0
 19 21  1  0  0  0  0
  7  8  2  0  0  0  0
 13 17  1  0  0  0  0
  9 11  1  0  0  0  0
M  END
> <MOLFORMULA>
C14 H12 N4 O3

> <MOLWEIGHT>
2.842738000000000e+002

> <IDNUMBER>
AT-687/NB03493

> <PRICE>
EUR 80/10 mg

> <Similarity score>
0.19

$$$$

  -OEChem-04222410502D

 40 44  0     0  0  0  0  0  0999 V2000
    4.5792    6.4167    0.0000 C   0  0  0  0  0  0  0  0  0  0  0  0
    3.7292    7.5542    0.0000 C   0  0  0  0  0  0  0  0  0  0  0  0
   15.4292    4.8792    0.0000 N   0  0  0  0  0  0  0  0  0  0  0  0
   14.2667    4.1875    0.0000 N   0  0  3  0  0  0  0  0  0  0  0  0
   13.0542    6.2792    0.0000 C   0  0  0  0  0  0  0  0  0  0  0  0
    3.7292    5.2792    0.0000 S   0  0  0  0  0  0  0  0  0  0  0  0
   15.4292    6.2792    0.0000 C   0  0  0  0  0  0  0  0  0  0  0  0
    2.4042    7.1292    0.0000 C   0  0  0  0  0  0  0  0  0  0  0  0
    5.9917    6.4167    0.0000 N   0  0  0  0  0  0  0  0  0  0  0  0
    2.4042    5.7125    0.0000 C   0  0  0  0  0  0  0  0  0  0  0  0
   13.0542    4.8792    0.0000 C   0  0  0  0  0  0  0  0  0  0  0  0
    8.1167    5.1917    0.0000 C   0  0  0  0  0  0  0  0  0  0  0  0
    6.7042    5.1917    0.0000 C   0  0  0  0  0  0  0  0  0  0  0  0
    4.2000    8.9250    0.0000 C   0  0  0  0  0  0  0  0  0  0  0  0
    4.5792   10.2917    0.0000 N   0  0  0  0  0  0  0  0  0  0  0  0
   10.8167    6.2792    0.0000 N   0  0  0  0  0  0  0  0  0  0  0  0
   16.4042    7.3042    0.0000 C   0  0  0  0  0  0  0  0  0  0  0  0
   11.8417    6.9292    0.0000 C   0  0  0  0  0  0  0  0  0  0  0  0
    9.3917    6.2792    0.0000 N   0  0  0  0  0  0  0  0  0  0  0  0
   14.2667    2.7958    0.0000 C   0  0  0  0  0  0  0  0  0  0  0  0
    8.8292    3.9708    0.0000 O   0  0  0  0  0  0  0  0  0  0  0  0
    5.9917    3.9708    0.0000 O   0  0  0  0  0  0  0  0  0  0  0  0
   17.7542    6.9292    0.0000 C   0  0  0  0  0  0  0  0  0  0  0  0
   16.0292    8.6042    0.0000 C   0  0  0  0  0  0  0  0  0  0  0  0
   18.3625    9.2542    0.0000 C   0  0  0  0  0  0  0  0  0  0  0  0
    1.1792    7.8375    0.0000 C   0  0  0  0  0  0  0  0  0  0  0  0
   17.0125    9.6292    0.0000 C   0  0  0  0  0  0  0  0  0  0  0  0
   18.7292    7.9042    0.0000 C   0  0  0  0  0  0  0  0  0  0  0  0
    1.1792    5.0042    0.0000 C   0  0  0  0  0  0  0  0  0  0  0  0
   19.3375   10.2792    0.0000 O   0  0  0  0  0  0  0  0  0  0  0  0
   13.0542    2.0958    0.0000 C   0  0  0  0  0  0  0  0  0  0  0  0
   15.4750    2.0958    0.0000 C   0  0  0  0  0  0  0  0  0  0  0  0
   20.6875    9.9125    0.0000 C   0  0  0  0  0  0  0  0  0  0  0  0
   21.6667   10.8792    0.0000 C   0  0  0  0  0  0  0  0  0  0  0  0
    0.0000    7.1292    0.0000 C   0  0  0  0  0  0  0  0  0  0  0  0
    0.0000    5.7125    0.0000 C   0  0  0  0  0  0  0  0  0  0  0  0
   23.0167   10.5167    0.0000 C   0  0  0  0  0  0  0  0  0  0  0  0
   13.0542    0.7000    0.0000 C   0  0  0  0  0  0  0  0  0  0  0  0
   15.4750    0.7000    0.0000 C   0  0  0  0  0  0  0  0  0  0  0  0
   14.2667   -0.0000    0.0000 C   0  0  0  0  0  0  0  0  0  0  0  0
  1  2  2  0  0  0  0
  3  7  2  0  0  0  0
  4 11  1  0  0  0  0
  5 18  1  0  0  0  0
  1  6  1  0  0  0  0
  5  7  1  0  0  0  0
  2  8  1  0  0  0  0
  1  9  1  0  0  0  0
  6 10  1  0  0  0  0
  5 11  2  0  0  0  0
 12 13  1  0  0  0  0
  9 13  1  0  0  0  0
  2 14  1  0  0  0  0
 14 15  3  0  0  0  0
 16 19  1  0  0  0  0
  7 17  1  0  0  0  0
 16 18  2  0  0  0  0
 12 19  1  0  0  0  0
  4 20  1  0  0  0  0
 12 21  2  0  0  0  0
 13 22  2  0  0  0  0
 17 23  2  0  0  0  0
 17 24  1  0  0  0  0
 25 27  1  0  0  0  0
  8 26  1  0  0  0  0
 24 27  2  0  0  0  0
 23 28  1  0  0  0  0
 10 29  1  0  0  0  0
 25 30  1  0  0  0  0
 20 31  2  0  0  0  0
 20 32  1  0  0  0  0
 30 33  1  0  0  0  0
 33 34  1  0  0  0  0
 26 35  1  0  0  0  0
 29 36  1  0  0  0  0
 34 37  1  0  0  0  0
 31 38  1  0  0  0  0
 32 39  2  0  0  0  0
 39 40  1  0  0  0  0
  8 10  2  0  0  0  0
 35 36  1  0  0  0  0
  3  4  1  0  0  0  0
 25 28  2  0  0  0  0
 38 40  2  0  0  0  0
M  END
> <MOLFORMULA>
C30 H28 N6 O3 S

> <MOLWEIGHT>
5.526562000000000e+002

> <IDNUMBER>
AT-225/NB80519

> <PRICE>
EUR 140/10 mg

> <Similarity score>
0.19

$$$$

  -OEChem-04222410502D

 37 41  0     0  0  0  0  0  0999 V2000
   -4.6833   -0.0000    0.0000 C   0  0  0  0  0  0  0  0  0  0  0  0
   -5.9042    0.5417    0.0000 C   0  0  0  0  0  0  0  0  0  0  0  0
    5.2542   -2.2042    0.0000 N   0  0  0  0  0  0  0  0  0  0  0  0
    4.1542   -2.9875    0.0000 N   0  0  3  0  0  0  0  0  0  0  0  0
    3.4875   -0.8958    0.0000 C   0  0  0  0  0  0  0  0  0  0  0  0
   -4.8208   -1.3375    0.0000 S   0  0  0  0  0  0  0  0  0  0  0  0
    4.8500   -0.9250    0.0000 C   0  0  0  0  0  0  0  0  0  0  0  0
   -6.7958   -0.4583    0.0000 C   0  0  0  0  0  0  0  0  0  0  0  0
   -3.4833    0.6625    0.0000 N   0  0  0  0  0  0  0  0  0  0  0  0
   -6.1375   -1.6167    0.0000 C   0  0  0  0  0  0  0  0  0  0  0  0
    3.0792   -2.2042    0.0000 C   0  0  0  0  0  0  0  0  0  0  0  0
   -1.1625    0.6625    0.0000 C   0  0  0  0  0  0  0  0  0  0  0  0
   -2.3208   -0.0000    0.0000 C   0  0  0  0  0  0  0  0  0  0  0  0
   -6.1667    1.8500    0.0000 C   0  0  0  0  0  0  0  0  0  0  0  0
   -6.4375    3.1625    0.0000 N   0  0  0  0  0  0  0  0  0  0  0  0
    1.3375   -0.0000    0.0000 N   0  0  0  0  0  0  0  0  0  0  0  0
    6.0375   -0.2583    0.0000 C   0  0  0  0  0  0  0  0  0  0  0  0
    2.6750    0.1750    0.0000 C   0  0  0  0  0  0  0  0  0  0  0  0
    0.0000   -0.0000    0.0000 N   0  0  0  0  0  0  0  0  0  0  0  0
    4.1375   -4.3208    0.0000 C   0  0  0  0  0  0  0  0  0  0  0  0
   -1.1625    1.9917    0.0000 O   0  0  0  0  0  0  0  0  0  0  0  0
   -2.3208   -1.3292    0.0000 O   0  0  0  0  0  0  0  0  0  0  0  0
    7.2000   -0.9250    0.0000 C   0  0  0  0  0  0  0  0  0  0  0  0
    6.0375    1.0750    0.0000 C   0  0  0  0  0  0  0  0  0  0  0  0
    8.3583    1.0750    0.0000 C   0  0  0  0  0  0  0  0  0  0  0  0
   -8.1583   -0.4583    0.0000 C   0  0  0  0  0  0  0  0  0  0  0  0
    8.3583   -0.2583    0.0000 C   0  0  0  0  0  0  0  0  0  0  0  0
    7.2000    1.7417    0.0000 C   0  0  0  0  0  0  0  0  0  0  0  0
   -6.7958   -2.7792    0.0000 C   0  0  0  0  0  0  0  0  0  0  0  0
    9.5208    1.7417    0.0000 Br  0  0  0  0  0  0  0  0  0  0  0  0
    5.2708   -5.0042    0.0000 C   0  0  0  0  0  0  0  0  0  0  0  0
    2.9792   -4.9875    0.0000 C   0  0  0  0  0  0  0  0  0  0  0  0
   -8.8167   -1.6167    0.0000 C   0  0  0  0  0  0  0  0  0  0  0  0
   -8.1583   -2.7792    0.0000 C   0  0  0  0  0  0  0  0  0  0  0  0
    2.9625   -6.3208    0.0000 C   0  0  0  0  0  0  0  0  0  0  0  0
    5.2542   -6.3375    0.0000 C   0  0  0  0  0  0  0  0  0  0  0  0
    4.1250   -7.0208    0.0000 C   0  0  0  0  0  0  0  0  0  0  0  0
  1  2  2  0  0  0  0
  3  7  2  0  0  0  0
  4 11  1  0  0  0  0
  5 18  1  0  0  0  0
  1  6  1  0  0  0  0
  5  7  1  0  0  0  0
  2  8  1  0  0  0  0
  1  9  1  0  0  0  0
  6 10  1  0  0  0  0
  5 11  2  0  0  0  0
 12 13  1  0  0  0  0
  9 13  1  0  0  0  0
  2 14  1  0  0  0  0
 14 15  3  0  0  0  0
 16 19  1  0  0  0  0
  7 17  1  0  0  0  0
 16 18  2  0  0  0  0
 12 19  1  0  0  0  0
  4 20  1  0  0  0  0
 12 21  2  0  0  0  0
 13 22  2  0  0  0  0
 17 23  1  0  0  0  0
 17 24  2  0  0  0  0
 25 28  2  0  0  0  0
  8 26  1  0  0  0  0
 23 27  2  0  0  0  0
 24 28  1  0  0  0  0
 10 29  1  0  0  0  0
 25 30  1  0  0  0  0
 20 31  1  0  0  0  0
 20 32  2  0  0  0  0
 26 33  1  0  0  0  0
 29 34  1  0  0  0  0
 32 35  1  0  0  0  0
 31 36  2  0  0  0  0
 35 37  2  0  0  0  0
  8 10  2  0  0  0  0
 33 34  1  0  0  0  0
  3  4  1  0  0  0  0
 25 27  1  0  0  0  0
 36 37  1  0  0  0  0
M  END
> <MOLFORMULA>
C27 H21 Br N6 O2 S

> <MOLWEIGHT>
5.734729000000000e+002

> <IDNUMBER>
AT-225/NB49474

> <PRICE>
EUR 140/10 mg

> <Similarity score>
0.19

$$$$

  -OEChem-04222410502D

 37 41  0     0  0  0  0  0  0999 V2000
   -4.6833   -0.0000    0.0000 C   0  0  0  0  0  0  0  0  0  0  0  0
   -5.9042    0.5417    0.0000 C   0  0  0  0  0  0  0  0  0  0  0  0
    5.7167    0.9000    0.0000 N   0  0  0  0  0  0  0  0  0  0  0  0
    4.9167    1.9667    0.0000 N   0  0  3  0  0  0  0  0  0  0  0  0
    3.6958    0.2417    0.0000 C   0  0  0  0  0  0  0  0  0  0  0  0
   -4.8208   -1.3375    0.0000 S   0  0  0  0  0  0  0  0  0  0  0  0
    4.9458   -0.1792    0.0000 C   0  0  0  0  0  0  0  0  0  0  0  0
   -6.7958   -0.4583    0.0000 C   0  0  0  0  0  0  0  0  0  0  0  0
   -3.4833    0.6625    0.0000 N   0  0  0  0  0  0  0  0  0  0  0  0
   -6.1375   -1.6167    0.0000 C   0  0  0  0  0  0  0  0  0  0  0  0
    3.6958    1.5750    0.0000 C   0  0  0  0  0  0  0  0  0  0  0  0
   -1.1625    0.6625    0.0000 C   0  0  0  0  0  0  0  0  0  0  0  0
   -2.3208   -0.0000    0.0000 C   0  0  0  0  0  0  0  0  0  0  0  0
   -6.1667    1.8500    0.0000 C   0  0  0  0  0  0  0  0  0  0  0  0
   -6.4375    3.1625    0.0000 N   0  0  0  0  0  0  0  0  0  0  0  0
    1.3375   -0.0000    0.0000 N   0  0  0  0  0  0  0  0  0  0  0  0
    5.2250   -1.5250    0.0000 C   0  0  0  0  0  0  0  0  0  0  0  0
    2.5750   -0.5292    0.0000 C   0  0  0  0  0  0  0  0  0  0  0  0
    0.0000   -0.0000    0.0000 N   0  0  0  0  0  0  0  0  0  0  0  0
    5.3792    3.2542    0.0000 C   0  0  0  0  0  0  0  0  0  0  0  0
   -1.1625    1.9917    0.0000 O   0  0  0  0  0  0  0  0  0  0  0  0
   -2.3208   -1.3292    0.0000 O   0  0  0  0  0  0  0  0  0  0  0  0
    6.5000   -1.9458    0.0000 C   0  0  0  0  0  0  0  0  0  0  0  0
    4.2417   -2.3958    0.0000 C   0  0  0  0  0  0  0  0  0  0  0  0
   -8.1583   -0.4583    0.0000 C   0  0  0  0  0  0  0  0  0  0  0  0
    6.7792   -3.2375    0.0000 C   0  0  0  0  0  0  0  0  0  0  0  0
    4.4958   -3.7292    0.0000 C   0  0  0  0  0  0  0  0  0  0  0  0
    5.7833   -4.1625    0.0000 C   0  0  0  0  0  0  0  0  0  0  0  0
   -6.7958   -2.7792    0.0000 C   0  0  0  0  0  0  0  0  0  0  0  0
    4.5375    4.2750    0.0000 C   0  0  0  0  0  0  0  0  0  0  0  0
    6.7250    3.4667    0.0000 C   0  0  0  0  0  0  0  0  0  0  0  0
    6.0667   -5.4667    0.0000 C   0  0  0  0  0  0  0  0  0  0  0  0
   -8.8167   -1.6167    0.0000 C   0  0  0  0  0  0  0  0  0  0  0  0
   -8.1583   -2.7792    0.0000 C   0  0  0  0  0  0  0  0  0  0  0  0
    4.9708    5.5250    0.0000 C   0  0  0  0  0  0  0  0  0  0  0  0
    7.1750    4.7375    0.0000 C   0  0  0  0  0  0  0  0  0  0  0  0
    6.2750    5.7917    0.0000 C   0  0  0  0  0  0  0  0  0  0  0  0
  1  2  2  0  0  0  0
  3  7  2  0  0  0  0
  4 11  1  0  0  0  0
  5 18  1  0  0  0  0
  1  6  1  0  0  0  0
  5  7  1  0  0  0  0
  2  8  1  0  0  0  0
  1  9  1  0  0  0  0
  6 10  1  0  0  0  0
  5 11  2  0  0  0  0
 12 13  1  0  0  0  0
  9 13  1  0  0  0  0
  2 14  1  0  0  0  0
 14 15  3  0  0  0  0
 16 19  1  0  0  0  0
  7 17  1  0  0  0  0
 16 18  2  0  0  0  0
 12 19  1  0  0  0  0
  4 20  1  0  0  0  0
 12 21  2  0  0  0  0
 13 22  2  0  0  0  0
 17 23  1  0  0  0  0
 17 24  2  0  0  0  0
  8 25  1  0  0  0  0
 23 26  2  0  0  0  0
 24 27  1  0  0  0  0
 27 28  2  0  0  0  0
 10 29  1  0  0  0  0
 20 30  1  0  0  0  0
 20 31  2  0  0  0  0
 28 32  1  0  0  0  0
 25 33  1  0  0  0  0
 29 34  1  0  0  0  0
 30 35  2  0  0  0  0
 31 36  1  0  0  0  0
 36 37  2  0  0  0  0
  8 10  2  0  0  0  0
 33 34  1  0  0  0  0
  3  4  1  0  0  0  0
 26 28  1  0  0  0  0
 35 37  1  0  0  0  0
M  END
> <MOLFORMULA>
C28 H24 N6 O2 S

> <MOLWEIGHT>
5.086036000000000e+002

> <IDNUMBER>
AT-225/NB76855

> <PRICE>
EUR 140/10 mg

> <Similarity score>
0.19

$$$$

  -OEChem-04222410502D

 37 41  0     0  0  0  0  0  0999 V2000
   -4.6833   -0.0000    0.0000 C   0  0  0  0  0  0  0  0  0  0  0  0
   -5.9042    0.5417    0.0000 C   0  0  0  0  0  0  0  0  0  0  0  0
    5.7125    0.9000    0.0000 N   0  0  0  0  0  0  0  0  0  0  0  0
    4.9167    1.9667    0.0000 N   0  0  3  0  0  0  0  0  0  0  0  0
    3.7000    0.2333    0.0000 C   0  0  0  0  0  0  0  0  0  0  0  0
   -4.8208   -1.3375    0.0000 S   0  0  0  0  0  0  0  0  0  0  0  0
    4.9500   -0.1792    0.0000 C   0  0  0  0  0  0  0  0  0  0  0  0
   -6.7958   -0.4583    0.0000 C   0  0  0  0  0  0  0  0  0  0  0  0
   -3.4833    0.6625    0.0000 N   0  0  0  0  0  0  0  0  0  0  0  0
   -6.1375   -1.6167    0.0000 C   0  0  0  0  0  0  0  0  0  0  0  0
    3.7000    1.5833    0.0000 C   0  0  0  0  0  0  0  0  0  0  0  0
   -1.1625    0.6625    0.0000 C   0  0  0  0  0  0  0  0  0  0  0  0
   -2.3208   -0.0000    0.0000 C   0  0  0  0  0  0  0  0  0  0  0  0
   -6.1667    1.8500    0.0000 C   0  0  0  0  0  0  0  0  0  0  0  0
   -6.4375    3.1625    0.0000 N   0  0  0  0  0  0  0  0  0  0  0  0
    1.3375   -0.0000    0.0000 N   0  0  0  0  0  0  0  0  0  0  0  0
    5.2333   -1.5292    0.0000 C   0  0  0  0  0  0  0  0  0  0  0  0
    2.5708   -0.5292    0.0000 C   0  0  0  0  0  0  0  0  0  0  0  0
    0.0000   -0.0000    0.0000 N   0  0  0  0  0  0  0  0  0  0  0  0
    5.3792    3.2625    0.0000 C   0  0  0  0  0  0  0  0  0  0  0  0
   -1.1625    1.9917    0.0000 O   0  0  0  0  0  0  0  0  0  0  0  0
   -2.3208   -1.3292    0.0000 O   0  0  0  0  0  0  0  0  0  0  0  0
    6.5125   -1.9625    0.0000 C   0  0  0  0  0  0  0  0  0  0  0  0
    4.2500   -2.4083    0.0000 C   0  0  0  0  0  0  0  0  0  0  0  0
    5.7958   -4.1708    0.0000 C   0  0  0  0  0  0  0  0  0  0  0  0
   -8.1583   -0.4583    0.0000 C   0  0  0  0  0  0  0  0  0  0  0  0
    4.5000   -3.7417    0.0000 C   0  0  0  0  0  0  0  0  0  0  0  0
    6.7792   -3.2417    0.0000 C   0  0  0  0  0  0  0  0  0  0  0  0
   -6.7958   -2.7792    0.0000 C   0  0  0  0  0  0  0  0  0  0  0  0
    6.0958   -5.4708    0.0000 F   0  0  0  0  0  0  0  0  0  0  0  0
    6.7292    3.4792    0.0000 C   0  0  0  0  0  0  0  0  0  0  0  0
    4.5500    4.2875    0.0000 C   0  0  0  0  0  0  0  0  0  0  0  0
   -8.8167   -1.6167    0.0000 C   0  0  0  0  0  0  0  0  0  0  0  0
   -8.1583   -2.7792    0.0000 C   0  0  0  0  0  0  0  0  0  0  0  0
    7.1792    4.7542    0.0000 C   0  0  0  0  0  0  0  0  0  0  0  0
    4.9833    5.5375    0.0000 C   0  0  0  0  0  0  0  0  0  0  0  0
    6.2792    5.8042    0.0000 C   0  0  0  0  0  0  0  0  0  0  0  0
  1  2  2  0  0  0  0
  3  7  2  0  0  0  0
  4 11  1  0  0  0  0
  5 18  1  0  0  0  0
  1  6  1  0  0  0  0
  5  7  1  0  0  0  0
  2  8  1  0  0  0  0
  1  9  1  0  0  0  0
  6 10  1  0  0  0  0
  5 11  2  0  0  0  0
 12 13  1  0  0  0  0
  9 13  1  0  0  0  0
  2 14  1  0  0  0  0
 14 15  3  0  0  0  0
 16 19  1  0  0  0  0
  7 17  1  0  0  0  0
 16 18  2  0  0  0  0
 12 19  1  0  0  0  0
  4 20  1  0  0  0  0
 12 21  2  0  0  0  0
 13 22  2  0  0  0  0
 17 23  1  0  0  0  0
 17 24  2  0  0  0  0
 25 27  2  0  0  0  0
  8 26  1  0  0  0  0
 24 27  1  0  0  0  0
 23 28  2  0  0  0  0
 10 29  1  0  0  0  0
 25 30  1  0  0  0  0
 20 31  2  0  0  0  0
 20 32  1  0  0  0  0
 26 33  1  0  0  0  0
 29 34  1  0  0  0  0
 31 35  1  0  0  0  0
 32 36  2  0  0  0  0
 36 37  1  0  0  0  0
  8 10  2  0  0  0  0
 33 34  1  0  0  0  0
  3  4  1  0  0  0  0
 25 28  1  0  0  0  0
 35 37  2  0  0  0  0
M  END
> <MOLFORMULA>
C27 H21 F N6 O2 S

> <MOLWEIGHT>
5.125669000000000e+002

> <IDNUMBER>
AT-225/NB49452

> <PRICE>
EUR 140/10 mg

> <Similarity score>
0.19

$$$$

  -OEChem-04222410502D

 36 40  0     0  0  0  0  0  0999 V2000
   -4.6833   -0.0000    0.0000 C   0  0  0  0  0  0  0  0  0  0  0  0
   -5.9042    0.5417    0.0000 C   0  0  0  0  0  0  0  0  0  0  0  0
    5.7125    0.9000    0.0000 N   0  0  0  0  0  0  0  0  0  0  0  0
    4.9167    1.9667    0.0000 N   0  0  3  0  0  0  0  0  0  0  0  0
    3.6958    0.2417    0.0000 C   0  0  0  0  0  0  0  0  0  0  0  0
   -4.8208   -1.3375    0.0000 S   0  0  0  0  0  0  0  0  0  0  0  0
    4.9417   -0.1792    0.0000 C   0  0  0  0  0  0  0  0  0  0  0  0
   -6.7958   -0.4583    0.0000 C   0  0  0  0  0  0  0  0  0  0  0  0
   -3.4833    0.6625    0.0000 N   0  0  0  0  0  0  0  0  0  0  0  0
   -6.1375   -1.6167    0.0000 C   0  0  0  0  0  0  0  0  0  0  0  0
    3.6958    1.5708    0.0000 C   0  0  0  0  0  0  0  0  0  0  0  0
   -1.1625    0.6625    0.0000 C   0  0  0  0  0  0  0  0  0  0  0  0
   -2.3208   -0.0000    0.0000 C   0  0  0  0  0  0  0  0  0  0  0  0
   -6.1667    1.8500    0.0000 C   0  0  0  0  0  0  0  0  0  0  0  0
   -6.4375    3.1625    0.0000 N   0  0  0  0  0  0  0  0  0  0  0  0
    1.3375   -0.0000    0.0000 N   0  0  0  0  0  0  0  0  0  0  0  0
    2.5750   -0.5292    0.0000 C   0  0  0  0  0  0  0  0  0  0  0  0
    0.0000   -0.0000    0.0000 N   0  0  0  0  0  0  0  0  0  0  0  0
    5.3792    3.2542    0.0000 C   0  0  0  0  0  0  0  0  0  0  0  0
   -1.1625    1.9917    0.0000 O   0  0  0  0  0  0  0  0  0  0  0  0
    5.2250   -1.5250    0.0000 C   0  0  0  0  0  0  0  0  0  0  0  0
   -2.3208   -1.3292    0.0000 O   0  0  0  0  0  0  0  0  0  0  0  0
   -8.1583   -0.4583    0.0000 C   0  0  0  0  0  0  0  0  0  0  0  0
   -6.7958   -2.7792    0.0000 C   0  0  0  0  0  0  0  0  0  0  0  0
    6.7250    3.4667    0.0000 C   0  0  0  0  0  0  0  0  0  0  0  0
    4.5375    4.2750    0.0000 C   0  0  0  0  0  0  0  0  0  0  0  0
    6.5000   -1.9458    0.0000 C   0  0  0  0  0  0  0  0  0  0  0  0
    4.2417   -2.3958    0.0000 C   0  0  0  0  0  0  0  0  0  0  0  0
   -8.8167   -1.6167    0.0000 C   0  0  0  0  0  0  0  0  0  0  0  0
   -8.1583   -2.7792    0.0000 C   0  0  0  0  0  0  0  0  0  0  0  0
    4.9708    5.5208    0.0000 C   0  0  0  0  0  0  0  0  0  0  0  0
    6.7792   -3.2375    0.0000 C   0  0  0  0  0  0  0  0  0  0  0  0
    4.4958   -3.7292    0.0000 C   0  0  0  0  0  0  0  0  0  0  0  0
    7.1708    4.7375    0.0000 C   0  0  0  0  0  0  0  0  0  0  0  0
    5.7833   -4.1625    0.0000 C   0  0  0  0  0  0  0  0  0  0  0  0
    6.2750    5.7875    0.0000 C   0  0  0  0  0  0  0  0  0  0  0  0
  1  2  2  0  0  0  0
  3  7  2  0  0  0  0
  4 11  1  0  0  0  0
  5 17  1  0  0  0  0
  1  6  1  0  0  0  0
  5  7  1  0  0  0  0
  2  8  1  0  0  0  0
  1  9  1  0  0  0  0
  6 10  1  0  0  0  0
  5 11  2  0  0  0  0
 12 13  1  0  0  0  0
  9 13  1  0  0  0  0
  2 14  1  0  0  0  0
 14 15  3  0  0  0  0
 16 18  1  0  0  0  0
 16 17  2  0  0  0  0
 12 18  1  0  0  0  0
  4 19  1  0  0  0  0
 12 20  2  0  0  0  0
  7 21  1  0  0  0  0
 13 22  2  0  0  0  0
  8 23  1  0  0  0  0
 10 24  1  0  0  0  0
 19 25  2  0  0  0  0
 19 26  1  0  0  0  0
 21 27  1  0  0  0  0
 21 28  2  0  0  0  0
 23 29  1  0  0  0  0
 24 30  1  0  0  0  0
 26 31  2  0  0  0  0
 27 32  2  0  0  0  0
 28 33  1  0  0  0  0
 25 34  1  0  0  0  0
 33 35  2  0  0  0  0
 31 36  1  0  0  0  0
  8 10  2  0  0  0  0
 29 30  1  0  0  0  0
  3  4  1  0  0  0  0
 32 35  1  0  0  0  0
 34 36  2  0  0  0  0
M  END
> <MOLFORMULA>
C27 H22 N6 O2 S

> <MOLWEIGHT>
4.945768000000000e+002

> <IDNUMBER>
AT-225/NB49654

> <PRICE>
EUR 140/10 mg

> <Similarity score>
0.19

$$$$

  -OEChem-04222410502D

 30 33  0     0  0  0  0  0  0999 V2000
    5.0292   -5.0292    0.0000 C   0  0  0  0  0  0  0  0  0  0  0  0
    4.5417   -4.3667    0.0000 C   0  0  0  0  0  0  0  0  0  0  0  0
    7.5667   -7.8375    0.0000 N   0  0  3  0  0  0  0  0  0  0  0  0
    7.0792   -7.1792    0.0000 C   0  0  0  0  0  0  0  0  0  0  0  0
    7.5667   -6.5042    0.0000 N   0  0  0  0  0  0  0  0  0  0  0  0
    8.3500   -6.7542    0.0000 N   0  0  0  0  0  0  0  0  0  0  0  0
    8.3542   -7.5792    0.0000 N   0  0  0  0  0  0  0  0  0  0  0  0
    4.5417   -5.6917    0.0000 S   0  0  0  0  0  0  0  0  0  0  0  0
    3.7625   -4.6167    0.0000 C   0  0  0  0  0  0  0  0  0  0  0  0
    3.7625   -5.4417    0.0000 C   0  0  0  0  0  0  0  0  0  0  0  0
    5.8542   -5.0375    0.0000 N   0  0  0  0  0  0  0  0  0  0  0  0
    4.8042   -3.5792    0.0000 C   0  0  0  0  0  0  0  0  0  0  0  0
    6.2542   -7.1792    0.0000 S   0  0  0  0  0  0  0  0  0  0  0  0
    5.0625   -2.8000    0.0000 N   0  0  0  0  0  0  0  0  0  0  0  0
    7.3167   -8.6250    0.0000 C   0  0  0  0  0  0  0  0  0  0  0  0
    6.5750  -10.9792    0.0000 C   0  0  0  0  0  0  0  0  0  0  0  0
    6.2625   -5.7542    0.0000 C   0  0  0  0  0  0  0  0  0  0  0  0
    6.8250  -10.1917    0.0000 C   0  0  0  0  0  0  0  0  0  0  0  0
    7.1375  -11.5917    0.0000 O   0  0  0  0  0  0  0  0  0  0  0  0
    7.0875   -5.7542    0.0000 O   0  0  0  0  0  0  0  0  0  0  0  0
    6.5167   -8.8000    0.0000 C   0  0  0  0  0  0  0  0  0  0  0  0
    7.8792   -9.2292    0.0000 C   0  0  0  0  0  0  0  0  0  0  0  0
    7.6292  -10.0167    0.0000 C   0  0  0  0  0  0  0  0  0  0  0  0
    6.2667   -9.5875    0.0000 C   0  0  0  0  0  0  0  0  0  0  0  0
    5.8500   -6.4625    0.0000 C   0  0  0  0  0  0  0  0  0  0  0  0
    5.7750  -11.1625    0.0000 O   0  0  0  0  0  0  0  0  0  0  0  0
    3.0500   -4.2042    0.0000 C   0  0  0  0  0  0  0  0  0  0  0  0
    3.0500   -5.8542    0.0000 C   0  0  0  0  0  0  0  0  0  0  0  0
    2.3417   -4.6167    0.0000 C   0  0  0  0  0  0  0  0  0  0  0  0
    2.3417   -5.4417    0.0000 C   0  0  0  0  0  0  0  0  0  0  0  0
  1  2  2  0  0  0  0
  3  4  1  0  0  0  0
  4 13  1  0  0  0  0
  4  5  2  0  0  0  0
  5  6  1  0  0  0  0
  3  7  1  0  0  0  0
  1  8  1  0  0  0  0
  2  9  1  0  0  0  0
  8 10  1  0  0  0  0
  1 11  1  0  0  0  0
  2 12  1  0  0  0  0
 13 25  1  0  0  0  0
 12 14  3  0  0  0  0
  3 15  1  0  0  0  0
 16 18  1  0  0  0  0
 11 17  1  0  0  0  0
 18 23  1  0  0  0  0
 16 19  2  0  0  0  0
 17 20  2  0  0  0  0
 15 21  2  0  0  0  0
 15 22  1  0  0  0  0
 22 23  2  0  0  0  0
 21 24  1  0  0  0  0
 17 25  1  0  0  0  0
 16 26  1  0  0  0  0
  9 27  1  0  0  0  0
 10 28  1  0  0  0  0
 27 29  1  0  0  0  0
 28 30  1  0  0  0  0
  9 10  2  0  0  0  0
 29 30  1  0  0  0  0
  6  7  2  0  0  0  0
 18 24  2  0  0  0  0
M  END
> <MOLFORMULA>
C19 H16 N6 O3 S2

> <MOLWEIGHT>
4.405064000000000e+002

> <IDNUMBER>
AP-853/J242427

> <Similarity score>
0.19

$$$$

  -OEChem-04222410502D

 21 23  0     0  0  0  0  0  0999 V2000
   -0.4750   -1.5167    0.0000 C   0  0  0  0  0  0  0  0  0  0  0  0
   -0.6833   -2.4958    0.0000 C   0  0  0  0  0  0  0  0  0  0  0  0
   -1.3417   -1.0167    0.0000 S   0  0  0  0  0  0  0  0  0  0  0  0
   -1.6792   -2.6000    0.0000 C   0  0  0  0  0  0  0  0  0  0  0  0
    0.4375   -1.1125    0.0000 N   0  0  0  0  0  0  0  0  0  0  0  0
   -2.0833   -1.6875    0.0000 C   0  0  0  0  0  0  0  0  0  0  0  0
    0.5417   -0.1167    0.0000 C   0  0  0  0  0  0  0  0  0  0  0  0
   -0.0125   -3.2375    0.0000 C   0  0  0  0  0  0  0  0  0  0  0  0
    0.9625   -3.0292    0.0000 N   0  0  0  0  0  0  0  0  0  0  0  0
    1.4542    0.2917    0.0000 C   0  0  0  0  0  0  0  0  0  0  0  0
   -0.2667    0.4708    0.0000 O   0  0  0  0  0  0  0  0  0  0  0  0
    1.5583    1.2833    0.0000 C   0  0  0  0  0  0  0  0  0  0  0  0
   -2.4208   -3.2708    0.0000 C   0  0  0  0  0  0  0  0  0  0  0  0
    2.4750    1.6917    0.0000 C   0  0  0  0  0  0  0  0  0  0  0  0
   -3.0792   -1.7917    0.0000 C   0  0  0  0  0  0  0  0  0  0  0  0
    2.5792    2.6875    0.0000 O   0  0  0  0  0  0  0  0  0  0  0  0
    2.2667   -0.2958    0.0000 C   0  0  0  0  0  0  0  0  0  0  0  0
   -3.2875   -2.7708    0.0000 C   0  0  0  0  0  0  0  0  0  0  0  0
    3.1792    0.1083    0.0000 C   0  0  0  0  0  0  0  0  0  0  0  0
    3.2833    1.1042    0.0000 C   0  0  0  0  0  0  0  0  0  0  0  0
    1.7708    3.2750    0.0000 C   0  0  0  0  0  0  0  0  0  0  0  0
  1  2  2  0  0  0  0
  1  3  1  0  0  0  0
  2  4  1  0  0  0  0
  1  5  1  0  0  0  0
  3  6  1  0  0  0  0
  5  7  1  0  0  0  0
  2  8  1  0  0  0  0
  8  9  3  0  0  0  0
  7 10  1  0  0  0  0
  7 11  2  0  0  0  0
 10 12  2  0  0  0  0
  4 13  1  0  0  0  0
 12 14  1  0  0  0  0
  6 15  1  0  0  0  0
 14 16  1  0  0  0  0
 10 17  1  0  0  0  0
 15 18  1  0  0  0  0
 17 19  2  0  0  0  0
 19 20  1  0  0  0  0
 16 21  1  0  0  0  0
  4  6  2  0  0  0  0
 13 18  1  0  0  0  0
 14 20  2  0  0  0  0
M  END
> <MOLFORMULA>
C16 H14 N2 O2 S

> <MOLWEIGHT>
2.983646000000000e+002

> <IDNUMBER>
AN-153/I181368

> <PRICE>
EUR 130/10 mg

> <Similarity score>
0.18

$$$$

  -OEChem-04222410502D

 21 23  0     0  0  0  0  0  0999 V2000
    0.0250    1.7000    0.0000 C   0  0  0  0  0  0  0  0  0  0  0  0
   -0.3833    2.6125    0.0000 C   0  0  0  0  0  0  0  0  0  0  0  0
    1.0208    1.8042    0.0000 S   0  0  0  0  0  0  0  0  0  0  0  0
    0.3625    3.2833    0.0000 C   0  0  0  0  0  0  0  0  0  0  0  0
   -0.4750    0.8333    0.0000 N   0  0  0  0  0  0  0  0  0  0  0  0
    1.2292    2.7833    0.0000 C   0  0  0  0  0  0  0  0  0  0  0  0
    0.0250   -0.0333    0.0000 C   0  0  0  0  0  0  0  0  0  0  0  0
   -1.3583    2.8208    0.0000 C   0  0  0  0  0  0  0  0  0  0  0  0
   -1.6708    3.7708    0.0000 N   0  0  0  0  0  0  0  0  0  0  0  0
   -0.4750   -0.8958    0.0000 C   0  0  0  0  0  0  0  0  0  0  0  0
    1.0250   -0.0333    0.0000 O   0  0  0  0  0  0  0  0  0  0  0  0
   -1.4750   -0.8958    0.0000 C   0  0  0  0  0  0  0  0  0  0  0  0
    0.0250   -1.7625    0.0000 C   0  0  0  0  0  0  0  0  0  0  0  0
    0.5708    4.2583    0.0000 C   0  0  0  0  0  0  0  0  0  0  0  0
   -1.4750   -2.6292    0.0000 C   0  0  0  0  0  0  0  0  0  0  0  0
    1.9708    3.4542    0.0000 C   0  0  0  0  0  0  0  0  0  0  0  0
   -0.4750   -2.6292    0.0000 C   0  0  0  0  0  0  0  0  0  0  0  0
   -1.9750   -1.7625    0.0000 C   0  0  0  0  0  0  0  0  0  0  0  0
   -1.9750   -3.4958    0.0000 O   0  0  0  0  0  0  0  0  0  0  0  0
    1.5625    4.3625    0.0000 C   0  0  0  0  0  0  0  0  0  0  0  0
   -1.4750   -4.3625    0.0000 C   0  0  0  0  0  0  0  0  0  0  0  0
  1  2  2  0  0  0  0
  1  3  1  0  0  0  0
  2  4  1  0  0  0  0
  1  5  1  0  0  0  0
  3  6  1  0  0  0  0
  5  7  1  0  0  0  0
  2  8  1  0  0  0  0
  8  9  3  0  0  0  0
  7 10  1  0  0  0  0
  7 11  2  0  0  0  0
 10 12  1  0  0  0  0
 10 13  2  0  0  0  0
  4 14  1  0  0  0  0
 15 17  2  0  0  0  0
  6 16  1  0  0  0  0
 13 17  1  0  0  0  0
 12 18  2  0  0  0  0
 15 19  1  0  0  0  0
 16 20  1  0  0  0  0
 19 21  1  0  0  0  0
  4  6  2  0  0  0  0
 14 20  1  0  0  0  0
 15 18  1  0  0  0  0
M  END
> <MOLFORMULA>
C16 H14 N2 O2 S

> <MOLWEIGHT>
2.983646000000000e+002

> <IDNUMBER>
AN-153/I236325

> <PRICE>
EUR 130/10 mg

> <Similarity score>
0.18

$$$$

  -OEChem-04222410502D

 25 27  0     0  0  0  0  0  0999 V2000
   -0.2500    1.8375    0.0000 C   0  0  0  0  0  0  0  0  0  0  0  0
    0.2625    2.6958    0.0000 C   0  0  0  0  0  0  0  0  0  0  0  0
   -0.2708   -2.5208    0.0000 C   0  0  0  0  0  0  0  0  0  0  0  0
   -0.8708   -3.3208    0.0000 N   0  0  0  0  0  0  0  0  0  0  0  0
   -1.2250    2.0625    0.0000 S   0  0  0  0  0  0  0  0  0  0  0  0
    0.7250   -2.6375    0.0000 N   0  0  0  0  0  0  0  0  0  0  0  0
   -0.3958    3.4500    0.0000 C   0  0  0  0  0  0  0  0  0  0  0  0
    0.1458    0.9208    0.0000 N   0  0  0  0  0  0  0  0  0  0  0  0
   -1.3125    3.0583    0.0000 C   0  0  0  0  0  0  0  0  0  0  0  0
   -0.4750   -4.2375    0.0000 C   0  0  0  0  0  0  0  0  0  0  0  0
    0.5167   -4.3583    0.0000 C   0  0  0  0  0  0  0  0  0  0  0  0
    1.1167   -3.5583    0.0000 C   0  0  0  0  0  0  0  0  0  0  0  0
   -0.4542    0.1208    0.0000 C   0  0  0  0  0  0  0  0  0  0  0  0
    1.2583    2.7875    0.0000 C   0  0  0  0  0  0  0  0  0  0  0  0
   -0.6625   -1.6000    0.0000 S   0  0  0  0  0  0  0  0  0  0  0  0
    1.6792    3.6958    0.0000 N   0  0  0  0  0  0  0  0  0  0  0  0
   -0.0625   -0.8000    0.0000 C   0  0  3  0  0  0  0  0  0  0  0  0
   -1.4500    0.2375    0.0000 O   0  0  0  0  0  0  0  0  0  0  0  0
    2.1083   -3.6792    0.0000 O   0  0  0  0  0  0  0  0  0  0  0  0
   -1.0750   -5.0375    0.0000 N   0  0  0  0  0  0  0  0  0  0  0  0
   -0.2750    4.4375    0.0000 C   0  0  0  0  0  0  0  0  0  0  0  0
   -2.1125    3.6583    0.0000 C   0  0  0  0  0  0  0  0  0  0  0  0
    0.9292   -0.9208    0.0000 C   0  0  0  0  0  0  0  0  0  0  0  0
   -1.0750    5.0375    0.0000 C   0  0  0  0  0  0  0  0  0  0  0  0
   -1.9958    4.6458    0.0000 C   0  0  0  0  0  0  0  0  0  0  0  0
  1  2  2  0  0  0  0
  3 15  1  0  0  0  0
  3  4  2  0  0  0  0
  1  5  1  0  0  0  0
  3  6  1  0  0  0  0
  2  7  1  0  0  0  0
  1  8  1  0  0  0  0
  5  9  1  0  0  0  0
  4 10  1  0  0  0  0
 11 12  1  0  0  0  0
  6 12  1  0  0  0  0
  8 13  1  0  0  0  0
  2 14  1  0  0  0  0
 15 17  1  0  0  0  0
 14 16  3  0  0  0  0
 13 17  1  0  0  0  0
 13 18  2  0  0  0  0
 12 19  2  0  0  0  0
 10 20  1  0  0  0  0
  7 21  1  0  0  0  0
  9 22  1  0  0  0  0
 17 23  1  0  0  0  0
 21 24  1  0  0  0  0
 22 25  1  0  0  0  0
  7  9  2  0  0  0  0
 24 25  1  0  0  0  0
 10 11  2  0  0  0  0
M  END
> <MOLFORMULA>
C16 H17 N5 O2 S2

> <MOLWEIGHT>
3.754753000000000e+002

> <IDNUMBER>
AN-153/I240410

> <PRICE>
EUR 130/10 mg

> <Similarity score>
0.18

$$$$

  -OEChem-04222410502D

 11 12  0     0  0  0  0  0  0999 V2000
    0.1000    1.0958    0.0000 C   0  0  0  0  0  0  0  0  0  0  0  0
    0.3167    0.4125    0.0000 C   0  0  0  0  0  0  0  0  0  0  0  0
   -0.6208    1.0958    0.0000 C   0  0  0  0  0  0  0  0  0  0  0  0
   -0.2625   -0.0042    0.0000 S   0  0  0  0  0  0  0  0  0  0  0  0
   -0.8458    0.4125    0.0000 C   0  0  0  0  0  0  0  0  0  0  0  0
    0.5167    1.6958    0.0000 C   0  0  0  0  0  0  0  0  0  0  0  0
    0.9375    2.2708    0.0000 N   0  0  0  0  0  0  0  0  0  0  0  0
    1.0167    0.1958    0.0000 N   0  0  0  0  0  0  0  0  0  0  0  0
   -1.2000    1.4958    0.0000 C   0  0  0  0  0  0  0  0  0  0  0  0
   -1.5458    0.3958    0.0000 C   0  0  0  0  0  0  0  0  0  0  0  0
   -1.7625    1.0500    0.0000 C   0  0  0  0  0  0  0  0  0  0  0  0
  1  2  2  0  0  0  0
  1  3  1  0  0  0  0
  2  4  1  0  0  0  0
  3  5  2  0  0  0  0
  1  6  1  0  0  0  0
  6  7  3  0  0  0  0
  2  8  1  0  0  0  0
  3  9  1  0  0  0  0
  5 10  1  0  0  0  0
  9 11  1  0  0  0  0
  4  5  1  0  0  0  0
 10 11  1  0  0  0  0
M  END
> <MOLFORMULA>
C8 H8 N2 S

> <MOLWEIGHT>
1.642312000000000e+002

> <IDNUMBER>
AT-225/JK21174

> <PRICE>
EUR 140/10 mg

> <Similarity score>
0.18

$$$$

  -OEChem-04222410502D

 11 12  0     0  0  0  0  0  0999 V2000
    5.9500   -3.8167    0.0000 C   0  0  0  0  0  0  0  0  0  0  0  0
    6.2000   -4.6000    0.0000 C   0  0  0  0  0  0  0  0  0  0  0  0
    5.1250   -3.8167    0.0000 C   0  0  0  0  0  0  0  0  0  0  0  0
    5.5500   -5.0792    0.0000 S   0  0  0  0  0  0  0  0  0  0  0  0
    4.8750   -4.6000    0.0000 C   0  0  0  0  0  0  0  0  0  0  0  0
    6.4417   -3.1500    0.0000 C   0  0  0  0  0  0  0  0  0  0  0  0
    6.9250   -2.4750    0.0000 N   0  0  0  0  0  0  0  0  0  0  0  0
    6.9917   -4.8500    0.0000 N   0  0  0  0  0  0  0  0  0  0  0  0
    4.4542   -3.3292    0.0000 C   0  0  0  0  0  0  0  0  0  0  0  0
    4.0500   -4.6000    0.0000 C   0  0  0  0  0  0  0  0  0  0  0  0
    3.7917   -3.8250    0.0000 C   0  0  0  0  0  0  0  0  0  0  0  0
  1  2  2  0  0  0  0
  1  3  1  0  0  0  0
  2  4  1  0  0  0  0
  3  5  2  0  0  0  0
  1  6  1  0  0  0  0
  6  7  3  0  0  0  0
  2  8  1  0  0  0  0
  3  9  1  0  0  0  0
  5 10  1  0  0  0  0
  9 11  1  0  0  0  0
  4  5  1  0  0  0  0
 10 11  1  0  0  0  0
M  END
> <MOLFORMULA>
C8 H8 N2 S

> <MOLWEIGHT>
1.642312000000000e+002

> <IDNUMBER>
AT-687/PE32837

> <PRICE>
EUR 80/10 mg

> <Similarity score>
0.18

$$$$

  -OEChem-04222410502D

 11 12  0     0  0  0  0  0  0999 V2000
    3.4875   -2.1542    0.0000 C   0  0  0  0  0  0  0  0  0  0  0  0
    3.8917   -3.4250    0.0000 C   0  0  0  0  0  0  0  0  0  0  0  0
    2.1542   -2.1542    0.0000 C   0  0  0  0  0  0  0  0  0  0  0  0
    2.8292   -4.2042    0.0000 S   0  0  0  0  0  0  0  0  0  0  0  0
    1.7542   -3.4250    0.0000 C   0  0  0  0  0  0  0  0  0  0  0  0
    4.2667   -1.0792    0.0000 C   0  0  0  0  0  0  0  0  0  0  0  0
    5.0542   -0.0000    0.0000 N   0  0  0  0  0  0  0  0  0  0  0  0
    5.1542   -3.8292    0.0000 N   0  0  0  0  0  0  0  0  0  0  0  0
    1.0792   -1.3792    0.0000 C   0  0  0  0  0  0  0  0  0  0  0  0
    0.4167   -3.4250    0.0000 C   0  0  0  0  0  0  0  0  0  0  0  0
    0.0000   -2.1750    0.0000 C   0  0  0  0  0  0  0  0  0  0  0  0
  1  2  2  0  0  0  0
  1  3  1  0  0  0  0
  2  4  1  0  0  0  0
  3  5  2  0  0  0  0
  1  6  1  0  0  0  0
  6  7  3  0  0  0  0
  2  8  1  0  0  0  0
  3  9  1  0  0  0  0
  5 10  1  0  0  0  0
  9 11  1  0  0  0  0
  4  5  1  0  0  0  0
 10 11  1  0  0  0  0
M  END
> <MOLFORMULA>
C8 H8 N2 S

> <MOLWEIGHT>
1.642312000000000e+002

> <IDNUMBER>
AT-687/NB01828

> <PRICE>
EUR 80/10 mg

> <Similarity score>
0.18

$$$$

  -OEChem-04222410502D

 11 12  0     0  0  0  0  0  0999 V2000
   -0.5542   -0.3542    0.0000 C   0  0  0  0  0  0  0  0  0  0  0  0
   -0.9625    0.5583    0.0000 C   0  0  0  0  0  0  0  0  0  0  0  0
    0.4417   -0.2500    0.0000 C   0  0  0  0  0  0  0  0  0  0  0  0
   -0.2167    1.2250    0.0000 S   0  0  0  0  0  0  0  0  0  0  0  0
    0.6500    0.7250    0.0000 C   0  0  0  0  0  0  0  0  0  0  0  0
   -1.0542   -1.2208    0.0000 C   0  0  0  0  0  0  0  0  0  0  0  0
   -2.0542   -1.2208    0.0000 N   0  0  0  0  0  0  0  0  0  0  0  0
   -1.9375    0.7667    0.0000 N   0  0  0  0  0  0  0  0  0  0  0  0
    1.3083   -0.7500    0.0000 C   0  0  0  0  0  0  0  0  0  0  0  0
    1.6417    0.8292    0.0000 C   0  0  0  0  0  0  0  0  0  0  0  0
    2.0500   -0.0833    0.0000 C   0  0  0  0  0  0  0  0  0  0  0  0
  1  2  2  0  0  0  0
  1  3  1  0  0  0  0
  2  4  1  0  0  0  0
  3  5  2  0  0  0  0
  1  6  1  0  0  0  0
  6  7  3  0  0  0  0
  2  8  1  0  0  0  0
  3  9  1  0  0  0  0
  5 10  1  0  0  0  0
  9 11  1  0  0  0  0
  4  5  1  0  0  0  0
 10 11  1  0  0  0  0
M  END
> <MOLFORMULA>
C8 H8 N2 S

> <MOLWEIGHT>
1.642312000000000e+002

> <IDNUMBER>
AN-153/I105018

> <PRICE>
EUR 130/10 mg

> <Similarity score>
0.18

$$$$

  -OEChem-04222410502D

 11 12  0     0  0  0  0  0  0999 V2000
    3.0667   -2.4667    0.0000 C   0  0  0  0  0  0  0  0  0  0  0  0
    2.4167   -3.6417    0.0000 C   0  0  0  0  0  0  0  0  0  0  0  0
    2.1542   -1.5125    0.0000 C   0  0  0  0  0  0  0  0  0  0  0  0
    1.1250   -3.4167    0.0000 S   0  0  0  0  0  0  0  0  0  0  0  0
    0.9375   -2.1042    0.0000 C   0  0  0  0  0  0  0  0  0  0  0  0
    4.3875   -2.2792    0.0000 C   0  0  0  0  0  0  0  0  0  0  0  0
    5.7000   -2.1000    0.0000 N   0  0  0  0  0  0  0  0  0  0  0  0
    3.0125   -4.8417    0.0000 N   0  0  0  0  0  0  0  0  0  0  0  0
    1.9417   -0.2042    0.0000 C   0  0  0  0  0  0  0  0  0  0  0  0
    0.0000   -1.1542    0.0000 C   0  0  0  0  0  0  0  0  0  0  0  0
    0.6167   -0.0000    0.0000 C   0  0  0  0  0  0  0  0  0  0  0  0
  1  2  2  0  0  0  0
  1  3  1  0  0  0  0
  2  4  1  0  0  0  0
  3  5  2  0  0  0  0
  1  6  1  0  0  0  0
  6  7  3  0  0  0  0
  2  8  1  0  0  0  0
  3  9  1  0  0  0  0
  5 10  1  0  0  0  0
  9 11  1  0  0  0  0
  4  5  1  0  0  0  0
 10 11  1  0  0  0  0
M  END
> <MOLFORMULA>
C8 H8 N2 S

> <MOLWEIGHT>
1.642312000000000e+002

> <IDNUMBER>
AT-084/J157520

> <PRICE>
EUR 37.00/10 mg

> <Similarity score>
0.18

$$$$

  -OEChem-04222410502D

 31 34  0     0  0  0  0  0  0999 V2000
   11.3875   -4.8167    0.0000 C   0  0  0  0  0  0  0  0  0  0  0  0
   12.0542   -5.3042    0.0000 C   0  0  0  0  0  0  0  0  0  0  0  0
    7.1375   -3.9792    0.0000 N   0  0  0  0  0  0  0  0  0  0  0  0
   11.6417   -4.0375    0.0000 S   0  0  0  0  0  0  0  0  0  0  0  0
    6.4667   -4.4667    0.0000 C   0  0  0  0  0  0  0  0  0  0  0  0
   12.7292   -4.8292    0.0000 C   0  0  0  0  0  0  0  0  0  0  0  0
    6.7167   -5.2542    0.0000 N   0  0  0  0  0  0  0  0  0  0  0  0
   12.4667   -4.0292    0.0000 C   0  0  0  0  0  0  0  0  0  0  0  0
    7.8042   -4.4667    0.0000 C   0  0  0  0  0  0  0  0  0  0  0  0
    7.5500   -5.2542    0.0000 N   0  0  0  0  0  0  0  0  0  0  0  0
   10.6042   -5.0667    0.0000 N   0  0  0  0  0  0  0  0  0  0  0  0
    5.6792   -4.2125    0.0000 C   0  0  0  0  0  0  0  0  0  0  0  0
   12.0542   -6.1292    0.0000 C   0  0  0  0  0  0  0  0  0  0  0  0
   11.3417   -6.5417    0.0000 N   0  0  0  0  0  0  0  0  0  0  0  0
    9.9917   -4.5167    0.0000 C   0  0  0  0  0  0  0  0  0  0  0  0
    8.5917   -4.2167    0.0000 S   0  0  0  0  0  0  0  0  0  0  0  0
    5.5042   -3.4000    0.0000 C   0  0  0  0  0  0  0  0  0  0  0  0
    5.0667   -4.7625    0.0000 C   0  0  0  0  0  0  0  0  0  0  0  0
    4.1000   -3.6917    0.0000 C   0  0  0  0  0  0  0  0  0  0  0  0
    4.2792   -4.5042    0.0000 C   0  0  0  0  0  0  0  0  0  0  0  0
    4.7167   -3.1417    0.0000 C   0  0  0  0  0  0  0  0  0  0  0  0
   10.1667   -3.7125    0.0000 O   0  0  0  0  0  0  0  0  0  0  0  0
    9.2042   -4.7667    0.0000 C   0  0  0  0  0  0  0  0  0  0  0  0
   13.5375   -5.0042    0.0000 C   0  0  0  0  0  0  0  0  0  0  0  0
   13.0292   -3.4167    0.0000 C   0  0  0  0  0  0  0  0  0  0  0  0
    3.6625   -5.0667    0.0000 O   0  0  0  0  0  0  0  0  0  0  0  0
    4.5500   -2.3292    0.0000 O   0  0  0  0  0  0  0  0  0  0  0  0
    2.8750   -4.8167    0.0000 C   0  0  0  0  0  0  0  0  0  0  0  0
    5.1625   -1.7792    0.0000 C   0  0  0  0  0  0  0  0  0  0  0  0
   14.1000   -4.3792    0.0000 C   0  0  0  0  0  0  0  0  0  0  0  0
   13.8417   -3.5917    0.0000 C   0  0  0  0  0  0  0  0  0  0  0  0
  1  2  2  0  0  0  0
  3  9  1  0  0  0  0
  1  4  1  0  0  0  0
  3  5  1  0  0  0  0
  2  6  1  0  0  0  0
  7 10  1  0  0  0  0
  4  8  1  0  0  0  0
  9 16  1  0  0  0  0
  9 10  2  0  0  0  0
  1 11  1  0  0  0  0
  5 12  1  0  0  0  0
  2 13  1  0  0  0  0
 13 14  3  0  0  0  0
 11 15  1  0  0  0  0
 16 23  1  0  0  0  0
 12 17  2  0  0  0  0
 12 18  1  0  0  0  0
 19 20  1  0  0  0  0
 18 20  2  0  0  0  0
 17 21  1  0  0  0  0
 15 22  2  0  0  0  0
 15 23  1  0  0  0  0
  6 24  1  0  0  0  0
  8 25  1  0  0  0  0
 20 26  1  0  0  0  0
 21 27  1  0  0  0  0
 26 28  1  0  0  0  0
 27 29  1  0  0  0  0
 24 30  1  0  0  0  0
 25 31  1  0  0  0  0
  6  8  2  0  0  0  0
 30 31  1  0  0  0  0
  5  7  2  0  0  0  0
 19 21  2  0  0  0  0
M  END
> <MOLFORMULA>
C21 H21 N5 O3 S2

> <MOLWEIGHT>
4.555609000000000e+002

> <IDNUMBER>
AM-879/J185590

> <PRICE>
EUR 55.00/10 mg

> <Similarity score>
0.18

$$$$

  -OEChem-04222410502D

 36 39  0     0  0  0  0  0  0999 V2000
   -1.1125    0.3000    0.0000 C   0  0  0  0  0  0  0  0  0  0  0  0
   -2.3333    0.8458    0.0000 C   0  0  0  0  0  0  0  0  0  0  0  0
   -1.2500   -1.0375    0.0000 S   0  0  0  0  0  0  0  0  0  0  0  0
   -3.2333   -0.1542    0.0000 C   0  0  0  0  0  0  0  0  0  0  0  0
    0.0875    0.9625    0.0000 N   0  0  0  0  0  0  0  0  0  0  0  0
   -2.5708   -1.3167    0.0000 C   0  0  0  0  0  0  0  0  0  0  0  0
    2.4042    0.9625    0.0000 C   0  0  0  0  0  0  0  0  0  0  0  0
    1.2500    0.3000    0.0000 C   0  0  0  0  0  0  0  0  0  0  0  0
   10.9167    1.4625    0.0000 C   0  0  0  0  0  0  0  0  0  0  0  0
   -2.6000    2.1500    0.0000 C   0  0  0  0  0  0  0  0  0  0  0  0
   -2.8708    3.4625    0.0000 N   0  0  0  0  0  0  0  0  0  0  0  0
    9.5792    1.4500    0.0000 O   0  0  0  0  0  0  0  0  0  0  0  0
    4.9042    0.3000    0.0000 N   0  0  0  0  0  0  0  0  0  0  0  0
   11.5917    0.3083    0.0000 C   0  0  0  0  0  0  0  0  0  0  0  0
    3.5667    0.3000    0.0000 N   0  0  0  0  0  0  0  0  0  0  0  0
    2.4042    2.2958    0.0000 O   0  0  0  0  0  0  0  0  0  0  0  0
    1.2500   -1.0292    0.0000 O   0  0  0  0  0  0  0  0  0  0  0  0
   11.5917    2.6250    0.0000 O   0  0  0  0  0  0  0  0  0  0  0  0
    8.9125    0.2958    0.0000 C   0  0  0  0  0  0  0  0  0  0  0  0
   10.9292   -0.8417    0.0000 C   0  0  0  0  0  0  0  0  0  0  0  0
   12.9375    0.3208    0.0000 C   0  0  0  0  0  0  0  0  0  0  0  0
    5.5667   -0.8542    0.0000 C   0  0  0  0  0  0  0  0  0  0  0  0
    7.5667    0.2875    0.0000 C   0  0  0  0  0  0  0  0  0  0  0  0
   12.9500   -2.0000    0.0000 C   0  0  0  0  0  0  0  0  0  0  0  0
    6.9000   -0.8667    0.0000 C   0  0  0  0  0  0  0  0  0  0  0  0
   -4.5958   -0.1542    0.0000 C   0  0  0  0  0  0  0  0  0  0  0  0
   13.6125   -0.8292    0.0000 C   0  0  0  0  0  0  0  0  0  0  0  0
   11.6042   -2.0042    0.0000 C   0  0  0  0  0  0  0  0  0  0  0  0
   -3.2333   -2.4792    0.0000 C   0  0  0  0  0  0  0  0  0  0  0  0
   13.6167   -3.1542    0.0000 O   0  0  0  0  0  0  0  0  0  0  0  0
    8.9042   -2.0292    0.0000 C   0  0  0  0  0  0  0  0  0  0  0  0
    9.5792   -0.8667    0.0000 C   0  0  0  0  0  0  0  0  0  0  0  0
    7.5625   -2.0250    0.0000 C   0  0  0  0  0  0  0  0  0  0  0  0
   14.9542   -3.1417    0.0000 C   0  0  0  0  0  0  0  0  0  0  0  0
   -5.2500   -1.3167    0.0000 C   0  0  0  0  0  0  0  0  0  0  0  0
   -4.5958   -2.4792    0.0000 C   0  0  0  0  0  0  0  0  0  0  0  0
  1  2  2  0  0  0  0
  1  3  1  0  0  0  0
  2  4  1  0  0  0  0
  1  5  1  0  0  0  0
  3  6  1  0  0  0  0
  7  8  1  0  0  0  0
  5  8  1  0  0  0  0
  9 12  1  0  0  0  0
  2 10  1  0  0  0  0
 10 11  3  0  0  0  0
 12 19  1  0  0  0  0
 13 15  1  0  0  0  0
  9 14  1  0  0  0  0
  7 15  1  0  0  0  0
  7 16  2  0  0  0  0
  8 17  2  0  0  0  0
  9 18  2  0  0  0  0
 19 23  2  0  0  0  0
 14 20  1  0  0  0  0
 14 21  2  0  0  0  0
 13 22  2  0  0  0  0
 23 25  1  0  0  0  0
 24 27  2  0  0  0  0
 22 25  1  0  0  0  0
  4 26  1  0  0  0  0
 21 27  1  0  0  0  0
 20 28  2  0  0  0  0
  6 29  1  0  0  0  0
 24 30  1  0  0  0  0
 31 33  1  0  0  0  0
 31 32  2  0  0  0  0
 25 33  2  0  0  0  0
 30 34  1  0  0  0  0
 26 35  1  0  0  0  0
 29 36  1  0  0  0  0
  4  6  2  0  0  0  0
 35 36  1  0  0  0  0
 19 32  1  0  0  0  0
 24 28  1  0  0  0  0
M  END
> <MOLFORMULA>
C26 H22 N4 O5 S

> <MOLWEIGHT>
5.025488000000000e+002

> <IDNUMBER>
AT-225/NB65395

> <PRICE>
EUR 140/10 mg

> <Similarity score>
0.18

$$$$

  -OEChem-04222410502D

 12 13  0     0  0  0  0  0  0999 V2000
    4.0542   -2.1250    0.0000 C   0  0  0  0  0  0  0  0  0  0  0  0
    4.0542   -2.8750    0.0000 C   0  0  0  0  0  0  0  0  0  0  0  0
    2.7542   -2.1250    0.0000 C   0  0  0  0  0  0  0  0  0  0  0  0
    3.4042   -3.2500    0.0000 S   0  0  0  0  0  0  0  0  0  0  0  0
    2.7542   -2.8750    0.0000 C   0  0  0  0  0  0  0  0  0  0  0  0
    4.5875   -1.5917    0.0000 C   0  0  0  0  0  0  0  0  0  0  0  0
    5.1167   -1.0625    0.0000 N   0  0  0  0  0  0  0  0  0  0  0  0
    4.7042   -3.2500    0.0000 N   0  0  0  0  0  0  0  0  0  0  0  0
    2.1042   -1.7500    0.0000 C   0  0  0  0  0  0  0  0  0  0  0  0
    2.1042   -3.2500    0.0000 C   0  0  0  0  0  0  0  0  0  0  0  0
    1.4625   -2.1250    0.0000 C   0  0  0  0  0  0  0  0  0  0  0  0
    1.4625   -2.8750    0.0000 C   0  0  0  0  0  0  0  0  0  0  0  0
  1  2  2  0  0  0  0
  1  3  1  0  0  0  0
  2  4  1  0  0  0  0
  3  5  2  0  0  0  0
  1  6  1  0  0  0  0
  6  7  3  0  0  0  0
  2  8  1  0  0  0  0
  3  9  1  0  0  0  0
  5 10  1  0  0  0  0
  9 11  1  0  0  0  0
 11 12  1  0  0  0  0
  4  5  1  0  0  0  0
 10 12  1  0  0  0  0
M  END
> <MOLFORMULA>
C9 H10 N2 S

> <MOLWEIGHT>
1.782580000000000e+002

> <IDNUMBER>
AT-819/OC00072

> <PRICE>
EUR 128/10 mg

> <Similarity score>
0.18

$$$$

  -OEChem-04222410502D

 12 13  0     0  0  0  0  0  0999 V2000
    2.7917   -1.2292    0.0000 C   0  0  0  0  0  0  0  0  0  0  0  0
    3.2750   -1.8917    0.0000 C   0  0  0  0  0  0  0  0  0  0  0  0
    2.0000   -1.4917    0.0000 C   0  0  0  0  0  0  0  0  0  0  0  0
    2.8000   -2.5667    0.0000 S   0  0  0  0  0  0  0  0  0  0  0  0
    2.0167   -2.3167    0.0000 C   0  0  0  0  0  0  0  0  0  0  0  0
    3.0417   -0.4500    0.0000 C   0  0  0  0  0  0  0  0  0  0  0  0
    3.2500    0.3500    0.0000 N   0  0  0  0  0  0  0  0  0  0  0  0
    4.1000   -1.8917    0.0000 N   0  0  0  0  0  0  0  0  0  0  0  0
    1.3000   -1.0750    0.0000 C   0  0  0  0  0  0  0  0  0  0  0  0
    1.3000   -2.7250    0.0000 C   0  0  0  0  0  0  0  0  0  0  0  0
    0.5917   -1.4917    0.0000 C   0  0  0  0  0  0  0  0  0  0  0  0
    0.5917   -2.3167    0.0000 C   0  0  0  0  0  0  0  0  0  0  0  0
  1  2  2  0  0  0  0
  1  3  1  0  0  0  0
  2  4  1  0  0  0  0
  3  5  2  0  0  0  0
  1  6  1  0  0  0  0
  6  7  3  0  0  0  0
  2  8  1  0  0  0  0
  3  9  1  0  0  0  0
  5 10  1  0  0  0  0
  9 11  1  0  0  0  0
 11 12  1  0  0  0  0
  4  5  1  0  0  0  0
 10 12  1  0  0  0  0
M  END
> <MOLFORMULA>
C9 H10 N2 S

> <MOLWEIGHT>
1.782580000000000e+002

> <IDNUMBER>
AT-687/PE31884

> <PRICE>
EUR 80/10 mg

> <Similarity score>
0.18

$$$$

  -OEChem-04222410502D

 12 13  0     0  0  0  0  0  0999 V2000
    3.5667   -2.5167    0.0000 C   0  0  0  0  0  0  0  0  0  0  0  0
    4.3375   -3.5917    0.0000 C   0  0  0  0  0  0  0  0  0  0  0  0
    2.3292   -2.9167    0.0000 C   0  0  0  0  0  0  0  0  0  0  0  0
    3.5792   -4.6750    0.0000 S   0  0  0  0  0  0  0  0  0  0  0  0
    2.3292   -4.2542    0.0000 C   0  0  0  0  0  0  0  0  0  0  0  0
    4.0000   -1.2542    0.0000 C   0  0  0  0  0  0  0  0  0  0  0  0
    4.4375   -0.0000    0.0000 N   0  0  0  0  0  0  0  0  0  0  0  0
    5.6792   -3.5500    0.0000 N   0  0  0  0  0  0  0  0  0  0  0  0
    1.1500   -2.2875    0.0000 C   0  0  0  0  0  0  0  0  0  0  0  0
    1.1750   -4.9292    0.0000 C   0  0  0  0  0  0  0  0  0  0  0  0
    0.0000   -2.9375    0.0000 C   0  0  0  0  0  0  0  0  0  0  0  0
    0.0000   -4.2667    0.0000 C   0  0  0  0  0  0  0  0  0  0  0  0
  1  2  2  0  0  0  0
  1  3  1  0  0  0  0
  2  4  1  0  0  0  0
  3  5  2  0  0  0  0
  1  6  1  0  0  0  0
  6  7  3  0  0  0  0
  2  8  1  0  0  0  0
  3  9  1  0  0  0  0
  5 10  1  0  0  0  0
  9 11  1  0  0  0  0
 11 12  1  0  0  0  0
  4  5  1  0  0  0  0
 10 12  1  0  0  0  0
M  END
> <MOLFORMULA>
C9 H10 N2 S

> <MOLWEIGHT>
1.782580000000000e+002

> <IDNUMBER>
AT-084/J157521

> <PRICE>
EUR 37.00/10 mg

> <Similarity score>
0.18

$$$$

  -OEChem-04222410502D

 12 13  0     0  0  0  0  0  0999 V2000
   -0.7000   -0.3542    0.0000 C   0  0  0  0  0  0  0  0  0  0  0  0
   -1.1083    0.5583    0.0000 C   0  0  0  0  0  0  0  0  0  0  0  0
    0.2958   -0.2500    0.0000 C   0  0  0  0  0  0  0  0  0  0  0  0
   -0.3625    1.2250    0.0000 S   0  0  0  0  0  0  0  0  0  0  0  0
    0.5042    0.7250    0.0000 C   0  0  0  0  0  0  0  0  0  0  0  0
   -1.2000   -1.2208    0.0000 C   0  0  0  0  0  0  0  0  0  0  0  0
   -2.2000   -1.2208    0.0000 N   0  0  0  0  0  0  0  0  0  0  0  0
   -2.0833    0.7667    0.0000 N   0  0  0  0  0  0  0  0  0  0  0  0
    1.0375   -0.9208    0.0000 C   0  0  0  0  0  0  0  0  0  0  0  0
    1.4542    1.0375    0.0000 C   0  0  0  0  0  0  0  0  0  0  0  0
    1.9875   -0.6125    0.0000 C   0  0  0  0  0  0  0  0  0  0  0  0
    2.1958    0.3667    0.0000 C   0  0  0  0  0  0  0  0  0  0  0  0
  1  2  2  0  0  0  0
  1  3  1  0  0  0  0
  2  4  1  0  0  0  0
  3  5  2  0  0  0  0
  1  6  1  0  0  0  0
  6  7  3  0  0  0  0
  2  8  1  0  0  0  0
  3  9  1  0  0  0  0
  5 10  1  0  0  0  0
  9 11  1  0  0  0  0
 11 12  1  0  0  0  0
  4  5  1  0  0  0  0
 10 12  1  0  0  0  0
M  END
> <MOLFORMULA>
C9 H10 N2 S

> <MOLWEIGHT>
1.782580000000000e+002

> <IDNUMBER>
AN-153/I100232

> <PRICE>
EUR 130/10 mg

> <Similarity score>
0.18

$$$$

  -OEChem-04222410502D

 12 13  0     0  0  0  0  0  0999 V2000
    3.5500   -2.5625    0.0000 C   0  0  0  0  0  0  0  0  0  0  0  0
    4.3375   -3.6167    0.0000 C   0  0  0  0  0  0  0  0  0  0  0  0
    2.2792   -2.9750    0.0000 C   0  0  0  0  0  0  0  0  0  0  0  0
    3.5667   -4.7125    0.0000 S   0  0  0  0  0  0  0  0  0  0  0  0
    2.3000   -4.3042    0.0000 C   0  0  0  0  0  0  0  0  0  0  0  0
    3.9542   -1.2917    0.0000 C   0  0  0  0  0  0  0  0  0  0  0  0
    4.2917   -0.0000    0.0000 N   0  0  0  0  0  0  0  0  0  0  0  0
    5.6667   -3.6167    0.0000 N   0  0  0  0  0  0  0  0  0  0  0  0
    1.1417   -2.3042    0.0000 C   0  0  0  0  0  0  0  0  0  0  0  0
    1.1417   -4.9667    0.0000 C   0  0  0  0  0  0  0  0  0  0  0  0
    0.0000   -2.9750    0.0000 C   0  0  0  0  0  0  0  0  0  0  0  0
    0.0000   -4.3042    0.0000 C   0  0  0  0  0  0  0  0  0  0  0  0
  1  2  2  0  0  0  0
  1  3  1  0  0  0  0
  2  4  1  0  0  0  0
  3  5  2  0  0  0  0
  1  6  1  0  0  0  0
  6  7  3  0  0  0  0
  2  8  1  0  0  0  0
  3  9  1  0  0  0  0
  5 10  1  0  0  0  0
  9 11  1  0  0  0  0
 11 12  1  0  0  0  0
  4  5  1  0  0  0  0
 10 12  1  0  0  0  0
M  END
> <MOLFORMULA>
C9 H10 N2 S

> <MOLWEIGHT>
1.782580000000000e+002

> <IDNUMBER>
AT-687/NB00447

> <PRICE>
EUR 80/10 mg

> <Similarity score>
0.18

$$$$

  -OEChem-04222410502D

 12 13  0     0  0  0  0  0  0999 V2000
    6.2292   -7.9292    0.0000 C   0  0  0  0  0  0  0  0  0  0  0  0
    6.4875   -8.7167    0.0000 C   0  0  0  0  0  0  0  0  0  0  0  0
    5.4042   -7.9292    0.0000 C   0  0  0  0  0  0  0  0  0  0  0  0
    5.8167   -9.2000    0.0000 S   0  0  0  0  0  0  0  0  0  0  0  0
    5.1500   -8.7167    0.0000 C   0  0  0  0  0  0  0  0  0  0  0  0
    6.7167   -7.2625    0.0000 C   0  0  0  0  0  0  0  0  0  0  0  0
    7.2000   -6.5917    0.0000 N   0  0  0  0  0  0  0  0  0  0  0  0
    7.2667   -8.9750    0.0000 N   0  0  0  0  0  0  0  0  0  0  0  0
    4.8542   -7.3167    0.0000 C   0  0  0  0  0  0  0  0  0  0  0  0
    4.3417   -8.8917    0.0000 C   0  0  0  0  0  0  0  0  0  0  0  0
    4.0417   -7.4875    0.0000 C   0  0  0  0  0  0  0  0  0  0  0  0
    3.7875   -8.2750    0.0000 C   0  0  0  0  0  0  0  0  0  0  0  0
  1  2  2  0  0  0  0
  1  3  1  0  0  0  0
  2  4  1  0  0  0  0
  3  5  2  0  0  0  0
  1  6  1  0  0  0  0
  6  7  3  0  0  0  0
  2  8  1  0  0  0  0
  3  9  1  0  0  0  0
  5 10  1  0  0  0  0
  9 11  1  0  0  0  0
 11 12  1  0  0  0  0
  4  5  1  0  0  0  0
 10 12  1  0  0  0  0
M  END
> <MOLFORMULA>
C9 H10 N2 S

> <MOLWEIGHT>
1.782580000000000e+002

> <IDNUMBER>
AP-853/J242318

> <Similarity score>
0.18

$$$$

  -OEChem-04222410502D

 17 18  0     0  0  0  0  0  0999 V2000
    3.8667   -1.1417    0.0000 N   0  0  0  0  0  0  0  0  0  0  0  0
    3.6042   -0.3500    0.0000 C   0  0  0  0  0  0  0  0  0  0  0  0
    3.2000   -1.6250    0.0000 N   0  0  3  0  0  0  0  0  0  0  0  0
    2.7792   -0.3542    0.0000 C   0  0  0  0  0  0  0  0  0  0  0  0
    2.5292   -1.1500    0.0000 C   0  0  0  0  0  0  0  0  0  0  0  0
    4.0917    0.3083    0.0000 C   0  0  0  0  0  0  0  0  0  0  0  0
    3.2042   -4.9292    0.0000 C   0  0  0  0  0  0  0  0  0  0  0  0
    3.2042   -2.4500    0.0000 C   0  0  0  0  0  0  0  0  0  0  0  0
    3.2042   -4.1042    0.0000 C   0  0  0  0  0  0  0  0  0  0  0  0
    3.7500    1.0625    0.0000 O   0  0  0  0  0  0  0  0  0  0  0  0
    2.5000   -5.3500    0.0000 O   0  0  0  0  0  0  0  0  0  0  0  0
    2.5000   -2.8667    0.0000 C   0  0  0  0  0  0  0  0  0  0  0  0
    3.9250   -2.8667    0.0000 C   0  0  0  0  0  0  0  0  0  0  0  0
    3.9250   -3.7000    0.0000 C   0  0  0  0  0  0  0  0  0  0  0  0
    2.5000   -3.7000    0.0000 C   0  0  0  0  0  0  0  0  0  0  0  0
    3.9250   -5.3500    0.0000 N   0  0  0  0  0  0  0  0  0  0  0  0
    4.9167    0.2250    0.0000 O   0  0  0  0  0  0  0  0  0  0  0  0
  1  2  2  0  0  0  0
  1  3  1  0  0  0  0
  2  4  1  0  0  0  0
  3  5  1  0  0  0  0
  2  6  1  0  0  0  0
  7  9  1  0  0  0  0
  3  8  1  0  0  0  0
  9 14  1  0  0  0  0
  6 10  2  0  0  0  0
  7 11  2  0  0  0  0
  8 12  2  0  0  0  0
  8 13  1  0  0  0  0
 13 14  2  0  0  0  0
 12 15  1  0  0  0  0
  7 16  1  0  0  0  0
  6 17  1  0  0  0  0
  4  5  2  0  0  0  0
  9 15  2  0  0  0  0
M  END
> <MOLFORMULA>
C11 H9 N3 O3

> <MOLWEIGHT>
2.312101000000000e+002

> <IDNUMBER>
AT-687/SK05526

> <PRICE>
EUR 80/10 mg

> <Similarity score>
0.18

$$$$

  -OEChem-04222410502D

 23 25  0     0  0  0  0  0  0999 V2000
    1.5250    1.2667    0.0000 C   0  0  0  0  0  0  0  0  0  0  0  0
    2.5208    1.3708    0.0000 C   0  0  0  0  0  0  0  0  0  0  0  0
    1.1167    2.1792    0.0000 S   0  0  0  0  0  0  0  0  0  0  0  0
    2.7292    2.3500    0.0000 C   0  0  0  0  0  0  0  0  0  0  0  0
    1.0250    0.4000    0.0000 N   0  0  0  0  0  0  0  0  0  0  0  0
    1.8625    2.8500    0.0000 C   0  0  0  0  0  0  0  0  0  0  0  0
    0.0250    0.4000    0.0000 C   0  0  0  0  0  0  0  0  0  0  0  0
    3.1875    0.6292    0.0000 C   0  0  0  0  0  0  0  0  0  0  0  0
   -0.4750   -0.4667    0.0000 C   0  0  0  0  0  0  0  0  0  0  0  0
    2.8792   -0.3208    0.0000 N   0  0  0  0  0  0  0  0  0  0  0  0
   -1.4750   -0.4667    0.0000 C   0  0  0  0  0  0  0  0  0  0  0  0
    0.0250   -1.3292    0.0000 C   0  0  0  0  0  0  0  0  0  0  0  0
   -0.4750    1.2667    0.0000 O   0  0  0  0  0  0  0  0  0  0  0  0
   -1.4750   -2.1958    0.0000 C   0  0  0  0  0  0  0  0  0  0  0  0
   -1.9750   -1.3292    0.0000 C   0  0  0  0  0  0  0  0  0  0  0  0
   -0.4750   -2.1958    0.0000 C   0  0  0  0  0  0  0  0  0  0  0  0
    3.4708    3.0208    0.0000 C   0  0  0  0  0  0  0  0  0  0  0  0
    2.0708    3.8292    0.0000 C   0  0  0  0  0  0  0  0  0  0  0  0
    0.0250   -3.0625    0.0000 O   0  0  0  0  0  0  0  0  0  0  0  0
   -2.9750   -1.3292    0.0000 O   0  0  0  0  0  0  0  0  0  0  0  0
    3.0625    3.9333    0.0000 C   0  0  0  0  0  0  0  0  0  0  0  0
   -0.4750   -3.9292    0.0000 C   0  0  0  0  0  0  0  0  0  0  0  0
   -3.4750   -2.1958    0.0000 C   0  0  0  0  0  0  0  0  0  0  0  0
  1  2  2  0  0  0  0
  1  3  1  0  0  0  0
  2  4  1  0  0  0  0
  1  5  1  0  0  0  0
  3  6  1  0  0  0  0
  5  7  1  0  0  0  0
  2  8  1  0  0  0  0
  7  9  1  0  0  0  0
  8 10  3  0  0  0  0
  9 11  2  0  0  0  0
  9 12  1  0  0  0  0
  7 13  2  0  0  0  0
 14 16  1  0  0  0  0
 11 15  1  0  0  0  0
 12 16  2  0  0  0  0
  4 17  1  0  0  0  0
  6 18  1  0  0  0  0
 16 19  1  0  0  0  0
 15 20  1  0  0  0  0
 18 21  1  0  0  0  0
 19 22  1  0  0  0  0
 20 23  1  0  0  0  0
  4  6  2  0  0  0  0
 17 21  1  0  0  0  0
 14 15  2  0  0  0  0
M  END
> <MOLFORMULA>
C17 H16 N2 O3 S

> <MOLWEIGHT>
3.283904000000000e+002

> <IDNUMBER>
AN-153/I226312

> <PRICE>
EUR 130/10 mg

> <Similarity score>
0.18

$$$$

  -OEChem-04222410502D

 13 14  0     0  0  0  0  0  0999 V2000
    0.2292    0.0458    0.0000 C   0  0  0  0  0  0  0  0  0  0  0  0
    0.5667   -1.0375    0.0000 C   0  0  0  0  0  0  0  0  0  0  0  0
   -0.9625    0.0458    0.0000 C   0  0  0  0  0  0  0  0  0  0  0  0
   -0.3125   -1.7292    0.0000 S   0  0  0  0  0  0  0  0  0  0  0  0
   -1.2958   -1.0542    0.0000 C   0  0  0  0  0  0  0  0  0  0  0  0
    0.9292    0.9208    0.0000 C   0  0  0  0  0  0  0  0  0  0  0  0
    1.6375    1.8208    0.0000 N   0  0  0  0  0  0  0  0  0  0  0  0
    1.6542   -1.3875    0.0000 N   0  0  0  0  0  0  0  0  0  0  0  0
   -1.5958    0.9708    0.0000 C   0  0  0  0  0  0  0  0  0  0  0  0
   -2.3625   -1.4792    0.0000 C   0  0  0  0  0  0  0  0  0  0  0  0
   -2.7458    1.0958    0.0000 C   0  0  0  0  0  0  0  0  0  0  0  0
   -3.3500   -0.8667    0.0000 C   0  0  0  0  0  0  0  0  0  0  0  0
   -3.5208    0.2625    0.0000 C   0  0  0  0  0  0  0  0  0  0  0  0
  1  2  2  0  0  0  0
  1  3  1  0  0  0  0
  2  4  1  0  0  0  0
  3  5  2  0  0  0  0
  1  6  1  0  0  0  0
  6  7  3  0  0  0  0
  2  8  1  0  0  0  0
  3  9  1  0  0  0  0
  5 10  1  0  0  0  0
  9 11  1  0  0  0  0
 10 12  1  0  0  0  0
 11 13  1  0  0  0  0
  4  5  1  0  0  0  0
 12 13  1  0  0  0  0
M  END
> <MOLFORMULA>
C10 H12 N2 S

> <MOLWEIGHT>
1.922848000000000e+002

> <IDNUMBER>
AT-225/JK21285

> <PRICE>
EUR 140/10 mg

> <Similarity score>
0.18

$$$$

  -OEChem-04222410502D

 13 14  0     0  0  0  0  0  0999 V2000
    2.1167   -2.5750    0.0000 C   0  0  0  0  0  0  0  0  0  0  0  0
    1.3292   -1.5000    0.0000 C   0  0  0  0  0  0  0  0  0  0  0  0
    3.3667   -2.1667    0.0000 C   0  0  0  0  0  0  0  0  0  0  0  0
    2.1167   -0.4167    0.0000 S   0  0  0  0  0  0  0  0  0  0  0  0
    3.3667   -0.8417    0.0000 C   0  0  0  0  0  0  0  0  0  0  0  0
    1.7000   -3.8375    0.0000 C   0  0  0  0  0  0  0  0  0  0  0  0
    1.2875   -5.1042    0.0000 N   0  0  0  0  0  0  0  0  0  0  0  0
    0.0000   -1.5000    0.0000 N   0  0  0  0  0  0  0  0  0  0  0  0
    4.4042   -2.9875    0.0000 C   0  0  0  0  0  0  0  0  0  0  0  0
    4.4042   -0.0000    0.0000 C   0  0  0  0  0  0  0  0  0  0  0  0
    5.7042   -2.6917    0.0000 C   0  0  0  0  0  0  0  0  0  0  0  0
    5.7042   -0.3000    0.0000 C   0  0  0  0  0  0  0  0  0  0  0  0
    6.2792   -1.5000    0.0000 C   0  0  0  0  0  0  0  0  0  0  0  0
  1  2  2  0  0  0  0
  1  3  1  0  0  0  0
  2  4  1  0  0  0  0
  3  5  2  0  0  0  0
  1  6  1  0  0  0  0
  6  7  3  0  0  0  0
  2  8  1  0  0  0  0
  3  9  1  0  0  0  0
  5 10  1  0  0  0  0
  9 11  1  0  0  0  0
 10 12  1  0  0  0  0
 11 13  1  0  0  0  0
  4  5  1  0  0  0  0
 12 13  1  0  0  0  0
M  END
> <MOLFORMULA>
C10 H12 N2 S

> <MOLWEIGHT>
1.922848000000000e+002

> <IDNUMBER>
AT-687/SK12402

> <PRICE>
EUR 80/10 mg

> <Similarity score>
0.18

$$$$

  -OEChem-04222410502D

 13 14  0     0  0  0  0  0  0999 V2000
   -2.4625   -0.0167    0.0000 C   0  0  0  0  0  0  0  0  0  0  0  0
   -2.0833   -0.5375    0.0000 C   0  0  0  0  0  0  0  0  0  0  0  0
   -3.0833   -0.2167    0.0000 C   0  0  0  0  0  0  0  0  0  0  0  0
   -2.4625   -1.0792    0.0000 S   0  0  0  0  0  0  0  0  0  0  0  0
   -3.0833   -0.8792    0.0000 C   0  0  0  0  0  0  0  0  0  0  0  0
   -2.2458    0.6458    0.0000 C   0  0  0  0  0  0  0  0  0  0  0  0
   -2.0458    1.2833    0.0000 N   0  0  0  0  0  0  0  0  0  0  0  0
   -1.4208   -0.5375    0.0000 N   0  0  0  0  0  0  0  0  0  0  0  0
   -3.5833    0.2000    0.0000 C   0  0  0  0  0  0  0  0  0  0  0  0
   -3.5833   -1.2792    0.0000 C   0  0  0  0  0  0  0  0  0  0  0  0
   -4.2208    0.0625    0.0000 C   0  0  0  0  0  0  0  0  0  0  0  0
   -4.2208   -1.1375    0.0000 C   0  0  0  0  0  0  0  0  0  0  0  0
   -4.5000   -0.5167    0.0000 C   0  0  0  0  0  0  0  0  0  0  0  0
  1  2  2  0  0  0  0
  1  3  1  0  0  0  0
  2  4  1  0  0  0  0
  3  5  2  0  0  0  0
  1  6  1  0  0  0  0
  6  7  3  0  0  0  0
  2  8  1  0  0  0  0
  3  9  1  0  0  0  0
  5 10  1  0  0  0  0
  9 11  1  0  0  0  0
 10 12  1  0  0  0  0
 11 13  1  0  0  0  0
  4  5  1  0  0  0  0
 12 13  1  0  0  0  0
M  END
> <MOLFORMULA>
C10 H12 N2 S

> <MOLWEIGHT>
1.922848000000000e+002

> <IDNUMBER>
AT-225/JK15582

> <PRICE>
EUR 140/10 mg

> <Similarity score>
0.18

$$$$

  -OEChem-04222410502D

 14 15  0     0  0  0  0  0  0999 V2000
    1.8167   -0.0292    0.0000 C   0  0  0  0  0  0  0  0  0  0  0  0
    1.2167   -0.8875    0.0000 C   0  0  0  0  0  0  0  0  0  0  0  0
    2.8000   -0.3500    0.0000 C   0  0  0  0  0  0  0  0  0  0  0  0
    1.8167   -1.7042    0.0000 S   0  0  0  0  0  0  0  0  0  0  0  0
    2.8000   -1.3875    0.0000 C   0  0  0  0  0  0  0  0  0  0  0  0
    1.5000    0.9708    0.0000 C   0  0  0  0  0  0  0  0  0  0  0  0
    1.1792    1.9708    0.0000 N   0  0  0  0  0  0  0  0  0  0  0  0
    0.1792   -0.8875    0.0000 N   0  0  0  0  0  0  0  0  0  0  0  0
    3.5375    0.3958    0.0000 C   0  0  0  0  0  0  0  0  0  0  0  0
    3.5375   -2.1292    0.0000 C   0  0  0  0  0  0  0  0  0  0  0  0
    4.5542    0.3958    0.0000 C   0  0  0  0  0  0  0  0  0  0  0  0
    4.5542   -2.1292    0.0000 C   0  0  0  0  0  0  0  0  0  0  0  0
    5.2792   -1.3875    0.0000 C   0  0  0  0  0  0  0  0  0  0  0  0
    5.2792   -0.3500    0.0000 C   0  0  0  0  0  0  0  0  0  0  0  0
  1  2  2  0  0  0  0
  1  3  1  0  0  0  0
  2  4  1  0  0  0  0
  3  5  2  0  0  0  0
  1  6  1  0  0  0  0
  6  7  3  0  0  0  0
  2  8  1  0  0  0  0
  3  9  1  0  0  0  0
  5 10  1  0  0  0  0
  9 11  1  0  0  0  0
 10 12  1  0  0  0  0
 13 14  1  0  0  0  0
 11 14  1  0  0  0  0
  4  5  1  0  0  0  0
 12 13  1  0  0  0  0
M  END
> <MOLFORMULA>
C11 H14 N2 S

> <MOLWEIGHT>
2.063116000000000e+002

> <IDNUMBER>
AT-225/JK15581

> <PRICE>
EUR 140/10 mg

> <Similarity score>
0.18

$$$$

  -OEChem-04222410502D

 23 25  0     0  0  0  0  0  0999 V2000
   -0.2250    2.0125    0.0000 C   0  0  0  0  0  0  0  0  0  0  0  0
    0.4750    2.7250    0.0000 C   0  0  0  0  0  0  0  0  0  0  0  0
    0.2375    1.1250    0.0000 S   0  0  0  0  0  0  0  0  0  0  0  0
    1.3708    2.2792    0.0000 C   0  0  0  0  0  0  0  0  0  0  0  0
   -1.2125    2.1583    0.0000 N   0  0  0  0  0  0  0  0  0  0  0  0
    1.2250    1.2917    0.0000 C   0  0  0  0  0  0  0  0  0  0  0  0
   -1.8333    1.3750    0.0000 C   0  0  0  0  0  0  0  0  0  0  0  0
    0.3125    3.7125    0.0000 C   0  0  0  0  0  0  0  0  0  0  0  0
   -0.6250    4.0583    0.0000 N   0  0  0  0  0  0  0  0  0  0  0  0
   -1.4708    0.4458    0.0000 C   0  0  0  0  0  0  0  0  0  0  0  0
   -2.8250    1.5250    0.0000 O   0  0  0  0  0  0  0  0  0  0  0  0
   -0.4792    0.3000    0.0000 C   0  0  0  0  0  0  0  0  0  0  0  0
   -2.0917   -0.3375    0.0000 C   0  0  0  0  0  0  0  0  0  0  0  0
   -0.3708   -2.3458    0.0000 O   0  0  0  0  0  0  0  0  0  0  0  0
   -0.7375   -1.4125    0.0000 C   0  0  0  0  0  0  0  0  0  0  0  0
    2.3583    2.4458    0.0000 C   0  0  0  0  0  0  0  0  0  0  0  0
    2.1208    0.8458    0.0000 C   0  0  0  0  0  0  0  0  0  0  0  0
   -1.7250   -1.2667    0.0000 C   0  0  0  0  0  0  0  0  0  0  0  0
   -0.1125   -0.6333    0.0000 C   0  0  0  0  0  0  0  0  0  0  0  0
    2.8208    1.5583    0.0000 C   0  0  0  0  0  0  0  0  0  0  0  0
   -0.9917   -3.1292    0.0000 C   0  0  3  0  0  0  0  0  0  0  0  0
   -0.6250   -4.0583    0.0000 C   0  0  0  0  0  0  0  0  0  0  0  0
   -1.9792   -2.9792    0.0000 C   0  0  0  0  0  0  0  0  0  0  0  0
  1  2  2  0  0  0  0
  1  3  1  0  0  0  0
  2  4  1  0  0  0  0
  1  5  1  0  0  0  0
  3  6  1  0  0  0  0
  5  7  1  0  0  0  0
  2  8  1  0  0  0  0
  8  9  3  0  0  0  0
  7 10  1  0  0  0  0
  7 11  2  0  0  0  0
 10 12  2  0  0  0  0
 10 13  1  0  0  0  0
 14 15  1  0  0  0  0
 15 18  1  0  0  0  0
  4 16  1  0  0  0  0
  6 17  1  0  0  0  0
 13 18  2  0  0  0  0
 12 19  1  0  0  0  0
 17 20  1  0  0  0  0
 14 21  1  0  0  0  0
 21 22  1  0  0  0  0
 21 23  1  0  0  0  0
  4  6  2  0  0  0  0
 16 20  1  0  0  0  0
 15 19  2  0  0  0  0
M  END
> <MOLFORMULA>
C18 H18 N2 O2 S

> <MOLWEIGHT>
3.264182000000000e+002

> <IDNUMBER>
AN-153/I224141

> <PRICE>
EUR 130/10 mg

> <Similarity score>
0.18

$$$$

  -OEChem-04222410502D

 24 26  0     0  0  0  0  0  0999 V2000
    0.7125    1.4917    0.0000 C   0  0  0  0  0  0  0  0  0  0  0  0
    0.3042    2.4042    0.0000 C   0  0  0  0  0  0  0  0  0  0  0  0
    1.7083    1.5958    0.0000 S   0  0  0  0  0  0  0  0  0  0  0  0
    1.0500    3.0750    0.0000 C   0  0  0  0  0  0  0  0  0  0  0  0
    0.2125    0.6250    0.0000 N   0  0  0  0  0  0  0  0  0  0  0  0
    1.9167    2.5750    0.0000 C   0  0  0  0  0  0  0  0  0  0  0  0
    0.7125   -0.2417    0.0000 C   0  0  0  0  0  0  0  0  0  0  0  0
   -0.6708    2.6125    0.0000 C   0  0  0  0  0  0  0  0  0  0  0  0
    0.2125   -1.1042    0.0000 C   0  0  0  0  0  0  0  0  0  0  0  0
   -1.3417    1.8708    0.0000 N   0  0  0  0  0  0  0  0  0  0  0  0
    0.7125   -1.9708    0.0000 C   0  0  0  0  0  0  0  0  0  0  0  0
   -0.7875   -1.1083    0.0000 C   0  0  0  0  0  0  0  0  0  0  0  0
    1.7125   -0.2417    0.0000 O   0  0  0  0  0  0  0  0  0  0  0  0
   -0.7875   -2.8375    0.0000 C   0  0  0  0  0  0  0  0  0  0  0  0
    0.2125   -2.8375    0.0000 C   0  0  0  0  0  0  0  0  0  0  0  0
   -1.2875   -1.9708    0.0000 C   0  0  0  0  0  0  0  0  0  0  0  0
    1.0500    4.0708    0.0000 C   0  0  0  0  0  0  0  0  0  0  0  0
    2.7833    3.0750    0.0000 C   0  0  0  0  0  0  0  0  0  0  0  0
   -2.2875   -1.9708    0.0000 O   0  0  0  0  0  0  0  0  0  0  0  0
    0.7125   -3.7042    0.0000 O   0  0  0  0  0  0  0  0  0  0  0  0
   -2.7875   -2.8375    0.0000 C   0  0  0  0  0  0  0  0  0  0  0  0
    0.2125   -4.5708    0.0000 C   0  0  0  0  0  0  0  0  0  0  0  0
    1.9167    4.5708    0.0000 C   0  0  0  0  0  0  0  0  0  0  0  0
    2.7833    4.0708    0.0000 C   0  0  0  0  0  0  0  0  0  0  0  0
  1  2  2  0  0  0  0
  1  3  1  0  0  0  0
  2  4  1  0  0  0  0
  1  5  1  0  0  0  0
  3  6  1  0  0  0  0
  5  7  1  0  0  0  0
  2  8  1  0  0  0  0
  7  9  1  0  0  0  0
  8 10  3  0  0  0  0
  9 11  2  0  0  0  0
  9 12  1  0  0  0  0
  7 13  2  0  0  0  0
 14 16  1  0  0  0  0
 11 15  1  0  0  0  0
 12 16  2  0  0  0  0
  4 17  1  0  0  0  0
  6 18  1  0  0  0  0
 16 19  1  0  0  0  0
 15 20  1  0  0  0  0
 19 21  1  0  0  0  0
 20 22  1  0  0  0  0
 17 23  1  0  0  0  0
 18 24  1  0  0  0  0
  4  6  2  0  0  0  0
 23 24  1  0  0  0  0
 14 15  2  0  0  0  0
M  END
> <MOLFORMULA>
C18 H18 N2 O3 S

> <MOLWEIGHT>
3.424172000000000e+002

> <IDNUMBER>
AN-153/I176664

> <PRICE>
EUR 130/10 mg

> <Similarity score>
0.18

$$$$

  -OEChem-04222410502D

 23 25  0     0  0  0  0  0  0999 V2000
    0.3833    1.4625    0.0000 C   0  0  0  0  0  0  0  0  0  0  0  0
   -0.4250    2.0500    0.0000 C   0  0  0  0  0  0  0  0  0  0  0  0
    1.1917    2.0500    0.0000 S   0  0  0  0  0  0  0  0  0  0  0  0
   -0.1167    3.0000    0.0000 C   0  0  0  0  0  0  0  0  0  0  0  0
    0.3833    0.4625    0.0000 N   0  0  0  0  0  0  0  0  0  0  0  0
   -0.4833   -0.0375    0.0000 C   0  0  0  0  0  0  0  0  0  0  0  0
    0.8833    3.0000    0.0000 C   0  0  0  0  0  0  0  0  0  0  0  0
   -0.4833   -1.0375    0.0000 C   0  0  0  0  0  0  0  0  0  0  0  0
   -1.3750    1.7417    0.0000 C   0  0  0  0  0  0  0  0  0  0  0  0
    0.3833   -1.5375    0.0000 C   0  0  0  0  0  0  0  0  0  0  0  0
   -2.1208    2.4125    0.0000 N   0  0  0  0  0  0  0  0  0  0  0  0
   -1.3500   -1.5375    0.0000 C   0  0  0  0  0  0  0  0  0  0  0  0
    0.3833   -2.5375    0.0000 C   0  0  0  0  0  0  0  0  0  0  0  0
   -1.3500    0.4625    0.0000 O   0  0  0  0  0  0  0  0  0  0  0  0
   -0.4833   -3.0375    0.0000 C   0  0  0  0  0  0  0  0  0  0  0  0
   -1.3500   -2.5375    0.0000 C   0  0  0  0  0  0  0  0  0  0  0  0
    1.2500   -1.0375    0.0000 O   0  0  0  0  0  0  0  0  0  0  0  0
   -0.4250    3.9542    0.0000 C   0  0  0  0  0  0  0  0  0  0  0  0
    1.1917    3.9542    0.0000 C   0  0  0  0  0  0  0  0  0  0  0  0
   -0.4833   -4.0375    0.0000 O   0  0  0  0  0  0  0  0  0  0  0  0
    0.3833    4.5375    0.0000 C   0  0  0  0  0  0  0  0  0  0  0  0
    2.1167   -1.5375    0.0000 C   0  0  0  0  0  0  0  0  0  0  0  0
    0.3833   -4.5375    0.0000 C   0  0  0  0  0  0  0  0  0  0  0  0
  1  2  2  0  0  0  0
  1  3  1  0  0  0  0
  2  4  1  0  0  0  0
  1  5  1  0  0  0  0
  5  6  1  0  0  0  0
  3  7  1  0  0  0  0
  6  8  1  0  0  0  0
  2  9  1  0  0  0  0
  8 10  2  0  0  0  0
  9 11  3  0  0  0  0
  8 12  1  0  0  0  0
 10 13  1  0  0  0  0
  6 14  2  0  0  0  0
 15 16  1  0  0  0  0
 12 16  2  0  0  0  0
 10 17  1  0  0  0  0
  4 18  1  0  0  0  0
  7 19  1  0  0  0  0
 15 20  1  0  0  0  0
 19 21  1  0  0  0  0
 17 22  1  0  0  0  0
 20 23  1  0  0  0  0
  4  7  2  0  0  0  0
 18 21  1  0  0  0  0
 13 15  2  0  0  0  0
M  END
> <MOLFORMULA>
C17 H16 N2 O3 S

> <MOLWEIGHT>
3.283904000000000e+002

> <IDNUMBER>
AN-153/I255605

> <PRICE>
EUR 130/10 mg

> <Similarity score>
0.18

$$$$

  -OEChem-04222410502D

 25 28  0     0  0  0  0  0  0999 V2000
   -2.5333    0.3833    0.0000 C   0  0  0  0  0  0  0  0  0  0  0  0
   -3.1208    1.1917    0.0000 C   0  0  0  0  0  0  0  0  0  0  0  0
   -3.1208   -0.4250    0.0000 S   0  0  0  0  0  0  0  0  0  0  0  0
   -4.0708    0.8833    0.0000 C   0  0  0  0  0  0  0  0  0  0  0  0
    1.4667   -1.3458    0.0000 C   0  0  0  0  0  0  0  0  0  0  0  0
    2.0542   -0.5375    0.0000 N   0  0  0  0  0  0  0  0  0  0  0  0
   -4.0708   -0.1167    0.0000 C   0  0  0  0  0  0  0  0  0  0  0  0
    2.0542   -2.1583    0.0000 N   0  0  0  0  0  0  0  0  0  0  0  0
   -1.5333    0.3833    0.0000 N   0  0  0  0  0  0  0  0  0  0  0  0
    3.0083   -0.8500    0.0000 C   0  0  0  0  0  0  0  0  0  0  0  0
   -2.8125    2.1458    0.0000 C   0  0  0  0  0  0  0  0  0  0  0  0
    3.0083   -1.8500    0.0000 C   0  0  0  0  0  0  0  0  0  0  0  0
   -1.8333    2.3500    0.0000 N   0  0  0  0  0  0  0  0  0  0  0  0
   -1.0333   -0.4833    0.0000 C   0  0  0  0  0  0  0  0  0  0  0  0
    0.4667   -1.3458    0.0000 S   0  0  0  0  0  0  0  0  0  0  0  0
    3.8750   -0.3500    0.0000 C   0  0  0  0  0  0  0  0  0  0  0  0
   -1.5333   -1.3458    0.0000 O   0  0  0  0  0  0  0  0  0  0  0  0
    3.8750   -2.3500    0.0000 C   0  0  0  0  0  0  0  0  0  0  0  0
   -0.0333   -0.4833    0.0000 C   0  0  0  0  0  0  0  0  0  0  0  0
    4.7375   -0.8500    0.0000 C   0  0  0  0  0  0  0  0  0  0  0  0
   -5.0208    1.1917    0.0000 C   0  0  0  0  0  0  0  0  0  0  0  0
   -5.0208   -0.4250    0.0000 C   0  0  0  0  0  0  0  0  0  0  0  0
    4.7375   -1.8500    0.0000 C   0  0  0  0  0  0  0  0  0  0  0  0
   -5.6083    0.3833    0.0000 C   0  0  0  0  0  0  0  0  0  0  0  0
    5.6042   -0.3500    0.0000 C   0  0  0  0  0  0  0  0  0  0  0  0
  1  2  2  0  0  0  0
  1  3  1  0  0  0  0
  2  4  1  0  0  0  0
  5 15  1  0  0  0  0
  5  6  2  0  0  0  0
  3  7  1  0  0  0  0
  5  8  1  0  0  0  0
  1  9  1  0  0  0  0
  6 10  1  0  0  0  0
  2 11  1  0  0  0  0
  8 12  1  0  0  0  0
 11 13  3  0  0  0  0
  9 14  1  0  0  0  0
 15 19  1  0  0  0  0
 10 16  1  0  0  0  0
 14 17  2  0  0  0  0
 12 18  1  0  0  0  0
 14 19  1  0  0  0  0
 16 20  2  0  0  0  0
  4 21  1  0  0  0  0
  7 22  1  0  0  0  0
 18 23  2  0  0  0  0
 22 24  1  0  0  0  0
 20 25  1  0  0  0  0
  4  7  2  0  0  0  0
 21 24  1  0  0  0  0
 10 12  2  0  0  0  0
 20 23  1  0  0  0  0
M  END
> <MOLFORMULA>
C18 H16 N4 O S2

> <MOLWEIGHT>
3.684834000000000e+002

> <IDNUMBER>
AN-153/I152895

> <PRICE>
EUR 130/10 mg

> <Similarity score>
0.18

$$$$

  -OEChem-04222410502D

 24 26  0     0  0  0  0  0  0999 V2000
    0.7125    1.4917    0.0000 C   0  0  0  0  0  0  0  0  0  0  0  0
    1.7083    1.5958    0.0000 C   0  0  0  0  0  0  0  0  0  0  0  0
    0.3083    2.4042    0.0000 S   0  0  0  0  0  0  0  0  0  0  0  0
    1.9167    2.5750    0.0000 C   0  0  0  0  0  0  0  0  0  0  0  0
    0.2125    0.6250    0.0000 N   0  0  0  0  0  0  0  0  0  0  0  0
    1.0500    3.0750    0.0000 C   0  0  0  0  0  0  0  0  0  0  0  0
   -0.7875    0.6250    0.0000 C   0  0  0  0  0  0  0  0  0  0  0  0
    2.3792    0.8542    0.0000 C   0  0  0  0  0  0  0  0  0  0  0  0
    2.0667   -0.0958    0.0000 N   0  0  0  0  0  0  0  0  0  0  0  0
   -1.2875   -0.2417    0.0000 C   0  0  0  0  0  0  0  0  0  0  0  0
   -1.2875    1.4917    0.0000 O   0  0  0  0  0  0  0  0  0  0  0  0
   -0.7875   -1.1083    0.0000 C   0  0  0  0  0  0  0  0  0  0  0  0
   -2.2875   -0.2417    0.0000 C   0  0  0  0  0  0  0  0  0  0  0  0
   -2.7875   -2.8375    0.0000 O   0  0  0  0  0  0  0  0  0  0  0  0
   -2.2875   -1.9708    0.0000 C   0  0  0  0  0  0  0  0  0  0  0  0
    2.7833    3.0750    0.0000 C   0  0  0  0  0  0  0  0  0  0  0  0
   -2.7875   -1.1083    0.0000 C   0  0  0  0  0  0  0  0  0  0  0  0
   -1.2875   -1.9708    0.0000 C   0  0  0  0  0  0  0  0  0  0  0  0
    1.0500    4.0708    0.0000 C   0  0  0  0  0  0  0  0  0  0  0  0
   -2.2875   -3.7042    0.0000 C   0  0  3  0  0  0  0  0  0  0  0  0
   -2.7875   -4.5708    0.0000 C   0  0  0  0  0  0  0  0  0  0  0  0
   -1.2875   -3.7042    0.0000 C   0  0  0  0  0  0  0  0  0  0  0  0
    2.7833    4.0708    0.0000 C   0  0  0  0  0  0  0  0  0  0  0  0
    1.9167    4.5708    0.0000 C   0  0  0  0  0  0  0  0  0  0  0  0
  1  2  2  0  0  0  0
  1  3  1  0  0  0  0
  2  4  1  0  0  0  0
  1  5  1  0  0  0  0
  3  6  1  0  0  0  0
  5  7  1  0  0  0  0
  2  8  1  0  0  0  0
  8  9  3  0  0  0  0
  7 10  1  0  0  0  0
  7 11  2  0  0  0  0
 10 12  1  0  0  0  0
 10 13  2  0  0  0  0
 14 15  1  0  0  0  0
 15 17  2  0  0  0  0
  4 16  1  0  0  0  0
 13 17  1  0  0  0  0
 12 18  2  0  0  0  0
  6 19  1  0  0  0  0
 14 20  1  0  0  0  0
 20 21  1  0  0  0  0
 20 22  1  0  0  0  0
 16 23  1  0  0  0  0
 19 24  1  0  0  0  0
  4  6  2  0  0  0  0
 23 24  1  0  0  0  0
 15 18  1  0  0  0  0
M  END
> <MOLFORMULA>
C19 H20 N2 O2 S

> <MOLWEIGHT>
3.404450000000000e+002

> <IDNUMBER>
AN-153/I226294

> <PRICE>
EUR 130/10 mg

> <Similarity score>
0.18

$$$$

  -OEChem-04222410502D

 21 23  0     0  0  0  0  0  0999 V2000
    0.8458    1.4625    0.0000 C   0  0  0  0  0  0  0  0  0  0  0  0
    0.0375    2.0500    0.0000 C   0  0  0  0  0  0  0  0  0  0  0  0
    1.6542    2.0500    0.0000 S   0  0  0  0  0  0  0  0  0  0  0  0
    0.3458    3.0000    0.0000 C   0  0  0  0  0  0  0  0  0  0  0  0
    0.8458    0.4625    0.0000 N   0  0  0  0  0  0  0  0  0  0  0  0
    1.3458    3.0042    0.0000 C   0  0  0  0  0  0  0  0  0  0  0  0
   -0.0208   -0.0375    0.0000 C   0  0  0  0  0  0  0  0  0  0  0  0
   -0.9167    1.7417    0.0000 C   0  0  0  0  0  0  0  0  0  0  0  0
   -1.6583    2.4125    0.0000 N   0  0  0  0  0  0  0  0  0  0  0  0
   -0.0208   -1.0375    0.0000 C   0  0  0  0  0  0  0  0  0  0  0  0
   -0.8875    0.4625    0.0000 O   0  0  0  0  0  0  0  0  0  0  0  0
    0.8458   -1.5375    0.0000 C   0  0  0  0  0  0  0  0  0  0  0  0
   -0.8875   -1.5375    0.0000 C   0  0  0  0  0  0  0  0  0  0  0  0
    0.0375    3.9542    0.0000 C   0  0  0  0  0  0  0  0  0  0  0  0
    1.6542    3.9542    0.0000 C   0  0  0  0  0  0  0  0  0  0  0  0
    0.8458   -2.5375    0.0000 C   0  0  0  0  0  0  0  0  0  0  0  0
   -0.8875   -2.5375    0.0000 C   0  0  0  0  0  0  0  0  0  0  0  0
   -0.0208   -3.0375    0.0000 C   0  0  0  0  0  0  0  0  0  0  0  0
    0.8458    4.5375    0.0000 C   0  0  0  0  0  0  0  0  0  0  0  0
   -0.0208   -4.0375    0.0000 C   0  0  0  0  0  0  0  0  0  0  0  0
    0.8458   -4.5375    0.0000 C   0  0  0  0  0  0  0  0  0  0  0  0
  1  2  2  0  0  0  0
  1  3  1  0  0  0  0
  2  4  1  0  0  0  0
  1  5  1  0  0  0  0
  3  6  1  0  0  0  0
  5  7  1  0  0  0  0
  2  8  1  0  0  0  0
  8  9  3  0  0  0  0
  7 10  1  0  0  0  0
  7 11  2  0  0  0  0
 10 12  1  0  0  0  0
 10 13  2  0  0  0  0
  4 14  1  0  0  0  0
  6 15  1  0  0  0  0
 12 16  2  0  0  0  0
 13 17  1  0  0  0  0
 17 18  2  0  0  0  0
 15 19  1  0  0  0  0
 18 20  1  0  0  0  0
 20 21  1  0  0  0  0
  4  6  2  0  0  0  0
 14 19  1  0  0  0  0
 16 18  1  0  0  0  0
M  END
> <MOLFORMULA>
C17 H16 N2 O S

> <MOLWEIGHT>
2.963924000000000e+002

> <IDNUMBER>
AN-153/I280016

> <PRICE>
EUR 130/10 mg

> <Similarity score>
0.18

$$$$

  -OEChem-04222410502D

 22 24  0     0  0  0  0  0  0999 V2000
    0.7750    1.7000    0.0000 C   0  0  0  0  0  0  0  0  0  0  0  0
    1.7708    1.8042    0.0000 C   0  0  0  0  0  0  0  0  0  0  0  0
    0.3667    2.6125    0.0000 S   0  0  0  0  0  0  0  0  0  0  0  0
    1.9792    2.7833    0.0000 C   0  0  0  0  0  0  0  0  0  0  0  0
    0.2750    0.8333    0.0000 N   0  0  0  0  0  0  0  0  0  0  0  0
    1.1125    3.2833    0.0000 C   0  0  0  0  0  0  0  0  0  0  0  0
   -0.7250    0.8333    0.0000 C   0  0  0  0  0  0  0  0  0  0  0  0
    2.4375    1.0625    0.0000 C   0  0  0  0  0  0  0  0  0  0  0  0
    2.1292    0.1125    0.0000 N   0  0  0  0  0  0  0  0  0  0  0  0
   -1.2250   -0.0333    0.0000 C   0  0  0  0  0  0  0  0  0  0  0  0
   -1.2250    1.7000    0.0000 O   0  0  0  0  0  0  0  0  0  0  0  0
   -0.7250   -0.8958    0.0000 C   0  0  0  0  0  0  0  0  0  0  0  0
   -2.2250   -0.0333    0.0000 C   0  0  0  0  0  0  0  0  0  0  0  0
    2.7208    3.4542    0.0000 C   0  0  0  0  0  0  0  0  0  0  0  0
   -2.2250   -1.7625    0.0000 C   0  0  0  0  0  0  0  0  0  0  0  0
    1.3208    4.2583    0.0000 C   0  0  0  0  0  0  0  0  0  0  0  0
   -1.2250   -1.7625    0.0000 C   0  0  0  0  0  0  0  0  0  0  0  0
   -2.7250   -0.8958    0.0000 C   0  0  0  0  0  0  0  0  0  0  0  0
   -2.7250   -2.6292    0.0000 O   0  0  0  0  0  0  0  0  0  0  0  0
    2.3125    4.3625    0.0000 C   0  0  0  0  0  0  0  0  0  0  0  0
   -2.2250   -3.4958    0.0000 C   0  0  0  0  0  0  0  0  0  0  0  0
   -2.7250   -4.3625    0.0000 C   0  0  0  0  0  0  0  0  0  0  0  0
  1  2  2  0  0  0  0
  1  3  1  0  0  0  0
  2  4  1  0  0  0  0
  1  5  1  0  0  0  0
  3  6  1  0  0  0  0
  5  7  1  0  0  0  0
  2  8  1  0  0  0  0
  8  9  3  0  0  0  0
  7 10  1  0  0  0  0
  7 11  2  0  0  0  0
 10 12  1  0  0  0  0
 10 13  2  0  0  0  0
  4 14  1  0  0  0  0
 15 18  2  0  0  0  0
  6 16  1  0  0  0  0
 12 17  2  0  0  0  0
 13 18  1  0  0  0  0
 15 19  1  0  0  0  0
 16 20  1  0  0  0  0
 19 21  1  0  0  0  0
 21 22  1  0  0  0  0
  4  6  2  0  0  0  0
 14 20  1  0  0  0  0
 15 17  1  0  0  0  0
M  END
> <MOLFORMULA>
C17 H16 N2 O2 S

> <MOLWEIGHT>
3.123914000000000e+002

> <IDNUMBER>
AN-153/I226308

> <PRICE>
EUR 130/10 mg

> <Similarity score>
0.18

$$$$

  -OEChem-04222410502D

 31 35  0     0  0  0  0  0  0999 V2000
    5.4750   -7.9292    0.0000 C   0  0  0  0  0  0  0  0  0  0  0  0
    5.8042   -7.1750    0.0000 N   0  0  3  0  0  0  0  0  0  0  0  0
    5.8875   -8.6417    0.0000 C   0  0  0  0  0  0  0  0  0  0  0  0
    4.6625   -8.1042    0.0000 S   0  0  0  0  0  0  0  0  0  0  0  0
    6.6667   -4.5042    0.0000 C   0  0  0  0  0  0  0  0  0  0  0  0
    6.6875   -6.1625    0.0000 C   0  0  0  0  0  0  0  0  0  0  0  0
    7.3875   -4.9125    0.0000 C   0  0  0  0  0  0  0  0  0  0  0  0
    5.3917   -6.4625    0.0000 C   0  0  0  0  0  0  0  0  0  0  0  0
    6.5667   -3.6750    0.0000 N   0  0  0  0  0  0  0  0  0  0  0  0
    6.6042   -7.0000    0.0000 C   0  0  0  0  0  0  0  0  0  0  0  0
    5.3500   -9.2542    0.0000 C   0  0  0  0  0  0  0  0  0  0  0  0
    4.5792   -8.9250    0.0000 C   0  0  0  0  0  0  0  0  0  0  0  0
    5.9167   -4.8500    0.0000 N   0  0  0  0  0  0  0  0  0  0  0  0
    7.4000   -5.7417    0.0000 C   0  0  0  0  0  0  0  0  0  0  0  0
    5.9417   -5.8417    0.0000 C   0  0  0  0  0  0  0  0  0  0  0  0
    6.7042   -8.7167    0.0000 C   0  0  0  0  0  0  0  0  0  0  0  0
    8.1000   -4.4917    0.0000 C   0  0  0  0  0  0  0  0  0  0  0  0
    5.7667   -3.5167    0.0000 C   0  0  0  0  0  0  0  0  0  0  0  0
    5.3667   -4.2375    0.0000 C   0  0  0  0  0  0  0  0  0  0  0  0
    7.5292   -8.7167    0.0000 N   0  0  0  0  0  0  0  0  0  0  0  0
    8.8125   -4.0667    0.0000 N   0  0  0  0  0  0  0  0  0  0  0  0
    4.5667   -6.3792    0.0000 C   0  0  0  0  0  0  0  0  0  0  0  0
    5.4500  -10.0792    0.0000 C   0  0  0  0  0  0  0  0  0  0  0  0
    7.2292   -7.5417    0.0000 C   0  0  0  0  0  0  0  0  0  0  0  0
    3.9167   -9.4167    0.0000 C   0  0  0  0  0  0  0  0  0  0  0  0
    5.3500   -2.8125    0.0000 C   0  0  0  0  0  0  0  0  0  0  0  0
    4.5417   -4.2417    0.0000 C   0  0  0  0  0  0  0  0  0  0  0  0
    4.7792  -10.5792    0.0000 C   0  0  0  0  0  0  0  0  0  0  0  0
    4.0125  -10.2500    0.0000 C   0  0  0  0  0  0  0  0  0  0  0  0
    4.5250   -2.8167    0.0000 C   0  0  0  0  0  0  0  0  0  0  0  0
    4.1167   -3.5375    0.0000 C   0  0  0  0  0  0  0  0  0  0  0  0
  1  2  1  0  0  0  0
  1  3  2  0  0  0  0
  1  4  1  0  0  0  0
  5  7  1  0  0  0  0
  6 10  2  0  0  0  0
  7 14  2  0  0  0  0
  2  8  1  0  0  0  0
  5  9  2  0  0  0  0
  2 10  1  0  0  0  0
  3 11  1  0  0  0  0
  4 12  1  0  0  0  0
  5 13  1  0  0  0  0
  6 14  1  0  0  0  0
  8 15  2  0  0  0  0
  3 16  1  0  0  0  0
  7 17  1  0  0  0  0
  9 18  1  0  0  0  0
 13 19  1  0  0  0  0
 16 20  3  0  0  0  0
 17 21  3  0  0  0  0
  8 22  1  0  0  0  0
 11 23  1  0  0  0  0
 10 24  1  0  0  0  0
 12 25  1  0  0  0  0
 18 26  1  0  0  0  0
 19 27  1  0  0  0  0
 23 28  1  0  0  0  0
 25 29  1  0  0  0  0
 26 30  2  0  0  0  0
 27 31  2  0  0  0  0
 11 12  2  0  0  0  0
  6 15  1  0  0  0  0
 28 29  1  0  0  0  0
 18 19  2  0  0  0  0
 30 31  1  0  0  0  0
M  END
> <MOLFORMULA>
C25 H21 N5 S

> <MOLWEIGHT>
4.235419000000000e+002

> <IDNUMBER>
AT-139/J201993

> <PRICE>
EUR 125.00/10 mg

> <Similarity score>
0.18

$$$$

  -OEChem-04222410502D

 26 29  0     0  0  0  0  0  0999 V2000
    2.1792    1.3000    0.0000 C   0  0  0  0  0  0  0  0  0  0  0  0
    3.1750    1.4042    0.0000 C   0  0  0  0  0  0  0  0  0  0  0  0
    1.7750    2.2167    0.0000 S   0  0  0  0  0  0  0  0  0  0  0  0
    3.3833    2.3833    0.0000 C   0  0  0  0  0  0  0  0  0  0  0  0
   -1.3208   -1.2958    0.0000 C   0  0  0  0  0  0  0  0  0  0  0  0
   -2.3125   -1.4000    0.0000 N   0  0  0  0  0  0  0  0  0  0  0  0
    2.5167    2.8833    0.0000 C   0  0  0  0  0  0  0  0  0  0  0  0
   -0.9125   -2.2083    0.0000 N   0  0  0  0  0  0  0  0  0  0  0  0
    1.6792    0.4333    0.0000 N   0  0  0  0  0  0  0  0  0  0  0  0
   -2.5208   -2.3792    0.0000 C   0  0  0  0  0  0  0  0  0  0  0  0
    3.8458    0.6625    0.0000 C   0  0  0  0  0  0  0  0  0  0  0  0
   -1.6542   -2.8792    0.0000 C   0  0  0  0  0  0  0  0  0  0  0  0
    3.5375   -0.2875    0.0000 N   0  0  0  0  0  0  0  0  0  0  0  0
    0.6792    0.4333    0.0000 C   0  0  0  0  0  0  0  0  0  0  0  0
   -0.8208   -0.4292    0.0000 S   0  0  0  0  0  0  0  0  0  0  0  0
   -3.3875   -2.8792    0.0000 C   0  0  0  0  0  0  0  0  0  0  0  0
    0.1792    1.3000    0.0000 O   0  0  0  0  0  0  0  0  0  0  0  0
   -1.6542   -3.8792    0.0000 C   0  0  0  0  0  0  0  0  0  0  0  0
    0.1792   -0.4292    0.0000 C   0  0  0  0  0  0  0  0  0  0  0  0
   -3.3875   -3.8792    0.0000 C   0  0  0  0  0  0  0  0  0  0  0  0
    4.2500    2.8833    0.0000 C   0  0  0  0  0  0  0  0  0  0  0  0
   -2.5208   -4.3792    0.0000 C   0  0  0  0  0  0  0  0  0  0  0  0
    2.5167    3.8833    0.0000 C   0  0  0  0  0  0  0  0  0  0  0  0
   -4.2542   -4.3792    0.0000 C   0  0  0  0  0  0  0  0  0  0  0  0
    4.2500    3.8833    0.0000 C   0  0  0  0  0  0  0  0  0  0  0  0
    3.3833    4.3792    0.0000 C   0  0  0  0  0  0  0  0  0  0  0  0
  1  2  2  0  0  0  0
  1  3  1  0  0  0  0
  2  4  1  0  0  0  0
  5 15  1  0  0  0  0
  5  6  2  0  0  0  0
  3  7  1  0  0  0  0
  5  8  1  0  0  0  0
  1  9  1  0  0  0  0
  6 10  1  0  0  0  0
  2 11  1  0  0  0  0
  8 12  1  0  0  0  0
 11 13  3  0  0  0  0
  9 14  1  0  0  0  0
 15 19  1  0  0  0  0
 10 16  1  0  0  0  0
 14 17  2  0  0  0  0
 12 18  1  0  0  0  0
 14 19  1  0  0  0  0
 16 20  2  0  0  0  0
  4 21  1  0  0  0  0
 18 22  2  0  0  0  0
  7 23  1  0  0  0  0
 20 24  1  0  0  0  0
 21 25  1  0  0  0  0
 23 26  1  0  0  0  0
  4  7  2  0  0  0  0
 25 26  1  0  0  0  0
 10 12  2  0  0  0  0
 20 22  1  0  0  0  0
M  END
> <MOLFORMULA>
C19 H18 N4 O S2

> <MOLWEIGHT>
3.825102000000000e+002

> <IDNUMBER>
AN-153/I137970

> <PRICE>
EUR 130/10 mg

> <Similarity score>
0.18

$$$$

  -OEChem-04222410502D

 25 27  0     0  0  0  0  0  0999 V2000
    4.5083   -3.6167    0.0000 C   0  0  0  0  0  0  0  0  0  0  0  0
    4.0250   -2.9417    0.0000 C   0  0  0  0  0  0  0  0  0  0  0  0
    4.0250   -4.2792    0.0000 S   0  0  0  0  0  0  0  0  0  0  0  0
    3.2375   -3.2000    0.0000 C   0  0  0  0  0  0  0  0  0  0  0  0
    5.3292   -3.5333    0.0000 N   0  0  0  0  0  0  0  0  0  0  0  0
    6.0417   -3.1167    0.0000 C   0  0  0  0  0  0  0  0  0  0  0  0
    3.2375   -4.0250    0.0000 C   0  0  0  0  0  0  0  0  0  0  0  0
    5.8208   -2.3208    0.0000 N   0  0  0  0  0  0  0  0  0  0  0  0
    6.5292   -1.9042    0.0000 C   0  0  0  0  0  0  0  0  0  0  0  0
    4.3625   -2.1875    0.0000 C   0  0  0  0  0  0  0  0  0  0  0  0
    4.6958   -1.4333    0.0000 N   0  0  0  0  0  0  0  0  0  0  0  0
    6.8667   -3.1167    0.0000 S   0  0  0  0  0  0  0  0  0  0  0  0
    7.3542   -1.9042    0.0000 C   0  0  0  0  0  0  0  0  0  0  0  0
    6.5292   -1.0792    0.0000 O   0  0  0  0  0  0  0  0  0  0  0  0
    7.7667   -2.6208    0.0000 C   0  0  0  0  0  0  0  0  0  0  0  0
    7.7667   -1.1917    0.0000 C   0  0  0  0  0  0  0  0  0  0  0  0
    9.0042   -1.9042    0.0000 C   0  0  0  0  0  0  0  0  0  0  0  0
    2.5250   -2.7792    0.0000 C   0  0  0  0  0  0  0  0  0  0  0  0
    8.5875   -1.1875    0.0000 C   0  0  0  0  0  0  0  0  0  0  0  0
    8.5917   -2.6208    0.0000 C   0  0  0  0  0  0  0  0  0  0  0  0
    2.5250   -4.4292    0.0000 C   0  0  0  0  0  0  0  0  0  0  0  0
    9.8292   -1.9042    0.0000 O   0  0  0  0  0  0  0  0  0  0  0  0
   10.2417   -2.6167    0.0000 C   0  0  0  0  0  0  0  0  0  0  0  0
    1.8167   -3.2000    0.0000 C   0  0  0  0  0  0  0  0  0  0  0  0
    1.8167   -4.0250    0.0000 C   0  0  0  0  0  0  0  0  0  0  0  0
  1  2  2  0  0  0  0
  1  3  1  0  0  0  0
  2  4  1  0  0  0  0
  1  5  1  0  0  0  0
  5  6  1  0  0  0  0
  3  7  1  0  0  0  0
  6  8  1  0  0  0  0
  8  9  1  0  0  0  0
  2 10  1  0  0  0  0
 10 11  3  0  0  0  0
  6 12  2  0  0  0  0
  9 13  1  0  0  0  0
  9 14  2  0  0  0  0
 13 15  2  0  0  0  0
 13 16  1  0  0  0  0
 17 19  1  0  0  0  0
  4 18  1  0  0  0  0
 16 19  2  0  0  0  0
 15 20  1  0  0  0  0
  7 21  1  0  0  0  0
 17 22  1  0  0  0  0
 22 23  1  0  0  0  0
 18 24  1  0  0  0  0
 21 25  1  0  0  0  0
  4  7  2  0  0  0  0
 24 25  1  0  0  0  0
 17 20  2  0  0  0  0
M  END
> <MOLFORMULA>
C18 H17 N3 O2 S2

> <MOLWEIGHT>
3.714833000000000e+002

> <IDNUMBER>
AT-819/OC09036

> <PRICE>
EUR 128/10 mg

> <Similarity score>
0.18

$$$$

  -OEChem-04222410502D

 24 26  0     0  0  0  0  0  0999 V2000
    0.4625    1.9250    0.0000 C   0  0  0  0  0  0  0  0  0  0  0  0
    0.0583    2.8375    0.0000 C   0  0  0  0  0  0  0  0  0  0  0  0
   -1.0375   -2.4042    0.0000 N   0  0  0  0  0  0  0  0  0  0  0  0
   -0.0375   -2.4042    0.0000 C   0  0  0  0  0  0  0  0  0  0  0  0
    1.4583    2.0292    0.0000 S   0  0  0  0  0  0  0  0  0  0  0  0
    0.4625   -3.2708    0.0000 N   0  0  0  0  0  0  0  0  0  0  0  0
    0.8000    3.5083    0.0000 C   0  0  0  0  0  0  0  0  0  0  0  0
    1.6667    3.0083    0.0000 C   0  0  0  0  0  0  0  0  0  0  0  0
   -0.0375   -4.1375    0.0000 C   0  0  0  0  0  0  0  0  0  0  0  0
   -1.5375   -3.2708    0.0000 C   0  0  0  0  0  0  0  0  0  0  0  0
   -1.0375   -4.1375    0.0000 C   0  0  0  0  0  0  0  0  0  0  0  0
   -0.0375    1.0583    0.0000 N   0  0  0  0  0  0  0  0  0  0  0  0
   -0.9208    3.0458    0.0000 C   0  0  0  0  0  0  0  0  0  0  0  0
   -1.2292    3.9958    0.0000 N   0  0  0  0  0  0  0  0  0  0  0  0
    0.4625    0.1917    0.0000 C   0  0  0  0  0  0  0  0  0  0  0  0
    0.4625   -1.5375    0.0000 S   0  0  0  0  0  0  0  0  0  0  0  0
   -2.5375   -3.2708    0.0000 O   0  0  0  0  0  0  0  0  0  0  0  0
    1.4625    0.1917    0.0000 O   0  0  0  0  0  0  0  0  0  0  0  0
    0.4625   -5.0042    0.0000 N   0  0  0  0  0  0  0  0  0  0  0  0
   -0.0375   -0.6750    0.0000 C   0  0  0  0  0  0  0  0  0  0  0  0
    0.8000    4.5042    0.0000 C   0  0  0  0  0  0  0  0  0  0  0  0
    2.5333    3.5083    0.0000 C   0  0  0  0  0  0  0  0  0  0  0  0
    1.6667    5.0042    0.0000 C   0  0  0  0  0  0  0  0  0  0  0  0
    2.5333    4.5042    0.0000 C   0  0  0  0  0  0  0  0  0  0  0  0
  1  2  2  0  0  0  0
  3  4  2  0  0  0  0
  4 16  1  0  0  0  0
  1  5  1  0  0  0  0
  4  6  1  0  0  0  0
  2  7  1  0  0  0  0
  5  8  1  0  0  0  0
  6  9  1  0  0  0  0
  3 10  1  0  0  0  0
  9 11  2  0  0  0  0
  1 12  1  0  0  0  0
  2 13  1  0  0  0  0
 13 14  3  0  0  0  0
 12 15  1  0  0  0  0
 16 20  1  0  0  0  0
 10 17  2  0  0  0  0
 15 18  2  0  0  0  0
  9 19  1  0  0  0  0
 15 20  1  0  0  0  0
  7 21  1  0  0  0  0
  8 22  1  0  0  0  0
 21 23  1  0  0  0  0
 22 24  1  0  0  0  0
  7  8  2  0  0  0  0
 23 24  1  0  0  0  0
 10 11  1  0  0  0  0
M  END
> <MOLFORMULA>
C15 H15 N5 O2 S2

> <MOLWEIGHT>
3.614485000000000e+002

> <IDNUMBER>
AN-153/I169830

> <PRICE>
EUR 130/10 mg

> <Similarity score>
0.18

$$$$

  -OEChem-04222410502D

 24 26  0     0  0  0  0  0  0999 V2000
   -1.4000    0.3833    0.0000 C   0  0  0  0  0  0  0  0  0  0  0  0
   -1.9750    1.1958    0.0000 C   0  0  0  0  0  0  0  0  0  0  0  0
    3.1208   -0.4792    0.0000 N   0  0  0  0  0  0  0  0  0  0  0  0
    2.6125   -1.3417    0.0000 C   0  0  0  0  0  0  0  0  0  0  0  0
   -1.9750   -0.4042    0.0000 S   0  0  0  0  0  0  0  0  0  0  0  0
   -2.9208    0.8917    0.0000 C   0  0  0  0  0  0  0  0  0  0  0  0
    3.1208   -2.2083    0.0000 N   0  0  0  0  0  0  0  0  0  0  0  0
   -2.9208   -0.1000    0.0000 C   0  0  0  0  0  0  0  0  0  0  0  0
    4.1208   -0.4792    0.0000 C   0  0  0  0  0  0  0  0  0  0  0  0
    4.6292   -1.3417    0.0000 C   0  0  0  0  0  0  0  0  0  0  0  0
    4.1208   -2.2083    0.0000 C   0  0  0  0  0  0  0  0  0  0  0  0
   -0.4000    0.3833    0.0000 N   0  0  0  0  0  0  0  0  0  0  0  0
   -1.6708    2.1333    0.0000 C   0  0  0  0  0  0  0  0  0  0  0  0
   -1.3458    3.1000    0.0000 N   0  0  0  0  0  0  0  0  0  0  0  0
    0.0917   -0.4792    0.0000 C   0  0  0  0  0  0  0  0  0  0  0  0
    1.6125   -1.3417    0.0000 S   0  0  0  0  0  0  0  0  0  0  0  0
    4.6458   -3.0958    0.0000 O   0  0  0  0  0  0  0  0  0  0  0  0
   -0.4000   -1.3417    0.0000 O   0  0  0  0  0  0  0  0  0  0  0  0
    4.6458    0.3833    0.0000 N   0  0  0  0  0  0  0  0  0  0  0  0
    1.1083   -0.4792    0.0000 C   0  0  0  0  0  0  0  0  0  0  0  0
   -3.7833    1.4000    0.0000 C   0  0  0  0  0  0  0  0  0  0  0  0
   -3.7833   -0.6083    0.0000 C   0  0  0  0  0  0  0  0  0  0  0  0
   -4.6500    0.8917    0.0000 C   0  0  0  0  0  0  0  0  0  0  0  0
   -4.6500   -0.1000    0.0000 C   0  0  0  0  0  0  0  0  0  0  0  0
  1  2  2  0  0  0  0
  3  4  2  0  0  0  0
  4 16  1  0  0  0  0
  1  5  1  0  0  0  0
  2  6  1  0  0  0  0
  4  7  1  0  0  0  0
  5  8  1  0  0  0  0
  3  9  1  0  0  0  0
 10 11  1  0  0  0  0
  7 11  1  0  0  0  0
  1 12  1  0  0  0  0
  2 13  1  0  0  0  0
 13 14  3  0  0  0  0
 12 15  1  0  0  0  0
 16 20  1  0  0  0  0
 11 17  2  0  0  0  0
 15 18  2  0  0  0  0
  9 19  1  0  0  0  0
 15 20  1  0  0  0  0
  6 21  1  0  0  0  0
  8 22  1  0  0  0  0
 21 23  1  0  0  0  0
 22 24  1  0  0  0  0
  6  8  2  0  0  0  0
 23 24  1  0  0  0  0
  9 10  2  0  0  0  0
M  END
> <MOLFORMULA>
C15 H15 N5 O2 S2

> <MOLWEIGHT>
3.614485000000000e+002

> <IDNUMBER>
AN-153/I162547

> <PRICE>
EUR 130/10 mg

> <Similarity score>
0.18

$$$$

  -OEChem-04222410502D

 23 25  0     0  0  0  0  0  0999 V2000
   -0.6833    2.0250    0.0000 C   0  0  0  0  0  0  0  0  0  0  0  0
   -0.0542    2.8000    0.0000 C   0  0  0  0  0  0  0  0  0  0  0  0
   -1.6167    2.3833    0.0000 S   0  0  0  0  0  0  0  0  0  0  0  0
   -0.5958    3.6417    0.0000 C   0  0  0  0  0  0  0  0  0  0  0  0
   -0.4208    1.0583    0.0000 N   0  0  0  0  0  0  0  0  0  0  0  0
   -1.5625    3.3792    0.0000 C   0  0  0  0  0  0  0  0  0  0  0  0
   -1.1292    0.3500    0.0000 C   0  0  0  0  0  0  0  0  0  0  0  0
    0.9458    2.7500    0.0000 C   0  0  0  0  0  0  0  0  0  0  0  0
    1.4917    3.5875    0.0000 N   0  0  0  0  0  0  0  0  0  0  0  0
   -0.8667   -0.6167    0.0000 C   0  0  0  0  0  0  0  0  0  0  0  0
   -2.0958    0.6083    0.0000 O   0  0  0  0  0  0  0  0  0  0  0  0
    0.1000   -0.8708    0.0000 C   0  0  0  0  0  0  0  0  0  0  0  0
   -1.5750   -1.3250    0.0000 C   0  0  0  0  0  0  0  0  0  0  0  0
   -0.5458    4.6333    0.0000 C   0  0  0  0  0  0  0  0  0  0  0  0
   -0.3500   -2.5458    0.0000 C   0  0  0  0  0  0  0  0  0  0  0  0
   -2.1083    4.2125    0.0000 C   0  0  0  0  0  0  0  0  0  0  0  0
   -1.3125   -2.2875    0.0000 C   0  0  0  0  0  0  0  0  0  0  0  0
    0.3583   -1.8375    0.0000 C   0  0  0  0  0  0  0  0  0  0  0  0
   -0.0875   -3.5125    0.0000 O   0  0  0  0  0  0  0  0  0  0  0  0
   -1.4792    4.9917    0.0000 C   0  0  0  0  0  0  0  0  0  0  0  0
    0.8792   -3.7708    0.0000 C   0  0  0  0  0  0  0  0  0  0  0  0
    1.1375   -4.7333    0.0000 C   0  0  0  0  0  0  0  0  0  0  0  0
    2.1042   -4.9917    0.0000 C   0  0  0  0  0  0  0  0  0  0  0  0
  1  2  2  0  0  0  0
  1  3  1  0  0  0  0
  2  4  1  0  0  0  0
  1  5  1  0  0  0  0
  3  6  1  0  0  0  0
  5  7  1  0  0  0  0
  2  8  1  0  0  0  0
  8  9  3  0  0  0  0
  7 10  1  0  0  0  0
  7 11  2  0  0  0  0
 10 12  1  0  0  0  0
 10 13  2  0  0  0  0
  4 14  1  0  0  0  0
 15 17  2  0  0  0  0
  6 16  1  0  0  0  0
 13 17  1  0  0  0  0
 12 18  2  0  0  0  0
 15 19  1  0  0  0  0
 16 20  1  0  0  0  0
 19 21  1  0  0  0  0
 21 22  1  0  0  0  0
 22 23  1  0  0  0  0
  4  6  2  0  0  0  0
 14 20  1  0  0  0  0
 15 18  1  0  0  0  0
M  END
> <MOLFORMULA>
C18 H18 N2 O2 S

> <MOLWEIGHT>
3.264182000000000e+002

> <IDNUMBER>
AN-153/I215686

> <PRICE>
EUR 130/10 mg

> <Similarity score>
0.18

$$$$

  -OEChem-04222410502D

 24 26  0     0  0  0  0  0  0999 V2000
    0.4625    1.9250    0.0000 C   0  0  0  0  0  0  0  0  0  0  0  0
    0.0583    2.8375    0.0000 C   0  0  0  0  0  0  0  0  0  0  0  0
    1.4583    2.0292    0.0000 S   0  0  0  0  0  0  0  0  0  0  0  0
    0.8000    3.5083    0.0000 C   0  0  0  0  0  0  0  0  0  0  0  0
    1.6667    3.0083    0.0000 C   0  0  0  0  0  0  0  0  0  0  0  0
   -1.0375   -2.4042    0.0000 N   0  0  0  0  0  0  0  0  0  0  0  0
    0.4625   -3.2708    0.0000 N   0  0  0  0  0  0  0  0  0  0  0  0
   -0.0375   -2.4042    0.0000 C   0  0  0  0  0  0  0  0  0  0  0  0
   -0.0375    1.0583    0.0000 N   0  0  0  0  0  0  0  0  0  0  0  0
   -0.9208    3.0458    0.0000 C   0  0  0  0  0  0  0  0  0  0  0  0
   -1.5375   -3.2708    0.0000 C   0  0  0  0  0  0  0  0  0  0  0  0
   -0.0375   -4.1375    0.0000 C   0  0  0  0  0  0  0  0  0  0  0  0
   -1.0375   -4.1375    0.0000 C   0  0  0  0  0  0  0  0  0  0  0  0
   -1.2292    3.9958    0.0000 N   0  0  0  0  0  0  0  0  0  0  0  0
    0.4625    0.1917    0.0000 C   0  0  0  0  0  0  0  0  0  0  0  0
    0.4625   -1.5375    0.0000 S   0  0  0  0  0  0  0  0  0  0  0  0
    1.4625    0.1917    0.0000 O   0  0  0  0  0  0  0  0  0  0  0  0
   -0.0375   -0.6750    0.0000 C   0  0  0  0  0  0  0  0  0  0  0  0
   -2.5375   -3.2708    0.0000 N   0  0  0  0  0  0  0  0  0  0  0  0
    0.4625   -5.0042    0.0000 O   0  0  0  0  0  0  0  0  0  0  0  0
    0.8000    4.5042    0.0000 C   0  0  0  0  0  0  0  0  0  0  0  0
    2.5333    3.5083    0.0000 C   0  0  0  0  0  0  0  0  0  0  0  0
    1.6667    5.0042    0.0000 C   0  0  0  0  0  0  0  0  0  0  0  0
    2.5333    4.5042    0.0000 C   0  0  0  0  0  0  0  0  0  0  0  0
  1  2  2  0  0  0  0
  1  3  1  0  0  0  0
  2  4  1  0  0  0  0
  3  5  1  0  0  0  0
  6  8  2  0  0  0  0
  7  8  1  0  0  0  0
  8 16  1  0  0  0  0
  1  9  1  0  0  0  0
  2 10  1  0  0  0  0
  6 11  1  0  0  0  0
  7 12  2  0  0  0  0
 12 13  1  0  0  0  0
 10 14  3  0  0  0  0
  9 15  1  0  0  0  0
 16 18  1  0  0  0  0
 15 17  2  0  0  0  0
 15 18  1  0  0  0  0
 11 19  1  0  0  0  0
 12 20  1  0  0  0  0
  4 21  1  0  0  0  0
  5 22  1  0  0  0  0
 21 23  1  0  0  0  0
 22 24  1  0  0  0  0
  4  5  2  0  0  0  0
 23 24  1  0  0  0  0
 11 13  2  0  0  0  0
M  END
> <MOLFORMULA>
C15 H15 N5 O2 S2

> <MOLWEIGHT>
3.614485000000000e+002

> <IDNUMBER>
AN-153/I189190

> <PRICE>
EUR 130/10 mg

> <Similarity score>
0.18

$$$$

  -OEChem-04222410502D

 35 38  0     0  0  0  0  0  0999 V2000
    5.1417    1.1000    0.0000 C   0  0  0  0  0  0  0  0  0  0  0  0
    5.2625    0.5125    0.0000 C   0  0  0  0  0  0  0  0  0  0  0  0
    2.0542    0.8958    0.0000 N   0  0  3  0  0  0  0  0  0  0  0  0
    2.5417    1.2250    0.0000 C   0  0  0  0  0  0  0  0  0  0  0  0
    5.6417    1.3833    0.0000 S   0  0  0  0  0  0  0  0  0  0  0  0
    1.5875    1.2625    0.0000 C   0  0  0  0  0  0  0  0  0  0  0  0
    5.8542    0.4458    0.0000 C   0  0  0  0  0  0  0  0  0  0  0  0
    2.3792    1.8000    0.0000 N   0  0  0  0  0  0  0  0  0  0  0  0
    1.7875    1.8208    0.0000 N   0  0  0  0  0  0  0  0  0  0  0  0
    6.0875    0.9875    0.0000 C   0  0  0  0  0  0  0  0  0  0  0  0
    4.6042    1.3625    0.0000 N   0  0  0  0  0  0  0  0  0  0  0  0
    4.8667    0.0708    0.0000 C   0  0  0  0  0  0  0  0  0  0  0  0
    0.0042    1.3458    0.0000 C   0  0  0  0  0  0  0  0  0  0  0  0
    4.4750   -0.3792    0.0000 N   0  0  0  0  0  0  0  0  0  0  0  0
    3.0792    0.9708    0.0000 S   0  0  0  0  0  0  0  0  0  0  0  0
    4.1125    1.0333    0.0000 C   0  0  0  0  0  0  0  0  0  0  0  0
    0.5792    1.5125    0.0000 N   0  0  0  0  0  0  0  0  0  0  0  0
    1.0125    1.0958    0.0000 C   0  0  0  0  0  0  0  0  0  0  0  0
   -0.1333    0.7625    0.0000 C   0  0  0  0  0  0  0  0  0  0  0  0
   -0.4250    1.7583    0.0000 O   0  0  0  0  0  0  0  0  0  0  0  0
    4.1542    0.4458    0.0000 O   0  0  0  0  0  0  0  0  0  0  0  0
    3.5792    1.2958    0.0000 C   0  0  0  0  0  0  0  0  0  0  0  0
    0.3042    0.3583    0.0000 C   0  0  0  0  0  0  0  0  0  0  0  0
   -0.7000    0.5958    0.0000 C   0  0  0  0  0  0  0  0  0  0  0  0
    2.0292    0.2958    0.0000 C   0  0  0  0  0  0  0  0  0  0  0  0
   -0.4083   -0.4000    0.0000 C   0  0  0  0  0  0  0  0  0  0  0  0
    6.2000   -0.0292    0.0000 C   0  0  0  0  0  0  0  0  0  0  0  0
    0.1750   -0.2292    0.0000 C   0  0  0  0  0  0  0  0  0  0  0  0
   -0.8458    0.0125    0.0000 C   0  0  0  0  0  0  0  0  0  0  0  0
    6.6792    1.0500    0.0000 C   0  0  0  0  0  0  0  0  0  0  0  0
   -0.5625   -0.9792    0.0000 O   0  0  0  0  0  0  0  0  0  0  0  0
   -0.1375   -1.4000    0.0000 C   0  0  0  0  0  0  0  0  0  0  0  0
    2.5292   -0.0250    0.0000 C   0  0  0  0  0  0  0  0  0  0  0  0
    6.7917    0.0208    0.0000 C   0  0  0  0  0  0  0  0  0  0  0  0
    7.0292    0.5833    0.0000 C   0  0  0  0  0  0  0  0  0  0  0  0
  1  2  2  0  0  0  0
  3  4  1  0  0  0  0
  4 15  1  0  0  0  0
  1  5  1  0  0  0  0
  3  6  1  0  0  0  0
  2  7  1  0  0  0  0
  4  8  2  0  0  0  0
  8  9  1  0  0  0  0
  5 10  1  0  0  0  0
  1 11  1  0  0  0  0
  2 12  1  0  0  0  0
 13 17  1  0  0  0  0
 12 14  3  0  0  0  0
 15 22  1  0  0  0  0
 11 16  1  0  0  0  0
 17 18  1  0  0  0  0
  6 18  1  0  0  0  0
 13 19  1  0  0  0  0
 13 20  2  0  0  0  0
 16 21  2  0  0  0  0
 16 22  1  0  0  0  0
 19 23  1  0  0  0  0
 19 24  2  0  0  0  0
  3 25  1  0  0  0  0
 26 29  2  0  0  0  0
  7 27  1  0  0  0  0
 23 28  2  0  0  0  0
 24 29  1  0  0  0  0
 10 30  1  0  0  0  0
 26 31  1  0  0  0  0
 31 32  1  0  0  0  0
 25 33  1  0  0  0  0
 27 34  1  0  0  0  0
 30 35  1  0  0  0  0
  7 10  2  0  0  0  0
 34 35  1  0  0  0  0
  6  9  2  0  0  0  0
 26 28  1  0  0  0  0
M  END
> <MOLFORMULA>
C24 H26 N6 O3 S2

> <MOLWEIGHT>
5.106404000000000e+002

> <IDNUMBER>
AM-879/PD04571

> <PRICE>
EUR 55.00/10 mg

> <Similarity score>
0.18

$$$$

  -OEChem-04222410502D

 23 25  0     0  0  0  0  0  0999 V2000
   -0.0167   -1.2167    0.0000 C   0  0  0  0  0  0  0  0  0  0  0  0
    0.3875   -2.1333    0.0000 C   0  0  0  0  0  0  0  0  0  0  0  0
    1.3833   -2.0292    0.0000 C   0  0  0  0  0  0  0  0  0  0  0  0
    1.5917   -1.0500    0.0000 C   0  0  0  0  0  0  0  0  0  0  0  0
    0.7250   -0.5500    0.0000 S   0  0  0  0  0  0  0  0  0  0  0  0
   -0.9958   -1.0083    0.0000 N   0  0  0  0  0  0  0  0  0  0  0  0
   -1.3042   -0.0583    0.0000 C   0  0  0  0  0  0  0  0  0  0  0  0
   -0.1125   -2.9958    0.0000 C   0  0  0  0  0  0  0  0  0  0  0  0
   -1.1125   -2.9958    0.0000 N   0  0  0  0  0  0  0  0  0  0  0  0
    2.1250   -2.6958    0.0000 C   0  0  0  0  0  0  0  0  0  0  0  0
   -2.2833    0.1500    0.0000 C   0  0  0  0  0  0  0  0  0  0  0  0
    2.5417   -0.7417    0.0000 C   0  0  0  0  0  0  0  0  0  0  0  0
   -0.6375    0.6833    0.0000 O   0  0  0  0  0  0  0  0  0  0  0  0
   -2.5917    1.1000    0.0000 C   0  0  0  0  0  0  0  0  0  0  0  0
    3.0750   -2.3875    0.0000 C   0  0  0  0  0  0  0  0  0  0  0  0
   -3.5708    1.3083    0.0000 C   0  0  0  0  0  0  0  0  0  0  0  0
    3.2833   -1.4083    0.0000 C   0  0  3  0  0  0  0  0  0  0  0  0
   -3.8792    2.2583    0.0000 O   0  0  0  0  0  0  0  0  0  0  0  0
   -2.9542   -0.5958    0.0000 C   0  0  0  0  0  0  0  0  0  0  0  0
   -3.9292   -0.3875    0.0000 C   0  0  0  0  0  0  0  0  0  0  0  0
   -4.2417    0.5625    0.0000 C   0  0  0  0  0  0  0  0  0  0  0  0
   -3.2125    3.0000    0.0000 C   0  0  0  0  0  0  0  0  0  0  0  0
    4.2375   -1.1000    0.0000 C   0  0  0  0  0  0  0  0  0  0  0  0
  1  2  2  0  0  0  0
  2  3  1  0  0  0  0
  4  5  1  0  0  0  0
  1  5  1  0  0  0  0
  1  6  1  0  0  0  0
  6  7  1  0  0  0  0
  2  8  1  0  0  0  0
  8  9  3  0  0  0  0
  3 10  1  0  0  0  0
  7 11  1  0  0  0  0
  4 12  1  0  0  0  0
  7 13  2  0  0  0  0
 11 14  1  0  0  0  0
 10 15  1  0  0  0  0
 14 16  2  0  0  0  0
 12 17  1  0  0  0  0
 16 18  1  0  0  0  0
 11 19  2  0  0  0  0
 19 20  1  0  0  0  0
 20 21  2  0  0  0  0
 18 22  1  0  0  0  0
 17 23  1  0  0  0  0
  3  4  2  0  0  0  0
 15 17  1  0  0  0  0
 16 21  1  0  0  0  0
M  END
> <MOLFORMULA>
C18 H18 N2 O2 S

> <MOLWEIGHT>
3.264182000000000e+002

> <IDNUMBER>
AN-153/I178470

> <PRICE>
EUR 130/10 mg

> <Similarity score>
0.18

$$$$

  -OEChem-04222410502D

 24 26  0     0  0  0  0  0  0999 V2000
   -0.1458    2.2750    0.0000 C   0  0  0  0  0  0  0  0  0  0  0  0
    0.3958    3.1167    0.0000 C   0  0  0  0  0  0  0  0  0  0  0  0
   -1.1125    2.5333    0.0000 S   0  0  0  0  0  0  0  0  0  0  0  0
   -0.2333    3.8917    0.0000 C   0  0  0  0  0  0  0  0  0  0  0  0
    0.2125    1.3417    0.0000 N   0  0  0  0  0  0  0  0  0  0  0  0
   -1.1667    3.5292    0.0000 C   0  0  0  0  0  0  0  0  0  0  0  0
   -0.4125    0.5625    0.0000 C   0  0  0  0  0  0  0  0  0  0  0  0
    1.3958    3.1708    0.0000 C   0  0  0  0  0  0  0  0  0  0  0  0
    1.9417    2.3292    0.0000 N   0  0  0  0  0  0  0  0  0  0  0  0
   -0.0542   -0.3708    0.0000 C   0  0  0  0  0  0  0  0  0  0  0  0
   -1.4042    0.7167    0.0000 O   0  0  0  0  0  0  0  0  0  0  0  0
   -0.6833   -1.1458    0.0000 C   0  0  0  0  0  0  0  0  0  0  0  0
   -0.3208   -2.0792    0.0000 C   0  0  0  0  0  0  0  0  0  0  0  0
   -0.0792    4.8750    0.0000 C   0  0  0  0  0  0  0  0  0  0  0  0
   -1.9458    4.1542    0.0000 C   0  0  0  0  0  0  0  0  0  0  0  0
   -0.9500   -2.8583    0.0000 O   0  0  0  0  0  0  0  0  0  0  0  0
    0.9333   -0.5250    0.0000 C   0  0  0  0  0  0  0  0  0  0  0  0
    1.2958   -1.4583    0.0000 C   0  0  0  0  0  0  0  0  0  0  0  0
    0.6667   -2.2333    0.0000 C   0  0  0  0  0  0  0  0  0  0  0  0
   -0.5875   -3.7917    0.0000 C   0  0  0  0  0  0  0  0  0  0  0  0
   -1.2167   -4.5708    0.0000 C   0  0  0  0  0  0  0  0  0  0  0  0
   -0.8583    5.5042    0.0000 C   0  0  0  0  0  0  0  0  0  0  0  0
   -1.7917    5.1417    0.0000 C   0  0  0  0  0  0  0  0  0  0  0  0
   -0.8583   -5.5042    0.0000 C   0  0  0  0  0  0  0  0  0  0  0  0
  1  2  2  0  0  0  0
  1  3  1  0  0  0  0
  2  4  1  0  0  0  0
  1  5  1  0  0  0  0
  3  6  1  0  0  0  0
  5  7  1  0  0  0  0
  2  8  1  0  0  0  0
  8  9  3  0  0  0  0
  7 10  1  0  0  0  0
  7 11  2  0  0  0  0
 10 12  2  0  0  0  0
 12 13  1  0  0  0  0
  4 14  1  0  0  0  0
  6 15  1  0  0  0  0
 13 16  1  0  0  0  0
 10 17  1  0  0  0  0
 17 18  2  0  0  0  0
 18 19  1  0  0  0  0
 16 20  1  0  0  0  0
 20 21  1  0  0  0  0
 14 22  1  0  0  0  0
 15 23  1  0  0  0  0
 21 24  1  0  0  0  0
  4  6  2  0  0  0  0
 22 23  1  0  0  0  0
 13 19  2  0  0  0  0
M  END
> <MOLFORMULA>
C19 H20 N2 O2 S

> <MOLWEIGHT>
3.404450000000000e+002

> <IDNUMBER>
AN-153/I224048

> <PRICE>
EUR 130/10 mg

> <Similarity score>
0.18

$$$$

  -OEChem-04222410502D

 22 24  0     0  0  0  0  0  0999 V2000
    0.5250    1.2667    0.0000 C   0  0  0  0  0  0  0  0  0  0  0  0
    0.1167    2.1792    0.0000 C   0  0  0  0  0  0  0  0  0  0  0  0
    1.5208    1.3708    0.0000 S   0  0  0  0  0  0  0  0  0  0  0  0
    0.8625    2.8500    0.0000 C   0  0  0  0  0  0  0  0  0  0  0  0
    0.0250    0.4000    0.0000 N   0  0  0  0  0  0  0  0  0  0  0  0
    1.7292    2.3500    0.0000 C   0  0  0  0  0  0  0  0  0  0  0  0
    0.5250   -0.4625    0.0000 C   0  0  0  0  0  0  0  0  0  0  0  0
   -0.8583    2.3875    0.0000 C   0  0  0  0  0  0  0  0  0  0  0  0
    0.0250   -1.3292    0.0000 C   0  0  0  0  0  0  0  0  0  0  0  0
   -1.1708    3.3417    0.0000 N   0  0  0  0  0  0  0  0  0  0  0  0
   -1.4750   -2.1958    0.0000 C   0  0  0  0  0  0  0  0  0  0  0  0
   -0.9750   -1.3292    0.0000 C   0  0  0  0  0  0  0  0  0  0  0  0
   -0.9750   -3.0625    0.0000 C   0  0  0  0  0  0  0  0  0  0  0  0
    1.5250   -0.4625    0.0000 O   0  0  0  0  0  0  0  0  0  0  0  0
    0.5250   -2.1958    0.0000 C   0  0  0  0  0  0  0  0  0  0  0  0
    0.0250   -3.0625    0.0000 C   0  0  0  0  0  0  0  0  0  0  0  0
   -2.4750   -2.1958    0.0000 Cl  0  0  0  0  0  0  0  0  0  0  0  0
    1.0708    3.8292    0.0000 C   0  0  0  0  0  0  0  0  0  0  0  0
    2.4708    3.0208    0.0000 C   0  0  0  0  0  0  0  0  0  0  0  0
   -1.4750   -3.9292    0.0000 O   0  0  0  0  0  0  0  0  0  0  0  0
    2.0625    3.9333    0.0000 C   0  0  0  0  0  0  0  0  0  0  0  0
   -2.4750   -3.9292    0.0000 C   0  0  0  0  0  0  0  0  0  0  0  0
  1  2  2  0  0  0  0
  1  3  1  0  0  0  0
  2  4  1  0  0  0  0
  1  5  1  0  0  0  0
  3  6  1  0  0  0  0
  5  7  1  0  0  0  0
  2  8  1  0  0  0  0
  7  9  1  0  0  0  0
  8 10  3  0  0  0  0
 11 12  1  0  0  0  0
  9 12  2  0  0  0  0
 13 16  1  0  0  0  0
  7 14  2  0  0  0  0
  9 15  1  0  0  0  0
 15 16  2  0  0  0  0
 11 17  1  0  0  0  0
  4 18  1  0  0  0  0
  6 19  1  0  0  0  0
 13 20  1  0  0  0  0
 19 21  1  0  0  0  0
 20 22  1  0  0  0  0
  4  6  2  0  0  0  0
 18 21  1  0  0  0  0
 11 13  2  0  0  0  0
M  END
> <MOLFORMULA>
C16 H13 Cl N2 O2 S

> <MOLWEIGHT>
3.328097000000000e+002

> <IDNUMBER>
AN-153/I226309

> <PRICE>
EUR 130/10 mg

> <Similarity score>
0.18

$$$$

  -OEChem-04222410502D

 26 28  0     0  0  0  0  0  0999 V2000
    1.9625    1.0583    0.0000 C   0  0  0  0  0  0  0  0  0  0  0  0
    2.9583    1.1625    0.0000 C   0  0  0  0  0  0  0  0  0  0  0  0
    1.5583    1.9708    0.0000 S   0  0  0  0  0  0  0  0  0  0  0  0
    3.1667    2.1417    0.0000 C   0  0  0  0  0  0  0  0  0  0  0  0
    1.4625    0.1917    0.0000 N   0  0  0  0  0  0  0  0  0  0  0  0
   -1.5375   -1.5375    0.0000 C   0  0  0  0  0  0  0  0  0  0  0  0
    2.3000    2.6417    0.0000 C   0  0  0  0  0  0  0  0  0  0  0  0
    0.4625    0.1917    0.0000 C   0  0  0  0  0  0  0  0  0  0  0  0
   -2.5375   -1.5375    0.0000 N   0  0  0  0  0  0  0  0  0  0  0  0
   -1.0375   -2.4042    0.0000 N   0  0  0  0  0  0  0  0  0  0  0  0
    3.6292    0.4208    0.0000 C   0  0  0  0  0  0  0  0  0  0  0  0
   -1.0375   -0.6750    0.0000 S   0  0  0  0  0  0  0  0  0  0  0  0
    3.3167   -0.5292    0.0000 N   0  0  0  0  0  0  0  0  0  0  0  0
   -0.0375   -0.6750    0.0000 C   0  0  3  0  0  0  0  0  0  0  0  0
   -3.0375   -2.4042    0.0000 C   0  0  0  0  0  0  0  0  0  0  0  0
   -1.5375   -3.2708    0.0000 C   0  0  0  0  0  0  0  0  0  0  0  0
   -0.0375    1.0583    0.0000 O   0  0  0  0  0  0  0  0  0  0  0  0
   -2.5375   -3.2708    0.0000 C   0  0  0  0  0  0  0  0  0  0  0  0
    4.0333    2.6417    0.0000 C   0  0  0  0  0  0  0  0  0  0  0  0
    2.3000    3.6417    0.0000 C   0  0  0  0  0  0  0  0  0  0  0  0
    0.4625   -1.5375    0.0000 C   0  0  0  0  0  0  0  0  0  0  0  0
   -1.0375   -4.1375    0.0000 C   0  0  0  0  0  0  0  0  0  0  0  0
   -4.0375   -2.4042    0.0000 C   0  0  0  0  0  0  0  0  0  0  0  0
    4.0333    3.6417    0.0000 C   0  0  0  0  0  0  0  0  0  0  0  0
    3.1667    4.1375    0.0000 C   0  0  0  0  0  0  0  0  0  0  0  0
   -0.0375   -2.4042    0.0000 C   0  0  0  0  0  0  0  0  0  0  0  0
  1  2  2  0  0  0  0
  1  3  1  0  0  0  0
  2  4  1  0  0  0  0
  1  5  1  0  0  0  0
  6 12  1  0  0  0  0
  3  7  1  0  0  0  0
  5  8  1  0  0  0  0
  6  9  1  0  0  0  0
  6 10  2  0  0  0  0
  2 11  1  0  0  0  0
 12 14  1  0  0  0  0
 11 13  3  0  0  0  0
  8 14  1  0  0  0  0
  9 15  2  0  0  0  0
 10 16  1  0  0  0  0
  8 17  2  0  0  0  0
 16 18  2  0  0  0  0
  4 19  1  0  0  0  0
  7 20  1  0  0  0  0
 14 21  1  0  0  0  0
 16 22  1  0  0  0  0
 15 23  1  0  0  0  0
 19 24  1  0  0  0  0
 20 25  1  0  0  0  0
 21 26  1  0  0  0  0
  4  7  2  0  0  0  0
 24 25  1  0  0  0  0
 15 18  1  0  0  0  0
M  END
> <MOLFORMULA>
C19 H22 N4 O S2

> <MOLWEIGHT>
3.865418000000000e+002

> <IDNUMBER>
AN-153/I144955

> <PRICE>
EUR 130/10 mg

> <Similarity score>
0.18

$$$$

  -OEChem-04222410502D

 39 42  0     0  0  0  0  0  0999 V2000
   -1.1125    0.3000    0.0000 C   0  0  0  0  0  0  0  0  0  0  0  0
   -2.3333    0.8458    0.0000 C   0  0  0  0  0  0  0  0  0  0  0  0
   -1.2500   -1.0375    0.0000 S   0  0  0  0  0  0  0  0  0  0  0  0
   -3.2333   -0.1542    0.0000 C   0  0  0  0  0  0  0  0  0  0  0  0
    0.0875    0.9625    0.0000 N   0  0  0  0  0  0  0  0  0  0  0  0
   -2.5708   -1.3167    0.0000 C   0  0  0  0  0  0  0  0  0  0  0  0
    2.4042    0.9625    0.0000 C   0  0  0  0  0  0  0  0  0  0  0  0
    1.2500    0.3000    0.0000 C   0  0  0  0  0  0  0  0  0  0  0  0
    9.5417    2.9583    0.0000 C   0  0  0  0  0  0  0  0  0  0  0  0
   -2.6000    2.1500    0.0000 C   0  0  0  0  0  0  0  0  0  0  0  0
    8.4042    2.2875    0.0000 O   0  0  0  0  0  0  0  0  0  0  0  0
    7.2667    0.2708    0.0000 C   0  0  0  0  0  0  0  0  0  0  0  0
    8.4042    0.9208    0.0000 C   0  0  0  0  0  0  0  0  0  0  0  0
   10.7167    2.2500    0.0000 C   0  0  0  0  0  0  0  0  0  0  0  0
   -2.8708    3.4625    0.0000 N   0  0  0  0  0  0  0  0  0  0  0  0
   10.7167    0.9208    0.0000 C   0  0  0  0  0  0  0  0  0  0  0  0
   11.8625    0.2708    0.0000 C   0  0  0  0  0  0  0  0  0  0  0  0
    4.9042    0.3000    0.0000 N   0  0  0  0  0  0  0  0  0  0  0  0
    3.5667    0.3000    0.0000 N   0  0  0  0  0  0  0  0  0  0  0  0
    2.4042    2.2958    0.0000 O   0  0  0  0  0  0  0  0  0  0  0  0
    1.2500   -1.0292    0.0000 O   0  0  0  0  0  0  0  0  0  0  0  0
    7.2667   -1.0625    0.0000 C   0  0  0  0  0  0  0  0  0  0  0  0
   12.9917    0.9208    0.0000 C   0  0  0  0  0  0  0  0  0  0  0  0
    9.5417    4.2417    0.0000 O   0  0  0  0  0  0  0  0  0  0  0  0
    6.0875    0.9583    0.0000 C   0  0  0  0  0  0  0  0  0  0  0  0
   11.8625    2.9583    0.0000 C   0  0  0  0  0  0  0  0  0  0  0  0
    9.6167    0.3000    0.0000 C   0  0  0  0  0  0  0  0  0  0  0  0
   13.0417    2.2875    0.0000 C   0  0  0  0  0  0  0  0  0  0  0  0
    8.4042   -1.7292    0.0000 C   0  0  0  0  0  0  0  0  0  0  0  0
   -4.5958   -0.1542    0.0000 C   0  0  0  0  0  0  0  0  0  0  0  0
    9.6167   -1.0625    0.0000 C   0  0  0  0  0  0  0  0  0  0  0  0
   11.9000   -1.1000    0.0000 O   0  0  0  0  0  0  0  0  0  0  0  0
    8.3917   -3.0417    0.0000 Br  0  0  0  0  0  0  0  0  0  0  0  0
   -3.2333   -2.4792    0.0000 C   0  0  0  0  0  0  0  0  0  0  0  0
   14.1750    0.2708    0.0000 O   0  0  0  0  0  0  0  0  0  0  0  0
   12.9917   -1.6792    0.0000 C   0  0  0  0  0  0  0  0  0  0  0  0
   14.1750   -1.1000    0.0000 C   0  0  0  0  0  0  0  0  0  0  0  0
   -5.2500   -1.3167    0.0000 C   0  0  0  0  0  0  0  0  0  0  0  0
   -4.5958   -2.4792    0.0000 C   0  0  0  0  0  0  0  0  0  0  0  0
  1  2  2  0  0  0  0
  1  3  1  0  0  0  0
  2  4  1  0  0  0  0
  1  5  1  0  0  0  0
  3  6  1  0  0  0  0
  7  8  1  0  0  0  0
  5  8  1  0  0  0  0
  9 11  1  0  0  0  0
  2 10  1  0  0  0  0
 11 13  1  0  0  0  0
 12 25  1  0  0  0  0
 12 13  2  0  0  0  0
  9 14  1  0  0  0  0
 10 15  3  0  0  0  0
 14 16  1  0  0  0  0
 16 17  2  0  0  0  0
 18 19  1  0  0  0  0
  7 19  1  0  0  0  0
  7 20  2  0  0  0  0
  8 21  2  0  0  0  0
 12 22  1  0  0  0  0
 23 28  2  0  0  0  0
  9 24  2  0  0  0  0
 18 25  2  0  0  0  0
 14 26  2  0  0  0  0
 13 27  1  0  0  0  0
 26 28  1  0  0  0  0
 22 29  2  0  0  0  0
  4 30  1  0  0  0  0
 29 31  1  0  0  0  0
 17 32  1  0  0  0  0
 29 33  1  0  0  0  0
  6 34  1  0  0  0  0
 23 35  1  0  0  0  0
 32 36  1  0  0  0  0
 35 37  1  0  0  0  0
 30 38  1  0  0  0  0
 34 39  1  0  0  0  0
  4  6  2  0  0  0  0
 38 39  1  0  0  0  0
 27 31  2  0  0  0  0
 17 23  1  0  0  0  0
M  END
> <MOLFORMULA>
C27 H23 Br N4 O6 S

> <MOLWEIGHT>
6.114707000000000e+002

> <IDNUMBER>
AT-225/NB84554

> <PRICE>
EUR 140/10 mg

> <Similarity score>
0.18

$$$$

  -OEChem-04222410502D

 35 38  0     0  0  0  0  0  0999 V2000
   -1.1125    0.3000    0.0000 C   0  0  0  0  0  0  0  0  0  0  0  0
   -2.3333    0.8458    0.0000 C   0  0  0  0  0  0  0  0  0  0  0  0
   -1.2500   -1.0375    0.0000 S   0  0  0  0  0  0  0  0  0  0  0  0
   -3.2333   -0.1542    0.0000 C   0  0  0  0  0  0  0  0  0  0  0  0
    0.0875    0.9625    0.0000 N   0  0  0  0  0  0  0  0  0  0  0  0
   -2.5708   -1.3167    0.0000 C   0  0  0  0  0  0  0  0  0  0  0  0
    2.4042    0.9625    0.0000 C   0  0  0  0  0  0  0  0  0  0  0  0
    1.2500    0.3000    0.0000 C   0  0  0  0  0  0  0  0  0  0  0  0
   10.7500    2.3958    0.0000 C   0  0  0  0  0  0  0  0  0  0  0  0
   -2.6000    2.1500    0.0000 C   0  0  0  0  0  0  0  0  0  0  0  0
   -2.8708    3.4625    0.0000 N   0  0  0  0  0  0  0  0  0  0  0  0
   10.7500    1.0083    0.0000 O   0  0  0  0  0  0  0  0  0  0  0  0
    4.9042    0.3000    0.0000 N   0  0  0  0  0  0  0  0  0  0  0  0
    9.5875    3.0583    0.0000 C   0  0  0  0  0  0  0  0  0  0  0  0
    3.5667    0.3000    0.0000 N   0  0  0  0  0  0  0  0  0  0  0  0
    2.4042    2.2958    0.0000 O   0  0  0  0  0  0  0  0  0  0  0  0
    1.2500   -1.0292    0.0000 O   0  0  0  0  0  0  0  0  0  0  0  0
   11.9042    3.0583    0.0000 O   0  0  0  0  0  0  0  0  0  0  0  0
    9.5875    0.3208    0.0000 C   0  0  0  0  0  0  0  0  0  0  0  0
    9.5875    4.3875    0.0000 C   0  0  0  0  0  0  0  0  0  0  0  0
    8.4292    2.3708    0.0000 C   0  0  0  0  0  0  0  0  0  0  0  0
    6.0667    0.9958    0.0000 C   0  0  0  0  0  0  0  0  0  0  0  0
    8.4292    0.9958    0.0000 C   0  0  0  0  0  0  0  0  0  0  0  0
    7.2667    4.3875    0.0000 C   0  0  0  0  0  0  0  0  0  0  0  0
    7.2667    0.3208    0.0000 C   0  0  0  0  0  0  0  0  0  0  0  0
   -4.5958   -0.1542    0.0000 C   0  0  0  0  0  0  0  0  0  0  0  0
    7.2667    3.0458    0.0000 C   0  0  0  0  0  0  0  0  0  0  0  0
    8.4417    5.0542    0.0000 C   0  0  0  0  0  0  0  0  0  0  0  0
   -3.2333   -2.4792    0.0000 C   0  0  0  0  0  0  0  0  0  0  0  0
    6.0875    5.0750    0.0000 Cl  0  0  0  0  0  0  0  0  0  0  0  0
    8.4292   -1.6792    0.0000 C   0  0  0  0  0  0  0  0  0  0  0  0
    9.5875   -1.0167    0.0000 C   0  0  0  0  0  0  0  0  0  0  0  0
    7.2667   -0.9917    0.0000 C   0  0  0  0  0  0  0  0  0  0  0  0
   -5.2500   -1.3167    0.0000 C   0  0  0  0  0  0  0  0  0  0  0  0
   -4.5958   -2.4792    0.0000 C   0  0  0  0  0  0  0  0  0  0  0  0
  1  2  2  0  0  0  0
  1  3  1  0  0  0  0
  2  4  1  0  0  0  0
  1  5  1  0  0  0  0
  3  6  1  0  0  0  0
  7  8  1  0  0  0  0
  5  8  1  0  0  0  0
  9 12  1  0  0  0  0
  2 10  1  0  0  0  0
 10 11  3  0  0  0  0
 12 19  1  0  0  0  0
 13 15  1  0  0  0  0
  9 14  1  0  0  0  0
  7 15  1  0  0  0  0
  7 16  2  0  0  0  0
  8 17  2  0  0  0  0
  9 18  2  0  0  0  0
 19 23  1  0  0  0  0
 14 20  2  0  0  0  0
 14 21  1  0  0  0  0
 13 22  2  0  0  0  0
 23 25  2  0  0  0  0
 24 27  1  0  0  0  0
 22 25  1  0  0  0  0
  4 26  1  0  0  0  0
 21 27  2  0  0  0  0
 20 28  1  0  0  0  0
  6 29  1  0  0  0  0
 24 30  1  0  0  0  0
 31 33  2  0  0  0  0
 31 32  1  0  0  0  0
 25 33  1  0  0  0  0
 26 34  1  0  0  0  0
 29 35  1  0  0  0  0
  4  6  2  0  0  0  0
 34 35  1  0  0  0  0
 19 32  2  0  0  0  0
 24 28  2  0  0  0  0
M  END
> <MOLFORMULA>
C25 H19 Cl N4 O4 S

> <MOLWEIGHT>
5.069681000000000e+002

> <IDNUMBER>
AT-225/NB83042

> <PRICE>
EUR 140/10 mg

> <Similarity score>
0.18

$$$$

  -OEChem-04222410502D

 31 35  0     0  0  0  0  0  0999 V2000
   -0.0458   -2.8500    0.0000 C   0  0  0  0  0  0  0  0  0  0  0  0
    0.7375   -3.4708    0.0000 C   0  0  0  0  0  0  0  0  0  0  0  0
   -0.8792   -3.4042    0.0000 S   0  0  0  0  0  0  0  0  0  0  0  0
    0.3875   -4.4083    0.0000 C   0  0  0  0  0  0  0  0  0  0  0  0
   -0.6875    2.6792    0.0000 C   0  0  0  0  0  0  0  0  0  0  0  0
   -1.5333    3.2167    0.0000 C   0  0  0  0  0  0  0  0  0  0  0  0
   -0.0042   -1.8500    0.0000 N   0  0  0  0  0  0  0  0  0  0  0  0
   -0.6083   -4.3667    0.0000 C   0  0  0  0  0  0  0  0  0  0  0  0
    0.1958    3.1458    0.0000 C   0  0  0  0  0  0  0  0  0  0  0  0
   -1.4917    4.2083    0.0000 O   0  0  0  0  0  0  0  0  0  0  0  0
   -0.8500   -1.3167    0.0000 C   0  0  0  0  0  0  0  0  0  0  0  0
    1.7000   -3.2000    0.0000 C   0  0  0  0  0  0  0  0  0  0  0  0
    0.2375    4.1417    0.0000 C   0  0  0  0  0  0  0  0  0  0  0  0
   -0.6083    4.6750    0.0000 C   0  0  0  0  0  0  0  0  0  0  0  0
    2.4167   -3.9000    0.0000 N   0  0  0  0  0  0  0  0  0  0  0  0
   -0.7292    1.6833    0.0000 C   0  0  0  0  0  0  0  0  0  0  0  0
   -0.8125   -0.3167    0.0000 C   0  0  0  0  0  0  0  0  0  0  0  0
   -2.4208    2.7500    0.0000 O   0  0  0  0  0  0  0  0  0  0  0  0
   -1.7375   -1.7792    0.0000 O   0  0  0  0  0  0  0  0  0  0  0  0
   -1.6167    1.2167    0.0000 C   0  0  0  0  0  0  0  0  0  0  0  0
    0.1167    1.1458    0.0000 C   0  0  0  0  0  0  0  0  0  0  0  0
   -1.6542    0.2167    0.0000 C   0  0  0  0  0  0  0  0  0  0  0  0
    0.0750    0.1458    0.0000 C   0  0  0  0  0  0  0  0  0  0  0  0
    0.8542   -5.2958    0.0000 C   0  0  0  0  0  0  0  0  0  0  0  0
   -1.1458   -5.2125    0.0000 C   0  0  0  0  0  0  0  0  0  0  0  0
    1.1250    4.6042    0.0000 C   0  0  0  0  0  0  0  0  0  0  0  0
   -0.5667    5.6750    0.0000 C   0  0  0  0  0  0  0  0  0  0  0  0
    0.3167   -6.1375    0.0000 C   0  0  0  0  0  0  0  0  0  0  0  0
   -0.6792   -6.0958    0.0000 C   0  0  0  0  0  0  0  0  0  0  0  0
    0.3167    6.1375    0.0000 C   0  0  0  0  0  0  0  0  0  0  0  0
    1.1625    5.6042    0.0000 C   0  0  0  0  0  0  0  0  0  0  0  0
  1  2  2  0  0  0  0
  1  3  1  0  0  0  0
  2  4  1  0  0  0  0
  5 16  1  0  0  0  0
  5  6  1  0  0  0  0
  1  7  1  0  0  0  0
  3  8  1  0  0  0  0
  5  9  2  0  0  0  0
  6 10  1  0  0  0  0
  7 11  1  0  0  0  0
  2 12  1  0  0  0  0
  9 13  1  0  0  0  0
 13 14  2  0  0  0  0
 12 15  3  0  0  0  0
 16 21  2  0  0  0  0
 11 17  1  0  0  0  0
  6 18  2  0  0  0  0
 11 19  2  0  0  0  0
 20 22  2  0  0  0  0
 21 23  1  0  0  0  0
 17 22  1  0  0  0  0
 17 23  2  0  0  0  0
  4 24  1  0  0  0  0
  8 25  1  0  0  0  0
 13 26  1  0  0  0  0
 14 27  1  0  0  0  0
 24 28  1  0  0  0  0
 25 29  1  0  0  0  0
 30 31  1  0  0  0  0
 26 31  2  0  0  0  0
  4  8  2  0  0  0  0
 28 29  1  0  0  0  0
 16 20  1  0  0  0  0
 10 14  1  0  0  0  0
 27 30  2  0  0  0  0
M  END
> <MOLFORMULA>
C25 H18 N2 O3 S

> <MOLWEIGHT>
4.264942000000000e+002

> <IDNUMBER>
AN-153/I293283

> <PRICE>
EUR 130/10 mg

> <Similarity score>
0.18

$$$$

  -OEChem-04222410502D

 33 36  0     0  0  0  0  0  0999 V2000
   12.3792    0.1458    0.0000 C   0  0  0  0  0  0  0  0  0  0  0  0
   12.7625   -0.8792    0.0000 C   0  0  0  0  0  0  0  0  0  0  0  0
    6.8000   -1.1750    0.0000 N   0  0  3  0  0  0  0  0  0  0  0  0
    7.6542   -0.4917    0.0000 C   0  0  0  0  0  0  0  0  0  0  0  0
   13.2417    0.8333    0.0000 S   0  0  0  0  0  0  0  0  0  0  0  0
    5.8875   -0.5667    0.0000 C   0  0  0  0  0  0  0  0  0  0  0  0
   13.8542   -0.8417    0.0000 C   0  0  0  0  0  0  0  0  0  0  0  0
    7.2792    0.5458    0.0000 N   0  0  0  0  0  0  0  0  0  0  0  0
    6.1875    0.4958    0.0000 N   0  0  0  0  0  0  0  0  0  0  0  0
   14.1667    0.2208    0.0000 C   0  0  0  0  0  0  0  0  0  0  0  0
   11.3167    0.4500    0.0000 N   0  0  0  0  0  0  0  0  0  0  0  0
   12.1500   -1.7917    0.0000 C   0  0  0  0  0  0  0  0  0  0  0  0
    2.9917   -0.6125    0.0000 C   0  0  0  0  0  0  0  0  0  0  0  0
   11.3667   -2.5667    0.0000 N   0  0  0  0  0  0  0  0  0  0  0  0
    8.7042   -0.8000    0.0000 S   0  0  0  0  0  0  0  0  0  0  0  0
   10.5375   -0.3125    0.0000 C   0  0  0  0  0  0  0  0  0  0  0  0
    4.0167   -0.2375    0.0000 N   0  0  0  0  0  0  0  0  0  0  0  0
    4.8667   -0.9500    0.0000 C   0  0  0  0  0  0  0  0  0  0  0  0
    2.1542    0.0958    0.0000 C   0  0  0  0  0  0  0  0  0  0  0  0
    2.8000   -1.6917    0.0000 O   0  0  0  0  0  0  0  0  0  0  0  0
   10.8167   -1.3625    0.0000 O   0  0  0  0  0  0  0  0  0  0  0  0
    9.4917   -0.0167    0.0000 C   0  0  0  0  0  0  0  0  0  0  0  0
    2.3417    1.1750    0.0000 C   0  0  0  0  0  0  0  0  0  0  0  0
    1.1292   -0.2875    0.0000 C   0  0  0  0  0  0  0  0  0  0  0  0
    6.8292   -2.2667    0.0000 C   0  0  0  0  0  0  0  0  0  0  0  0
    0.4667    1.4958    0.0000 C   0  0  0  0  0  0  0  0  0  0  0  0
   14.6167   -1.6292    0.0000 C   0  0  0  0  0  0  0  0  0  0  0  0
    1.4917    1.8708    0.0000 C   0  0  0  0  0  0  0  0  0  0  0  0
    0.2875    0.4125    0.0000 C   0  0  0  0  0  0  0  0  0  0  0  0
   15.2292    0.4833    0.0000 C   0  0  0  0  0  0  0  0  0  0  0  0
   -0.3708    2.2083    0.0000 Br  0  0  0  0  0  0  0  0  0  0  0  0
   15.7000   -1.3625    0.0000 C   0  0  0  0  0  0  0  0  0  0  0  0
   16.0000   -0.3000    0.0000 C   0  0  0  0  0  0  0  0  0  0  0  0
  1  2  2  0  0  0  0
  3  4  1  0  0  0  0
  4 15  1  0  0  0  0
  1  5  1  0  0  0  0
  3  6  1  0  0  0  0
  2  7  1  0  0  0  0
  4  8  2  0  0  0  0
  8  9  1  0  0  0  0
  5 10  1  0  0  0  0
  1 11  1  0  0  0  0
  2 12  1  0  0  0  0
 13 17  1  0  0  0  0
 12 14  3  0  0  0  0
 15 22  1  0  0  0  0
 11 16  1  0  0  0  0
 17 18  1  0  0  0  0
  6 18  1  0  0  0  0
 13 19  1  0  0  0  0
 13 20  2  0  0  0  0
 16 21  2  0  0  0  0
 16 22  1  0  0  0  0
 19 23  2  0  0  0  0
 19 24  1  0  0  0  0
  3 25  1  0  0  0  0
 26 29  1  0  0  0  0
  7 27  1  0  0  0  0
 23 28  1  0  0  0  0
 24 29  2  0  0  0  0
 10 30  1  0  0  0  0
 26 31  1  0  0  0  0
 27 32  1  0  0  0  0
 30 33  1  0  0  0  0
  7 10  2  0  0  0  0
 32 33  1  0  0  0  0
  6  9  2  0  0  0  0
 26 28  2  0  0  0  0
M  END
> <MOLFORMULA>
C22 H21 Br N6 O2 S2

> <MOLWEIGHT>
5.454839000000000e+002

> <IDNUMBER>
AM-879/PD05140

> <PRICE>
EUR 55.00/10 mg

> <Similarity score>
0.18

$$$$

  -OEChem-04222410502D

 31 34  0     0  0  0  0  0  0999 V2000
   -0.7625    0.5958    0.0000 C   0  0  0  0  0  0  0  0  0  0  0  0
   -0.0917   -0.1458    0.0000 N   0  0  3  0  0  0  0  0  0  0  0  0
   -1.7583    0.4917    0.0000 C   0  0  0  0  0  0  0  0  0  0  0  0
   -0.5542    1.5750    0.0000 S   0  0  0  0  0  0  0  0  0  0  0  0
   -2.1625    1.4042    0.0000 C   0  0  0  0  0  0  0  0  0  0  0  0
   -0.4042   -1.0958    0.0000 C   0  0  0  0  0  0  0  0  0  0  0  0
    0.8833    0.0625    0.0000 C   0  0  0  0  0  0  0  0  0  0  0  0
   -1.4208    2.0750    0.0000 C   0  0  0  0  0  0  0  0  0  0  0  0
   -2.2583   -0.3750    0.0000 C   0  0  0  0  0  0  0  0  0  0  0  0
   -3.2583   -0.3750    0.0000 N   0  0  0  0  0  0  0  0  0  0  0  0
    1.1958    1.0125    0.0000 C   0  0  0  0  0  0  0  0  0  0  0  0
    0.2667   -1.8417    0.0000 C   0  0  0  0  0  0  0  0  0  0  0  0
    1.5542   -0.6833    0.0000 O   0  0  0  0  0  0  0  0  0  0  0  0
   -1.3792   -1.3042    0.0000 O   0  0  0  0  0  0  0  0  0  0  0  0
    0.5250    1.7542    0.0000 C   0  0  0  0  0  0  0  0  0  0  0  0
    1.2458   -1.6333    0.0000 C   0  0  0  0  0  0  0  0  0  0  0  0
   -0.0417   -2.7917    0.0000 C   0  0  0  0  0  0  0  0  0  0  0  0
    2.1708    1.2208    0.0000 C   0  0  0  0  0  0  0  0  0  0  0  0
   -3.0292    1.9042    0.0000 C   0  0  0  0  0  0  0  0  0  0  0  0
   -1.8250    2.9875    0.0000 C   0  0  0  0  0  0  0  0  0  0  0  0
    1.9125   -2.3750    0.0000 C   0  0  0  0  0  0  0  0  0  0  0  0
    0.6292   -3.5333    0.0000 C   0  0  0  0  0  0  0  0  0  0  0  0
    2.4833    2.1708    0.0000 C   0  0  0  0  0  0  0  0  0  0  0  0
    0.8333    2.7083    0.0000 C   0  0  0  0  0  0  0  0  0  0  0  0
    1.8125    2.9167    0.0000 C   0  0  0  0  0  0  0  0  0  0  0  0
    1.6042   -3.3250    0.0000 C   0  0  0  0  0  0  0  0  0  0  0  0
   -2.8208    2.8833    0.0000 C   0  0  0  0  0  0  0  0  0  0  0  0
    2.2750   -4.0708    0.0000 C   0  0  0  0  0  0  0  0  0  0  0  0
    2.1208    3.8667    0.0000 C   0  0  0  0  0  0  0  0  0  0  0  0
    3.2542   -3.8625    0.0000 C   0  0  0  0  0  0  0  0  0  0  0  0
    3.1000    4.0708    0.0000 C   0  0  0  0  0  0  0  0  0  0  0  0
  1  2  1  0  0  0  0
  1  3  2  0  0  0  0
  1  4  1  0  0  0  0
  3  5  1  0  0  0  0
  2  6  1  0  0  0  0
  2  7  1  0  0  0  0
  4  8  1  0  0  0  0
  3  9  1  0  0  0  0
  9 10  3  0  0  0  0
  7 11  1  0  0  0  0
  6 12  1  0  0  0  0
  7 13  2  0  0  0  0
  6 14  2  0  0  0  0
 11 15  2  0  0  0  0
 12 16  2  0  0  0  0
 12 17  1  0  0  0  0
 11 18  1  0  0  0  0
  5 19  1  0  0  0  0
  8 20  1  0  0  0  0
 16 21  1  0  0  0  0
 17 22  2  0  0  0  0
 18 23  2  0  0  0  0
 15 24  1  0  0  0  0
 23 25  1  0  0  0  0
 22 26  1  0  0  0  0
 20 27  1  0  0  0  0
 26 28  1  0  0  0  0
 25 29  1  0  0  0  0
 28 30  1  0  0  0  0
 29 31  1  0  0  0  0
  5  8  2  0  0  0  0
 19 27  1  0  0  0  0
 24 25  2  0  0  0  0
 21 26  2  0  0  0  0
M  END
> <MOLFORMULA>
C26 H24 N2 O2 S

> <MOLWEIGHT>
4.285536000000000e+002

> <IDNUMBER>
AN-153/I263452

> <PRICE>
EUR 130/10 mg

> <Similarity score>
0.18

$$$$

  -OEChem-04222410502D

 22 25  0     0  0  0  0  0  0999 V2000
   -0.7208   -1.1625    0.0000 C   0  0  0  0  0  0  0  0  0  0  0  0
   -0.4125   -2.1125    0.0000 C   0  0  0  0  0  0  0  0  0  0  0  0
   -1.7208   -1.1625    0.0000 S   0  0  0  0  0  0  0  0  0  0  0  0
   -1.2208   -2.7000    0.0000 C   0  0  0  0  0  0  0  0  0  0  0  0
   -0.1333   -0.3542    0.0000 N   0  0  0  0  0  0  0  0  0  0  0  0
   -2.0292   -2.1125    0.0000 C   0  0  0  0  0  0  0  0  0  0  0  0
   -0.5375    0.5583    0.0000 C   0  0  0  0  0  0  0  0  0  0  0  0
    0.5417   -2.4208    0.0000 C   0  0  0  0  0  0  0  0  0  0  0  0
    0.0500    1.3708    0.0000 C   0  0  0  0  0  0  0  0  0  0  0  0
    0.7500   -3.4000    0.0000 N   0  0  0  0  0  0  0  0  0  0  0  0
    1.6292    2.0750    0.0000 C   0  0  0  0  0  0  0  0  0  0  0  0
    1.0417    1.2625    0.0000 C   0  0  0  0  0  0  0  0  0  0  0  0
    1.2250    2.9875    0.0000 C   0  0  0  0  0  0  0  0  0  0  0  0
    2.6250    2.1792    0.0000 O   0  0  0  0  0  0  0  0  0  0  0  0
    1.9667    3.6583    0.0000 O   0  0  0  0  0  0  0  0  0  0  0  0
    2.8333    3.1583    0.0000 C   0  0  0  0  0  0  0  0  0  0  0  0
   -1.5333    0.6667    0.0000 O   0  0  0  0  0  0  0  0  0  0  0  0
   -0.3583    2.2833    0.0000 C   0  0  0  0  0  0  0  0  0  0  0  0
    0.2292    3.0917    0.0000 C   0  0  0  0  0  0  0  0  0  0  0  0
   -1.5292   -3.6542    0.0000 C   0  0  0  0  0  0  0  0  0  0  0  0
   -2.8375   -2.7000    0.0000 C   0  0  0  0  0  0  0  0  0  0  0  0
   -2.5292   -3.6542    0.0000 C   0  0  0  0  0  0  0  0  0  0  0  0
  1  2  2  0  0  0  0
  1  3  1  0  0  0  0
  2  4  1  0  0  0  0
  1  5  1  0  0  0  0
  3  6  1  0  0  0  0
  5  7  1  0  0  0  0
  2  8  1  0  0  0  0
  7  9  1  0  0  0  0
  8 10  3  0  0  0  0
 11 12  1  0  0  0  0
  9 12  2  0  0  0  0
 13 19  1  0  0  0  0
 11 14  1  0  0  0  0
 13 15  1  0  0  0  0
 14 16  1  0  0  0  0
  7 17  2  0  0  0  0
  9 18  1  0  0  0  0
 18 19  2  0  0  0  0
  4 20  1  0  0  0  0
  6 21  1  0  0  0  0
 21 22  1  0  0  0  0
  4  6  2  0  0  0  0
 20 22  1  0  0  0  0
 11 13  2  0  0  0  0
 15 16  1  0  0  0  0
M  END
> <MOLFORMULA>
C16 H12 N2 O3 S

> <MOLWEIGHT>
3.123478000000000e+002

> <IDNUMBER>
AN-153/I181360

> <PRICE>
EUR 130/10 mg

> <Similarity score>
0.17

$$$$

  -OEChem-04222410502D

 27 30  0     0  0  0  0  0  0999 V2000
    2.0667   -3.2000    0.0000 C   0  0  0  0  0  0  0  0  0  0  0  0
    1.3625   -2.7917    0.0000 C   0  0  0  0  0  0  0  0  0  0  0  0
    0.7417   -3.3417    0.0000 C   0  0  0  0  0  0  0  0  0  0  0  0
    1.8917   -4.0042    0.0000 C   0  0  0  0  0  0  0  0  0  0  0  0
    1.0792   -4.0917    0.0000 S   0  0  0  0  0  0  0  0  0  0  0  0
    2.7875    0.5083    0.0000 C   0  0  0  0  0  0  0  0  0  0  0  0
    2.7875   -0.3125    0.0000 C   0  0  0  0  0  0  0  0  0  0  0  0
    3.5667    0.7583    0.0000 S   0  0  0  0  0  0  0  0  0  0  0  0
    3.5667   -0.5667    0.0000 C   0  0  0  0  0  0  0  0  0  0  0  0
    4.0500    0.1000    0.0000 C   0  0  0  0  0  0  0  0  0  0  0  0
    2.0667   -0.7167    0.0000 C   0  0  0  0  0  0  0  0  0  0  0  0
    2.0667    0.9250    0.0000 N   0  0  0  0  0  0  0  0  0  0  0  0
   -0.0625   -3.1917    0.0000 C   0  0  0  0  0  0  0  0  0  0  0  0
    2.8417   -2.8667    0.0000 C   0  0  0  0  0  0  0  0  0  0  0  0
    1.3625   -1.9625    0.0000 C   0  0  0  0  0  0  0  0  0  0  0  0
    1.3625   -0.3125    0.0000 N   0  0  0  0  0  0  0  0  0  0  0  0
    3.6000   -2.5375    0.0000 N   0  0  0  0  0  0  0  0  0  0  0  0
    2.0667   -1.5417    0.0000 S   0  0  0  0  0  0  0  0  0  0  0  0
    1.3625    0.5083    0.0000 C   0  0  0  0  0  0  0  0  0  0  0  0
    2.4417   -4.6292    0.0000 N   0  0  0  0  0  0  0  0  0  0  0  0
   -0.3375   -2.4167    0.0000 O   0  0  0  0  0  0  0  0  0  0  0  0
   -0.6000   -3.8167    0.0000 O   0  0  0  0  0  0  0  0  0  0  0  0
    4.0542   -1.2375    0.0000 C   0  0  0  0  0  0  0  0  0  0  0  0
    4.8417   -0.1417    0.0000 C   0  0  0  0  0  0  0  0  0  0  0  0
    4.8417   -0.9667    0.0000 C   0  0  0  0  0  0  0  0  0  0  0  0
   -0.3250   -4.5917    0.0000 C   0  0  0  0  0  0  0  0  0  0  0  0
   -0.8583   -5.2167    0.0000 C   0  0  0  0  0  0  0  0  0  0  0  0
  1  2  1  0  0  0  0
  2  3  2  0  0  0  0
  1  4  2  0  0  0  0
  4  5  1  0  0  0  0
  6  7  1  0  0  0  0
  7 11  2  0  0  0  0
  6  8  1  0  0  0  0
  7  9  1  0  0  0  0
  9 10  2  0  0  0  0
 11 18  1  0  0  0  0
 12 19  1  0  0  0  0
  3 13  1  0  0  0  0
  1 14  1  0  0  0  0
  2 15  1  0  0  0  0
 11 16  1  0  0  0  0
 14 17  3  0  0  0  0
 15 18  1  0  0  0  0
 16 19  2  0  0  0  0
  4 20  1  0  0  0  0
 13 21  2  0  0  0  0
 13 22  1  0  0  0  0
  9 23  1  0  0  0  0
 10 24  1  0  0  0  0
 23 25  1  0  0  0  0
 22 26  1  0  0  0  0
 26 27  1  0  0  0  0
  3  5  1  0  0  0  0
  6 12  2  0  0  0  0
  8 10  1  0  0  0  0
 24 25  1  0  0  0  0
M  END
> <MOLFORMULA>
C18 H16 N4 O2 S3

> <MOLWEIGHT>
4.165484000000000e+002

> <IDNUMBER>
AT-687/SK06793

> <PRICE>
EUR 80/10 mg

> <Similarity score>
0.17

$$$$

  -OEChem-04222410502D

 23 25  0     0  0  0  0  0  0999 V2000
    0.7125    1.0583    0.0000 C   0  0  0  0  0  0  0  0  0  0  0  0
    1.7083    1.1625    0.0000 C   0  0  0  0  0  0  0  0  0  0  0  0
    0.3083    1.9708    0.0000 S   0  0  0  0  0  0  0  0  0  0  0  0
    1.9167    2.1417    0.0000 C   0  0  0  0  0  0  0  0  0  0  0  0
    0.2125    0.1917    0.0000 N   0  0  0  0  0  0  0  0  0  0  0  0
    1.0500    2.6417    0.0000 C   0  0  0  0  0  0  0  0  0  0  0  0
   -0.7875    0.1917    0.0000 C   0  0  0  0  0  0  0  0  0  0  0  0
    2.3792    0.4208    0.0000 C   0  0  0  0  0  0  0  0  0  0  0  0
   -1.2875   -0.6750    0.0000 C   0  0  0  0  0  0  0  0  0  0  0  0
    2.0667   -0.5292    0.0000 N   0  0  0  0  0  0  0  0  0  0  0  0
   -1.2875   -2.4042    0.0000 C   0  0  0  0  0  0  0  0  0  0  0  0
   -0.7875   -1.5375    0.0000 C   0  0  0  0  0  0  0  0  0  0  0  0
   -2.2875   -2.4042    0.0000 C   0  0  0  0  0  0  0  0  0  0  0  0
   -1.2875    1.0583    0.0000 O   0  0  0  0  0  0  0  0  0  0  0  0
   -2.2875   -0.6750    0.0000 C   0  0  0  0  0  0  0  0  0  0  0  0
   -2.7875   -1.5375    0.0000 C   0  0  0  0  0  0  0  0  0  0  0  0
   -0.7875   -3.2708    0.0000 Cl  0  0  0  0  0  0  0  0  0  0  0  0
    2.7833    2.6417    0.0000 C   0  0  0  0  0  0  0  0  0  0  0  0
    1.0500    3.6417    0.0000 C   0  0  0  0  0  0  0  0  0  0  0  0
   -2.7875   -3.2708    0.0000 O   0  0  0  0  0  0  0  0  0  0  0  0
   -2.2875   -4.1375    0.0000 C   0  0  0  0  0  0  0  0  0  0  0  0
    2.7833    3.6417    0.0000 C   0  0  0  0  0  0  0  0  0  0  0  0
    1.9167    4.1375    0.0000 C   0  0  0  0  0  0  0  0  0  0  0  0
  1  2  2  0  0  0  0
  1  3  1  0  0  0  0
  2  4  1  0  0  0  0
  1  5  1  0  0  0  0
  3  6  1  0  0  0  0
  5  7  1  0  0  0  0
  2  8  1  0  0  0  0
  7  9  1  0  0  0  0
  8 10  3  0  0  0  0
 11 12  1  0  0  0  0
  9 12  2  0  0  0  0
 13 16  1  0  0  0  0
  7 14  2  0  0  0  0
  9 15  1  0  0  0  0
 15 16  2  0  0  0  0
 11 17  1  0  0  0  0
  4 18  1  0  0  0  0
  6 19  1  0  0  0  0
 13 20  1  0  0  0  0
 20 21  1  0  0  0  0
 18 22  1  0  0  0  0
 19 23  1  0  0  0  0
  4  6  2  0  0  0  0
 22 23  1  0  0  0  0
 11 13  2  0  0  0  0
M  END
> <MOLFORMULA>
C17 H15 Cl N2 O2 S

> <MOLWEIGHT>
3.468365000000000e+002

> <IDNUMBER>
AN-153/I226295

> <PRICE>
EUR 130/10 mg

> <Similarity score>
0.17

$$$$

  -OEChem-04222410502D

 26 28  0     0  0  0  0  0  0999 V2000
    2.2125    6.0417    0.0000 C   0  0  0  0  0  0  0  0  0  0  0  0
    0.1667    4.2542    0.0000 C   0  0  0  0  0  0  0  0  0  0  0  0
    4.4250    4.6375    0.0000 S   0  0  0  0  0  0  0  0  0  0  0  0
    1.2750    1.8333    0.0000 C   0  0  0  0  0  0  0  0  0  0  0  0
    9.7792    3.3625    0.0000 N   0  0  0  0  0  0  0  0  0  0  0  0
    9.2750    6.0417    0.0000 C   0  0  0  0  0  0  0  0  0  0  0  0
    3.8292    1.9583    0.0000 C   0  0  0  0  0  0  0  0  0  0  0  0
   11.4042    7.8292    0.0000 N   0  0  0  0  0  0  0  0  0  0  0  0
   12.3375    2.4708    0.0000 C   0  0  0  0  0  0  0  0  0  0  0  0
    1.6167    8.5917    0.0000 N   0  0  0  0  0  0  0  0  0  0  0  0
   14.3792    4.2542    0.0000 C   0  0  0  0  0  0  0  0  0  0  0  0
   13.8667    6.8042    0.0000 C   0  0  0  0  0  0  0  0  0  0  0  0
   -2.5583    4.7625    0.0000 C   0  0  0  0  0  0  0  0  0  0  0  0
   -5.2833    5.2750    0.0000 N   0  0  0  0  0  0  0  0  0  0  0  0
    3.6542   10.3792    0.0000 C   0  0  0  0  0  0  0  0  0  0  0  0
    6.7167    6.9292    0.0000 S   0  0  0  0  0  0  0  0  0  0  0  0
   12.7625   -0.3375    0.0000 O   0  0  0  0  0  0  0  0  0  0  0  0
    3.0625   12.9292    0.0000 O   0  0  0  0  0  0  0  0  0  0  0  0
    6.1250    9.4875    0.0000 C   0  0  0  0  0  0  0  0  0  0  0  0
   -0.5958   -0.2125    0.0000 C   0  0  0  0  0  0  0  0  0  0  0  0
    5.7792    0.1708    0.0000 C   0  0  0  0  0  0  0  0  0  0  0  0
   16.0000    8.5917    0.0000 C   0  0  0  0  0  0  0  0  0  0  0  0
   -0.4333   -2.8917    0.0000 C   0  0  0  0  0  0  0  0  0  0  0  0
    5.9542   -2.5042    0.0000 C   0  0  0  0  0  0  0  0  0  0  0  0
    1.5292   -4.6792    0.0000 C   0  0  0  0  0  0  0  0  0  0  0  0
    4.0792   -4.5500    0.0000 C   0  0  0  0  0  0  0  0  0  0  0  0
  1  2  2  0  0  0  0
  1  3  1  0  0  0  0
  2  4  1  0  0  0  0
  5  6  1  0  0  0  0
  6 16  1  0  0  0  0
  3  7  1  0  0  0  0
  6  8  2  0  0  0  0
  5  9  1  0  0  0  0
  1 10  1  0  0  0  0
 11 12  2  0  0  0  0
  8 12  1  0  0  0  0
  2 13  1  0  0  0  0
 13 14  3  0  0  0  0
 10 15  1  0  0  0  0
 16 19  1  0  0  0  0
  9 17  2  0  0  0  0
 15 18  2  0  0  0  0
 15 19  1  0  0  0  0
  4 20  1  0  0  0  0
  7 21  1  0  0  0  0
 12 22  1  0  0  0  0
 20 23  1  0  0  0  0
 21 24  1  0  0  0  0
 23 25  1  0  0  0  0
 24 26  1  0  0  0  0
  4  7  2  0  0  0  0
 25 26  1  0  0  0  0
  9 11  1  0  0  0  0
M  END
> <MOLFORMULA>
C18 H20 N4 O2 S2

> <MOLWEIGHT>
3.885140000000000e+002

> <IDNUMBER>
AT-225/NB85496

> <PRICE>
EUR 140/10 mg

> <Similarity score>
0.17

$$$$

  -OEChem-04222410502D

 16 17  0     0  0  0  0  0  0999 V2000
   -1.6500   -0.5542    0.0000 C   0  0  0  0  0  0  0  0  0  0  0  0
   -2.0583    0.3583    0.0000 C   0  0  0  0  0  0  0  0  0  0  0  0
   -0.4500    0.5250    0.0000 C   0  0  0  0  0  0  0  0  0  0  0  0
   -0.6583   -0.4500    0.0000 C   0  0  0  0  0  0  0  0  0  0  0  0
   -1.3167    1.0250    0.0000 S   0  0  0  0  0  0  0  0  0  0  0  0
   -2.1500   -1.4208    0.0000 C   0  0  0  0  0  0  0  0  0  0  0  0
    0.5000    0.8333    0.0000 C   0  0  0  0  0  0  0  0  0  0  0  0
   -3.1500   -1.4208    0.0000 N   0  0  0  0  0  0  0  0  0  0  0  0
    0.0875   -1.1208    0.0000 C   0  0  0  0  0  0  0  0  0  0  0  0
    1.2458    0.1667    0.0000 C   0  0  3  0  0  0  0  0  0  0  0  0
    2.1958    0.4750    0.0000 C   0  0  3  0  0  0  0  0  0  0  0  0
   -3.0375    0.5667    0.0000 N   0  0  0  0  0  0  0  0  0  0  0  0
    1.0375   -0.8125    0.0000 C   0  0  0  0  0  0  0  0  0  0  0  0
    1.8875    1.4250    0.0000 C   0  0  0  0  0  0  0  0  0  0  0  0
    2.5042   -0.4750    0.0000 C   0  0  0  0  0  0  0  0  0  0  0  0
    3.1458    0.7833    0.0000 C   0  0  0  0  0  0  0  0  0  0  0  0
  1  2  2  0  0  0  0
  3  4  2  0  0  0  0
  1  4  1  0  0  0  0
  2  5  1  0  0  0  0
  1  6  1  0  0  0  0
  3  7  1  0  0  0  0
  6  8  3  0  0  0  0
  4  9  1  0  0  0  0
 10 13  1  0  0  0  0
 10 11  1  0  0  0  0
  2 12  1  0  0  0  0
  9 13  1  0  0  0  0
 11 14  1  0  0  0  0
 11 15  1  0  0  0  0
 11 16  1  0  0  0  0
  3  5  1  0  0  0  0
  7 10  1  0  0  0  0
M  END
> <MOLFORMULA>
C13 H18 N2 S

> <MOLWEIGHT>
2.343652000000000e+002

> <IDNUMBER>
AN-153/I124583

> <PRICE>
EUR 130/10 mg

> <Similarity score>
0.17

$$$$

  -OEChem-04222410502D

 16 17  0     0  0  0  0  0  0999 V2000
    5.8667   -2.5542    0.0000 C   0  0  0  0  0  0  0  0  0  0  0  0
    6.6417   -3.6292    0.0000 C   0  0  0  0  0  0  0  0  0  0  0  0
    4.6042   -4.2917    0.0000 C   0  0  0  0  0  0  0  0  0  0  0  0
    4.6042   -2.9667    0.0000 C   0  0  0  0  0  0  0  0  0  0  0  0
    5.8667   -4.7042    0.0000 S   0  0  0  0  0  0  0  0  0  0  0  0
    6.2792   -1.2917    0.0000 C   0  0  0  0  0  0  0  0  0  0  0  0
    3.4542   -4.9542    0.0000 C   0  0  0  0  0  0  0  0  0  0  0  0
    6.6292   -0.0000    0.0000 N   0  0  0  0  0  0  0  0  0  0  0  0
    3.4542   -2.2917    0.0000 C   0  0  0  0  0  0  0  0  0  0  0  0
    2.3042   -4.3000    0.0000 C   0  0  3  0  0  0  0  0  0  0  0  0
    1.1542   -4.9667    0.0000 C   0  0  3  0  0  0  0  0  0  0  0  0
    7.9750   -3.6292    0.0000 N   0  0  0  0  0  0  0  0  0  0  0  0
    2.3042   -2.9667    0.0000 C   0  0  0  0  0  0  0  0  0  0  0  0
    0.0000   -5.6167    0.0000 C   0  0  0  0  0  0  0  0  0  0  0  0
    1.8250   -6.1167    0.0000 C   0  0  0  0  0  0  0  0  0  0  0  0
    0.4917   -3.8125    0.0000 C   0  0  0  0  0  0  0  0  0  0  0  0
  1  2  2  0  0  0  0
  3  4  2  0  0  0  0
  1  4  1  0  0  0  0
  2  5  1  0  0  0  0
  1  6  1  0  0  0  0
  3  7  1  0  0  0  0
  6  8  3  0  0  0  0
  4  9  1  0  0  0  0
 10 13  1  0  0  0  0
 10 11  1  0  0  0  0
  2 12  1  0  0  0  0
  9 13  1  0  0  0  0
 11 14  1  0  0  0  0
 11 15  1  0  0  0  0
 11 16  1  0  0  0  0
  3  5  1  0  0  0  0
  7 10  1  0  0  0  0
M  END
> <MOLFORMULA>
C13 H18 N2 S

> <MOLWEIGHT>
2.343652000000000e+002

> <IDNUMBER>
AT-687/NB00958

> <PRICE>
EUR 80/10 mg

> <Similarity score>
0.17

$$$$

  -OEChem-04222410502D

 16 17  0     0  0  0  0  0  0999 V2000
    0.1375    0.9458    0.0000 C   0  0  0  0  0  0  0  0  0  0  0  0
    0.1375    0.2833    0.0000 C   0  0  0  0  0  0  0  0  0  0  0  0
   -1.0208    0.2833    0.0000 C   0  0  0  0  0  0  0  0  0  0  0  0
   -1.0208    0.9458    0.0000 C   0  0  0  0  0  0  0  0  0  0  0  0
   -0.4458   -0.0500    0.0000 S   0  0  0  0  0  0  0  0  0  0  0  0
    0.7500    1.2833    0.0000 C   0  0  0  0  0  0  0  0  0  0  0  0
   -1.6000   -0.0500    0.0000 C   0  0  0  0  0  0  0  0  0  0  0  0
    1.3542    1.6208    0.0000 N   0  0  0  0  0  0  0  0  0  0  0  0
   -1.6000    1.2708    0.0000 C   0  0  0  0  0  0  0  0  0  0  0  0
   -2.1833    0.2833    0.0000 C   0  0  3  0  0  0  0  0  0  0  0  0
   -2.7958   -0.0667    0.0000 C   0  0  3  0  0  0  0  0  0  0  0  0
    0.7500   -0.0667    0.0000 N   0  0  0  0  0  0  0  0  0  0  0  0
   -2.1833    0.9458    0.0000 C   0  0  0  0  0  0  0  0  0  0  0  0
   -3.4833   -0.3542    0.0000 C   0  0  0  0  0  0  0  0  0  0  0  0
   -3.0458    0.5208    0.0000 C   0  0  0  0  0  0  0  0  0  0  0  0
   -2.5000   -0.7375    0.0000 C   0  0  0  0  0  0  0  0  0  0  0  0
  1  2  2  0  0  0  0
  3  4  2  0  0  0  0
  1  4  1  0  0  0  0
  2  5  1  0  0  0  0
  1  6  1  0  0  0  0
  3  7  1  0  0  0  0
  6  8  3  0  0  0  0
  4  9  1  0  0  0  0
 10 13  1  0  0  0  0
 10 11  1  0  0  0  0
  2 12  1  0  0  0  0
  9 13  1  0  0  0  0
 11 14  1  0  0  0  0
 11 15  1  0  0  0  0
 11 16  1  0  0  0  0
  3  5  1  0  0  0  0
  7 10  1  0  0  0  0
M  END
> <MOLFORMULA>
C13 H18 N2 S

> <MOLWEIGHT>
2.343652000000000e+002

> <IDNUMBER>
AT-225/JK21267

> <PRICE>
EUR 140/10 mg

> <Similarity score>
0.17

$$$$

  -OEChem-04222410502D

 16 17  0     0  0  0  0  0  0999 V2000
    4.0292   -0.4000    0.0000 C   0  0  0  0  0  0  0  0  0  0  0  0
    4.5167   -1.0542    0.0000 C   0  0  0  0  0  0  0  0  0  0  0  0
    3.2500   -1.4750    0.0000 C   0  0  0  0  0  0  0  0  0  0  0  0
    3.2500   -0.6500    0.0000 C   0  0  0  0  0  0  0  0  0  0  0  0
    4.0292   -1.7250    0.0000 S   0  0  0  0  0  0  0  0  0  0  0  0
    4.2917    0.3875    0.0000 C   0  0  0  0  0  0  0  0  0  0  0  0
    2.5417   -1.8792    0.0000 C   0  0  0  0  0  0  0  0  0  0  0  0
    4.5000    1.1875    0.0000 N   0  0  0  0  0  0  0  0  0  0  0  0
    2.5417   -0.2292    0.0000 C   0  0  0  0  0  0  0  0  0  0  0  0
    1.8250   -1.4750    0.0000 C   0  0  3  0  0  0  0  0  0  0  0  0
    1.1167   -1.8917    0.0000 C   0  0  3  0  0  0  0  0  0  0  0  0
    5.3417   -1.0542    0.0000 N   0  0  0  0  0  0  0  0  0  0  0  0
    1.8250   -0.6500    0.0000 C   0  0  0  0  0  0  0  0  0  0  0  0
    0.4000   -2.3000    0.0000 C   0  0  0  0  0  0  0  0  0  0  0  0
    1.5250   -2.6000    0.0000 C   0  0  0  0  0  0  0  0  0  0  0  0
    0.7000   -1.1750    0.0000 C   0  0  0  0  0  0  0  0  0  0  0  0
  1  2  2  0  0  0  0
  3  4  2  0  0  0  0
  1  4  1  0  0  0  0
  2  5  1  0  0  0  0
  1  6  1  0  0  0  0
  3  7  1  0  0  0  0
  6  8  3  0  0  0  0
  4  9  1  0  0  0  0
 10 13  1  0  0  0  0
 10 11  1  0  0  0  0
  2 12  1  0  0  0  0
  9 13  1  0  0  0  0
 11 14  1  0  0  0  0
 11 15  1  0  0  0  0
 11 16  1  0  0  0  0
  3  5  1  0  0  0  0
  7 10  1  0  0  0  0
M  END
> <MOLFORMULA>
C13 H18 N2 S

> <MOLWEIGHT>
2.343652000000000e+002

> <IDNUMBER>
AT-687/PE32216

> <PRICE>
EUR 80/10 mg

> <Similarity score>
0.17

$$$$

  -OEChem-04222410502D

 18 20  0     0  0  0  0  0  0999 V2000
   -0.0583   -0.7542    0.0000 C   0  0  0  0  0  0  0  0  0  0  0  0
    0.3500   -1.6708    0.0000 C   0  0  0  0  0  0  0  0  0  0  0  0
   -1.0500   -0.8583    0.0000 S   0  0  0  0  0  0  0  0  0  0  0  0
   -0.3917   -2.3375    0.0000 C   0  0  0  0  0  0  0  0  0  0  0  0
    0.4458    0.1083    0.0000 N   0  0  0  0  0  0  0  0  0  0  0  0
   -1.2583   -1.8375    0.0000 C   0  0  0  0  0  0  0  0  0  0  0  0
   -0.0583    0.9750    0.0000 C   0  0  0  0  0  0  0  0  0  0  0  0
    1.3292   -1.8750    0.0000 C   0  0  0  0  0  0  0  0  0  0  0  0
    0.4458    1.8417    0.0000 C   0  0  0  0  0  0  0  0  0  0  0  0
    1.9958   -1.1333    0.0000 N   0  0  0  0  0  0  0  0  0  0  0  0
    0.0375    2.7542    0.0000 O   0  0  0  0  0  0  0  0  0  0  0  0
   -1.0583    0.9750    0.0000 O   0  0  0  0  0  0  0  0  0  0  0  0
    1.4375    1.9458    0.0000 C   0  0  0  0  0  0  0  0  0  0  0  0
    0.7792    3.4250    0.0000 C   0  0  0  0  0  0  0  0  0  0  0  0
    1.6458    2.9250    0.0000 C   0  0  0  0  0  0  0  0  0  0  0  0
   -0.6000   -3.3167    0.0000 C   0  0  0  0  0  0  0  0  0  0  0  0
   -2.0000   -2.5083    0.0000 C   0  0  0  0  0  0  0  0  0  0  0  0
   -1.5958   -3.4208    0.0000 C   0  0  0  0  0  0  0  0  0  0  0  0
  1  2  2  0  0  0  0
  1  3  1  0  0  0  0
  2  4  1  0  0  0  0
  1  5  1  0  0  0  0
  3  6  1  0  0  0  0
  5  7  1  0  0  0  0
  2  8  1  0  0  0  0
  7  9  1  0  0  0  0
  8 10  3  0  0  0  0
  9 11  1  0  0  0  0
  7 12  2  0  0  0  0
  9 13  2  0  0  0  0
 11 14  1  0  0  0  0
 13 15  1  0  0  0  0
  4 16  1  0  0  0  0
  6 17  1  0  0  0  0
 17 18  1  0  0  0  0
  4  6  2  0  0  0  0
 16 18  1  0  0  0  0
 14 15  2  0  0  0  0
M  END
> <MOLFORMULA>
C13 H10 N2 O2 S

> <MOLWEIGHT>
2.583000000000000e+002

> <IDNUMBER>
AN-153/I181363

> <PRICE>
EUR 130/10 mg

> <Similarity score>
0.17

$$$$

  -OEChem-04222410502D

 32 35  0     0  0  0  0  0  0999 V2000
   -0.8542    4.0542    0.0000 C   0  0  0  0  0  0  0  0  0  0  0  0
   -0.2667    4.8625    0.0000 C   0  0  0  0  0  0  0  0  0  0  0  0
   -1.8042    4.3625    0.0000 S   0  0  0  0  0  0  0  0  0  0  0  0
   -1.8542   -1.0917    0.0000 N   0  0  0  0  0  0  0  0  0  0  0  0
   -0.8542    5.6708    0.0000 C   0  0  0  0  0  0  0  0  0  0  0  0
   -1.2667   -1.9000    0.0000 C   0  0  0  0  0  0  0  0  0  0  0  0
   -1.8042    5.3625    0.0000 C   0  0  0  0  0  0  0  0  0  0  0  0
   -1.2667   -0.2792    0.0000 C   0  0  0  0  0  0  0  0  0  0  0  0
   -0.3125   -1.5917    0.0000 N   0  0  0  0  0  0  0  0  0  0  0  0
   -0.3125   -0.5917    0.0000 N   0  0  0  0  0  0  0  0  0  0  0  0
   -0.5458    3.1083    0.0000 N   0  0  0  0  0  0  0  0  0  0  0  0
    0.7333    4.8625    0.0000 C   0  0  0  0  0  0  0  0  0  0  0  0
   -0.5458   -5.2875    0.0000 C   0  0  0  0  0  0  0  0  0  0  0  0
    1.2333    5.7292    0.0000 N   0  0  0  0  0  0  0  0  0  0  0  0
   -1.2125    2.3667    0.0000 C   0  0  0  0  0  0  0  0  0  0  0  0
   -0.9042   -3.5917    0.0000 N   0  0  0  0  0  0  0  0  0  0  0  0
   -1.5750   -2.8500    0.0000 N   0  0  0  0  0  0  0  0  0  0  0  0
   -1.5750    0.6708    0.0000 S   0  0  0  0  0  0  0  0  0  0  0  0
   -0.8542   -6.2375    0.0000 C   0  0  0  0  0  0  0  0  0  0  0  0
    0.4333   -5.0792    0.0000 C   0  0  0  0  0  0  0  0  0  0  0  0
   -1.2125   -4.5458    0.0000 C   0  0  0  0  0  0  0  0  0  0  0  0
   -2.1917    2.5708    0.0000 O   0  0  0  0  0  0  0  0  0  0  0  0
   -0.1833   -6.9833    0.0000 C   0  0  0  0  0  0  0  0  0  0  0  0
   -0.9042    1.4125    0.0000 C   0  0  0  0  0  0  0  0  0  0  0  0
    1.1000   -5.8250    0.0000 C   0  0  0  0  0  0  0  0  0  0  0  0
   -0.8542    6.6708    0.0000 C   0  0  0  0  0  0  0  0  0  0  0  0
   -2.3917    6.1708    0.0000 C   0  0  0  0  0  0  0  0  0  0  0  0
    0.7917   -6.7750    0.0000 C   0  0  0  0  0  0  0  0  0  0  0  0
   -1.8333   -6.4458    0.0000 O   0  0  0  0  0  0  0  0  0  0  0  0
    2.0792   -5.6167    0.0000 O   0  0  0  0  0  0  0  0  0  0  0  0
   -1.8083    6.9833    0.0000 C   0  0  0  0  0  0  0  0  0  0  0  0
    2.3875   -4.6625    0.0000 C   0  0  0  0  0  0  0  0  0  0  0  0
  1  2  2  0  0  0  0
  1  3  1  0  0  0  0
  4  8  1  0  0  0  0
  2  5  1  0  0  0  0
  4  6  1  0  0  0  0
  3  7  1  0  0  0  0
  8 18  1  0  0  0  0
  9 10  1  0  0  0  0
  8 10  2  0  0  0  0
  1 11  1  0  0  0  0
  2 12  1  0  0  0  0
 13 21  1  0  0  0  0
 12 14  3  0  0  0  0
 11 15  1  0  0  0  0
 16 17  1  0  0  0  0
  6 17  1  0  0  0  0
 18 24  1  0  0  0  0
 13 19  1  0  0  0  0
 13 20  2  0  0  0  0
 16 21  2  0  0  0  0
 15 22  2  0  0  0  0
 19 23  2  0  0  0  0
 15 24  1  0  0  0  0
 20 25  1  0  0  0  0
  5 26  1  0  0  0  0
  7 27  1  0  0  0  0
 25 28  2  0  0  0  0
 19 29  1  0  0  0  0
 25 30  1  0  0  0  0
 27 31  1  0  0  0  0
 30 32  1  0  0  0  0
  5  7  2  0  0  0  0
 26 31  1  0  0  0  0
  6  9  2  0  0  0  0
 23 28  1  0  0  0  0
M  END
> <MOLFORMULA>
C20 H19 N7 O3 S2

> <MOLWEIGHT>
4.695481000000000e+002

> <IDNUMBER>
AN-153/I181444

> <PRICE>
EUR 130/10 mg

> <Similarity score>
0.17

$$$$

  -OEChem-04222410502D

 32 35  0     0  0  0  0  0  0999 V2000
   -0.6542    1.0708    0.0000 C   0  0  0  0  0  0  0  0  0  0  0  0
    0.0167    0.3292    0.0000 N   0  0  3  0  0  0  0  0  0  0  0  0
   -1.6458    0.9667    0.0000 C   0  0  0  0  0  0  0  0  0  0  0  0
   -0.4458    2.0500    0.0000 S   0  0  0  0  0  0  0  0  0  0  0  0
   -2.0542    1.8833    0.0000 C   0  0  0  0  0  0  0  0  0  0  0  0
   -0.2917   -0.6208    0.0000 C   0  0  0  0  0  0  0  0  0  0  0  0
    0.9958    0.5375    0.0000 C   0  0  0  0  0  0  0  0  0  0  0  0
   -1.3125    2.5500    0.0000 C   0  0  0  0  0  0  0  0  0  0  0  0
   -2.1458    0.1000    0.0000 C   0  0  0  0  0  0  0  0  0  0  0  0
   -3.1458    0.1000    0.0000 N   0  0  0  0  0  0  0  0  0  0  0  0
    1.3042    1.4875    0.0000 C   0  0  0  0  0  0  0  0  0  0  0  0
    0.3750   -1.3667    0.0000 C   0  0  0  0  0  0  0  0  0  0  0  0
    1.6625   -0.2042    0.0000 O   0  0  0  0  0  0  0  0  0  0  0  0
   -1.2708   -0.8292    0.0000 O   0  0  0  0  0  0  0  0  0  0  0  0
    0.6333    2.2333    0.0000 C   0  0  0  0  0  0  0  0  0  0  0  0
    1.3542   -1.1583    0.0000 C   0  0  0  0  0  0  0  0  0  0  0  0
    0.0667   -2.3167    0.0000 C   0  0  0  0  0  0  0  0  0  0  0  0
    2.2833    1.6958    0.0000 C   0  0  0  0  0  0  0  0  0  0  0  0
   -3.0042    2.1917    0.0000 C   0  0  0  0  0  0  0  0  0  0  0  0
    0.7375   -3.0583    0.0000 C   0  0  0  0  0  0  0  0  0  0  0  0
    2.5917    2.6458    0.0000 C   0  0  0  0  0  0  0  0  0  0  0  0
    0.9417    3.1833    0.0000 C   0  0  0  0  0  0  0  0  0  0  0  0
    2.0250   -1.9000    0.0000 C   0  0  0  0  0  0  0  0  0  0  0  0
   -1.5167    3.5292    0.0000 C   0  0  0  0  0  0  0  0  0  0  0  0
    1.9208    3.3917    0.0000 C   0  0  0  0  0  0  0  0  0  0  0  0
    1.7167   -2.8500    0.0000 C   0  0  0  0  0  0  0  0  0  0  0  0
    2.2292    4.3375    0.0000 C   0  0  0  0  0  0  0  0  0  0  0  0
    2.3833   -3.5958    0.0000 C   0  0  0  0  0  0  0  0  0  0  0  0
   -3.2125    3.1708    0.0000 C   0  0  0  0  0  0  0  0  0  0  0  0
   -2.4708    3.8375    0.0000 C   0  0  0  0  0  0  0  0  0  0  0  0
    3.2083    4.5458    0.0000 C   0  0  0  0  0  0  0  0  0  0  0  0
    2.0750   -4.5458    0.0000 C   0  0  0  0  0  0  0  0  0  0  0  0
  1  2  1  0  0  0  0
  1  3  2  0  0  0  0
  1  4  1  0  0  0  0
  3  5  1  0  0  0  0
  2  6  1  0  0  0  0
  2  7  1  0  0  0  0
  4  8  1  0  0  0  0
  3  9  1  0  0  0  0
  9 10  3  0  0  0  0
  7 11  1  0  0  0  0
  6 12  1  0  0  0  0
  7 13  2  0  0  0  0
  6 14  2  0  0  0  0
 11 15  2  0  0  0  0
 12 16  2  0  0  0  0
 12 17  1  0  0  0  0
 11 18  1  0  0  0  0
  5 19  1  0  0  0  0
 17 20  2  0  0  0  0
 18 21  2  0  0  0  0
 15 22  1  0  0  0  0
 16 23  1  0  0  0  0
  8 24  1  0  0  0  0
 21 25  1  0  0  0  0
 20 26  1  0  0  0  0
 25 27  1  0  0  0  0
 26 28  1  0  0  0  0
 19 29  1  0  0  0  0
 24 30  1  0  0  0  0
 27 31  1  0  0  0  0
 28 32  1  0  0  0  0
  5  8  2  0  0  0  0
 29 30  1  0  0  0  0
 22 25  2  0  0  0  0
 23 26  2  0  0  0  0
M  END
> <MOLFORMULA>
C27 H26 N2 O2 S

> <MOLWEIGHT>
4.425804000000000e+002

> <IDNUMBER>
AN-153/I283858

> <PRICE>
EUR 130/10 mg

> <Similarity score>
0.17

$$$$

  -OEChem-04222410502D

 31 34  0     0  0  0  0  0  0999 V2000
    4.4292    0.8583    0.0000 C   0  0  0  0  0  0  0  0  0  0  0  0
    4.6417    0.5458    0.0000 C   0  0  0  0  0  0  0  0  0  0  0  0
    2.2042    0.0458    0.0000 N   0  0  3  0  0  0  0  0  0  0  0  0
    1.7875    0.1583    0.0000 C   0  0  0  0  0  0  0  0  0  0  0  0
    2.4917    0.3500    0.0000 C   0  0  0  0  0  0  0  0  0  0  0  0
    4.7500    1.1333    0.0000 S   0  0  0  0  0  0  0  0  0  0  0  0
    5.0917    0.6250    0.0000 C   0  0  0  0  0  0  0  0  0  0  0  0
    1.7917    0.5208    0.0000 N   0  0  0  0  0  0  0  0  0  0  0  0
    2.2417    0.6333    0.0000 N   0  0  0  0  0  0  0  0  0  0  0  0
    5.1625    0.9875    0.0000 C   0  0  0  0  0  0  0  0  0  0  0  0
    3.9792    0.8875    0.0000 N   0  0  0  0  0  0  0  0  0  0  0  0
    4.4375    0.1958    0.0000 C   0  0  0  0  0  0  0  0  0  0  0  0
    4.2250   -0.1417    0.0000 N   0  0  0  0  0  0  0  0  0  0  0  0
    2.9375    0.3208    0.0000 S   0  0  0  0  0  0  0  0  0  0  0  0
    3.6792    0.5875    0.0000 C   0  0  0  0  0  0  0  0  0  0  0  0
    1.3875   -0.0667    0.0000 C   0  0  0  0  0  0  0  0  0  0  0  0
    3.8417    0.2583    0.0000 O   0  0  0  0  0  0  0  0  0  0  0  0
    3.2292    0.6208    0.0000 C   0  0  0  0  0  0  0  0  0  0  0  0
    2.3167   -0.3000    0.0000 C   0  0  0  0  0  0  0  0  0  0  0  0
    0.9792    0.0833    0.0000 C   0  0  0  0  0  0  0  0  0  0  0  0
    0.1625    0.3708    0.0000 C   0  0  0  0  0  0  0  0  0  0  0  0
    5.4542    0.4125    0.0000 C   0  0  0  0  0  0  0  0  0  0  0  0
    5.5917    1.1458    0.0000 C   0  0  0  0  0  0  0  0  0  0  0  0
    0.9625    0.4458    0.0000 C   0  0  0  0  0  0  0  0  0  0  0  0
    0.6000   -0.1375    0.0000 C   0  0  0  0  0  0  0  0  0  0  0  0
    0.5542    0.5875    0.0000 C   0  0  0  0  0  0  0  0  0  0  0  0
    0.1792    0.0083    0.0000 C   0  0  0  0  0  0  0  0  0  0  0  0
   -0.2583    0.5208    0.0000 O   0  0  0  0  0  0  0  0  0  0  0  0
   -0.6458    0.2958    0.0000 C   0  0  0  0  0  0  0  0  0  0  0  0
    5.8792    0.5708    0.0000 C   0  0  0  0  0  0  0  0  0  0  0  0
    5.9542    0.9333    0.0000 C   0  0  0  0  0  0  0  0  0  0  0  0
  1  2  2  0  0  0  0
  3  5  1  0  0  0  0
  3  4  1  0  0  0  0
  5 14  1  0  0  0  0
  1  6  1  0  0  0  0
  2  7  1  0  0  0  0
  8  9  1  0  0  0  0
  5  9  2  0  0  0  0
  6 10  1  0  0  0  0
  1 11  1  0  0  0  0
  2 12  1  0  0  0  0
 12 13  3  0  0  0  0
 14 18  1  0  0  0  0
 11 15  1  0  0  0  0
  4 16  1  0  0  0  0
 15 17  2  0  0  0  0
 15 18  1  0  0  0  0
  3 19  1  0  0  0  0
 16 20  1  0  0  0  0
 21 27  1  0  0  0  0
  7 22  1  0  0  0  0
 10 23  1  0  0  0  0
 20 24  2  0  0  0  0
 20 25  1  0  0  0  0
 24 26  1  0  0  0  0
 25 27  2  0  0  0  0
 21 28  1  0  0  0  0
 28 29  1  0  0  0  0
 22 30  1  0  0  0  0
 23 31  1  0  0  0  0
  7 10  2  0  0  0  0
 30 31  1  0  0  0  0
  4  8  2  0  0  0  0
 21 26  2  0  0  0  0
M  END
> <MOLFORMULA>
C22 H23 N5 O2 S2

> <MOLWEIGHT>
4.535887000000000e+002

> <IDNUMBER>
AM-879/PD04763

> <PRICE>
EUR 55.00/10 mg

> <Similarity score>
0.17

$$$$

  -OEChem-04222410502D

 17 18  0     0  0  0  0  0  0999 V2000
    0.1375    0.9458    0.0000 C   0  0  0  0  0  0  0  0  0  0  0  0
    0.1375    0.2833    0.0000 C   0  0  0  0  0  0  0  0  0  0  0  0
   -1.0208    0.2833    0.0000 C   0  0  0  0  0  0  0  0  0  0  0  0
   -1.0208    0.9458    0.0000 C   0  0  0  0  0  0  0  0  0  0  0  0
   -0.4458   -0.0500    0.0000 S   0  0  0  0  0  0  0  0  0  0  0  0
    0.7500    1.2833    0.0000 C   0  0  0  0  0  0  0  0  0  0  0  0
   -1.6000   -0.0500    0.0000 C   0  0  0  0  0  0  0  0  0  0  0  0
    1.3542    1.6208    0.0000 N   0  0  0  0  0  0  0  0  0  0  0  0
   -1.6000    1.2708    0.0000 C   0  0  0  0  0  0  0  0  0  0  0  0
   -2.1833    0.2833    0.0000 C   0  0  3  0  0  0  0  0  0  0  0  0
   -2.7958   -0.0667    0.0000 C   0  0  3  0  0  0  0  0  0  0  0  0
    0.7500   -0.0667    0.0000 N   0  0  0  0  0  0  0  0  0  0  0  0
   -2.1833    0.9458    0.0000 C   0  0  0  0  0  0  0  0  0  0  0  0
   -3.4833   -0.3542    0.0000 C   0  0  0  0  0  0  0  0  0  0  0  0
   -3.0458    0.5208    0.0000 C   0  0  0  0  0  0  0  0  0  0  0  0
   -2.5000   -0.7375    0.0000 C   0  0  0  0  0  0  0  0  0  0  0  0
   -3.5625   -1.0542    0.0000 C   0  0  0  0  0  0  0  0  0  0  0  0
  1  2  2  0  0  0  0
  3  4  2  0  0  0  0
  1  4  1  0  0  0  0
  2  5  1  0  0  0  0
  1  6  1  0  0  0  0
  3  7  1  0  0  0  0
  6  8  3  0  0  0  0
  4  9  1  0  0  0  0
 10 13  1  0  0  0  0
 10 11  1  0  0  0  0
  2 12  1  0  0  0  0
  9 13  1  0  0  0  0
 11 14  1  0  0  0  0
 11 15  1  0  0  0  0
 11 16  1  0  0  0  0
 14 17  1  0  0  0  0
  3  5  1  0  0  0  0
  7 10  1  0  0  0  0
M  END
> <MOLFORMULA>
C14 H20 N2 S

> <MOLWEIGHT>
2.483920000000000e+002

> <IDNUMBER>
AT-225/JK21280

> <PRICE>
EUR 140/10 mg

> <Similarity score>
0.17

$$$$

  -OEChem-04222410502D

 30 35  0     0  0  0  0  0  0999 V2000
    9.1250   -2.4000    0.0000 C   0  0  0  0  0  0  0  0  0  0  0  0
    9.9500   -3.4500    0.0000 C   0  0  0  0  0  0  0  0  0  0  0  0
    7.8000   -2.4000    0.0000 C   0  0  0  0  0  0  0  0  0  0  0  0
   12.9417   -5.1750    0.0000 C   0  0  0  0  0  0  0  0  0  0  0  0
   11.6792   -4.7000    0.0000 C   0  0  0  0  0  0  0  0  0  0  0  0
   11.2792   -3.4250    0.0000 N   0  0  0  0  0  0  0  0  0  0  0  0
    7.3917   -1.1500    0.0000 N   0  0  3  0  0  0  0  0  0  0  0  0
    9.5417   -1.1500    0.0000 N   0  0  0  0  0  0  0  0  0  0  0  0
    8.4750   -0.3667    0.0000 N   0  0  0  0  0  0  0  0  0  0  0  0
   14.0167   -4.4000    0.0000 N   0  0  0  0  0  0  0  0  0  0  0  0
   13.3417   -6.4417    0.0000 C   0  0  0  0  0  0  0  0  0  0  0  0
    9.5500   -4.7250    0.0000 N   0  0  0  0  0  0  0  0  0  0  0  0
   15.0917   -5.2000    0.0000 N   0  0  0  0  0  0  0  0  0  0  0  0
   10.6250   -5.4917    0.0000 O   0  0  0  0  0  0  0  0  0  0  0  0
   14.6750   -6.4500    0.0000 C   0  0  0  0  0  0  0  0  0  0  0  0
    6.1000   -0.8417    0.0000 C   0  0  0  0  0  0  0  0  0  0  0  0
    6.9000   -3.3792    0.0000 C   0  0  0  0  0  0  0  0  0  0  0  0
    5.6042   -3.1042    0.0000 O   0  0  0  0  0  0  0  0  0  0  0  0
    5.2000   -1.8292    0.0000 C   0  0  3  0  0  0  0  0  0  0  0  0
    3.9000   -1.5417    0.0000 C   0  0  0  0  0  0  0  0  0  0  0  0
    3.4917   -0.2750    0.0000 C   0  0  0  0  0  0  0  0  0  0  0  0
    3.0000   -2.5250    0.0000 C   0  0  0  0  0  0  0  0  0  0  0  0
   12.6750   -7.5917    0.0000 C   0  0  0  0  0  0  0  0  0  0  0  0
    1.7167   -2.2500    0.0000 C   0  0  0  0  0  0  0  0  0  0  0  0
    2.1917   -0.0000    0.0000 C   0  0  0  0  0  0  0  0  0  0  0  0
    1.3167   -0.9750    0.0000 C   0  0  0  0  0  0  0  0  0  0  0  0
   15.3292   -7.6000    0.0000 C   0  0  0  0  0  0  0  0  0  0  0  0
    0.0000   -0.6750    0.0000 C   0  0  0  0  0  0  0  0  0  0  0  0
   13.3417   -8.7500    0.0000 C   0  0  0  0  0  0  0  0  0  0  0  0
   14.6750   -8.7500    0.0000 C   0  0  0  0  0  0  0  0  0  0  0  0
  1  2  1  0  0  0  0
  1  3  2  0  0  0  0
  4  5  1  0  0  0  0
  5  6  2  0  0  0  0
  2  6  1  0  0  0  0
  3  7  1  0  0  0  0
  1  8  1  0  0  0  0
  8  9  2  0  0  0  0
  4 10  2  0  0  0  0
  4 11  1  0  0  0  0
  2 12  2  0  0  0  0
 10 13  1  0  0  0  0
 12 14  1  0  0  0  0
 11 15  2  0  0  0  0
  7 16  1  0  0  0  0
  3 17  1  0  0  0  0
 17 18  1  0  0  0  0
 18 19  1  0  0  0  0
 19 20  1  0  0  0  0
 20 21  2  0  0  0  0
 20 22  1  0  0  0  0
 11 23  1  0  0  0  0
 22 24  2  0  0  0  0
 21 25  1  0  0  0  0
 24 26  1  0  0  0  0
 15 27  1  0  0  0  0
 26 28  1  0  0  0  0
 23 29  1  0  0  0  0
 29 30  1  0  0  0  0
  7  9  1  0  0  0  0
  5 14  1  0  0  0  0
 16 19  1  0  0  0  0
 13 15  1  0  0  0  0
 25 26  2  0  0  0  0
 27 30  1  0  0  0  0
M  END
> <MOLFORMULA>
C21 H21 N7 O2

> <MOLWEIGHT>
4.034439000000000e+002

> <IDNUMBER>
AT-687/PE23587

> <PRICE>
EUR 80/10 mg

> <Similarity score>
0.17

$$$$

  -OEChem-04222410502D

 20 22  0     0  0  0  0  0  0999 V2000
    0.0542    1.2667    0.0000 C   0  0  0  0  0  0  0  0  0  0  0  0
   -0.3542    2.1792    0.0000 C   0  0  0  0  0  0  0  0  0  0  0  0
    1.0458    1.3708    0.0000 S   0  0  0  0  0  0  0  0  0  0  0  0
    0.3875    2.8500    0.0000 C   0  0  0  0  0  0  0  0  0  0  0  0
   -0.4458    0.4000    0.0000 N   0  0  0  0  0  0  0  0  0  0  0  0
    1.2542    2.3500    0.0000 C   0  0  0  0  0  0  0  0  0  0  0  0
    0.0542   -0.4667    0.0000 C   0  0  0  0  0  0  0  0  0  0  0  0
   -1.3333    2.3875    0.0000 C   0  0  0  0  0  0  0  0  0  0  0  0
   -2.0000    1.6458    0.0000 N   0  0  0  0  0  0  0  0  0  0  0  0
   -0.4458   -1.3292    0.0000 C   0  0  0  0  0  0  0  0  0  0  0  0
    1.0542   -0.4667    0.0000 O   0  0  0  0  0  0  0  0  0  0  0  0
   -1.4500   -1.3292    0.0000 C   0  0  0  0  0  0  0  0  0  0  0  0
    0.0542   -2.1958    0.0000 C   0  0  0  0  0  0  0  0  0  0  0  0
   -1.4500   -3.0625    0.0000 C   0  0  0  0  0  0  0  0  0  0  0  0
    0.5958    3.8292    0.0000 C   0  0  0  0  0  0  0  0  0  0  0  0
    1.9958    3.0208    0.0000 C   0  0  0  0  0  0  0  0  0  0  0  0
   -1.9458   -2.1958    0.0000 C   0  0  0  0  0  0  0  0  0  0  0  0
   -0.4458   -3.0625    0.0000 C   0  0  0  0  0  0  0  0  0  0  0  0
   -1.9458   -3.9292    0.0000 F   0  0  0  0  0  0  0  0  0  0  0  0
    1.5917    3.9333    0.0000 C   0  0  0  0  0  0  0  0  0  0  0  0
  1  2  2  0  0  0  0
  1  3  1  0  0  0  0
  2  4  1  0  0  0  0
  1  5  1  0  0  0  0
  3  6  1  0  0  0  0
  5  7  1  0  0  0  0
  2  8  1  0  0  0  0
  8  9  3  0  0  0  0
  7 10  1  0  0  0  0
  7 11  2  0  0  0  0
 10 12  1  0  0  0  0
 10 13  2  0  0  0  0
 14 18  2  0  0  0  0
  4 15  1  0  0  0  0
  6 16  1  0  0  0  0
 12 17  2  0  0  0  0
 13 18  1  0  0  0  0
 14 19  1  0  0  0  0
 16 20  1  0  0  0  0
  4  6  2  0  0  0  0
 15 20  1  0  0  0  0
 14 17  1  0  0  0  0
M  END
> <MOLFORMULA>
C15 H11 F N2 O S

> <MOLWEIGHT>
2.863289000000000e+002

> <IDNUMBER>
AN-153/I121211

> <PRICE>
EUR 130/10 mg

> <Similarity score>
0.17

$$$$

  -OEChem-04222410502D

 35 39  0     0  0  0  0  0  0999 V2000
    0.0708    1.9375    0.0000 C   0  0  0  0  0  0  0  0  0  0  0  0
   -0.8792    2.2458    0.0000 C   0  0  0  0  0  0  0  0  0  0  0  0
    0.0708    3.5583    0.0000 C   0  0  0  0  0  0  0  0  0  0  0  0
   -0.8792    3.2458    0.0000 C   0  0  0  0  0  0  0  0  0  0  0  0
    0.6625    2.7500    0.0000 S   0  0  0  0  0  0  0  0  0  0  0  0
    0.9500   -3.5583    0.0000 C   0  0  0  0  0  0  0  0  0  0  0  0
    1.9292   -3.7667    0.0000 C   0  0  0  0  0  0  0  0  0  0  0  0
    0.3833    0.9875    0.0000 N   0  0  0  0  0  0  0  0  0  0  0  0
    0.2792   -4.3042    0.0000 C   0  0  0  0  0  0  0  0  0  0  0  0
    2.2375   -4.7208    0.0000 O   0  0  0  0  0  0  0  0  0  0  0  0
   -0.2875    0.2458    0.0000 C   0  0  0  0  0  0  0  0  0  0  0  0
   -1.6875    1.6583    0.0000 C   0  0  0  0  0  0  0  0  0  0  0  0
    0.2792    4.5292    0.0000 C   0  0  0  0  0  0  0  0  0  0  0  0
    0.5875   -5.2542    0.0000 C   0  0  0  0  0  0  0  0  0  0  0  0
    1.5667   -5.4625    0.0000 C   0  0  0  0  0  0  0  0  0  0  0  0
   -2.6000    2.0667    0.0000 N   0  0  0  0  0  0  0  0  0  0  0  0
   -1.6208    3.9167    0.0000 C   0  0  0  0  0  0  0  0  0  0  0  0
   -0.4625    5.2000    0.0000 C   0  0  3  0  0  0  0  0  0  0  0  0
    0.6417   -2.6083    0.0000 C   0  0  0  0  0  0  0  0  0  0  0  0
    0.0208   -0.7083    0.0000 C   0  0  0  0  0  0  0  0  0  0  0  0
   -0.2542    6.1792    0.0000 C   0  0  3  0  0  0  0  0  0  0  0  0
    2.5958   -3.0250    0.0000 O   0  0  0  0  0  0  0  0  0  0  0  0
   -1.2667    0.4542    0.0000 O   0  0  0  0  0  0  0  0  0  0  0  0
   -1.4125    4.8917    0.0000 C   0  0  0  0  0  0  0  0  0  0  0  0
    1.3083   -1.8667    0.0000 C   0  0  0  0  0  0  0  0  0  0  0  0
   -0.3375   -2.4000    0.0000 C   0  0  0  0  0  0  0  0  0  0  0  0
   -0.6458   -1.4500    0.0000 C   0  0  0  0  0  0  0  0  0  0  0  0
    1.0000   -0.9167    0.0000 C   0  0  0  0  0  0  0  0  0  0  0  0
   -0.0792   -5.9958    0.0000 C   0  0  0  0  0  0  0  0  0  0  0  0
    1.8750   -6.4125    0.0000 C   0  0  0  0  0  0  0  0  0  0  0  0
    0.7250    5.9708    0.0000 C   0  0  0  0  0  0  0  0  0  0  0  0
   -1.2333    6.3875    0.0000 C   0  0  0  0  0  0  0  0  0  0  0  0
   -0.0458    7.1542    0.0000 C   0  0  0  0  0  0  0  0  0  0  0  0
    1.2083   -7.1542    0.0000 C   0  0  0  0  0  0  0  0  0  0  0  0
    0.2292   -6.9500    0.0000 C   0  0  0  0  0  0  0  0  0  0  0  0
  1  2  2  0  0  0  0
  3  5  1  0  0  0  0
  2  4  1  0  0  0  0
  1  5  1  0  0  0  0
  6 19  1  0  0  0  0
  6  7  1  0  0  0  0
  1  8  1  0  0  0  0
  6  9  2  0  0  0  0
  7 10  1  0  0  0  0
  8 11  1  0  0  0  0
  2 12  1  0  0  0  0
  3 13  1  0  0  0  0
  9 14  1  0  0  0  0
 14 15  1  0  0  0  0
 12 16  3  0  0  0  0
  4 17  1  0  0  0  0
 13 18  1  0  0  0  0
 19 25  2  0  0  0  0
 11 20  1  0  0  0  0
 18 21  1  0  0  0  0
  7 22  2  0  0  0  0
 11 23  2  0  0  0  0
 17 24  1  0  0  0  0
 25 28  1  0  0  0  0
 26 27  2  0  0  0  0
 20 27  1  0  0  0  0
 20 28  2  0  0  0  0
 14 29  2  0  0  0  0
 15 30  2  0  0  0  0
 21 31  1  0  0  0  0
 21 32  1  0  0  0  0
 21 33  1  0  0  0  0
 34 35  2  0  0  0  0
 29 35  1  0  0  0  0
  3  4  2  0  0  0  0
 18 24  1  0  0  0  0
 19 26  1  0  0  0  0
 10 15  1  0  0  0  0
 30 34  1  0  0  0  0
M  END
> <MOLFORMULA>
C29 H26 N2 O3 S

> <MOLWEIGHT>
4.826014000000000e+002

> <IDNUMBER>
AN-153/I280242

> <PRICE>
EUR 130/10 mg

> <Similarity score>
0.17

$$$$

  -OEChem-04222410502D

 23 25  0     0  0  0  0  0  0999 V2000
    1.5250    1.2667    0.0000 C   0  0  0  0  0  0  0  0  0  0  0  0
    2.5208    1.3708    0.0000 C   0  0  0  0  0  0  0  0  0  0  0  0
    1.1167    2.1792    0.0000 S   0  0  0  0  0  0  0  0  0  0  0  0
    2.7292    2.3500    0.0000 C   0  0  0  0  0  0  0  0  0  0  0  0
    1.0250    0.4000    0.0000 N   0  0  0  0  0  0  0  0  0  0  0  0
    1.8625    2.8500    0.0000 C   0  0  0  0  0  0  0  0  0  0  0  0
    0.0250    0.4000    0.0000 C   0  0  0  0  0  0  0  0  0  0  0  0
    3.1875    0.6292    0.0000 C   0  0  0  0  0  0  0  0  0  0  0  0
   -0.4750   -0.4667    0.0000 C   0  0  0  0  0  0  0  0  0  0  0  0
    2.8792   -0.3208    0.0000 N   0  0  0  0  0  0  0  0  0  0  0  0
   -0.4750   -2.1958    0.0000 C   0  0  0  0  0  0  0  0  0  0  0  0
    0.0250   -1.3292    0.0000 C   0  0  0  0  0  0  0  0  0  0  0  0
   -1.4750   -2.1958    0.0000 C   0  0  0  0  0  0  0  0  0  0  0  0
   -0.4750    1.2667    0.0000 O   0  0  0  0  0  0  0  0  0  0  0  0
   -1.4750   -0.4667    0.0000 C   0  0  0  0  0  0  0  0  0  0  0  0
   -1.9750   -1.3292    0.0000 C   0  0  0  0  0  0  0  0  0  0  0  0
    0.0250   -3.0625    0.0000 Cl  0  0  0  0  0  0  0  0  0  0  0  0
    3.4708    3.0208    0.0000 C   0  0  0  0  0  0  0  0  0  0  0  0
    2.0708    3.8292    0.0000 C   0  0  0  0  0  0  0  0  0  0  0  0
   -1.9750   -3.0625    0.0000 O   0  0  0  0  0  0  0  0  0  0  0  0
    3.0625    3.9333    0.0000 C   0  0  0  0  0  0  0  0  0  0  0  0
   -2.9750   -3.0625    0.0000 C   0  0  0  0  0  0  0  0  0  0  0  0
   -3.4750   -3.9292    0.0000 C   0  0  0  0  0  0  0  0  0  0  0  0
  1  2  2  0  0  0  0
  1  3  1  0  0  0  0
  2  4  1  0  0  0  0
  1  5  1  0  0  0  0
  3  6  1  0  0  0  0
  5  7  1  0  0  0  0
  2  8  1  0  0  0  0
  7  9  1  0  0  0  0
  8 10  3  0  0  0  0
 11 12  1  0  0  0  0
  9 12  2  0  0  0  0
 13 16  1  0  0  0  0
  7 14  2  0  0  0  0
  9 15  1  0  0  0  0
 15 16  2  0  0  0  0
 11 17  1  0  0  0  0
  4 18  1  0  0  0  0
  6 19  1  0  0  0  0
 13 20  1  0  0  0  0
 19 21  1  0  0  0  0
 20 22  1  0  0  0  0
 22 23  1  0  0  0  0
  4  6  2  0  0  0  0
 18 21  1  0  0  0  0
 11 13  2  0  0  0  0
M  END
> <MOLFORMULA>
C17 H15 Cl N2 O2 S

> <MOLWEIGHT>
3.468365000000000e+002

> <IDNUMBER>
AN-153/I226310

> <PRICE>
EUR 130/10 mg

> <Similarity score>
0.17

$$$$

  -OEChem-04222410502D

 38 43  0     0  0  0  0  0  0999 V2000
   -0.7375   -2.6417    0.0000 C   0  0  0  0  0  0  0  0  0  0  0  0
   -0.5208    4.1375    0.0000 C   0  0  0  0  0  0  0  0  0  0  0  0
   -0.0042   -1.9583    0.0000 N   0  0  3  0  0  0  0  0  0  0  0  0
   -0.1292    5.0583    0.0000 C   0  0  0  0  0  0  0  0  0  0  0  0
   -1.4125   -4.2375    0.0000 N   0  0  3  0  0  0  0  0  0  0  0  0
   -2.3708   -3.9417    0.0000 N   0  0  0  0  0  0  0  0  0  0  0  0
   -1.6125   -2.1583    0.0000 N   0  0  0  0  0  0  0  0  0  0  0  0
   -0.4292   -1.0542    0.0000 C   0  0  0  0  0  0  0  0  0  0  0  0
   -1.5167    4.2250    0.0000 S   0  0  0  0  0  0  0  0  0  0  0  0
   -0.8833    5.7167    0.0000 C   0  0  0  0  0  0  0  0  0  0  0  0
   -1.4208   -1.1750    0.0000 N   0  0  0  0  0  0  0  0  0  0  0  0
   -0.6167   -3.6333    0.0000 C   0  0  0  0  0  0  0  0  0  0  0  0
   -2.9417   -4.7625    0.0000 N   0  0  0  0  0  0  0  0  0  0  0  0
   -1.7417    5.2000    0.0000 C   0  0  0  0  0  0  0  0  0  0  0  0
   -0.0042    3.2833    0.0000 N   0  0  0  0  0  0  0  0  0  0  0  0
   -1.3958   -5.2375    0.0000 C   0  0  0  0  0  0  0  0  0  0  0  0
    0.8458    5.2833    0.0000 C   0  0  0  0  0  0  0  0  0  0  0  0
   -2.3417   -5.5625    0.0000 C   0  0  0  0  0  0  0  0  0  0  0  0
   -0.4917    2.4125    0.0000 C   0  0  0  0  0  0  0  0  0  0  0  0
    1.5250    4.5542    0.0000 N   0  0  0  0  0  0  0  0  0  0  0  0
    0.9750   -2.1500    0.0000 C   0  0  0  0  0  0  0  0  0  0  0  0
    0.0250    1.5542    0.0000 C   0  0  0  0  0  0  0  0  0  0  0  0
    0.0542   -0.1792    0.0000 S   0  0  0  0  0  0  0  0  0  0  0  0
   -1.4917    2.3917    0.0000 O   0  0  0  0  0  0  0  0  0  0  0  0
   -0.4583    0.6792    0.0000 C   0  0  0  0  0  0  0  0  0  0  0  0
   -0.9042    6.7125    0.0000 C   0  0  0  0  0  0  0  0  0  0  0  0
   -2.6167    5.6833    0.0000 C   0  0  0  0  0  0  0  0  0  0  0  0
   -0.6417   -5.8917    0.0000 C   0  0  0  0  0  0  0  0  0  0  0  0
   -2.5333   -6.5417    0.0000 C   0  0  0  0  0  0  0  0  0  0  0  0
    1.3000   -3.0958    0.0000 C   0  0  0  0  0  0  0  0  0  0  0  0
    1.6333   -1.3958    0.0000 C   0  0  0  0  0  0  0  0  0  0  0  0
   -1.7792    7.2000    0.0000 C   0  0  0  0  0  0  0  0  0  0  0  0
   -2.6333    6.6833    0.0000 C   0  0  0  0  0  0  0  0  0  0  0  0
   -0.8333   -6.8750    0.0000 C   0  0  0  0  0  0  0  0  0  0  0  0
   -1.7792   -7.2000    0.0000 C   0  0  0  0  0  0  0  0  0  0  0  0
    2.6125   -1.5875    0.0000 C   0  0  0  0  0  0  0  0  0  0  0  0
    2.2833   -3.2875    0.0000 C   0  0  0  0  0  0  0  0  0  0  0  0
    2.9375   -2.5292    0.0000 C   0  0  0  0  0  0  0  0  0  0  0  0
  2 15  1  0  0  0  0
  1  3  1  0  0  0  0
  2  4  2  0  0  0  0
  5 12  1  0  0  0  0
  5  6  1  0  0  0  0
  1  7  2  0  0  0  0
  3  8  1  0  0  0  0
  2  9  1  0  0  0  0
  4 10  1  0  0  0  0
  7 11  1  0  0  0  0
  1 12  1  0  0  0  0
  6 13  2  0  0  0  0
  9 14  1  0  0  0  0
 15 19  1  0  0  0  0
  5 16  1  0  0  0  0
  4 17  1  0  0  0  0
 16 18  2  0  0  0  0
 19 22  1  0  0  0  0
 17 20  3  0  0  0  0
  3 21  1  0  0  0  0
 22 25  1  0  0  0  0
  8 23  1  0  0  0  0
 19 24  2  0  0  0  0
 23 25  1  0  0  0  0
 10 26  1  0  0  0  0
 14 27  1  0  0  0  0
 16 28  1  0  0  0  0
 18 29  1  0  0  0  0
 21 30  2  0  0  0  0
 21 31  1  0  0  0  0
 26 32  1  0  0  0  0
 27 33  1  0  0  0  0
 28 34  2  0  0  0  0
 34 35  1  0  0  0  0
 31 36  2  0  0  0  0
 30 37  1  0  0  0  0
 36 38  1  0  0  0  0
  8 11  2  0  0  0  0
 13 18  1  0  0  0  0
 37 38  2  0  0  0  0
 29 35  2  0  0  0  0
 10 14  2  0  0  0  0
 32 33  1  0  0  0  0
M  END
> <MOLFORMULA>
C27 H24 N8 O S2

> <MOLWEIGHT>
5.406736000000000e+002

> <IDNUMBER>
AN-153/I267370

> <PRICE>
EUR 130/10 mg

> <Similarity score>
0.17

$$$$

  -OEChem-04222410502D

 13 14  0     0  0  0  0  0  0999 V2000
    3.2542    2.4375    0.0000 C   0  0  0  0  0  0  0  0  0  0  0  0
    5.5792   -0.7417    0.0000 C   0  0  0  0  0  0  0  0  0  0  0  0
   -0.5083    1.2333    0.0000 C   0  0  0  0  0  0  0  0  0  0  0  0
   -0.5083   -2.7292    0.0000 C   0  0  0  0  0  0  0  0  0  0  0  0
    3.2542   -3.9500    0.0000 S   0  0  0  0  0  0  0  0  0  0  0  0
    4.4750    6.2125    0.0000 C   0  0  0  0  0  0  0  0  0  0  0  0
    8.3625    7.0292    0.0000 N   0  0  0  0  0  0  0  0  0  0  0  0
   -3.9333    3.2125    0.0000 C   0  0  0  0  0  0  0  0  0  0  0  0
   -3.9333   -4.7125    0.0000 C   0  0  0  0  0  0  0  0  0  0  0  0
    9.4042   -1.7667    0.0000 N   0  0  0  0  0  0  0  0  0  0  0  0
   -7.3542    1.2333    0.0000 C   0  0  0  0  0  0  0  0  0  0  0  0
   -7.3542   -2.7292    0.0000 C   0  0  3  0  0  0  0  0  0  0  0  0
  -10.7792   -4.7125    0.0000 C   0  0  0  0  0  0  0  0  0  0  0  0
  1  2  2  0  0  0  0
  1  3  1  0  0  0  0
  3  4  2  0  0  0  0
  2  5  1  0  0  0  0
  1  6  1  0  0  0  0
  6  7  3  0  0  0  0
  3  8  1  0  0  0  0
  4  9  1  0  0  0  0
  2 10  1  0  0  0  0
  8 11  1  0  0  0  0
 11 12  1  0  0  0  0
 12 13  1  4  0  0  0
  4  5  1  0  0  0  0
  9 12  1  0  0  0  0
M  END
> <MOLFORMULA>
C10 H12 N2 S

> <MOLWEIGHT>
1.922848000000000e+002

> <IDNUMBER>
AT-084/J162226

> <PRICE>
EUR 37.00/10 mg

> <Similarity score>
0.17

$$$$

  -OEChem-04222410502D

 13 14  0     0  0  0  0  0  0999 V2000
   -1.2333    0.0750    0.0000 C   0  0  0  0  0  0  0  0  0  0  0  0
   -1.6417    0.9917    0.0000 C   0  0  0  0  0  0  0  0  0  0  0  0
   -0.2375    0.1833    0.0000 C   0  0  0  0  0  0  0  0  0  0  0  0
   -0.0292    1.1583    0.0000 C   0  0  0  0  0  0  0  0  0  0  0  0
   -0.8958    1.6583    0.0000 S   0  0  0  0  0  0  0  0  0  0  0  0
   -1.7333   -0.7875    0.0000 C   0  0  0  0  0  0  0  0  0  0  0  0
   -1.2333   -1.6542    0.0000 N   0  0  0  0  0  0  0  0  0  0  0  0
    0.5042   -0.4875    0.0000 C   0  0  0  0  0  0  0  0  0  0  0  0
    0.9208    1.4667    0.0000 C   0  0  0  0  0  0  0  0  0  0  0  0
   -2.6167    1.2000    0.0000 N   0  0  0  0  0  0  0  0  0  0  0  0
    1.4542   -0.1792    0.0000 C   0  0  0  0  0  0  0  0  0  0  0  0
    1.6625    0.8000    0.0000 C   0  0  3  0  0  0  0  0  0  0  0  0
    2.6125    1.1083    0.0000 C   0  0  0  0  0  0  0  0  0  0  0  0
  1  2  2  0  0  0  0
  1  3  1  0  0  0  0
  3  4  2  0  0  0  0
  2  5  1  0  0  0  0
  1  6  1  0  0  0  0
  6  7  3  0  0  0  0
  3  8  1  0  0  0  0
  4  9  1  0  0  0  0
  2 10  1  0  0  0  0
  8 11  1  0  0  0  0
 11 12  1  0  0  0  0
 12 13  1  0  0  0  0
  4  5  1  0  0  0  0
  9 12  1  0  0  0  0
M  END
> <MOLFORMULA>
C10 H12 N2 S

> <MOLWEIGHT>
1.922848000000000e+002

> <IDNUMBER>
AN-153/I124580

> <PRICE>
EUR 130/10 mg

> <Similarity score>
0.17

$$$$

  -OEChem-04222410502D

 37 40  0     0  0  0  0  0  0999 V2000
   -1.1125    0.3000    0.0000 C   0  0  0  0  0  0  0  0  0  0  0  0
   -2.3333    0.8458    0.0000 C   0  0  0  0  0  0  0  0  0  0  0  0
   -1.2500   -1.0375    0.0000 S   0  0  0  0  0  0  0  0  0  0  0  0
   -3.2333   -0.1542    0.0000 C   0  0  0  0  0  0  0  0  0  0  0  0
    0.0875    0.9625    0.0000 N   0  0  0  0  0  0  0  0  0  0  0  0
   -2.5708   -1.3167    0.0000 C   0  0  0  0  0  0  0  0  0  0  0  0
    2.4042    0.9625    0.0000 C   0  0  0  0  0  0  0  0  0  0  0  0
    1.2500    0.3000    0.0000 C   0  0  0  0  0  0  0  0  0  0  0  0
    9.5917    2.9208    0.0000 C   0  0  0  0  0  0  0  0  0  0  0  0
   -2.6000    2.1500    0.0000 C   0  0  0  0  0  0  0  0  0  0  0  0
    8.4250    2.2583    0.0000 O   0  0  0  0  0  0  0  0  0  0  0  0
    7.2542    0.2375    0.0000 C   0  0  0  0  0  0  0  0  0  0  0  0
    8.4250    0.8958    0.0000 C   0  0  0  0  0  0  0  0  0  0  0  0
   -2.8708    3.4625    0.0000 N   0  0  0  0  0  0  0  0  0  0  0  0
    4.9042    0.3000    0.0000 N   0  0  0  0  0  0  0  0  0  0  0  0
   10.7542    2.2583    0.0000 C   0  0  0  0  0  0  0  0  0  0  0  0
    3.5667    0.3000    0.0000 N   0  0  0  0  0  0  0  0  0  0  0  0
    2.4042    2.2958    0.0000 O   0  0  0  0  0  0  0  0  0  0  0  0
    1.2500   -1.0292    0.0000 O   0  0  0  0  0  0  0  0  0  0  0  0
    7.2542   -1.1292    0.0000 C   0  0  0  0  0  0  0  0  0  0  0  0
    9.5917    4.2542    0.0000 O   0  0  0  0  0  0  0  0  0  0  0  0
    6.0917    0.9458    0.0000 C   0  0  0  0  0  0  0  0  0  0  0  0
    9.5917    0.2375    0.0000 C   0  0  0  0  0  0  0  0  0  0  0  0
   11.9000    2.9208    0.0000 C   0  0  0  0  0  0  0  0  0  0  0  0
   10.7542    0.8958    0.0000 C   0  0  0  0  0  0  0  0  0  0  0  0
    8.4250   -1.7875    0.0000 C   0  0  0  0  0  0  0  0  0  0  0  0
   13.0667    0.8958    0.0000 C   0  0  0  0  0  0  0  0  0  0  0  0
   -4.5958   -0.1542    0.0000 C   0  0  0  0  0  0  0  0  0  0  0  0
    9.5917   -1.1042    0.0000 C   0  0  0  0  0  0  0  0  0  0  0  0
   11.9000    0.2375    0.0000 C   0  0  0  0  0  0  0  0  0  0  0  0
   13.0667    2.2583    0.0000 C   0  0  0  0  0  0  0  0  0  0  0  0
    8.4250   -3.1292    0.0000 Br  0  0  0  0  0  0  0  0  0  0  0  0
   -3.2333   -2.4792    0.0000 C   0  0  0  0  0  0  0  0  0  0  0  0
   14.2042    0.2125    0.0000 O   0  0  0  0  0  0  0  0  0  0  0  0
   14.1917   -1.1042    0.0000 C   0  0  0  0  0  0  0  0  0  0  0  0
   -5.2500   -1.3167    0.0000 C   0  0  0  0  0  0  0  0  0  0  0  0
   -4.5958   -2.4792    0.0000 C   0  0  0  0  0  0  0  0  0  0  0  0
  1  2  2  0  0  0  0
  1  3  1  0  0  0  0
  2  4  1  0  0  0  0
  1  5  1  0  0  0  0
  3  6  1  0  0  0  0
  7  8  1  0  0  0  0
  5  8  1  0  0  0  0
  9 11  1  0  0  0  0
  2 10  1  0  0  0  0
 11 13  1  0  0  0  0
 12 22  1  0  0  0  0
 12 13  2  0  0  0  0
 10 14  3  0  0  0  0
 15 17  1  0  0  0  0
  9 16  1  0  0  0  0
  7 17  1  0  0  0  0
  7 18  2  0  0  0  0
  8 19  2  0  0  0  0
 12 20  1  0  0  0  0
  9 21  2  0  0  0  0
 15 22  2  0  0  0  0
 13 23  1  0  0  0  0
 16 24  2  0  0  0  0
 16 25  1  0  0  0  0
 20 26  2  0  0  0  0
 27 30  1  0  0  0  0
  4 28  1  0  0  0  0
 26 29  1  0  0  0  0
 25 30  2  0  0  0  0
 24 31  1  0  0  0  0
 26 32  1  0  0  0  0
  6 33  1  0  0  0  0
 27 34  1  0  0  0  0
 34 35  1  0  0  0  0
 28 36  1  0  0  0  0
 33 37  1  0  0  0  0
  4  6  2  0  0  0  0
 36 37  1  0  0  0  0
 23 29  2  0  0  0  0
 27 31  2  0  0  0  0
M  END
> <MOLFORMULA>
C26 H21 Br N4 O5 S

> <MOLWEIGHT>
5.814449000000000e+002

> <IDNUMBER>
AT-225/NB67650

> <PRICE>
EUR 140/10 mg

> <Similarity score>
0.17

$$$$

  -OEChem-04222410502D

 37 40  0     0  0  0  0  0  0999 V2000
   12.6750   -9.4417    0.0000 C   0  0  0  0  0  0  0  0  0  0  0  0
   12.8000  -10.5042    0.0000 C   0  0  0  0  0  0  0  0  0  0  0  0
    7.9750   -7.7292    0.0000 N   0  0  3  0  0  0  0  0  0  0  0  0
    8.9542   -7.2917    0.0000 C   0  0  0  0  0  0  0  0  0  0  0  0
   13.6667   -9.0000    0.0000 S   0  0  0  0  0  0  0  0  0  0  0  0
    7.2542   -6.9292    0.0000 C   0  0  0  0  0  0  0  0  0  0  0  0
   13.8500  -10.7292    0.0000 C   0  0  0  0  0  0  0  0  0  0  0  0
    8.8417   -6.2292    0.0000 N   0  0  0  0  0  0  0  0  0  0  0  0
    7.8000   -6.0000    0.0000 N   0  0  0  0  0  0  0  0  0  0  0  0
   14.3875   -9.8000    0.0000 C   0  0  0  0  0  0  0  0  0  0  0  0
   11.7417   -8.9042    0.0000 N   0  0  0  0  0  0  0  0  0  0  0  0
   12.0292  -11.2750    0.0000 C   0  0  0  0  0  0  0  0  0  0  0  0
    4.4875   -6.2667    0.0000 C   0  0  0  0  0  0  0  0  0  0  0  0
   11.2667  -12.0292    0.0000 N   0  0  0  0  0  0  0  0  0  0  0  0
    4.0500   -7.2542    0.0000 C   0  0  0  0  0  0  0  0  0  0  0  0
    9.8875   -7.8292    0.0000 S   0  0  0  0  0  0  0  0  0  0  0  0
   10.8167   -9.4417    0.0000 C   0  0  0  0  0  0  0  0  0  0  0  0
    5.5542   -6.1625    0.0000 N   0  0  0  0  0  0  0  0  0  0  0  0
    2.9792   -7.3542    0.0000 C   0  0  0  0  0  0  0  0  0  0  0  0
    2.5500   -8.3500    0.0000 C   0  0  0  0  0  0  0  0  0  0  0  0
    6.1792   -7.0292    0.0000 C   0  0  0  0  0  0  0  0  0  0  0  0
    3.1792   -9.2167    0.0000 C   0  0  0  0  0  0  0  0  0  0  0  0
    3.8542   -5.4000    0.0000 O   0  0  0  0  0  0  0  0  0  0  0  0
    4.6792   -8.1167    0.0000 C   0  0  0  0  0  0  0  0  0  0  0  0
   10.8167  -10.5250    0.0000 O   0  0  0  0  0  0  0  0  0  0  0  0
    4.2542   -9.1042    0.0000 C   0  0  0  0  0  0  0  0  0  0  0  0
    9.8875   -8.9042    0.0000 C   0  0  0  0  0  0  0  0  0  0  0  0
    7.7292   -8.7792    0.0000 C   0  0  0  0  0  0  0  0  0  0  0  0
   14.3875  -11.6542    0.0000 C   0  0  0  0  0  0  0  0  0  0  0  0
    1.4667   -8.4625    0.0000 O   0  0  0  0  0  0  0  0  0  0  0  0
   15.4542   -9.7875    0.0000 C   0  0  0  0  0  0  0  0  0  0  0  0
    2.7417  -10.1917    0.0000 O   0  0  0  0  0  0  0  0  0  0  0  0
    1.0417   -9.4417    0.0000 C   0  0  0  0  0  0  0  0  0  0  0  0
    3.3792  -11.0667    0.0000 C   0  0  0  0  0  0  0  0  0  0  0  0
    6.7167   -9.1042    0.0000 C   0  0  0  0  0  0  0  0  0  0  0  0
   15.4542  -11.6542    0.0000 C   0  0  0  0  0  0  0  0  0  0  0  0
   16.0000  -10.7167    0.0000 C   0  0  0  0  0  0  0  0  0  0  0  0
  1  2  2  0  0  0  0
  3  4  1  0  0  0  0
  4 16  1  0  0  0  0
  1  5  1  0  0  0  0
  3  6  1  0  0  0  0
  2  7  1  0  0  0  0
  4  8  2  0  0  0  0
  8  9  1  0  0  0  0
  5 10  1  0  0  0  0
  1 11  1  0  0  0  0
  2 12  1  0  0  0  0
 13 18  1  0  0  0  0
 12 14  3  0  0  0  0
 13 15  1  0  0  0  0
 16 27  1  0  0  0  0
 11 17  1  0  0  0  0
 18 21  1  0  0  0  0
 15 19  2  0  0  0  0
 19 20  1  0  0  0  0
  6 21  1  0  0  0  0
 22 26  1  0  0  0  0
 13 23  2  0  0  0  0
 15 24  1  0  0  0  0
 17 25  2  0  0  0  0
 24 26  2  0  0  0  0
 17 27  1  0  0  0  0
  3 28  1  0  0  0  0
  7 29  1  0  0  0  0
 20 30  1  0  0  0  0
 10 31  1  0  0  0  0
 22 32  1  0  0  0  0
 30 33  1  0  0  0  0
 32 34  1  0  0  0  0
 28 35  1  0  0  0  0
 29 36  1  0  0  0  0
 31 37  1  0  0  0  0
  7 10  2  0  0  0  0
 36 37  1  0  0  0  0
  6  9  2  0  0  0  0
 20 22  2  0  0  0  0
M  END
> <MOLFORMULA>
C25 H28 N6 O4 S2

> <MOLWEIGHT>
5.406662000000000e+002

> <IDNUMBER>
AM-879/PD04484

> <PRICE>
EUR 55.00/10 mg

> <Similarity score>
0.17

$$$$

  -OEChem-04222410502D

 33 36  0     0  0  0  0  0  0999 V2000
   11.3917   -1.9500    0.0000 C   0  0  0  0  0  0  0  0  0  0  0  0
   12.6250   -1.2125    0.0000 C   0  0  0  0  0  0  0  0  0  0  0  0
    3.8292   -2.7542    0.0000 N   0  0  3  0  0  0  0  0  0  0  0  0
    5.0000   -1.9125    0.0000 C   0  0  0  0  0  0  0  0  0  0  0  0
   11.6917   -3.3542    0.0000 S   0  0  0  0  0  0  0  0  0  0  0  0
    2.6250   -1.9125    0.0000 C   0  0  0  0  0  0  0  0  0  0  0  0
   13.7125   -2.1750    0.0000 C   0  0  0  0  0  0  0  0  0  0  0  0
    4.5417   -0.5042    0.0000 N   0  0  0  0  0  0  0  0  0  0  0  0
    3.0667   -0.5292    0.0000 N   0  0  0  0  0  0  0  0  0  0  0  0
   13.1292   -3.4875    0.0000 C   0  0  0  0  0  0  0  0  0  0  0  0
   10.0625   -1.3625    0.0000 N   0  0  0  0  0  0  0  0  0  0  0  0
   12.7667    0.2375    0.0000 C   0  0  0  0  0  0  0  0  0  0  0  0
   -1.2458   -1.8417    0.0000 C   0  0  0  0  0  0  0  0  0  0  0  0
   12.7542    1.6833    0.0000 N   0  0  0  0  0  0  0  0  0  0  0  0
    6.3500   -2.5042    0.0000 S   0  0  0  0  0  0  0  0  0  0  0  0
    8.9000   -2.2292    0.0000 C   0  0  0  0  0  0  0  0  0  0  0  0
    0.1500   -1.4000    0.0000 N   0  0  0  0  0  0  0  0  0  0  0  0
    1.2292   -2.3667    0.0000 C   0  0  0  0  0  0  0  0  0  0  0  0
   -2.3250   -0.8792    0.0000 C   0  0  0  0  0  0  0  0  0  0  0  0
   -1.5375   -3.2625    0.0000 O   0  0  0  0  0  0  0  0  0  0  0  0
    9.0542   -3.6875    0.0000 O   0  0  0  0  0  0  0  0  0  0  0  0
    7.5417   -1.6250    0.0000 C   0  0  0  0  0  0  0  0  0  0  0  0
   -2.0583    0.5458    0.0000 C   0  0  0  0  0  0  0  0  0  0  0  0
   -3.5958   -1.3417    0.0000 C   0  0  0  0  0  0  0  0  0  0  0  0
    3.8375   -4.2042    0.0000 C   0  0  0  0  0  0  0  0  0  0  0  0
   -4.3208    1.0708    0.0000 C   0  0  0  0  0  0  0  0  0  0  0  0
   15.1417   -2.0125    0.0000 C   0  0  0  0  0  0  0  0  0  0  0  0
   -4.5958   -0.3542    0.0000 C   0  0  0  0  0  0  0  0  0  0  0  0
   -3.0458    1.5083    0.0000 C   0  0  0  0  0  0  0  0  0  0  0  0
   13.9792   -4.6500    0.0000 C   0  0  0  0  0  0  0  0  0  0  0  0
   -5.4333    1.9958    0.0000 Cl  0  0  0  0  0  0  0  0  0  0  0  0
   16.0000   -3.1542    0.0000 C   0  0  0  0  0  0  0  0  0  0  0  0
   15.4167   -4.4917    0.0000 C   0  0  0  0  0  0  0  0  0  0  0  0
  1  2  2  0  0  0  0
  3  4  1  0  0  0  0
  4 15  1  0  0  0  0
  1  5  1  0  0  0  0
  3  6  1  0  0  0  0
  2  7  1  0  0  0  0
  4  8  2  0  0  0  0
  8  9  1  0  0  0  0
  5 10  1  0  0  0  0
  1 11  1  0  0  0  0
  2 12  1  0  0  0  0
 13 17  1  0  0  0  0
 12 14  3  0  0  0  0
 15 22  1  0  0  0  0
 11 16  1  0  0  0  0
 17 18  1  0  0  0  0
  6 18  1  0  0  0  0
 13 19  1  0  0  0  0
 13 20  2  0  0  0  0
 16 21  2  0  0  0  0
 16 22  1  0  0  0  0
 19 23  1  0  0  0  0
 19 24  2  0  0  0  0
  3 25  1  0  0  0  0
 26 28  2  0  0  0  0
  7 27  1  0  0  0  0
 24 28  1  0  0  0  0
 23 29  2  0  0  0  0
 10 30  1  0  0  0  0
 26 31  1  0  0  0  0
 27 32  1  0  0  0  0
 30 33  1  0  0  0  0
  7 10  2  0  0  0  0
 32 33  1  0  0  0  0
  6  9  2  0  0  0  0
 26 29  1  0  0  0  0
M  END
> <MOLFORMULA>
C22 H21 Cl N6 O2 S2

> <MOLWEIGHT>
5.010329000000000e+002

> <IDNUMBER>
AM-879/PD12858

> <PRICE>
EUR 55.00/10 mg

> <Similarity score>
0.17

$$$$

  -OEChem-04222410502D

 26 28  0     0  0  0  0  0  0999 V2000
    1.1667    1.2125    0.0000 C   0  0  0  0  0  0  0  0  0  0  0  0
    1.5708    0.3000    0.0000 C   0  0  0  0  0  0  0  0  0  0  0  0
    2.5667    0.4042    0.0000 C   0  0  0  0  0  0  0  0  0  0  0  0
    2.7750    1.3833    0.0000 C   0  0  0  0  0  0  0  0  0  0  0  0
    1.9083    1.8833    0.0000 S   0  0  0  0  0  0  0  0  0  0  0  0
    0.1875    1.4208    0.0000 N   0  0  0  0  0  0  0  0  0  0  0  0
   -0.4833    0.6792    0.0000 C   0  0  0  0  0  0  0  0  0  0  0  0
   -1.4583    0.8875    0.0000 N   0  0  0  0  0  0  0  0  0  0  0  0
   -2.1292    0.1417    0.0000 C   0  0  0  0  0  0  0  0  0  0  0  0
    1.0708   -0.5667    0.0000 C   0  0  0  0  0  0  0  0  0  0  0  0
    1.5708   -1.4333    0.0000 N   0  0  0  0  0  0  0  0  0  0  0  0
    3.3083   -0.2625    0.0000 C   0  0  0  0  0  0  0  0  0  0  0  0
   -3.1083    0.3500    0.0000 C   0  0  0  0  0  0  0  0  0  0  0  0
   -0.1750   -0.2708    0.0000 S   0  0  0  0  0  0  0  0  0  0  0  0
    3.7250    1.6917    0.0000 C   0  0  0  0  0  0  0  0  0  0  0  0
   -1.8208   -0.8083    0.0000 O   0  0  0  0  0  0  0  0  0  0  0  0
   -3.7750   -0.3917    0.0000 C   0  0  0  0  0  0  0  0  0  0  0  0
    4.2625    0.0458    0.0000 C   0  0  0  0  0  0  0  0  0  0  0  0
   -4.7542   -0.1833    0.0000 C   0  0  0  0  0  0  0  0  0  0  0  0
    4.4667    1.0250    0.0000 C   0  0  3  0  0  0  0  0  0  0  0  0
   -5.4250   -0.9292    0.0000 O   0  0  0  0  0  0  0  0  0  0  0  0
   -3.4167    1.3000    0.0000 C   0  0  0  0  0  0  0  0  0  0  0  0
   -4.3958    1.5083    0.0000 C   0  0  0  0  0  0  0  0  0  0  0  0
   -5.0625    0.7667    0.0000 C   0  0  0  0  0  0  0  0  0  0  0  0
   -5.1125   -1.8792    0.0000 C   0  0  0  0  0  0  0  0  0  0  0  0
    5.4208    1.3333    0.0000 C   0  0  0  0  0  0  0  0  0  0  0  0
  1  2  2  0  0  0  0
  2  3  1  0  0  0  0
  4  5  1  0  0  0  0
  1  5  1  0  0  0  0
  1  6  1  0  0  0  0
  6  7  1  0  0  0  0
  7  8  1  0  0  0  0
  8  9  1  0  0  0  0
  2 10  1  0  0  0  0
 10 11  3  0  0  0  0
  3 12  1  0  0  0  0
  9 13  1  0  0  0  0
  7 14  2  0  0  0  0
  4 15  1  0  0  0  0
  9 16  2  0  0  0  0
 13 17  2  0  0  0  0
 12 18  1  0  0  0  0
 17 19  1  0  0  0  0
 15 20  1  0  0  0  0
 19 21  1  0  0  0  0
 13 22  1  0  0  0  0
 22 23  2  0  0  0  0
 23 24  1  0  0  0  0
 21 25  1  0  0  0  0
 20 26  1  0  0  0  0
  3  4  2  0  0  0  0
 18 20  1  0  0  0  0
 19 24  2  0  0  0  0
M  END
> <MOLFORMULA>
C19 H19 N3 O2 S2

> <MOLWEIGHT>
3.855101000000000e+002

> <IDNUMBER>
AN-153/I202580

> <PRICE>
EUR 130/10 mg

> <Similarity score>
0.17

$$$$

  -OEChem-04222410502D

 45 49  0     0  0  0  0  0  0999 V2000
   -1.1125    0.3000    0.0000 C   0  0  0  0  0  0  0  0  0  0  0  0
   -2.3333    0.8458    0.0000 C   0  0  0  0  0  0  0  0  0  0  0  0
   -1.2500   -1.0375    0.0000 S   0  0  0  0  0  0  0  0  0  0  0  0
   -3.2333   -0.1542    0.0000 C   0  0  0  0  0  0  0  0  0  0  0  0
    0.0875    0.9625    0.0000 N   0  0  0  0  0  0  0  0  0  0  0  0
   -2.5708   -1.3167    0.0000 C   0  0  0  0  0  0  0  0  0  0  0  0
    2.4042    0.9625    0.0000 C   0  0  0  0  0  0  0  0  0  0  0  0
    1.2500    0.3000    0.0000 C   0  0  0  0  0  0  0  0  0  0  0  0
    9.5375    2.9708    0.0000 C   0  0  0  0  0  0  0  0  0  0  0  0
   10.7625   -3.0542    0.0000 C   0  0  0  0  0  0  0  0  0  0  0  0
    8.3667    0.9708    0.0000 C   0  0  0  0  0  0  0  0  0  0  0  0
   -2.6000    2.1500    0.0000 C   0  0  0  0  0  0  0  0  0  0  0  0
    8.3667    2.2958    0.0000 O   0  0  0  0  0  0  0  0  0  0  0  0
   -2.8708    3.4625    0.0000 N   0  0  0  0  0  0  0  0  0  0  0  0
    7.2042    0.3000    0.0000 C   0  0  0  0  0  0  0  0  0  0  0  0
    9.5542    0.2708    0.0000 C   0  0  0  0  0  0  0  0  0  0  0  0
   10.7292   -1.7167    0.0000 O   0  0  0  0  0  0  0  0  0  0  0  0
    4.9042    0.3000    0.0000 N   0  0  0  0  0  0  0  0  0  0  0  0
   10.6875    2.2958    0.0000 C   0  0  0  0  0  0  0  0  0  0  0  0
    9.6125   -3.7542    0.0000 C   0  0  0  0  0  0  0  0  0  0  0  0
    3.5667    0.3000    0.0000 N   0  0  0  0  0  0  0  0  0  0  0  0
    9.5542   -1.0542    0.0000 C   0  0  0  0  0  0  0  0  0  0  0  0
    2.4042    2.2958    0.0000 O   0  0  0  0  0  0  0  0  0  0  0  0
    1.2500   -1.0292    0.0000 O   0  0  0  0  0  0  0  0  0  0  0  0
    9.5375    4.3042    0.0000 O   0  0  0  0  0  0  0  0  0  0  0  0
   11.9542   -3.6917    0.0000 O   0  0  0  0  0  0  0  0  0  0  0  0
    6.0417    0.9833    0.0000 C   0  0  0  0  0  0  0  0  0  0  0  0
    7.2042   -1.0542    0.0000 C   0  0  0  0  0  0  0  0  0  0  0  0
    8.4292   -3.0917    0.0000 C   0  0  0  0  0  0  0  0  0  0  0  0
    9.6250   -5.0917    0.0000 C   0  0  0  0  0  0  0  0  0  0  0  0
   11.8917    2.9458    0.0000 C   0  0  0  0  0  0  0  0  0  0  0  0
   10.6875    0.9708    0.0000 C   0  0  0  0  0  0  0  0  0  0  0  0
    8.3667   -1.7417    0.0000 C   0  0  0  0  0  0  0  0  0  0  0  0
    7.2917   -5.1542    0.0000 C   0  0  0  0  0  0  0  0  0  0  0  0
   13.0167    0.8958    0.0000 C   0  0  0  0  0  0  0  0  0  0  0  0
   -4.5958   -0.1542    0.0000 C   0  0  0  0  0  0  0  0  0  0  0  0
   11.8375    0.2708    0.0000 C   0  0  0  0  0  0  0  0  0  0  0  0
    8.4625   -5.8167    0.0000 C   0  0  0  0  0  0  0  0  0  0  0  0
    7.2500   -3.8417    0.0000 C   0  0  0  0  0  0  0  0  0  0  0  0
   13.0292    2.2708    0.0000 C   0  0  0  0  0  0  0  0  0  0  0  0
   -3.2333   -2.4792    0.0000 C   0  0  0  0  0  0  0  0  0  0  0  0
    6.1292   -5.8167    0.0000 Cl  0  0  0  0  0  0  0  0  0  0  0  0
   14.1250    0.1833    0.0000 Cl  0  0  0  0  0  0  0  0  0  0  0  0
   -5.2500   -1.3167    0.0000 C   0  0  0  0  0  0  0  0  0  0  0  0
   -4.5958   -2.4792    0.0000 C   0  0  0  0  0  0  0  0  0  0  0  0
  1  2  2  0  0  0  0
  1  3  1  0  0  0  0
  2  4  1  0  0  0  0
  1  5  1  0  0  0  0
  3  6  1  0  0  0  0
  7  8  1  0  0  0  0
  5  8  1  0  0  0  0
  9 13  1  0  0  0  0
 10 17  1  0  0  0  0
 11 15  2  0  0  0  0
  2 12  1  0  0  0  0
 11 13  1  0  0  0  0
 12 14  3  0  0  0  0
 15 27  1  0  0  0  0
 11 16  1  0  0  0  0
 17 22  1  0  0  0  0
 18 21  1  0  0  0  0
  9 19  1  0  0  0  0
 10 20  1  0  0  0  0
  7 21  1  0  0  0  0
 22 33  1  0  0  0  0
  7 23  2  0  0  0  0
  8 24  2  0  0  0  0
  9 25  2  0  0  0  0
 10 26  2  0  0  0  0
 18 27  2  0  0  0  0
 15 28  1  0  0  0  0
 20 29  1  0  0  0  0
 20 30  2  0  0  0  0
 19 31  2  0  0  0  0
 19 32  1  0  0  0  0
 28 33  2  0  0  0  0
 34 38  2  0  0  0  0
 35 37  1  0  0  0  0
  4 36  1  0  0  0  0
 32 37  2  0  0  0  0
 30 38  1  0  0  0  0
 29 39  2  0  0  0  0
 31 40  1  0  0  0  0
  6 41  1  0  0  0  0
 34 42  1  0  0  0  0
 35 43  1  0  0  0  0
 36 44  1  0  0  0  0
 41 45  1  0  0  0  0
  4  6  2  0  0  0  0
 44 45  1  0  0  0  0
 16 22  2  0  0  0  0
 35 40  2  0  0  0  0
 34 39  1  0  0  0  0
M  END
> <MOLFORMULA>
C32 H22 Cl2 N4 O6 S

> <MOLWEIGHT>
6.615198000000000e+002

> <IDNUMBER>
AT-225/NB68781

> <PRICE>
EUR 140/10 mg

> <Similarity score>
0.17

$$$$

  -OEChem-04222410502D

 25 27  0     0  0  0  0  0  0999 V2000
   -1.6875   -0.1750    0.0000 C   0  0  0  0  0  0  0  0  0  0  0  0
   -1.8958   -1.1542    0.0000 C   0  0  0  0  0  0  0  0  0  0  0  0
   -2.5542    0.3250    0.0000 S   0  0  0  0  0  0  0  0  0  0  0  0
   -2.8917   -1.2583    0.0000 C   0  0  0  0  0  0  0  0  0  0  0  0
   -0.7750    0.2292    0.0000 N   0  0  0  0  0  0  0  0  0  0  0  0
   -3.3000   -0.3458    0.0000 C   0  0  0  0  0  0  0  0  0  0  0  0
    0.0333   -0.3583    0.0000 C   0  0  0  0  0  0  0  0  0  0  0  0
    0.9458    0.0500    0.0000 C   0  0  0  0  0  0  0  0  0  0  0  0
    2.7750    0.8625    0.0000 C   0  0  0  0  0  0  0  0  0  0  0  0
   -1.2292   -1.8958    0.0000 C   0  0  0  0  0  0  0  0  0  0  0  0
    1.9667    1.4500    0.0000 C   0  0  0  0  0  0  0  0  0  0  0  0
    2.6708   -0.1292    0.0000 C   0  0  0  0  0  0  0  0  0  0  0  0
   -1.5375   -2.8500    0.0000 N   0  0  0  0  0  0  0  0  0  0  0  0
    1.7542   -0.5375    0.0000 C   0  0  0  0  0  0  0  0  0  0  0  0
    1.0500    1.0458    0.0000 C   0  0  0  0  0  0  0  0  0  0  0  0
   -0.0708   -1.3500    0.0000 O   0  0  0  0  0  0  0  0  0  0  0  0
    3.6875    1.2708    0.0000 O   0  0  0  0  0  0  0  0  0  0  0  0
    2.0708    2.4458    0.0000 O   0  0  0  0  0  0  0  0  0  0  0  0
    3.4792   -0.7208    0.0000 O   0  0  0  0  0  0  0  0  0  0  0  0
   -3.6333   -1.9292    0.0000 C   0  0  0  0  0  0  0  0  0  0  0  0
   -4.2917   -0.4500    0.0000 C   0  0  0  0  0  0  0  0  0  0  0  0
   -4.5000   -1.4292    0.0000 C   0  0  0  0  0  0  0  0  0  0  0  0
    4.4958    0.6833    0.0000 C   0  0  0  0  0  0  0  0  0  0  0  0
    2.9833    2.8542    0.0000 C   0  0  0  0  0  0  0  0  0  0  0  0
    3.3750   -1.7125    0.0000 C   0  0  0  0  0  0  0  0  0  0  0  0
  1  2  2  0  0  0  0
  1  3  1  0  0  0  0
  2  4  1  0  0  0  0
  1  5  1  0  0  0  0
  3  6  1  0  0  0  0
  5  7  1  0  0  0  0
  7  8  1  0  0  0  0
  9 11  2  0  0  0  0
  2 10  1  0  0  0  0
 11 15  1  0  0  0  0
 12 14  2  0  0  0  0
 10 13  3  0  0  0  0
  8 14  1  0  0  0  0
  8 15  2  0  0  0  0
  7 16  2  0  0  0  0
  9 17  1  0  0  0  0
 11 18  1  0  0  0  0
 12 19  1  0  0  0  0
  4 20  1  0  0  0  0
  6 21  1  0  0  0  0
 21 22  1  0  0  0  0
 17 23  1  0  0  0  0
 18 24  1  0  0  0  0
 19 25  1  0  0  0  0
  4  6  2  0  0  0  0
 20 22  1  0  0  0  0
  9 12  1  0  0  0  0
M  END
> <MOLFORMULA>
C18 H18 N2 O4 S

> <MOLWEIGHT>
3.584162000000000e+002

> <IDNUMBER>
AN-153/I181373

> <PRICE>
EUR 130/10 mg

> <Similarity score>
0.17

$$$$

  -OEChem-04222410502D

 38 42  0     0  0  0  0  0  0999 V2000
    4.9750    1.6458    0.0000 C   0  0  0  0  0  0  0  0  0  0  0  0
    5.2167    1.0958    0.0000 C   0  0  0  0  0  0  0  0  0  0  0  0
    1.9875    0.7625    0.0000 N   0  0  3  0  0  0  0  0  0  0  0  0
    2.3917    1.1958    0.0000 C   0  0  0  0  0  0  0  0  0  0  0  0
    5.4250    2.0375    0.0000 S   0  0  0  0  0  0  0  0  0  0  0  0
    1.4417    1.0208    0.0000 C   0  0  0  0  0  0  0  0  0  0  0  0
    5.8167    1.1500    0.0000 C   0  0  0  0  0  0  0  0  0  0  0  0
    2.1042    1.7208    0.0000 N   0  0  0  0  0  0  0  0  0  0  0  0
    1.5167    1.6083    0.0000 N   0  0  0  0  0  0  0  0  0  0  0  0
    5.9500    1.7375    0.0000 C   0  0  0  0  0  0  0  0  0  0  0  0
    4.3917    1.7833    0.0000 N   0  0  0  0  0  0  0  0  0  0  0  0
    4.9125    0.5750    0.0000 C   0  0  0  0  0  0  0  0  0  0  0  0
   -0.1333    0.7708    0.0000 C   0  0  0  0  0  0  0  0  0  0  0  0
    4.6042    0.0583    0.0000 N   0  0  0  0  0  0  0  0  0  0  0  0
    2.9792    1.0583    0.0000 S   0  0  0  0  0  0  0  0  0  0  0  0
    3.9792    1.3500    0.0000 C   0  0  0  0  0  0  0  0  0  0  0  0
    0.3917    1.0500    0.0000 N   0  0  0  0  0  0  0  0  0  0  0  0
    2.0667    0.1625    0.0000 C   0  0  0  0  0  0  0  0  0  0  0  0
    0.9042    0.7333    0.0000 C   0  0  0  0  0  0  0  0  0  0  0  0
   -0.1458    0.1625    0.0000 C   0  0  0  0  0  0  0  0  0  0  0  0
   -0.6500    1.0708    0.0000 O   0  0  0  0  0  0  0  0  0  0  0  0
    4.1417    0.7750    0.0000 O   0  0  0  0  0  0  0  0  0  0  0  0
    3.3917    1.4875    0.0000 C   0  0  0  0  0  0  0  0  0  0  0  0
    0.3667   -0.1542    0.0000 C   0  0  0  0  0  0  0  0  0  0  0  0
   -0.6750   -0.1167    0.0000 C   0  0  0  0  0  0  0  0  0  0  0  0
   -0.1750   -1.0417    0.0000 C   0  0  0  0  0  0  0  0  0  0  0  0
    6.2625    0.7500    0.0000 C   0  0  0  0  0  0  0  0  0  0  0  0
   -0.6875   -0.7292    0.0000 C   0  0  0  0  0  0  0  0  0  0  0  0
    0.3625   -0.7542    0.0000 C   0  0  0  0  0  0  0  0  0  0  0  0
    6.5167    1.9208    0.0000 C   0  0  0  0  0  0  0  0  0  0  0  0
   -0.2000   -1.6542    0.0000 Cl  0  0  0  0  0  0  0  0  0  0  0  0
    1.5917   -0.2000    0.0000 C   0  0  0  0  0  0  0  0  0  0  0  0
    2.6250   -0.0625    0.0000 C   0  0  0  0  0  0  0  0  0  0  0  0
    6.8292    0.9333    0.0000 C   0  0  0  0  0  0  0  0  0  0  0  0
    6.9542    1.5208    0.0000 C   0  0  0  0  0  0  0  0  0  0  0  0
    2.7125   -0.6542    0.0000 C   0  0  0  0  0  0  0  0  0  0  0  0
    1.6750   -0.7917    0.0000 C   0  0  0  0  0  0  0  0  0  0  0  0
    2.2375   -1.0250    0.0000 C   0  0  0  0  0  0  0  0  0  0  0  0
  1  2  2  0  0  0  0
  3  4  1  0  0  0  0
  4 15  1  0  0  0  0
  1  5  1  0  0  0  0
  3  6  1  0  0  0  0
  2  7  1  0  0  0  0
  4  8  2  0  0  0  0
  8  9  1  0  0  0  0
  5 10  1  0  0  0  0
  1 11  1  0  0  0  0
  2 12  1  0  0  0  0
 13 17  1  0  0  0  0
 12 14  3  0  0  0  0
 15 23  1  0  0  0  0
 11 16  1  0  0  0  0
 17 19  1  0  0  0  0
  3 18  1  0  0  0  0
  6 19  1  0  0  0  0
 13 20  1  0  0  0  0
 13 21  2  0  0  0  0
 16 22  2  0  0  0  0
 16 23  1  0  0  0  0
 20 24  1  0  0  0  0
 20 25  2  0  0  0  0
 26 28  2  0  0  0  0
  7 27  1  0  0  0  0
 25 28  1  0  0  0  0
 24 29  2  0  0  0  0
 10 30  1  0  0  0  0
 26 31  1  0  0  0  0
 18 32  2  0  0  0  0
 18 33  1  0  0  0  0
 27 34  1  0  0  0  0
 30 35  1  0  0  0  0
 33 36  2  0  0  0  0
 32 37  1  0  0  0  0
 36 38  1  0  0  0  0
  7 10  2  0  0  0  0
 34 35  1  0  0  0  0
  6  9  2  0  0  0  0
 37 38  2  0  0  0  0
 26 29  1  0  0  0  0
M  END
> <MOLFORMULA>
C27 H23 Cl N6 O2 S2

> <MOLWEIGHT>
5.631037000000000e+002

> <IDNUMBER>
AM-879/PD04512

> <PRICE>
EUR 55.00/10 mg

> <Similarity score>
0.17

$$$$

  -OEChem-04222410502D

 30 33  0     0  0  0  0  0  0999 V2000
    0.0000    3.7333    0.0000 C   0  0  0  0  0  0  0  0  0  0  0  0
   -0.7708    4.3667    0.0000 C   0  0  0  0  0  0  0  0  0  0  0  0
    0.8458    4.2625    0.0000 S   0  0  0  0  0  0  0  0  0  0  0  0
   -0.4000    5.2958    0.0000 C   0  0  0  0  0  0  0  0  0  0  0  0
   -0.0625    2.7333    0.0000 N   0  0  0  0  0  0  0  0  0  0  0  0
    0.7708    2.1792    0.0000 C   0  0  0  0  0  0  0  0  0  0  0  0
    0.5958    5.2333    0.0000 C   0  0  0  0  0  0  0  0  0  0  0  0
    0.7042    1.1833    0.0000 N   0  0  0  0  0  0  0  0  0  0  0  0
    1.5375    0.6292    0.0000 C   0  0  0  0  0  0  0  0  0  0  0  0
   -1.7375    4.1167    0.0000 C   0  0  0  0  0  0  0  0  0  0  0  0
   -2.4375    4.8333    0.0000 N   0  0  0  0  0  0  0  0  0  0  0  0
    1.6667    2.6250    0.0000 S   0  0  0  0  0  0  0  0  0  0  0  0
    1.4750   -0.3708    0.0000 C   0  0  0  0  0  0  0  0  0  0  0  0
    2.4333    1.0708    0.0000 O   0  0  0  0  0  0  0  0  0  0  0  0
    0.5792   -0.8125    0.0000 C   0  0  0  0  0  0  0  0  0  0  0  0
    2.3083   -0.9250    0.0000 C   0  0  0  0  0  0  0  0  0  0  0  0
    1.2833   -3.3625    0.0000 O   0  0  0  0  0  0  0  0  0  0  0  0
    1.3458   -2.3667    0.0000 C   0  0  0  0  0  0  0  0  0  0  0  0
   -0.6500    6.2667    0.0000 C   0  0  0  0  0  0  0  0  0  0  0  0
    0.9667    6.1625    0.0000 C   0  0  0  0  0  0  0  0  0  0  0  0
    0.3875   -3.8083    0.0000 C   0  0  0  0  0  0  0  0  0  0  0  0
    2.2417   -1.9208    0.0000 C   0  0  0  0  0  0  0  0  0  0  0  0
    0.5125   -1.8125    0.0000 C   0  0  0  0  0  0  0  0  0  0  0  0
    0.3208   -4.8042    0.0000 C   0  0  0  0  0  0  0  0  0  0  0  0
    0.1958    6.8000    0.0000 C   0  0  0  0  0  0  0  0  0  0  0  0
    1.1542   -5.3583    0.0000 C   0  0  0  0  0  0  0  0  0  0  0  0
   -0.5750   -5.2500    0.0000 C   0  0  0  0  0  0  0  0  0  0  0  0
   -0.6375   -6.2458    0.0000 C   0  0  0  0  0  0  0  0  0  0  0  0
    1.0917   -6.3583    0.0000 C   0  0  0  0  0  0  0  0  0  0  0  0
    0.1958   -6.8000    0.0000 C   0  0  0  0  0  0  0  0  0  0  0  0
  1  2  2  0  0  0  0
  1  3  1  0  0  0  0
  2  4  1  0  0  0  0
  1  5  1  0  0  0  0
  5  6  1  0  0  0  0
  3  7  1  0  0  0  0
  6  8  1  0  0  0  0
  8  9  1  0  0  0  0
  2 10  1  0  0  0  0
 10 11  3  0  0  0  0
  6 12  2  0  0  0  0
  9 13  1  0  0  0  0
  9 14  2  0  0  0  0
 13 15  2  0  0  0  0
 13 16  1  0  0  0  0
 17 18  1  0  0  0  0
 18 22  1  0  0  0  0
  4 19  1  0  0  0  0
  7 20  1  0  0  0  0
 17 21  1  0  0  0  0
 16 22  2  0  0  0  0
 15 23  1  0  0  0  0
 21 24  1  0  0  0  0
 20 25  1  0  0  0  0
 24 26  1  0  0  0  0
 24 27  2  0  0  0  0
 27 28  1  0  0  0  0
 26 29  2  0  0  0  0
 28 30  2  0  0  0  0
  4  7  2  0  0  0  0
 19 25  1  0  0  0  0
 18 23  2  0  0  0  0
 29 30  1  0  0  0  0
M  END
> <MOLFORMULA>
C23 H19 N3 O2 S2

> <MOLWEIGHT>
4.335541000000000e+002

> <IDNUMBER>
AN-153/I250684

> <PRICE>
EUR 130/10 mg

> <Similarity score>
0.17

$$$$

  -OEChem-04222410502D

 36 39  0     0  0  0  0  0  0999 V2000
    4.5167    4.4042    0.0000 C   0  0  0  0  0  0  0  0  0  0  0  0
    3.6750    5.5167    0.0000 C   0  0  0  0  0  0  0  0  0  0  0  0
    3.6750    3.2958    0.0000 S   0  0  0  0  0  0  0  0  0  0  0  0
    2.3750    5.1042    0.0000 C   0  0  0  0  0  0  0  0  0  0  0  0
    5.9125    4.4042    0.0000 N   0  0  0  0  0  0  0  0  0  0  0  0
    2.3750    3.7083    0.0000 C   0  0  0  0  0  0  0  0  0  0  0  0
    8.0042    3.1958    0.0000 C   0  0  0  0  0  0  0  0  0  0  0  0
    6.6125    3.1958    0.0000 C   0  0  0  0  0  0  0  0  0  0  0  0
   17.8792    2.8458    0.0000 C   0  0  0  0  0  0  0  0  0  0  0  0
    4.1417    6.8667    0.0000 C   0  0  0  0  0  0  0  0  0  0  0  0
    4.5167    8.2167    0.0000 N   0  0  0  0  0  0  0  0  0  0  0  0
   16.6417    2.1458    0.0000 O   0  0  0  0  0  0  0  0  0  0  0  0
   10.6667    4.2667    0.0000 N   0  0  0  0  0  0  0  0  0  0  0  0
   19.1042    2.1458    0.0000 C   0  0  0  0  0  0  0  0  0  0  0  0
    9.2667    4.2667    0.0000 N   0  0  0  0  0  0  0  0  0  0  0  0
    8.7042    1.9875    0.0000 O   0  0  0  0  0  0  0  0  0  0  0  0
    5.9125    1.9875    0.0000 O   0  0  0  0  0  0  0  0  0  0  0  0
   17.8792    4.2667    0.0000 O   0  0  0  0  0  0  0  0  0  0  0  0
   19.1042    0.7125    0.0000 C   0  0  0  0  0  0  0  0  0  0  0  0
   20.3417    2.8458    0.0000 C   0  0  0  0  0  0  0  0  0  0  0  0
   11.7625    4.9292    0.0000 C   0  0  0  0  0  0  0  0  0  0  0  0
   15.4125    2.8458    0.0000 C   0  0  0  0  0  0  0  0  0  0  0  0
   12.9917    4.2667    0.0000 C   0  0  0  0  0  0  0  0  0  0  0  0
   21.5750    0.7125    0.0000 C   0  0  0  0  0  0  0  0  0  0  0  0
    1.1625    5.7917    0.0000 C   0  0  0  0  0  0  0  0  0  0  0  0
   21.5750    2.1458    0.0000 C   0  0  0  0  0  0  0  0  0  0  0  0
   20.3417   -0.0000    0.0000 C   0  0  0  0  0  0  0  0  0  0  0  0
    1.1625    3.0208    0.0000 C   0  0  0  0  0  0  0  0  0  0  0  0
   15.4125    4.2667    0.0000 C   0  0  0  0  0  0  0  0  0  0  0  0
   14.2250    2.1458    0.0000 C   0  0  0  0  0  0  0  0  0  0  0  0
   14.2250    4.9292    0.0000 C   0  0  0  0  0  0  0  0  0  0  0  0
   12.9917    2.8458    0.0000 C   0  0  0  0  0  0  0  0  0  0  0  0
   22.7625   -0.0000    0.0000 O   0  0  0  0  0  0  0  0  0  0  0  0
   23.9917    0.7125    0.0000 C   0  0  0  0  0  0  0  0  0  0  0  0
    0.0000    5.1042    0.0000 C   0  0  0  0  0  0  0  0  0  0  0  0
    0.0000    3.7083    0.0000 C   0  0  0  0  0  0  0  0  0  0  0  0
  1  2  2  0  0  0  0
  1  3  1  0  0  0  0
  2  4  1  0  0  0  0
  1  5  1  0  0  0  0
  3  6  1  0  0  0  0
  7  8  1  0  0  0  0
  5  8  1  0  0  0  0
  9 12  1  0  0  0  0
  2 10  1  0  0  0  0
 10 11  3  0  0  0  0
 12 22  1  0  0  0  0
 13 15  1  0  0  0  0
  9 14  1  0  0  0  0
  7 15  1  0  0  0  0
  7 16  2  0  0  0  0
  8 17  2  0  0  0  0
  9 18  2  0  0  0  0
 14 19  2  0  0  0  0
 14 20  1  0  0  0  0
 13 21  2  0  0  0  0
 22 30  2  0  0  0  0
 21 23  1  0  0  0  0
 24 26  1  0  0  0  0
  4 25  1  0  0  0  0
 20 26  2  0  0  0  0
 19 27  1  0  0  0  0
  6 28  1  0  0  0  0
 29 31  2  0  0  0  0
 30 32  1  0  0  0  0
 23 31  1  0  0  0  0
 23 32  2  0  0  0  0
 24 33  1  0  0  0  0
 33 34  1  0  0  0  0
 25 35  1  0  0  0  0
 28 36  1  0  0  0  0
  4  6  2  0  0  0  0
 35 36  1  0  0  0  0
 22 29  1  0  0  0  0
 24 27  2  0  0  0  0
M  END
> <MOLFORMULA>
C26 H22 N4 O5 S

> <MOLWEIGHT>
5.025488000000000e+002

> <IDNUMBER>
AT-225/NB79430

> <PRICE>
EUR 140/10 mg

> <Similarity score>
0.17

$$$$

  -OEChem-04222410502D

 36 39  0     0  0  0  0  0  0999 V2000
    4.4917    3.6458    0.0000 C   0  0  0  0  0  0  0  0  0  0  0  0
    3.6625    4.7500    0.0000 C   0  0  0  0  0  0  0  0  0  0  0  0
    3.6625    2.5333    0.0000 S   0  0  0  0  0  0  0  0  0  0  0  0
    2.3625    4.3292    0.0000 C   0  0  0  0  0  0  0  0  0  0  0  0
    5.8875    3.6458    0.0000 N   0  0  0  0  0  0  0  0  0  0  0  0
    2.3625    2.9458    0.0000 C   0  0  0  0  0  0  0  0  0  0  0  0
    7.9750    2.4333    0.0000 C   0  0  0  0  0  0  0  0  0  0  0  0
    6.5792    2.4333    0.0000 C   0  0  0  0  0  0  0  0  0  0  0  0
   15.4792    6.3000    0.0000 C   0  0  0  0  0  0  0  0  0  0  0  0
    4.1250    6.0917    0.0000 C   0  0  0  0  0  0  0  0  0  0  0  0
   14.2667    5.5917    0.0000 O   0  0  0  0  0  0  0  0  0  0  0  0
   13.0542    3.5083    0.0000 C   0  0  0  0  0  0  0  0  0  0  0  0
   14.2667    4.2000    0.0000 C   0  0  0  0  0  0  0  0  0  0  0  0
    4.4917    7.4417    0.0000 N   0  0  0  0  0  0  0  0  0  0  0  0
   10.6292    3.5083    0.0000 N   0  0  0  0  0  0  0  0  0  0  0  0
   16.6917    5.5917    0.0000 C   0  0  0  0  0  0  0  0  0  0  0  0
    9.2292    3.5083    0.0000 N   0  0  0  0  0  0  0  0  0  0  0  0
    8.6667    1.2333    0.0000 O   0  0  0  0  0  0  0  0  0  0  0  0
    5.8875    1.2333    0.0000 O   0  0  0  0  0  0  0  0  0  0  0  0
   13.0542    2.1000    0.0000 C   0  0  0  0  0  0  0  0  0  0  0  0
   15.4792    7.7000    0.0000 O   0  0  0  0  0  0  0  0  0  0  0  0
   11.8417    4.2000    0.0000 C   0  0  0  0  0  0  0  0  0  0  0  0
   15.4792    3.5083    0.0000 C   0  0  0  0  0  0  0  0  0  0  0  0
   16.6917    4.2000    0.0000 C   0  0  0  0  0  0  0  0  0  0  0  0
   17.9042    6.3000    0.0000 C   0  0  0  0  0  0  0  0  0  0  0  0
   14.2667    1.4000    0.0000 C   0  0  0  0  0  0  0  0  0  0  0  0
    1.1542    5.0292    0.0000 C   0  0  0  0  0  0  0  0  0  0  0  0
   15.4792    2.1000    0.0000 C   0  0  0  0  0  0  0  0  0  0  0  0
   19.1250    5.5917    0.0000 C   0  0  0  0  0  0  0  0  0  0  0  0
   17.9042    3.5083    0.0000 C   0  0  0  0  0  0  0  0  0  0  0  0
   19.1250    4.2000    0.0000 C   0  0  0  0  0  0  0  0  0  0  0  0
   14.2667   -0.0000    0.0000 Br  0  0  0  0  0  0  0  0  0  0  0  0
    1.1542    2.2500    0.0000 C   0  0  0  0  0  0  0  0  0  0  0  0
   20.3375    3.5083    0.0000 C   0  0  0  0  0  0  0  0  0  0  0  0
    0.0000    4.3292    0.0000 C   0  0  0  0  0  0  0  0  0  0  0  0
    0.0000    2.9458    0.0000 C   0  0  0  0  0  0  0  0  0  0  0  0
  1  2  2  0  0  0  0
  1  3  1  0  0  0  0
  2  4  1  0  0  0  0
  1  5  1  0  0  0  0
  3  6  1  0  0  0  0
  7  8  1  0  0  0  0
  5  8  1  0  0  0  0
  9 11  1  0  0  0  0
  2 10  1  0  0  0  0
 11 13  1  0  0  0  0
 12 22  1  0  0  0  0
 12 13  1  0  0  0  0
 10 14  3  0  0  0  0
 15 17  1  0  0  0  0
  9 16  1  0  0  0  0
  7 17  1  0  0  0  0
  7 18  2  0  0  0  0
  8 19  2  0  0  0  0
 12 20  2  0  0  0  0
  9 21  2  0  0  0  0
 15 22  2  0  0  0  0
 13 23  2  0  0  0  0
 16 24  2  0  0  0  0
 16 25  1  0  0  0  0
 20 26  1  0  0  0  0
  4 27  1  0  0  0  0
 26 28  2  0  0  0  0
 25 29  2  0  0  0  0
 24 30  1  0  0  0  0
 29 31  1  0  0  0  0
 26 32  1  0  0  0  0
  6 33  1  0  0  0  0
 31 34  1  0  0  0  0
 27 35  1  0  0  0  0
 33 36  1  0  0  0  0
  4  6  2  0  0  0  0
 35 36  1  0  0  0  0
 23 28  1  0  0  0  0
 30 31  2  0  0  0  0
M  END
> <MOLFORMULA>
C26 H21 Br N4 O4 S

> <MOLWEIGHT>
5.654459000000001e+002

> <IDNUMBER>
AT-225/NB78968

> <PRICE>
EUR 140/10 mg

> <Similarity score>
0.17

$$$$

  -OEChem-04222410502D

 41 44  0     0  0  0  0  0  0999 V2000
    4.4917    4.3750    0.0000 C   0  0  0  0  0  0  0  0  0  0  0  0
    3.6625    5.4792    0.0000 C   0  0  0  0  0  0  0  0  0  0  0  0
    3.6625    3.2708    0.0000 S   0  0  0  0  0  0  0  0  0  0  0  0
    2.3625    5.0667    0.0000 C   0  0  0  0  0  0  0  0  0  0  0  0
    5.8875    4.3750    0.0000 N   0  0  0  0  0  0  0  0  0  0  0  0
    2.3625    3.6833    0.0000 C   0  0  0  0  0  0  0  0  0  0  0  0
    7.9750    3.1750    0.0000 C   0  0  0  0  0  0  0  0  0  0  0  0
    6.5792    3.1750    0.0000 C   0  0  0  0  0  0  0  0  0  0  0  0
   17.7792    2.8333    0.0000 C   0  0  0  0  0  0  0  0  0  0  0  0
    4.1250    6.8292    0.0000 C   0  0  0  0  0  0  0  0  0  0  0  0
   16.5542    2.1208    0.0000 O   0  0  0  0  0  0  0  0  0  0  0  0
    4.4917    8.1792    0.0000 N   0  0  0  0  0  0  0  0  0  0  0  0
   15.3375    2.8333    0.0000 C   0  0  0  0  0  0  0  0  0  0  0  0
   15.3375    4.2292    0.0000 C   0  0  0  0  0  0  0  0  0  0  0  0
   10.6250    4.2292    0.0000 N   0  0  0  0  0  0  0  0  0  0  0  0
   19.0042    2.1208    0.0000 C   0  0  0  0  0  0  0  0  0  0  0  0
    9.2250    4.2292    0.0000 N   0  0  0  0  0  0  0  0  0  0  0  0
    8.6667    1.9708    0.0000 O   0  0  0  0  0  0  0  0  0  0  0  0
    5.8875    1.9708    0.0000 O   0  0  0  0  0  0  0  0  0  0  0  0
   17.7792    4.2292    0.0000 O   0  0  0  0  0  0  0  0  0  0  0  0
   14.1542    4.8917    0.0000 C   0  0  0  0  0  0  0  0  0  0  0  0
   14.1542    2.1208    0.0000 C   0  0  0  0  0  0  0  0  0  0  0  0
   19.0042    0.7083    0.0000 C   0  0  0  0  0  0  0  0  0  0  0  0
   20.2292    2.8333    0.0000 C   0  0  0  0  0  0  0  0  0  0  0  0
   11.7042    4.8917    0.0000 C   0  0  0  0  0  0  0  0  0  0  0  0
   12.9292    4.2292    0.0000 C   0  0  0  0  0  0  0  0  0  0  0  0
   21.4542    0.7083    0.0000 C   0  0  0  0  0  0  0  0  0  0  0  0
    1.1542    5.7667    0.0000 C   0  0  0  0  0  0  0  0  0  0  0  0
   12.9292    2.8333    0.0000 C   0  0  0  0  0  0  0  0  0  0  0  0
   16.5542    4.9417    0.0000 O   0  0  0  0  0  0  0  0  0  0  0  0
   20.2292   -0.0000    0.0000 C   0  0  0  0  0  0  0  0  0  0  0  0
   21.4542    2.1208    0.0000 C   0  0  0  0  0  0  0  0  0  0  0  0
    1.1542    2.9875    0.0000 C   0  0  0  0  0  0  0  0  0  0  0  0
   22.6375   -0.0000    0.0000 O   0  0  0  0  0  0  0  0  0  0  0  0
   23.8542    0.7083    0.0000 C   0  0  0  0  0  0  0  0  0  0  0  0
   16.5542    6.3542    0.0000 C   0  0  0  0  0  0  0  0  0  0  0  0
   25.0792   -0.0000    0.0000 C   0  0  0  0  0  0  0  0  0  0  0  0
   26.3042    0.7083    0.0000 C   0  0  0  0  0  0  0  0  0  0  0  0
    0.0000    5.0667    0.0000 C   0  0  0  0  0  0  0  0  0  0  0  0
    0.0000    3.6833    0.0000 C   0  0  0  0  0  0  0  0  0  0  0  0
   27.5292   -0.0000    0.0000 C   0  0  0  0  0  0  0  0  0  0  0  0
  1  2  2  0  0  0  0
  1  3  1  0  0  0  0
  2  4  1  0  0  0  0
  1  5  1  0  0  0  0
  3  6  1  0  0  0  0
  7  8  1  0  0  0  0
  5  8  1  0  0  0  0
  9 11  1  0  0  0  0
  2 10  1  0  0  0  0
 11 13  1  0  0  0  0
 10 12  3  0  0  0  0
 13 22  2  0  0  0  0
 14 21  2  0  0  0  0
 15 17  1  0  0  0  0
  9 16  1  0  0  0  0
  7 17  1  0  0  0  0
  7 18  2  0  0  0  0
  8 19  2  0  0  0  0
  9 20  2  0  0  0  0
 21 26  1  0  0  0  0
 22 29  1  0  0  0  0
 16 23  2  0  0  0  0
 16 24  1  0  0  0  0
 15 25  2  0  0  0  0
 25 26  1  0  0  0  0
 27 32  1  0  0  0  0
  4 28  1  0  0  0  0
 26 29  2  0  0  0  0
 14 30  1  0  0  0  0
 23 31  1  0  0  0  0
 24 32  2  0  0  0  0
  6 33  1  0  0  0  0
 27 34  1  0  0  0  0
 34 35  1  0  0  0  0
 30 36  1  0  0  0  0
 35 37  1  0  0  0  0
 37 38  1  0  0  0  0
 28 39  1  0  0  0  0
 33 40  1  0  0  0  0
 38 41  1  0  0  0  0
  4  6  2  0  0  0  0
 39 40  1  0  0  0  0
 13 14  1  0  0  0  0
 27 31  2  0  0  0  0
M  END
> <MOLFORMULA>
C30 H30 N4 O6 S

> <MOLWEIGHT>
5.746550000000000e+002

> <IDNUMBER>
AT-225/NB79428

> <PRICE>
EUR 140/10 mg

> <Similarity score>
0.17

$$$$

  -OEChem-04222410502D

 19 21  0     0  0  0  0  0  0999 V2000
    1.4292    0.2000    0.0000 C   0  0  0  0  0  0  0  0  0  0  0  0
    1.4292   -0.5500    0.0000 C   0  0  0  0  0  0  0  0  0  0  0  0
    0.1167   -0.5500    0.0000 C   0  0  0  0  0  0  0  0  0  0  0  0
    0.1167    0.2083    0.0000 C   0  0  0  0  0  0  0  0  0  0  0  0
    0.7750   -0.9250    0.0000 S   0  0  0  0  0  0  0  0  0  0  0  0
    2.0667    0.5833    0.0000 C   0  0  0  0  0  0  0  0  0  0  0  0
   -1.1833   -0.5500    0.0000 N   0  0  3  0  0  0  0  0  0  0  0  0
    2.7292    0.2208    0.0000 N   0  0  0  0  0  0  0  0  0  0  0  0
   -0.5333   -0.9250    0.0000 C   0  0  0  0  0  0  0  0  0  0  0  0
   -0.5333    0.5833    0.0000 C   0  0  0  0  0  0  0  0  0  0  0  0
    2.0792   -0.9250    0.0000 N   0  0  0  0  0  0  0  0  0  0  0  0
   -1.1833    0.2083    0.0000 C   0  0  0  0  0  0  0  0  0  0  0  0
   -1.8333   -0.9250    0.0000 C   0  0  0  0  0  0  0  0  0  0  0  0
   -2.4833   -0.5500    0.0000 C   0  0  0  0  0  0  0  0  0  0  0  0
   -3.1333   -0.9250    0.0000 C   0  0  0  0  0  0  0  0  0  0  0  0
   -2.4833    0.2000    0.0000 C   0  0  0  0  0  0  0  0  0  0  0  0
   -3.1333    0.5750    0.0000 C   0  0  0  0  0  0  0  0  0  0  0  0
   -3.7833   -0.5500    0.0000 C   0  0  0  0  0  0  0  0  0  0  0  0
   -3.7833    0.2000    0.0000 C   0  0  0  0  0  0  0  0  0  0  0  0
  1  2  2  0  0  0  0
  3  4  2  0  0  0  0
  1  4  1  0  0  0  0
  2  5  1  0  0  0  0
  1  6  1  0  0  0  0
  7 12  1  0  0  0  0
  6  8  3  0  0  0  0
  3  9  1  0  0  0  0
  4 10  1  0  0  0  0
  2 11  1  0  0  0  0
 10 12  1  0  0  0  0
  7 13  1  0  0  0  0
 13 14  1  0  0  0  0
 14 15  2  0  0  0  0
 14 16  1  0  0  0  0
 16 17  2  0  0  0  0
 15 18  1  0  0  0  0
 17 19  1  0  0  0  0
  3  5  1  0  0  0  0
  7  9  1  0  0  0  0
 18 19  2  0  0  0  0
M  END
> <MOLFORMULA>
C15 H15 N3 S

> <MOLWEIGHT>
2.693705000000000e+002

> <IDNUMBER>
AT-225/JK18545

> <PRICE>
EUR 140/10 mg

> <Similarity score>
0.17

$$$$

  -OEChem-04222410502D

 25 27  0     0  0  0  0  0  0999 V2000
    0.1625   -1.2167    0.0000 C   0  0  0  0  0  0  0  0  0  0  0  0
    0.5667   -2.1333    0.0000 C   0  0  0  0  0  0  0  0  0  0  0  0
    1.5625   -2.0250    0.0000 C   0  0  0  0  0  0  0  0  0  0  0  0
    1.7708   -1.0500    0.0000 C   0  0  0  0  0  0  0  0  0  0  0  0
    0.9042   -0.5500    0.0000 S   0  0  0  0  0  0  0  0  0  0  0  0
   -0.8167   -1.0083    0.0000 N   0  0  0  0  0  0  0  0  0  0  0  0
   -1.1250   -0.0583    0.0000 C   0  0  0  0  0  0  0  0  0  0  0  0
    0.0667   -2.9958    0.0000 C   0  0  0  0  0  0  0  0  0  0  0  0
   -2.1042    0.1500    0.0000 C   0  0  0  0  0  0  0  0  0  0  0  0
   -0.9333   -2.9958    0.0000 N   0  0  0  0  0  0  0  0  0  0  0  0
    2.3042   -2.6958    0.0000 C   0  0  0  0  0  0  0  0  0  0  0  0
    2.7208   -0.7417    0.0000 C   0  0  0  0  0  0  0  0  0  0  0  0
   -2.4125    1.1000    0.0000 C   0  0  0  0  0  0  0  0  0  0  0  0
   -2.7708   -0.5958    0.0000 C   0  0  0  0  0  0  0  0  0  0  0  0
   -0.4583    0.6833    0.0000 O   0  0  0  0  0  0  0  0  0  0  0  0
   -4.0583    0.5625    0.0000 C   0  0  0  0  0  0  0  0  0  0  0  0
   -3.3917    1.3083    0.0000 C   0  0  0  0  0  0  0  0  0  0  0  0
   -3.7500   -0.3875    0.0000 C   0  0  0  0  0  0  0  0  0  0  0  0
    3.2583   -2.3875    0.0000 C   0  0  0  0  0  0  0  0  0  0  0  0
    3.4667   -1.4083    0.0000 C   0  0  3  0  0  0  0  0  0  0  0  0
   -4.4208   -1.1292    0.0000 O   0  0  0  0  0  0  0  0  0  0  0  0
   -3.7000    2.2583    0.0000 O   0  0  0  0  0  0  0  0  0  0  0  0
   -3.0292    3.0000    0.0000 C   0  0  0  0  0  0  0  0  0  0  0  0
   -4.1125   -2.0792    0.0000 C   0  0  0  0  0  0  0  0  0  0  0  0
    4.4167   -1.1000    0.0000 C   0  0  0  0  0  0  0  0  0  0  0  0
  1  2  2  0  0  0  0
  2  3  1  0  0  0  0
  4  5  1  0  0  0  0
  1  5  1  0  0  0  0
  1  6  1  0  0  0  0
  6  7  1  0  0  0  0
  2  8  1  0  0  0  0
  7  9  1  0  0  0  0
  8 10  3  0  0  0  0
  3 11  1  0  0  0  0
  4 12  1  0  0  0  0
  9 13  2  0  0  0  0
  9 14  1  0  0  0  0
  7 15  2  0  0  0  0
 16 18  1  0  0  0  0
 13 17  1  0  0  0  0
 14 18  2  0  0  0  0
 11 19  1  0  0  0  0
 12 20  1  0  0  0  0
 18 21  1  0  0  0  0
 17 22  1  0  0  0  0
 22 23  1  0  0  0  0
 21 24  1  0  0  0  0
 20 25  1  0  0  0  0
  3  4  2  0  0  0  0
 19 20  1  0  0  0  0
 16 17  2  0  0  0  0
M  END
> <MOLFORMULA>
C19 H20 N2 O3 S

> <MOLWEIGHT>
3.564440000000000e+002

> <IDNUMBER>
AN-153/I178491

> <PRICE>
EUR 130/10 mg

> <Similarity score>
0.17

$$$$

  -OEChem-04222410502D

 19 21  0     0  0  0  0  0  0999 V2000
    2.1583    0.9500    0.0000 C   0  0  0  0  0  0  0  0  0  0  0  0
    2.4458   -0.0083    0.0000 C   0  0  0  0  0  0  0  0  0  0  0  0
    0.8542   -0.0083    0.0000 C   0  0  0  0  0  0  0  0  0  0  0  0
    1.1625    0.9208    0.0000 C   0  0  0  0  0  0  0  0  0  0  0  0
    1.6792   -0.6000    0.0000 S   0  0  0  0  0  0  0  0  0  0  0  0
    2.7583    1.7583    0.0000 C   0  0  0  0  0  0  0  0  0  0  0  0
   -0.7792    0.4833    0.0000 N   0  0  3  0  0  0  0  0  0  0  0  0
    3.3583    2.5625    0.0000 N   0  0  0  0  0  0  0  0  0  0  0  0
   -0.1167   -0.2250    0.0000 C   0  0  0  0  0  0  0  0  0  0  0  0
    0.4792    1.6625    0.0000 C   0  0  0  0  0  0  0  0  0  0  0  0
    3.4208   -0.3542    0.0000 N   0  0  0  0  0  0  0  0  0  0  0  0
   -0.4833    1.4417    0.0000 C   0  0  0  0  0  0  0  0  0  0  0  0
   -1.7917    0.2958    0.0000 C   0  0  0  0  0  0  0  0  0  0  0  0
   -2.1208   -0.6583    0.0000 C   0  0  0  0  0  0  0  0  0  0  0  0
   -1.4583   -1.4125    0.0000 C   0  0  0  0  0  0  0  0  0  0  0  0
   -3.0917   -0.8500    0.0000 C   0  0  0  0  0  0  0  0  0  0  0  0
   -3.4250   -1.8125    0.0000 C   0  0  0  0  0  0  0  0  0  0  0  0
   -1.7917   -2.3417    0.0000 C   0  0  0  0  0  0  0  0  0  0  0  0
   -2.7625   -2.5583    0.0000 C   0  0  0  0  0  0  0  0  0  0  0  0
  1  2  2  0  0  0  0
  3  4  2  0  0  0  0
  1  4  1  0  0  0  0
  2  5  1  0  0  0  0
  1  6  1  0  0  0  0
  7 12  1  0  0  0  0
  6  8  3  0  0  0  0
  3  9  1  0  0  0  0
  4 10  1  0  0  0  0
  2 11  1  0  0  0  0
 10 12  1  0  0  0  0
  7 13  1  0  0  0  0
 13 14  1  0  0  0  0
 14 15  1  0  0  0  0
 14 16  2  0  0  0  0
 16 17  1  0  0  0  0
 15 18  2  0  0  0  0
 18 19  1  0  0  0  0
  3  5  1  0  0  0  0
  7  9  1  0  0  0  0
 17 19  2  0  0  0  0
M  END
> <MOLFORMULA>
C15 H15 N3 S

> <MOLWEIGHT>
2.693705000000000e+002

> <IDNUMBER>
AN-153/NB12164

> <PRICE>
EUR 130/10 mg

> <Similarity score>
0.17

$$$$

  -OEChem-04222410502D

 28 31  0     0  0  0  0  0  0999 V2000
    2.1542    0.9250    0.0000 C   0  0  0  0  0  0  0  0  0  0  0  0
    2.5875    0.3208    0.0000 C   0  0  0  0  0  0  0  0  0  0  0  0
    3.9792   -2.4917    0.0000 S   0  0  3  0  0  0  0  0  0  0  0  0
    2.1542   -0.2875    0.0000 S   0  0  0  0  0  0  0  0  0  0  0  0
    1.4375    0.6958    0.0000 C   0  0  0  0  0  0  0  0  0  0  0  0
    1.4375   -0.0542    0.0000 C   0  0  0  0  0  0  0  0  0  0  0  0
    4.9042    0.3583    0.0000 N   0  0  3  0  0  0  0  0  0  0  0  0
    3.3375    0.3208    0.0000 N   0  0  0  0  0  0  0  0  0  0  0  0
    4.4625    0.9708    0.0000 C   0  0  0  0  0  0  0  0  0  0  0  0
    2.3792    1.6333    0.0000 C   0  0  0  0  0  0  0  0  0  0  0  0
    2.6125    2.3458    0.0000 N   0  0  0  0  0  0  0  0  0  0  0  0
    4.2042   -1.7792    0.0000 C   0  0  0  0  0  0  0  0  0  0  0  0
    3.7125    0.9708    0.0000 C   0  0  0  0  0  0  0  0  0  0  0  0
    4.6750   -0.3542    0.0000 C   0  0  0  0  0  0  0  0  0  0  0  0
    4.7042   -2.7042    0.0000 O   0  0  0  0  0  0  0  0  0  0  0  0
    3.2417   -2.2542    0.0000 O   0  0  0  0  0  0  0  0  0  0  0  0
    5.6167    0.5958    0.0000 C   0  0  0  0  0  0  0  0  0  0  0  0
    5.6167    1.3458    0.0000 C   0  0  0  0  0  0  0  0  0  0  0  0
    4.9042    1.5750    0.0000 C   0  0  0  0  0  0  0  0  0  0  0  0
    3.7625   -3.1792    0.0000 N   0  0  0  0  0  0  0  0  0  0  0  0
    3.7042   -1.2250    0.0000 C   0  0  0  0  0  0  0  0  0  0  0  0
    4.9417   -1.6250    0.0000 C   0  0  0  0  0  0  0  0  0  0  0  0
    3.9375   -0.5042    0.0000 C   0  0  0  0  0  0  0  0  0  0  0  0
    5.1750   -0.9125    0.0000 C   0  0  0  0  0  0  0  0  0  0  0  0
    0.7875    1.0708    0.0000 C   0  0  0  0  0  0  0  0  0  0  0  0
    0.7875   -0.4292    0.0000 C   0  0  0  0  0  0  0  0  0  0  0  0
    0.1417    0.6958    0.0000 C   0  0  0  0  0  0  0  0  0  0  0  0
    0.1417   -0.0542    0.0000 C   0  0  0  0  0  0  0  0  0  0  0  0
  1  2  2  0  0  0  0
  3 12  1  0  0  0  0
  2  4  1  0  0  0  0
  1  5  1  0  0  0  0
  5  6  2  0  0  0  0
  7  9  1  0  0  0  0
  2  8  1  0  0  0  0
  9 13  1  0  0  0  0
  1 10  1  0  0  0  0
 10 11  3  0  0  0  0
 12 22  2  0  0  0  0
  8 13  2  0  0  0  0
  7 14  1  0  0  0  0
  3 15  2  0  0  0  0
  3 16  2  0  0  0  0
  7 17  1  0  0  0  0
 18 19  1  0  0  0  0
  9 19  2  0  0  0  0
  3 20  1  0  0  0  0
 21 23  2  0  0  0  0
 22 24  1  0  0  0  0
 14 23  1  0  0  0  0
 14 24  2  0  0  0  0
  5 25  1  0  0  0  0
  6 26  1  0  0  0  0
 25 27  1  0  0  0  0
 27 28  1  0  0  0  0
  4  6  1  0  0  0  0
 26 28  1  0  0  0  0
 17 18  2  0  0  0  0
 12 21  1  0  0  0  0
M  END
> <MOLFORMULA>
C20 H18 N4 O2 S2

> <MOLWEIGHT>
4.105202000000000e+002

> <IDNUMBER>
AM-879/PD00345

> <PRICE>
EUR 55.00/10 mg

> <Similarity score>
0.17

$$$$

  -OEChem-04222410502D

 14 15  0     0  0  0  0  0  0999 V2000
    0.1375    0.9458    0.0000 C   0  0  0  0  0  0  0  0  0  0  0  0
    0.1375    0.2833    0.0000 C   0  0  0  0  0  0  0  0  0  0  0  0
   -1.0208    0.9458    0.0000 C   0  0  0  0  0  0  0  0  0  0  0  0
   -1.0208    0.2833    0.0000 C   0  0  0  0  0  0  0  0  0  0  0  0
   -0.4458   -0.0500    0.0000 S   0  0  0  0  0  0  0  0  0  0  0  0
    0.7500    1.2833    0.0000 C   0  0  0  0  0  0  0  0  0  0  0  0
    1.3542    1.6208    0.0000 N   0  0  0  0  0  0  0  0  0  0  0  0
   -1.6000    1.2708    0.0000 C   0  0  0  0  0  0  0  0  0  0  0  0
   -1.6000   -0.0500    0.0000 C   0  0  0  0  0  0  0  0  0  0  0  0
    0.7500   -0.0667    0.0000 N   0  0  0  0  0  0  0  0  0  0  0  0
   -2.1833    0.9458    0.0000 C   0  0  0  0  0  0  0  0  0  0  0  0
   -2.1833    0.2833    0.0000 C   0  0  3  0  0  0  0  0  0  0  0  0
   -2.7958   -0.0667    0.0000 C   0  0  0  0  0  0  0  0  0  0  0  0
   -3.4000    0.2833    0.0000 C   0  0  0  0  0  0  0  0  0  0  0  0
  1  2  2  0  0  0  0
  1  3  1  0  0  0  0
  3  4  2  0  0  0  0
  2  5  1  0  0  0  0
  1  6  1  0  0  0  0
  6  7  3  0  0  0  0
  3  8  1  0  0  0  0
  4  9  1  0  0  0  0
  2 10  1  0  0  0  0
  8 11  1  0  0  0  0
 11 12  1  0  0  0  0
 12 13  1  0  0  0  0
 13 14  1  0  0  0  0
  4  5  1  0  0  0  0
  9 12  1  0  0  0  0
M  END
> <MOLFORMULA>
C11 H14 N2 S

> <MOLWEIGHT>
2.063116000000000e+002

> <IDNUMBER>
AT-225/JK21271

> <PRICE>
EUR 140/10 mg

> <Similarity score>
0.17

$$$$
